data_PCOD8287642
_publ_section_title
;
Structure prediction by ZEFSAII (Michael W. Deem and Ramdas Pophale) SiO2 
 PCOD8287642
Probable space group: I M M M
;
_chemical_formula_sum "Si O2"
_cell_formula_units_Z 72
_cell_length_a 28.382425
_cell_length_b 16.270636
_cell_length_c 8.801241
_cell_angle_alpha 90.000000
_cell_angle_beta 90.000000
_cell_angle_gamma 90.000000
_cell_volume 4064.414026
_symmetry_space_group_name_H-M "I M M M"
_symmetry_group_IT_number 71
_symmetry_cell_setting 'orthorhombic'
loop_
_space_group_symop_operation_xyz
x,y,z
-x,-y,z
x,-y,-z
-x,y,-z
-x,-y,-z
x,y,-z
-x,y,z
x,-y,z
1/2+x,1/2+y,1/2+z
1/2-x,1/2-y,1/2+z
1/2+x,1/2-y,1/2-z
1/2-x,1/2+y,1/2-z
1/2-x,1/2-y,1/2-z
1/2+x,1/2+y,1/2-z
1/2-x,1/2+y,1/2+z
1/2+x,1/2-y,1/2+z
loop_
_atom_site_type_symbol
_atom_site_label
_atom_site_fract_x
_atom_site_fract_y
_atom_site_fract_z
Si Si1 0.856969 0.242445 0.678029
Si Si2 0.055955 0.500000 0.831033
Si Si3 0.447512 0.835041 0.176700
Si Si4 0.723725 0.827888 0.680911
Si Si5 0.194337 0.092445 0.824127
O O1 0.845321 0.239653 0.500000
O O2 0.912286 0.259123 0.710087
O O3 0.829138 0.319711 0.753961
O O4 0.843117 0.154804 0.749613
O O5 0.073872 0.582560 0.750395
O O6 0.000000 0.500000 0.828697
O O7 0.076774 0.500000 0.000000
O O8 0.500000 0.812929 0.239490
O O9 0.450308 0.853633 0.000000
O O10 0.723014 0.829028 0.500000
O O11 0.750000 0.750000 0.750000
O O12 0.753994 0.904594 0.743830
O O13 0.174799 0.000000 0.804510
O O14 0.200151 0.116406 0.000000
#
# Coordination Sequence:
#
# PCOD8287642 Si02
#       5
#    16   8  16  16  16
#     4  10  19  32  52  75 100 131 166 205 247 292
#     4   9  17  29  47  71  97 125 159 201 245 287
#     4   9  18  33  52  73  99 133 169 203 244 294
#     4  10  18  30  49  70  96 126 158 197 241 290
#     4  10  20  34  52  73  99 131 166 205 247 294
#
# _framework density 17.714729999999999
#
# number of rings (size 3 to 8) (size 9 to 14) (size 15 to 20)
#    0.000    2.333    0.000    6.333    0.000    4.889 
#    2.000    0.000    0.000    0.667    0.000    4.667 
#    0.000    0.000    0.000    0.000    0.000    0.000 
#
# Total GULP energy -446124.939272 kJ/mol
# GULP energy per Si atom -12392.359424 kJ/mol
# Density = 1.767441 g / cm^3
# Si number density = 17.714730 Si / 1000 Ang^3
#
#
#
# Elastic Constant Matrix: (Units=GPa)
#
#
# Indices 1 2 3 4 5 6 
#
# 1 98.7961 51.6735 50.1696 0.0000 0.0000 0.0000
# 2 51.6735 95.8235 49.3723 0.0000 0.0000 0.0000
# 3 50.1696 49.3723 126.7690 0.0000 0.0000 0.0000
# 4 0.0000 0.0000 0.0000 27.0362 0.0000 0.0000
# 5 0.0000 0.0000 0.0000 0.0000 21.9556 0.0000
# 6 0.0000 0.0000 0.0000 0.0000 0.0000 22.6848
#
#
#
# Elastic Compliance Matrix: (Units=1/GPa)
#
#
# Indices 1 2 3 4 5 6 
#
# 1 0.015277 -0.006409 -0.003550 0.000000 0.000000 0.000000
# 2 -0.006409 0.015745 -0.003596 0.000000 0.000000 0.000000
# 3 -0.003550 -0.003596 0.010694 0.000000 0.000000 0.000000
# 4 0.000000 0.000000 0.000000 0.036987 0.000000 0.000000
# 5 0.000000 0.000000 0.000000 0.000000 0.045547 0.000000
# 6 0.000000 0.000000 0.000000 0.000000 0.000000 0.044082
#
#
# Mechanical properties :
#
#
# Convention : Reuss Voigt Hill
#
# Bulk Modulus (GPa) = 68.46473 69.31327 68.88900
# Shear Modulus (GPa) = 24.96152 25.68019 25.32086
#
# Velocity S-wave (km/s) = 3.75785 3.81156 3.78480
# Velocity P-wave (km/s) = 7.58689 7.65396 7.62050
#
# Compressibility (1/GPa) = 0.01460606
#
# Stress axis : x y z
#
# Youngs Moduli (GPa) = 65.45977 63.51397 93.51452
#
# Poissons Ratio (x) = 0.40706 0.33195
# Poissons Ratio (y) = 0.41954 0.33624
# Poissons Ratio (z) = 0.23236 0.22837
#
# Static dielectric constant tensor:
#      x y z
#    x 3.692890 0.000000 0.000000 
#    y 0.000000 3.252020 0.000000 
#    z 0.000000 0.000000 3.435960 
# 
# 
# High freq. dielectric constant tensor:
#      x y z
#    x 1.670100 0.000000 0.000000 
#    y 0.000000 1.662930 0.000000 
#    z 0.000000 0.000000 1.700780 
# 
# From -- ./inp_files/14484.got.cif
#   From: 2010.06.25/outbox.cif.g09.slc.cpg/sg71_8_cif.got.tgz:14484.got - 2010.06.28 04:59:45.
