data_PCOD8287918
_publ_section_title
;
Structure prediction by ZEFSAII (Michael W. Deem and Ramdas Pophale) SiO2 
 PCOD8287918
Probable space group: I M M M
;
_chemical_formula_sum "Si O2"
_cell_formula_units_Z 128
_cell_length_a 22.430343
_cell_length_b 24.735816
_cell_length_c 12.628133
_cell_angle_alpha 90.000000
_cell_angle_beta 90.000000
_cell_angle_gamma 90.000000
_cell_volume 7006.502862
_symmetry_space_group_name_H-M "I M M M"
_symmetry_group_IT_number 71
_symmetry_cell_setting 'orthorhombic'
loop_
_space_group_symop_operation_xyz
x,y,z
-x,-y,z
x,-y,-z
-x,y,-z
-x,-y,-z
x,y,-z
-x,y,z
x,-y,z
1/2+x,1/2+y,1/2+z
1/2-x,1/2-y,1/2+z
1/2+x,1/2-y,1/2-z
1/2-x,1/2+y,1/2-z
1/2-x,1/2-y,1/2-z
1/2+x,1/2+y,1/2-z
1/2-x,1/2+y,1/2+z
1/2+x,1/2-y,1/2+z
loop_
_atom_site_type_symbol
_atom_site_label
_atom_site_fract_x
_atom_site_fract_y
_atom_site_fract_z
Si Si1 0.760763 0.798277 0.377559
Si Si2 0.931110 0.562902 0.295435
Si Si3 0.350173 0.240794 0.734274
Si Si4 0.356930 0.849481 0.881930
Si Si5 0.139190 0.060728 0.877465
Si Si6 0.349632 0.938609 0.614274
Si Si7 0.751047 0.396995 0.259771
Si Si8 0.569634 0.331643 0.624085
O O1 0.773157 0.806943 0.500000
O O2 0.691485 0.780462 0.361658
O O3 0.806198 0.754844 0.331508
O O4 0.778218 0.852315 0.315204
O O5 0.916450 0.500000 0.315718
O O6 0.899138 0.597684 0.386098
O O7 0.905569 0.583276 0.181776
O O8 0.000000 0.575230 0.297531
O O9 0.384731 0.191417 0.792540
O O10 0.394255 0.287473 0.693130
O O11 0.289995 0.867468 0.850062
O O12 0.355364 0.824420 0.000000
O O13 0.199674 0.067461 0.811959
O O14 0.091651 0.107578 0.847223
O O15 0.113399 0.000000 0.854218
O O16 0.155993 0.066269 0.000000
O O17 0.344555 0.907654 0.500000
O O18 0.290423 0.934574 0.684253
O O19 0.361491 0.000000 0.587859
O O20 0.579818 0.319406 0.500000
O O21 0.500000 0.327658 0.653694
#
# Coordination Sequence:
#
# PCOD8287918 Si02
#       8
#    16  16  16  16  16  16  16  16
#     4  10  19  31  53  80 107 140 176 216 264 318
#     4   9  19  35  52  71  99 138 183 226 269 319
#     4  10  20  35  53  81 110 142 177 221 267 324
#     4  10  21  34  52  77 108 142 179 223 271 322
#     4  10  20  34  55  83 112 143 182 225 273 331
#     4   9  17  29  47  72 102 135 171 214 263 313
#     4  10  18  32  50  77 111 140 172 214 267 323
#     4  10  21  38  59  82 112 148 183 224 275 327
#
# _framework density 18.268743000000001
#
# number of rings (size 3 to 8) (size 9 to 14) (size 15 to 20)
#    0.000    2.250    1.250    1.875    0.000    2.000 
#    0.000    3.750    0.000    1.125    0.000    0.000 
#    0.000    1.000    0.000    0.000    0.000    0.000 
#
# Total GULP energy -793082.167061 kJ/mol
# GULP energy per Si atom -12391.908860 kJ/mol
# Density = 1.822716 g / cm^3
# Si number density = 18.268743 Si / 1000 Ang^3
#
#
#
# Elastic Constant Matrix: (Units=GPa)
#
#
# Indices 1 2 3 4 5 6 
#
# 1 68.5488 32.6218 33.7106 0.0000 0.0000 0.0000
# 2 32.6218 86.3686 36.5931 0.0000 0.0000 0.0000
# 3 33.7106 36.5931 95.6876 0.0000 0.0000 0.0000
# 4 0.0000 0.0000 0.0000 10.1517 0.0000 0.0000
# 5 0.0000 0.0000 0.0000 0.0000 15.7017 0.0000
# 6 0.0000 0.0000 0.0000 0.0000 0.0000 26.9961
#
#
#
# Elastic Compliance Matrix: (Units=1/GPa)
#
#
# Indices 1 2 3 4 5 6 
#
# 1 0.019495 -0.005315 -0.004836 0.000000 0.000000 0.000000
# 2 -0.005315 0.015266 -0.003966 0.000000 0.000000 0.000000
# 3 -0.004836 -0.003966 0.013671 0.000000 0.000000 0.000000
# 4 0.000000 0.000000 0.000000 0.098505 0.000000 0.000000
# 5 0.000000 0.000000 0.000000 0.000000 0.063687 0.000000
# 6 0.000000 0.000000 0.000000 0.000000 0.000000 0.037042
#
#
# Mechanical properties :
#
#
# Convention : Reuss Voigt Hill
#
# Bulk Modulus (GPa) = 49.50500 50.71733 50.11117
# Shear Modulus (GPa) = 17.69079 20.41521 19.05300
#
# Velocity S-wave (km/s) = 3.11523 3.34652 3.23294
# Velocity P-wave (km/s) = 6.33219 6.53868 6.43626
#
# Compressibility (1/GPa) = 0.02019998
#
# Stress axis : x y z
#
# Youngs Moduli (GPa) = 51.29403 65.50569 73.14825
#
# Poissons Ratio (x) = 0.34814 0.35373
# Poissons Ratio (y) = 0.27261 0.29008
# Poissons Ratio (z) = 0.24805 0.25977
#
# Static dielectric constant tensor:
#      x y z
#    x 3.196280 0.000000 0.000000 
#    y 0.000000 3.575820 0.000000 
#    z 0.000000 0.000000 3.549190 
# 
# 
# High freq. dielectric constant tensor:
#      x y z
#    x 1.682720 0.000000 0.000000 
#    y 0.000000 1.716460 0.000000 
#    z 0.000000 0.000000 1.705220 
# 
# From -- ./inp_files/27858.got.cif
#   From: 2010.06.25/outbox.cif.g09.slc.cpg/sg71_14_cif.got.tgz:27858.got - 2010.06.28 04:59:45.
