data_PCOD8287831
_publ_section_title
;
Structure prediction by ZEFSAII (Michael W. Deem and Ramdas Pophale) SiO2 
 PCOD8287831
Probable space group: I M M M
;
_chemical_formula_sum "Si O2"
_cell_formula_units_Z 64
_cell_length_a 34.929053
_cell_length_b 8.650148
_cell_length_c 11.315768
_cell_angle_alpha 90.000000
_cell_angle_beta 90.000000
_cell_angle_gamma 90.000000
_cell_volume 3418.962868
_symmetry_space_group_name_H-M "I M M M"
_symmetry_group_IT_number 71
_symmetry_cell_setting 'orthorhombic'
loop_
_space_group_symop_operation_xyz
x,y,z
-x,-y,z
x,-y,-z
-x,y,-z
-x,-y,-z
x,y,-z
-x,y,z
x,-y,z
1/2+x,1/2+y,1/2+z
1/2-x,1/2-y,1/2+z
1/2+x,1/2-y,1/2-z
1/2-x,1/2+y,1/2-z
1/2-x,1/2-y,1/2-z
1/2+x,1/2+y,1/2-z
1/2-x,1/2+y,1/2+z
1/2+x,1/2-y,1/2+z
loop_
_atom_site_type_symbol
_atom_site_label
_atom_site_fract_x
_atom_site_fract_y
_atom_site_fract_z
Si Si1 0.957373 0.181487 0.500000
Si Si2 0.500000 0.683649 0.368928
Si Si3 0.228414 0.181166 0.135306
Si Si4 0.647347 0.823429 0.633608
Si Si5 0.575844 0.317516 0.243546
O O1 0.931554 0.230665 0.609515
O O2 0.000000 0.258488 0.500000
O O3 0.964443 0.000000 0.500000
O O4 0.500000 0.500000 0.358345
O O5 0.500000 0.746750 0.500000
O O6 0.461360 0.747146 0.310957
O O7 0.250000 0.250000 0.250000
O O8 0.184038 0.217479 0.156195
O O9 0.235366 0.000000 0.138749
O O10 0.240260 0.240950 0.000000
O O11 0.632564 0.803723 0.500000
O O12 0.613634 0.770879 0.718563
O O13 0.658697 0.000000 0.661049
O O14 0.581585 0.500000 0.263647
#
# Coordination Sequence:
#
# PCOD8287831 Si02
#       5
#     8   8  16  16  16
#     4   9  16  30  51  75 103 139 181 227 277 327
#     4   9  16  25  44  74 101 129 172 225 272 320
#     4  10  21  39  64  92 120 151 188 230 279 337
#     4  10  21  37  56  79 110 146 183 226 276 327
#     4  10  18  31  52  76 104 138 181 227 273 327
#
# _framework density 18.719127
#
# number of rings (size 3 to 8) (size 9 to 14) (size 15 to 20)
#    0.000    2.250    1.250    2.250    0.000    4.000 
#    2.250    1.250    0.000    3.000    0.000    0.000 
#    0.000    0.000    0.000    0.000    0.000    0.000 
#
# Total GULP energy -396542.402612 kJ/mol
# GULP energy per Si atom -12391.950082 kJ/mol
# Density = 1.867652 g / cm^3
# Si number density = 18.719127 Si / 1000 Ang^3
#
#
#
# Elastic Constant Matrix: (Units=GPa)
#
#
# Indices 1 2 3 4 5 6 
#
# 1 106.3795 21.8066 77.4299 0.0000 0.0000 0.0000
# 2 21.8066 43.3701 32.5800 0.0000 0.0000 0.0000
# 3 77.4299 32.5800 168.8857 0.0000 0.0000 0.0000
# 4 0.0000 0.0000 0.0000 23.4240 0.0000 0.0000
# 5 0.0000 0.0000 0.0000 0.0000 59.6859 0.0000
# 6 0.0000 0.0000 0.0000 0.0000 0.0000 26.4291
#
#
#
# Elastic Compliance Matrix: (Units=1/GPa)
#
#
# Indices 1 2 3 4 5 6 
#
# 1 0.014366 -0.002661 -0.006073 0.000000 0.000000 0.000000
# 2 -0.002661 0.027458 -0.004077 0.000000 0.000000 0.000000
# 3 -0.006073 -0.004077 0.009492 0.000000 0.000000 0.000000
# 4 0.000000 0.000000 0.000000 0.042691 0.000000 0.000000
# 5 0.000000 0.000000 0.000000 0.000000 0.016754 0.000000
# 6 0.000000 0.000000 0.000000 0.000000 0.000000 0.037837
#
#
# Mechanical properties :
#
#
# Convention : Reuss Voigt Hill
#
# Bulk Modulus (GPa) = 38.91989 64.69648 51.80818
# Shear Modulus (GPa) = 27.35437 34.36239 30.85838
#
# Velocity S-wave (km/s) = 3.82685 4.28914 4.06457
# Velocity P-wave (km/s) = 6.35319 7.69192 7.05438
#
# Compressibility (1/GPa) = 0.02569380
#
# Stress axis : x y z
#
# Youngs Moduli (GPa) = 69.60733 36.41931 105.35111
#
# Poissons Ratio (x) = 0.09692 0.63982
# Poissons Ratio (y) = 0.18524 0.42950
# Poissons Ratio (z) = 0.42274 0.14848
#
# Static dielectric constant tensor:
#      x y z
#    x 3.331250 0.000000 0.000000 
#    y 0.000000 3.172580 0.000000 
#    z 0.000000 0.000000 3.373370 
# 
# 
# High freq. dielectric constant tensor:
#      x y z
#    x 1.724750 0.000000 0.000000 
#    y 0.000000 1.699760 0.000000 
#    z 0.000000 0.000000 1.739840 
# 
# From -- ./inp_files/3788.got.cif
#   From: 2010.06.25/outbox.cif.g09.slc.cpg/sg71_2_cif.got.tgz:3788.got - 2010.06.28 04:59:45.
