data_PCOD8287316
_publ_section_title
;
Structure prediction by ZEFSAII (Michael W. Deem and Ramdas Pophale) SiO2 
 PCOD8287316
Probable space group: I M M M
;
_chemical_formula_sum "Si O2"
_cell_formula_units_Z 96
_cell_length_a 22.345422
_cell_length_b 9.186402
_cell_length_c 27.028144
_cell_angle_alpha 90.000000
_cell_angle_beta 90.000000
_cell_angle_gamma 90.000000
_cell_volume 5548.176025
_symmetry_space_group_name_H-M "I M M M"
_symmetry_group_IT_number 71
_symmetry_cell_setting 'orthorhombic'
loop_
_space_group_symop_operation_xyz
x,y,z
-x,-y,z
x,-y,-z
-x,y,-z
-x,-y,-z
x,y,-z
-x,y,z
x,-y,z
1/2+x,1/2+y,1/2+z
1/2-x,1/2-y,1/2+z
1/2+x,1/2-y,1/2-z
1/2-x,1/2+y,1/2-z
1/2-x,1/2-y,1/2-z
1/2+x,1/2+y,1/2-z
1/2-x,1/2+y,1/2+z
1/2+x,1/2-y,1/2+z
loop_
_atom_site_type_symbol
_atom_site_label
_atom_site_fract_x
_atom_site_fract_y
_atom_site_fract_z
Si Si1 0.066729 0.326978 0.183728
Si Si2 0.430697 0.169943 0.794572
Si Si3 0.432998 0.826494 0.500000
Si Si4 0.858163 0.326522 0.907288
Si Si5 0.384669 0.327153 0.885617
Si Si6 0.731427 0.326698 0.943868
Si Si7 0.000000 0.173039 0.555269
O O1 0.064395 0.500000 0.181060
O O2 0.085988 0.279589 0.238916
O O3 0.114756 0.265191 0.144246
O O4 0.000000 0.267282 0.171415
O O5 0.500000 0.206772 0.805368
O O6 0.387785 0.259070 0.831073
O O7 0.418358 0.000000 0.801914
O O8 0.500000 0.763814 0.500000
O O9 0.399276 0.767368 0.451654
O O10 0.433505 0.000000 0.500000
O O11 0.858500 0.500000 0.906998
O O12 0.790732 0.269166 0.915775
O O13 0.384517 0.500000 0.880462
O O14 0.325517 0.269642 0.913277
O O15 0.441192 0.270074 0.916906
O O16 0.731245 0.500000 0.946041
O O17 0.729365 0.265578 0.000000
O O18 0.000000 0.237813 0.500000
O O19 0.000000 0.000000 0.553310
#
# Coordination Sequence:
#
# PCOD8287316 Si02
#       7
#    16  16   8  16  16  16   8
#     4   8  14  24  39  58  81 114 151 180 213 262
#     4   9  17  30  46  63  86 116 148 184 225 263
#     4   9  14  18  30  54  84 115 144 177 216 257
#     4   9  14  22  35  55  84 114 146 179 214 259
#     4  10  18  28  45  66  87 113 149 185 220 263
#     4   9  16  26  39  58  85 116 144 176 221 269
#     4   9  16  26  41  63  85 105 137 184 225 258
#
# _framework density 17.302985
#
# number of rings (size 3 to 8) (size 9 to 14) (size 15 to 20)
#    0.000    3.000    1.667    2.000    0.000    4.000 
#    0.000    0.833    0.000    2.500    0.000    0.000 
#    0.000    0.000    0.000    0.167    0.000    9.333 
#
# Total GULP energy -594984.793358 kJ/mol
# GULP energy per Si atom -12395.516528 kJ/mol
# Density = 1.726360 g / cm^3
# Si number density = 17.302985 Si / 1000 Ang^3
#
#
#
# Elastic Constant Matrix: (Units=GPa)
#
#
# Indices 1 2 3 4 5 6 
#
# 1 161.1904 14.1083 97.5953 0.0000 0.0000 0.0000
# 2 14.1083 9.2551 18.3329 0.0000 0.0000 0.0000
# 3 97.5953 18.3329 171.9868 0.0000 0.0000 0.0000
# 4 0.0000 0.0000 0.0000 17.2397 0.0000 0.0000
# 5 0.0000 0.0000 0.0000 0.0000 34.0461 0.0000
# 6 0.0000 0.0000 0.0000 0.0000 0.0000 7.3147
#
#
#
# Elastic Compliance Matrix: (Units=1/GPa)
#
#
# Indices 1 2 3 4 5 6 
#
# 1 0.009622 -0.004883 -0.004940 0.000000 0.000000 0.000000
# 2 -0.004883 0.139448 -0.012093 0.000000 0.000000 0.000000
# 3 -0.004940 -0.012093 0.009906 0.000000 0.000000 0.000000
# 4 0.000000 0.000000 0.000000 0.058006 0.000000 0.000000
# 5 0.000000 0.000000 0.000000 0.000000 0.029372 0.000000
# 6 0.000000 0.000000 0.000000 0.000000 0.000000 0.136712
#
#
# Mechanical properties :
#
#
# Convention : Reuss Voigt Hill
#
# Bulk Modulus (GPa) = 8.68476 66.94500 37.81488
# Shear Modulus (GPa) = 10.74623 25.87982 18.31303
#
# Velocity S-wave (km/s) = 2.49482 3.87160 3.25680
# Velocity P-wave (km/s) = 3.65088 7.66548 6.00369
#
# Compressibility (1/GPa) = 0.11514424
#
# Stress axis : x y z
#
# Youngs Moduli (GPa) = 103.92886 7.17113 100.94394
#
# Poissons Ratio (x) = 0.03502 0.49862
# Poissons Ratio (y) = 0.50749 1.22076
# Poissons Ratio (z) = 0.51336 0.08672
#
# Static dielectric constant tensor:
#      x y z
#    x 3.398860 0.000000 0.000000 
#    y 0.000000 2.482670 0.000000 
#    z 0.000000 0.000000 3.479900 
# 
# 
# High freq. dielectric constant tensor:
#      x y z
#    x 1.667570 0.000000 0.000000 
#    y 0.000000 1.588280 0.000000 
#    z 0.000000 0.000000 1.682420 
# 
# From -- ./inp_files/61641.got.cif
#   From: 2010.06.25/outbox.cif.g09.slc.cpg/sg71_31_cif.got.tgz:61641.got - 2010.06.28 04:59:45.
