data_PCOD8287545
_publ_section_title
;
Structure prediction by ZEFSAII (Michael W. Deem and Ramdas Pophale) SiO2 
 PCOD8287545
Probable space group: I M M M
;
_chemical_formula_sum "Si O2"
_cell_formula_units_Z 104
_cell_length_a 32.710090
_cell_length_b 25.852997
_cell_length_c 9.073144
_cell_angle_alpha 90.000000
_cell_angle_beta 90.000000
_cell_angle_gamma 90.000000
_cell_volume 7672.739234
_symmetry_space_group_name_H-M "I M M M"
_symmetry_group_IT_number 71
_symmetry_cell_setting 'orthorhombic'
loop_
_space_group_symop_operation_xyz
x,y,z
-x,-y,z
x,-y,-z
-x,y,-z
-x,-y,-z
x,y,-z
-x,y,z
x,-y,z
1/2+x,1/2+y,1/2+z
1/2-x,1/2-y,1/2+z
1/2+x,1/2-y,1/2-z
1/2-x,1/2+y,1/2-z
1/2-x,1/2-y,1/2-z
1/2+x,1/2+y,1/2-z
1/2-x,1/2+y,1/2+z
1/2+x,1/2-y,1/2+z
loop_
_atom_site_type_symbol
_atom_site_label
_atom_site_fract_x
_atom_site_fract_y
_atom_site_fract_z
Si Si1 0.877950 0.730894 0.665599
Si Si2 0.198491 0.704061 0.166285
Si Si3 0.068869 0.122710 0.826728
Si Si4 0.500000 0.438827 0.168546
Si Si5 0.647463 0.650166 0.167137
Si Si6 0.724439 0.322983 0.333295
Si Si7 0.546033 0.739278 0.669772
O O1 0.879301 0.709334 0.500000
O O2 0.845589 0.696875 0.757251
O O3 0.864431 0.790061 0.669036
O O4 0.923049 0.725891 0.735315
O O5 0.231818 0.670443 0.254535
O O6 0.211264 0.763582 0.167286
O O7 0.195826 0.683023 0.000000
O O8 0.040388 0.080593 0.750690
O O9 0.113999 0.117568 0.757403
O O10 0.050095 0.178832 0.792650
O O11 0.071331 0.111616 0.000000
O O12 0.500000 0.500000 0.175285
O O13 0.500000 0.418818 0.000000
O O14 0.691235 0.642861 0.245606
O O15 0.650096 0.629412 0.000000
O O16 0.727761 0.343696 0.500000
O O17 0.557059 0.748518 0.500000
O O18 0.500000 0.757033 0.706798
#
# Coordination Sequence:
#
# PCOD8287545 Si02
#       7
#    16  16  16   8  16  16  16
#     4   9  16  23  31  45  61  79 101 124 148 178
#     4   9  15  22  31  42  59  82 102 123 147 172
#     4  10  18  30  44  56  67  81  99 122 150 183
#     4  11  23  35  45  57  71  85 101 123 155 195
#     4   9  16  25  36  51  67  82  98 118 144 176
#     4   9  15  22  32  46  62  81 102 123 142 168
#     4   9  16  26  37  49  63  79  99 125 156 188
#
# _framework density 13.554482
#
# number of rings (size 3 to 8) (size 9 to 14) (size 15 to 20)
#    0.000    2.692    0.769    2.538    0.000    8.923 
#    0.000    0.000    0.000    0.000    0.000    0.000 
#    0.000    0.000    0.000    0.000    0.000    0.000 
#
# Total GULP energy -644730.378051 kJ/mol
# GULP energy per Si atom -12398.661116 kJ/mol
# Density = 1.352363 g / cm^3
# Si number density = 13.554482 Si / 1000 Ang^3
#
#
#
# Elastic Constant Matrix: (Units=GPa)
#
#
# Indices 1 2 3 4 5 6 
#
# 1 120.3819 20.9159 69.9728 0.0000 0.0000 0.0000
# 2 20.9159 10.4575 16.5400 0.0000 0.0000 0.0000
# 3 69.9728 16.5400 126.4840 0.0000 0.0000 0.0000
# 4 0.0000 0.0000 0.0000 8.5246 0.0000 0.0000
# 5 0.0000 0.0000 0.0000 0.0000 31.4209 0.0000
# 6 0.0000 0.0000 0.0000 0.0000 0.0000 8.0240
#
#
#
# Elastic Compliance Matrix: (Units=1/GPa)
#
#
# Indices 1 2 3 4 5 6 
#
# 1 0.015389 -0.021829 -0.005659 0.000000 0.000000 0.000000
# 2 -0.021829 0.151524 -0.007739 0.000000 0.000000 0.000000
# 3 -0.005659 -0.007739 0.012049 0.000000 0.000000 0.000000
# 4 0.000000 0.000000 0.000000 0.117308 0.000000 0.000000
# 5 0.000000 0.000000 0.000000 0.000000 0.031826 0.000000
# 6 0.000000 0.000000 0.000000 0.000000 0.000000 0.124627
#
#
# Mechanical properties :
#
#
# Convention : Reuss Voigt Hill
#
# Bulk Modulus (GPa) = 9.21579 52.46454 30.84017
# Shear Modulus (GPa) = 8.93905 19.58687 14.26296
#
# Velocity S-wave (km/s) = 2.57084 3.80550 3.24739
# Velocity P-wave (km/s) = 3.95299 7.62231 6.07148
#
# Compressibility (1/GPa) = 0.10850944
#
# Stress axis : x y z
#
# Youngs Moduli (GPa) = 64.98250 6.59961 82.99702
#
# Poissons Ratio (x) = 0.14406 0.46966
# Poissons Ratio (y) = 1.41848 0.64228
# Poissons Ratio (z) = 0.36772 0.05107
#
# Static dielectric constant tensor:
#      x y z
#    x 2.880540 0.000000 0.000000 
#    y 0.000000 1.981610 0.000000 
#    z 0.000000 0.000000 2.924690 
# 
# 
# High freq. dielectric constant tensor:
#      x y z
#    x 1.529630 0.000000 0.000000 
#    y 0.000000 1.412610 0.000000 
#    z 0.000000 0.000000 1.539210 
# 
# From -- ./inp_files/15794.got.cif
#   From: 2010.06.25/outbox.cif.g09.slc.cpg/sg71_8_cif.got.tgz:15794.got - 2010.06.28 04:59:45.
