data_PCOD8287467
_publ_section_title
;
Structure prediction by ZEFSAII (Michael W. Deem and Ramdas Pophale) SiO2 
 PCOD8287467
Probable space group: I M M M
;
_chemical_formula_sum "Si O2"
_cell_formula_units_Z 120
_cell_length_a 19.745579
_cell_length_b 17.972585
_cell_length_c 19.958284
_cell_angle_alpha 90.000000
_cell_angle_beta 90.000000
_cell_angle_gamma 90.000000
_cell_volume 7082.777803
_symmetry_space_group_name_H-M "I M M M"
_symmetry_group_IT_number 71
_symmetry_cell_setting 'orthorhombic'
loop_
_space_group_symop_operation_xyz
x,y,z
-x,-y,z
x,-y,-z
-x,y,-z
-x,-y,-z
x,y,-z
-x,y,z
x,-y,z
1/2+x,1/2+y,1/2+z
1/2-x,1/2-y,1/2+z
1/2+x,1/2-y,1/2-z
1/2-x,1/2+y,1/2-z
1/2-x,1/2-y,1/2-z
1/2+x,1/2+y,1/2-z
1/2-x,1/2+y,1/2+z
1/2+x,1/2-y,1/2+z
loop_
_atom_site_type_symbol
_atom_site_label
_atom_site_fract_x
_atom_site_fract_y
_atom_site_fract_z
Si Si1 0.665091 0.804558 0.864279
Si Si2 0.296534 0.081614 0.763079
Si Si3 0.343115 0.583544 0.812514
Si Si4 0.580914 0.719016 0.755987
Si Si5 0.874361 0.660731 0.845429
Si Si6 0.500000 0.912015 0.579469
Si Si7 0.766654 0.832144 0.421635
Si Si8 0.072572 0.579578 0.422925
O O1 0.713640 0.856586 0.819932
O O2 0.610527 0.762278 0.819239
O O3 0.711709 0.752449 0.909089
O O4 0.625899 0.856255 0.914785
O O5 0.227568 0.080254 0.724020
O O6 0.359312 0.104526 0.715560
O O7 0.312709 0.000000 0.792636
O O8 0.373993 0.500000 0.819902
O O9 0.393697 0.633869 0.767267
O O10 0.323574 0.616031 0.885863
O O11 0.500000 0.720495 0.756603
O O12 0.607542 0.757766 0.686756
O O13 0.808919 0.662194 0.892984
O O14 0.935008 0.627857 0.888982
O O15 0.500000 0.898287 0.500000
O O16 0.500000 0.000000 0.595673
O O17 0.766311 0.852319 0.500000
O O18 0.060515 0.568752 0.500000
O O19 0.097472 0.500000 0.392448
O O20 0.000000 0.600545 0.389311
#
# Coordination Sequence:
#
# PCOD8287467 Si02
#       8
#    16  16  16  16  16   8  16  16
#     4  10  18  29  47  70  96 124 164 206 248 301
#     4   9  17  30  49  71  97 126 157 202 258 301
#     4   9  19  34  51  73  98 124 163 214 263 311
#     4  10  19  32  51  73  98 130 163 208 263 304
#     4  10  19  34  50  72 103 135 171 212 246 305
#     4  11  22  34  50  74 107 145 176 203 239 291
#     4  10  20  33  51  73  98 134 172 208 255 304
#     4   9  17  28  41  60  91 128 161 194 235 290
#
# _framework density 16.942505000000001
#
# number of rings (size 3 to 8) (size 9 to 14) (size 15 to 20)
#    0.000    2.333    0.667    3.200    0.000    4.267 
#    0.000    0.000    0.000    3.600    0.000    3.733 
#    0.000    2.133    0.000    0.000    0.000    0.000 
#
# Total GULP energy -743308.922319 kJ/mol
# GULP energy per Si atom -12388.482039 kJ/mol
# Density = 1.690394 g / cm^3
# Si number density = 16.942505 Si / 1000 Ang^3
#
#
#
# Elastic Constant Matrix: (Units=GPa)
#
#
# Indices 1 2 3 4 5 6 
#
# 1 58.6009 28.0687 18.0326 0.0000 0.0000 0.0000
# 2 28.0687 116.7907 29.2181 0.0000 0.0000 0.0000
# 3 18.0326 29.2181 66.1380 0.0000 0.0000 0.0000
# 4 0.0000 0.0000 0.0000 22.9230 0.0000 0.0000
# 5 0.0000 0.0000 0.0000 0.0000 22.0260 0.0000
# 6 0.0000 0.0000 0.0000 0.0000 0.0000 22.8920
#
#
#
# Elastic Compliance Matrix: (Units=1/GPa)
#
#
# Indices 1 2 3 4 5 6 
#
# 1 0.020083 -0.003886 -0.003759 0.000000 0.000000 0.000000
# 2 -0.003886 0.010378 -0.003525 0.000000 0.000000 0.000000
# 3 -0.003759 -0.003525 0.017702 0.000000 0.000000 0.000000
# 4 0.000000 0.000000 0.000000 0.043624 0.000000 0.000000
# 5 0.000000 0.000000 0.000000 0.000000 0.045401 0.000000
# 6 0.000000 0.000000 0.000000 0.000000 0.000000 0.043683
#
#
# Mechanical properties :
#
#
# Convention : Reuss Voigt Hill
#
# Bulk Modulus (GPa) = 38.72580 43.57428 41.15004
# Shear Modulus (GPa) = 23.60499 24.64887 24.12693
#
# Velocity S-wave (km/s) = 3.73666 3.81839 3.77775
# Velocity P-wave (km/s) = 6.44389 6.72420 6.58554
#
# Compressibility (1/GPa) = 0.02582258
#
# Stress axis : x y z
#
# Youngs Moduli (GPa) = 49.79429 96.35547 56.49047
#
# Poissons Ratio (x) = 0.37446 0.21233
# Poissons Ratio (y) = 0.19351 0.19914
# Poissons Ratio (z) = 0.18716 0.33968
#
# Static dielectric constant tensor:
#      x y z
#    x 3.107470 0.000000 0.000000 
#    y 0.000000 3.589780 0.000000 
#    z 0.000000 0.000000 3.091300 
# 
# 
# High freq. dielectric constant tensor:
#      x y z
#    x 1.647700 0.000000 0.000000 
#    y 0.000000 1.661380 0.000000 
#    z 0.000000 0.000000 1.642410 
# 
# From -- ./inp_files/54338.got.cif
#   From: 2010.06.25/outbox.cif.g09.slc.cpg/sg71_28_cif.got.tgz:54338.got - 2010.06.28 04:59:45.
