data_PCOD8287338
_publ_section_title
;
Structure prediction by ZEFSAII (Michael W. Deem and Ramdas Pophale) SiO2 
 PCOD8287338
Probable space group: I M M M
;
_chemical_formula_sum "Si O2"
_cell_formula_units_Z 104
_cell_length_a 19.516630
_cell_length_b 13.746699
_cell_length_c 24.744795
_cell_angle_alpha 90.000000
_cell_angle_beta 90.000000
_cell_angle_gamma 90.000000
_cell_volume 6638.762198
_symmetry_space_group_name_H-M "I M M M"
_symmetry_group_IT_number 71
_symmetry_cell_setting 'orthorhombic'
loop_
_space_group_symop_operation_xyz
x,y,z
-x,-y,z
x,-y,-z
-x,y,-z
-x,-y,-z
x,y,-z
-x,y,z
x,-y,z
1/2+x,1/2+y,1/2+z
1/2-x,1/2-y,1/2+z
1/2+x,1/2-y,1/2-z
1/2-x,1/2+y,1/2-z
1/2-x,1/2-y,1/2-z
1/2+x,1/2+y,1/2-z
1/2-x,1/2+y,1/2+z
1/2+x,1/2-y,1/2+z
loop_
_atom_site_type_symbol
_atom_site_label
_atom_site_fract_x
_atom_site_fract_y
_atom_site_fract_z
Si Si1 0.853122 0.794747 0.281232
Si Si2 0.170292 0.386676 0.562689
Si Si3 0.296054 0.393020 0.623943
Si Si4 0.918704 0.227407 0.394948
Si Si5 0.076810 0.884419 0.818599
Si Si6 0.276191 0.108323 0.238599
Si Si7 0.418712 0.390945 0.000000
O O1 0.885239 0.811694 0.340093
O O2 0.907659 0.837137 0.239103
O O3 0.780044 0.850423 0.280847
O O4 0.840962 0.681043 0.265810
O O5 0.161655 0.367816 0.500000
O O6 0.167216 0.500000 0.578295
O O7 0.243848 0.340601 0.582179
O O8 0.107697 0.336516 0.593864
O O9 0.309973 0.500000 0.600053
O O10 0.370490 0.343312 0.635069
O O11 0.259207 0.398060 0.681079
O O12 0.893245 0.161804 0.445367
O O13 0.000000 0.228880 0.388959
O O14 0.000000 0.857710 0.836594
O O15 0.087383 0.000000 0.812348
O O16 0.300548 0.000000 0.256744
O O17 0.388924 0.500000 0.000000
O O18 0.500000 0.391668 0.000000
#
# Coordination Sequence:
#
# PCOD8287338 Si02
#       7
#    16  16  16  16  16  16   8
#     4  10  18  28  46  68  91 120 153 190 230 267
#     4  10  19  31  48  68  91 119 151 188 227 270
#     4   8  14  27  45  64  87 115 146 177 220 268
#     4  11  21  32  46  66  91 120 158 195 228 270
#     4   9  17  29  46  69  94 117 145 182 223 271
#     4   9  17  29  45  66  92 120 151 187 228 273
#     4   9  20  36  47  57  83 123 157 192 236 268
#
# _framework density 15.665571999999999
#
# number of rings (size 3 to 8) (size 9 to 14) (size 15 to 20)
#    0.000    2.538    2.308    1.846    0.000    1.538 
#    0.000    2.308    0.000    1.846    0.000    3.231 
#    0.000    0.000    0.000    0.000    0.000    2.308 
#
# Total GULP energy -644304.244809 kJ/mol
# GULP energy per Si atom -12390.466246 kJ/mol
# Density = 1.562992 g / cm^3
# Si number density = 15.665572 Si / 1000 Ang^3
#
#
#
# Elastic Constant Matrix: (Units=GPa)
#
#
# Indices 1 2 3 4 5 6 
#
# 1 64.7170 21.1004 16.9258 0.0000 0.0000 0.0000
# 2 21.1004 64.9641 11.1215 0.0000 0.0000 0.0000
# 3 16.9258 11.1215 41.0802 0.0000 0.0000 0.0000
# 4 0.0000 0.0000 0.0000 16.9524 0.0000 0.0000
# 5 0.0000 0.0000 0.0000 0.0000 24.2024 0.0000
# 6 0.0000 0.0000 0.0000 0.0000 0.0000 17.8043
#
#
#
# Elastic Compliance Matrix: (Units=1/GPa)
#
#
# Indices 1 2 3 4 5 6 
#
# 1 0.018748 -0.004999 -0.006371 0.000000 0.000000 0.000000
# 2 -0.004999 0.017474 -0.002671 0.000000 0.000000 0.000000
# 3 -0.006371 -0.002671 0.027691 0.000000 0.000000 0.000000
# 4 0.000000 0.000000 0.000000 0.058989 0.000000 0.000000
# 5 0.000000 0.000000 0.000000 0.000000 0.041318 0.000000
# 6 0.000000 0.000000 0.000000 0.000000 0.000000 0.056166
#
#
# Mechanical properties :
#
#
# Convention : Reuss Voigt Hill
#
# Bulk Modulus (GPa) = 27.90899 29.89519 28.90209
# Shear Modulus (GPa) = 19.20038 19.89939 19.54988
#
# Velocity S-wave (km/s) = 3.50471 3.56794 3.53647
# Velocity P-wave (km/s) = 5.85077 6.00819 5.93001
#
# Compressibility (1/GPa) = 0.03583075
#
# Stress axis : x y z
#
# Youngs Moduli (GPa) = 53.33911 57.22801 36.11295
#
# Poissons Ratio (x) = 0.28606 0.23009
# Poissons Ratio (y) = 0.26662 0.09646
# Poissons Ratio (z) = 0.33984 0.15286
#
# Static dielectric constant tensor:
#      x y z
#    x 3.106640 0.000000 0.000000 
#    y 0.000000 3.084790 0.000000 
#    z 0.000000 0.000000 2.960080 
# 
# 
# High freq. dielectric constant tensor:
#      x y z
#    x 1.591860 0.000000 0.000000 
#    y 0.000000 1.584290 0.000000 
#    z 0.000000 0.000000 1.587130 
# 
# From -- ./inp_files/54130.got.cif
#   From: 2010.06.25/outbox.cif.g09.slc.cpg/sg71_28_cif.got.tgz:54130.got - 2010.06.28 04:59:45.
