data_PCOD8287744
_publ_section_title
;
Structure prediction by ZEFSAII (Michael W. Deem and Ramdas Pophale) SiO2 
 PCOD8287744
Probable space group: I M M M
;
_chemical_formula_sum "Si O2"
_cell_formula_units_Z 48
_cell_length_a 19.088642
_cell_length_b 19.219173
_cell_length_c 7.470675
_cell_angle_alpha 90.000000
_cell_angle_beta 90.000000
_cell_angle_gamma 90.000000
_cell_volume 2740.750945
_symmetry_space_group_name_H-M "I M M M"
_symmetry_group_IT_number 71
_symmetry_cell_setting 'orthorhombic'
loop_
_space_group_symop_operation_xyz
x,y,z
-x,-y,z
x,-y,-z
-x,y,-z
-x,-y,-z
x,y,-z
-x,y,z
x,-y,z
1/2+x,1/2+y,1/2+z
1/2-x,1/2-y,1/2+z
1/2+x,1/2-y,1/2-z
1/2-x,1/2+y,1/2-z
1/2-x,1/2-y,1/2-z
1/2+x,1/2+y,1/2-z
1/2-x,1/2+y,1/2+z
1/2+x,1/2-y,1/2+z
loop_
_atom_site_type_symbol
_atom_site_label
_atom_site_fract_x
_atom_site_fract_y
_atom_site_fract_z
Si Si1 0.921439 0.145749 0.000000
Si Si2 0.216351 0.324095 0.795491
Si Si3 0.779589 0.079861 0.000000
Si Si4 0.078464 0.259485 0.295257
O O1 0.908304 0.191725 0.824079
O O2 0.864231 0.084763 0.000000
O O3 0.000000 0.114051 0.000000
O O4 0.250000 0.250000 0.750000
O O5 0.248808 0.384485 0.676337
O O6 0.132954 0.319692 0.758837
O O7 0.231064 0.343817 0.000000
O O8 0.757030 0.000000 0.000000
O O9 0.089714 0.236422 0.500000
O O10 0.000000 0.288848 0.263024
#
# Coordination Sequence:
#
# PCOD8287744 Si02
#       4
#     8  16   8  16
#     4  10  20  35  56  85 115 149 191 232 285 345
#     4  12  20  35  61  85 111 152 198 243 284 337
#     4  12  26  39  55  86 124 157 191 238 293 342
#     4  10  18  30  55  90 115 140 187 244 287 330
#
# _framework density 17.513448
#
# number of rings (size 3 to 8) (size 9 to 14) (size 15 to 20)
#    0.000    1.000    8.333    0.000    0.000    1.000 
#    0.000    0.000    0.000    2.000    0.000    9.333 
#    0.000    0.000    0.000    0.000    0.000    0.000 
#
# Total GULP energy -297618.933896 kJ/mol
# GULP energy per Si atom -12400.788912 kJ/mol
# Density = 1.747359 g / cm^3
# Si number density = 17.513448 Si / 1000 Ang^3
#
#
#
# Elastic Constant Matrix: (Units=GPa)
#
#
# Indices 1 2 3 4 5 6 
#
# 1 123.6763 48.4019 37.9276 0.0000 0.0000 0.0000
# 2 48.4019 103.2017 50.3523 0.0000 0.0000 0.0000
# 3 37.9276 50.3523 163.3469 0.0000 0.0000 0.0000
# 4 0.0000 0.0000 0.0000 18.1994 0.0000 0.0000
# 5 0.0000 0.0000 0.0000 0.0000 26.4436 0.0000
# 6 0.0000 0.0000 0.0000 0.0000 0.0000 18.2435
#
#
#
# Elastic Compliance Matrix: (Units=1/GPa)
#
#
# Indices 1 2 3 4 5 6 
#
# 1 0.010050 -0.004208 -0.001036 0.000000 0.000000 0.000000
# 2 -0.004208 0.013167 -0.003082 0.000000 0.000000 0.000000
# 3 -0.001036 -0.003082 0.007313 0.000000 0.000000 0.000000
# 4 0.000000 0.000000 0.000000 0.054947 0.000000 0.000000
# 5 0.000000 0.000000 0.000000 0.000000 0.037816 0.000000
# 6 0.000000 0.000000 0.000000 0.000000 0.000000 0.054814
#
#
# Mechanical properties :
#
#
# Convention : Reuss Voigt Hill
#
# Bulk Modulus (GPa) = 72.05904 73.73207 72.89556
# Shear Modulus (GPa) = 25.07710 29.48016 27.27863
#
# Velocity S-wave (km/s) = 3.78812 4.10724 3.95090
# Velocity P-wave (km/s) = 7.76965 8.04265 7.90733
#
# Compressibility (1/GPa) = 0.01387751
#
# Stress axis : x y z
#
# Youngs Moduli (GPa) = 99.49966 75.94826 136.75123
#
# Poissons Ratio (x) = 0.31958 0.14174
# Poissons Ratio (y) = 0.41869 0.42143
# Poissons Ratio (z) = 0.10313 0.23405
#
# Static dielectric constant tensor:
#      x y z
#    x 3.802460 0.000000 0.000000 
#    y 0.000000 2.684920 0.000000 
#    z 0.000000 0.000000 3.572900 
# 
# 
# High freq. dielectric constant tensor:
#      x y z
#    x 1.705130 0.000000 0.000000 
#    y 0.000000 1.607290 0.000000 
#    z 0.000000 0.000000 1.702070 
# 
# From -- ./inp_files/7057.got.cif
#   From: 2010.06.25/outbox.cif.g09.slc.cpg/sg71_4_cif.got.tgz:7057.got - 2010.06.28 04:59:45.
