data_PCOD8287595
_publ_section_title
;
Structure prediction by ZEFSAII (Michael W. Deem and Ramdas Pophale) SiO2 
 PCOD8287595
Probable space group: I M M M
;
_chemical_formula_sum "Si O2"
_cell_formula_units_Z 80
_cell_length_a 28.400762
_cell_length_b 20.725850
_cell_length_c 7.707097
_cell_angle_alpha 90.000000
_cell_angle_beta 90.000000
_cell_angle_gamma 90.000000
_cell_volume 4536.627991
_symmetry_space_group_name_H-M "I M M M"
_symmetry_group_IT_number 71
_symmetry_cell_setting 'orthorhombic'
loop_
_space_group_symop_operation_xyz
x,y,z
-x,-y,z
x,-y,-z
-x,y,-z
-x,-y,-z
x,y,-z
-x,y,z
x,-y,z
1/2+x,1/2+y,1/2+z
1/2-x,1/2-y,1/2+z
1/2+x,1/2-y,1/2-z
1/2-x,1/2+y,1/2-z
1/2-x,1/2-y,1/2-z
1/2+x,1/2+y,1/2-z
1/2-x,1/2+y,1/2+z
1/2+x,1/2-y,1/2+z
loop_
_atom_site_type_symbol
_atom_site_label
_atom_site_fract_x
_atom_site_fract_y
_atom_site_fract_z
Si Si1 0.781430 0.688844 0.204242
Si Si2 0.881568 0.728600 0.692376
Si Si3 0.552352 0.379790 0.500000
Si Si4 0.779498 0.071297 0.294362
Si Si5 0.879888 0.879405 0.699527
Si Si6 0.552684 0.226466 0.500000
O O1 0.750000 0.750000 0.250000
O O2 0.832289 0.691624 0.292200
O O3 0.756229 0.624716 0.280429
O O4 0.788555 0.684989 0.000000
O O5 0.902322 0.716993 0.500000
O O6 0.871075 0.803624 0.724003
O O7 0.919670 0.701955 0.829307
O O8 0.500000 0.409619 0.500000
O O9 0.578429 0.403693 0.674774
O O10 0.549637 0.303024 0.500000
O O11 0.777979 0.075087 0.500000
O O12 0.832709 0.085682 0.235464
O O13 0.764981 0.000000 0.227217
O O14 0.892848 0.896482 0.500000
O O15 0.500000 0.196812 0.500000
#
# Coordination Sequence:
#
# PCOD8287595 Si02
#       6
#    16  16   8  16  16   8
#     4  11  19  29  49  74 101 135 170 212 254 303
#     4  10  18  30  47  73 101 128 170 210 247 304
#     4   9  18  30  47  70  95 123 166 220 261 297
#     4   9  18  32  49  70  98 134 173 208 250 302
#     4   9  17  30  48  67  92 129 167 207 254 299
#     4   9  18  32  48  71 103 135 165 209 261 301
#
# _framework density 17.634243000000001
#
# number of rings (size 3 to 8) (size 9 to 14) (size 15 to 20)
#    0.000    2.400    3.000    0.600    0.000    0.800 
#    1.800    4.500    0.000    1.200    0.000    2.800 
#    0.000    1.600    0.000    1.800    0.000    0.200 
#
# Total GULP energy -495904.218494 kJ/mol
# GULP energy per Si atom -12397.605462 kJ/mol
# Density = 1.759411 g / cm^3
# Si number density = 17.634243 Si / 1000 Ang^3
#
#
#
# Elastic Constant Matrix: (Units=GPa)
#
#
# Indices 1 2 3 4 5 6 
#
# 1 135.0841 45.2376 50.8686 0.0000 0.0000 0.0000
# 2 45.2376 75.5490 21.7532 0.0000 0.0000 0.0000
# 3 50.8686 21.7532 96.9551 0.0000 0.0000 0.0000
# 4 0.0000 0.0000 0.0000 9.9203 0.0000 0.0000
# 5 0.0000 0.0000 0.0000 0.0000 26.0577 0.0000
# 6 0.0000 0.0000 0.0000 0.0000 0.0000 13.1311
#
#
#
# Elastic Compliance Matrix: (Units=1/GPa)
#
#
# Indices 1 2 3 4 5 6 
#
# 1 0.010845 -0.005191 -0.004525 0.000000 0.000000 0.000000
# 2 -0.005191 0.016635 -0.001009 0.000000 0.000000 0.000000
# 3 -0.004525 -0.001009 0.012915 0.000000 0.000000 0.000000
# 4 0.000000 0.000000 0.000000 0.100803 0.000000 0.000000
# 5 0.000000 0.000000 0.000000 0.000000 0.038376 0.000000
# 6 0.000000 0.000000 0.000000 0.000000 0.000000 0.076155
#
#
# Mechanical properties :
#
#
# Convention : Reuss Voigt Hill
#
# Bulk Modulus (GPa) = 52.78511 60.36744 56.57628
# Shear Modulus (GPa) = 17.63696 22.47040 20.05368
#
# Velocity S-wave (km/s) = 3.16595 3.57353 3.37590
# Velocity P-wave (km/s) = 6.58503 7.16479 6.88102
#
# Compressibility (1/GPa) = 0.01894474
#
# Stress axis : x y z
#
# Youngs Moduli (GPa) = 92.20561 60.11348 77.43093
#
# Poissons Ratio (x) = 0.31205 0.35041
# Poissons Ratio (y) = 0.47864 0.07811
# Poissons Ratio (z) = 0.41727 0.06064
#
# Static dielectric constant tensor:
#      x y z
#    x 3.395000 0.000000 0.000000 
#    y 0.000000 3.068880 0.000000 
#    z 0.000000 0.000000 3.379770 
# 
# 
# High freq. dielectric constant tensor:
#      x y z
#    x 1.673060 0.000000 0.000000 
#    y 0.000000 1.634540 0.000000 
#    z 0.000000 0.000000 1.689000 
# 
# From -- ./inp_files/12392.got.cif
#   From: 2010.06.25/outbox.cif.g09.slc.cpg/sg71_7_cif.got.tgz:12392.got - 2010.06.28 04:59:45.
