data_PCOD8287463
_publ_section_title
;
Structure prediction by ZEFSAII (Michael W. Deem and Ramdas Pophale) SiO2 
 PCOD8287463
Probable space group: I M M M
;
_chemical_formula_sum "Si O2"
_cell_formula_units_Z 88
_cell_length_a 13.539523
_cell_length_b 24.570231
_cell_length_c 15.227360
_cell_angle_alpha 90.000000
_cell_angle_beta 90.000000
_cell_angle_gamma 90.000000
_cell_volume 5065.673787
_symmetry_space_group_name_H-M "I M M M"
_symmetry_group_IT_number 71
_symmetry_cell_setting 'orthorhombic'
loop_
_space_group_symop_operation_xyz
x,y,z
-x,-y,z
x,-y,-z
-x,y,-z
-x,-y,-z
x,y,-z
-x,y,z
x,-y,z
1/2+x,1/2+y,1/2+z
1/2-x,1/2-y,1/2+z
1/2+x,1/2-y,1/2-z
1/2-x,1/2+y,1/2-z
1/2-x,1/2-y,1/2-z
1/2+x,1/2+y,1/2-z
1/2-x,1/2+y,1/2+z
1/2+x,1/2-y,1/2+z
loop_
_atom_site_type_symbol
_atom_site_label
_atom_site_fract_x
_atom_site_fract_y
_atom_site_fract_z
Si Si1 0.257201 0.400303 0.598265
Si Si2 0.615540 0.149243 0.770402
Si Si3 0.389749 0.698349 0.367110
Si Si4 0.803016 0.687037 0.096348
Si Si5 0.389380 0.728543 0.827553
Si Si6 0.889296 0.000000 0.103951
O O1 0.217994 0.414866 0.500000
O O2 0.165742 0.394981 0.665528
O O3 0.315744 0.343979 0.589807
O O4 0.329837 0.446784 0.635632
O O5 0.500000 0.136560 0.765772
O O6 0.661252 0.145442 0.672125
O O7 0.638305 0.208764 0.809466
O O8 0.500000 0.682954 0.396961
O O9 0.368800 0.758944 0.399944
O O10 0.380027 0.694995 0.262213
O O11 0.687682 0.702864 0.105091
O O12 0.816699 0.659972 0.000000
O O13 0.500000 0.724217 0.866747
O O14 0.000000 0.000000 0.145239
O O15 0.898460 0.000000 0.000000
#
# Coordination Sequence:
#
# PCOD8287463 Si02
#       6
#    16  16  16  16  16   8
#     4  11  20  33  52  73  99 130 164 202 247 298
#     4  10  20  34  49  69 100 133 170 209 245 291
#     4  10  18  29  47  69  97 133 169 201 237 287
#     4  11  19  30  47  71 104 136 169 205 242 284
#     4   9  17  30  46  67 100 135 168 207 243 282
#     4   9  20  36  53  77 104 125 155 207 259 299
#
# _framework density 17.371825000000001
#
# number of rings (size 3 to 8) (size 9 to 14) (size 15 to 20)
#    0.000    1.909    3.636    3.818    0.000    4.000 
#    0.000    2.273    0.000    1.636    0.000    0.636 
#    0.000    2.182    0.000    0.000    0.000    0.000 
#
# Total GULP energy -545544.129173 kJ/mol
# GULP energy per Si atom -12398.730208 kJ/mol
# Density = 1.733229 g / cm^3
# Si number density = 17.371825 Si / 1000 Ang^3
#
#
#
# Elastic Constant Matrix: (Units=GPa)
#
#
# Indices 1 2 3 4 5 6 
#
# 1 118.3476 22.4758 55.2184 -0.0001 0.0000 0.0000
# 2 22.4758 42.6990 23.0048 -0.0001 0.0000 0.0000
# 3 55.2184 23.0048 102.5464 0.0001 0.0000 0.0000
# 4 -0.0001 -0.0001 0.0001 14.3617 0.0000 0.0000
# 5 0.0000 0.0000 0.0000 0.0000 15.6364 0.0000
# 6 0.0000 0.0000 0.0000 0.0000 0.0000 24.0486
#
#
#
# Elastic Compliance Matrix: (Units=1/GPa)
#
#
# Indices 1 2 3 4 5 6 
#
# 1 0.011641 -0.003129 -0.005567 0.000000 0.000000 0.000000
# 2 -0.003129 0.027480 -0.004480 0.000000 0.000000 0.000000
# 3 -0.005567 -0.004480 0.013754 0.000000 0.000000 0.000000
# 4 0.000000 0.000000 0.000000 0.069630 0.000000 0.000000
# 5 0.000000 0.000000 0.000000 0.000000 0.063953 0.000000
# 6 0.000000 0.000000 0.000000 0.000000 0.000000 0.041582
#
#
# Mechanical properties :
#
#
# Convention : Reuss Voigt Hill
#
# Bulk Modulus (GPa) = 37.70025 51.66568 44.68296
# Shear Modulus (GPa) = 18.99457 21.66895 20.33176
#
# Velocity S-wave (km/s) = 3.31027 3.53563 3.42480
# Velocity P-wave (km/s) = 6.02989 6.81713 6.43556
#
# Compressibility (1/GPa) = 0.02652502
#
# Stress axis : x y z
#
# Youngs Moduli (GPa) = 85.90282 36.38970 72.70519
#
# Poissons Ratio (x) = 0.11385 0.40472
# Poissons Ratio (y) = 0.26875 0.32573
# Poissons Ratio (z) = 0.47818 0.16303
#
# Static dielectric constant tensor:
#      x y z
#    x 3.429190 0.000000 0.000000 
#    y 0.000000 2.817300 0.000000 
#    z 0.000000 0.000000 3.248410 
# 
# 
# High freq. dielectric constant tensor:
#      x y z
#    x 1.688320 0.000000 0.000000 
#    y 0.000000 1.609340 0.000000 
#    z 0.000000 0.000000 1.659360 
# 
# From -- ./inp_files/34396.got.cif
#   From: 2010.06.25/outbox.cif.g09.slc.cpg/sg71_18_cif.got.tgz:34396.got - 2010.06.28 04:59:45.
