data_PCOD8287587
_publ_section_title
;
Structure prediction by ZEFSAII (Michael W. Deem and Ramdas Pophale) SiO2 
 PCOD8287587
Probable space group: I M M M
;
_chemical_formula_sum "Si O2"
_cell_formula_units_Z 96
_cell_length_a 28.599854
_cell_length_b 7.834050
_cell_length_c 25.063552
_cell_angle_alpha 90.000000
_cell_angle_beta 90.000000
_cell_angle_gamma 90.000000
_cell_volume 5615.556152
_symmetry_space_group_name_H-M "I M M M"
_symmetry_group_IT_number 71
_symmetry_cell_setting 'orthorhombic'
loop_
_space_group_symop_operation_xyz
x,y,z
-x,-y,z
x,-y,-z
-x,y,-z
-x,-y,-z
x,y,-z
-x,y,z
x,-y,z
1/2+x,1/2+y,1/2+z
1/2-x,1/2-y,1/2+z
1/2+x,1/2-y,1/2-z
1/2-x,1/2+y,1/2-z
1/2-x,1/2-y,1/2-z
1/2+x,1/2+y,1/2-z
1/2-x,1/2+y,1/2+z
1/2+x,1/2-y,1/2+z
loop_
_atom_site_type_symbol
_atom_site_label
_atom_site_fract_x
_atom_site_fract_y
_atom_site_fract_z
Si Si1 0.947929 0.500000 0.314581
Si Si2 0.615905 0.309845 0.187636
Si Si3 0.051948 0.500000 0.811747
Si Si4 0.306411 0.692337 0.000000
Si Si5 0.804351 0.309368 0.000000
Si Si6 0.881061 0.801001 0.188671
Si Si7 0.700445 0.304292 0.387040
Si Si8 0.304564 0.803205 0.113980
O O1 0.920986 0.670357 0.334035
O O2 0.951597 0.500000 0.251513
O O3 0.000000 0.500000 0.339776
O O4 0.594125 0.500000 0.181599
O O5 0.629073 0.274865 0.249002
O O6 0.663438 0.302235 0.154217
O O7 0.077406 0.674941 0.830233
O O8 0.000000 0.500000 0.836946
O O9 0.324296 0.785699 0.053517
O O10 0.325454 0.500000 0.000000
O O11 0.250976 0.700665 0.000000
O O12 0.822386 0.220919 0.945776
O O13 0.823773 0.500000 0.000000
O O14 0.835025 0.734967 0.157537
O O15 0.893373 0.000000 0.175289
O O16 0.708934 0.500000 0.376382
O O17 0.752190 0.220462 0.382163
O O18 0.305836 0.000000 0.130942
#
# Coordination Sequence:
#
# PCOD8287587 Si02
#       8
#     8  16   8   8   8  16  16  16
#     4   9  18  34  52  71  97 127 163 208 250 288
#     4  10  19  32  49  72 101 129 162 200 241 294
#     4   9  18  32  52  73  95 127 163 206 252 290
#     4   9  17  29  43  65  93 124 169 209 237 278
#     4   9  17  27  43  67  91 122 167 208 239 278
#     4   9  19  33  48  71 101 129 162 200 241 295
#     4   9  18  31  46  66  97 134 166 199 239 285
#     4  10  18  30  47  68  98 134 167 200 239 284
#
# _framework density 17.095369000000002
#
# number of rings (size 3 to 8) (size 9 to 14) (size 15 to 20)
#    0.000    2.667    0.833    1.000    1.167    4.000 
#    0.000    3.333    0.000    0.000    0.000    2.333 
#    0.000    4.667    0.000    0.000    0.000    0.000 
#
# Total GULP energy -594904.071146 kJ/mol
# GULP energy per Si atom -12393.834816 kJ/mol
# Density = 1.705646 g / cm^3
# Si number density = 17.095369 Si / 1000 Ang^3
#
#
#
# Elastic Constant Matrix: (Units=GPa)
#
#
# Indices 1 2 3 4 5 6 
#
# 1 104.1158 46.2034 49.6351 0.0000 0.0000 0.0000
# 2 46.2034 86.8635 28.4334 0.0000 0.0000 0.0000
# 3 49.6351 28.4334 71.7734 0.0000 0.0000 0.0000
# 4 0.0000 0.0000 0.0000 21.0182 0.0000 0.0000
# 5 0.0000 0.0000 0.0000 0.0000 1.8001 0.0000
# 6 0.0000 0.0000 0.0000 0.0000 0.0000 21.6792
#
#
#
# Elastic Compliance Matrix: (Units=1/GPa)
#
#
# Indices 1 2 3 4 5 6 
#
# 1 0.016536 -0.005805 -0.009136 0.000000 0.000000 0.000000
# 2 -0.005805 0.015266 -0.002033 0.000000 0.000000 0.000000
# 3 -0.009136 -0.002033 0.021056 0.000000 0.000000 0.000000
# 4 0.000000 0.000000 0.000000 0.047578 0.000000 0.000000
# 5 0.000000 0.000000 0.000000 0.000000 0.555524 0.000000
# 6 0.000000 0.000000 0.000000 0.000000 0.000000 0.046127
#
#
# Mechanical properties :
#
#
# Convention : Reuss Voigt Hill
#
# Bulk Modulus (GPa) = 52.88275 56.81073 54.84674
# Shear Modulus (GPa) = 6.73547 18.13156 12.43352
#
# Velocity S-wave (km/s) = 1.98708 3.26024 2.69978
# Velocity P-wave (km/s) = 6.02211 6.89028 6.47077
#
# Compressibility (1/GPa) = 0.01890976
#
# Stress axis : x y z
#
# Youngs Moduli (GPa) = 60.47328 65.50671 47.49231
#
# Poissons Ratio (x) = 0.38028 0.43388
# Poissons Ratio (y) = 0.35106 0.09655
# Poissons Ratio (z) = 0.55248 0.13317
#
# Static dielectric constant tensor:
#      x y z
#    x 3.205440 0.000000 0.000000 
#    y 0.000000 3.295530 0.000000 
#    z 0.000000 0.000000 3.185130 
# 
# 
# High freq. dielectric constant tensor:
#      x y z
#    x 1.622540 0.000000 0.000000 
#    y 0.000000 1.671290 0.000000 
#    z 0.000000 0.000000 1.642110 
# 
# From -- ./inp_files/12970.got.cif
#   From: 2010.06.25/outbox.cif.g09.slc.cpg/sg71_7_cif.got.tgz:12970.got - 2010.06.28 04:59:45.
