data_PCOD8287802
_publ_section_title
;
Structure prediction by ZEFSAII (Michael W. Deem and Ramdas Pophale) SiO2 
 PCOD8287802
Probable space group: I M M M
;
_chemical_formula_sum "Si O2"
_cell_formula_units_Z 112
_cell_length_a 13.638016
_cell_length_b 31.649286
_cell_length_c 14.143711
_cell_angle_alpha 90.000000
_cell_angle_beta 90.000000
_cell_angle_gamma 90.000000
_cell_volume 6104.899041
_symmetry_space_group_name_H-M "I M M M"
_symmetry_group_IT_number 71
_symmetry_cell_setting 'orthorhombic'
loop_
_space_group_symop_operation_xyz
x,y,z
-x,-y,z
x,-y,-z
-x,y,-z
-x,-y,-z
x,y,-z
-x,y,z
x,-y,z
1/2+x,1/2+y,1/2+z
1/2-x,1/2-y,1/2+z
1/2+x,1/2-y,1/2-z
1/2-x,1/2+y,1/2-z
1/2-x,1/2-y,1/2-z
1/2+x,1/2+y,1/2-z
1/2-x,1/2+y,1/2+z
1/2+x,1/2-y,1/2+z
loop_
_atom_site_type_symbol
_atom_site_label
_atom_site_fract_x
_atom_site_fract_y
_atom_site_fract_z
Si Si1 0.195227 0.671934 0.106379
Si Si2 0.799060 0.548115 0.290320
Si Si3 0.614274 0.124225 0.895430
Si Si4 0.384302 0.920859 0.392008
Si Si5 0.390736 0.712099 0.108131
Si Si6 0.884845 0.705086 0.287092
Si Si7 0.107647 0.049908 0.105927
O O1 0.153989 0.625903 0.128249
O O2 0.313765 0.673511 0.120442
O O3 0.144250 0.704829 0.177018
O O4 0.166988 0.685616 0.000000
O O5 0.815436 0.500000 0.325895
O O6 0.872527 0.579653 0.342693
O O7 0.822115 0.549188 0.177943
O O8 0.688812 0.563847 0.316691
O O9 0.500000 0.132485 0.904063
O O10 0.662017 0.163713 0.838478
O O11 0.661793 0.122175 0.000000
O O12 0.363485 0.934827 0.500000
O O13 0.500000 0.923370 0.369644
O O14 0.500000 0.697936 0.142180
O O15 0.347253 0.751539 0.166817
O O16 0.395850 0.727082 0.000000
O O17 0.000000 0.703811 0.298645
O O18 0.000000 0.068267 0.134252
O O19 0.100790 0.000000 0.104579
O O20 0.136436 0.065812 0.000000
#
# Coordination Sequence:
#
# PCOD8287802 Si02
#       7
#    16  16  16  16  16  16  16
#     4  10  19  32  52  75  98 129 173 219 257 299
#     4  11  21  33  52  77 103 133 175 225 268 305
#     4  10  20  32  47  71 104 140 171 203 254 316
#     4  10  21  37  54  73 102 141 182 220 263 319
#     4   9  18  32  51  77 105 132 166 207 251 305
#     4  10  18  31  51  73 102 138 171 204 246 304
#     4   8  15  30  52  76 100 127 162 204 252 309
#
# _framework density 18.345922000000002
#
# number of rings (size 3 to 8) (size 9 to 14) (size 15 to 20)
#    0.000    2.286    1.429    2.571    0.000    4.857 
#    0.000    2.143    0.000    1.286    0.000    2.000 
#    0.000    0.000    0.000    0.000    0.000    0.000 
#
# Total GULP energy -694013.808913 kJ/mol
# GULP energy per Si atom -12393.103731 kJ/mol
# Density = 1.830417 g / cm^3
# Si number density = 18.345922 Si / 1000 Ang^3
#
#
#
# Elastic Constant Matrix: (Units=GPa)
#
#
# Indices 1 2 3 4 5 6 
#
# 1 71.9387 26.0088 39.3612 0.0000 0.0003 0.0001
# 2 26.0088 29.6485 17.3689 -0.0005 0.0000 0.0001
# 3 39.3612 17.3689 97.2239 -0.0055 0.0053 0.0012
# 4 0.0000 -0.0005 -0.0055 23.1046 0.0007 0.0001
# 5 0.0003 0.0000 0.0053 0.0007 29.3359 -0.0002
# 6 0.0001 0.0001 0.0012 0.0001 -0.0002 22.6845
#
#
#
# Elastic Compliance Matrix: (Units=1/GPa)
#
#
# Indices 1 2 3 4 5 6 
#
# 1 0.023564 -0.016846 -0.006531 -0.000002 0.000001 0.000000
# 2 -0.016846 0.049714 -0.002061 0.000000 0.000001 0.000000
# 3 -0.006531 -0.002061 0.013298 0.000003 -0.000002 -0.000001
# 4 -0.000002 0.000000 0.000003 0.043281 -0.000001 0.000000
# 5 0.000001 0.000001 -0.000002 -0.000001 0.034088 0.000000
# 6 0.000000 0.000000 -0.000001 0.000000 0.000000 0.044083
#
#
# Mechanical properties :
#
#
# Convention : Reuss Voigt Hill
#
# Bulk Modulus (GPa) = 28.01074 40.47652 34.24363
# Shear Modulus (GPa) = 18.46360 22.76316 20.61338
#
# Velocity S-wave (km/s) = 3.17584 3.52629 3.35564
# Velocity P-wave (km/s) = 5.36183 6.22016 5.80688
#
# Compressibility (1/GPa) = 0.03570059
#
# Stress axis : x y z
#
# Youngs Moduli (GPa) = 42.43703 20.11520 75.20100
#
# Poissons Ratio (x) = 0.33885 0.49111
# Poissons Ratio (y) = 0.71488 0.15501
# Poissons Ratio (z) = 0.27714 0.04146
#
# Static dielectric constant tensor:
#      x y z
#    x 3.516600 0.000000 0.000000 
#    y 0.000000 3.196370 0.000000 
#    z 0.000000 0.000000 3.608630 
# 
# 
# High freq. dielectric constant tensor:
#      x y z
#    x 1.701230 0.000000 0.000000 
#    y 0.000000 1.683370 0.000000 
#    z 0.000000 0.000000 1.718200 
# 
# From -- ./inp_files/35108.got.cif
#   From: 2010.06.25/outbox.cif.g09.slc.cpg/sg71_18_cif.got.tgz:35108.got - 2010.06.28 04:59:45.
