data_PCOD8287559
_publ_section_title
;
Structure prediction by ZEFSAII (Michael W. Deem and Ramdas Pophale) SiO2 
 PCOD8287559
Probable space group: I M M M
;
_chemical_formula_sum "Si O2"
_cell_formula_units_Z 80
_cell_length_a 26.118150
_cell_length_b 8.789435
_cell_length_c 23.871027
_cell_angle_alpha 90.000000
_cell_angle_beta 90.000000
_cell_angle_gamma 90.000000
_cell_volume 5479.923232
_symmetry_space_group_name_H-M "I M M M"
_symmetry_group_IT_number 71
_symmetry_cell_setting 'orthorhombic'
loop_
_space_group_symop_operation_xyz
x,y,z
-x,-y,z
x,-y,-z
-x,y,-z
-x,-y,-z
x,y,-z
-x,y,z
x,-y,z
1/2+x,1/2+y,1/2+z
1/2-x,1/2-y,1/2+z
1/2+x,1/2-y,1/2-z
1/2-x,1/2+y,1/2-z
1/2-x,1/2-y,1/2-z
1/2+x,1/2+y,1/2-z
1/2-x,1/2+y,1/2+z
1/2+x,1/2-y,1/2+z
loop_
_atom_site_type_symbol
_atom_site_label
_atom_site_fract_x
_atom_site_fract_y
_atom_site_fract_z
Si Si1 0.739830 0.178898 0.380868
Si Si2 0.858582 0.319741 0.187698
Si Si3 0.299377 0.679355 0.221577
Si Si4 0.401798 0.180211 0.500000
Si Si5 0.559237 0.674777 0.387499
Si Si6 0.284534 0.180899 0.500000
O O1 0.688462 0.240593 0.350606
O O2 0.791444 0.215990 0.345062
O O3 0.743323 0.246663 0.444016
O O4 0.732074 0.000000 0.384965
O O5 0.862822 0.500000 0.189262
O O6 0.849511 0.258076 0.251440
O O7 0.910615 0.251090 0.163754
O O8 0.301445 0.500000 0.232291
O O9 0.250000 0.750000 0.250000
O O10 0.430031 0.241387 0.445497
O O11 0.343182 0.235378 0.500000
O O12 0.405457 0.000000 0.500000
O O13 0.500000 0.691498 0.372277
O O14 0.575674 0.500000 0.393691
O O15 0.281759 0.000000 0.500000
#
# Coordination Sequence:
#
# PCOD8287559 Si02
#       6
#    16  16  16   8  16   8
#     4   8  14  24  40  61  83 106 137 172 209 249
#     4  10  18  30  46  62  79 106 143 181 219 260
#     4   9  16  26  41  62  84 108 137 173 214 258
#     4  11  20  32  49  62  80 112 150 187 217 253
#     4  11  23  35  45  60  84 111 142 185 230 265
#     4   9  14  24  42  63  84 108 139 179 210 239
#
# _framework density 14.598744
#
# number of rings (size 3 to 8) (size 9 to 14) (size 15 to 20)
#    0.000    2.400    2.000    3.600    0.000    2.800 
#    0.000    0.000    0.000    0.000    0.000    0.000 
#    0.000    0.000    0.000    0.900    0.000   20.600 
#
# Total GULP energy -495644.863292 kJ/mol
# GULP energy per Si atom -12391.121582 kJ/mol
# Density = 1.456552 g / cm^3
# Si number density = 14.598744 Si / 1000 Ang^3
#
#
#
# Elastic Constant Matrix: (Units=GPa)
#
#
# Indices 1 2 3 4 5 6 
#
# 1 60.0870 33.2232 55.3557 0.0000 0.0000 0.0000
# 2 33.2232 65.9912 35.4853 0.0000 0.0000 0.0000
# 3 55.3557 35.4853 110.1206 0.0000 0.0000 0.0000
# 4 0.0000 0.0000 0.0000 17.1858 0.0000 0.0000
# 5 0.0000 0.0000 0.0000 0.0000 31.3398 0.0000
# 6 0.0000 0.0000 0.0000 0.0000 0.0000 18.9628
#
#
#
# Elastic Compliance Matrix: (Units=1/GPa)
#
#
# Indices 1 2 3 4 5 6 
#
# 1 0.035814 -0.010100 -0.014749 0.000000 0.000000 0.000000
# 2 -0.010100 0.021178 -0.001747 0.000000 0.000000 0.000000
# 3 -0.014749 -0.001747 0.017058 0.000000 0.000000 0.000000
# 4 0.000000 0.000000 0.000000 0.058188 0.000000 0.000000
# 5 0.000000 0.000000 0.000000 0.000000 0.031908 0.000000
# 6 0.000000 0.000000 0.000000 0.000000 0.000000 0.052735
#
#
# Mechanical properties :
#
#
# Convention : Reuss Voigt Hill
#
# Bulk Modulus (GPa) = 47.94239 53.81411 50.87825
# Shear Modulus (GPa) = 18.04889 20.97332 19.51110
#
# Velocity S-wave (km/s) = 3.51997 3.79443 3.65977
# Velocity P-wave (km/s) = 7.03076 7.49260 7.26535
#
# Compressibility (1/GPa) = 0.02085837
#
# Stress axis : x y z
#
# Youngs Moduli (GPa) = 27.92185 47.21905 58.62389
#
# Poissons Ratio (x) = 0.47691 0.86462
# Poissons Ratio (y) = 0.28201 0.10243
# Poissons Ratio (z) = 0.41181 0.08251
#
# Static dielectric constant tensor:
#      x y z
#    x 2.701790 0.000000 0.000000 
#    y 0.000000 2.837190 0.000000 
#    z 0.000000 0.000000 3.521220 
# 
# 
# High freq. dielectric constant tensor:
#      x y z
#    x 1.514860 0.000000 0.000000 
#    y 0.000000 1.556090 0.000000 
#    z 0.000000 0.000000 1.555850 
# 
# From -- ./inp_files/14764.got.cif
#   From: 2010.06.25/outbox.cif.g09.slc.cpg/sg71_8_cif.got.tgz:14764.got - 2010.06.28 04:59:45.
