data_PCOD8287970
_publ_section_title
;
Structure prediction by ZEFSAII (Michael W. Deem and Ramdas Pophale) SiO2 
 PCOD8287970
Probable space group: I M M M
;
_chemical_formula_sum "Si O2"
_cell_formula_units_Z 96
_cell_length_a 14.413760
_cell_length_b 26.272065
_cell_length_c 14.201524
_cell_angle_alpha 90.000000
_cell_angle_beta 90.000000
_cell_angle_gamma 90.000000
_cell_volume 5377.822310
_symmetry_space_group_name_H-M "I M M M"
_symmetry_group_IT_number 71
_symmetry_cell_setting 'orthorhombic'
loop_
_space_group_symop_operation_xyz
x,y,z
-x,-y,z
x,-y,-z
-x,y,-z
-x,-y,-z
x,y,-z
-x,y,z
x,-y,z
1/2+x,1/2+y,1/2+z
1/2-x,1/2-y,1/2+z
1/2+x,1/2-y,1/2-z
1/2-x,1/2+y,1/2-z
1/2-x,1/2-y,1/2-z
1/2+x,1/2+y,1/2-z
1/2-x,1/2+y,1/2+z
1/2+x,1/2-y,1/2+z
loop_
_atom_site_type_symbol
_atom_site_label
_atom_site_fract_x
_atom_site_fract_y
_atom_site_fract_z
Si Si1 0.398758 0.880271 0.288599
Si Si2 0.685775 0.500000 0.395138
Si Si3 0.604038 0.500000 0.794993
Si Si4 0.893515 0.735869 0.245963
Si Si5 0.748692 0.055807 0.394971
Si Si6 0.306831 0.099779 0.895646
Si Si7 0.758367 0.788680 0.890870
O O1 0.500000 0.898584 0.323289
O O2 0.390709 0.820078 0.298002
O O3 0.319085 0.902731 0.353087
O O4 0.388702 0.898466 0.180486
O O5 0.642653 0.500000 0.500000
O O6 0.603999 0.500000 0.318647
O O7 0.746940 0.549762 0.377320
O O8 0.500000 0.500000 0.832648
O O9 0.656169 0.449311 0.834506
O O10 0.850243 0.772549 0.166427
O O11 0.832902 0.736805 0.342345
O O12 0.000000 0.752305 0.268120
O O13 0.775275 0.073000 0.500000
O O14 0.699297 0.000000 0.395021
O O15 0.243663 0.150074 0.884690
O O16 0.351617 0.098147 0.000000
O O17 0.762895 0.770712 0.000000
#
# Coordination Sequence:
#
# PCOD8287970 Si02
#       7
#    16   8   8  16  16  16  16
#     4  10  19  32  52  77 106 138 171 209 260 312
#     4  10  18  32  55  80 107 135 167 209 255 307
#     4  10  19  35  56  73  95 133 176 216 261 306
#     4   9  19  34  53  79 106 135 175 219 262 315
#     4   9  19  34  50  71  99 133 174 216 256 301
#     4   9  17  32  53  76 106 140 172 207 254 310
#     4   9  18  33  54  77 105 141 176 215 262 312
#
# _framework density 17.851092000000001
#
# number of rings (size 3 to 8) (size 9 to 14) (size 15 to 20)
#    0.500    2.167    1.667    0.000    0.000    3.167 
#    0.000    6.667    0.000    4.500    0.000    2.333 
#    0.000    0.000    0.000    0.000    0.000    0.000 
#
# Total GULP energy -594824.185084 kJ/mol
# GULP energy per Si atom -12392.170523 kJ/mol
# Density = 1.781046 g / cm^3
# Si number density = 17.851092 Si / 1000 Ang^3
#
#
#
# Elastic Constant Matrix: (Units=GPa)
#
#
# Indices 1 2 3 4 5 6 
#
# 1 116.2796 32.7194 48.4208 0.0000 0.0000 0.0000
# 2 32.7194 58.6852 35.3277 0.0000 0.0000 0.0000
# 3 48.4208 35.3277 116.5107 -0.0002 0.0000 0.0000
# 4 0.0000 0.0000 -0.0002 26.4186 0.0000 0.0000
# 5 0.0000 0.0000 0.0000 0.0000 10.0425 0.0000
# 6 0.0000 0.0000 0.0000 0.0000 0.0000 18.0990
#
#
#
# Elastic Compliance Matrix: (Units=1/GPa)
#
#
# Indices 1 2 3 4 5 6 
#
# 1 0.011189 -0.004207 -0.003374 0.000000 0.000000 0.000000
# 2 -0.004207 0.022427 -0.005052 0.000000 0.000000 0.000000
# 3 -0.003374 -0.005052 0.011517 0.000000 0.000000 0.000000
# 4 0.000000 0.000000 0.000000 0.037852 0.000000 0.000000
# 5 0.000000 0.000000 0.000000 0.000000 0.099577 0.000000
# 6 0.000000 0.000000 0.000000 0.000000 0.000000 0.055252
#
#
# Mechanical properties :
#
#
# Convention : Reuss Voigt Hill
#
# Bulk Modulus (GPa) = 50.33600 58.26791 54.30195
# Shear Modulus (GPa) = 18.53901 22.57919 20.55910
#
# Velocity S-wave (km/s) = 3.22613 3.56035 3.39735
# Velocity P-wave (km/s) = 6.49124 7.04368 6.77309
#
# Compressibility (1/GPa) = 0.01986650
#
# Stress axis : x y z
#
# Youngs Moduli (GPa) = 89.37436 44.58976 86.82792
#
# Poissons Ratio (x) = 0.18759 0.29299
# Poissons Ratio (y) = 0.37599 0.43863
# Poissons Ratio (z) = 0.30159 0.22526
#
# Static dielectric constant tensor:
#      x y z
#    x 3.096300 0.000000 0.000000 
#    y 0.000000 3.232040 0.000000 
#    z 0.000000 0.000000 3.481920 
# 
# 
# High freq. dielectric constant tensor:
#      x y z
#    x 1.664920 0.000000 0.000000 
#    y 0.000000 1.679950 0.000000 
#    z 0.000000 0.000000 1.702740 
# 
# From -- ./inp_files/35287.got.cif
#   From: 2010.06.25/outbox.cif.g09.slc.cpg/sg71_18_cif.got.tgz:35287.got - 2010.06.28 04:59:45.
