data_PCOD8287981
_publ_section_title
;
Structure prediction by ZEFSAII (Michael W. Deem and Ramdas Pophale) SiO2 
 PCOD8287981
Probable space group: I M M M
;
_chemical_formula_sum "Si O2"
_cell_formula_units_Z 88
_cell_length_a 28.867856
_cell_length_b 8.779925
_cell_length_c 17.731739
_cell_angle_alpha 90.000000
_cell_angle_beta 90.000000
_cell_angle_gamma 90.000000
_cell_volume 4494.244199
_symmetry_space_group_name_H-M "I M M M"
_symmetry_group_IT_number 71
_symmetry_cell_setting 'orthorhombic'
loop_
_space_group_symop_operation_xyz
x,y,z
-x,-y,z
x,-y,-z
-x,y,-z
-x,-y,-z
x,y,-z
-x,y,z
x,-y,z
1/2+x,1/2+y,1/2+z
1/2-x,1/2-y,1/2+z
1/2+x,1/2-y,1/2-z
1/2-x,1/2+y,1/2-z
1/2-x,1/2-y,1/2-z
1/2+x,1/2+y,1/2-z
1/2-x,1/2+y,1/2+z
1/2+x,1/2-y,1/2+z
loop_
_atom_site_type_symbol
_atom_site_label
_atom_site_fract_x
_atom_site_fract_y
_atom_site_fract_z
Si Si1 0.602034 0.179036 0.500000
Si Si2 0.500000 0.818904 0.086456
Si Si3 0.051711 0.318818 0.147092
Si Si4 0.773999 0.327585 0.855992
Si Si5 0.414956 0.819070 0.809975
Si Si6 0.676608 0.326605 0.225156
Si Si7 0.699368 0.675347 0.500000
O O1 0.579792 0.249120 0.423926
O O2 0.655423 0.216052 0.500000
O O3 0.593593 0.000000 0.500000
O O4 0.546270 0.761071 0.130123
O O5 0.500000 0.000000 0.087175
O O6 0.500000 0.757451 0.000000
O O7 0.052246 0.500000 0.146768
O O8 0.072052 0.261131 0.226328
O O9 0.000000 0.255790 0.139570
O O10 0.786589 0.500000 0.879338
O O11 0.723499 0.318063 0.821361
O O12 0.815148 0.271236 0.800877
O O13 0.770686 0.216012 0.927008
O O14 0.364801 0.743961 0.825755
O O15 0.410669 0.000000 0.815083
O O16 0.664706 0.500000 0.246911
O O17 0.685007 0.500000 0.500000
#
# Coordination Sequence:
#
# PCOD8287981 Si02
#       7
#     8   8  16  16  16  16   8
#     4  10  19  30  50  78 108 144 187 227 274 331
#     4   9  18  34  55  80 110 144 191 243 280 325
#     4   9  16  28  48  76 106 140 183 228 265 313
#     4  10  21  39  60  81 112 152 192 231 277 339
#     4  10  18  32  56  80 108 146 189 232 280 338
#     4  10  21  37  59  86 114 144 183 234 287 343
#     4  12  24  37  55  81 116 149 185 236 284 333
#
# _framework density 19.580601000000001
#
# number of rings (size 3 to 8) (size 9 to 14) (size 15 to 20)
#    0.000    2.091    0.909    3.273    0.000    4.727 
#    1.636    0.455    0.000    2.727    0.000    0.000 
#    0.000    0.000    0.000    0.000    0.000    0.000 
#
# Total GULP energy -545541.611501 kJ/mol
# GULP energy per Si atom -12398.672989 kJ/mol
# Density = 1.953603 g / cm^3
# Si number density = 19.580601 Si / 1000 Ang^3
#
#
#
# Elastic Constant Matrix: (Units=GPa)
#
#
# Indices 1 2 3 4 5 6 
#
# 1 93.9722 37.3258 40.3074 0.0000 0.0000 0.0000
# 2 37.3258 47.3318 30.1509 0.0000 0.0000 0.0000
# 3 40.3074 30.1509 122.4390 0.0000 0.0000 0.0000
# 4 0.0000 0.0000 0.0000 18.3510 0.0000 0.0000
# 5 0.0000 0.0000 0.0000 0.0000 14.4322 0.0000
# 6 0.0000 0.0000 0.0000 0.0000 0.0000 16.8703
#
#
#
# Elastic Compliance Matrix: (Units=1/GPa)
#
#
# Indices 1 2 3 4 5 6 
#
# 1 0.016158 -0.011094 -0.002587 0.000000 0.000000 0.000000
# 2 -0.011094 0.032675 -0.004394 0.000000 0.000000 0.000000
# 3 -0.002587 -0.004394 0.010101 0.000000 0.000000 0.000000
# 4 0.000000 0.000000 0.000000 0.054493 0.000000 0.000000
# 5 0.000000 0.000000 0.000000 0.000000 0.069290 0.000000
# 6 0.000000 0.000000 0.000000 0.000000 0.000000 0.059276
#
#
# Mechanical properties :
#
#
# Convention : Reuss Voigt Hill
#
# Bulk Modulus (GPa) = 43.89161 53.25680 48.57421
# Shear Modulus (GPa) = 17.49859 20.32796 18.91327
#
# Velocity S-wave (km/s) = 2.99267 3.22556 3.11130
# Velocity P-wave (km/s) = 5.86566 6.41328 6.14557
#
# Compressibility (1/GPa) = 0.02278340
#
# Stress axis : x y z
#
# Youngs Moduli (GPa) = 61.89007 30.60423 98.99843
#
# Poissons Ratio (x) = 0.33952 0.25614
# Poissons Ratio (y) = 0.68660 0.43502
# Poissons Ratio (z) = 0.16013 0.13448
#
# Static dielectric constant tensor:
#      x y z
#    x 3.604250 0.000000 0.000000 
#    y 0.000000 3.282920 0.000000 
#    z 0.000000 0.000000 3.767250 
# 
# 
# High freq. dielectric constant tensor:
#      x y z
#    x 1.772110 0.000000 0.000000 
#    y 0.000000 1.730360 0.000000 
#    z 0.000000 0.000000 1.760760 
# 
# From -- ./inp_files/16744.got.cif
#   From: 2010.06.25/outbox.cif.g09.slc.cpg/sg71_9_cif.got.tgz:16744.got - 2010.06.28 04:59:45.
