data_PCOD8287870
_publ_section_title
;
Structure prediction by ZEFSAII (Michael W. Deem and Ramdas Pophale) SiO2 
 PCOD8287870
Probable space group: I M M M
;
_chemical_formula_sum "Si O2"
_cell_formula_units_Z 112
_cell_length_a 24.348376
_cell_length_b 15.845693
_cell_length_c 14.190480
_cell_angle_alpha 90.000000
_cell_angle_beta 90.000000
_cell_angle_gamma 90.000000
_cell_volume 5474.926877
_symmetry_space_group_name_H-M "I M M M"
_symmetry_group_IT_number 71
_symmetry_cell_setting 'orthorhombic'
loop_
_space_group_symop_operation_xyz
x,y,z
-x,-y,z
x,-y,-z
-x,y,-z
-x,-y,-z
x,y,-z
-x,y,z
x,-y,z
1/2+x,1/2+y,1/2+z
1/2-x,1/2-y,1/2+z
1/2+x,1/2-y,1/2-z
1/2-x,1/2+y,1/2-z
1/2-x,1/2-y,1/2-z
1/2+x,1/2+y,1/2-z
1/2-x,1/2+y,1/2+z
1/2+x,1/2-y,1/2+z
loop_
_atom_site_type_symbol
_atom_site_label
_atom_site_fract_x
_atom_site_fract_y
_atom_site_fract_z
Si Si1 0.938293 0.209670 0.897186
Si Si2 0.160411 0.670018 0.104920
Si Si3 0.729295 0.755487 0.891748
Si Si4 0.938501 0.146547 0.299380
Si Si5 0.665653 0.905776 0.201142
Si Si6 0.062217 0.671309 0.610299
Si Si7 0.833656 0.908609 0.390035
O O1 0.899270 0.289742 0.887435
O O2 0.928076 0.143349 0.813403
O O3 0.000000 0.245811 0.887718
O O4 0.929539 0.165764 0.000000
O O5 0.205488 0.744224 0.121284
O O6 0.163717 0.599147 0.185121
O O7 0.170146 0.630202 0.000000
O O8 0.709208 0.837019 0.835311
O O9 0.701724 0.669460 0.849850
O O10 0.712641 0.769193 0.000000
O O11 0.929008 0.240579 0.337484
O O12 0.894356 0.086024 0.346104
O O13 0.000000 0.115000 0.324013
O O14 0.605546 0.893212 0.155326
O O15 0.685413 0.000000 0.174192
O O16 0.074964 0.683650 0.500000
O O17 0.000000 0.637489 0.625230
O O18 0.840700 0.895518 0.500000
O O19 0.805436 0.000000 0.368231
#
# Coordination Sequence:
#
# PCOD8287870 Si02
#       7
#    16  16  16  16  16  16  16
#     4   9  17  32  58  87 110 141 189 237 286 345
#     4  10  21  38  60  82 111 152 195 245 297 340
#     4  10  21  39  60  84 118 155 193 238 289 347
#     4  10  18  31  54  82 113 148 188 237 291 343
#     4  12  24  37  58  87 120 158 198 241 288 342
#     4  10  20  35  56  82 115 156 196 234 282 343
#     4  10  20  34  55  83 115 153 194 236 287 347
#
# _framework density 20.456893999999998
#
# number of rings (size 3 to 8) (size 9 to 14) (size 15 to 20)
#    0.000    1.857    2.857    1.286    0.000    3.429 
#    0.000    2.857    0.000    0.429    0.000    7.000 
#    0.000    0.000    0.000    0.000    0.000    0.000 
#
# Total GULP energy -694118.945284 kJ/mol
# GULP energy per Si atom -12394.981166 kJ/mol
# Density = 2.041033 g / cm^3
# Si number density = 20.456894 Si / 1000 Ang^3
#
#
#
# Elastic Constant Matrix: (Units=GPa)
#
#
# Indices 1 2 3 4 5 6 
#
# 1 86.3970 34.1719 26.5052 0.0000 0.0000 0.0000
# 2 34.1719 103.5344 37.7825 0.0000 0.0000 0.0000
# 3 26.5052 37.7825 81.4920 0.0000 0.0000 0.0000
# 4 0.0000 0.0000 0.0000 19.1101 0.0000 0.0000
# 5 0.0000 0.0000 0.0000 0.0000 23.7238 0.0000
# 6 0.0000 0.0000 0.0000 0.0000 0.0000 9.4960
#
#
#
# Elastic Compliance Matrix: (Units=1/GPa)
#
#
# Indices 1 2 3 4 5 6 
#
# 1 0.013849 -0.003523 -0.002871 0.000000 0.000000 0.000000
# 2 -0.003523 0.012522 -0.004660 0.000000 0.000000 0.000000
# 3 -0.002871 -0.004660 0.015365 0.000000 0.000000 0.000000
# 4 0.000000 0.000000 0.000000 0.052328 0.000000 0.000000
# 5 0.000000 0.000000 0.000000 0.000000 0.042152 0.000000
# 6 0.000000 0.000000 0.000000 0.000000 0.000000 0.105307
#
#
# Mechanical properties :
#
#
# Convention : Reuss Voigt Hill
#
# Bulk Modulus (GPa) = 50.94624 52.03806 51.49215
# Shear Modulus (GPa) = 18.50663 21.99691 20.25177
#
# Velocity S-wave (km/s) = 3.01103 3.28271 3.14980
# Velocity P-wave (km/s) = 6.08660 6.31358 6.20113
#
# Compressibility (1/GPa) = 0.01962853
#
# Stress axis : x y z
#
# Youngs Moduli (GPa) = 72.20906 79.86008 65.08191
#
# Poissons Ratio (x) = 0.28136 0.18684
# Poissons Ratio (y) = 0.25440 0.30326
# Poissons Ratio (z) = 0.20730 0.37212
#
# Static dielectric constant tensor:
#      x y z
#    x 3.890460 0.000000 0.000000 
#    y 0.000000 3.292250 0.000000 
#    z 0.000000 0.000000 4.074740 
# 
# 
# High freq. dielectric constant tensor:
#      x y z
#    x 1.810400 0.000000 0.000000 
#    y 0.000000 1.751740 0.000000 
#    z 0.000000 0.000000 1.815740 
# 
# From -- ./inp_files/34890.got.cif
#   From: 2010.06.25/outbox.cif.g09.slc.cpg/sg71_18_cif.got.tgz:34890.got - 2010.06.28 04:59:45.
