data_PCOD8287081
_publ_section_title
;
Structure prediction by ZEFSAII (Michael W. Deem and Ramdas Pophale) SiO2 
 PCOD8287081
Probable space group: I M M M
;
_chemical_formula_sum "Si O2"
_cell_formula_units_Z 80
_cell_length_a 19.063275
_cell_length_b 33.555350
_cell_length_c 9.339819
_cell_angle_alpha 90.000000
_cell_angle_beta 90.000000
_cell_angle_gamma 90.000000
_cell_volume 5974.447456
_symmetry_space_group_name_H-M "I M M M"
_symmetry_group_IT_number 71
_symmetry_cell_setting 'orthorhombic'
loop_
_space_group_symop_operation_xyz
x,y,z
-x,-y,z
x,-y,-z
-x,y,-z
-x,-y,-z
x,y,-z
-x,y,z
x,-y,z
1/2+x,1/2+y,1/2+z
1/2-x,1/2-y,1/2+z
1/2+x,1/2-y,1/2-z
1/2-x,1/2+y,1/2-z
1/2-x,1/2-y,1/2-z
1/2+x,1/2+y,1/2-z
1/2-x,1/2+y,1/2+z
1/2+x,1/2-y,1/2+z
loop_
_atom_site_type_symbol
_atom_site_label
_atom_site_fract_x
_atom_site_fract_y
_atom_site_fract_z
Si Si1 0.078739 0.043157 0.331121
Si Si2 0.000000 0.247501 0.335160
Si Si3 0.766260 0.808635 0.335152
Si Si4 0.347493 0.229961 0.163812
Si Si5 0.500000 0.332901 0.328997
Si Si6 0.374210 0.373367 0.832238
O O1 0.075042 0.040126 0.500000
O O2 0.130374 0.079688 0.289223
O O3 0.000000 0.051926 0.272654
O O4 0.105406 0.000000 0.270456
O O5 0.069320 0.274017 0.307829
O O6 0.000000 0.231231 0.500000
O O7 0.000000 0.212367 0.221853
O O8 0.746919 0.804860 0.500000
O O9 0.693328 0.804103 0.251007
O O10 0.821473 0.774126 0.289599
O O11 0.800275 0.851715 0.300736
O O12 0.329092 0.222270 0.000000
O O13 0.500000 0.334799 0.500000
O O14 0.568148 0.353999 0.267717
O O15 0.394826 0.367813 0.000000
#
# Coordination Sequence:
#
# PCOD8287081 Si02
#       6
#    16   8  16  16   8  16
#     4   8  13  21  38  61  76  92 127 168 193 213
#     4  10  18  32  46  55  71 102 135 158 196 235
#     4   9  17  27  40  56  75 101 127 153 190 228
#     4   9  17  28  42  56  74  97 125 160 190 225
#     4  12  22  26  35  59  80  97 130 171 199 220
#     4  10  17  29  44  54  74 106 133 160 193 233
#
# _framework density 13.390359999999999
#
# number of rings (size 3 to 8) (size 9 to 14) (size 15 to 20)
#    0.000    2.600    3.000    1.500    0.000    1.600 
#    0.000    0.000    0.000    1.200    0.000    0.000 
#    0.000    0.000    0.000    0.900    0.000   20.800 
#
# Total GULP energy -495659.915431 kJ/mol
# GULP energy per Si atom -12391.497886 kJ/mol
# Density = 1.335988 g / cm^3
# Si number density = 13.390360 Si / 1000 Ang^3
#
#
#
# Elastic Constant Matrix: (Units=GPa)
#
#
# Indices 1 2 3 4 5 6 
#
# 1 88.8062 52.3444 35.4444 0.0000 -0.0007 0.0001
# 2 52.3444 101.3566 32.2938 0.0006 0.0011 0.0000
# 3 35.4444 32.2938 48.8367 0.0141 0.0059 0.0039
# 4 0.0000 0.0006 0.0141 9.1546 0.0010 -0.0001
# 5 -0.0007 0.0011 0.0059 0.0010 18.7486 0.0007
# 6 0.0001 0.0000 0.0039 -0.0001 0.0007 21.2475
#
#
#
# Elastic Compliance Matrix: (Units=1/GPa)
#
#
# Indices 1 2 3 4 5 6 
#
# 1 0.018998 -0.006864 -0.009249 0.000015 0.000004 0.000002
# 2 -0.006864 0.014980 -0.004924 0.000007 0.000000 0.000001
# 3 -0.009249 -0.004924 0.030445 -0.000047 -0.000010 -0.000006
# 4 0.000015 0.000007 -0.000047 0.109235 -0.000006 0.000001
# 5 0.000004 0.000000 -0.000010 -0.000006 0.053337 -0.000002
# 6 0.000002 0.000001 -0.000006 0.000001 -0.000002 0.047064
#
#
# Mechanical properties :
#
#
# Convention : Reuss Voigt Hill
#
# Bulk Modulus (GPa) = 44.74543 53.24050 48.99297
# Shear Modulus (GPa) = 15.45196 17.75793 16.60494
#
# Velocity S-wave (km/s) = 3.40069 3.64562 3.52528
# Velocity P-wave (km/s) = 6.99344 7.58731 7.29642
#
# Compressibility (1/GPa) = 0.02234865
#
# Stress axis : x y z
#
# Youngs Moduli (GPa) = 52.63706 66.75596 32.84609
#
# Poissons Ratio (x) = 0.45824 0.30380
# Poissons Ratio (y) = 0.36132 0.16172
# Poissons Ratio (z) = 0.48685 0.32868
#
# Static dielectric constant tensor:
#      x y z
#    x 2.435380 0.000010 0.000010 
#    y 0.000010 2.860080 -0.000010 
#    z 0.000010 -0.000010 2.539530 
# 
# 
# High freq. dielectric constant tensor:
#      x y z
#    x 1.483300 0.000000 0.000000 
#    y 0.000000 1.488990 0.000000 
#    z 0.000000 0.000000 1.495480 
# 
# From -- ./inp_files/11293.got.cif
#   From: 2010.06.25/outbox.cif.g09.slc.cpg/sg71_6_cif.got.tgz:11293.got - 2010.06.28 04:59:45.
