data_PCOD8287431
_publ_section_title
;
Structure prediction by ZEFSAII (Michael W. Deem and Ramdas Pophale) SiO2 
 PCOD8287431
Probable space group: I M M M
;
_chemical_formula_sum "Si O2"
_cell_formula_units_Z 104
_cell_length_a 27.794852
_cell_length_b 23.896156
_cell_length_c 9.726041
_cell_angle_alpha 90.000000
_cell_angle_beta 90.000000
_cell_angle_gamma 90.000000
_cell_volume 6459.940333
_symmetry_space_group_name_H-M "I M M M"
_symmetry_group_IT_number 71
_symmetry_cell_setting 'orthorhombic'
loop_
_space_group_symop_operation_xyz
x,y,z
-x,-y,z
x,-y,-z
-x,y,-z
-x,-y,-z
x,y,-z
-x,y,z
x,-y,z
1/2+x,1/2+y,1/2+z
1/2-x,1/2-y,1/2+z
1/2+x,1/2-y,1/2-z
1/2-x,1/2+y,1/2-z
1/2-x,1/2-y,1/2-z
1/2+x,1/2+y,1/2-z
1/2-x,1/2+y,1/2+z
1/2+x,1/2-y,1/2+z
loop_
_atom_site_type_symbol
_atom_site_label
_atom_site_fract_x
_atom_site_fract_y
_atom_site_fract_z
Si Si1 0.444678 0.244267 0.343441
Si Si2 0.366096 0.564244 0.840853
Si Si3 0.280991 0.566370 0.348433
Si Si4 0.094838 0.375263 0.839428
Si Si5 0.554968 0.347067 0.840837
Si Si6 0.000000 0.437042 0.163328
Si Si7 0.672925 0.064761 0.839146
O O1 0.439078 0.264645 0.500000
O O2 0.500000 0.227774 0.312988
O O3 0.411411 0.190765 0.315028
O O4 0.426894 0.293969 0.245488
O O5 0.376975 0.500000 0.801362
O O6 0.320479 0.589054 0.758421
O O7 0.413356 0.599201 0.801394
O O8 0.352956 0.570276 0.000000
O O9 0.293157 0.590316 0.500000
O O10 0.282413 0.500000 0.352964
O O11 0.227304 0.584295 0.304589
O O12 0.047569 0.406455 0.781868
O O13 0.139848 0.395822 0.752430
O O14 0.103292 0.388862 0.000000
O O15 0.500000 0.362199 0.803714
O O16 0.560612 0.331249 0.000000
O O17 0.000000 0.500000 0.220310
O O18 0.000000 0.434808 0.000000
O O19 0.664694 0.000000 0.798468
O O20 0.661786 0.073529 0.000000
#
# Coordination Sequence:
#
# PCOD8287431 Si02
#       7
#    16  16  16  16  16   8  16
#     4   9  17  31  48  65  88 119 158 197 228 262
#     4   9  17  29  47  72  98 121 147 182 222 265
#     4   8  15  29  47  65  89 122 154 183 221 272
#     4  10  18  29  46  67  89 118 156 195 231 270
#     4   9  18  31  47  69  96 124 152 181 219 270
#     4   9  16  26  41  63  91 119 146 181 228 276
#     4   9  18  31  45  65  94 123 151 187 232 278
#
# _framework density 16.099219999999999
#
# number of rings (size 3 to 8) (size 9 to 14) (size 15 to 20)
#    0.000    3.000    0.769    1.385    0.000    3.077 
#    0.000    3.462    0.000    2.308    0.000    4.308 
#    0.000    0.000    0.000    0.000    0.000    0.000 
#
# Total GULP energy -644704.300503 kJ/mol
# GULP energy per Si atom -12398.159625 kJ/mol
# Density = 1.606258 g / cm^3
# Si number density = 16.099220 Si / 1000 Ang^3
#
#
#
# Elastic Constant Matrix: (Units=GPa)
#
#
# Indices 1 2 3 4 5 6 
#
# 1 113.8819 59.0928 62.5177 0.0000 0.0000 0.0000
# 2 59.0928 82.9892 51.7403 0.0000 0.0000 0.0000
# 3 62.5177 51.7403 68.8189 0.0000 0.0000 0.0000
# 4 0.0000 0.0000 0.0000 25.1870 0.0000 0.0000
# 5 0.0000 0.0000 0.0000 0.0000 27.5879 0.0000
# 6 0.0000 0.0000 0.0000 0.0000 0.0000 12.6883
#
#
#
# Elastic Compliance Matrix: (Units=1/GPa)
#
#
# Indices 1 2 3 4 5 6 
#
# 1 0.018597 -0.005099 -0.013060 0.000000 0.000000 0.000000
# 2 -0.005099 0.024080 -0.013471 0.000000 0.000000 0.000000
# 3 -0.013060 -0.013471 0.036523 0.000000 0.000000 0.000000
# 4 0.000000 0.000000 0.000000 0.039703 0.000000 0.000000
# 5 0.000000 0.000000 0.000000 0.000000 0.036248 0.000000
# 6 0.000000 0.000000 0.000000 0.000000 0.000000 0.078813
#
#
# Mechanical properties :
#
#
# Convention : Reuss Voigt Hill
#
# Bulk Modulus (GPa) = 62.74292 68.04350 65.39321
# Shear Modulus (GPa) = 16.52690 19.24859 17.88775
#
# Velocity S-wave (km/s) = 3.20748 3.46153 3.33692
# Velocity P-wave (km/s) = 7.26461 7.63761 7.45344
#
# Compressibility (1/GPa) = 0.01593805
#
# Stress axis : x y z
#
# Youngs Moduli (GPa) = 53.77313 41.52879 27.37982
#
# Poissons Ratio (x) = 0.21178 0.35758
# Poissons Ratio (y) = 0.27421 0.36884
# Poissons Ratio (z) = 0.70228 0.55945
#
# Static dielectric constant tensor:
#      x y z
#    x 3.101430 0.000000 0.000000 
#    y 0.000000 2.896940 0.000000 
#    z 0.000000 0.000000 3.059200 
# 
# 
# High freq. dielectric constant tensor:
#      x y z
#    x 1.614650 0.000000 0.000000 
#    y 0.000000 1.597840 0.000000 
#    z 0.000000 0.000000 1.612750 
# 
# From -- ./inp_files/17275.got.cif
#   From: 2010.06.25/outbox.cif.g09.slc.cpg/sg71_9_cif.got.tgz:17275.got - 2010.06.28 04:59:45.
