data_PCOD8287565
_publ_section_title
;
Structure prediction by ZEFSAII (Michael W. Deem and Ramdas Pophale) SiO2 
 PCOD8287565
Probable space group: I M M M
;
_chemical_formula_sum "Si O2"
_cell_formula_units_Z 72
_cell_length_a 30.841274
_cell_length_b 9.244991
_cell_length_c 14.492326
_cell_angle_alpha 90.000000
_cell_angle_beta 90.000000
_cell_angle_gamma 90.000000
_cell_volume 4132.157791
_symmetry_space_group_name_H-M "I M M M"
_symmetry_group_IT_number 71
_symmetry_cell_setting 'orthorhombic'
loop_
_space_group_symop_operation_xyz
x,y,z
-x,-y,z
x,-y,-z
-x,y,-z
-x,-y,-z
x,y,-z
-x,y,z
x,-y,z
1/2+x,1/2+y,1/2+z
1/2-x,1/2-y,1/2+z
1/2+x,1/2-y,1/2-z
1/2-x,1/2+y,1/2-z
1/2-x,1/2-y,1/2-z
1/2+x,1/2+y,1/2-z
1/2-x,1/2+y,1/2+z
1/2+x,1/2-y,1/2+z
loop_
_atom_site_type_symbol
_atom_site_label
_atom_site_fract_x
_atom_site_fract_y
_atom_site_fract_z
Si Si1 0.951608 0.673599 0.301440
Si Si2 0.448971 0.843394 0.000000
Si Si3 0.665650 0.172211 0.500000
Si Si4 0.255697 0.166216 0.000000
Si Si5 0.287647 0.168287 0.802198
Si Si6 0.870458 0.328494 0.807451
O O1 0.951167 0.500000 0.307353
O O2 0.937419 0.736454 0.403080
O O3 0.917108 0.732047 0.226357
O O4 0.000000 0.727186 0.273647
O O5 0.500000 0.868502 0.000000
O O6 0.425362 0.000000 0.000000
O O7 0.713817 0.233580 0.500000
O O8 0.639796 0.229291 0.410167
O O9 0.669854 0.000000 0.500000
O O10 0.285327 0.200231 0.088774
O O11 0.240000 0.000000 0.000000
O O12 0.250000 0.250000 0.750000
O O13 0.333619 0.224908 0.763808
O O14 0.281793 0.000000 0.779958
O O15 0.872160 0.500000 0.808891
#
# Coordination Sequence:
#
# PCOD8287565 Si02
#       6
#    16   8   8   8  16  16
#     4   8  13  22  36  56  83 113 145 181 220 265
#     4   7  10  17  31  50  74 108 142 169 209 264
#     4  10  18  30  46  63  87 122 155 181 224 279
#     4  10  20  31  46  68  91 116 155 196 226 262
#     4  10  19  31  46  66  91 118 149 187 227 267
#     4   9  17  27  41  60  84 117 152 183 221 270
#
# _framework density 17.424312
#
# number of rings (size 3 to 8) (size 9 to 14) (size 15 to 20)
#    0.000    3.000    2.222    1.333    0.000    0.889 
#    0.000    5.000    0.000    3.333    0.000    0.000 
#    0.000    4.444    0.000    0.000    0.000   30.222 
#
# Total GULP energy -446021.184611 kJ/mol
# GULP energy per Si atom -12389.477350 kJ/mol
# Density = 1.738465 g / cm^3
# Si number density = 17.424312 Si / 1000 Ang^3
#
#
#
# Elastic Constant Matrix: (Units=GPa)
#
#
# Indices 1 2 3 4 5 6 
#
# 1 135.4619 13.4369 87.8801 0.0000 0.0000 0.0000
# 2 13.4369 12.3088 17.3789 0.0000 0.0000 0.0000
# 3 87.8801 17.3789 169.5107 0.0000 0.0000 0.0000
# 4 0.0000 0.0000 0.0000 11.9686 0.0000 0.0000
# 5 0.0000 0.0000 0.0000 0.0000 28.2879 0.0000
# 6 0.0000 0.0000 0.0000 0.0000 0.0000 12.9657
#
#
#
# Elastic Compliance Matrix: (Units=1/GPa)
#
#
# Indices 1 2 3 4 5 6 
#
# 1 0.011358 -0.004777 -0.005399 0.000000 0.000000 0.000000
# 2 -0.004777 0.097002 -0.007469 0.000000 0.000000 0.000000
# 3 -0.005399 -0.007469 0.009464 0.000000 0.000000 0.000000
# 4 0.000000 0.000000 0.000000 0.083552 0.000000 0.000000
# 5 0.000000 0.000000 0.000000 0.000000 0.035351 0.000000
# 6 0.000000 0.000000 0.000000 0.000000 0.000000 0.077126
#
#
# Mechanical properties :
#
#
# Convention : Reuss Voigt Hill
#
# Bulk Modulus (GPa) = 12.11593 61.63035 36.87314
# Shear Modulus (GPa) = 13.27479 23.88349 18.57914
#
# Velocity S-wave (km/s) = 2.76317 3.70631 3.26893
# Velocity P-wave (km/s) = 4.14110 7.33231 5.95447
#
# Compressibility (1/GPa) = 0.08253595
#
# Stress axis : x y z
#
# Youngs Moduli (GPa) = 88.04013 10.30908 105.66352
#
# Poissons Ratio (x) = 0.04924 0.57046
# Poissons Ratio (y) = 0.42054 0.78916
# Poissons Ratio (z) = 0.47532 0.07699
#
# Static dielectric constant tensor:
#      x y z
#    x 3.359470 0.000000 0.000000 
#    y 0.000000 2.674750 0.000000 
#    z 0.000000 0.000000 3.827830 
# 
# 
# High freq. dielectric constant tensor:
#      x y z
#    x 1.665460 0.000000 0.000000 
#    y 0.000000 1.601500 0.000000 
#    z 0.000000 0.000000 1.689860 
# 
# From -- ./inp_files/40723.got.cif
#   From: 2010.06.25/outbox.cif.g09.slc.cpg/sg71_21_cif.got.tgz:40723.got - 2010.06.28 04:59:45.
