data_PCOD8287267
_publ_section_title
;
Structure prediction by ZEFSAII (Michael W. Deem and Ramdas Pophale) SiO2 
 PCOD8287267
Probable space group: I M M M
;
_chemical_formula_sum "Si O2"
_cell_formula_units_Z 88
_cell_length_a 8.894222
_cell_length_b 23.924438
_cell_length_c 30.495728
_cell_angle_alpha 90.000000
_cell_angle_beta 90.000000
_cell_angle_gamma 90.000000
_cell_volume 6489.163480
_symmetry_space_group_name_H-M "I M M M"
_symmetry_group_IT_number 71
_symmetry_cell_setting 'orthorhombic'
loop_
_space_group_symop_operation_xyz
x,y,z
-x,-y,z
x,-y,-z
-x,y,-z
-x,-y,-z
x,y,-z
-x,y,z
x,-y,z
1/2+x,1/2+y,1/2+z
1/2-x,1/2-y,1/2+z
1/2+x,1/2-y,1/2-z
1/2-x,1/2+y,1/2-z
1/2-x,1/2-y,1/2-z
1/2+x,1/2+y,1/2-z
1/2-x,1/2+y,1/2+z
1/2+x,1/2-y,1/2+z
loop_
_atom_site_type_symbol
_atom_site_label
_atom_site_fract_x
_atom_site_fract_y
_atom_site_fract_z
Si Si1 0.327544 0.779504 0.710557
Si Si2 0.822766 0.823340 0.839433
Si Si3 0.830804 0.000000 0.760485
Si Si4 0.178093 0.436811 0.500000
Si Si5 0.322873 0.114268 0.243345
Si Si6 0.670006 0.500000 0.635940
Si Si7 0.678327 0.895366 0.093001
O O1 0.500000 0.770634 0.720185
O O2 0.250000 0.750000 0.750000
O O3 0.286824 0.743557 0.666828
O O4 0.289717 0.845703 0.713795
O O5 0.753514 0.860518 0.800248
O O6 0.749032 0.839399 0.886081
O O7 0.000000 0.836044 0.840927
O O8 0.745041 0.945221 0.743277
O O9 0.833166 0.000000 0.812357
O O10 0.000000 0.000000 0.741637
O O11 0.245785 0.500000 0.500000
O O12 0.232519 0.402730 0.542726
O O13 0.000000 0.442162 0.500000
O O14 0.500000 0.108391 0.234030
O O15 0.500000 0.500000 0.616981
O O16 0.761514 0.553387 0.620941
O O17 0.500000 0.892952 0.096317
#
# Coordination Sequence:
#
# PCOD8287267 Si02
#       7
#    16  16   8   8  16   8  16
#     4   8  16  28  41  56  75  97 121 153 190 225
#     4  10  18  29  42  58  79  97 119 158 201 232
#     4  11  21  29  38  56  82 105 124 158 204 231
#     4   9  18  32  44  56  74  98 126 163 202 233
#     4  10  18  28  42  58  74  99 132 157 183 227
#     4  11  21  30  40  55  77  99 124 160 203 239
#     4  11  20  31  46  58  71  96 131 163 197 239
#
# _framework density 13.561070000000001
#
# number of rings (size 3 to 8) (size 9 to 14) (size 15 to 20)
#    0.000    2.091    2.727    2.182    0.000    2.182 
#    0.000    2.273    0.000    0.000    0.000    0.000 
#    0.000    0.000    0.000    0.000    0.000    0.909 
#
# Total GULP energy -545082.921021 kJ/mol
# GULP energy per Si atom -12388.248205 kJ/mol
# Density = 1.353020 g / cm^3
# Si number density = 13.561070 Si / 1000 Ang^3
#
#
#
# Elastic Constant Matrix: (Units=GPa)
#
#
# Indices 1 2 3 4 5 6 
#
# 1 67.3041 41.9865 29.2216 0.0000 0.0000 0.0000
# 2 41.9865 104.4819 53.1555 0.0000 0.0000 0.0000
# 3 29.2216 53.1555 63.4076 0.0000 0.0000 0.0000
# 4 0.0000 0.0000 0.0000 -145.0646 0.0000 0.0000
# 5 0.0000 0.0000 0.0000 0.0000 13.7901 0.0000
# 6 0.0000 0.0000 0.0000 0.0000 0.0000 35.4422
#
#
#
# Elastic Compliance Matrix: (Units=1/GPa)
#
#
# Indices 1 2 3 4 5 6 
#
# 1 0.020520 -0.005989 -0.004436 0.000000 0.000000 0.000000
# 2 -0.005989 0.018437 -0.012696 0.000000 0.000000 0.000000
# 3 -0.004436 -0.012696 0.028458 0.000000 0.000000 0.000000
# 4 0.000000 0.000000 0.000000 -0.006893 0.000000 0.000000
# 5 0.000000 0.000000 0.000000 0.000000 0.072516 0.000000
# 6 0.000000 0.000000 0.000000 0.000000 0.000000 0.028215
#
#
# Mechanical properties :
#
#
# Convention : Reuss Voigt Hill
#
# Bulk Modulus (GPa) = 47.22876 53.76899 50.49887
# Shear Modulus (GPa) = 23.30436 -11.77780 5.76328
#
# Velocity S-wave (km/s) = 4.14995 -2.95023 2.06376
# Velocity P-wave (km/s) = 7.60691 5.30381 6.55727
#
# Compressibility (1/GPa) = 0.02117354
#
# Stress axis : x y z
#
# Youngs Moduli (GPa) = 48.73233 54.23916 35.13931
#
# Poissons Ratio (x) = 0.32486 0.15587
# Poissons Ratio (y) = 0.29188 0.44612
# Poissons Ratio (z) = 0.21617 0.68860
#
# Static dielectric constant tensor:
#      x y z
#    x 2.760990 0.000000 0.000000 
#    y 0.000000 3.275250 0.000000 
#    z 0.000000 0.000000 2.705620 
# 
# 
# High freq. dielectric constant tensor:
#      x y z
#    x 1.531910 0.000000 0.000000 
#    y 0.000000 1.509790 0.000000 
#    z 0.000000 0.000000 1.470280 
# 
# From -- ./inp_files/13573.got.cif
#   From: 2010.06.25/outbox.cif.g09.slc.cpg/sg71_7_cif.got.tgz:13573.got - 2010.06.28 04:59:45.
