data_PCOD8287092
_publ_section_title
;
Structure prediction by ZEFSAII (Michael W. Deem and Ramdas Pophale) SiO2 
 PCOD8287092
Probable space group: I M M M
;
_chemical_formula_sum "Si O2"
_cell_formula_units_Z 104
_cell_length_a 22.497460
_cell_length_b 22.734064
_cell_length_c 13.130410
_cell_angle_alpha 90.000000
_cell_angle_beta 90.000000
_cell_angle_gamma 90.000000
_cell_volume 6715.662370
_symmetry_space_group_name_H-M "I M M M"
_symmetry_group_IT_number 71
_symmetry_cell_setting 'orthorhombic'
loop_
_space_group_symop_operation_xyz
x,y,z
-x,-y,z
x,-y,-z
-x,y,-z
-x,-y,-z
x,y,-z
-x,y,z
x,-y,z
1/2+x,1/2+y,1/2+z
1/2-x,1/2-y,1/2+z
1/2+x,1/2-y,1/2-z
1/2-x,1/2+y,1/2-z
1/2-x,1/2-y,1/2-z
1/2+x,1/2+y,1/2-z
1/2-x,1/2+y,1/2+z
1/2+x,1/2-y,1/2+z
loop_
_atom_site_type_symbol
_atom_site_label
_atom_site_fract_x
_atom_site_fract_y
_atom_site_fract_z
Si Si1 0.753770 0.289068 0.885887
Si Si2 0.683195 0.679164 0.302023
Si Si3 0.067089 0.230082 0.882675
Si Si4 0.377065 0.852305 0.614588
Si Si5 0.260408 0.433661 0.618536
Si Si6 0.067739 0.430151 0.500000
Si Si7 0.631181 0.067562 0.199510
O O1 0.699866 0.311641 0.816052
O O2 0.773068 0.221622 0.866126
O O3 0.810547 0.329742 0.867185
O O4 0.729651 0.293849 0.000000
O O5 0.613669 0.693856 0.314670
O O6 0.691345 0.612329 0.339772
O O7 0.076602 0.299581 0.868648
O O8 0.000000 0.214152 0.848917
O O9 0.078473 0.212820 0.000000
O O10 0.383700 0.878071 0.500000
O O11 0.391136 0.901769 0.697405
O O12 0.246084 0.422924 0.500000
O O13 0.285024 0.500000 0.634685
O O14 0.201185 0.424382 0.684097
O O15 0.076489 0.500000 0.500000
O O16 0.098169 0.404198 0.398326
O O17 0.000000 0.410183 0.500000
O O18 0.613059 0.000000 0.211397
#
# Coordination Sequence:
#
# PCOD8287092 Si02
#       7
#    16  16  16  16  16   8  16
#     4   9  17  28  45  70  93 116 150 189 230 277
#     4  10  17  29  49  68  90 123 154 186 230 285
#     4   9  18  32  49  68  89 116 153 191 228 277
#     4   9  17  30  46  66  92 121 151 187 233 276
#     4  10  18  28  44  69  98 123 150 189 235 280
#     4   9  18  32  46  58  80 122 167 197 224 266
#     4  10  18  29  44  64  91 123 157 193 230 270
#
# _framework density 15.486186
#
# number of rings (size 3 to 8) (size 9 to 14) (size 15 to 20)
#    0.000    2.538    2.308    2.308    0.000    0.923 
#    0.000    0.000    0.000    1.385    0.000    6.462 
#    0.000    0.000    0.000    1.385    0.000    0.154 
#
# Total GULP energy -644721.501758 kJ/mol
# GULP energy per Si atom -12398.490418 kJ/mol
# Density = 1.545094 g / cm^3
# Si number density = 15.486186 Si / 1000 Ang^3
#
#
#
# Elastic Constant Matrix: (Units=GPa)
#
#
# Indices 1 2 3 4 5 6 
#
# 1 81.2703 28.8057 41.5422 0.0000 0.0000 0.0000
# 2 28.8057 70.3528 43.9408 0.0000 0.0000 0.0000
# 3 41.5422 43.9408 108.8715 0.0000 0.0000 0.0000
# 4 0.0000 0.0000 0.0000 23.3239 0.0000 0.0000
# 5 0.0000 0.0000 0.0000 0.0000 17.7899 0.0000
# 6 0.0000 0.0000 0.0000 0.0000 0.0000 10.9828
#
#
#
# Elastic Compliance Matrix: (Units=1/GPa)
#
#
# Indices 1 2 3 4 5 6 
#
# 1 0.015958 -0.003651 -0.004615 0.000000 0.000000 0.000000
# 2 -0.003651 0.019840 -0.006614 0.000000 0.000000 0.000000
# 3 -0.004615 -0.006614 0.013616 0.000000 0.000000 0.000000
# 4 0.000000 0.000000 0.000000 0.042874 0.000000 0.000000
# 5 0.000000 0.000000 0.000000 0.000000 0.056212 0.000000
# 6 0.000000 0.000000 0.000000 0.000000 0.000000 0.091051
#
#
# Mechanical properties :
#
#
# Convention : Reuss Voigt Hill
#
# Bulk Modulus (GPa) = 50.88551 54.34134 52.61343
# Shear Modulus (GPa) = 18.12484 20.16638 19.14561
#
# Velocity S-wave (km/s) = 3.42480 3.61254 3.51992
# Velocity P-wave (km/s) = 6.96915 7.25031 7.11112
#
# Compressibility (1/GPa) = 0.01965196
#
# Stress axis : x y z
#
# Youngs Moduli (GPa) = 62.66444 50.40261 73.44387
#
# Poissons Ratio (x) = 0.18403 0.33898
# Poissons Ratio (y) = 0.22880 0.48578
# Poissons Ratio (z) = 0.28923 0.33338
#
# Static dielectric constant tensor:
#      x y z
#    x 2.753680 0.000000 0.000000 
#    y 0.000000 2.801390 0.000000 
#    z 0.000000 0.000000 2.990360 
# 
# 
# High freq. dielectric constant tensor:
#      x y z
#    x 1.570720 0.000000 0.000000 
#    y 0.000000 1.572420 0.000000 
#    z 0.000000 0.000000 1.596030 
# 
# From -- ./inp_files/39566.got.cif
#   From: 2010.06.25/outbox.cif.g09.slc.cpg/sg71_20_cif.got.tgz:39566.got - 2010.06.28 04:59:45.
