data_PCOD8287156
_publ_section_title
;
Structure prediction by ZEFSAII (Michael W. Deem and Ramdas Pophale) SiO2 
 PCOD8287156
Probable space group: I M M M
;
_chemical_formula_sum "Si O2"
_cell_formula_units_Z 104
_cell_length_a 9.131861
_cell_length_b 28.099375
_cell_length_c 32.819638
_cell_angle_alpha 90.000000
_cell_angle_beta 90.000000
_cell_angle_gamma 90.000000
_cell_volume 8421.505546
_symmetry_space_group_name_H-M "I M M M"
_symmetry_group_IT_number 71
_symmetry_cell_setting 'orthorhombic'
loop_
_space_group_symop_operation_xyz
x,y,z
-x,-y,z
x,-y,-z
-x,y,-z
-x,-y,-z
x,y,-z
-x,y,z
x,-y,z
1/2+x,1/2+y,1/2+z
1/2-x,1/2-y,1/2+z
1/2+x,1/2-y,1/2-z
1/2-x,1/2+y,1/2-z
1/2-x,1/2-y,1/2-z
1/2+x,1/2+y,1/2-z
1/2-x,1/2+y,1/2+z
1/2+x,1/2-y,1/2+z
loop_
_atom_site_type_symbol
_atom_site_label
_atom_site_fract_x
_atom_site_fract_y
_atom_site_fract_z
Si Si1 0.826220 0.092406 0.914104
Si Si2 0.327610 0.154738 0.851714
Si Si3 0.672056 0.500000 0.368327
Si Si4 0.334641 0.262452 0.311493
Si Si5 0.164336 0.182804 0.726654
Si Si6 0.334862 0.000000 0.786823
Si Si7 0.333029 0.895610 0.231770
Si Si8 0.673140 0.554002 0.500000
O O1 0.743499 0.136897 0.893929
O O2 0.766490 0.046309 0.890524
O O3 0.777696 0.084812 0.960901
O O4 0.000000 0.099895 0.909698
O O5 0.500000 0.160504 0.857585
O O6 0.258543 0.206312 0.843036
O O7 0.289121 0.118467 0.814645
O O8 0.500000 0.500000 0.372028
O O9 0.716603 0.500000 0.321864
O O10 0.500000 0.255784 0.327787
O O11 0.258231 0.210884 0.307240
O O12 0.336018 0.287731 0.268073
O O13 0.234226 0.131169 0.735073
O O14 0.000000 0.175712 0.710142
O O15 0.310887 0.952069 0.760586
O O16 0.500000 0.000000 0.805117
O O17 0.500000 0.879801 0.239253
O O18 0.739691 0.500000 0.500000
O O19 0.500000 0.547829 0.500000
#
# Coordination Sequence:
#
# PCOD8287156 Si02
#       8
#    16  16   8  16  16   8  16   8
#     4  10  18  28  41  55  68  85 112 144 178 216
#     4  10  18  27  39  53  70  88 108 136 173 212
#     4  10  18  25  38  54  66  82 110 146 178 212
#     4   9  16  26  39  53  69  86 107 132 162 202
#     4   9  16  25  37  52  69  87 108 133 164 200
#     4  10  18  28  37  49  69  94 118 142 174 209
#     4   9  17  26  36  49  67  91 115 138 168 204
#     4   9  16  28  43  55  67  87 115 145 177 216
#
# _framework density 12.349335999999999
#
# number of rings (size 3 to 8) (size 9 to 14) (size 15 to 20)
#    0.000    2.538    2.308    1.385    0.000    4.923 
#    0.000    0.385    0.000    0.462    0.000    0.000 
#    0.000    0.000    0.000    0.000    0.000    0.000 
#
# Total GULP energy -644624.169804 kJ/mol
# GULP energy per Si atom -12396.618650 kJ/mol
# Density = 1.232123 g / cm^3
# Si number density = 12.349336 Si / 1000 Ang^3
#
#
#
# Elastic Constant Matrix: (Units=GPa)
#
#
# Indices 1 2 3 4 5 6 
#
# 1 62.4008 37.6578 27.3204 0.0000 0.0000 0.0000
# 2 37.6578 78.3199 39.4042 0.0000 0.0000 0.0000
# 3 27.3204 39.4042 44.0235 0.0000 0.0000 0.0000
# 4 0.0000 0.0000 0.0000 12.5665 0.0000 0.0000
# 5 0.0000 0.0000 0.0000 0.0000 12.2070 0.0000
# 6 0.0000 0.0000 0.0000 0.0000 0.0000 18.4940
#
#
#
# Elastic Compliance Matrix: (Units=1/GPa)
#
#
# Indices 1 2 3 4 5 6 
#
# 1 0.024157 -0.007409 -0.008360 0.000000 0.000000 0.000000
# 2 -0.007409 0.025501 -0.018227 0.000000 0.000000 0.000000
# 3 -0.008360 -0.018227 0.044218 0.000000 0.000000 0.000000
# 4 0.000000 0.000000 0.000000 0.079577 0.000000 0.000000
# 5 0.000000 0.000000 0.000000 0.000000 0.081920 0.000000
# 6 0.000000 0.000000 0.000000 0.000000 0.000000 0.054072
#
#
# Mechanical properties :
#
#
# Convention : Reuss Voigt Hill
#
# Bulk Modulus (GPa) = 38.63476 43.72322 41.17899
# Shear Modulus (GPa) = 12.95121 14.01095 13.48108
#
# Velocity S-wave (km/s) = 3.24193 3.37196 3.30759
# Velocity P-wave (km/s) = 6.73545 7.11634 6.92852
#
# Compressibility (1/GPa) = 0.02588343
#
# Stress axis : x y z
#
# Youngs Moduli (GPa) = 41.39626 39.21403 22.61537
#
# Poissons Ratio (x) = 0.29054 0.18906
# Poissons Ratio (y) = 0.30671 0.41222
# Poissons Ratio (z) = 0.34606 0.71476
#
# Static dielectric constant tensor:
#      x y z
#    x 2.577840 0.000000 0.000000 
#    y 0.000000 2.526860 0.000000 
#    z 0.000000 0.000000 2.236200 
# 
# 
# High freq. dielectric constant tensor:
#      x y z
#    x 1.476070 0.000000 0.000000 
#    y 0.000000 1.455840 0.000000 
#    z 0.000000 0.000000 1.413300 
# 
# From -- ./inp_files/68590.got.cif
#   From: 2010.06.25/outbox.cif.g09.slc.cpg/sg71_35_cif.got.tgz:68590.got - 2010.06.28 04:59:45.
