data_PCOD8287120
_publ_section_title
;
Structure prediction by ZEFSAII (Michael W. Deem and Ramdas Pophale) SiO2 
 PCOD8287120
Probable space group: I M M M
;
_chemical_formula_sum "Si O2"
_cell_formula_units_Z 96
_cell_length_a 9.106005
_cell_length_b 25.668043
_cell_length_c 21.756348
_cell_angle_alpha 90.000000
_cell_angle_beta 90.000000
_cell_angle_gamma 90.000000
_cell_volume 5085.183621
_symmetry_space_group_name_H-M "I M M M"
_symmetry_group_IT_number 71
_symmetry_cell_setting 'orthorhombic'
loop_
_space_group_symop_operation_xyz
x,y,z
-x,-y,z
x,-y,-z
-x,y,-z
-x,-y,-z
x,y,-z
-x,y,z
x,-y,z
1/2+x,1/2+y,1/2+z
1/2-x,1/2-y,1/2+z
1/2+x,1/2-y,1/2-z
1/2-x,1/2+y,1/2-z
1/2-x,1/2-y,1/2-z
1/2+x,1/2+y,1/2-z
1/2-x,1/2+y,1/2+z
1/2+x,1/2-y,1/2+z
loop_
_atom_site_type_symbol
_atom_site_label
_atom_site_fract_x
_atom_site_fract_y
_atom_site_fract_z
Si Si1 0.825942 0.759585 0.127668
Si Si2 0.171413 0.357009 0.844826
Si Si3 0.173073 0.940577 0.430165
Si Si4 0.670209 0.055637 0.867510
Si Si5 0.165758 0.591241 0.500000
Si Si6 0.827282 0.804029 0.000000
Si Si7 0.826351 0.345828 0.703829
O O1 0.779034 0.699635 0.132084
O O2 0.750834 0.792817 0.181870
O O3 0.000000 0.766636 0.134815
O O4 0.764327 0.777478 0.061489
O O5 0.252629 0.401823 0.882234
O O6 0.213914 0.359637 0.773423
O O7 0.000000 0.365903 0.855176
O O8 0.221921 0.926895 0.500000
O O9 0.000000 0.934392 0.423750
O O10 0.219884 0.000000 0.414692
O O11 0.500000 0.056775 0.849749
O O12 0.741614 0.106088 0.835591
O O13 0.737277 0.000000 0.844453
O O14 0.692773 0.056220 0.940549
O O15 0.283942 0.636405 0.500000
O O16 0.000000 0.614590 0.500000
O O17 0.000000 0.798271 0.000000
O O18 0.000000 0.338174 0.694578
#
# Coordination Sequence:
#
# PCOD8287120 Si02
#       7
#    16  16  16  16   8   8  16
#     4  10  21  36  53  76 109 146 181 221 274 328
#     4  10  22  36  56  85 112 143 182 221 268 327
#     4   9  20  40  62  84 112 144 179 223 275 328
#     4   9  17  29  48  74 102 132 170 218 265 309
#     4  10  17  30  52  74  96 131 179 221 264 318
#     4  10  20  33  51  73 103 141 176 220 272 319
#     4  10  20  35  54  79 109 142 182 225 267 317
#
# _framework density 18.878374999999998
#
# number of rings (size 3 to 8) (size 9 to 14) (size 15 to 20)
#    0.000    2.333    1.667    1.250    1.167    3.667 
#    0.000    2.500    0.000    2.500    0.000    0.000 
#    0.000    0.000    0.000    0.000    0.000    0.000 
#
# Total GULP energy -595034.183017 kJ/mol
# GULP energy per Si atom -12396.545480 kJ/mol
# Density = 1.883541 g / cm^3
# Si number density = 18.878375 Si / 1000 Ang^3
#
#
#
# Elastic Constant Matrix: (Units=GPa)
#
#
# Indices 1 2 3 4 5 6 
#
# 1 29.8827 38.6763 36.8846 0.0000 0.0000 0.0000
# 2 38.6763 148.2290 72.5311 0.0000 0.0000 0.0000
# 3 36.8846 72.5311 117.4373 0.0002 0.0000 0.0000
# 4 0.0000 0.0000 0.0002 36.7966 0.0000 0.0000
# 5 0.0000 0.0000 0.0000 0.0000 22.3897 0.0000
# 6 0.0000 0.0000 0.0000 0.0000 0.0000 29.4561
#
#
#
# Elastic Compliance Matrix: (Units=1/GPa)
#
#
# Indices 1 2 3 4 5 6 
#
# 1 0.063071 -0.009693 -0.013823 0.000000 0.000000 0.000000
# 2 -0.009693 0.011158 -0.003847 0.000000 0.000000 0.000000
# 3 -0.013823 -0.003847 0.015233 0.000000 0.000000 0.000000
# 4 0.000000 0.000000 0.000000 0.027176 0.000000 0.000000
# 5 0.000000 0.000000 0.000000 0.000000 0.044663 0.000000
# 6 0.000000 0.000000 0.000000 0.000000 0.000000 0.033949
#
#
# Mechanical properties :
#
#
# Convention : Reuss Voigt Hill
#
# Bulk Modulus (GPa) = 28.78835 65.74810 47.26823
# Shear Modulus (GPa) = 19.11648 27.55895 23.33772
#
# Velocity S-wave (km/s) = 3.18561 3.82490 3.51980
# Velocity P-wave (km/s) = 5.36780 7.37626 6.45068
#
# Compressibility (1/GPa) = 0.03473627
#
# Stress axis : x y z
#
# Youngs Moduli (GPa) = 15.85506 89.62371 65.64900
#
# Poissons Ratio (x) = 0.86872 0.90746
# Poissons Ratio (y) = 0.15368 0.25254
# Poissons Ratio (z) = 0.21916 0.34477
#
# Static dielectric constant tensor:
#      x y z
#    x 3.127540 0.000000 0.000000 
#    y 0.000000 3.613230 0.000000 
#    z 0.000000 0.000000 3.644860 
# 
# 
# High freq. dielectric constant tensor:
#      x y z
#    x 1.698710 0.000000 0.000000 
#    y 0.000000 1.746240 0.000000 
#    z 0.000000 0.000000 1.742340 
# 
# From -- ./inp_files/57744.got.cif
#   From: 2010.06.25/outbox.cif.g09.slc.cpg/sg71_29_cif.got.tgz:57744.got - 2010.06.28 04:59:45.
