data_PCOD8287485
_publ_section_title
;
Structure prediction by ZEFSAII (Michael W. Deem and Ramdas Pophale) SiO2 
 PCOD8287485
Probable space group: I M M M
;
_chemical_formula_sum "Si O2"
_cell_formula_units_Z 80
_cell_length_a 11.791044
_cell_length_b 22.678128
_cell_length_c 18.855975
_cell_angle_alpha 90.000000
_cell_angle_beta 90.000000
_cell_angle_gamma 90.000000
_cell_volume 5042.065184
_symmetry_space_group_name_H-M "I M M M"
_symmetry_group_IT_number 71
_symmetry_cell_setting 'orthorhombic'
loop_
_space_group_symop_operation_xyz
x,y,z
-x,-y,z
x,-y,-z
-x,y,-z
-x,-y,-z
x,y,-z
-x,y,z
x,-y,z
1/2+x,1/2+y,1/2+z
1/2-x,1/2-y,1/2+z
1/2+x,1/2-y,1/2-z
1/2-x,1/2+y,1/2-z
1/2-x,1/2-y,1/2-z
1/2+x,1/2+y,1/2-z
1/2-x,1/2+y,1/2+z
1/2+x,1/2-y,1/2+z
loop_
_atom_site_type_symbol
_atom_site_label
_atom_site_fract_x
_atom_site_fract_y
_atom_site_fract_z
Si Si1 0.253689 0.931596 0.254210
Si Si2 0.217072 0.259258 0.082413
Si Si3 0.628564 0.655452 0.331904
Si Si4 0.872747 0.164641 0.324065
Si Si5 0.500000 0.162341 0.418849
Si Si6 0.000000 0.433080 0.800418
O O1 0.198346 0.905611 0.181510
O O2 0.199576 0.896676 0.322052
O O3 0.389093 0.920624 0.252667
O O4 0.222487 0.000000 0.261214
O O5 0.193549 0.193165 0.109135
O O6 0.323267 0.287114 0.122861
O O7 0.107857 0.298174 0.099110
O O8 0.247007 0.256518 0.000000
O O9 0.500000 0.641132 0.356863
O O10 0.626484 0.690856 0.256510
O O11 0.000000 0.149898 0.349353
O O12 0.500000 0.141303 0.500000
O O13 0.500000 0.104868 0.371277
O O14 0.000000 0.500000 0.827712
#
# Coordination Sequence:
#
# PCOD8287485 Si02
#       6
#    16  16  16  16   8   8
#     4   9  18  32  51  74  97 124 161 208 252 287
#     4  11  20  32  49  73 105 133 162 200 245 296
#     4   9  18  32  51  74  98 129 165 203 246 292
#     4   9  19  32  50  72  97 132 166 201 241 291
#     4  10  18  29  48  68  95 135 159 190 244 290
#     4  10  18  31  50  74  99 123 161 208 246 290
#
# _framework density 15.866514
#
# number of rings (size 3 to 8) (size 9 to 14) (size 15 to 20)
#    1.200    1.200    3.000    0.600    0.000    2.200 
#    1.800    0.000    0.000    1.200    0.000    2.800 
#    0.000    2.400    0.000    0.000    0.000    0.000 
#
# Total GULP energy -495660.494465 kJ/mol
# GULP energy per Si atom -12391.512362 kJ/mol
# Density = 1.583040 g / cm^3
# Si number density = 15.866514 Si / 1000 Ang^3
#
#
#
# Elastic Constant Matrix: (Units=GPa)
#
#
# Indices 1 2 3 4 5 6 
#
# 1 109.1838 37.2635 15.3349 0.0000 0.0000 0.0000
# 2 37.2635 72.7602 17.7705 0.0000 0.0000 0.0000
# 3 15.3349 17.7705 36.5885 0.0000 0.0000 0.0000
# 4 0.0000 0.0000 0.0000 16.6817 0.0000 0.0000
# 5 0.0000 0.0000 0.0000 0.0000 13.1405 0.0000
# 6 0.0000 0.0000 0.0000 0.0000 0.0000 3.6474
#
#
#
# Elastic Compliance Matrix: (Units=1/GPa)
#
#
# Indices 1 2 3 4 5 6 
#
# 1 0.011249 -0.005230 -0.002175 0.000000 0.000000 0.000000
# 2 -0.005230 0.018025 -0.006563 0.000000 0.000000 0.000000
# 3 -0.002175 -0.006563 0.031430 0.000000 0.000000 0.000000
# 4 0.000000 0.000000 0.000000 0.059946 0.000000 0.000000
# 5 0.000000 0.000000 0.000000 0.000000 0.076101 0.000000
# 6 0.000000 0.000000 0.000000 0.000000 0.000000 0.274165
#
#
# Mechanical properties :
#
#
# Convention : Reuss Voigt Hill
#
# Bulk Modulus (GPa) = 30.51601 39.91893 35.21747
# Shear Modulus (GPa) = 9.80828 16.57148 13.18988
#
# Velocity S-wave (km/s) = 2.48901 3.23527 2.88636
# Velocity P-wave (km/s) = 5.24738 6.25858 5.77515
#
# Compressibility (1/GPa) = 0.03276968
#
# Stress axis : x y z
#
# Youngs Moduli (GPa) = 88.89449 55.47804 31.81707
#
# Poissons Ratio (x) = 0.29016 0.06919
# Poissons Ratio (y) = 0.46493 0.20880
# Poissons Ratio (z) = 0.19331 0.36408
#
# Static dielectric constant tensor:
#      x y z
#    x 3.122390 0.000000 0.000000 
#    y 0.000000 2.827800 0.000000 
#    z 0.000000 0.000000 2.715690 
# 
# 
# High freq. dielectric constant tensor:
#      x y z
#    x 1.623590 0.000000 0.000000 
#    y 0.000000 1.594920 0.000000 
#    z 0.000000 0.000000 1.574850 
# 
# From -- ./inp_files/51725.got.cif
#   From: 2010.06.25/outbox.cif.g09.slc.cpg/sg71_26_cif.got.tgz:51725.got - 2010.06.28 04:59:45.
