data_PCOD8287790
_publ_section_title
;
Structure prediction by ZEFSAII (Michael W. Deem and Ramdas Pophale) SiO2 
 PCOD8287790
Probable space group: I M M M
;
_chemical_formula_sum "Si O2"
_cell_formula_units_Z 88
_cell_length_a 14.510126
_cell_length_b 17.450199
_cell_length_c 17.856121
_cell_angle_alpha 90.000000
_cell_angle_beta 90.000000
_cell_angle_gamma 90.000000
_cell_volume 4521.251729
_symmetry_space_group_name_H-M "I M M M"
_symmetry_group_IT_number 71
_symmetry_cell_setting 'orthorhombic'
loop_
_space_group_symop_operation_xyz
x,y,z
-x,-y,z
x,-y,-z
-x,y,-z
-x,-y,-z
x,y,-z
-x,y,z
x,-y,z
1/2+x,1/2+y,1/2+z
1/2-x,1/2-y,1/2+z
1/2+x,1/2-y,1/2-z
1/2-x,1/2+y,1/2-z
1/2-x,1/2-y,1/2-z
1/2+x,1/2+y,1/2-z
1/2-x,1/2+y,1/2+z
1/2+x,1/2-y,1/2+z
loop_
_atom_site_type_symbol
_atom_site_label
_atom_site_fract_x
_atom_site_fract_y
_atom_site_fract_z
Si Si1 0.211380 0.183566 0.122966
Si Si2 0.103298 0.356592 0.322114
Si Si3 0.602197 0.692435 0.229610
Si Si4 0.212467 0.839303 0.584788
Si Si5 0.104405 0.500000 0.234291
Si Si6 0.390922 0.588783 0.500000
Si Si7 0.311613 0.000000 0.417996
O O1 0.319032 0.157861 0.114309
O O2 0.175387 0.168282 0.207285
O O3 0.209187 0.273791 0.100366
O O4 0.147625 0.131534 0.072094
O O5 0.097337 0.284109 0.267500
O O6 0.146389 0.424500 0.271955
O O7 0.000000 0.372550 0.356148
O O8 0.500000 0.658315 0.246060
O O9 0.631906 0.666286 0.146406
O O10 0.173760 0.827800 0.500000
O O11 0.251416 0.924326 0.592658
O O12 0.110966 0.500000 0.145012
O O13 0.000000 0.500000 0.257533
O O14 0.360035 0.500000 0.500000
O O15 0.500000 0.596346 0.500000
O O16 0.358805 0.000000 0.500000
#
# Coordination Sequence:
#
# PCOD8287790 Si02
#       7
#    16  16  16  16   8   8   8
#     4  11  20  39  63  84 115 158 202 239 298 354
#     4   9  19  33  56  87 115 145 191 243 291 346
#     4  10  20  35  58  86 115 154 202 250 291 353
#     4  10  20  37  58  85 114 153 196 238 300 356
#     4  10  18  31  50  78 114 145 179 231 295 347
#     4  11  26  44  61  88 122 154 196 248 293 343
#     4  10  20  33  53  78 115 151 191 237 286 348
#
# _framework density 19.463636999999999
#
# number of rings (size 3 to 8) (size 9 to 14) (size 15 to 20)
#    0.000    1.909    0.909    4.909    1.273    0.545 
#    1.636    1.818    0.000    2.182    0.000    0.000 
#    0.000    0.000    0.000    0.000    0.000    0.000 
#
# Total GULP energy -545182.874004 kJ/mol
# GULP energy per Si atom -12390.519864 kJ/mol
# Density = 1.941934 g / cm^3
# Si number density = 19.463637 Si / 1000 Ang^3
#
#
#
# Elastic Constant Matrix: (Units=GPa)
#
#
# Indices 1 2 3 4 5 6 
#
# 1 95.7503 38.3226 40.6789 0.0000 0.0000 0.0000
# 2 38.3226 124.0876 44.8540 0.0000 0.0000 0.0000
# 3 40.6789 44.8540 114.8524 0.0000 0.0000 0.0000
# 4 0.0000 0.0000 0.0000 22.5532 0.0000 0.0000
# 5 0.0000 0.0000 0.0000 0.0000 28.0727 0.0000
# 6 0.0000 0.0000 0.0000 0.0000 0.0000 21.7010
#
#
#
# Elastic Compliance Matrix: (Units=1/GPa)
#
#
# Indices 1 2 3 4 5 6 
#
# 1 0.013052 -0.002748 -0.003550 0.000000 0.000000 0.000000
# 2 -0.002748 0.009962 -0.002917 0.000000 0.000000 0.000000
# 3 -0.003550 -0.002917 0.011103 0.000000 0.000000 0.000000
# 4 0.000000 0.000000 0.000000 0.044340 0.000000 0.000000
# 5 0.000000 0.000000 0.000000 0.000000 0.035622 0.000000
# 6 0.000000 0.000000 0.000000 0.000000 0.000000 0.046081
#
#
# Mechanical properties :
#
#
# Convention : Reuss Voigt Hill
#
# Bulk Modulus (GPa) = 63.74435 64.71127 64.22781
# Shear Modulus (GPa) = 27.20088 28.52103 27.86096
#
# Velocity S-wave (km/s) = 3.74240 3.83214 3.78754
# Velocity P-wave (km/s) = 7.17605 7.27323 7.22480
#
# Compressibility (1/GPa) = 0.01568766
#
# Stress axis : x y z
#
# Youngs Moduli (GPa) = 76.61904 100.38219 90.06299
#
# Poissons Ratio (x) = 0.27582 0.31969
# Poissons Ratio (y) = 0.21053 0.26274
# Poissons Ratio (z) = 0.27197 0.29284
#
# Static dielectric constant tensor:
#      x y z
#    x 3.534970 0.000000 0.000000 
#    y 0.000000 4.105290 0.000000 
#    z 0.000000 0.000000 3.489330 
# 
# 
# High freq. dielectric constant tensor:
#      x y z
#    x 1.745750 0.000000 0.000000 
#    y 0.000000 1.765690 0.000000 
#    z 0.000000 0.000000 1.750210 
# 
# From -- ./inp_files/44746.got.cif
#   From: 2010.06.25/outbox.cif.g09.slc.cpg/sg71_23_cif.got.tgz:44746.got - 2010.06.28 04:59:45.
