data_PCOD8287522
_publ_section_title
;
Structure prediction by ZEFSAII (Michael W. Deem and Ramdas Pophale) SiO2 
 PCOD8287522
Probable space group: I M M M
;
_chemical_formula_sum "Si O2"
_cell_formula_units_Z 104
_cell_length_a 22.953557
_cell_length_b 8.912774
_cell_length_c 27.983827
_cell_angle_alpha 90.000000
_cell_angle_beta 90.000000
_cell_angle_gamma 90.000000
_cell_volume 5724.927579
_symmetry_space_group_name_H-M "I M M M"
_symmetry_group_IT_number 71
_symmetry_cell_setting 'orthorhombic'
loop_
_space_group_symop_operation_xyz
x,y,z
-x,-y,z
x,-y,-z
-x,y,-z
-x,-y,-z
x,y,-z
-x,y,z
x,-y,z
1/2+x,1/2+y,1/2+z
1/2-x,1/2-y,1/2+z
1/2+x,1/2-y,1/2-z
1/2-x,1/2+y,1/2-z
1/2-x,1/2-y,1/2-z
1/2+x,1/2+y,1/2-z
1/2-x,1/2+y,1/2+z
1/2+x,1/2-y,1/2+z
loop_
_atom_site_type_symbol
_atom_site_label
_atom_site_fract_x
_atom_site_fract_y
_atom_site_fract_z
Si Si1 0.000000 0.821081 0.556541
Si Si2 0.437099 0.178196 0.553148
Si Si3 0.675346 0.828762 0.799811
Si Si4 0.115202 0.677420 0.399465
Si Si5 0.779915 0.172578 0.445373
Si Si6 0.686699 0.329939 0.295291
Si Si7 0.168832 0.677163 0.111246
O O1 0.944423 0.758597 0.585509
O O2 0.000000 0.771957 0.500000
O O3 0.000000 0.000000 0.559737
O O4 0.431984 0.243183 0.500000
O O5 0.500000 0.223222 0.575143
O O6 0.385398 0.250258 0.583566
O O7 0.430884 0.000000 0.551957
O O8 0.639581 0.774362 0.846782
O O9 0.659985 0.723275 0.755144
O O10 0.744573 0.812366 0.804310
O O11 0.658436 0.000000 0.788326
O O12 0.105371 0.500000 0.401843
O O13 0.163247 0.726424 0.437891
O O14 0.759297 0.186087 0.500000
O O15 0.728736 0.237872 0.411828
O O16 0.794925 0.000000 0.432589
O O17 0.667073 0.500000 0.302356
O O18 0.658207 0.224827 0.334693
O O19 0.169245 0.500000 0.107064
#
# Coordination Sequence:
#
# PCOD8287522 Si02
#       7
#     8  16  16  16  16  16  16
#     4  11  25  43  61  83 113 149 189 229 272 331
#     4   8  14  26  46  72 101 135 178 221 255 296
#     4   9  19  35  54  78 106 135 171 215 263 318
#     4  11  22  38  59  82 108 140 181 227 275 324
#     4  10  20  32  48  75 110 143 175 215 267 326
#     4  10  19  32  52  79 109 138 172 213 264 321
#     4  10  18  29  49  76 106 139 175 218 269 317
#
# _framework density 18.166169
#
# number of rings (size 3 to 8) (size 9 to 14) (size 15 to 20)
#    0.000    2.231    1.538    2.538    0.000    6.462 
#    0.000    0.000    1.692    1.846    0.000    1.077 
#    0.000    0.000    0.000    0.000    0.000    0.000 
#
# Total GULP energy -644473.416797 kJ/mol
# GULP energy per Si atom -12393.719554 kJ/mol
# Density = 1.812482 g / cm^3
# Si number density = 18.166169 Si / 1000 Ang^3
#
#
#
# Elastic Constant Matrix: (Units=GPa)
#
#
# Indices 1 2 3 4 5 6 
#
# 1 103.8111 32.9385 47.6924 0.0000 0.0000 0.0000
# 2 32.9385 41.0642 28.7572 0.0000 0.0000 0.0000
# 3 47.6924 28.7572 105.6317 0.0000 0.0000 0.0000
# 4 0.0000 0.0000 0.0000 25.7672 0.0000 0.0000
# 5 0.0000 0.0000 0.0000 0.0000 29.6372 0.0000
# 6 0.0000 0.0000 0.0000 0.0000 0.0000 15.1002
#
#
#
# Elastic Compliance Matrix: (Units=1/GPa)
#
#
# Indices 1 2 3 4 5 6 
#
# 1 0.014225 -0.008541 -0.004098 0.000000 0.000000 0.000000
# 2 -0.008541 0.035217 -0.005731 0.000000 0.000000 0.000000
# 3 -0.004098 -0.005731 0.012877 0.000000 0.000000 0.000000
# 4 0.000000 0.000000 0.000000 0.038809 0.000000 0.000000
# 5 0.000000 0.000000 0.000000 0.000000 0.033741 0.000000
# 6 0.000000 0.000000 0.000000 0.000000 0.000000 0.066224
#
#
# Mechanical properties :
#
#
# Convention : Reuss Voigt Hill
#
# Bulk Modulus (GPa) = 39.09339 52.14258 45.61798
# Shear Modulus (GPa) = 20.29554 23.50884 21.90219
#
# Velocity S-wave (km/s) = 3.34610 3.60126 3.47603
# Velocity P-wave (km/s) = 6.04112 6.78657 6.42467
#
# Compressibility (1/GPa) = 0.02557977
#
# Stress axis : x y z
#
# Youngs Moduli (GPa) = 70.29708 28.39572 77.65715
#
# Poissons Ratio (x) = 0.24253 0.31820
# Poissons Ratio (y) = 0.60041 0.44506
# Poissons Ratio (z) = 0.28804 0.16274
#
# Static dielectric constant tensor:
#      x y z
#    x 3.431210 0.000000 0.000000 
#    y 0.000000 3.161170 0.000000 
#    z 0.000000 0.000000 3.445250 
# 
# 
# High freq. dielectric constant tensor:
#      x y z
#    x 1.689940 0.000000 0.000000 
#    y 0.000000 1.685670 0.000000 
#    z 0.000000 0.000000 1.709140 
# 
# From -- ./inp_files/66795.got.cif
#   From: 2010.06.25/outbox.cif.g09.slc.cpg/sg71_34_cif.got.tgz:66795.got - 2010.06.28 04:59:45.
