data_PCOD8287992
_publ_section_title
;
Structure prediction by ZEFSAII (Michael W. Deem and Ramdas Pophale) SiO2 
 PCOD8287992
Probable space group: I M M M
;
_chemical_formula_sum "Si O2"
_cell_formula_units_Z 96
_cell_length_a 17.269127
_cell_length_b 18.005006
_cell_length_c 17.048602
_cell_angle_alpha 90.000000
_cell_angle_beta 90.000000
_cell_angle_gamma 90.000000
_cell_volume 5300.934355
_symmetry_space_group_name_H-M "I M M M"
_symmetry_group_IT_number 71
_symmetry_cell_setting 'orthorhombic'
loop_
_space_group_symop_operation_xyz
x,y,z
-x,-y,z
x,-y,-z
-x,y,-z
-x,-y,-z
x,y,-z
-x,y,z
x,-y,z
1/2+x,1/2+y,1/2+z
1/2-x,1/2-y,1/2+z
1/2+x,1/2-y,1/2-z
1/2-x,1/2+y,1/2-z
1/2-x,1/2-y,1/2-z
1/2+x,1/2+y,1/2-z
1/2-x,1/2+y,1/2+z
1/2+x,1/2-y,1/2+z
loop_
_atom_site_type_symbol
_atom_site_label
_atom_site_fract_x
_atom_site_fract_y
_atom_site_fract_z
Si Si1 0.087480 0.801195 0.689110
Si Si2 0.412146 0.154828 0.909177
Si Si3 0.590333 0.773547 0.500000
Si Si4 0.687331 0.082081 0.500000
Si Si5 0.760800 0.868285 0.344483
Si Si6 0.668535 0.279535 0.347659
Si Si7 0.725665 0.916275 0.821279
O O1 0.093962 0.737609 0.624076
O O2 0.145896 0.868022 0.665960
O O3 0.111865 0.769227 0.773885
O O4 0.000000 0.832554 0.693239
O O5 0.500000 0.125034 0.900402
O O6 0.356821 0.099892 0.861158
O O7 0.386430 0.156851 0.000000
O O8 0.500000 0.778459 0.500000
O O9 0.619415 0.858212 0.500000
O O10 0.617978 0.728575 0.575095
O O11 0.741341 0.090403 0.575690
O O12 0.650150 0.000000 0.500000
O O13 0.735560 0.782061 0.344274
O O14 0.718096 0.909838 0.273016
O O15 0.708611 0.359946 0.351369
O O16 0.750370 0.000000 0.843484
#
# Coordination Sequence:
#
# PCOD8287992 Si02
#       7
#    16  16   8   8  16  16  16
#     4  10  18  32  57  82 107 140 184 234 271 314
#     4  10  21  34  52  81 115 144 179 226 276 323
#     4  10  22  37  61  85 109 141 177 222 272 327
#     4  10  22  37  59  87 117 142 168 219 277 328
#     4  10  19  36  57  80 110 145 187 223 268 329
#     4  10  19  36  56  81 110 141 189 229 269 321
#     4  11  21  35  56  79 109 147 186 226 272 326
#
# _framework density 18.110015000000001
#
# number of rings (size 3 to 8) (size 9 to 14) (size 15 to 20)
#    0.000    1.833    3.333    2.000    2.333    0.833 
#    0.000    0.833    0.000   20.000    0.000    0.000 
#    0.000    0.000    0.000    0.000    0.000    0.000 
#
# Total GULP energy -595230.684654 kJ/mol
# GULP energy per Si atom -12400.639264 kJ/mol
# Density = 1.806880 g / cm^3
# Si number density = 18.110015 Si / 1000 Ang^3
#
#
#
# Elastic Constant Matrix: (Units=GPa)
#
#
# Indices 1 2 3 4 5 6 
#
# 1 124.9292 39.0312 62.9728 0.0000 0.0000 0.0000
# 2 39.0312 99.7964 40.5939 0.0000 0.0000 0.0000
# 3 62.9728 40.5939 144.9165 0.0000 0.0000 0.0000
# 4 0.0000 0.0000 0.0000 12.7993 0.0000 0.0000
# 5 0.0000 0.0000 0.0000 0.0000 22.8244 0.0000
# 6 0.0000 0.0000 0.0000 0.0000 0.0000 14.6646
#
#
#
# Elastic Compliance Matrix: (Units=1/GPa)
#
#
# Indices 1 2 3 4 5 6 
#
# 1 0.010824 -0.002618 -0.003970 0.000000 0.000000 0.000000
# 2 -0.002618 0.011942 -0.002207 0.000000 0.000000 0.000000
# 3 -0.003970 -0.002207 0.009244 0.000000 0.000000 0.000000
# 4 0.000000 0.000000 0.000000 0.078129 0.000000 0.000000
# 5 0.000000 0.000000 0.000000 0.000000 0.043813 0.000000
# 6 0.000000 0.000000 0.000000 0.000000 0.000000 0.068192
#
#
# Mechanical properties :
#
#
# Convention : Reuss Voigt Hill
#
# Bulk Modulus (GPa) = 69.35541 72.75976 71.05759
# Shear Modulus (GPa) = 20.44641 25.19392 22.82017
#
# Velocity S-wave (km/s) = 3.36372 3.73387 3.55362
# Velocity P-wave (km/s) = 7.31205 7.67156 7.49396
#
# Compressibility (1/GPa) = 0.01441849
#
# Stress axis : x y z
#
# Youngs Moduli (GPa) = 92.38977 83.73515 108.17833
#
# Poissons Ratio (x) = 0.21925 0.42946
# Poissons Ratio (y) = 0.24191 0.23880
# Poissons Ratio (z) = 0.36678 0.18484
#
# Static dielectric constant tensor:
#      x y z
#    x 3.365710 0.000000 0.000000 
#    y 0.000000 3.111420 0.000000 
#    z 0.000000 0.000000 3.523020 
# 
# 
# High freq. dielectric constant tensor:
#      x y z
#    x 1.697780 0.000000 0.000000 
#    y 0.000000 1.676570 0.000000 
#    z 0.000000 0.000000 1.718920 
# 
# From -- ./inp_files/46073.got.cif
#   From: 2010.06.25/outbox.cif.g09.slc.cpg/sg71_24_cif.got.tgz:46073.got - 2010.06.28 04:59:45.
