data_PCOD8287033
_publ_section_title
;
Structure prediction by ZEFSAII (Michael W. Deem and Ramdas Pophale) SiO2 
 PCOD8287033
Probable space group: I M M M
;
_chemical_formula_sum "Si O2"
_cell_formula_units_Z 104
_cell_length_a 18.534483
_cell_length_b 26.015460
_cell_length_c 13.433070
_cell_angle_alpha 90.000000
_cell_angle_beta 90.000000
_cell_angle_gamma 90.000000
_cell_volume 6477.199350
_symmetry_space_group_name_H-M "I M M M"
_symmetry_group_IT_number 71
_symmetry_cell_setting 'orthorhombic'
loop_
_space_group_symop_operation_xyz
x,y,z
-x,-y,z
x,-y,-z
-x,y,-z
-x,-y,-z
x,y,-z
-x,y,z
x,-y,z
1/2+x,1/2+y,1/2+z
1/2-x,1/2-y,1/2+z
1/2+x,1/2-y,1/2-z
1/2-x,1/2+y,1/2-z
1/2-x,1/2-y,1/2-z
1/2+x,1/2+y,1/2-z
1/2-x,1/2+y,1/2+z
1/2+x,1/2-y,1/2+z
loop_
_atom_site_type_symbol
_atom_site_label
_atom_site_fract_x
_atom_site_fract_y
_atom_site_fract_z
Si Si1 0.637492 0.899197 0.795706
Si Si2 0.917328 0.757248 0.232549
Si Si3 0.835576 0.164618 0.114918
Si Si4 0.000000 0.441414 0.392149
Si Si5 0.225459 0.942516 0.114704
Si Si6 0.583359 0.844643 0.386869
Si Si7 0.322093 0.796213 0.886033
O O1 0.567984 0.930480 0.824348
O O2 0.706706 0.935086 0.812514
O O3 0.632594 0.882264 0.680032
O O4 0.637088 0.849545 0.866879
O O5 0.898925 0.811983 0.182382
O O6 0.906729 0.713763 0.149008
O O7 0.861191 0.748216 0.322610
O O8 0.000000 0.758312 0.271669
O O9 0.831315 0.103163 0.137557
O O10 0.761504 0.194456 0.143123
O O11 0.854685 0.173382 0.000000
O O12 0.000000 0.500000 0.418940
O O13 0.000000 0.412166 0.500000
O O14 0.192777 0.000000 0.132768
O O15 0.251713 0.936868 0.000000
O O16 0.610910 0.848767 0.500000
O O17 0.500000 0.861152 0.377493
O O18 0.329458 0.779711 0.000000
#
# Coordination Sequence:
#
# PCOD8287033 Si02
#       7
#    16  16  16   8  16  16  16
#     4  10  17  28  42  63  85 115 148 184 227 266
#     4  10  19  29  45  70  94 122 155 188 227 269
#     4   9  17  30  47  66  91 122 153 186 222 267
#     4  11  20  26  37  59  85 111 142 184 228 267
#     4   9  17  30  48  67  86 111 144 182 228 279
#     4   9  17  29  42  58  85 119 153 182 213 260
#     4   9  18  30  45  66  94 125 152 182 225 276
#
# _framework density 16.056322000000002
#
# number of rings (size 3 to 8) (size 9 to 14) (size 15 to 20)
#    0.000    2.538    0.769    3.692    1.077    2.462 
#    0.000    0.000    0.000    2.769    0.000    2.154 
#    0.000    0.000    0.000    1.385    0.000    0.000 
#
# Total GULP energy -644558.277426 kJ/mol
# GULP energy per Si atom -12395.351489 kJ/mol
# Density = 1.601978 g / cm^3
# Si number density = 16.056322 Si / 1000 Ang^3
#
#
#
# Elastic Constant Matrix: (Units=GPa)
#
#
# Indices 1 2 3 4 5 6 
#
# 1 31.0282 21.1177 20.0469 0.0000 0.0000 0.0000
# 2 21.1177 80.7737 31.4090 0.0000 0.0000 0.0000
# 3 20.0469 31.4090 77.8027 0.0000 0.0000 0.0000
# 4 0.0000 0.0000 0.0000 20.4217 0.0000 0.0000
# 5 0.0000 0.0000 0.0000 0.0000 20.7282 0.0000
# 6 0.0000 0.0000 0.0000 0.0000 0.0000 17.5036
#
#
#
# Elastic Compliance Matrix: (Units=1/GPa)
#
#
# Indices 1 2 3 4 5 6 
#
# 1 0.042787 -0.008184 -0.007721 0.000000 0.000000 0.000000
# 2 -0.008184 0.016251 -0.004452 0.000000 0.000000 0.000000
# 3 -0.007721 -0.004452 0.016640 0.000000 0.000000 0.000000
# 4 0.000000 0.000000 0.000000 0.048968 0.000000 0.000000
# 5 0.000000 0.000000 0.000000 0.000000 0.048243 0.000000
# 6 0.000000 0.000000 0.000000 0.000000 0.000000 0.057131
#
#
# Mechanical properties :
#
#
# Convention : Reuss Voigt Hill
#
# Bulk Modulus (GPa) = 28.60056 37.19465 32.89761
# Shear Modulus (GPa) = 17.70614 19.53277 18.61945
#
# Velocity S-wave (km/s) = 3.32437 3.49164 3.40903
# Velocity P-wave (km/s) = 5.70847 6.28258 6.00239
#
# Compressibility (1/GPa) = 0.03496434
#
# Stress axis : x y z
#
# Youngs Moduli (GPa) = 23.37155 61.53453 60.09773
#
# Poissons Ratio (x) = 0.50361 0.46400
# Poissons Ratio (y) = 0.19128 0.26754
# Poissons Ratio (z) = 0.18044 0.27394
#
# Static dielectric constant tensor:
#      x y z
#    x 2.856000 0.000000 0.000000 
#    y 0.000000 2.976810 0.000000 
#    z 0.000000 0.000000 2.983760 
# 
# 
# High freq. dielectric constant tensor:
#      x y z
#    x 1.593120 0.000000 0.000000 
#    y 0.000000 1.602420 0.000000 
#    z 0.000000 0.000000 1.605650 
# 
# From -- ./inp_files/24557.got.cif
#   From: 2010.06.25/outbox.cif.g09.slc.cpg/sg71_13_cif.got.tgz:24557.got - 2010.06.28 04:59:45.
