data_PCOD8287222
_publ_section_title
;
Structure prediction by ZEFSAII (Michael W. Deem and Ramdas Pophale) SiO2 
 PCOD8287222
Probable space group: I M M M
;
_chemical_formula_sum "Si O2"
_cell_formula_units_Z 96
_cell_length_a 22.430134
_cell_length_b 27.547538
_cell_length_c 9.365723
_cell_angle_alpha 90.000000
_cell_angle_beta 90.000000
_cell_angle_gamma 90.000000
_cell_volume 5787.033120
_symmetry_space_group_name_H-M "I M M M"
_symmetry_group_IT_number 71
_symmetry_cell_setting 'orthorhombic'
loop_
_space_group_symop_operation_xyz
x,y,z
-x,-y,z
x,-y,-z
-x,y,-z
-x,-y,-z
x,y,-z
-x,y,z
x,-y,z
1/2+x,1/2+y,1/2+z
1/2-x,1/2-y,1/2+z
1/2+x,1/2-y,1/2-z
1/2-x,1/2+y,1/2-z
1/2-x,1/2-y,1/2-z
1/2+x,1/2+y,1/2-z
1/2-x,1/2+y,1/2+z
1/2+x,1/2-y,1/2+z
loop_
_atom_site_type_symbol
_atom_site_label
_atom_site_fract_x
_atom_site_fract_y
_atom_site_fract_z
Si Si1 0.200416 0.863241 0.160962
Si Si2 0.500000 0.765164 0.330758
Si Si3 0.000000 0.374137 0.833719
Si Si4 0.756528 0.445498 0.831960
Si Si5 0.127850 0.389575 0.833083
Si Si6 0.318663 0.804717 0.834677
Si Si7 0.875089 0.223468 0.833148
O O1 0.207923 0.909713 0.262810
O O2 0.251971 0.823785 0.186413
O O3 0.138955 0.834024 0.191573
O O4 0.202392 0.883406 0.000000
O O5 0.500000 0.766330 0.500000
O O6 0.500000 0.819791 0.265032
O O7 0.441582 0.735714 0.278080
O O8 0.059560 0.405281 0.795186
O O9 0.000000 0.363814 0.000000
O O10 0.745959 0.500000 0.775530
O O11 0.824263 0.430536 0.788532
O O12 0.747610 0.442598 0.000000
O O13 0.136392 0.341079 0.743474
O O14 0.135123 0.377080 0.000000
O O15 0.326460 0.753117 0.758237
O O16 0.336130 0.800471 0.000000
O O17 0.866474 0.236477 0.000000
#
# Coordination Sequence:
#
# PCOD8287222 Si02
#       7
#    16   8   8  16  16  16  16
#     4   9  19  31  45  66  89 115 146 181 221 264
#     4   9  16  26  44  65  87 119 155 182 206 245
#     4   9  14  24  43  64  83 117 161 184 207 247
#     4   9  18  32  49  68  88 111 142 184 233 273
#     4   9  16  28  45  62  85 118 154 185 216 258
#     4  10  18  27  40  63  92 118 148 181 217 255
#     4  10  18  30  45  63  89 120 152 179 211 258
#
# _framework density 16.588811
#
# number of rings (size 3 to 8) (size 9 to 14) (size 15 to 20)
#    0.000    2.667    1.667    1.000    0.000    1.667 
#    0.000    2.083    0.000    2.500    0.000    0.583 
#    0.000   10.000    0.000    0.000    0.000    0.000 
#
# Total GULP energy -594830.448714 kJ/mol
# GULP energy per Si atom -12392.301015 kJ/mol
# Density = 1.655105 g / cm^3
# Si number density = 16.588811 Si / 1000 Ang^3
#
#
#
# Elastic Constant Matrix: (Units=GPa)
#
#
# Indices 1 2 3 4 5 6 
#
# 1 44.0047 30.4941 11.4538 0.0000 0.0000 0.0000
# 2 30.4941 100.5023 33.8210 0.0000 0.0000 0.0000
# 3 11.4538 33.8210 44.5017 0.0000 0.0000 0.0000
# 4 0.0000 0.0000 0.0000 23.1179 0.0000 0.0000
# 5 0.0000 0.0000 0.0000 0.0000 14.1267 0.0000
# 6 0.0000 0.0000 0.0000 0.0000 0.0000 16.2336
#
#
#
# Elastic Compliance Matrix: (Units=1/GPa)
#
#
# Indices 1 2 3 4 5 6 
#
# 1 0.028811 -0.008393 -0.001037 0.000000 0.000000 0.000000
# 2 -0.008393 0.015814 -0.009858 0.000000 0.000000 0.000000
# 3 -0.001037 -0.009858 0.030230 0.000000 0.000000 0.000000
# 4 0.000000 0.000000 0.000000 0.043257 0.000000 0.000000
# 5 0.000000 0.000000 0.000000 0.000000 0.070788 0.000000
# 6 0.000000 0.000000 0.000000 0.000000 0.000000 0.061601
#
#
# Mechanical properties :
#
#
# Convention : Reuss Voigt Hill
#
# Bulk Modulus (GPa) = 27.56422 37.83850 32.70136
# Shear Modulus (GPa) = 16.60195 18.24495 17.42345
#
# Velocity S-wave (km/s) = 3.16696 3.31997 3.24437
# Velocity P-wave (km/s) = 5.47952 6.12825 5.81294
#
# Compressibility (1/GPa) = 0.03627891
#
# Stress axis : x y z
#
# Youngs Moduli (GPa) = 34.70941 63.23485 33.07941
#
# Poissons Ratio (x) = 0.53071 0.03430
# Poissons Ratio (y) = 0.29131 0.32611
# Poissons Ratio (z) = 0.03599 0.62340
#
# Static dielectric constant tensor:
#      x y z
#    x 3.275350 0.000000 0.000000 
#    y 0.000000 2.970740 0.000000 
#    z 0.000000 0.000000 2.986650 
# 
# 
# High freq. dielectric constant tensor:
#      x y z
#    x 1.626840 0.000000 0.000000 
#    y 0.000000 1.612620 0.000000 
#    z 0.000000 0.000000 1.621310 
# 
# From -- ./inp_files/13207.got.cif
#   From: 2010.06.25/outbox.cif.g09.slc.cpg/sg71_7_cif.got.tgz:13207.got - 2010.06.28 04:59:45.
