data_PCOD8287623
_publ_section_title
;
Structure prediction by ZEFSAII (Michael W. Deem and Ramdas Pophale) SiO2 
 PCOD8287623
Probable space group: I M M M
;
_chemical_formula_sum "Si O2"
_cell_formula_units_Z 96
_cell_length_a 25.831665
_cell_length_b 23.745861
_cell_length_c 8.646135
_cell_angle_alpha 90.000000
_cell_angle_beta 90.000000
_cell_angle_gamma 90.000000
_cell_volume 5303.497072
_symmetry_space_group_name_H-M "I M M M"
_symmetry_group_IT_number 71
_symmetry_cell_setting 'orthorhombic'
loop_
_space_group_symop_operation_xyz
x,y,z
-x,-y,z
x,-y,-z
-x,y,-z
-x,-y,-z
x,y,-z
-x,y,z
x,-y,z
1/2+x,1/2+y,1/2+z
1/2-x,1/2-y,1/2+z
1/2+x,1/2-y,1/2-z
1/2-x,1/2+y,1/2-z
1/2-x,1/2-y,1/2-z
1/2+x,1/2+y,1/2-z
1/2-x,1/2+y,1/2+z
1/2+x,1/2-y,1/2+z
loop_
_atom_site_type_symbol
_atom_site_label
_atom_site_fract_x
_atom_site_fract_y
_atom_site_fract_z
Si Si1 0.751381 0.562975 0.315903
Si Si2 0.192539 0.749050 0.817150
Si Si3 0.652293 0.863706 0.816109
Si Si4 0.442363 0.063045 0.183761
Si Si5 0.653641 0.368572 0.683922
Si Si6 0.942725 0.063341 0.815946
O O1 0.750680 0.561361 0.500000
O O2 0.753825 0.500000 0.248015
O O3 0.801123 0.597071 0.257414
O O4 0.700332 0.593369 0.250707
O O5 0.250000 0.750000 0.750000
O O6 0.158340 0.697368 0.758205
O O7 0.161871 0.804623 0.760877
O O8 0.197769 0.747355 0.000000
O O9 0.599168 0.891833 0.753699
O O10 0.652686 0.857349 0.000000
O O11 0.500000 0.080867 0.239272
O O12 0.429292 0.000000 0.244949
O O13 0.439798 0.061919 0.000000
O O14 0.653556 0.371894 0.500000
O O15 0.599680 0.393091 0.751386
O O16 0.000000 0.081122 0.756861
O O17 0.929602 0.000000 0.759197
O O18 0.941614 0.064451 0.000000
#
# Coordination Sequence:
#
# PCOD8287623 Si02
#       6
#    16  16  16  16  16  16
#     4   9  15  23  40  66  90 112 146 194 238 275
#     4  11  21  34  49  67  93 129 165 197 237 286
#     4  10  18  30  48  72  97 124 160 199 240 286
#     4   8  14  26  47  75 102 126 158 204 250 288
#     4   9  16  26  40  61  88 117 153 189 225 271
#     4   8  13  22  38  61  89 118 144 177 227 277
#
# _framework density 18.101265000000001
#
# number of rings (size 3 to 8) (size 9 to 14) (size 15 to 20)
#    0.000    2.833    1.667    2.500    0.000    4.000 
#    0.000    0.833    0.000    3.500    0.000    1.167 
#    0.000    0.000    0.000    7.333    0.000    6.667 
#
# Total GULP energy -594955.047843 kJ/mol
# GULP energy per Si atom -12394.896830 kJ/mol
# Density = 1.806007 g / cm^3
# Si number density = 18.101265 Si / 1000 Ang^3
#
#
#
# Elastic Constant Matrix: (Units=GPa)
#
#
# Indices 1 2 3 4 5 6 
#
# 1 178.4151 109.5895 15.1492 0.0000 0.0000 0.0000
# 2 109.5895 179.9562 17.9838 0.0000 0.0000 0.0000
# 3 15.1492 17.9838 16.2041 0.0000 0.0000 0.0000
# 4 0.0000 0.0000 0.0000 21.8193 0.0000 0.0000
# 5 0.0000 0.0000 0.0000 0.0000 7.7210 0.0000
# 6 0.0000 0.0000 0.0000 0.0000 0.0000 34.5140
#
#
#
# Elastic Compliance Matrix: (Units=1/GPa)
#
#
# Indices 1 2 3 4 5 6 
#
# 1 0.009053 -0.005250 -0.002638 0.000000 0.000000 0.000000
# 2 -0.005250 0.009294 -0.005407 0.000000 0.000000 0.000000
# 3 -0.002638 -0.005407 0.070180 0.000000 0.000000 0.000000
# 4 0.000000 0.000000 0.000000 0.045831 0.000000 0.000000
# 5 0.000000 0.000000 0.000000 0.000000 0.129516 0.000000
# 6 0.000000 0.000000 0.000000 0.000000 0.000000 0.028974
#
#
# Mechanical properties :
#
#
# Convention : Reuss Voigt Hill
#
# Bulk Modulus (GPa) = 16.14511 73.33561 44.74036
# Shear Modulus (GPa) = 14.70228 28.26773 21.48500
#
# Velocity S-wave (km/s) = 2.85305 3.95605 3.44893
# Velocity P-wave (km/s) = 4.44880 7.84023 6.37421
#
# Compressibility (1/GPa) = 0.06193825
#
# Stress axis : x y z
#
# Youngs Moduli (GPa) = 110.45454 107.59319 14.24916
#
# Poissons Ratio (x) = 0.56484 0.03759
# Poissons Ratio (y) = 0.57986 0.07705
# Poissons Ratio (z) = 0.29135 0.58176
#
# Static dielectric constant tensor:
#      x y z
#    x 3.701770 0.000000 0.000000 
#    y 0.000000 3.591690 0.000000 
#    z 0.000000 0.000000 2.698430 
# 
# 
# High freq. dielectric constant tensor:
#      x y z
#    x 1.709160 0.000000 0.000000 
#    y 0.000000 1.706530 0.000000 
#    z 0.000000 0.000000 1.633610 
# 
# From -- ./inp_files/12856.got.cif
#   From: 2010.06.25/outbox.cif.g09.slc.cpg/sg71_7_cif.got.tgz:12856.got - 2010.06.28 04:59:45.
