data_PCOD8287770
_publ_section_title
;
Structure prediction by ZEFSAII (Michael W. Deem and Ramdas Pophale) SiO2 
 PCOD8287770
Probable space group: I M M M
;
_chemical_formula_sum "Si O2"
_cell_formula_units_Z 96
_cell_length_a 26.043739
_cell_length_b 26.687700
_cell_length_c 7.607446
_cell_angle_alpha 90.000000
_cell_angle_beta 90.000000
_cell_angle_gamma 90.000000
_cell_volume 5287.536273
_symmetry_space_group_name_H-M "I M M M"
_symmetry_group_IT_number 71
_symmetry_cell_setting 'orthorhombic'
loop_
_space_group_symop_operation_xyz
x,y,z
-x,-y,z
x,-y,-z
-x,y,-z
-x,-y,-z
x,y,-z
-x,y,z
x,-y,z
1/2+x,1/2+y,1/2+z
1/2-x,1/2-y,1/2+z
1/2+x,1/2-y,1/2-z
1/2-x,1/2+y,1/2-z
1/2-x,1/2-y,1/2-z
1/2+x,1/2+y,1/2-z
1/2-x,1/2+y,1/2+z
1/2+x,1/2-y,1/2+z
loop_
_atom_site_type_symbol
_atom_site_label
_atom_site_fract_x
_atom_site_fract_y
_atom_site_fract_z
Si Si1 0.000000 0.556700 0.790606
Si Si2 0.401451 0.884526 0.292638
Si Si3 0.289000 0.098917 0.804736
Si Si4 0.441570 0.299569 0.000000
Si Si5 0.058976 0.721432 0.801936
Si Si6 0.774787 0.056038 0.500000
Si Si7 0.728223 0.303762 0.298349
Si Si8 0.838789 0.846748 0.500000
O O1 0.050692 0.584085 0.716525
O O2 0.000000 0.500000 0.721328
O O3 0.000000 0.559275 0.000000
O O4 0.397766 0.890898 0.500000
O O5 0.350084 0.906223 0.207380
O O6 0.407435 0.826126 0.242408
O O7 0.260790 0.062153 0.670702
O O8 0.273561 0.156344 0.763811
O O9 0.271349 0.083267 0.000000
O O10 0.430423 0.267105 0.172790
O O11 0.500000 0.320416 0.000000
O O12 0.400966 0.345196 0.000000
O O13 0.000000 0.703964 0.793129
O O14 0.073273 0.738496 0.000000
O O15 0.821790 0.095257 0.500000
O O16 0.797898 0.000000 0.500000
O O17 0.709115 0.304661 0.500000
O O18 0.750000 0.250000 0.250000
O O19 0.680803 0.317799 0.173232
#
# Coordination Sequence:
#
# PCOD8287770 Si02
#       8
#     8  16  16   8  16   8  16   8
#     4   9  18  32  49  67  91 130 181 241 286 310
#     4  10  18  31  49  73 101 139 187 232 271 321
#     4  10  22  36  53  82 109 137 181 228 276 330
#     4  10  22  36  54  85 114 149 183 214 270 332
#     4   9  18  32  49  73 107 148 189 221 263 316
#     4  10  22  44  64  78 104 142 182 228 285 341
#     4  10  20  33  52  80 116 149 180 219 273 326
#     4  10  22  38  56  85 115 142 186 227 274 335
#
# _framework density 18.155904
#
# number of rings (size 3 to 8) (size 9 to 14) (size 15 to 20)
#    0.000    2.250    2.500    0.000    3.500    1.667 
#    0.000    0.417    0.000    0.750    0.000    0.000 
#    0.000    0.000    0.000   12.500    0.000    0.000 
#
# Total GULP energy -595204.352018 kJ/mol
# GULP energy per Si atom -12400.090667 kJ/mol
# Density = 1.811458 g / cm^3
# Si number density = 18.155904 Si / 1000 Ang^3
#
#
#
# Elastic Constant Matrix: (Units=GPa)
#
#
# Indices 1 2 3 4 5 6 
#
# 1 114.6993 51.7535 34.7341 0.0000 0.0000 0.0000
# 2 51.7535 97.8798 38.7442 0.0000 0.0000 0.0000
# 3 34.7341 38.7442 97.6795 0.0000 0.0000 0.0000
# 4 0.0000 0.0000 0.0000 -15.6558 0.0000 0.0000
# 5 0.0000 0.0000 0.0000 0.0000 15.7373 0.0000
# 6 0.0000 0.0000 0.0000 0.0000 0.0000 17.9397
#
#
#
# Elastic Compliance Matrix: (Units=1/GPa)
#
#
# Indices 1 2 3 4 5 6 
#
# 1 0.011783 -0.005423 -0.002039 0.000000 0.000000 0.000000
# 2 -0.005423 0.014615 -0.003869 0.000000 0.000000 0.000000
# 3 -0.002039 -0.003869 0.012497 0.000000 0.000000 0.000000
# 4 0.000000 0.000000 0.000000 -0.063874 0.000000 0.000000
# 5 0.000000 0.000000 0.000000 0.000000 0.063543 0.000000
# 6 0.000000 0.000000 0.000000 0.000000 0.000000 0.055742
#
#
# Mechanical properties :
#
#
# Convention : Reuss Voigt Hill
#
# Bulk Modulus (GPa) = 61.59909 62.30245 61.95077
# Shear Modulus (GPa) = 40.85658 15.93937 28.39797
#
# Velocity S-wave (km/s) = 4.74890 2.96618 3.95918
# Velocity P-wave (km/s) = 8.00443 6.79122 7.42266
#
# Compressibility (1/GPa) = 0.01623401
#
# Stress axis : x y z
#
# Youngs Moduli (GPa) = 84.86948 68.42097 80.01865
#
# Poissons Ratio (x) = 0.37105 0.16315
# Poissons Ratio (y) = 0.46025 0.30957
# Poissons Ratio (z) = 0.17304 0.26470
#
# Static dielectric constant tensor:
#      x y z
#    x 3.279680 0.000000 0.000000 
#    y 0.000000 3.113510 0.000000 
#    z 0.000000 0.000000 3.173250 
# 
# 
# High freq. dielectric constant tensor:
#      x y z
#    x 1.686350 0.000000 0.000000 
#    y 0.000000 1.672740 0.000000 
#    z 0.000000 0.000000 1.715620 
# 
# From -- ./inp_files/15232.got.cif
#   From: 2010.06.25/outbox.cif.g09.slc.cpg/sg71_8_cif.got.tgz:15232.got - 2010.06.28 04:59:45.
