data_PCOD8287035
_publ_section_title
;
Structure prediction by ZEFSAII (Michael W. Deem and Ramdas Pophale) SiO2 
 PCOD8287035
Probable space group: I M M M
;
_chemical_formula_sum "Si O2"
_cell_formula_units_Z 96
_cell_length_a 34.123382
_cell_length_b 13.121434
_cell_length_c 14.586681
_cell_angle_alpha 90.000000
_cell_angle_beta 90.000000
_cell_angle_gamma 90.000000
_cell_volume 6531.152938
_symmetry_space_group_name_H-M "I M M M"
_symmetry_group_IT_number 71
_symmetry_cell_setting 'orthorhombic'
loop_
_space_group_symop_operation_xyz
x,y,z
-x,-y,z
x,-y,-z
-x,y,-z
-x,-y,-z
x,y,-z
-x,y,z
x,-y,z
1/2+x,1/2+y,1/2+z
1/2-x,1/2-y,1/2+z
1/2+x,1/2-y,1/2-z
1/2-x,1/2+y,1/2-z
1/2-x,1/2-y,1/2-z
1/2+x,1/2+y,1/2-z
1/2-x,1/2+y,1/2+z
1/2+x,1/2-y,1/2+z
loop_
_atom_site_type_symbol
_atom_site_label
_atom_site_fract_x
_atom_site_fract_y
_atom_site_fract_z
Si Si1 0.360783 0.620846 0.000000
Si Si2 0.691701 0.690939 0.302656
Si Si3 0.330633 0.378469 0.500000
Si Si4 0.225997 0.120324 0.500000
Si Si5 0.579913 0.378817 0.500000
Si Si6 0.384142 0.620842 0.197131
Si Si7 0.043428 0.121133 0.186848
Si Si8 0.761992 0.384377 0.189741
O O1 0.383112 0.657450 0.091547
O O2 0.358261 0.500000 0.000000
O O3 0.317373 0.669155 0.000000
O O4 0.690333 0.666228 0.410320
O O5 0.650036 0.672062 0.255909
O O6 0.725212 0.619897 0.258592
O O7 0.702821 0.809011 0.282396
O O8 0.327740 0.500000 0.500000
O O9 0.375499 0.340645 0.500000
O O10 0.248590 0.155788 0.409818
O O11 0.221345 0.000000 0.500000
O O12 0.579297 0.500000 0.500000
O O13 0.557673 0.335510 0.410965
O O14 0.378485 0.500000 0.207196
O O15 0.426194 0.657079 0.235205
O O16 0.000000 0.164059 0.209300
O O17 0.042339 0.000000 0.182514
O O18 0.777915 0.500000 0.187419
#
# Coordination Sequence:
#
# PCOD8287035 Si02
#       8
#     8  16   8   8   8  16  16  16
#     4   9  16  25  42  59  75 104 143 178 204 236
#     4  11  20  29  45  62  83 115 143 175 219 257
#     4  11  19  28  42  65  90 112 141 181 214 249
#     4   9  15  27  45  57  75 106 140 176 205 231
#     4   9  15  23  38  57  83 115 140 166 199 244
#     4  10  17  28  43  61  82 108 142 176 208 250
#     4   9  16  25  38  57  83 114 142 168 203 247
#     4  10  20  32  44  62  84 109 145 185 214 248
#
# _framework density 14.698783000000001
#
# number of rings (size 3 to 8) (size 9 to 14) (size 15 to 20)
#    0.000    2.167    3.333    2.250    0.000    1.000 
#    0.000    0.417    0.000    2.500    0.000    0.000 
#    0.000    0.667    0.000    1.500    0.000    1.833 
#
# Total GULP energy -595040.787259 kJ/mol
# GULP energy per Si atom -12396.683068 kJ/mol
# Density = 1.466533 g / cm^3
# Si number density = 14.698783 Si / 1000 Ang^3
#
#
#
# Elastic Constant Matrix: (Units=GPa)
#
#
# Indices 1 2 3 4 5 6 
#
# 1 98.0248 26.5757 44.5742 0.0000 0.0000 0.0000
# 2 26.5757 41.8383 17.1296 0.0000 0.0000 0.0000
# 3 44.5742 17.1296 113.9736 0.0000 0.0000 0.0000
# 4 0.0000 0.0000 0.0000 10.1271 0.0000 0.0000
# 5 0.0000 0.0000 0.0000 0.0000 16.9423 0.0000
# 6 0.0000 0.0000 0.0000 0.0000 0.0000 12.2560
#
#
#
# Elastic Compliance Matrix: (Units=1/GPa)
#
#
# Indices 1 2 3 4 5 6 
#
# 1 0.014178 -0.007177 -0.004466 0.000000 0.000000 0.000000
# 2 -0.007177 0.029102 -0.001567 0.000000 0.000000 0.000000
# 3 -0.004466 -0.001567 0.010756 0.000000 0.000000 0.000000
# 4 0.000000 0.000000 0.000000 0.098745 0.000000 0.000000
# 5 0.000000 0.000000 0.000000 0.000000 0.059024 0.000000
# 6 0.000000 0.000000 0.000000 0.000000 0.000000 0.081593
#
#
# Mechanical properties :
#
#
# Convention : Reuss Voigt Hill
#
# Bulk Modulus (GPa) = 36.21161 47.82173 42.01667
# Shear Modulus (GPa) = 15.19642 18.90222 17.04932
#
# Velocity S-wave (km/s) = 3.21885 3.58994 3.40945
# Velocity P-wave (km/s) = 6.20515 7.05611 6.64427
#
# Compressibility (1/GPa) = 0.02761545
#
# Stress axis : x y z
#
# Youngs Moduli (GPa) = 70.53020 34.36175 92.96975
#
# Poissons Ratio (x) = 0.24663 0.41523
# Poissons Ratio (y) = 0.50623 0.14567
# Poissons Ratio (z) = 0.31501 0.05384
#
# Static dielectric constant tensor:
#      x y z
#    x 2.926700 0.000000 0.000000 
#    y 0.000000 2.386360 0.000000 
#    z 0.000000 0.000000 3.174990 
# 
# 
# High freq. dielectric constant tensor:
#      x y z
#    x 1.556910 0.000000 0.000000 
#    y 0.000000 1.499000 0.000000 
#    z 0.000000 0.000000 1.580240 
# 
# From -- ./inp_files/41051.got.cif
#   From: 2010.06.25/outbox.cif.g09.slc.cpg/sg71_21_cif.got.tgz:41051.got - 2010.06.28 04:59:45.
