data_PCOD8287468
_publ_section_title
;
Structure prediction by ZEFSAII (Michael W. Deem and Ramdas Pophale) SiO2 
 PCOD8287468
Probable space group: I M M M
;
_chemical_formula_sum "Si O2"
_cell_formula_units_Z 96
_cell_length_a 17.486956
_cell_length_b 11.767394
_cell_length_c 27.616593
_cell_angle_alpha 90.000000
_cell_angle_beta 90.000000
_cell_angle_gamma 90.000000
_cell_volume 5682.829310
_symmetry_space_group_name_H-M "I M M M"
_symmetry_group_IT_number 71
_symmetry_cell_setting 'orthorhombic'
loop_
_space_group_symop_operation_xyz
x,y,z
-x,-y,z
x,-y,-z
-x,y,-z
-x,-y,-z
x,y,-z
-x,y,z
x,-y,z
1/2+x,1/2+y,1/2+z
1/2-x,1/2-y,1/2+z
1/2+x,1/2-y,1/2-z
1/2-x,1/2+y,1/2-z
1/2-x,1/2-y,1/2-z
1/2+x,1/2+y,1/2-z
1/2-x,1/2+y,1/2+z
1/2+x,1/2-y,1/2+z
loop_
_atom_site_type_symbol
_atom_site_label
_atom_site_fract_x
_atom_site_fract_y
_atom_site_fract_z
Si Si1 0.775138 0.632653 0.946309
Si Si2 0.590011 0.500000 0.620449
Si Si3 0.090471 0.000000 0.773813
Si Si4 0.909871 0.226899 0.721393
Si Si5 0.803639 0.869543 0.649548
Si Si6 0.587283 0.746858 0.402746
Si Si7 0.861649 0.630026 0.191078
O O1 0.788665 0.500000 0.939448
O O2 0.715601 0.673069 0.905184
O O3 0.858575 0.686479 0.939302
O O4 0.743856 0.662630 0.000000
O O5 0.500000 0.500000 0.628798
O O6 0.628936 0.500000 0.673363
O O7 0.613694 0.385090 0.592913
O O8 0.118822 0.888462 0.746598
O O9 0.000000 0.000000 0.776679
O O10 0.866891 0.219573 0.669510
O O11 0.882704 0.331700 0.754448
O O12 0.000000 0.234098 0.712164
O O13 0.728660 0.860050 0.682884
O O14 0.834080 0.000000 0.648659
O O15 0.500000 0.761638 0.419926
O O16 0.593705 0.791258 0.347433
O O17 0.888750 0.500000 0.184424
#
# Coordination Sequence:
#
# PCOD8287468 Si02
#       7
#    16   8   8  16  16  16  16
#     4   9  19  35  52  68  88 119 155 194 245 291
#     4   9  16  28  43  66  97 127 156 185 225 268
#     4   9  16  26  42  67  93 125 157 182 218 263
#     4  11  19  29  48  71  97 126 160 196 229 272
#     4   9  18  32  49  68  93 123 158 196 232 279
#     4  10  18  29  47  70  96 126 160 195 228 270
#     4  10  20  31  44  68 102 137 162 184 224 276
#
# _framework density 16.892994000000002
#
# number of rings (size 3 to 8) (size 9 to 14) (size 15 to 20)
#    0.000    2.333    2.500    2.500    0.000    2.667 
#    0.000    1.250    0.000    2.000    0.000    2.333 
#    0.000    0.000    0.000    1.500    0.000    0.000 
#
# Total GULP energy -595007.209881 kJ/mol
# GULP energy per Si atom -12395.983539 kJ/mol
# Density = 1.685455 g / cm^3
# Si number density = 16.892994 Si / 1000 Ang^3
#
#
#
# Elastic Constant Matrix: (Units=GPa)
#
#
# Indices 1 2 3 4 5 6 
#
# 1 59.4771 21.7603 42.2781 0.0000 0.0000 0.0000
# 2 21.7603 65.2763 27.0984 0.0000 0.0000 0.0000
# 3 42.2781 27.0984 101.1389 0.0000 0.0000 0.0000
# 4 0.0000 0.0000 0.0000 20.2406 0.0000 0.0000
# 5 0.0000 0.0000 0.0000 0.0000 16.1637 0.0000
# 6 0.0000 0.0000 0.0000 0.0000 0.0000 17.4979
#
#
#
# Elastic Compliance Matrix: (Units=1/GPa)
#
#
# Indices 1 2 3 4 5 6 
#
# 1 0.025045 -0.004504 -0.009263 0.000000 0.000000 0.000000
# 2 -0.004504 0.018047 -0.002953 0.000000 0.000000 0.000000
# 3 -0.009263 -0.002953 0.014550 0.000000 0.000000 0.000000
# 4 0.000000 0.000000 0.000000 0.049406 0.000000 0.000000
# 5 0.000000 0.000000 0.000000 0.000000 0.061867 0.000000
# 6 0.000000 0.000000 0.000000 0.000000 0.000000 0.057150
#
#
# Mechanical properties :
#
#
# Convention : Reuss Voigt Hill
#
# Bulk Modulus (GPa) = 41.31522 45.35175 43.33349
# Shear Modulus (GPa) = 18.68668 19.76416 19.22542
#
# Velocity S-wave (km/s) = 3.32954 3.42418 3.37719
# Velocity P-wave (km/s) = 6.26827 6.52213 6.39646
#
# Compressibility (1/GPa) = 0.02420416
#
# Stress axis : x y z
#
# Youngs Moduli (GPa) = 39.92803 55.41223 68.72636
#
# Poissons Ratio (x) = 0.24956 0.63659
# Poissons Ratio (y) = 0.17982 0.20292
# Poissons Ratio (z) = 0.36984 0.16361
#
# Static dielectric constant tensor:
#      x y z
#    x 2.890520 0.000000 0.000000 
#    y 0.000000 3.293330 0.000000 
#    z 0.000000 0.000000 3.162390 
# 
# 
# High freq. dielectric constant tensor:
#      x y z
#    x 1.622910 0.000000 0.000000 
#    y 0.000000 1.646190 0.000000 
#    z 0.000000 0.000000 1.633310 
# 
# From -- ./inp_files/65961.got.cif
#   From: 2010.06.25/outbox.cif.g09.slc.cpg/sg71_33_cif.got.tgz:65961.got - 2010.06.28 04:59:45.
