data_PCOD8287144
_publ_section_title
;
Structure prediction by ZEFSAII (Michael W. Deem and Ramdas Pophale) SiO2 
 PCOD8287144
Probable space group: I M M M
;
_chemical_formula_sum "Si O2"
_cell_formula_units_Z 88
_cell_length_a 8.913154
_cell_length_b 16.158912
_cell_length_c 29.527594
_cell_angle_alpha 90.000000
_cell_angle_beta 90.000000
_cell_angle_gamma 90.000000
_cell_volume 4252.766976
_symmetry_space_group_name_H-M "I M M M"
_symmetry_group_IT_number 71
_symmetry_cell_setting 'orthorhombic'
loop_
_space_group_symop_operation_xyz
x,y,z
-x,-y,z
x,-y,-z
-x,y,-z
-x,-y,-z
x,y,-z
-x,y,z
x,-y,z
1/2+x,1/2+y,1/2+z
1/2-x,1/2-y,1/2+z
1/2+x,1/2-y,1/2-z
1/2-x,1/2+y,1/2-z
1/2-x,1/2-y,1/2-z
1/2+x,1/2+y,1/2-z
1/2-x,1/2+y,1/2+z
1/2+x,1/2-y,1/2+z
loop_
_atom_site_type_symbol
_atom_site_label
_atom_site_fract_x
_atom_site_fract_y
_atom_site_fract_z
Si Si1 0.325810 0.904249 0.591774
Si Si2 0.173567 0.764187 0.633475
Si Si3 0.166368 0.097222 0.500000
Si Si4 0.673792 0.156602 0.049926
Si Si5 0.820773 0.500000 0.602413
Si Si6 0.825535 0.000000 0.800506
Si Si7 0.676292 0.683858 0.716244
O O1 0.500000 0.882407 0.590904
O O2 0.245602 0.855889 0.633311
O O3 0.256628 0.875260 0.544136
O O4 0.296141 0.000000 0.601285
O O5 0.197855 0.735248 0.581879
O O6 0.260163 0.702376 0.666514
O O7 0.000000 0.767765 0.648114
O O8 0.000000 0.139543 0.500000
O O9 0.145590 0.000000 0.500000
O O10 0.500000 0.137225 0.043567
O O11 0.745812 0.078019 0.075185
O O12 0.746256 0.172021 0.000000
O O13 0.766210 0.500000 0.653576
O O14 0.000000 0.500000 0.605121
O O15 0.787771 0.914002 0.772948
O O16 0.000000 0.000000 0.813171
O O17 0.500000 0.699704 0.717607
O O18 0.750000 0.750000 0.750000
#
# Coordination Sequence:
#
# PCOD8287144 Si02
#       7
#    16  16   8  16   8   8  16
#     4  10  21  37  55  78 114 159 206 256 311 368
#     4  11  22  37  61  91 124 161 204 258 313 371
#     4   9  17  31  53  79 107 148 205 260 309 367
#     4   9  18  31  52  87 126 163 206 253 295 344
#     4  10  17  32  60  88 122 166 212 249 289 351
#     4  10  22  41  67  95 128 166 201 253 322 379
#     4  11  24  45  70  96 126 160 204 258 318 386
#
# _framework density 20.692409999999999
#
# number of rings (size 3 to 8) (size 9 to 14) (size 15 to 20)
#    0.000    1.909    1.818    2.182    1.273    4.000 
#    1.636    0.000    0.000    3.273    0.000    0.000 
#    0.000    0.000    0.000    0.000    0.000    0.000 
#
# Total GULP energy -545317.011739 kJ/mol
# GULP energy per Si atom -12393.568449 kJ/mol
# Density = 2.064531 g / cm^3
# Si number density = 20.692410 Si / 1000 Ang^3
#
#
#
# Elastic Constant Matrix: (Units=GPa)
#
#
# Indices 1 2 3 4 5 6 
#
# 1 96.1778 61.8877 34.1155 0.0000 0.0000 0.0000
# 2 61.8877 136.8964 50.9584 0.0000 0.0000 0.0000
# 3 34.1155 50.9584 78.3351 0.0000 0.0000 0.0000
# 4 0.0000 0.0000 0.0000 29.5203 0.0000 0.0000
# 5 0.0000 0.0000 0.0000 0.0000 30.1274 0.0000
# 6 0.0000 0.0000 0.0000 0.0000 0.0000 25.9029
#
#
#
# Elastic Compliance Matrix: (Units=1/GPa)
#
#
# Indices 1 2 3 4 5 6 
#
# 1 0.015121 -0.005786 -0.002822 0.000000 0.000000 0.000000
# 2 -0.005786 0.011852 -0.005191 0.000000 0.000000 0.000000
# 3 -0.002822 -0.005191 0.017371 0.000000 0.000000 0.000000
# 4 0.000000 0.000000 0.000000 0.033875 0.000000 0.000000
# 5 0.000000 0.000000 0.000000 0.000000 0.033192 0.000000
# 6 0.000000 0.000000 0.000000 0.000000 0.000000 0.038606
#
#
# Mechanical properties :
#
#
# Convention : Reuss Voigt Hill
#
# Bulk Modulus (GPa) = 59.70523 67.25915 63.48219
# Shear Modulus (GPa) = 27.29308 28.07331 27.68319
#
# Velocity S-wave (km/s) = 3.63573 3.68733 3.66162
# Velocity P-wave (km/s) = 6.82210 7.12063 6.97296
#
# Compressibility (1/GPa) = 0.01674895
#
# Stress axis : x y z
#
# Youngs Moduli (GPa) = 66.13240 84.37062 57.56673
#
# Poissons Ratio (x) = 0.48813 0.16244
# Poissons Ratio (y) = 0.38261 0.29881
# Poissons Ratio (z) = 0.18661 0.43793
#
# Static dielectric constant tensor:
#      x y z
#    x 3.620520 0.000000 0.000000 
#    y 0.000000 4.029040 0.000000 
#    z 0.000000 0.000000 3.631940 
# 
# 
# High freq. dielectric constant tensor:
#      x y z
#    x 1.792770 0.000000 0.000000 
#    y 0.000000 1.828940 0.000000 
#    z 0.000000 0.000000 1.791880 
# 
# From -- ./inp_files/68079.got.cif
#   From: 2010.06.25/outbox.cif.g09.slc.cpg/sg71_35_cif.got.tgz:68079.got - 2010.06.28 04:59:45.
