data_PCOD8287230
_publ_section_title
;
Structure prediction by ZEFSAII (Michael W. Deem and Ramdas Pophale) SiO2 
 PCOD8287230
Probable space group: I M M M
;
_chemical_formula_sum "Si O2"
_cell_formula_units_Z 80
_cell_length_a 9.746410
_cell_length_b 14.230903
_cell_length_c 38.234213
_cell_angle_alpha 90.000000
_cell_angle_beta 90.000000
_cell_angle_gamma 90.000000
_cell_volume 5303.093575
_symmetry_space_group_name_H-M "I M M M"
_symmetry_group_IT_number 71
_symmetry_cell_setting 'orthorhombic'
loop_
_space_group_symop_operation_xyz
x,y,z
-x,-y,z
x,-y,-z
-x,y,-z
-x,-y,-z
x,y,-z
-x,y,z
x,-y,z
1/2+x,1/2+y,1/2+z
1/2-x,1/2-y,1/2+z
1/2+x,1/2-y,1/2-z
1/2-x,1/2+y,1/2-z
1/2-x,1/2-y,1/2-z
1/2+x,1/2+y,1/2-z
1/2-x,1/2+y,1/2+z
1/2+x,1/2-y,1/2+z
loop_
_atom_site_type_symbol
_atom_site_label
_atom_site_fract_x
_atom_site_fract_y
_atom_site_fract_z
Si Si1 0.346046 0.111583 0.038619
Si Si2 0.658417 0.608526 0.399247
Si Si3 0.658717 0.390944 0.809102
Si Si4 0.837551 0.103246 0.230037
Si Si5 0.161331 0.767792 0.832249
O O1 0.500000 0.145695 0.047479
O O2 0.243297 0.150353 0.068063
O O3 0.339743 0.000000 0.038341
O O4 0.302815 0.148950 0.000000
O O5 0.500000 0.618920 0.409174
O O6 0.695464 0.500000 0.391240
O O7 0.696949 0.669005 0.365544
O O8 0.500000 0.364448 0.815072
O O9 0.683452 0.500000 0.817842
O O10 0.704534 0.368188 0.769298
O O11 0.754385 0.329332 0.834649
O O12 0.782274 0.177583 0.201950
O O13 0.000000 0.097208 0.227178
O O14 0.776572 0.000000 0.221284
O O15 0.000000 0.745484 0.829972
#
# Coordination Sequence:
#
# PCOD8287230 Si02
#       5
#    16  16  16  16  16
#     4   8  14  25  40  57  79 109 141 167 191 223
#     4   9  17  27  39  59  86 112 137 164 196 237
#     4   9  18  31  44  57  75 103 139 175 210 247
#     4   8  14  26  43  60  79 105 135 166 203 247
#     4  10  18  27  42  62  82 105 134 169 207 243
#
# _framework density 15.085534000000001
#
# number of rings (size 3 to 8) (size 9 to 14) (size 15 to 20)
#    0.000    3.200    0.000    3.000    0.000    4.000 
#    0.000    2.000    0.000    3.000    0.000    0.000 
#    0.000    0.800    0.000    8.800    0.000    6.800 
#
# Total GULP energy -495790.796744 kJ/mol
# GULP energy per Si atom -12394.769919 kJ/mol
# Density = 1.505120 g / cm^3
# Si number density = 15.085534 Si / 1000 Ang^3
#
#
#
# Elastic Constant Matrix: (Units=GPa)
#
#
# Indices 1 2 3 4 5 6 
#
# 1 59.4978 43.5984 54.3707 0.0000 0.0000 0.0000
# 2 43.5984 67.6532 48.2115 0.0000 0.0000 0.0000
# 3 54.3707 48.2115 91.6375 0.0000 0.0000 0.0000
# 4 0.0000 0.0000 0.0000 11.2622 0.0000 0.0000
# 5 0.0000 0.0000 0.0000 0.0000 24.8033 0.0000
# 6 0.0000 0.0000 0.0000 0.0000 0.0000 22.3806
#
#
#
# Elastic Compliance Matrix: (Units=1/GPa)
#
#
# Indices 1 2 3 4 5 6 
#
# 1 0.045615 -0.016173 -0.018556 0.000000 0.000000 0.000000
# 2 -0.016173 0.029381 -0.005862 0.000000 0.000000 0.000000
# 3 -0.018556 -0.005862 0.025006 0.000000 0.000000 0.000000
# 4 0.000000 0.000000 0.000000 0.088793 0.000000 0.000000
# 5 0.000000 0.000000 0.000000 0.000000 0.040317 0.000000
# 6 0.000000 0.000000 0.000000 0.000000 0.000000 0.044682
#
#
# Mechanical properties :
#
#
# Convention : Reuss Voigt Hill
#
# Bulk Modulus (GPa) = 53.13165 56.79439 54.96302
# Shear Modulus (GPa) = 13.84086 16.52974 15.18530
#
# Velocity S-wave (km/s) = 3.03230 3.31378 3.17616
# Velocity P-wave (km/s) = 6.89612 7.23681 7.06852
#
# Compressibility (1/GPa) = 0.01882117
#
# Stress axis : x y z
#
# Youngs Moduli (GPa) = 21.92247 34.03554 39.98990
#
# Poissons Ratio (x) = 0.55045 0.74205
# Poissons Ratio (y) = 0.35455 0.23442
# Poissons Ratio (z) = 0.40679 0.19952
#
# Static dielectric constant tensor:
#      x y z
#    x 2.770310 0.000000 0.000000 
#    y 0.000000 2.709660 0.000000 
#    z 0.000000 0.000000 3.019720 
# 
# 
# High freq. dielectric constant tensor:
#      x y z
#    x 1.564270 0.000000 0.000000 
#    y 0.000000 1.547680 0.000000 
#    z 0.000000 0.000000 1.567310 
# 
# From -- ./inp_files/20112.got.cif
#   From: 2010.06.25/outbox.cif.g09.slc.cpg/sg71_11_cif.got.tgz:20112.got - 2010.06.28 04:59:45.
