data_PCOD8287263
_publ_section_title
;
Structure prediction by ZEFSAII (Michael W. Deem and Ramdas Pophale) SiO2 
 PCOD8287263
Probable space group: I M M M
;
_chemical_formula_sum "Si O2"
_cell_formula_units_Z 104
_cell_length_a 22.978065
_cell_length_b 13.319355
_cell_length_c 20.430238
_cell_angle_alpha 90.000000
_cell_angle_beta 90.000000
_cell_angle_gamma 90.000000
_cell_volume 6252.735732
_symmetry_space_group_name_H-M "I M M M"
_symmetry_group_IT_number 71
_symmetry_cell_setting 'orthorhombic'
loop_
_space_group_symop_operation_xyz
x,y,z
-x,-y,z
x,-y,-z
-x,y,-z
-x,-y,-z
x,y,-z
-x,y,z
x,-y,z
1/2+x,1/2+y,1/2+z
1/2-x,1/2-y,1/2+z
1/2+x,1/2-y,1/2-z
1/2-x,1/2+y,1/2-z
1/2-x,1/2-y,1/2-z
1/2+x,1/2+y,1/2-z
1/2-x,1/2+y,1/2+z
1/2+x,1/2-y,1/2+z
loop_
_atom_site_type_symbol
_atom_site_label
_atom_site_fract_x
_atom_site_fract_y
_atom_site_fract_z
Si Si1 0.835542 0.617418 0.575431
Si Si2 0.063869 0.383946 0.667544
Si Si3 0.860721 0.385924 0.074422
Si Si4 0.889270 0.886815 0.845656
Si Si5 0.000000 0.882005 0.070714
Si Si6 0.288252 0.305170 0.574836
Si Si7 0.068170 0.305412 0.806484
O O1 0.851966 0.635495 0.500000
O O2 0.824132 0.500000 0.589560
O O3 0.887920 0.662833 0.619190
O O4 0.778341 0.679667 0.596165
O O5 0.059601 0.500000 0.650485
O O6 0.081943 0.372745 0.743326
O O7 0.000000 0.334011 0.655197
O O8 0.838804 0.500000 0.084883
O O9 0.806012 0.311122 0.085300
O O10 0.910028 0.360752 0.127709
O O11 0.885174 0.372565 0.000000
O O12 0.827898 0.879694 0.882184
O O13 0.896963 0.799946 0.791190
O O14 0.940623 0.850482 0.894241
O O15 0.897956 0.000000 0.818192
O O16 0.000000 0.000000 0.063258
O O17 0.000000 0.829191 0.000000
O O18 0.296195 0.339622 0.500000
O O19 0.000000 0.285368 0.815037
#
# Coordination Sequence:
#
# PCOD8287263 Si02
#       7
#    16  16  16  16   8  16  16
#     4   9  17  30  50  75  97 116 141 176 224 282
#     4   9  18  32  50  70  93 120 148 181 225 277
#     4   9  18  31  45  63  89 123 162 199 228 254
#     4  10  18  28  41  62  91 123 158 192 226 265
#     4   9  16  24  36  56  83 117 154 189 223 257
#     4   9  17  29  46  67  92 121 151 186 230 276
#     4  10  19  31  45  64  88 122 160 195 232 271
#
# _framework density 16.632719000000002
#
# number of rings (size 3 to 8) (size 9 to 14) (size 15 to 20)
#    0.000    2.692    0.769    1.385    0.000    3.692 
#    0.000    5.385    0.000    2.769    0.000    0.000 
#    0.000    0.000    0.000    9.385    0.000    0.308 
#
# Total GULP energy -644389.880793 kJ/mol
# GULP energy per Si atom -12392.113092 kJ/mol
# Density = 1.659486 g / cm^3
# Si number density = 16.632719 Si / 1000 Ang^3
#
#
#
# Elastic Constant Matrix: (Units=GPa)
#
#
# Indices 1 2 3 4 5 6 
#
# 1 116.0668 27.0530 59.1323 0.0000 0.0000 0.0000
# 2 27.0530 69.8791 17.3714 0.0000 0.0000 0.0000
# 3 59.1323 17.3714 67.5741 0.0000 0.0000 0.0000
# 4 0.0000 0.0000 0.0000 15.4058 0.0000 0.0000
# 5 0.0000 0.0000 0.0000 0.0000 24.0695 0.0000
# 6 0.0000 0.0000 0.0000 0.0000 0.0000 17.0340
#
#
#
# Elastic Compliance Matrix: (Units=1/GPa)
#
#
# Indices 1 2 3 4 5 6 
#
# 1 0.016084 -0.002914 -0.013325 0.000000 0.000000 0.000000
# 2 -0.002914 0.015815 -0.001516 0.000000 0.000000 0.000000
# 3 -0.013325 -0.001516 0.026849 0.000000 0.000000 0.000000
# 4 0.000000 0.000000 0.000000 0.064911 0.000000 0.000000
# 5 0.000000 0.000000 0.000000 0.000000 0.041546 0.000000
# 6 0.000000 0.000000 0.000000 0.000000 0.000000 0.058706
#
#
# Mechanical properties :
#
#
# Convention : Reuss Voigt Hill
#
# Bulk Modulus (GPa) = 43.03328 51.18151 47.10740
# Shear Modulus (GPa) = 18.71484 21.29939 20.00711
#
# Velocity S-wave (km/s) = 3.35801 3.58239 3.47201
# Velocity P-wave (km/s) = 6.40030 6.92458 6.66759
#
# Compressibility (1/GPa) = 0.02323783
#
# Stress axis : x y z
#
# Youngs Moduli (GPa) = 62.17426 63.22962 37.24543
#
# Poissons Ratio (x) = 0.18426 0.49631
# Poissons Ratio (y) = 0.18118 0.05645
# Poissons Ratio (z) = 0.82850 0.09583
#
# Static dielectric constant tensor:
#      x y z
#    x 3.189760 0.000000 0.000000 
#    y 0.000000 3.117130 0.000000 
#    z 0.000000 0.000000 3.038910 
# 
# 
# High freq. dielectric constant tensor:
#      x y z
#    x 1.633370 0.000000 0.000000 
#    y 0.000000 1.630910 0.000000 
#    z 0.000000 0.000000 1.616010 
# 
# From -- ./inp_files/55065.got.cif
#   From: 2010.06.25/outbox.cif.g09.slc.cpg/sg71_28_cif.got.tgz:55065.got - 2010.06.28 04:59:45.
