data_PCOD8287276
_publ_section_title
;
Structure prediction by ZEFSAII (Michael W. Deem and Ramdas Pophale) SiO2 
 PCOD8287276
Probable space group: I M M M
;
_chemical_formula_sum "Si O2"
_cell_formula_units_Z 72
_cell_length_a 12.493997
_cell_length_b 19.302705
_cell_length_c 19.635747
_cell_angle_alpha 90.000000
_cell_angle_beta 90.000000
_cell_angle_gamma 90.000000
_cell_volume 4735.512622
_symmetry_space_group_name_H-M "I M M M"
_symmetry_group_IT_number 71
_symmetry_cell_setting 'orthorhombic'
loop_
_space_group_symop_operation_xyz
x,y,z
-x,-y,z
x,-y,-z
-x,y,-z
-x,-y,-z
x,y,-z
-x,y,z
x,-y,z
1/2+x,1/2+y,1/2+z
1/2-x,1/2-y,1/2+z
1/2+x,1/2-y,1/2-z
1/2-x,1/2+y,1/2-z
1/2-x,1/2-y,1/2-z
1/2+x,1/2+y,1/2-z
1/2-x,1/2+y,1/2+z
1/2+x,1/2-y,1/2+z
loop_
_atom_site_type_symbol
_atom_site_label
_atom_site_fract_x
_atom_site_fract_y
_atom_site_fract_z
Si Si1 0.624657 0.920196 0.332175
Si Si2 0.791635 0.843394 0.579477
Si Si3 0.624434 0.806186 0.922223
Si Si4 0.500000 0.578211 0.081009
Si Si5 0.873020 0.423671 0.321826
O O1 0.500000 0.904172 0.341663
O O2 0.686834 0.868976 0.381898
O O3 0.661382 0.904504 0.254879
O O4 0.649291 0.000000 0.350876
O O5 0.776248 0.859256 0.500000
O O6 0.806890 0.762077 0.592870
O O7 0.894503 0.883910 0.608999
O O8 0.500000 0.789959 0.907003
O O9 0.671628 0.866732 0.874330
O O10 0.638597 0.830406 0.000000
O O11 0.500000 0.500000 0.108261
O O12 0.500000 0.582203 0.000000
O O13 0.827803 0.500000 0.341232
O O14 0.000000 0.426125 0.326479
#
# Coordination Sequence:
#
# PCOD8287276 Si02
#       5
#    16  16  16   8  16
#     4   9  18  31  44  60  85 116 147 179 211 244
#     4  10  18  28  42  62  87 115 145 176 211 252
#     4   9  16  27  43  64  90 113 136 173 217 257
#     4   9  16  26  40  58  81 111 144 174 207 248
#     4   8  15  28  44  62  85 113 143 173 211 259
#
# _framework density 15.204268000000001
#
# number of rings (size 3 to 8) (size 9 to 14) (size 15 to 20)
#    0.000    3.000    1.111    2.000    0.000    3.111 
#    0.000    3.333    0.000    0.000    0.000    0.000 
#    0.000    0.000    0.000    4.889    0.000    0.222 
#
# Total GULP energy -446307.957400 kJ/mol
# GULP energy per Si atom -12397.443261 kJ/mol
# Density = 1.516966 g / cm^3
# Si number density = 15.204268 Si / 1000 Ang^3
#
#
#
# Elastic Constant Matrix: (Units=GPa)
#
#
# Indices 1 2 3 4 5 6 
#
# 1 52.1071 44.2196 39.3996 0.0000 0.0000 0.0000
# 2 44.2196 112.0815 71.2078 0.0000 0.0000 0.0000
# 3 39.3996 71.2078 81.6440 0.0000 0.0000 0.0000
# 4 0.0000 0.0000 0.0000 29.7362 0.0000 0.0000
# 5 0.0000 0.0000 0.0000 0.0000 16.0978 0.0000
# 6 0.0000 0.0000 0.0000 0.0000 0.0000 19.0507
#
#
#
# Elastic Compliance Matrix: (Units=1/GPa)
#
#
# Indices 1 2 3 4 5 6 
#
# 1 0.032103 -0.006331 -0.009970 0.000000 0.000000 0.000000
# 2 -0.006331 0.021258 -0.015486 0.000000 0.000000 0.000000
# 3 -0.009970 -0.015486 0.030566 0.000000 0.000000 0.000000
# 4 0.000000 0.000000 0.000000 0.033629 0.000000 0.000000
# 5 0.000000 0.000000 0.000000 0.000000 0.062120 0.000000
# 6 0.000000 0.000000 0.000000 0.000000 0.000000 0.052492
#
#
# Mechanical properties :
#
#
# Convention : Reuss Voigt Hill
#
# Bulk Modulus (GPa) = 49.13308 61.72075 55.42691
# Shear Modulus (GPa) = 16.52748 19.04396 17.78572
#
# Velocity S-wave (km/s) = 3.30059 3.54296 3.42392
# Velocity P-wave (km/s) = 6.84914 7.57755 7.22253
#
# Compressibility (1/GPa) = 0.02035289
#
# Stress axis : x y z
#
# Youngs Moduli (GPa) = 31.14985 47.04028 32.71622
#
# Poissons Ratio (x) = 0.29783 0.32618
# Poissons Ratio (y) = 0.19722 0.50663
# Poissons Ratio (z) = 0.31057 0.72845
#
# Static dielectric constant tensor:
#      x y z
#    x 2.589510 0.000000 0.000000 
#    y 0.000000 3.127590 0.000000 
#    z 0.000000 0.000000 2.872800 
# 
# 
# High freq. dielectric constant tensor:
#      x y z
#    x 1.545220 0.000000 0.000000 
#    y 0.000000 1.589200 0.000000 
#    z 0.000000 0.000000 1.570700 
# 
# From -- ./inp_files/23706.got.cif
#   From: 2010.06.25/outbox.cif.g09.slc.cpg/sg71_12_cif.got.tgz:23706.got - 2010.06.28 04:59:45.
