data_PCOD8287331
_publ_section_title
;
Structure prediction by ZEFSAII (Michael W. Deem and Ramdas Pophale) SiO2 
 PCOD8287331
Probable space group: I M M M
;
_chemical_formula_sum "Si O2"
_cell_formula_units_Z 80
_cell_length_a 19.728555
_cell_length_b 9.152090
_cell_length_c 25.738737
_cell_angle_alpha 90.000000
_cell_angle_beta 90.000000
_cell_angle_gamma 90.000000
_cell_volume 4647.322287
_symmetry_space_group_name_H-M "I M M M"
_symmetry_group_IT_number 71
_symmetry_cell_setting 'orthorhombic'
loop_
_space_group_symop_operation_xyz
x,y,z
-x,-y,z
x,-y,-z
-x,y,-z
-x,-y,-z
x,y,-z
-x,y,z
x,-y,z
1/2+x,1/2+y,1/2+z
1/2-x,1/2-y,1/2+z
1/2+x,1/2-y,1/2-z
1/2-x,1/2+y,1/2-z
1/2-x,1/2-y,1/2-z
1/2+x,1/2+y,1/2-z
1/2-x,1/2+y,1/2+z
1/2+x,1/2-y,1/2+z
loop_
_atom_site_type_symbol
_atom_site_label
_atom_site_fract_x
_atom_site_fract_y
_atom_site_fract_z
Si Si1 0.830364 0.164778 0.387366
Si Si2 0.827493 0.328338 0.897221
Si Si3 0.821290 0.172816 0.000000
Si Si4 0.315271 0.665701 0.000000
Si Si5 0.075616 0.673533 0.192886
Si Si6 0.423950 0.827339 0.191455
O O1 0.751098 0.205867 0.385959
O O2 0.858280 0.184089 0.446868
O O3 0.870886 0.269387 0.349881
O O4 0.841623 0.000000 0.367999
O O5 0.839430 0.500000 0.905999
O O6 0.854061 0.243160 0.948232
O O7 0.870631 0.266132 0.848756
O O8 0.742169 0.211964 0.000000
O O9 0.832397 0.000000 0.000000
O O10 0.282778 0.500000 0.000000
O O11 0.076701 0.500000 0.192858
O O12 0.095454 0.729003 0.250711
O O13 0.000000 0.728907 0.178503
O O14 0.500000 0.774022 0.177475
O O15 0.420572 0.000000 0.189595
#
# Coordination Sequence:
#
# PCOD8287331 Si02
#       6
#    16  16   8   8  16  16
#     4   9  17  29  47  70  93 119 151 188 232 277
#     4   9  17  31  50  70  93 121 155 193 227 266
#     4  10  18  28  45  70  97 123 151 185 231 280
#     4   8  16  32  49  66  93 125 155 189 227 268
#     4   8  15  30  51  70  89 120 160 194 225 267
#     4   9  18  32  48  67  93 123 154 191 233 273
#
# _framework density 17.214213999999998
#
# number of rings (size 3 to 8) (size 9 to 14) (size 15 to 20)
#    0.000    3.200    0.000    3.300    0.000    4.400 
#    0.000    2.000    0.000    7.800    0.000    0.000 
#    0.000    0.000    0.000    0.000    0.000    0.000 
#
# Total GULP energy -495670.510830 kJ/mol
# GULP energy per Si atom -12391.762771 kJ/mol
# Density = 1.717503 g / cm^3
# Si number density = 17.214214 Si / 1000 Ang^3
#
#
#
# Elastic Constant Matrix: (Units=GPa)
#
#
# Indices 1 2 3 4 5 6 
#
# 1 70.4410 26.0869 74.3583 0.0000 0.0000 0.0000
# 2 26.0869 42.4187 42.0853 0.0000 0.0000 0.0000
# 3 74.3583 42.0853 161.2474 0.0000 0.0000 0.0000
# 4 0.0000 0.0000 0.0000 25.2840 0.0000 0.0000
# 5 0.0000 0.0000 0.0000 0.0000 6.2247 0.0000
# 6 0.0000 0.0000 0.0000 0.0000 0.0000 18.0457
#
#
#
# Elastic Compliance Matrix: (Units=1/GPa)
#
#
# Indices 1 2 3 4 5 6 
#
# 1 0.028792 -0.006118 -0.011680 0.000000 0.000000 0.000000
# 2 -0.006118 0.033112 -0.005821 0.000000 0.000000 0.000000
# 3 -0.011680 -0.005821 0.013107 0.000000 0.000000 0.000000
# 4 0.000000 0.000000 0.000000 0.039551 0.000000 0.000000
# 5 0.000000 0.000000 0.000000 0.000000 0.160651 0.000000
# 6 0.000000 0.000000 0.000000 0.000000 0.000000 0.055415
#
#
# Mechanical properties :
#
#
# Convention : Reuss Voigt Hill
#
# Bulk Modulus (GPa) = 36.00668 62.12979 49.06823
# Shear Modulus (GPa) = 12.91574 18.68266 15.79920
#
# Velocity S-wave (km/s) = 2.74212 3.29797 3.03281
# Velocity P-wave (km/s) = 5.56668 7.11847 6.38986
#
# Compressibility (1/GPa) = 0.02777263
#
# Stress axis : x y z
#
# Youngs Moduli (GPa) = 34.73182 30.20037 76.29345
#
# Poissons Ratio (x) = 0.18477 0.89114
# Poissons Ratio (y) = 0.21249 0.44410
# Poissons Ratio (z) = 0.40568 0.17579
#
# Static dielectric constant tensor:
#      x y z
#    x 3.055430 0.000000 0.000000 
#    y 0.000000 2.875160 0.000000 
#    z 0.000000 0.000000 3.633760 
# 
# 
# High freq. dielectric constant tensor:
#      x y z
#    x 1.634770 0.000000 0.000000 
#    y 0.000000 1.636140 0.000000 
#    z 0.000000 0.000000 1.682600 
# 
# From -- ./inp_files/8648.got.cif
#   From: 2010.06.25/outbox.cif.g09.slc.cpg/sg71_5_cif.got.tgz:8648.got - 2010.06.28 04:59:45.
