data_PCOD8287063
_publ_section_title
;
Structure prediction by ZEFSAII (Michael W. Deem and Ramdas Pophale) SiO2 
 PCOD8287063
Probable space group: I M M M
;
_chemical_formula_sum "Si O2"
_cell_formula_units_Z 112
_cell_length_a 21.994394
_cell_length_b 14.004144
_cell_length_c 23.155998
_cell_angle_alpha 90.000000
_cell_angle_beta 90.000000
_cell_angle_gamma 90.000000
_cell_volume 7132.340557
_symmetry_space_group_name_H-M "I M M M"
_symmetry_group_IT_number 71
_symmetry_cell_setting 'orthorhombic'
loop_
_space_group_symop_operation_xyz
x,y,z
-x,-y,z
x,-y,-z
-x,y,-z
-x,-y,-z
x,y,-z
-x,y,z
x,-y,z
1/2+x,1/2+y,1/2+z
1/2-x,1/2-y,1/2+z
1/2+x,1/2-y,1/2-z
1/2-x,1/2+y,1/2-z
1/2-x,1/2-y,1/2-z
1/2+x,1/2+y,1/2-z
1/2-x,1/2+y,1/2+z
1/2+x,1/2-y,1/2+z
loop_
_atom_site_type_symbol
_atom_site_label
_atom_site_fract_x
_atom_site_fract_y
_atom_site_fract_z
Si Si1 0.430111 0.113279 0.722219
Si Si2 0.239397 0.611810 0.067060
Si Si3 0.376373 0.601085 0.932245
Si Si4 0.067627 0.288931 0.433331
Si Si5 0.744256 0.610455 0.279833
Si Si6 0.870900 0.607074 0.662562
Si Si7 0.313134 0.797220 0.323735
O O1 0.500000 0.138406 0.706882
O O2 0.414747 0.147862 0.787254
O O3 0.383756 0.171972 0.682015
O O4 0.417439 0.000000 0.715377
O O5 0.222961 0.500000 0.076314
O O6 0.308728 0.631804 0.085997
O O7 0.200964 0.681061 0.109135
O O8 0.227116 0.640092 0.000000
O O9 0.394155 0.500000 0.902672
O O10 0.426675 0.678316 0.914706
O O11 0.375241 0.586274 0.000000
O O12 0.083726 0.303515 0.500000
O O13 0.118175 0.343936 0.398219
O O14 0.000000 0.324930 0.419119
O O15 0.719915 0.500000 0.278448
O O16 0.800674 0.619324 0.322939
O O17 0.694166 0.685162 0.304911
O O18 0.767607 0.639286 0.215947
O O19 0.890369 0.500000 0.652895
#
# Coordination Sequence:
#
# PCOD8287063 Si02
#       7
#    16  16  16  16  16  16  16
#     4   9  17  29  46  66  86 112 145 173 199 245
#     4   9  16  26  43  66  89 113 141 174 216 267
#     4   8  15  27  39  52  74 105 139 171 204 246
#     4  10  19  27  37  55  77 105 143 181 214 249
#     4   9  18  30  46  69  89 109 143 185 225 260
#     4   9  17  30  44  57  79 109 139 173 212 250
#     4  10  17  28  48  68  90 116 142 179 221 260
#
# _framework density 15.70312
#
# number of rings (size 3 to 8) (size 9 to 14) (size 15 to 20)
#    0.000    2.857    0.000    4.286    0.000    1.429 
#    0.000    2.143    0.000    2.143    0.000    2.000 
#    0.000    0.000    0.000    1.286    0.000    0.143 
#
# Total GULP energy -693822.118692 kJ/mol
# GULP energy per Si atom -12389.680691 kJ/mol
# Density = 1.566738 g / cm^3
# Si number density = 15.703120 Si / 1000 Ang^3
#
#
#
# Elastic Constant Matrix: (Units=GPa)
#
#
# Indices 1 2 3 4 5 6 
#
# 1 50.5325 23.1931 21.9008 0.0000 0.0000 0.0000
# 2 23.1931 61.1886 27.7742 0.0000 0.0000 0.0000
# 3 21.9008 27.7742 65.6018 0.0000 0.0000 0.0000
# 4 0.0000 0.0000 0.0000 18.0797 0.0000 0.0000
# 5 0.0000 0.0000 0.0000 0.0000 13.4387 0.0000
# 6 0.0000 0.0000 0.0000 0.0000 0.0000 22.6414
#
#
#
# Elastic Compliance Matrix: (Units=1/GPa)
#
#
# Indices 1 2 3 4 5 6 
#
# 1 0.025445 -0.007166 -0.005461 0.000000 0.000000 0.000000
# 2 -0.007166 0.022249 -0.007027 0.000000 0.000000 0.000000
# 3 -0.005461 -0.007027 0.020042 0.000000 0.000000 0.000000
# 4 0.000000 0.000000 0.000000 0.055311 0.000000 0.000000
# 5 0.000000 0.000000 0.000000 0.000000 0.074412 0.000000
# 6 0.000000 0.000000 0.000000 0.000000 0.000000 0.044167
#
#
# Mechanical properties :
#
#
# Convention : Reuss Voigt Hill
#
# Bulk Modulus (GPa) = 35.17728 35.89544 35.53636
# Shear Modulus (GPa) = 17.21710 17.79561 17.50635
#
# Velocity S-wave (km/s) = 3.31480 3.37003 3.34253
# Velocity P-wave (km/s) = 6.09103 6.16857 6.12992
#
# Compressibility (1/GPa) = 0.02842744
#
# Stress axis : x y z
#
# Youngs Moduli (GPa) = 39.30053 44.94598 49.89591
#
# Poissons Ratio (x) = 0.32208 0.27247
# Poissons Ratio (y) = 0.28163 0.35063
# Poissons Ratio (z) = 0.21461 0.31585
#
# Static dielectric constant tensor:
#      x y z
#    x 2.857070 0.000000 0.000000 
#    y 0.000000 2.954480 0.000000 
#    z 0.000000 0.000000 2.873500 
# 
# 
# High freq. dielectric constant tensor:
#      x y z
#    x 1.578210 0.000000 0.000000 
#    y 0.000000 1.597190 0.000000 
#    z 0.000000 0.000000 1.583590 
# 
# From -- ./inp_files/27648.got.cif
#   From: 2010.06.25/outbox.cif.g09.slc.cpg/sg71_14_cif.got.tgz:27648.got - 2010.06.28 04:59:45.
