data_PCOD8287401
_publ_section_title
;
Structure prediction by ZEFSAII (Michael W. Deem and Ramdas Pophale) SiO2 
 PCOD8287401
Probable space group: I M M M
;
_chemical_formula_sum "Si O2"
_cell_formula_units_Z 104
_cell_length_a 24.233107
_cell_length_b 32.840148
_cell_length_c 9.086716
_cell_angle_alpha 90.000000
_cell_angle_beta 90.000000
_cell_angle_gamma 90.000000
_cell_volume 7231.379608
_symmetry_space_group_name_H-M "I M M M"
_symmetry_group_IT_number 71
_symmetry_cell_setting 'orthorhombic'
loop_
_space_group_symop_operation_xyz
x,y,z
-x,-y,z
x,-y,-z
-x,y,-z
-x,-y,-z
x,y,-z
-x,y,z
x,-y,z
1/2+x,1/2+y,1/2+z
1/2-x,1/2-y,1/2+z
1/2+x,1/2-y,1/2-z
1/2-x,1/2+y,1/2-z
1/2-x,1/2-y,1/2-z
1/2+x,1/2+y,1/2-z
1/2-x,1/2+y,1/2+z
1/2+x,1/2-y,1/2+z
loop_
_atom_site_type_symbol
_atom_site_label
_atom_site_fract_x
_atom_site_fract_y
_atom_site_fract_z
Si Si1 0.000000 0.951751 0.333783
Si Si2 0.111257 0.046586 0.826557
Si Si3 0.562071 0.337085 0.333725
Si Si4 0.155527 0.881884 0.328396
Si Si5 0.938810 0.741442 0.830941
Si Si6 0.830758 0.271513 0.672443
Si Si7 0.767201 0.809206 0.328437
O O1 0.054381 0.937616 0.246231
O O2 0.000000 0.933830 0.500000
O O3 0.000000 0.000000 0.339549
O O4 0.159581 0.075608 0.761997
O O5 0.124965 0.000000 0.784415
O O6 0.105874 0.052018 0.000000
O O7 0.582200 0.347180 0.500000
O O8 0.500000 0.353268 0.310512
O O9 0.599833 0.358651 0.214331
O O10 0.564098 0.289334 0.305415
O O11 0.154028 0.892096 0.500000
O O12 0.207277 0.853114 0.288648
O O13 0.891968 0.720008 0.733520
O O14 0.000000 0.725814 0.784298
O O15 0.927538 0.730445 0.000000
O O16 0.832097 0.277687 0.500000
O O17 0.810179 0.226302 0.718159
O O18 0.789473 0.304975 0.739562
O O19 0.753793 0.805330 0.500000
#
# Coordination Sequence:
#
# PCOD8287401 Si02
#       7
#     8  16  16  16  16  16  16
#     4   9  17  31  49  65  79  99 131 169 211 257
#     4  10  21  35  48  61  79 104 133 167 210 260
#     4   9  18  30  42  57  79 107 137 170 211 256
#     4  11  21  32  46  63  82 103 135 175 214 254
#     4   9  17  29  44  61  83 112 141 170 208 253
#     4  10  18  29  45  63  83 108 139 174 209 244
#     4   9  19  32  43  60  83 109 138 170 210 252
#
# _framework density 14.381765
#
# number of rings (size 3 to 8) (size 9 to 14) (size 15 to 20)
#    0.000    2.385    1.538    2.538    1.077    4.308 
#    0.000    1.538    0.000    0.000    0.000    0.000 
#    0.000    0.000    0.000    0.000    0.000    0.769 
#
# Total GULP energy -644727.309374 kJ/mol
# GULP energy per Si atom -12398.602103 kJ/mol
# Density = 1.434903 g / cm^3
# Si number density = 14.381765 Si / 1000 Ang^3
#
#
#
# Elastic Constant Matrix: (Units=GPa)
#
#
# Indices 1 2 3 4 5 6 
#
# 1 93.9565 40.4804 47.3112 0.0000 0.0000 0.0000
# 2 40.4804 58.9719 37.1462 0.0000 0.0000 0.0000
# 3 47.3112 37.1462 70.4329 0.0000 0.0000 0.0000
# 4 0.0000 0.0000 0.0000 19.9532 0.0000 0.0000
# 5 0.0000 0.0000 0.0000 0.0000 25.0337 0.0000
# 6 0.0000 0.0000 0.0000 0.0000 0.0000 20.8726
#
#
#
# Elastic Compliance Matrix: (Units=1/GPa)
#
#
# Indices 1 2 3 4 5 6 
#
# 1 0.017840 -0.007035 -0.008273 0.000000 0.000000 0.000000
# 2 -0.007035 0.028167 -0.010130 0.000000 0.000000 0.000000
# 3 -0.008273 -0.010130 0.025098 0.000000 0.000000 0.000000
# 4 0.000000 0.000000 0.000000 0.050117 0.000000 0.000000
# 5 0.000000 0.000000 0.000000 0.000000 0.039946 0.000000
# 6 0.000000 0.000000 0.000000 0.000000 0.000000 0.047910
#
#
# Mechanical properties :
#
#
# Convention : Reuss Voigt Hill
#
# Bulk Modulus (GPa) = 49.43441 52.58190 51.00816
# Shear Modulus (GPa) = 18.74788 19.73346 19.24067
#
# Velocity S-wave (km/s) = 3.61444 3.70823 3.66163
# Velocity P-wave (km/s) = 7.20184 7.41455 7.30897
#
# Compressibility (1/GPa) = 0.02022882
#
# Stress axis : x y z
#
# Youngs Moduli (GPa) = 56.05349 35.50277 39.84409
#
# Poissons Ratio (x) = 0.24975 0.32965
# Poissons Ratio (y) = 0.39432 0.40361
# Poissons Ratio (z) = 0.46376 0.35964
#
# Static dielectric constant tensor:
#      x y z
#    x 2.752990 0.000000 0.000000 
#    y 0.000000 2.680060 0.000000 
#    z 0.000000 0.000000 2.851680 
# 
# 
# High freq. dielectric constant tensor:
#      x y z
#    x 1.524180 0.000000 0.000000 
#    y 0.000000 1.515470 0.000000 
#    z 0.000000 0.000000 1.561360 
# 
# From -- ./inp_files/13652.got.cif
#   From: 2010.06.25/outbox.cif.g09.slc.cpg/sg71_7_cif.got.tgz:13652.got - 2010.06.28 04:59:45.
