data_PCOD8287833
_publ_section_title
;
Structure prediction by ZEFSAII (Michael W. Deem and Ramdas Pophale) SiO2 
 PCOD8287833
Probable space group: I M M M
;
_chemical_formula_sum "Si O2"
_cell_formula_units_Z 88
_cell_length_a 11.856334
_cell_length_b 17.602834
_cell_length_c 22.564956
_cell_angle_alpha 90.000000
_cell_angle_beta 90.000000
_cell_angle_gamma 90.000000
_cell_volume 4709.420930
_symmetry_space_group_name_H-M "I M M M"
_symmetry_group_IT_number 71
_symmetry_cell_setting 'orthorhombic'
loop_
_space_group_symop_operation_xyz
x,y,z
-x,-y,z
x,-y,-z
-x,y,-z
-x,-y,-z
x,y,-z
-x,y,z
x,-y,z
1/2+x,1/2+y,1/2+z
1/2-x,1/2-y,1/2+z
1/2+x,1/2-y,1/2-z
1/2-x,1/2+y,1/2-z
1/2-x,1/2-y,1/2-z
1/2+x,1/2+y,1/2-z
1/2-x,1/2+y,1/2+z
1/2+x,1/2-y,1/2+z
loop_
_atom_site_type_symbol
_atom_site_label
_atom_site_fract_x
_atom_site_fract_y
_atom_site_fract_z
Si Si1 0.795252 0.307351 0.567203
Si Si2 0.722066 0.000000 0.436024
Si Si3 0.127330 0.141322 0.406062
Si Si4 0.133678 0.791860 0.825918
Si Si5 0.238653 0.145326 0.714412
Si Si6 0.372682 0.000000 0.688278
Si Si7 0.500000 0.913049 0.929762
O O1 0.758072 0.328468 0.500000
O O2 0.844465 0.222526 0.565808
O O3 0.687540 0.311446 0.610327
O O4 0.889085 0.366880 0.591504
O O5 0.796150 0.924088 0.433536
O O6 0.659885 0.000000 0.500000
O O7 0.631383 0.000000 0.383466
O O8 0.142038 0.144075 0.335275
O O9 0.000000 0.120065 0.421387
O O10 0.176226 0.851846 0.777406
O O11 0.172317 0.711251 0.800165
O O12 0.000000 0.793644 0.833852
O O13 0.311890 0.070745 0.716642
O O14 0.500000 0.000000 0.709571
O O15 0.500000 0.000000 0.904737
O O16 0.500000 0.914590 0.000000
#
# Coordination Sequence:
#
# PCOD8287833 Si02
#       7
#    16   8  16  16  16   8   8
#     4  10  20  34  55  82 108 142 182 220 271 327
#     4  10  21  31  46  79 115 149 185 213 259 318
#     4  10  18  31  52  76 109 147 182 223 264 310
#     4  10  20  37  57  80 110 141 175 221 270 326
#     4   9  20  36  55  80 103 140 184 221 267 316
#     4  10  20  38  57  76 107 140 180 229 263 305
#     4   9  18  36  58  77 105 137 175 228 272 318
#
# _framework density 18.685949000000001
#
# number of rings (size 3 to 8) (size 9 to 14) (size 15 to 20)
#    0.000    2.273    0.909    1.909    0.000    2.000 
#    4.909    1.364    0.000    6.545    0.000    2.545 
#    0.000    0.000    0.000    0.000    0.000    0.000 
#
# Total GULP energy -545503.282420 kJ/mol
# GULP energy per Si atom -12397.801873 kJ/mol
# Density = 1.864342 g / cm^3
# Si number density = 18.685949 Si / 1000 Ang^3
#
#
#
# Elastic Constant Matrix: (Units=GPa)
#
#
# Indices 1 2 3 4 5 6 
#
# 1 118.4081 27.2689 38.1837 0.0000 0.0000 0.0000
# 2 27.2689 102.0659 15.1609 0.0000 0.0000 0.0000
# 3 38.1837 15.1609 100.7020 0.0000 0.0000 0.0000
# 4 0.0000 0.0000 0.0000 20.9406 0.0000 0.0000
# 5 0.0000 0.0000 0.0000 0.0000 18.2459 0.0000
# 6 0.0000 0.0000 0.0000 0.0000 0.0000 -3.7824
#
#
#
# Elastic Compliance Matrix: (Units=1/GPa)
#
#
# Indices 1 2 3 4 5 6 
#
# 1 0.010072 -0.002172 -0.003492 0.000000 0.000000 0.000000
# 2 -0.002172 0.010490 -0.000756 0.000000 0.000000 0.000000
# 3 -0.003492 -0.000756 0.011368 0.000000 0.000000 0.000000
# 4 0.000000 0.000000 0.000000 0.047754 0.000000 0.000000
# 5 0.000000 0.000000 0.000000 0.000000 0.054807 0.000000
# 6 0.000000 0.000000 0.000000 0.000000 0.000000 -0.264383
#
#
# Mechanical properties :
#
#
# Convention : Reuss Voigt Hill
#
# Bulk Modulus (GPa) = 52.38222 53.60034 52.99128
# Shear Modulus (GPa) = -45.17158 23.11832 -11.02663
#
# Velocity S-wave (km/s) = -4.92205 3.52121 -2.43184
# Velocity P-wave (km/s) = 2.05141 6.72896 4.53159
#
# Compressibility (1/GPa) = 0.01909045
#
# Stress axis : x y z
#
# Youngs Moduli (GPa) = 99.28853 95.32731 87.96543
#
# Poissons Ratio (x) = 0.20707 0.30717
# Poissons Ratio (y) = 0.21567 0.06647
# Poissons Ratio (z) = 0.34671 0.07204
#
# Static dielectric constant tensor:
#      x y z
#    x 3.217570 0.000000 0.000000 
#    y 0.000000 3.552330 0.000000 
#    z 0.000000 0.000000 3.486220 
# 
# 
# High freq. dielectric constant tensor:
#      x y z
#    x 1.711490 0.000000 0.000000 
#    y 0.000000 1.727040 0.000000 
#    z 0.000000 0.000000 1.727500 
# 
# From -- ./inp_files/51831.got.cif
#   From: 2010.06.25/outbox.cif.g09.slc.cpg/sg71_26_cif.got.tgz:51831.got - 2010.06.28 04:59:45.
