data_PCOD8287658
_publ_section_title
;
Structure prediction by ZEFSAII (Michael W. Deem and Ramdas Pophale) SiO2 
 PCOD8287658
Probable space group: I M M M
;
_chemical_formula_sum "Si O2"
_cell_formula_units_Z 104
_cell_length_a 27.893716
_cell_length_b 23.066066
_cell_length_c 9.176842
_cell_angle_alpha 90.000000
_cell_angle_beta 90.000000
_cell_angle_gamma 90.000000
_cell_volume 5904.364489
_symmetry_space_group_name_H-M "I M M M"
_symmetry_group_IT_number 71
_symmetry_cell_setting 'orthorhombic'
loop_
_space_group_symop_operation_xyz
x,y,z
-x,-y,z
x,-y,-z
-x,y,-z
-x,-y,-z
x,y,-z
-x,y,z
x,-y,z
1/2+x,1/2+y,1/2+z
1/2-x,1/2-y,1/2+z
1/2+x,1/2-y,1/2-z
1/2-x,1/2+y,1/2-z
1/2-x,1/2-y,1/2-z
1/2+x,1/2+y,1/2-z
1/2-x,1/2+y,1/2+z
1/2+x,1/2-y,1/2+z
loop_
_atom_site_type_symbol
_atom_site_label
_atom_site_fract_x
_atom_site_fract_y
_atom_site_fract_z
Si Si1 0.210751 0.807100 0.664377
Si Si2 0.946060 0.937863 0.673377
Si Si3 0.944488 0.500000 0.173165
Si Si4 0.198921 0.325720 0.672086
Si Si5 0.889936 0.615922 0.831147
Si Si6 0.446113 0.769834 0.667988
Si Si7 0.105789 0.828233 0.333953
O O1 0.231334 0.804427 0.500000
O O2 0.195700 0.742181 0.716287
O O3 0.248433 0.841772 0.765568
O O4 0.161852 0.842619 0.673783
O O5 0.943700 0.934378 0.500000
O O6 0.917886 0.884112 0.742440
O O7 0.000000 0.932821 0.729475
O O8 0.924534 0.000000 0.724851
O O9 0.914170 0.443725 0.227024
O O10 0.000000 0.500000 0.233225
O O11 0.947487 0.500000 0.000000
O O12 0.196298 0.335683 0.500000
O O13 0.157872 0.365739 0.743316
O O14 0.930712 0.663987 0.808783
O O15 0.875078 0.609930 0.000000
O O16 0.444082 0.752381 0.500000
O O17 0.500000 0.762256 0.729339
O O18 0.408911 0.729775 0.751948
O O19 0.088914 0.819498 0.500000
#
# Coordination Sequence:
#
# PCOD8287658 Si02
#       7
#    16  16   8  16  16  16  16
#     4   9  18  31  48  73 102 129 163 203 246 298
#     4   8  14  25  43  68  96 125 157 192 232 278
#     4   9  18  34  57  81 103 135 181 223 260 313
#     4  10  19  32  51  74 100 130 163 202 252 307
#     4  10  19  33  54  76 101 133 170 213 258 304
#     4  10  20  31  45  71 105 134 160 197 248 302
#     4  10  18  30  49  73  98 127 163 205 248 290
#
# _framework density 17.614089
#
# number of rings (size 3 to 8) (size 9 to 14) (size 15 to 20)
#    0.000    2.538    1.538    1.846    0.000    4.000 
#    0.000    0.385    1.692    2.308    0.000    2.154 
#    0.000    0.000    0.000    0.000    0.000    0.000 
#
# Total GULP energy -644393.235144 kJ/mol
# GULP energy per Si atom -12392.177599 kJ/mol
# Density = 1.757400 g / cm^3
# Si number density = 17.614089 Si / 1000 Ang^3
#
#
#
# Elastic Constant Matrix: (Units=GPa)
#
#
# Indices 1 2 3 4 5 6 
#
# 1 113.0155 52.6105 42.9795 0.0000 0.0000 0.0000
# 2 52.6105 100.6047 32.3807 0.0000 0.0000 0.0000
# 3 42.9795 32.3807 51.7263 0.0000 0.0000 0.0000
# 4 0.0000 0.0000 0.0000 15.2019 0.0000 0.0000
# 5 0.0000 0.0000 0.0000 0.0000 23.6960 0.0000
# 6 0.0000 0.0000 0.0000 0.0000 0.0000 28.1329
#
#
#
# Elastic Compliance Matrix: (Units=1/GPa)
#
#
# Indices 1 2 3 4 5 6 
#
# 1 0.014476 -0.004632 -0.009129 0.000000 0.000000 0.000000
# 2 -0.004632 0.013930 -0.004871 0.000000 0.000000 0.000000
# 3 -0.009129 -0.004871 0.029967 0.000000 0.000000 0.000000
# 4 0.000000 0.000000 0.000000 0.065781 0.000000 0.000000
# 5 0.000000 0.000000 0.000000 0.000000 0.042201 0.000000
# 6 0.000000 0.000000 0.000000 0.000000 0.000000 0.035546
#
#
# Mechanical properties :
#
#
# Convention : Reuss Voigt Hill
#
# Bulk Modulus (GPa) = 47.37303 57.92089 52.64696
# Shear Modulus (GPa) = 20.30848 22.56453 21.43650
#
# Velocity S-wave (km/s) = 3.39922 3.58306 3.49235
# Velocity P-wave (km/s) = 6.50843 7.07619 6.79824
#
# Compressibility (1/GPa) = 0.02110906
#
# Stress axis : x y z
#
# Youngs Moduli (GPa) = 69.07852 71.78670 33.36989
#
# Poissons Ratio (x) = 0.33252 0.30462
# Poissons Ratio (y) = 0.31998 0.16256
# Poissons Ratio (z) = 0.63060 0.34971
#
# Static dielectric constant tensor:
#      x y z
#    x 3.403540 0.000000 0.000000 
#    y 0.000000 3.386780 0.000000 
#    z 0.000000 0.000000 3.028140 
# 
# 
# High freq. dielectric constant tensor:
#      x y z
#    x 1.687440 0.000000 0.000000 
#    y 0.000000 1.667300 0.000000 
#    z 0.000000 0.000000 1.651160 
# 
# From -- ./inp_files/17230.got.cif
#   From: 2010.06.25/outbox.cif.g09.slc.cpg/sg71_9_cif.got.tgz:17230.got - 2010.06.28 04:59:45.
