data_PCOD8287772
_publ_section_title
;
Structure prediction by ZEFSAII (Michael W. Deem and Ramdas Pophale) SiO2 
 PCOD8287772
Probable space group: I M M M
;
_chemical_formula_sum "Si O2"
_cell_formula_units_Z 48
_cell_length_a 12.660915
_cell_length_b 19.234812
_cell_length_c 12.676335
_cell_angle_alpha 90.000000
_cell_angle_beta 90.000000
_cell_angle_gamma 90.000000
_cell_volume 3087.071916
_symmetry_space_group_name_H-M "I M M M"
_symmetry_group_IT_number 71
_symmetry_cell_setting 'orthorhombic'
loop_
_space_group_symop_operation_xyz
x,y,z
-x,-y,z
x,-y,-z
-x,y,-z
-x,-y,-z
x,y,-z
-x,y,z
x,-y,z
1/2+x,1/2+y,1/2+z
1/2-x,1/2-y,1/2+z
1/2+x,1/2-y,1/2-z
1/2-x,1/2+y,1/2-z
1/2-x,1/2-y,1/2-z
1/2+x,1/2+y,1/2-z
1/2-x,1/2+y,1/2+z
1/2+x,1/2-y,1/2+z
loop_
_atom_site_type_symbol
_atom_site_label
_atom_site_fract_x
_atom_site_fract_y
_atom_site_fract_z
Si Si1 0.124522 0.078734 0.500000
Si Si2 0.124863 0.681479 0.681557
Si Si3 0.749899 0.682600 0.884844
Si Si4 0.124930 0.577954 0.500000
O O1 0.170466 0.116830 0.395449
O O2 0.000000 0.084302 0.500000
O O3 0.164273 0.000000 0.500000
O O4 0.160035 0.663747 0.800581
O O5 0.180133 0.751869 0.646868
O O6 0.161987 0.619251 0.604513
O O7 0.000000 0.692282 0.676788
O O8 0.803356 0.696916 0.000000
O O9 0.174315 0.500000 0.500000
O O10 0.000000 0.572361 0.500000
#
# Coordination Sequence:
#
# PCOD8287772 Si02
#       4
#     8  16  16   8
#     4   9  17  31  50  69  92 122 155 193 234 277
#     4  10  18  31  50  69  95 124 155 196 235 277
#     4   9  19  31  48  71  94 121 159 194 236 277
#     4   9  17  29  47  68  90 122 156 182 221 276
#
# _framework density 15.548715
#
# number of rings (size 3 to 8) (size 9 to 14) (size 15 to 20)
#    1.000    1.667    1.667    1.000    0.000    2.000 
#    0.000    0.000    0.000    1.000    0.000    0.000 
#    0.000   10.667    0.000    0.000    0.000    0.000 
#
# Total GULP energy -297371.379489 kJ/mol
# GULP energy per Si atom -12390.474145 kJ/mol
# Density = 1.551333 g / cm^3
# Si number density = 15.548715 Si / 1000 Ang^3
#
#
#
# Elastic Constant Matrix: (Units=GPa)
#
#
# Indices 1 2 3 4 5 6 
#
# 1 32.0217 21.4892 35.4533 0.0001 0.0000 0.0000
# 2 21.4892 112.5923 43.7611 0.0001 0.0000 0.0001
# 3 35.4533 43.7611 137.9191 0.0003 -0.0001 0.0001
# 4 0.0001 0.0001 0.0003 7.0988 0.0000 0.0001
# 5 0.0000 0.0000 -0.0001 0.0000 23.8936 0.0000
# 6 0.0000 0.0001 0.0001 0.0001 0.0000 14.4330
#
#
#
# Elastic Compliance Matrix: (Units=1/GPa)
#
#
# Indices 1 2 3 4 5 6 
#
# 1 0.045775 -0.004749 -0.010260 0.000000 0.000000 0.000000
# 2 -0.004749 0.010624 -0.002150 0.000000 0.000000 0.000000
# 3 -0.010260 -0.002150 0.010570 0.000000 0.000000 0.000000
# 4 0.000000 0.000000 0.000000 0.140869 0.000000 -0.000001
# 5 0.000000 0.000000 0.000000 0.000000 0.041852 0.000000
# 6 0.000000 0.000000 0.000000 -0.000001 0.000000 0.069286
#
#
# Mechanical properties :
#
#
# Convention : Reuss Voigt Hill
#
# Bulk Modulus (GPa) = 30.62686 53.77117 42.19902
# Shear Modulus (GPa) = 13.72955 21.20704 17.46829
#
# Velocity S-wave (km/s) = 2.97476 3.69712 3.35544
# Velocity P-wave (km/s) = 5.61596 7.27203 6.49698
#
# Compressibility (1/GPa) = 0.03265108
#
# Stress axis : x y z
#
# Youngs Moduli (GPa) = 21.84585 94.12978 94.60462
#
# Poissons Ratio (x) = 0.44700 0.97066
# Poissons Ratio (y) = 0.10374 0.20341
# Poissons Ratio (z) = 0.22414 0.20239
#
# Static dielectric constant tensor:
#      x y z
#    x 2.690360 0.000000 0.000000 
#    y 0.000000 3.125960 0.000000 
#    z 0.000000 0.000000 3.184570 
# 
# 
# High freq. dielectric constant tensor:
#      x y z
#    x 1.568950 0.000000 0.000000 
#    y 0.000000 1.602560 0.000000 
#    z 0.000000 0.000000 1.599530 
# 
# From -- ./inp_files/21358.got.cif
#   From: 2010.06.25/outbox.cif.g09.slc.cpg/sg71_11_cif.got.tgz:21358.got - 2010.06.28 04:59:45.
