data_PCOD8287562
_publ_section_title
;
Structure prediction by ZEFSAII (Michael W. Deem and Ramdas Pophale) SiO2 
 PCOD8287562
Probable space group: I M M M
;
_chemical_formula_sum "Si O2"
_cell_formula_units_Z 80
_cell_length_a 8.831204
_cell_length_b 32.895022
_cell_length_c 19.193652
_cell_angle_alpha 90.000000
_cell_angle_beta 90.000000
_cell_angle_gamma 90.000000
_cell_volume 5575.806767
_symmetry_space_group_name_H-M "I M M M"
_symmetry_group_IT_number 71
_symmetry_cell_setting 'orthorhombic'
loop_
_space_group_symop_operation_xyz
x,y,z
-x,-y,z
x,-y,-z
-x,y,-z
-x,-y,-z
x,y,-z
-x,y,z
x,-y,z
1/2+x,1/2+y,1/2+z
1/2-x,1/2-y,1/2+z
1/2+x,1/2-y,1/2-z
1/2-x,1/2+y,1/2-z
1/2-x,1/2-y,1/2-z
1/2+x,1/2+y,1/2-z
1/2-x,1/2+y,1/2+z
1/2+x,1/2-y,1/2+z
loop_
_atom_site_type_symbol
_atom_site_label
_atom_site_fract_x
_atom_site_fract_y
_atom_site_fract_z
Si Si1 0.327865 0.751660 0.000000
Si Si2 0.321661 0.122577 0.867341
Si Si3 0.673812 0.262226 0.151417
Si Si4 0.822709 0.835513 0.000000
Si Si5 0.676681 0.313117 0.279975
Si Si6 0.323095 0.546072 0.419691
O O1 0.301851 0.725122 0.929683
O O2 0.208710 0.787869 0.000000
O O3 0.500000 0.769074 0.000000
O O4 0.500000 0.124989 0.871909
O O5 0.265319 0.145282 0.797325
O O6 0.269294 0.075603 0.868253
O O7 0.248652 0.145212 0.932042
O O8 0.500000 0.249853 0.166286
O O9 0.717832 0.300275 0.200562
O O10 0.775337 0.223061 0.168073
O O11 0.000000 0.844406 0.000000
O O12 0.500000 0.321331 0.290355
O O13 0.284641 0.556582 0.500000
O O14 0.500000 0.552018 0.406067
O O15 0.273962 0.500000 0.402802
#
# Coordination Sequence:
#
# PCOD8287562 Si02
#       6
#     8  16  16   8  16  16
#     4  10  18  30  46  63  83 106 139 183 224 257
#     4  12  22  31  44  62  84 112 143 180 216 249
#     4   9  18  30  44  61  83 109 139 179 221 255
#     4  12  22  30  41  61  82 108 146 182 215 254
#     4  10  19  30  43  60  83 112 143 175 213 256
#     4   9  18  32  48  64  83 108 138 174 214 253
#
# _framework density 14.3477
#
# number of rings (size 3 to 8) (size 9 to 14) (size 15 to 20)
#    0.000    1.800    3.000    3.900    0.000    1.200 
#    0.000    1.000    0.000    0.000    0.000    0.000 
#    0.000    0.000    0.000    0.900    0.000   20.600 
#
# Total GULP energy -495911.447005 kJ/mol
# GULP energy per Si atom -12397.786175 kJ/mol
# Density = 1.431504 g / cm^3
# Si number density = 14.347700 Si / 1000 Ang^3
#
#
#
# Elastic Constant Matrix: (Units=GPa)
#
#
# Indices 1 2 3 4 5 6 
#
# 1 86.1607 44.6807 31.6348 0.0000 0.0000 0.0000
# 2 44.6807 89.2885 45.7667 0.0000 0.0000 0.0000
# 3 31.6348 45.7667 95.0099 0.0002 0.0000 0.0000
# 4 0.0000 0.0000 0.0002 29.2852 0.0000 0.0000
# 5 0.0000 0.0000 0.0000 0.0000 14.6623 0.0000
# 6 0.0000 0.0000 0.0000 0.0000 0.0000 22.2397
#
#
#
# Elastic Compliance Matrix: (Units=1/GPa)
#
#
# Indices 1 2 3 4 5 6 
#
# 1 0.015940 -0.006979 -0.001945 0.000000 0.000000 0.000000
# 2 -0.006979 0.017927 -0.006312 0.000000 0.000000 0.000000
# 3 -0.001945 -0.006312 0.014213 0.000000 0.000000 0.000000
# 4 0.000000 0.000000 0.000000 0.034147 0.000000 0.000000
# 5 0.000000 0.000000 0.000000 0.000000 0.068202 0.000000
# 6 0.000000 0.000000 0.000000 0.000000 0.000000 0.044965
#
#
# Mechanical properties :
#
#
# Convention : Reuss Voigt Hill
#
# Bulk Modulus (GPa) = 56.79392 57.18041 56.98716
# Shear Modulus (GPa) = 21.57621 23.12923 22.35272
#
# Velocity S-wave (km/s) = 3.88211 4.01939 3.95134
# Velocity P-wave (km/s) = 7.73073 7.84095 7.78604
#
# Compressibility (1/GPa) = 0.01760752
#
# Stress axis : x y z
#
# Youngs Moduli (GPa) = 62.73626 55.78050 70.35594
#
# Poissons Ratio (x) = 0.38930 0.13687
# Poissons Ratio (y) = 0.43785 0.44408
# Poissons Ratio (z) = 0.12205 0.35208
#
# Static dielectric constant tensor:
#      x y z
#    x 2.879990 0.000000 0.000000 
#    y 0.000000 2.784330 0.000000 
#    z 0.000000 0.000000 2.865680 
# 
# 
# High freq. dielectric constant tensor:
#      x y z
#    x 1.559630 0.000000 0.000000 
#    y 0.000000 1.520120 0.000000 
#    z 0.000000 0.000000 1.525170 
# 
# From -- ./inp_files/11292.got.cif
#   From: 2010.06.25/outbox.cif.g09.slc.cpg/sg71_6_cif.got.tgz:11292.got - 2010.06.28 04:59:45.
