data_PCOD8287339
_publ_section_title
;
Structure prediction by ZEFSAII (Michael W. Deem and Ramdas Pophale) SiO2 
 PCOD8287339
Probable space group: I M M M
;
_chemical_formula_sum "Si O2"
_cell_formula_units_Z 88
_cell_length_a 27.205862
_cell_length_b 23.246398
_cell_length_c 7.706114
_cell_angle_alpha 90.000000
_cell_angle_beta 90.000000
_cell_angle_gamma 90.000000
_cell_volume 4873.641607
_symmetry_space_group_name_H-M "I M M M"
_symmetry_group_IT_number 71
_symmetry_cell_setting 'orthorhombic'
loop_
_space_group_symop_operation_xyz
x,y,z
-x,-y,z
x,-y,-z
-x,y,-z
-x,-y,-z
x,y,-z
-x,y,z
x,-y,z
1/2+x,1/2+y,1/2+z
1/2-x,1/2-y,1/2+z
1/2+x,1/2-y,1/2-z
1/2-x,1/2+y,1/2-z
1/2-x,1/2-y,1/2-z
1/2+x,1/2+y,1/2-z
1/2-x,1/2+y,1/2+z
1/2+x,1/2-y,1/2+z
loop_
_atom_site_type_symbol
_atom_site_label
_atom_site_fract_x
_atom_site_fract_y
_atom_site_fract_z
Si Si1 0.710019 0.568253 0.308074
Si Si2 0.442563 0.258119 0.698464
Si Si3 0.641226 0.431570 0.000000
Si Si4 0.000000 0.435797 0.207846
Si Si5 0.557016 0.655057 0.000000
Si Si6 0.589347 0.137004 0.698352
Si Si7 0.819712 0.564411 0.295816
O O1 0.697663 0.593437 0.500000
O O2 0.708871 0.500000 0.317629
O O3 0.670673 0.590723 0.169182
O O4 0.764937 0.586265 0.248740
O O5 0.428152 0.274930 0.500000
O O6 0.500000 0.243061 0.710622
O O7 0.429064 0.310169 0.826128
O O8 0.413063 0.202174 0.770778
O O9 0.634951 0.500000 0.000000
O O10 0.587586 0.403789 0.000000
O O11 0.048385 0.404171 0.284677
O O12 0.000000 0.500000 0.284077
O O13 0.000000 0.437832 0.000000
O O14 0.500000 0.637689 0.000000
O O15 0.574163 0.143179 0.500000
O O16 0.643181 0.110239 0.715427
O O17 0.826799 0.562643 0.500000
O O18 0.829161 0.500000 0.219873
#
# Coordination Sequence:
#
# PCOD8287339 Si02
#       7
#    16  16   8   8   8  16  16
#     4   8  16  32  52  76 107 140 173 207 247 305
#     4   9  18  35  54  73 100 138 187 223 250 298
#     4  10  20  35  60  88 110 133 162 196 253 329
#     4   9  16  26  39  63 101 135 169 222 280 318
#     4  10  22  37  58  86 108 134 165 207 258 310
#     4  10  18  28  46  69  94 136 185 227 269 306
#     4   9  18  30  44  70 104 136 175 224 271 311
#
# _framework density 18.056315000000001
#
# number of rings (size 3 to 8) (size 9 to 14) (size 15 to 20)
#    0.000    2.818    0.909    1.636    2.545    2.000 
#    0.000    0.455    0.000    2.727    0.000    5.091 
#    0.000    0.000    0.000    0.000    0.000    0.000 
#
# Total GULP energy -545381.351196 kJ/mol
# GULP energy per Si atom -12395.030709 kJ/mol
# Density = 1.801522 g / cm^3
# Si number density = 18.056315 Si / 1000 Ang^3
#
#
#
# Elastic Constant Matrix: (Units=GPa)
#
#
# Indices 1 2 3 4 5 6 
#
# 1 104.0471 52.5403 38.9459 0.0000 0.0000 0.0000
# 2 52.5403 66.3277 32.1042 0.0000 0.0000 0.0000
# 3 38.9459 32.1042 73.9813 0.0000 0.0000 0.0000
# 4 0.0000 0.0000 0.0000 15.7809 0.0000 0.0000
# 5 0.0000 0.0000 0.0000 0.0000 16.7844 0.0000
# 6 0.0000 0.0000 0.0000 0.0000 0.0000 21.6659
#
#
#
# Elastic Compliance Matrix: (Units=1/GPa)
#
#
# Indices 1 2 3 4 5 6 
#
# 1 0.016863 -0.011470 -0.003900 0.000000 0.000000 0.000000
# 2 -0.011470 0.026887 -0.005630 0.000000 0.000000 0.000000
# 3 -0.003900 -0.005630 0.018013 0.000000 0.000000 0.000000
# 4 0.000000 0.000000 0.000000 0.063368 0.000000 0.000000
# 5 0.000000 0.000000 0.000000 0.000000 0.059579 0.000000
# 6 0.000000 0.000000 0.000000 0.000000 0.000000 0.046156
#
#
# Mechanical properties :
#
#
# Convention : Reuss Voigt Hill
#
# Bulk Modulus (GPa) = 50.59618 54.61521 52.60569
# Shear Modulus (GPa) = 17.89219 18.89727 18.39473
#
# Velocity S-wave (km/s) = 3.15129 3.23859 3.19524
# Velocity P-wave (km/s) = 6.42829 6.65563 6.54295
#
# Compressibility (1/GPa) = 0.01976434
#
# Stress axis : x y z
#
# Youngs Moduli (GPa) = 59.30274 37.19245 55.51621
#
# Poissons Ratio (x) = 0.42659 0.21649
# Poissons Ratio (y) = 0.68020 0.31253
# Poissons Ratio (z) = 0.23126 0.20938
#
# Static dielectric constant tensor:
#      x y z
#    x 3.246210 0.000000 0.000000 
#    y 0.000000 3.056650 0.000000 
#    z 0.000000 0.000000 3.500790 
# 
# 
# High freq. dielectric constant tensor:
#      x y z
#    x 1.685060 0.000000 0.000000 
#    y 0.000000 1.663890 0.000000 
#    z 0.000000 0.000000 1.699980 
# 
# From -- ./inp_files/12600.got.cif
#   From: 2010.06.25/outbox.cif.g09.slc.cpg/sg71_7_cif.got.tgz:12600.got - 2010.06.28 04:59:45.
