data_PCOD8287291
_publ_section_title
;
Structure prediction by ZEFSAII (Michael W. Deem and Ramdas Pophale) SiO2 
 PCOD8287291
Probable space group: I M M M
;
_chemical_formula_sum "Si O2"
_cell_formula_units_Z 88
_cell_length_a 14.362812
_cell_length_b 20.398823
_cell_length_c 18.043054
_cell_angle_alpha 90.000000
_cell_angle_beta 90.000000
_cell_angle_gamma 90.000000
_cell_volume 5286.334429
_symmetry_space_group_name_H-M "I M M M"
_symmetry_group_IT_number 71
_symmetry_cell_setting 'orthorhombic'
loop_
_space_group_symop_operation_xyz
x,y,z
-x,-y,z
x,-y,-z
-x,y,-z
-x,-y,-z
x,y,-z
-x,y,z
x,-y,z
1/2+x,1/2+y,1/2+z
1/2-x,1/2-y,1/2+z
1/2+x,1/2-y,1/2-z
1/2-x,1/2+y,1/2-z
1/2-x,1/2-y,1/2-z
1/2+x,1/2+y,1/2-z
1/2-x,1/2+y,1/2+z
1/2+x,1/2-y,1/2+z
loop_
_atom_site_type_symbol
_atom_site_label
_atom_site_fract_x
_atom_site_fract_y
_atom_site_fract_z
Si Si1 0.720865 0.197668 0.412397
Si Si2 0.608804 0.429604 0.000000
Si Si3 0.604956 0.927090 0.587986
Si Si4 0.890929 0.072628 0.795299
Si Si5 0.890825 0.173267 0.084467
Si Si6 0.607733 0.649088 0.854608
O O1 0.741205 0.195060 0.500000
O O2 0.671196 0.131138 0.382526
O O3 0.656541 0.258961 0.392529
O O4 0.817626 0.207895 0.365136
O O5 0.638040 0.394008 0.074724
O O6 0.659830 0.500000 0.000000
O O7 0.500000 0.439838 0.000000
O O8 0.604625 0.923779 0.500000
O O9 0.500000 0.914631 0.617304
O O10 0.638500 0.000000 0.614124
O O11 0.850761 0.115699 0.863088
O O12 0.870202 0.107951 0.718108
O O13 0.000000 0.064718 0.806271
O O14 0.844948 0.000000 0.795994
O O15 0.000000 0.183795 0.097251
O O16 0.868504 0.153418 0.000000
O O17 0.500000 0.673160 0.857515
#
# Coordination Sequence:
#
# PCOD8287291 Si02
#       6
#    16   8  16  16  16  16
#     4  10  18  28  43  65  90 121 154 189 222 266
#     4   9  16  26  40  58  83 117 152 181 211 249
#     4   8  14  24  37  55  81 113 149 187 222 257
#     4   9  18  32  48  67  92 120 150 187 231 278
#     4   9  18  32  50  70  91 116 149 190 236 280
#     4  10  19  30  43  63  92 125 154 184 219 260
#
# _framework density 16.646695999999999
#
# number of rings (size 3 to 8) (size 9 to 14) (size 15 to 20)
#    0.000    2.818    0.909    1.636    0.000    6.909 
#    0.000    1.818    0.000    0.000    0.000    0.000 
#    0.000    2.182    0.000    4.000    0.000    0.182 
#
# Total GULP energy -545169.398317 kJ/mol
# GULP energy per Si atom -12390.213598 kJ/mol
# Density = 1.660881 g / cm^3
# Si number density = 16.646696 Si / 1000 Ang^3
#
#
#
# Elastic Constant Matrix: (Units=GPa)
#
#
# Indices 1 2 3 4 5 6 
#
# 1 65.0853 36.9302 28.2493 0.0000 0.0000 0.0000
# 2 36.9302 84.5110 51.5366 -0.0001 0.0000 0.0000
# 3 28.2493 51.5366 84.9708 -0.0001 0.0000 0.0000
# 4 0.0000 -0.0001 -0.0001 13.4615 0.0000 0.0000
# 5 0.0000 0.0000 0.0000 0.0000 12.9986 0.0000
# 6 0.0000 0.0000 0.0000 0.0000 0.0000 12.1216
#
#
#
# Elastic Compliance Matrix: (Units=1/GPa)
#
#
# Indices 1 2 3 4 5 6 
#
# 1 0.020689 -0.007691 -0.002214 0.000000 0.000000 0.000000
# 2 -0.007691 0.021637 -0.010567 0.000000 0.000000 0.000000
# 3 -0.002214 -0.010567 0.018914 0.000000 0.000000 0.000000
# 4 0.000000 0.000000 0.000000 0.074286 0.000000 0.000000
# 5 0.000000 0.000000 0.000000 0.000000 0.076932 0.000000
# 6 0.000000 0.000000 0.000000 0.000000 0.000000 0.082497
#
#
# Mechanical properties :
#
#
# Convention : Reuss Voigt Hill
#
# Bulk Modulus (GPa) = 49.26645 51.99992 50.63319
# Shear Modulus (GPa) = 14.59159 15.57306 15.08232
#
# Velocity S-wave (km/s) = 2.96386 3.06192 3.01329
# Velocity P-wave (km/s) = 6.43212 6.61859 6.52602
#
# Compressibility (1/GPa) = 0.02029779
#
# Stress axis : x y z
#
# Youngs Moduli (GPa) = 48.33437 46.21631 52.87226
#
# Poissons Ratio (x) = 0.35545 0.11703
# Poissons Ratio (y) = 0.37174 0.55868
# Poissons Ratio (z) = 0.10699 0.48835
#
# Static dielectric constant tensor:
#      x y z
#    x 3.132800 0.000000 0.000000 
#    y 0.000000 3.373350 0.000000 
#    z 0.000000 0.000000 2.974450 
# 
# 
# High freq. dielectric constant tensor:
#      x y z
#    x 1.628480 0.000000 0.000000 
#    y 0.000000 1.628470 0.000000 
#    z 0.000000 0.000000 1.615540 
# 
# From -- ./inp_files/36610.got.cif
#   From: 2010.06.25/outbox.cif.g09.slc.cpg/sg71_19_cif.got.tgz:36610.got - 2010.06.28 04:59:45.
