data_PCOD8287917
_publ_section_title
;
Structure prediction by ZEFSAII (Michael W. Deem and Ramdas Pophale) SiO2 
 PCOD8287917
Probable space group: I M M M
;
_chemical_formula_sum "Si O2"
_cell_formula_units_Z 112
_cell_length_a 22.217191
_cell_length_b 26.590992
_cell_length_c 10.393401
_cell_angle_alpha 90.000000
_cell_angle_beta 90.000000
_cell_angle_gamma 90.000000
_cell_volume 6140.183802
_symmetry_space_group_name_H-M "I M M M"
_symmetry_group_IT_number 71
_symmetry_cell_setting 'orthorhombic'
loop_
_space_group_symop_operation_xyz
x,y,z
-x,-y,z
x,-y,-z
-x,y,-z
-x,-y,-z
x,y,-z
-x,y,z
x,-y,z
1/2+x,1/2+y,1/2+z
1/2-x,1/2-y,1/2+z
1/2+x,1/2-y,1/2-z
1/2-x,1/2+y,1/2-z
1/2-x,1/2-y,1/2-z
1/2+x,1/2+y,1/2-z
1/2-x,1/2+y,1/2+z
1/2+x,1/2-y,1/2+z
loop_
_atom_site_type_symbol
_atom_site_label
_atom_site_fract_x
_atom_site_fract_y
_atom_site_fract_z
Si Si1 0.331490 0.054318 0.351642
Si Si2 0.336891 0.301412 0.146470
Si Si3 0.250343 0.627065 0.288813
Si Si4 0.430000 0.614667 0.852106
Si Si5 0.930463 0.369419 0.852243
Si Si6 0.144875 0.057636 0.141601
Si Si7 0.361631 0.811398 0.856483
O O1 0.326757 0.043933 0.500000
O O2 0.276055 0.090223 0.318818
O O3 0.395263 0.079643 0.317271
O O4 0.327967 0.000000 0.279791
O O5 0.284189 0.325893 0.228098
O O6 0.399843 0.330789 0.168071
O O7 0.342813 0.243971 0.189727
O O8 0.316072 0.304680 0.000000
O O9 0.296120 0.592897 0.370016
O O10 0.195304 0.650898 0.368582
O O11 0.500000 0.619824 0.818482
O O12 0.400080 0.574900 0.754631
O O13 0.420594 0.596194 0.000000
O O14 0.909887 0.327309 0.750865
O O15 0.000000 0.381000 0.832666
O O16 0.916688 0.352132 0.000000
O O17 0.163606 0.000000 0.170760
O O18 0.113647 0.061150 0.000000
O O19 0.390825 0.809495 0.000000
#
# Coordination Sequence:
#
# PCOD8287917 Si02
#       7
#    16  16  16  16  16  16  16
#     4   9  17  29  49  77 103 129 164 205 248 293
#     4   9  18  32  51  76 103 132 166 204 248 295
#     4  10  18  32  50  73 103 135 164 202 245 295
#     4   9  19  36  55  74  98 128 164 207 251 294
#     4   9  19  35  52  72 101 134 167 206 251 296
#     4  10  21  35  51  73 102 135 167 201 245 295
#     4  10  20  33  52  77 102 132 169 206 246 294
#
# _framework density 18.240496
#
# number of rings (size 3 to 8) (size 9 to 14) (size 15 to 20)
#    0.000    2.571    0.000    1.714    0.000    3.143 
#    0.000    7.857    0.000    3.857    0.000    4.000 
#    0.000    0.000    0.000    0.000    0.000    0.000 
#
# Total GULP energy -694014.013946 kJ/mol
# GULP energy per Si atom -12393.107392 kJ/mol
# Density = 1.819898 g / cm^3
# Si number density = 18.240496 Si / 1000 Ang^3
#
#
#
# Elastic Constant Matrix: (Units=GPa)
#
#
# Indices 1 2 3 4 5 6 
#
# 1 85.3115 27.4470 35.2488 0.0000 0.0000 0.0000
# 2 27.4470 118.2795 41.1355 0.0000 0.0000 0.0000
# 3 35.2488 41.1355 72.9022 0.0000 0.0000 0.0000
# 4 0.0000 0.0000 0.0000 24.7111 0.0000 0.0000
# 5 0.0000 0.0000 0.0000 0.0000 21.3369 0.0000
# 6 0.0000 0.0000 0.0000 0.0000 0.0000 149.5402
#
#
#
# Elastic Compliance Matrix: (Units=1/GPa)
#
#
# Indices 1 2 3 4 5 6 
#
# 1 0.014778 -0.001175 -0.006482 0.000000 0.000000 0.000000
# 2 -0.001175 0.010612 -0.005420 0.000000 0.000000 0.000000
# 3 -0.006482 -0.005420 0.019910 0.000000 0.000000 0.000000
# 4 0.000000 0.000000 0.000000 0.040468 0.000000 0.000000
# 5 0.000000 0.000000 0.000000 0.000000 0.046867 0.000000
# 6 0.000000 0.000000 0.000000 0.000000 0.000000 0.006687
#
#
# Mechanical properties :
#
#
# Convention : Reuss Voigt Hill
#
# Bulk Modulus (GPa) = 52.23182 53.79511 53.01346
# Shear Modulus (GPa) = 29.09382 50.62843 39.86113
#
# Velocity S-wave (km/s) = 3.99809 5.27412 4.67980
# Velocity P-wave (km/s) = 7.07179 8.16361 7.63724
#
# Compressibility (1/GPa) = 0.01914542
#
# Stress axis : x y z
#
# Youngs Moduli (GPa) = 67.66767 94.23184 50.22721
#
# Poissons Ratio (x) = 0.11071 0.32559
# Poissons Ratio (y) = 0.07950 0.27223
# Poissons Ratio (z) = 0.43865 0.51073
#
# Static dielectric constant tensor:
#      x y z
#    x 3.271660 0.000000 0.000000 
#    y 0.000000 3.543060 0.000000 
#    z 0.000000 0.000000 3.302790 
# 
# 
# High freq. dielectric constant tensor:
#      x y z
#    x 1.698140 0.000000 0.000000 
#    y 0.000000 1.712990 0.000000 
#    z 0.000000 0.000000 1.701830 
# 
# From -- ./inp_files/26267.got.cif
#   From: 2010.06.25/outbox.cif.g09.slc.cpg/sg71_14_cif.got.tgz:26267.got - 2010.06.28 04:59:45.
