data_PCOD8287226
_publ_section_title
;
Structure prediction by ZEFSAII (Michael W. Deem and Ramdas Pophale) SiO2 
 PCOD8287226
Probable space group: I M M M
;
_chemical_formula_sum "Si O2"
_cell_formula_units_Z 96
_cell_length_a 13.952264
_cell_length_b 25.061938
_cell_length_c 17.059988
_cell_angle_alpha 90.000000
_cell_angle_beta 90.000000
_cell_angle_gamma 90.000000
_cell_volume 5965.379231
_symmetry_space_group_name_H-M "I M M M"
_symmetry_group_IT_number 71
_symmetry_cell_setting 'orthorhombic'
loop_
_space_group_symop_operation_xyz
x,y,z
-x,-y,z
x,-y,-z
-x,y,-z
-x,-y,-z
x,y,-z
-x,y,z
x,-y,z
1/2+x,1/2+y,1/2+z
1/2-x,1/2-y,1/2+z
1/2+x,1/2-y,1/2-z
1/2-x,1/2+y,1/2-z
1/2-x,1/2-y,1/2-z
1/2+x,1/2+y,1/2-z
1/2-x,1/2+y,1/2+z
1/2+x,1/2-y,1/2+z
loop_
_atom_site_type_symbol
_atom_site_label
_atom_site_fract_x
_atom_site_fract_y
_atom_site_fract_z
Si Si1 0.388371 0.774678 0.085131
Si Si2 0.389049 0.344266 0.320158
Si Si3 0.700390 0.559919 0.407665
Si Si4 0.890566 0.265855 0.907549
Si Si5 0.894677 0.608961 0.406902
Si Si6 0.273517 0.703613 0.191740
O O1 0.500000 0.770040 0.074241
O O2 0.364860 0.832176 0.125480
O O3 0.355764 0.724608 0.134787
O O4 0.337520 0.771502 0.000000
O O5 0.500000 0.342834 0.294058
O O6 0.370263 0.399100 0.365618
O O7 0.366678 0.294040 0.377298
O O8 0.320052 0.344349 0.242686
O O9 0.689853 0.568873 0.500000
O O10 0.670764 0.500000 0.383750
O O11 0.811597 0.568168 0.381591
O O12 0.822198 0.308217 0.860600
O O13 0.000000 0.281417 0.888652
O O14 0.870280 0.268551 0.000000
O O15 0.902416 0.613649 0.500000
O O16 0.000000 0.591096 0.374281
O O17 0.250000 0.750000 0.250000
#
# Coordination Sequence:
#
# PCOD8287226 Si02
#       6
#    16  16  16  16  16  16
#     4   9  16  26  42  63  86 114 147 178 209 252
#     4  10  20  32  44  61  88 120 152 186 226 266
#     4  10  20  32  46  63  82 111 156 200 229 255
#     4   9  17  29  46  67  91 120 150 178 212 260
#     4   8  14  25  41  61  85 111 138 173 217 258
#     4  10  18  27  41  61  88 119 146 176 213 260
#
# _framework density 16.092858
#
# number of rings (size 3 to 8) (size 9 to 14) (size 15 to 20)
#    0.000    2.667    0.000    4.500    0.000    3.667 
#    0.000    3.333    0.000    0.000    0.000    0.000 
#    0.000    2.667    0.000   10.000    0.000    0.167 
#
# Total GULP energy -594656.055388 kJ/mol
# GULP energy per Si atom -12388.667821 kJ/mol
# Density = 1.605623 g / cm^3
# Si number density = 16.092858 Si / 1000 Ang^3
#
#
#
# Elastic Constant Matrix: (Units=GPa)
#
#
# Indices 1 2 3 4 5 6 
#
# 1 78.6949 30.6717 40.0388 0.0000 0.0000 0.0000
# 2 30.6717 53.7055 28.7888 -0.0001 0.0000 0.0000
# 3 40.0388 28.7888 70.3660 -0.0001 0.0000 0.0000
# 4 0.0000 -0.0001 -0.0001 19.5633 0.0000 0.0000
# 5 0.0000 0.0000 0.0000 0.0000 27.4555 0.0000
# 6 0.0000 0.0000 0.0000 0.0000 0.0000 17.4855
#
#
#
# Elastic Compliance Matrix: (Units=1/GPa)
#
#
# Indices 1 2 3 4 5 6 
#
# 1 0.019592 -0.006678 -0.008416 0.000000 0.000000 0.000000
# 2 -0.006678 0.026127 -0.006890 0.000000 0.000000 0.000000
# 3 -0.008416 -0.006890 0.021819 0.000000 0.000000 0.000000
# 4 0.000000 0.000000 0.000000 0.051116 0.000000 0.000000
# 5 0.000000 0.000000 0.000000 0.000000 0.036423 0.000000
# 6 0.000000 0.000000 0.000000 0.000000 0.000000 0.057190
#
#
# Mechanical properties :
#
#
# Convention : Reuss Voigt Hill
#
# Bulk Modulus (GPa) = 42.42463 44.64055 43.53259
# Shear Modulus (GPa) = 18.93295 19.78535 19.35915
#
# Velocity S-wave (km/s) = 3.43371 3.51015 3.47214
# Velocity P-wave (km/s) = 6.49154 6.65040 6.57145
#
# Compressibility (1/GPa) = 0.02357121
#
# Stress axis : x y z
#
# Youngs Moduli (GPa) = 51.04156 38.27465 45.83197
#
# Poissons Ratio (x) = 0.25559 0.38572
# Poissons Ratio (y) = 0.34084 0.31576
# Poissons Ratio (z) = 0.42956 0.26370
#
# Static dielectric constant tensor:
#      x y z
#    x 3.347970 0.000000 0.000000 
#    y 0.000000 2.650600 0.000000 
#    z 0.000000 0.000000 3.205430 
# 
# 
# High freq. dielectric constant tensor:
#      x y z
#    x 1.642780 0.000000 0.000000 
#    y 0.000000 1.560300 0.000000 
#    z 0.000000 0.000000 1.595140 
# 
# From -- ./inp_files/53311.got.cif
#   From: 2010.06.25/outbox.cif.g09.slc.cpg/sg71_27_cif.got.tgz:53311.got - 2010.06.28 04:59:45.
