data_PCOD8287888
_publ_section_title
;
Structure prediction by ZEFSAII (Michael W. Deem and Ramdas Pophale) SiO2 
 PCOD8287888
Probable space group: I M M M
;
_chemical_formula_sum "Si O2"
_cell_formula_units_Z 96
_cell_length_a 12.517128
_cell_length_b 18.779391
_cell_length_c 21.385229
_cell_angle_alpha 90.000000
_cell_angle_beta 90.000000
_cell_angle_gamma 90.000000
_cell_volume 5026.898345
_symmetry_space_group_name_H-M "I M M M"
_symmetry_group_IT_number 71
_symmetry_cell_setting 'orthorhombic'
loop_
_space_group_symop_operation_xyz
x,y,z
-x,-y,z
x,-y,-z
-x,y,-z
-x,-y,-z
x,y,-z
-x,y,z
x,-y,z
1/2+x,1/2+y,1/2+z
1/2-x,1/2-y,1/2+z
1/2+x,1/2-y,1/2-z
1/2-x,1/2+y,1/2-z
1/2-x,1/2-y,1/2-z
1/2+x,1/2+y,1/2-z
1/2-x,1/2+y,1/2+z
1/2+x,1/2-y,1/2+z
loop_
_atom_site_type_symbol
_atom_site_label
_atom_site_fract_x
_atom_site_fract_y
_atom_site_fract_z
Si Si1 0.229938 0.082694 0.786536
Si Si2 0.500000 0.420573 0.694022
Si Si3 0.617851 0.691760 0.071973
Si Si4 0.293625 0.082130 0.428585
Si Si5 0.500000 0.327860 0.570905
Si Si6 0.621275 0.845995 0.687301
Si Si7 0.291678 0.713940 0.630880
O O1 0.309375 0.103204 0.731444
O O2 0.242820 0.135389 0.845772
O O3 0.106133 0.095001 0.764881
O O4 0.250675 0.000000 0.805725
O O5 0.500000 0.500000 0.670575
O O6 0.500000 0.383517 0.626914
O O7 0.500000 0.687132 0.102835
O O8 0.676745 0.616256 0.081710
O O9 0.683967 0.755764 0.101904
O O10 0.606601 0.710467 0.000000
O O11 0.333388 0.092467 0.500000
O O12 0.376575 0.121425 0.382759
O O13 0.284751 0.000000 0.410415
O O14 0.500000 0.358982 0.500000
O O15 0.610735 0.284234 0.580480
O O16 0.500000 0.844382 0.711770
O O17 0.669087 0.765803 0.687563
#
# Coordination Sequence:
#
# PCOD8287888 Si02
#       7
#    16   8  16  16   8  16  16
#     4  10  21  38  59  79 106 144 182 228 277 326
#     4   8  18  37  56  80 113 141 177 227 278 328
#     4   9  18  33  53  77 107 143 180 220 269 326
#     4   9  19  35  53  77 110 144 181 230 282 327
#     4  10  18  31  58  86 111 143 179 221 276 332
#     4  11  22  37  55  80 110 145 186 225 271 331
#     4  10  20  37  54  82 112 141 181 227 276 324
#
# _framework density 19.097263000000002
#
# number of rings (size 3 to 8) (size 9 to 14) (size 15 to 20)
#    0.000    2.333    0.833    1.500    0.000    3.500 
#    6.000    2.500    0.000    1.500    0.000    1.167 
#    0.000    0.000    0.000    0.000    0.000    0.000 
#
# Total GULP energy -594740.467550 kJ/mol
# GULP energy per Si atom -12390.426407 kJ/mol
# Density = 1.905380 g / cm^3
# Si number density = 19.097263 Si / 1000 Ang^3
#
#
#
# Elastic Constant Matrix: (Units=GPa)
#
#
# Indices 1 2 3 4 5 6 
#
# 1 104.6981 28.4464 31.8489 0.0000 0.0000 0.0000
# 2 28.4464 117.3277 29.5689 0.0000 0.0000 0.0000
# 3 31.8489 29.5689 59.8424 0.0000 0.0000 0.0000
# 4 0.0000 0.0000 0.0000 19.2818 0.0000 0.0000
# 5 0.0000 0.0000 0.0000 0.0000 24.3578 0.0000
# 6 0.0000 0.0000 0.0000 0.0000 0.0000 20.6553
#
#
#
# Elastic Compliance Matrix: (Units=1/GPa)
#
#
# Indices 1 2 3 4 5 6 
#
# 1 0.011604 -0.001436 -0.005466 0.000000 0.000000 0.000000
# 2 -0.001436 0.009913 -0.004134 0.000000 0.000000 0.000000
# 3 -0.005466 -0.004134 0.021663 0.000000 0.000000 0.000000
# 4 0.000000 0.000000 0.000000 0.051862 0.000000 0.000000
# 5 0.000000 0.000000 0.000000 0.000000 0.041055 0.000000
# 6 0.000000 0.000000 0.000000 0.000000 0.000000 0.048414
#
#
# Mechanical properties :
#
#
# Convention : Reuss Voigt Hill
#
# Bulk Modulus (GPa) = 47.37703 51.28850 49.33277
# Shear Modulus (GPa) = 23.40615 25.65925 24.53270
#
# Velocity S-wave (km/s) = 3.50470 3.66950 3.58805
# Velocity P-wave (km/s) = 6.42179 6.69839 6.56155
#
# Compressibility (1/GPa) = 0.02110727
#
# Stress axis : x y z
#
# Youngs Moduli (GPa) = 86.17511 100.87653 46.16261
#
# Poissons Ratio (x) = 0.14484 0.25235
# Poissons Ratio (y) = 0.12373 0.19084
# Poissons Ratio (z) = 0.47108 0.41703
#
# Static dielectric constant tensor:
#      x y z
#    x 3.734160 0.000000 0.000000 
#    y 0.000000 3.581390 0.000000 
#    z 0.000000 0.000000 3.247200 
# 
# 
# High freq. dielectric constant tensor:
#      x y z
#    x 1.748030 0.000000 0.000000 
#    y 0.000000 1.746660 0.000000 
#    z 0.000000 0.000000 1.717050 
# 
# From -- ./inp_files/52035.got.cif
#   From: 2010.06.25/outbox.cif.g09.slc.cpg/sg71_27_cif.got.tgz:52035.got - 2010.06.28 04:59:45.
