data_PCOD8287848
_publ_section_title
;
Structure prediction by ZEFSAII (Michael W. Deem and Ramdas Pophale) SiO2 
 PCOD8287848
Probable space group: I M M M
;
_chemical_formula_sum "Si O2"
_cell_formula_units_Z 104
_cell_length_a 27.811655
_cell_length_b 11.167613
_cell_length_c 17.939044
_cell_angle_alpha 90.000000
_cell_angle_beta 90.000000
_cell_angle_gamma 90.000000
_cell_volume 5571.684087
_symmetry_space_group_name_H-M "I M M M"
_symmetry_group_IT_number 71
_symmetry_cell_setting 'orthorhombic'
loop_
_space_group_symop_operation_xyz
x,y,z
-x,-y,z
x,-y,-z
-x,y,-z
-x,-y,-z
x,y,-z
-x,y,z
x,-y,z
1/2+x,1/2+y,1/2+z
1/2-x,1/2-y,1/2+z
1/2+x,1/2-y,1/2-z
1/2-x,1/2+y,1/2-z
1/2-x,1/2-y,1/2-z
1/2+x,1/2+y,1/2-z
1/2-x,1/2+y,1/2+z
1/2+x,1/2-y,1/2+z
loop_
_atom_site_type_symbol
_atom_site_label
_atom_site_fract_x
_atom_site_fract_y
_atom_site_fract_z
Si Si1 0.388843 0.866664 0.585290
Si Si2 0.056245 0.864104 0.854382
Si Si3 0.119630 0.866722 0.279428
Si Si4 0.307877 0.207194 0.690606
Si Si5 0.275493 0.130711 0.843344
Si Si6 0.053760 0.500000 0.412265
Si Si7 0.625392 0.206372 0.087189
O O1 0.373254 0.856737 0.500000
O O2 0.421350 0.749496 0.601885
O O3 0.340608 0.866796 0.634123
O O4 0.413249 0.000000 0.599337
O O5 0.070277 0.853512 0.767371
O O6 0.000000 0.850131 0.863317
O O7 0.071847 0.000000 0.882903
O O8 0.161984 0.806943 0.233448
O O9 0.112796 0.820574 0.363184
O O10 0.137019 0.000000 0.289149
O O11 0.287186 0.122018 0.755005
O O12 0.265449 0.269913 0.642838
O O13 0.321751 0.158560 0.893860
O O14 0.256473 0.000000 0.867732
O O15 0.048329 0.500000 0.500000
O O16 0.084487 0.386303 0.386954
O O17 0.000000 0.500000 0.375902
O O18 0.622204 0.237978 0.000000
#
# Coordination Sequence:
#
# PCOD8287848 Si02
#       7
#    16  16  16  16  16   8  16
#     4  10  21  37  56  80 113 148 182 225 277 334
#     4   9  19  37  59  82 109 143 185 232 279 330
#     4   9  18  34  54  75 105 141 178 221 269 326
#     4   9  19  33  52  76 104 141 183 223 274 334
#     4  10  18  31  53  76 102 139 185 234 274 320
#     4   9  18  34  52  70 102 142 173 211 268 328
#     4  10  20  33  51  78 109 140 179 226 273 323
#
# _framework density 18.66581
#
# number of rings (size 3 to 8) (size 9 to 14) (size 15 to 20)
#    0.000    2.538    0.769    0.923    0.000    3.077 
#    1.385    2.308    0.000    0.000    0.000    4.308 
#    0.000    0.000    0.000    0.000    0.000    0.000 
#
# Total GULP energy -644225.700668 kJ/mol
# GULP energy per Si atom -12388.955782 kJ/mol
# Density = 1.862333 g / cm^3
# Si number density = 18.665810 Si / 1000 Ang^3
#
#
#
# Elastic Constant Matrix: (Units=GPa)
#
#
# Indices 1 2 3 4 5 6 
#
# 1 86.8930 32.1269 20.4260 0.0000 0.0000 0.0000
# 2 32.1269 127.7046 43.1752 0.0000 0.0000 0.0000
# 3 20.4260 43.1752 86.7400 0.0000 0.0000 0.0000
# 4 0.0000 0.0000 0.0000 22.4845 0.0000 0.0000
# 5 0.0000 0.0000 0.0000 0.0000 20.0070 0.0000
# 6 0.0000 0.0000 0.0000 0.0000 0.0000 20.5415
#
#
#
# Elastic Compliance Matrix: (Units=1/GPa)
#
#
# Indices 1 2 3 4 5 6 
#
# 1 0.012896 -0.002666 -0.001710 0.000000 0.000000 0.000000
# 2 -0.002666 0.009966 -0.004333 0.000000 0.000000 0.000000
# 3 -0.001710 -0.004333 0.014088 0.000000 0.000000 0.000000
# 4 0.000000 0.000000 0.000000 0.044475 0.000000 0.000000
# 5 0.000000 0.000000 0.000000 0.000000 0.049982 0.000000
# 6 0.000000 0.000000 0.000000 0.000000 0.000000 0.048682
#
#
# Mechanical properties :
#
#
# Convention : Reuss Voigt Hill
#
# Bulk Modulus (GPa) = 51.19625 54.75487 52.97556
# Shear Modulus (GPa) = 24.50761 26.31392 25.41076
#
# Velocity S-wave (km/s) = 3.62742 3.75872 3.69366
# Velocity P-wave (km/s) = 6.71056 6.94516 6.82887
#
# Compressibility (1/GPa) = 0.01953268
#
# Stress axis : x y z
#
# Youngs Moduli (GPa) = 77.54283 100.33905 70.98236
#
# Poissons Ratio (x) = 0.26753 0.12136
# Poissons Ratio (y) = 0.20675 0.30756
# Poissons Ratio (z) = 0.13257 0.43475
#
# Static dielectric constant tensor:
#      x y z
#    x 3.498300 0.000000 0.000000 
#    y 0.000000 3.699710 0.000000 
#    z 0.000000 0.000000 3.332960 
# 
# 
# High freq. dielectric constant tensor:
#      x y z
#    x 1.717050 0.000000 0.000000 
#    y 0.000000 1.735730 0.000000 
#    z 0.000000 0.000000 1.708690 
# 
# From -- ./inp_files/48849.got.cif
#   From: 2010.06.25/outbox.cif.g09.slc.cpg/sg71_25_cif.got.tgz:48849.got - 2010.06.28 04:59:45.
