data_PCOD8288434
_publ_section_title
;
Structure prediction by ZEFSAII (Michael W. Deem and Ramdas Pophale) SiO2 
 PCOD8288434
Probable space group: I M M M
;
_chemical_formula_sum "Si O2"
_cell_formula_units_Z 96
_cell_length_a 13.896016
_cell_length_b 20.371184
_cell_length_c 18.830707
_cell_angle_alpha 90.000000
_cell_angle_beta 90.000000
_cell_angle_gamma 90.000000
_cell_volume 5330.564503
_symmetry_space_group_name_H-M "I M M M"
_symmetry_group_IT_number 71
_symmetry_cell_setting 'orthorhombic'
loop_
_space_group_symop_operation_xyz
x,y,z
-x,-y,z
x,-y,-z
-x,y,-z
-x,-y,-z
x,y,-z
-x,y,z
x,-y,z
1/2+x,1/2+y,1/2+z
1/2-x,1/2-y,1/2+z
1/2+x,1/2-y,1/2-z
1/2-x,1/2+y,1/2-z
1/2-x,1/2-y,1/2-z
1/2+x,1/2+y,1/2-z
1/2-x,1/2+y,1/2+z
1/2+x,1/2-y,1/2+z
loop_
_atom_site_type_symbol
_atom_site_label
_atom_site_fract_x
_atom_site_fract_y
_atom_site_fract_z
Si Si1 0.391743 0.747986 0.303691
Si Si2 0.700777 0.688206 0.828943
Si Si3 0.611526 0.576112 0.918155
Si Si4 0.793250 0.571267 0.415908
Si Si5 0.608028 0.200534 0.083872
Si Si6 0.105745 0.141012 0.081252
O O1 0.500000 0.776034 0.291176
O O2 0.364717 0.697537 0.240597
O O3 0.314170 0.807587 0.307551
O O4 0.387316 0.708677 0.376736
O O5 0.678056 0.618806 0.865866
O O6 0.679792 0.747144 0.883177
O O7 0.500000 0.594156 0.905121
O O8 0.630524 0.500000 0.900907
O O9 0.638090 0.591381 0.000000
O O10 0.800916 0.566718 0.500000
O O11 0.820362 0.500000 0.382892
O O12 0.864972 0.627717 0.387911
O O13 0.684325 0.588561 0.392362
O O14 0.500000 0.216444 0.108298
O O15 0.619517 0.204430 0.000000
O O16 0.000000 0.108895 0.090725
O O17 0.126473 0.160448 0.000000
#
# Coordination Sequence:
#
# PCOD8288434 Si02
#       6
#    16  16  16  16  16  16
#     4  10  21  34  51  77 104 132 170 212 255 304
#     4  11  20  33  55  76 104 139 168 208 261 315
#     4   9  18  33  55  84 113 139 172 218 271 322
#     4   9  17  29  44  65  95 128 163 204 245 285
#     4  10  19  30  48  74  99 128 169 209 248 300
#     4   9  17  31  49  68  95 129 166 208 250 294
#
# _framework density 18.009350000000001
#
# number of rings (size 3 to 8) (size 9 to 14) (size 15 to 20)
#    0.000    2.333    1.667    2.500    0.000    2.667 
#    0.000    4.167    0.000    1.500    0.000    1.167 
#    0.000    0.000    0.000    0.000    0.000    0.000 
#
# Total GULP energy -594962.105841 kJ/mol
# GULP energy per Si atom -12395.043872 kJ/mol
# Density = 1.796836 g / cm^3
# Si number density = 18.009350 Si / 1000 Ang^3
#
#
#
# Elastic Constant Matrix: (Units=GPa)
#
#
# Indices 1 2 3 4 5 6 
#
# 1 113.2478 36.8160 31.5929 0.0000 0.0000 0.0000
# 2 36.8160 86.2120 30.1270 0.0000 0.0000 0.0000
# 3 31.5929 30.1270 60.1968 0.0000 0.0000 0.0000
# 4 0.0000 0.0000 0.0000 20.6195 0.0000 0.0000
# 5 0.0000 0.0000 0.0000 0.0000 21.0593 0.0000
# 6 0.0000 0.0000 0.0000 0.0000 0.0000 24.7087
#
#
#
# Elastic Compliance Matrix: (Units=1/GPa)
#
#
# Indices 1 2 3 4 5 6 
#
# 1 0.011054 -0.003264 -0.004168 0.000000 0.000000 0.000000
# 2 -0.003264 0.015022 -0.005805 0.000000 0.000000 0.000000
# 3 -0.004168 -0.005805 0.021705 0.000000 0.000000 0.000000
# 4 0.000000 0.000000 0.000000 0.048498 0.000000 0.000000
# 5 0.000000 0.000000 0.000000 0.000000 0.047485 0.000000
# 6 0.000000 0.000000 0.000000 0.000000 0.000000 0.040472
#
#
# Mechanical properties :
#
#
# Convention : Reuss Voigt Hill
#
# Bulk Modulus (GPa) = 46.93323 50.74759 48.84041
# Shear Modulus (GPa) = 22.95567 24.01886 23.48727
#
# Velocity S-wave (km/s) = 3.57410 3.65593 3.61525
# Velocity P-wave (km/s) = 6.56881 6.78681 6.67870
#
# Compressibility (1/GPa) = 0.02130687
#
# Stress axis : x y z
#
# Youngs Moduli (GPa) = 90.46468 66.57015 46.07267
#
# Poissons Ratio (x) = 0.21729 0.19203
# Poissons Ratio (y) = 0.29528 0.26745
# Poissons Ratio (z) = 0.37705 0.38644
#
# Static dielectric constant tensor:
#      x y z
#    x 3.572290 0.000000 0.000000 
#    y 0.000000 3.284170 0.000000 
#    z 0.000000 0.000000 3.253870 
# 
# 
# High freq. dielectric constant tensor:
#      x y z
#    x 1.700680 0.000000 0.000000 
#    y 0.000000 1.672440 0.000000 
#    z 0.000000 0.000000 1.685050 
# 
# From -- ./inp_files/53320.got.cif
#   From: 2010.06.25/outbox.cif.g09.slc.cpg/sg71_27_cif.got.tgz:53320.got - 2010.06.28 04:59:45.
