data_PCOD8288471
_publ_section_title
;
Structure prediction by ZEFSAII (Michael W. Deem and Ramdas Pophale) SiO2 
 PCOD8288471
Probable space group: I M M M
;
_chemical_formula_sum "Si O2"
_cell_formula_units_Z 96
_cell_length_a 28.589151
_cell_length_b 20.223387
_cell_length_c 9.252609
_cell_angle_alpha 90.000000
_cell_angle_beta 90.000000
_cell_angle_gamma 90.000000
_cell_volume 5349.575992
_symmetry_space_group_name_H-M "I M M M"
_symmetry_group_IT_number 71
_symmetry_cell_setting 'orthorhombic'
loop_
_space_group_symop_operation_xyz
x,y,z
-x,-y,z
x,-y,-z
-x,y,-z
-x,-y,-z
x,y,-z
-x,y,z
x,-y,z
1/2+x,1/2+y,1/2+z
1/2-x,1/2-y,1/2+z
1/2+x,1/2-y,1/2-z
1/2-x,1/2+y,1/2-z
1/2-x,1/2-y,1/2-z
1/2+x,1/2+y,1/2-z
1/2-x,1/2+y,1/2+z
1/2+x,1/2-y,1/2+z
loop_
_atom_site_type_symbol
_atom_site_label
_atom_site_fract_x
_atom_site_fract_y
_atom_site_fract_z
Si Si1 0.189000 0.300345 0.834076
Si Si2 0.446943 0.679846 0.172002
Si Si3 0.054753 0.427523 0.158647
Si Si4 0.708814 0.668897 0.165798
Si Si5 0.372684 0.426261 0.829442
Si Si6 0.098820 0.316932 0.669875
O O1 0.235790 0.345316 0.817882
O O2 0.195935 0.227340 0.772659
O O3 0.147935 0.334279 0.744752
O O4 0.174309 0.293725 0.000000
O O5 0.500000 0.673690 0.233157
O O6 0.415270 0.619044 0.230839
O O7 0.423200 0.747880 0.225867
O O8 0.448330 0.679637 0.000000
O O9 0.075940 0.500000 0.196557
O O10 0.065307 0.376254 0.285490
O O11 0.000000 0.434039 0.148889
O O12 0.073915 0.404613 0.000000
O O13 0.677877 0.605287 0.209783
O O14 0.697034 0.689976 0.000000
O O15 0.375603 0.500000 0.760994
O O16 0.377982 0.431435 0.000000
O O17 0.105919 0.315479 0.500000
#
# Coordination Sequence:
#
# PCOD8288471 Si02
#       6
#    16  16  16  16  16  16
#     4  10  19  30  50  75 100 130 169 213 262 314
#     4   9  17  28  44  71 104 133 166 211 257 298
#     4   9  19  36  55  75 103 138 174 213 258 311
#     4   9  17  32  50  73 100 128 168 214 259 311
#     4   9  16  28  48  72 101 135 169 209 259 311
#     4  11  20  32  51  76 108 139 171 215 259 306
#
# _framework density 17.945347999999999
#
# number of rings (size 3 to 8) (size 9 to 14) (size 15 to 20)
#    0.000    2.500    1.667    2.000    0.000    2.333 
#    0.000    3.333    0.000    3.500    0.000    0.000 
#    0.000    1.333    0.000    0.000    0.000    0.000 
#
# Total GULP energy -594911.095260 kJ/mol
# GULP energy per Si atom -12393.981151 kJ/mol
# Density = 1.790450 g / cm^3
# Si number density = 17.945348 Si / 1000 Ang^3
#
#
#
# Elastic Constant Matrix: (Units=GPa)
#
#
# Indices 1 2 3 4 5 6 
#
# 1 120.0598 62.1346 35.4314 0.0000 0.0000 0.0000
# 2 62.1346 123.4338 32.3528 0.0000 0.0000 0.0000
# 3 35.4314 32.3528 55.9161 0.0000 0.0000 0.0000
# 4 0.0000 0.0000 0.0000 20.8691 0.0000 0.0000
# 5 0.0000 0.0000 0.0000 0.0000 23.7396 0.0000
# 6 0.0000 0.0000 0.0000 0.0000 0.0000 26.5155
#
#
#
# Elastic Compliance Matrix: (Units=1/GPa)
#
#
# Indices 1 2 3 4 5 6 
#
# 1 0.012337 -0.004905 -0.004979 0.000000 0.000000 0.000000
# 2 -0.004905 0.011500 -0.003546 0.000000 0.000000 0.000000
# 3 -0.004979 -0.003546 0.023091 0.000000 0.000000 0.000000
# 4 0.000000 0.000000 0.000000 0.047918 0.000000 0.000000
# 5 0.000000 0.000000 0.000000 0.000000 0.042124 0.000000
# 6 0.000000 0.000000 0.000000 0.000000 0.000000 0.037714
#
#
# Mechanical properties :
#
#
# Convention : Reuss Voigt Hill
#
# Bulk Modulus (GPa) = 49.83211 62.13860 55.98535
# Shear Modulus (GPa) = 24.01153 25.52421 24.76787
#
# Velocity S-wave (km/s) = 3.66189 3.77547 3.71911
# Velocity P-wave (km/s) = 6.76079 7.32853 7.05038
#
# Compressibility (1/GPa) = 0.02006738
#
# Stress axis : x y z
#
# Youngs Moduli (GPa) = 81.05498 86.95585 43.30753
#
# Poissons Ratio (x) = 0.42654 0.21565
# Poissons Ratio (y) = 0.39760 0.15355
# Poissons Ratio (z) = 0.40361 0.30832
#
# Static dielectric constant tensor:
#      x y z
#    x 3.609030 0.000000 0.000000 
#    y 0.000000 3.411160 0.000000 
#    z 0.000000 0.000000 3.087230 
# 
# 
# High freq. dielectric constant tensor:
#      x y z
#    x 1.703550 0.000000 0.000000 
#    y 0.000000 1.680020 0.000000 
#    z 0.000000 0.000000 1.662280 
# 
# From -- ./inp_files/14849.got.cif
#   From: 2010.06.25/outbox.cif.g09.slc.cpg/sg71_8_cif.got.tgz:14849.got - 2010.06.28 04:59:45.
