data_PCOD8288090
_publ_section_title
;
Structure prediction by ZEFSAII (Michael W. Deem and Ramdas Pophale) SiO2 
 PCOD8288090
Probable space group: I M M M
;
_chemical_formula_sum "Si O2"
_cell_formula_units_Z 88
_cell_length_a 9.318584
_cell_length_b 26.942371
_cell_length_c 26.976343
_cell_angle_alpha 90.000000
_cell_angle_beta 90.000000
_cell_angle_gamma 90.000000
_cell_volume 6772.808739
_symmetry_space_group_name_H-M "I M M M"
_symmetry_group_IT_number 71
_symmetry_cell_setting 'orthorhombic'
loop_
_space_group_symop_operation_xyz
x,y,z
-x,-y,z
x,-y,-z
-x,y,-z
-x,-y,-z
x,y,-z
-x,y,z
x,-y,z
1/2+x,1/2+y,1/2+z
1/2-x,1/2-y,1/2+z
1/2+x,1/2-y,1/2-z
1/2-x,1/2+y,1/2-z
1/2-x,1/2-y,1/2-z
1/2+x,1/2+y,1/2-z
1/2-x,1/2+y,1/2+z
1/2+x,1/2-y,1/2+z
loop_
_atom_site_type_symbol
_atom_site_label
_atom_site_fract_x
_atom_site_fract_y
_atom_site_fract_z
Si Si1 0.341007 0.199279 0.650452
Si Si2 0.835343 0.057457 0.693151
Si Si3 0.832319 0.727471 0.703762
Si Si4 0.669756 0.101845 0.397867
Si Si5 0.329628 0.944136 0.500000
Si Si6 0.341729 0.131736 0.747758
O O1 0.500000 0.220465 0.639983
O O2 0.233094 0.246386 0.654397
O O3 0.293899 0.160656 0.607278
O O4 0.340337 0.167307 0.700331
O O5 0.748930 0.069063 0.643283
O O6 0.773427 0.088046 0.740339
O O7 0.000000 0.072878 0.685194
O O8 0.819478 0.000000 0.706412
O O9 0.750000 0.750000 0.750000
O O10 0.807784 0.667493 0.704739
O O11 0.000000 0.740437 0.707599
O O12 0.500000 0.092821 0.390877
O O13 0.726188 0.084449 0.451395
O O14 0.500000 0.945281 0.500000
O O15 0.267769 0.000000 0.500000
O O16 0.500000 0.107863 0.753860
#
# Coordination Sequence:
#
# PCOD8288090 Si02
#       6
#    16  16  16  16   8  16
#     4   8  14  23  34  49  66  81  99 126 161 199
#     4  10  19  27  35  49  67  86 109 137 169 202
#     4   9  15  22  33  49  66  82 101 124 153 191
#     4   9  17  28  40  52  64  81 109 141 172 208
#     4   9  16  26  41  55  63  79 111 147 178 205
#     4   8  15  25  35  48  64  83 107 131 155 188
#
# _framework density 12.993131999999999
#
# number of rings (size 3 to 8) (size 9 to 14) (size 15 to 20)
#    0.000    3.182    0.000    3.818    0.000    9.455 
#    0.000    0.455    0.000    1.636    0.000    0.000 
#    0.000    0.000    0.000    0.000    0.000    0.000 
#
# Total GULP energy -545113.913893 kJ/mol
# GULP energy per Si atom -12388.952588 kJ/mol
# Density = 1.296356 g / cm^3
# Si number density = 12.993132 Si / 1000 Ang^3
#
#
#
# Elastic Constant Matrix: (Units=GPa)
#
#
# Indices 1 2 3 4 5 6 
#
# 1 73.5247 48.8451 24.3944 0.0000 0.0000 0.0000
# 2 48.8451 82.1136 45.3649 0.0000 0.0000 0.0000
# 3 24.3944 45.3649 39.6656 0.0000 0.0000 0.0000
# 4 0.0000 0.0000 0.0000 23.2859 0.0000 0.0000
# 5 0.0000 0.0000 0.0000 0.0000 9.5877 0.0000
# 6 0.0000 0.0000 0.0000 0.0000 0.0000 22.5754
#
#
#
# Elastic Compliance Matrix: (Units=1/GPa)
#
#
# Indices 1 2 3 4 5 6 
#
# 1 0.022722 -0.015744 0.004031 0.000000 0.000000 0.000000
# 2 -0.015744 0.043987 -0.040625 0.000000 0.000000 0.000000
# 3 0.004031 -0.040625 0.069194 0.000000 0.000000 0.000000
# 4 0.000000 0.000000 0.000000 0.042944 0.000000 0.000000
# 5 0.000000 0.000000 0.000000 0.000000 0.104300 0.000000
# 6 0.000000 0.000000 0.000000 0.000000 0.000000 0.044296
#
#
# Mechanical properties :
#
#
# Convention : Reuss Voigt Hill
#
# Bulk Modulus (GPa) = 32.02186 48.05696 40.03941
# Shear Modulus (GPa) = 11.29869 16.20310 13.75090
#
# Velocity S-wave (km/s) = 2.95208 3.53519 3.25671
# Velocity P-wave (km/s) = 6.02648 7.33009 6.71001
#
# Compressibility (1/GPa) = 0.03122867
#
# Stress axis : x y z
#
# Youngs Moduli (GPa) = 44.00960 22.73380 14.45211
#
# Poissons Ratio (x) = 0.35791 -0.05826
# Poissons Ratio (y) = 0.69287 0.58712
# Poissons Ratio (z) = -0.17742 0.92357
#
# Static dielectric constant tensor:
#      x y z
#    x 2.767550 0.000000 0.000000 
#    y 0.000000 3.011220 0.000000 
#    z 0.000000 0.000000 2.604430 
# 
# 
# High freq. dielectric constant tensor:
#      x y z
#    x 1.497970 0.000000 0.000000 
#    y 0.000000 1.486710 0.000000 
#    z 0.000000 0.000000 1.435660 
# 
# From -- ./inp_files/13537.got.cif
#   From: 2010.06.25/outbox.cif.g09.slc.cpg/sg71_7_cif.got.tgz:13537.got - 2010.06.28 04:59:45.
