data_PCOD8288404
_publ_section_title
;
Structure prediction by ZEFSAII (Michael W. Deem and Ramdas Pophale) SiO2 
 PCOD8288404
Probable space group: I M M M
;
_chemical_formula_sum "Si O2"
_cell_formula_units_Z 104
_cell_length_a 18.387073
_cell_length_b 18.674107
_cell_length_c 17.661851
_cell_angle_alpha 90.000000
_cell_angle_beta 90.000000
_cell_angle_gamma 90.000000
_cell_volume 6064.411461
_symmetry_space_group_name_H-M "I M M M"
_symmetry_group_IT_number 71
_symmetry_cell_setting 'orthorhombic'
loop_
_space_group_symop_operation_xyz
x,y,z
-x,-y,z
x,-y,-z
-x,y,-z
-x,-y,-z
x,y,-z
-x,y,z
x,-y,z
1/2+x,1/2+y,1/2+z
1/2-x,1/2-y,1/2+z
1/2+x,1/2-y,1/2-z
1/2-x,1/2+y,1/2-z
1/2-x,1/2-y,1/2-z
1/2+x,1/2+y,1/2-z
1/2-x,1/2+y,1/2+z
1/2+x,1/2-y,1/2+z
loop_
_atom_site_type_symbol
_atom_site_label
_atom_site_fract_x
_atom_site_fract_y
_atom_site_fract_z
Si Si1 0.687306 0.841757 0.697268
Si Si2 0.351948 0.363246 0.653919
Si Si3 0.837723 0.208763 0.304360
Si Si4 0.691388 0.917194 0.160723
Si Si5 0.916525 0.723728 0.912836
Si Si6 0.584097 0.193120 0.911824
Si Si7 0.083884 0.000000 0.083001
O O1 0.766498 0.829705 0.658655
O O2 0.682419 0.781141 0.761246
O O3 0.680674 0.914173 0.747270
O O4 0.623305 0.838444 0.635434
O O5 0.371295 0.345193 0.741595
O O6 0.267074 0.378318 0.639970
O O7 0.375007 0.298130 0.599738
O O8 0.397707 0.431643 0.632354
O O9 0.892750 0.232269 0.370643
O O10 0.627459 0.876866 0.116077
O O11 0.692708 0.000000 0.135453
O O12 0.000000 0.730026 0.885800
O O13 0.912067 0.701655 0.000000
O O14 0.500000 0.178502 0.893934
O O15 0.598736 0.204752 0.000000
O O16 0.000000 0.000000 0.066881
O O17 0.123268 0.000000 0.000000
#
# Coordination Sequence:
#
# PCOD8288404 Si02
#       7
#    16  16  16  16  16  16   8
#     4   8  16  30  49  71  92 120 163 206 237 281
#     4  10  19  33  49  71  98 131 167 198 231 285
#     4   8  16  31  51  69  91 122 162 206 247 282
#     4  10  20  35  51  69  95 132 166 199 240 287
#     4  10  19  30  47  73 103 130 157 196 245 291
#     4  10  21  34  48  72 101 124 158 208 251 290
#     4  11  22  32  44  70 108 140 164 191 226 280
#
# _framework density 17.149232000000001
#
# number of rings (size 3 to 8) (size 9 to 14) (size 15 to 20)
#    0.000    2.538    0.769    3.692    0.000   11.077 
#    0.000    0.769    0.000    0.462    0.000    1.615 
#    0.000    1.846    0.000    0.000    0.000    0.000 
#
# Total GULP energy -644440.569748 kJ/mol
# GULP energy per Si atom -12393.087880 kJ/mol
# Density = 1.711020 g / cm^3
# Si number density = 17.149232 Si / 1000 Ang^3
#
#
#
# Elastic Constant Matrix: (Units=GPa)
#
#
# Indices 1 2 3 4 5 6 
#
# 1 109.4109 27.0683 58.7060 0.0000 0.0000 0.0000
# 2 27.0683 49.6313 34.3612 0.0000 0.0000 0.0000
# 3 58.7060 34.3612 85.8735 0.0000 0.0000 0.0000
# 4 0.0000 0.0000 0.0000 22.1244 0.0000 0.0000
# 5 0.0000 0.0000 0.0000 0.0000 28.3582 0.0000
# 6 0.0000 0.0000 0.0000 0.0000 0.0000 24.3574
#
#
#
# Elastic Compliance Matrix: (Units=1/GPa)
#
#
# Indices 1 2 3 4 5 6 
#
# 1 0.014509 -0.001447 -0.009340 0.000000 0.000000 0.000000
# 2 -0.001447 0.028013 -0.010220 0.000000 0.000000 0.000000
# 3 -0.009340 -0.010220 0.022120 0.000000 0.000000 0.000000
# 4 0.000000 0.000000 0.000000 0.045199 0.000000 0.000000
# 5 0.000000 0.000000 0.000000 0.000000 0.035263 0.000000
# 6 0.000000 0.000000 0.000000 0.000000 0.000000 0.041055
#
#
# Mechanical properties :
#
#
# Convention : Reuss Voigt Hill
#
# Bulk Modulus (GPa) = 44.19243 53.90963 49.05103
# Shear Modulus (GPa) = 21.21189 23.28669 22.24929
#
# Velocity S-wave (km/s) = 3.52077 3.68895 3.60584
# Velocity P-wave (km/s) = 6.50792 7.04615 6.78238
#
# Compressibility (1/GPa) = 0.02262831
#
# Stress axis : x y z
#
# Youngs Moduli (GPa) = 68.92087 35.69730 45.20844
#
# Poissons Ratio (x) = 0.05164 0.42226
# Poissons Ratio (y) = 0.09971 0.46204
# Poissons Ratio (z) = 0.64373 0.36483
#
# Static dielectric constant tensor:
#      x y z
#    x 3.329090 0.000000 0.000000 
#    y 0.000000 3.170190 0.000000 
#    z 0.000000 0.000000 3.277260 
# 
# 
# High freq. dielectric constant tensor:
#      x y z
#    x 1.669420 0.000000 0.000000 
#    y 0.000000 1.631970 0.000000 
#    z 0.000000 0.000000 1.652410 
# 
# From -- ./inp_files/46137.got.cif
#   From: 2010.06.25/outbox.cif.g09.slc.cpg/sg71_24_cif.got.tgz:46137.got - 2010.06.28 04:59:45.
