data_PCOD8288065
_publ_section_title
;
Structure prediction by ZEFSAII (Michael W. Deem and Ramdas Pophale) SiO2 
 PCOD8288065
Probable space group: I M M M
;
_chemical_formula_sum "Si O2"
_cell_formula_units_Z 92
_cell_length_a 23.694855
_cell_length_b 17.360045
_cell_length_c 11.993333
_cell_angle_alpha 90.000000
_cell_angle_beta 90.000000
_cell_angle_gamma 90.000000
_cell_volume 4933.382560
_symmetry_space_group_name_H-M "I M M M"
_symmetry_group_IT_number 71
_symmetry_cell_setting 'orthorhombic'
loop_
_space_group_symop_operation_xyz
x,y,z
-x,-y,z
x,-y,-z
-x,y,-z
-x,-y,-z
x,y,-z
-x,y,z
x,-y,z
1/2+x,1/2+y,1/2+z
1/2-x,1/2-y,1/2+z
1/2+x,1/2-y,1/2-z
1/2-x,1/2+y,1/2-z
1/2-x,1/2-y,1/2-z
1/2+x,1/2+y,1/2-z
1/2-x,1/2+y,1/2+z
1/2+x,1/2-y,1/2+z
loop_
_atom_site_type_symbol
_atom_site_label
_atom_site_fract_x
_atom_site_fract_y
_atom_site_fract_z
Si Si1 0.154126 0.000000 0.253556
Si Si2 0.354927 0.350746 0.369915
Si Si3 0.888195 0.000000 0.500000
Si Si4 0.882333 0.263924 0.703620
Si Si5 0.233295 0.500000 0.625658
Si Si6 0.433232 0.914806 0.126061
Si Si7 0.933819 0.830052 0.500000
Si Si8 0.776020 0.666070 0.375196
O O1 0.124292 0.925658 0.198116
O O2 0.149813 0.000000 0.387986
O O3 0.219621 0.000000 0.221139
O O4 0.367212 0.360571 0.500000
O O5 0.390711 0.278561 0.322225
O O6 0.289164 0.336879 0.341192
O O7 0.925840 0.077474 0.500000
O O8 0.911491 0.347326 0.706770
O O9 0.905817 0.208694 0.607609
O O10 0.814396 0.275917 0.694949
O O11 0.262059 0.500000 0.500000
O O12 0.197365 0.578770 0.636982
O O13 0.500000 0.914241 0.129719
O O14 0.411571 0.000000 0.163286
O O15 0.412335 0.896915 0.000000
O O16 0.000000 0.811057 0.500000
O O17 0.781428 0.696271 0.500000
#
# Coordination Sequence:
#
# PCOD8288065 Si02
#       8
#     8  16   4  16   8  16   8  16
#     4  10  18  35  58  81 111 148 189 228 283 340
#     4  10  21  36  55  80 112 153 189 230 272 339
#     4  12  23  40  60  88 112 152 190 234 301 352
#     4  12  20  33  57  84 112 147 186 235 285 340
#     4   8  16  30  51  79 118 158 189 221 266 335
#     4   9  18  32  51  79 112 141 172 219 281 338
#     4  12  25  40  57  84 117 151 190 241 304 347
#     4   9  17  30  50  81 114 145 184 225 272 332
#
# _framework density 18.648463
#
# number of rings (size 3 to 8) (size 9 to 14) (size 15 to 20)
#    0.000    1.913    3.478    3.522    1.217    0.000 
#    0.000    0.000    0.000    2.609    0.000    2.435 
#    0.000    0.000    0.000    0.000    0.000    0.000 
#
# Total GULP energy -569941.854888 kJ/mol
# GULP energy per Si atom -12390.040324 kJ/mol
# Density = 1.860602 g / cm^3
# Si number density = 18.648463 Si / 1000 Ang^3
#
#
#
# Elastic Constant Matrix: (Units=GPa)
#
#
# Indices 1 2 3 4 5 6 
#
# 1 31.5811 29.6889 24.5446 0.0000 0.0000 0.0000
# 2 29.6889 142.7283 60.6298 0.0000 0.0000 0.0000
# 3 24.5446 60.6298 114.0481 0.0000 0.0000 0.0000
# 4 0.0000 0.0000 0.0000 25.8880 0.0000 0.0000
# 5 0.0000 0.0000 0.0000 0.0000 12.4627 0.0000
# 6 0.0000 0.0000 0.0000 0.0000 0.0000 27.0967
#
#
#
# Elastic Compliance Matrix: (Units=1/GPa)
#
#
# Indices 1 2 3 4 5 6 
#
# 1 0.042030 -0.006330 -0.005680 0.000000 0.000000 0.000000
# 2 -0.006330 0.010003 -0.003956 0.000000 0.000000 0.000000
# 3 -0.005680 -0.003956 0.012094 0.000000 0.000000 0.000000
# 4 0.000000 0.000000 0.000000 0.038628 0.000000 0.000000
# 5 0.000000 0.000000 0.000000 0.000000 0.080239 0.000000
# 6 0.000000 0.000000 0.000000 0.000000 0.000000 0.036905
#
#
# Mechanical properties :
#
#
# Convention : Reuss Voigt Hill
#
# Bulk Modulus (GPa) = 31.06054 57.56489 44.31271
# Shear Modulus (GPa) = 19.04314 24.65578 21.84946
#
# Velocity S-wave (km/s) = 3.19903 3.64006 3.42665
# Velocity P-wave (km/s) = 5.50791 6.97153 6.28248
#
# Compressibility (1/GPa) = 0.03219519
#
# Stress axis : x y z
#
# Youngs Moduli (GPa) = 23.79272 99.96710 82.68818
#
# Poissons Ratio (x) = 0.63275 0.46970
# Poissons Ratio (y) = 0.15060 0.32709
# Poissons Ratio (z) = 0.13515 0.39544
#
# Static dielectric constant tensor:
#      x y z
#    x 3.187480 0.000000 0.000000 
#    y 0.000000 3.861570 0.000000 
#    z 0.000000 0.000000 3.136890 
# 
# 
# High freq. dielectric constant tensor:
#      x y z
#    x 1.700890 0.000000 0.000000 
#    y 0.000000 1.749640 0.000000 
#    z 0.000000 0.000000 1.688110 
# 
# From -- ./inp_files/28872.got.cif
#   From: 2010.06.25/outbox.cif.g09.slc.cpg/sg71_15_cif.got.tgz:28872.got - 2010.06.28 04:59:45.
