data_PCOD8288799
_publ_section_title
;
Structure prediction by ZEFSAII (Michael W. Deem and Ramdas Pophale) SiO2 
 PCOD8288799
Probable space group: I M M M
;
_chemical_formula_sum "Si O2"
_cell_formula_units_Z 120
_cell_length_a 8.884065
_cell_length_b 26.559538
_cell_length_c 27.490639
_cell_angle_alpha 90.000000
_cell_angle_beta 90.000000
_cell_angle_gamma 90.000000
_cell_volume 6486.599414
_symmetry_space_group_name_H-M "I M M M"
_symmetry_group_IT_number 71
_symmetry_cell_setting 'orthorhombic'
loop_
_space_group_symop_operation_xyz
x,y,z
-x,-y,z
x,-y,-z
-x,y,-z
-x,-y,-z
x,y,-z
-x,y,z
x,-y,z
1/2+x,1/2+y,1/2+z
1/2-x,1/2-y,1/2+z
1/2+x,1/2-y,1/2-z
1/2-x,1/2+y,1/2-z
1/2-x,1/2-y,1/2-z
1/2+x,1/2+y,1/2-z
1/2-x,1/2+y,1/2+z
1/2+x,1/2-y,1/2+z
loop_
_atom_site_type_symbol
_atom_site_label
_atom_site_fract_x
_atom_site_fract_y
_atom_site_fract_z
Si Si1 0.677391 0.440880 0.000000
Si Si2 0.678353 0.127193 0.580606
Si Si3 0.831925 0.440162 0.551099
Si Si4 0.676194 0.760373 0.445865
Si Si5 0.321783 0.145042 0.221313
Si Si6 0.676489 0.342635 0.175670
Si Si7 0.179272 0.444232 0.345724
Si Si8 0.324795 0.229952 0.852581
O O1 0.747526 0.416236 0.951739
O O2 0.716438 0.500000 0.000000
O O3 0.500000 0.431348 0.000000
O O4 0.500000 0.119824 0.579641
O O5 0.727794 0.181591 0.559851
O O6 0.738925 0.122872 0.635864
O O7 0.748661 0.423744 0.500000
O O8 0.840652 0.500000 0.553604
O O9 0.754132 0.423426 0.602129
O O10 0.000000 0.417742 0.548831
O O11 0.722290 0.742196 0.500000
O O12 0.500000 0.756769 0.437485
O O13 0.752709 0.723897 0.406169
O O14 0.500000 0.149794 0.230455
O O15 0.234480 0.143832 0.271427
O O16 0.272861 0.092747 0.196915
O O17 0.262333 0.189743 0.186306
O O18 0.500000 0.352941 0.171481
O O19 0.717228 0.284457 0.167785
O O20 0.241354 0.500000 0.333250
O O21 0.000000 0.445681 0.351303
O O22 0.500000 0.221209 0.859547
#
# Coordination Sequence:
#
# PCOD8288799 Si02
#       8
#     8  16  16  16  16  16  16  16
#     4  11  23  37  55  83 119 151 177 213 262 313
#     4  10  19  35  57  80 104 134 177 220 258 304
#     4   7   9  15  30  53  80 109 142 179 220 268
#     4   9  17  31  51  76 103 133 171 212 254 309
#     4  10  19  32  49  71 100 131 168 215 259 307
#     4  10  20  34  52  74  99 131 172 213 263 321
#     4   8  14  25  42  64  90 122 159 198 243 297
#     4   9  19  32  47  72 102 132 167 209 261 314
#
# _framework density 18.499676999999998
#
# number of rings (size 3 to 8) (size 9 to 14) (size 15 to 20)
#    0.000    2.867    0.667    2.600    0.000    2.400 
#    0.000    1.333    0.000    5.200    0.000    0.000 
#    0.000    0.000    0.000    4.800    0.000    3.733 
#
# Total GULP energy -743488.289797 kJ/mol
# GULP energy per Si atom -12391.471497 kJ/mol
# Density = 1.845757 g / cm^3
# Si number density = 18.499677 Si / 1000 Ang^3
#
#
#
# Elastic Constant Matrix: (Units=GPa)
#
#
# Indices 1 2 3 4 5 6 
#
# 1 42.7163 30.1660 42.4790 0.0000 0.0000 0.0000
# 2 30.1660 75.2344 62.3834 0.0000 0.0000 0.0000
# 3 42.4790 62.3834 178.9120 0.0000 0.0000 0.0000
# 4 0.0000 0.0000 0.0000 22.5707 0.0000 0.0000
# 5 0.0000 0.0000 0.0000 0.0000 31.6528 0.0000
# 6 0.0000 0.0000 0.0000 0.0000 0.0000 14.1223
#
#
#
# Elastic Compliance Matrix: (Units=1/GPa)
#
#
# Indices 1 2 3 4 5 6 
#
# 1 0.035433 -0.010172 -0.004866 0.000000 0.000000 0.000000
# 2 -0.010172 0.021618 -0.005123 0.000000 0.000000 0.000000
# 3 -0.004866 -0.005123 0.008531 0.000000 0.000000 0.000000
# 4 0.000000 0.000000 0.000000 0.044305 0.000000 0.000000
# 5 0.000000 0.000000 0.000000 0.000000 0.031593 0.000000
# 6 0.000000 0.000000 0.000000 0.000000 0.000000 0.070810
#
#
# Mechanical properties :
#
#
# Convention : Reuss Voigt Hill
#
# Bulk Modulus (GPa) = 39.58840 62.99106 51.28973
# Shear Modulus (GPa) = 19.15477 24.45812 21.80644
#
# Velocity S-wave (km/s) = 3.22127 3.63999 3.43701
# Velocity P-wave (km/s) = 5.93982 7.19651 6.59815
#
# Compressibility (1/GPa) = 0.02525992
#
# Stress axis : x y z
#
# Youngs Moduli (GPa) = 28.22248 46.25746 117.22223
#
# Poissons Ratio (x) = 0.47055 0.57038
# Poissons Ratio (y) = 0.28709 0.60049
# Poissons Ratio (z) = 0.13733 0.23696
#
# Static dielectric constant tensor:
#      x y z
#    x 3.068170 0.000000 0.000000 
#    y 0.000000 3.304150 0.000000 
#    z 0.000000 0.000000 3.774180 
# 
# 
# High freq. dielectric constant tensor:
#      x y z
#    x 1.683440 0.000000 0.000000 
#    y 0.000000 1.688820 0.000000 
#    z 0.000000 0.000000 1.739210 
# 
# From -- ./inp_files/63833.got.cif
#   From: 2010.06.25/outbox.cif.g09.slc.cpg/sg71_32_cif.got.tgz:63833.got - 2010.06.28 04:59:45.
