data_PCOD8288010
_publ_section_title
;
Structure prediction by ZEFSAII (Michael W. Deem and Ramdas Pophale) SiO2 
 PCOD8288010
Probable space group: I M M M
;
_chemical_formula_sum "Si O2"
_cell_formula_units_Z 104
_cell_length_a 22.545800
_cell_length_b 14.461432
_cell_length_c 17.303583
_cell_angle_alpha 90.000000
_cell_angle_beta 90.000000
_cell_angle_gamma 90.000000
_cell_volume 5641.738995
_symmetry_space_group_name_H-M "I M M M"
_symmetry_group_IT_number 71
_symmetry_cell_setting 'orthorhombic'
loop_
_space_group_symop_operation_xyz
x,y,z
-x,-y,z
x,-y,-z
-x,y,-z
-x,-y,-z
x,y,-z
-x,y,z
x,-y,z
1/2+x,1/2+y,1/2+z
1/2-x,1/2-y,1/2+z
1/2+x,1/2-y,1/2-z
1/2-x,1/2+y,1/2-z
1/2-x,1/2-y,1/2-z
1/2+x,1/2+y,1/2-z
1/2-x,1/2+y,1/2+z
1/2+x,1/2-y,1/2+z
loop_
_atom_site_type_symbol
_atom_site_label
_atom_site_fract_x
_atom_site_fract_y
_atom_site_fract_z
Si Si1 0.715393 0.686960 0.089893
Si Si2 0.637495 0.165685 0.174230
Si Si3 0.355317 0.500000 0.087990
Si Si4 0.567531 0.177482 0.589129
Si Si5 0.678034 0.898203 0.332699
Si Si6 0.430350 0.500000 0.770481
Si Si7 0.432339 0.307488 0.276919
Si Si8 0.430440 0.000000 0.091597
O O1 0.681428 0.778018 0.118524
O O2 0.680955 0.592382 0.107636
O O3 0.778893 0.679926 0.132512
O O4 0.727833 0.699243 0.000000
O O5 0.674614 0.113621 0.240464
O O6 0.594638 0.237610 0.215554
O O7 0.599789 0.092127 0.125409
O O8 0.414336 0.500000 0.139158
O O9 0.376692 0.500000 0.000000
O O10 0.582846 0.195397 0.500000
O O11 0.500000 0.139591 0.598829
O O12 0.613153 0.105577 0.627052
O O13 0.575242 0.274044 0.634902
O O14 0.703564 0.000000 0.350491
O O15 0.500000 0.500000 0.760741
O O16 0.402613 0.591011 0.729527
O O17 0.500000 0.314910 0.251821
O O18 0.500000 0.000000 0.113824
O O19 0.421509 0.000000 0.000000
#
# Coordination Sequence:
#
# PCOD8288010 Si02
#       8
#    16  16   8  16  16   8  16   8
#     4  11  22  37  59  82 114 151 188 239 290 347
#     4  11  21  39  59  83 113 152 199 236 284 342
#     4  10  20  34  53  80 110 145 181 224 290 342
#     4   9  19  35  54  79 113 149 188 239 296 351
#     4  11  22  37  57  85 113 149 195 241 295 347
#     4  10  18  33  54  78 108 142 185 231 280 335
#     4   9  18  32  54  80 108 145 186 233 286 341
#     4  11  24  41  62  89 123 160 198 242 289 345
#
# _framework density 18.434031999999998
#
# number of rings (size 3 to 8) (size 9 to 14) (size 15 to 20)
#    0.000    1.769    3.077    1.846    0.000    2.000 
#    0.000    1.154    0.000    2.308    0.000    0.000 
#    0.000    0.000    0.000    0.000    0.000    0.000 
#
# Total GULP energy -644637.563897 kJ/mol
# GULP energy per Si atom -12396.876229 kJ/mol
# Density = 1.839208 g / cm^3
# Si number density = 18.434032 Si / 1000 Ang^3
#
#
#
# Elastic Constant Matrix: (Units=GPa)
#
#
# Indices 1 2 3 4 5 6 
#
# 1 65.2448 50.0572 41.1289 0.0000 0.0000 0.0000
# 2 50.0572 124.0248 47.2656 0.0000 0.0000 0.0000
# 3 41.1289 47.2656 112.4726 0.0000 0.0000 0.0000
# 4 0.0000 0.0000 0.0000 18.2217 0.0000 0.0000
# 5 0.0000 0.0000 0.0000 0.0000 31.8966 0.0000
# 6 0.0000 0.0000 0.0000 0.0000 0.0000 29.4007
#
#
#
# Elastic Compliance Matrix: (Units=1/GPa)
#
#
# Indices 1 2 3 4 5 6 
#
# 1 0.025067 -0.007887 -0.005852 0.000000 0.000000 0.000000
# 2 -0.007887 0.012082 -0.002193 0.000000 0.000000 0.000000
# 3 -0.005852 -0.002193 0.011953 0.000000 0.000000 0.000000
# 4 0.000000 0.000000 0.000000 0.054880 0.000000 0.000000
# 5 0.000000 0.000000 0.000000 0.000000 0.031351 0.000000
# 6 0.000000 0.000000 0.000000 0.000000 0.000000 0.034013
#
#
# Mechanical properties :
#
#
# Convention : Reuss Voigt Hill
#
# Bulk Modulus (GPa) = 58.01428 64.29397 61.15412
# Shear Modulus (GPa) = 24.15976 26.78981 25.47478
#
# Velocity S-wave (km/s) = 3.62416 3.81633 3.72148
# Velocity P-wave (km/s) = 7.00373 7.37379 7.19114
#
# Compressibility (1/GPa) = 0.01723714
#
# Stress axis : x y z
#
# Youngs Moduli (GPa) = 39.89311 82.76787 83.66299
#
# Poissons Ratio (x) = 0.65279 0.48960
# Poissons Ratio (y) = 0.31464 0.18349
# Poissons Ratio (z) = 0.23346 0.18153
#
# Static dielectric constant tensor:
#      x y z
#    x 3.345120 0.000000 0.000000 
#    y 0.000000 3.579250 0.000000 
#    z 0.000000 0.000000 3.443280 
# 
# 
# High freq. dielectric constant tensor:
#      x y z
#    x 1.711080 0.000000 0.000000 
#    y 0.000000 1.716240 0.000000 
#    z 0.000000 0.000000 1.718660 
# 
# From -- ./inp_files/47375.got.cif
#   From: 2010.06.25/outbox.cif.g09.slc.cpg/sg71_24_cif.got.tgz:47375.got - 2010.06.28 04:59:45.
