data_PCOD8288924
_publ_section_title
;
Structure prediction by ZEFSAII (Michael W. Deem and Ramdas Pophale) SiO2 
 PCOD8288924
Probable space group: I M M M
;
_chemical_formula_sum "Si O2"
_cell_formula_units_Z 80
_cell_length_a 26.071890
_cell_length_b 8.868729
_cell_length_c 19.503480
_cell_angle_alpha 90.000000
_cell_angle_beta 90.000000
_cell_angle_gamma 90.000000
_cell_volume 4509.682936
_symmetry_space_group_name_H-M "I M M M"
_symmetry_group_IT_number 71
_symmetry_cell_setting 'orthorhombic'
loop_
_space_group_symop_operation_xyz
x,y,z
-x,-y,z
x,-y,-z
-x,y,-z
-x,-y,-z
x,y,-z
-x,y,z
x,-y,z
1/2+x,1/2+y,1/2+z
1/2-x,1/2-y,1/2+z
1/2+x,1/2-y,1/2-z
1/2-x,1/2+y,1/2-z
1/2-x,1/2-y,1/2-z
1/2+x,1/2+y,1/2-z
1/2-x,1/2+y,1/2+z
1/2+x,1/2-y,1/2+z
loop_
_atom_site_type_symbol
_atom_site_label
_atom_site_fract_x
_atom_site_fract_y
_atom_site_fract_z
Si Si1 0.889255 0.320379 0.329622
Si Si2 0.802842 0.177464 0.078104
Si Si3 0.500000 0.329948 0.305543
Si Si4 0.111807 0.173508 0.817315
Si Si5 0.000000 0.673868 0.667834
Si Si6 0.197406 0.174665 0.419886
O O1 0.888101 0.500000 0.327662
O O2 0.879228 0.262836 0.252879
O O3 0.945178 0.260413 0.358625
O O4 0.846897 0.261402 0.380800
O O5 0.849930 0.235031 0.124555
O O6 0.752001 0.261211 0.104341
O O7 0.793615 0.000000 0.084938
O O8 0.815575 0.222837 0.000000
O O9 0.500000 0.500000 0.273198
O O10 0.446651 0.308570 0.347210
O O11 0.500000 0.200908 0.248850
O O12 0.124200 0.000000 0.801386
O O13 0.000000 0.500000 0.650585
O O14 0.189307 0.204616 0.500000
O O15 0.194876 0.000000 0.400894
#
# Coordination Sequence:
#
# PCOD8288924 Si02
#       6
#    16  16   8  16   8  16
#     4  10  19  32  52  75  98 125 158 196 236 281
#     4   9  18  33  51  70  95 129 165 199 238 283
#     4   8  14  26  45  69  97 128 157 189 235 282
#     4   9  17  30  49  73 100 128 160 198 237 280
#     4   8  16  30  47  70  97 124 155 190 231 278
#     4  10  21  36  52  70  94 125 160 198 241 287
#
# _framework density 17.739605999999998
#
# number of rings (size 3 to 8) (size 9 to 14) (size 15 to 20)
#    0.000    2.800    0.000    1.200    0.000    3.600 
#    0.000    1.000    0.000    6.000    0.000    0.000 
#    0.000   11.200    0.000    0.000    0.000    0.000 
#
# Total GULP energy -495583.224988 kJ/mol
# GULP energy per Si atom -12389.580625 kJ/mol
# Density = 1.769923 g / cm^3
# Si number density = 17.739606 Si / 1000 Ang^3
#
#
#
# Elastic Constant Matrix: (Units=GPa)
#
#
# Indices 1 2 3 4 5 6 
#
# 1 177.3142 41.7423 70.2198 0.0000 0.0000 0.0000
# 2 41.7423 43.3479 27.4622 0.0000 0.0000 0.0000
# 3 70.2198 27.4622 57.6540 0.0000 0.0000 0.0000
# 4 0.0000 0.0000 0.0000 20.1479 0.0000 0.0000
# 5 0.0000 0.0000 0.0000 0.0000 0.4665 0.0000
# 6 0.0000 0.0000 0.0000 0.0000 0.0000 21.8172
#
#
#
# Elastic Compliance Matrix: (Units=1/GPa)
#
#
# Indices 1 2 3 4 5 6 
#
# 1 0.011171 -0.003061 -0.012148 0.000000 0.000000 0.000000
# 2 -0.003061 0.033878 -0.012409 0.000000 0.000000 0.000000
# 3 -0.012148 -0.012409 0.038051 0.000000 0.000000 0.000000
# 4 0.000000 0.000000 0.000000 0.049633 0.000000 0.000000
# 5 0.000000 0.000000 0.000000 0.000000 2.143559 0.000000
# 6 0.000000 0.000000 0.000000 0.000000 0.000000 0.045835
#
#
# Mechanical properties :
#
#
# Convention : Reuss Voigt Hill
#
# Bulk Modulus (GPa) = 35.88740 61.90717 48.89729
# Shear Modulus (GPa) = 2.09499 17.74577 9.92038
#
# Velocity S-wave (km/s) = 1.08790 3.16626 2.36735
# Velocity P-wave (km/s) = 4.67462 6.95273 5.92421
#
# Compressibility (1/GPa) = 0.02786493
#
# Stress axis : x y z
#
# Youngs Moduli (GPa) = 89.51673 29.51730 26.28084
#
# Poissons Ratio (x) = 0.09037 0.31925
# Poissons Ratio (y) = 0.27405 0.32611
# Poissons Ratio (z) = 1.08741 0.36627
#
# Static dielectric constant tensor:
#      x y z
#    x 3.808170 0.000000 0.000000 
#    y 0.000000 3.285000 0.000000 
#    z 0.000000 0.000000 3.013410 
# 
# 
# High freq. dielectric constant tensor:
#      x y z
#    x 1.710930 0.000000 0.000000 
#    y 0.000000 1.684560 0.000000 
#    z 0.000000 0.000000 1.648850 
# 
# From -- ./inp_files/10226.got.cif
#   From: 2010.06.25/outbox.cif.g09.slc.cpg/sg71_6_cif.got.tgz:10226.got - 2010.06.28 04:59:45.
