data_PCOD8288449
_publ_section_title
;
Structure prediction by ZEFSAII (Michael W. Deem and Ramdas Pophale) SiO2 
 PCOD8288449
Probable space group: I M M M
;
_chemical_formula_sum "Si O2"
_cell_formula_units_Z 88
_cell_length_a 27.646901
_cell_length_b 8.287546
_cell_length_c 20.827842
_cell_angle_alpha 90.000000
_cell_angle_beta 90.000000
_cell_angle_gamma 90.000000
_cell_volume 4772.178544
_symmetry_space_group_name_H-M "I M M M"
_symmetry_group_IT_number 71
_symmetry_cell_setting 'orthorhombic'
loop_
_space_group_symop_operation_xyz
x,y,z
-x,-y,z
x,-y,-z
-x,y,-z
-x,-y,-z
x,y,-z
-x,y,z
x,-y,z
1/2+x,1/2+y,1/2+z
1/2-x,1/2-y,1/2+z
1/2+x,1/2-y,1/2-z
1/2-x,1/2+y,1/2-z
1/2-x,1/2-y,1/2-z
1/2+x,1/2+y,1/2-z
1/2-x,1/2+y,1/2+z
1/2+x,1/2-y,1/2+z
loop_
_atom_site_type_symbol
_atom_site_label
_atom_site_fract_x
_atom_site_fract_y
_atom_site_fract_z
Si Si1 0.557153 0.000000 0.928771
Si Si2 0.443946 0.683775 0.849392
Si Si3 0.675092 0.681994 0.500000
Si Si4 0.858889 0.815652 0.258274
Si Si5 0.289511 0.183805 0.000000
Si Si6 0.820357 0.686174 0.131911
Si Si7 0.212773 0.809798 0.634078
O O1 0.573273 0.830683 0.895526
O O2 0.500000 0.000000 0.933199
O O3 0.580163 0.000000 0.000000
O O4 0.500000 0.704582 0.831350
O O5 0.434954 0.500000 0.878173
O O6 0.413443 0.701904 0.784103
O O7 0.658359 0.500000 0.500000
O O8 0.732211 0.708490 0.500000
O O9 0.654247 0.757729 0.565685
O O10 0.855422 0.723013 0.191086
O O11 0.821484 0.738569 0.309969
O O12 0.845285 0.000000 0.244696
O O13 0.310074 0.264521 0.935196
O O14 0.305703 0.000000 0.000000
O O15 0.811052 0.500000 0.125408
O O16 0.766832 0.765591 0.142085
O O17 0.212530 0.000000 0.640168
#
# Coordination Sequence:
#
# PCOD8288449 Si02
#       7
#     8  16   8  16   8  16  16
#     4   9  18  34  56  78 100 131 171 215 263 308
#     4   9  19  36  55  75 102 134 170 214 258 304
#     4   9  17  31  49  67  94 129 162 197 238 290
#     4  10  20  33  49  71  97 129 166 203 249 301
#     4   9  17  29  45  65  90 127 168 204 243 284
#     4  10  19  30  49  73  98 127 162 202 244 291
#     4   9  18  32  46  65  96 132 165 201 244 291
#
# _framework density 18.440214999999998
#
# number of rings (size 3 to 8) (size 9 to 14) (size 15 to 20)
#    0.000    2.636    0.000    1.636    1.273    4.000 
#    1.636    1.818    0.000    0.000    0.000    0.636 
#    0.000    5.091    0.000    0.000    0.000    0.000 
#
# Total GULP energy -545278.552626 kJ/mol
# GULP energy per Si atom -12392.694378 kJ/mol
# Density = 1.839824 g / cm^3
# Si number density = 18.440215 Si / 1000 Ang^3
#
#
#
# Elastic Constant Matrix: (Units=GPa)
#
#
# Indices 1 2 3 4 5 6 
#
# 1 46.0411 24.0431 38.5123 0.0000 0.0000 0.0000
# 2 24.0431 80.9138 51.2371 0.0000 0.0000 0.0000
# 3 38.5123 51.2371 160.2214 0.0000 0.0000 0.0000
# 4 0.0000 0.0000 0.0000 30.7011 0.0000 0.0000
# 5 0.0000 0.0000 0.0000 0.0000 11.4483 0.0000
# 6 0.0000 0.0000 0.0000 0.0000 0.0000 15.3572
#
#
#
# Elastic Compliance Matrix: (Units=1/GPa)
#
#
# Indices 1 2 3 4 5 6 
#
# 1 0.028858 -0.005245 -0.005259 0.000000 0.000000 0.000000
# 2 -0.005245 0.016450 -0.004000 0.000000 0.000000 0.000000
# 3 -0.005259 -0.004000 0.008785 0.000000 0.000000 0.000000
# 4 0.000000 0.000000 0.000000 0.032572 0.000000 0.000000
# 5 0.000000 0.000000 0.000000 0.000000 0.087349 0.000000
# 6 0.000000 0.000000 0.000000 0.000000 0.000000 0.065116
#
#
# Mechanical properties :
#
#
# Convention : Reuss Voigt Hill
#
# Bulk Modulus (GPa) = 39.86463 57.19571 48.53017
# Shear Modulus (GPa) = 18.08325 23.06024 20.57175
#
# Velocity S-wave (km/s) = 3.13492 3.54014 3.34367
# Velocity P-wave (km/s) = 5.89651 6.91334 6.42507
#
# Compressibility (1/GPa) = 0.02508489
#
# Stress axis : x y z
#
# Youngs Moduli (GPa) = 34.65264 60.78985 113.83432
#
# Poissons Ratio (x) = 0.31881 0.59870
# Poissons Ratio (y) = 0.18174 0.45533
# Poissons Ratio (z) = 0.18225 0.24316
#
# Static dielectric constant tensor:
#      x y z
#    x 3.076250 0.000000 0.000000 
#    y 0.000000 3.459440 0.000000 
#    z 0.000000 0.000000 3.510760 
# 
# 
# High freq. dielectric constant tensor:
#      x y z
#    x 1.670570 0.000000 0.000000 
#    y 0.000000 1.720090 0.000000 
#    z 0.000000 0.000000 1.712960 
# 
# From -- ./inp_files/42517.got.cif
#   From: 2010.06.25/outbox.cif.g09.slc.cpg/sg71_22_cif.got.tgz:42517.got - 2010.06.28 04:59:45.
