data_PCOD8288899
_publ_section_title
;
Structure prediction by ZEFSAII (Michael W. Deem and Ramdas Pophale) SiO2 
 PCOD8288899
Probable space group: I M M M
;
_chemical_formula_sum "Si O2"
_cell_formula_units_Z 88
_cell_length_a 30.800835
_cell_length_b 12.429809
_cell_length_c 13.823015
_cell_angle_alpha 90.000000
_cell_angle_beta 90.000000
_cell_angle_gamma 90.000000
_cell_volume 5292.120504
_symmetry_space_group_name_H-M "I M M M"
_symmetry_group_IT_number 71
_symmetry_cell_setting 'orthorhombic'
loop_
_space_group_symop_operation_xyz
x,y,z
-x,-y,z
x,-y,-z
-x,y,-z
-x,-y,-z
x,y,-z
-x,y,z
x,-y,z
1/2+x,1/2+y,1/2+z
1/2-x,1/2-y,1/2+z
1/2+x,1/2-y,1/2-z
1/2-x,1/2+y,1/2-z
1/2-x,1/2-y,1/2-z
1/2+x,1/2+y,1/2-z
1/2-x,1/2+y,1/2+z
1/2+x,1/2-y,1/2+z
loop_
_atom_site_type_symbol
_atom_site_label
_atom_site_fract_x
_atom_site_fract_y
_atom_site_fract_z
Si Si1 0.237355 0.120234 0.613132
Si Si2 0.240040 0.500000 0.614560
Si Si3 0.408397 0.208488 0.885304
Si Si4 0.699647 0.306983 0.612905
Si Si5 0.000000 0.620998 0.614420
Si Si6 0.850640 0.127278 0.282536
Si Si7 0.356425 0.000000 0.885113
O O1 0.227511 0.125048 0.500000
O O2 0.279087 0.192456 0.637979
O O3 0.193263 0.161721 0.661946
O O4 0.248860 0.000000 0.648523
O O5 0.236531 0.500000 0.500000
O O6 0.265565 0.604949 0.650070
O O7 0.191913 0.500000 0.659147
O O8 0.457863 0.187729 0.852377
O O9 0.391676 0.315372 0.831752
O O10 0.380724 0.106518 0.848748
O O11 0.404479 0.225784 0.000000
O O12 0.688370 0.319542 0.500000
O O13 0.655424 0.328297 0.672730
O O14 0.000000 0.500000 0.659103
O O15 0.000000 0.607972 0.500000
O O16 0.859275 0.000000 0.285198
O O17 0.356192 0.000000 0.000000
#
# Coordination Sequence:
#
# PCOD8288899 Si02
#       7
#    16   8  16  16   8  16   8
#     4   9  18  31  45  63  92 130 167 206 250 292
#     4   9  16  26  43  64  88 124 166 206 238 264
#     4  10  19  32  51  76 102 129 158 194 243 300
#     4  10  19  33  48  63  91 131 176 217 248 280
#     4   9  16  32  55  77 104 129 151 190 247 303
#     4  11  21  32  46  68  98 133 171 205 243 293
#     4   9  16  27  46  73 101 125 159 201 235 276
#
# _framework density 16.628495000000001
#
# number of rings (size 3 to 8) (size 9 to 14) (size 15 to 20)
#    0.000    2.273    1.818    2.182    0.000    4.000 
#    1.636    0.455    0.000    1.636    0.000    0.636 
#    0.000    2.182    0.000    0.000    0.000    0.000 
#
# Total GULP energy -545590.579062 kJ/mol
# GULP energy per Si atom -12399.785888 kJ/mol
# Density = 1.659065 g / cm^3
# Si number density = 16.628495 Si / 1000 Ang^3
#
#
#
# Elastic Constant Matrix: (Units=GPa)
#
#
# Indices 1 2 3 4 5 6 
#
# 1 99.4092 50.6622 39.4422 0.0000 0.0000 0.0000
# 2 50.6622 103.4898 39.1325 0.0000 0.0000 0.0000
# 3 39.4422 39.1325 41.5702 0.0000 0.0000 0.0000
# 4 0.0000 0.0000 0.0000 21.9507 0.0000 0.0000
# 5 0.0000 0.0000 0.0000 0.0000 18.1032 0.0000
# 6 0.0000 0.0000 0.0000 0.0000 0.0000 22.8671
#
#
#
# Elastic Compliance Matrix: (Units=1/GPa)
#
#
# Indices 1 2 3 4 5 6 
#
# 1 0.016881 -0.003427 -0.012790 0.000000 0.000000 0.000000
# 2 -0.003427 0.015699 -0.011527 0.000000 0.000000 0.000000
# 3 -0.012790 -0.011527 0.047042 0.000000 0.000000 0.000000
# 4 0.000000 0.000000 0.000000 0.045557 0.000000 0.000000
# 5 0.000000 0.000000 0.000000 0.000000 0.055239 0.000000
# 6 0.000000 0.000000 0.000000 0.000000 0.000000 0.043731
#
#
# Mechanical properties :
#
#
# Convention : Reuss Voigt Hill
#
# Bulk Modulus (GPa) = 41.43648 55.88254 48.65951
# Shear Modulus (GPa) = 17.38033 20.26634 18.82334
#
# Velocity S-wave (km/s) = 3.23648 3.49488 3.36816
# Velocity P-wave (km/s) = 6.24015 7.06859 6.66725
#
# Compressibility (1/GPa) = 0.02413332
#
# Stress axis : x y z
#
# Youngs Moduli (GPa) = 59.23840 63.69762 21.25770
#
# Poissons Ratio (x) = 0.21832 0.27189
# Poissons Ratio (y) = 0.20304 0.24503
# Poissons Ratio (z) = 0.75768 0.73421
#
# Static dielectric constant tensor:
#      x y z
#    x 3.007840 0.000000 0.000000 
#    y 0.000000 3.275120 0.000000 
#    z 0.000000 0.000000 2.984580 
# 
# 
# High freq. dielectric constant tensor:
#      x y z
#    x 1.604380 0.000000 0.000000 
#    y 0.000000 1.652240 0.000000 
#    z 0.000000 0.000000 1.620120 
# 
# From -- ./inp_files/40191.got.cif
#   From: 2010.06.25/outbox.cif.g09.slc.cpg/sg71_21_cif.got.tgz:40191.got - 2010.06.28 04:59:45.
