data_PCOD8288573
_publ_section_title
;
Structure prediction by ZEFSAII (Michael W. Deem and Ramdas Pophale) SiO2 
 PCOD8288573
Probable space group: I M M M
;
_chemical_formula_sum "Si O2"
_cell_formula_units_Z 104
_cell_length_a 23.842049
_cell_length_b 21.641327
_cell_length_c 9.127503
_cell_angle_alpha 90.000000
_cell_angle_beta 90.000000
_cell_angle_gamma 90.000000
_cell_volume 4709.550388
_symmetry_space_group_name_H-M "I M M M"
_symmetry_group_IT_number 71
_symmetry_cell_setting 'orthorhombic'
loop_
_space_group_symop_operation_xyz
x,y,z
-x,-y,z
x,-y,-z
-x,y,-z
-x,-y,-z
x,y,-z
-x,y,z
x,-y,z
1/2+x,1/2+y,1/2+z
1/2-x,1/2-y,1/2+z
1/2+x,1/2-y,1/2-z
1/2-x,1/2+y,1/2-z
1/2-x,1/2-y,1/2-z
1/2+x,1/2+y,1/2-z
1/2-x,1/2+y,1/2+z
1/2+x,1/2-y,1/2+z
loop_
_atom_site_type_symbol
_atom_site_label
_atom_site_fract_x
_atom_site_fract_y
_atom_site_fract_z
Si Si1 0.328977 0.873192 0.672442
Si Si2 0.889496 0.071872 0.664841
Si Si3 0.059524 0.227393 0.666180
Si Si4 0.500000 0.574195 0.330708
Si Si5 0.336405 0.733062 0.664070
Si Si6 0.438027 0.125888 0.833562
Si Si7 0.779568 0.111618 0.832156
O O1 0.324998 0.884070 0.500000
O O2 0.321625 0.801385 0.719882
O O3 0.388374 0.900485 0.730290
O O4 0.277478 0.908695 0.750020
O O5 0.884151 0.099901 0.500000
O O6 0.944218 0.100888 0.747362
O O7 0.832524 0.080813 0.755331
O O8 0.900987 0.000000 0.652633
O O9 0.061448 0.205509 0.500000
O O10 0.113663 0.199261 0.745807
O O11 0.063129 0.300862 0.677975
O O12 0.000000 0.206207 0.737816
O O13 0.500000 0.500000 0.327478
O O14 0.500000 0.596813 0.500000
O O15 0.359226 0.739427 0.500000
O O16 0.283987 0.686733 0.675349
O O17 0.500000 0.101782 0.783577
O O18 0.426439 0.104647 0.000000
O O19 0.776978 0.088919 0.000000
#
# Coordination Sequence:
#
# PCOD8288573 Si02
#       7
#    16  16  16   8  16  16  16
#     4  10  19  31  48  70  99 133 170 211 254 296
#     4  10  21  38  59  81 104 130 165 213 266 316
#     4   8  14  25  41  60  83 116 158 201 244 288
#     4   9  17  33  59  85 105 129 163 205 259 319
#     4   9  19  32  45  65  93 129 168 207 250 296
#     4   8  14  26  44  65  90 123 163 203 242 285
#     4  11  22  35  50  71  99 132 171 208 252 308
#
# _framework density 22.082787
#
# number of rings (size 3 to 8) (size 9 to 14) (size 15 to 20)
#    0.000    2.692    0.000    3.000    0.000    4.308 
#    1.385    3.077    0.000    0.000    0.000    0.000 
#    0.000    0.615    0.000    6.462    0.000    3.077 
#
# Total GULP energy -644498.692992 kJ/mol
# GULP energy per Si atom -12394.205634 kJ/mol
# Density = 2.203253 g / cm^3
# Si number density = 22.082787 Si / 1000 Ang^3
#
#
#
# Elastic Constant Matrix: (Units=GPa)
#
#
# Indices 1 2 3 4 5 6 
#
# 1 203.8870 7.7012 105.4023 0.0000 0.0000 0.0000
# 2 7.7012 8.5495 0.5252 0.0000 0.0000 0.0000
# 3 105.4023 0.5252 145.5578 0.0000 0.0000 0.0000
# 4 0.0000 0.0000 0.0000 12.9966 0.0000 0.0000
# 5 0.0000 0.0000 0.0000 0.0000 47.6058 0.0000
# 6 0.0000 0.0000 0.0000 0.0000 0.0000 21.7503
#
#
#
# Elastic Compliance Matrix: (Units=1/GPa)
#
#
# Indices 1 2 3 4 5 6 
#
# 1 0.008245 -0.007061 -0.005945 0.000000 0.000000 0.000000
# 2 -0.007061 0.123040 0.004669 0.000000 0.000000 0.000000
# 3 -0.005945 0.004669 0.011158 0.000000 0.000000 0.000000
# 4 0.000000 0.000000 0.000000 0.076943 0.000000 0.000000
# 5 0.000000 0.000000 0.000000 0.000000 0.021006 0.000000
# 6 0.000000 0.000000 0.000000 0.000000 0.000000 0.045976
#
#
# Mechanical properties :
#
#
# Convention : Reuss Voigt Hill
#
# Bulk Modulus (GPa) = 7.95104 65.02795 36.48950
# Shear Modulus (GPa) = 14.49423 32.76157 23.62790
#
# Velocity S-wave (km/s) = 2.56473 3.85590 3.27459
# Velocity P-wave (km/s) = 3.51836 7.02391 5.55491
#
# Compressibility (1/GPa) = 0.12576968
#
# Stress axis : x y z
#
# Youngs Moduli (GPa) = 121.29214 8.12741 89.62230
#
# Poissons Ratio (x) = 0.05739 0.53277
# Poissons Ratio (y) = 0.85649 -0.41848
# Poissons Ratio (z) = 0.72104 -0.03795
#
# Static dielectric constant tensor:
#      x y z
#    x 4.345370 0.000000 0.000000 
#    y 0.000000 3.461210 0.000000 
#    z 0.000000 0.000000 3.994210 
# 
# 
# High freq. dielectric constant tensor:
#      x y z
#    x 1.881210 0.000000 0.000000 
#    y 0.000000 1.828320 0.000000 
#    z 0.000000 0.000000 1.863520 
# 
# From -- ./inp_files/13312.got.cif
#   From: 2010.06.25/outbox.cif.g09.slc.cpg/sg71_7_cif.got.tgz:13312.got - 2010.06.28 04:59:45.
