data_PCOD8288409
_publ_section_title
;
Structure prediction by ZEFSAII (Michael W. Deem and Ramdas Pophale) SiO2 
 PCOD8288409
Probable space group: I M M M
;
_chemical_formula_sum "Si O2"
_cell_formula_units_Z 80
_cell_length_a 9.112295
_cell_length_b 20.157619
_cell_length_c 27.558947
_cell_angle_alpha 90.000000
_cell_angle_beta 90.000000
_cell_angle_gamma 90.000000
_cell_volume 5062.087211
_symmetry_space_group_name_H-M "I M M M"
_symmetry_group_IT_number 71
_symmetry_cell_setting 'orthorhombic'
loop_
_space_group_symop_operation_xyz
x,y,z
-x,-y,z
x,-y,-z
-x,y,-z
-x,-y,-z
x,y,-z
-x,y,z
x,-y,z
1/2+x,1/2+y,1/2+z
1/2-x,1/2-y,1/2+z
1/2+x,1/2-y,1/2-z
1/2-x,1/2+y,1/2-z
1/2-x,1/2-y,1/2-z
1/2+x,1/2+y,1/2-z
1/2-x,1/2+y,1/2+z
1/2+x,1/2-y,1/2+z
loop_
_atom_site_type_symbol
_atom_site_label
_atom_site_fract_x
_atom_site_fract_y
_atom_site_fract_z
Si Si1 0.166504 0.786473 0.945530
Si Si2 0.332933 0.577188 0.709772
Si Si3 0.170281 0.924888 0.678515
Si Si4 0.834131 0.694437 0.136486
Si Si5 0.173400 0.678158 0.356420
O O1 0.168724 0.712628 0.921200
O O2 0.266392 0.834399 0.911553
O O3 0.000000 0.814015 0.945902
O O4 0.230681 0.783208 0.000000
O O5 0.500000 0.597582 0.697252
O O6 0.308599 0.500000 0.699076
O O7 0.298493 0.593086 0.765684
O O8 0.219805 0.617425 0.677162
O O9 0.262067 0.876893 0.643917
O O10 0.000000 0.916180 0.666426
O O11 0.220465 0.000000 0.667642
O O12 0.743819 0.753036 0.164298
O O13 0.000000 0.693446 0.156691
O O14 0.000000 0.684594 0.357013
#
# Coordination Sequence:
#
# PCOD8288409 Si02
#       5
#    16  16  16  16  16
#     4   8  16  32  51  70  93 121 154 192 236 284
#     4   9  18  33  50  67  93 130 164 191 228 280
#     4   9  18  32  49  69  95 127 160 195 235 277
#     4   9  18  31  48  71  94 123 160 194 233 279
#     4  10  19  30  47  73  98 122 155 196 238 276
#
# _framework density 15.803756999999999
#
# number of rings (size 3 to 8) (size 9 to 14) (size 15 to 20)
#    1.200    1.800    0.000    3.000    0.000    2.800 
#    0.000    2.000    0.000    1.200    0.000    8.400 
#    0.000    0.000    0.000    0.000    0.000    0.000 
#
# Total GULP energy -495589.312743 kJ/mol
# GULP energy per Si atom -12389.732819 kJ/mol
# Density = 1.576779 g / cm^3
# Si number density = 15.803757 Si / 1000 Ang^3
#
#
#
# Elastic Constant Matrix: (Units=GPa)
#
#
# Indices 1 2 3 4 5 6 
#
# 1 80.3027 17.7219 12.1600 0.0000 0.0000 0.0000
# 2 17.7219 38.6390 2.9874 0.0000 0.0000 0.0000
# 3 12.1600 2.9874 26.7516 0.0000 0.0000 0.0000
# 4 0.0000 0.0000 0.0000 6.4446 0.0000 0.0000
# 5 0.0000 0.0000 0.0000 0.0000 19.0144 0.0000
# 6 0.0000 0.0000 0.0000 0.0000 0.0000 30.9406
#
#
#
# Elastic Compliance Matrix: (Units=1/GPa)
#
#
# Indices 1 2 3 4 5 6 
#
# 1 0.014753 -0.006302 -0.006002 0.000000 0.000000 0.000000
# 2 -0.006302 0.028798 -0.000351 0.000000 0.000000 0.000000
# 3 -0.006002 -0.000351 0.040148 0.000000 0.000000 0.000000
# 4 0.000000 0.000000 0.000000 0.155170 0.000000 0.000000
# 5 0.000000 0.000000 0.000000 0.000000 0.052592 0.000000
# 6 0.000000 0.000000 0.000000 0.000000 0.000000 0.032320
#
#
# Mechanical properties :
#
#
# Convention : Reuss Voigt Hill
#
# Bulk Modulus (GPa) = 17.12674 23.49241 20.30958
# Shear Modulus (GPa) = 13.56651 18.80150 16.18401
#
# Velocity S-wave (km/s) = 2.93309 3.45292 3.20357
# Velocity P-wave (km/s) = 4.72560 5.54926 5.15391
#
# Compressibility (1/GPa) = 0.05838823
#
# Stress axis : x y z
#
# Youngs Moduli (GPa) = 67.78467 34.72423 24.90758
#
# Poissons Ratio (x) = 0.21884 0.14950
# Poissons Ratio (y) = 0.42720 0.00875
# Poissons Ratio (z) = 0.40685 0.01220
#
# Static dielectric constant tensor:
#      x y z
#    x 2.932980 0.000000 0.000000 
#    y 0.000000 2.797290 0.000000 
#    z 0.000000 0.000000 2.825860 
# 
# 
# High freq. dielectric constant tensor:
#      x y z
#    x 1.611480 0.000000 0.000000 
#    y 0.000000 1.588830 0.000000 
#    z 0.000000 0.000000 1.584330 
# 
# From -- ./inp_files/42367.got.cif
#   From: 2010.06.25/outbox.cif.g09.slc.cpg/sg71_22_cif.got.tgz:42367.got - 2010.06.28 04:59:45.
