data_PCOD8288349
_publ_section_title
;
Structure prediction by ZEFSAII (Michael W. Deem and Ramdas Pophale) SiO2 
 PCOD8288349
Probable space group: I M M M
;
_chemical_formula_sum "Si O2"
_cell_formula_units_Z 88
_cell_length_a 24.841900
_cell_length_b 20.566147
_cell_length_c 9.113601
_cell_angle_alpha 90.000000
_cell_angle_beta 90.000000
_cell_angle_gamma 90.000000
_cell_volume 4656.158502
_symmetry_space_group_name_H-M "I M M M"
_symmetry_group_IT_number 71
_symmetry_cell_setting 'orthorhombic'
loop_
_space_group_symop_operation_xyz
x,y,z
-x,-y,z
x,-y,-z
-x,y,-z
-x,-y,-z
x,y,-z
-x,y,z
x,-y,z
1/2+x,1/2+y,1/2+z
1/2-x,1/2-y,1/2+z
1/2+x,1/2-y,1/2-z
1/2-x,1/2+y,1/2-z
1/2-x,1/2-y,1/2-z
1/2+x,1/2+y,1/2-z
1/2-x,1/2+y,1/2+z
1/2+x,1/2-y,1/2+z
loop_
_atom_site_type_symbol
_atom_site_label
_atom_site_fract_x
_atom_site_fract_y
_atom_site_fract_z
Si Si1 0.709848 0.203936 0.163805
Si Si2 0.064331 0.000000 0.334498
Si Si3 0.436878 0.623893 0.336756
Si Si4 0.089157 0.252941 0.666282
Si Si5 0.838539 0.572408 0.671374
Si Si6 0.060088 0.620675 0.170175
O O1 0.750000 0.250000 0.250000
O O2 0.652736 0.238348 0.168450
O O3 0.702226 0.129577 0.227364
O O4 0.732991 0.199090 0.000000
O O5 0.087594 0.937741 0.248586
O O6 0.087195 0.000000 0.500000
O O7 0.000000 0.000000 0.338217
O O8 0.411179 0.629090 0.500000
O O9 0.500000 0.614605 0.352498
O O10 0.423966 0.685811 0.241235
O O11 0.067128 0.252944 0.500000
O O12 0.059471 0.308600 0.756964
O O13 0.850425 0.585734 0.500000
O O14 0.813815 0.500000 0.696561
O O15 0.895844 0.574801 0.753487
O O16 0.000000 0.590584 0.188233
O O17 0.075360 0.627907 0.000000
#
# Coordination Sequence:
#
# PCOD8288349 Si02
#       6
#    16   8  16  16  16  16
#     4   9  19  35  56  79 100 127 166 213 263 312
#     4   9  17  29  45  65  91 129 171 205 245 299
#     4  10  19  30  46  70 100 132 168 210 254 302
#     4  10  20  33  50  73  99 131 172 213 256 307
#     4   9  19  36  56  78 105 138 176 215 256 308
#     4  10  20  32  47  73 109 143 175 212 253 298
#
# _framework density 18.899701
#
# number of rings (size 3 to 8) (size 9 to 14) (size 15 to 20)
#    0.000    2.455    0.000    3.545    0.000   10.182 
#    0.000    1.818    2.000    0.000    0.000    0.000 
#    0.000    0.000    0.000    0.000    0.000    0.000 
#
# Total GULP energy -545382.241162 kJ/mol
# GULP energy per Si atom -12395.050936 kJ/mol
# Density = 1.885668 g / cm^3
# Si number density = 18.899701 Si / 1000 Ang^3
#
#
#
# Elastic Constant Matrix: (Units=GPa)
#
#
# Indices 1 2 3 4 5 6 
#
# 1 52.9024 27.1410 27.6169 0.0000 0.0000 0.0000
# 2 27.1410 110.3689 42.5142 0.0000 0.0000 0.0000
# 3 27.6169 42.5142 108.8708 0.0000 0.0000 0.0000
# 4 0.0000 0.0000 0.0000 23.7473 0.0000 0.0000
# 5 0.0000 0.0000 0.0000 0.0000 26.8893 0.0000
# 6 0.0000 0.0000 0.0000 0.0000 0.0000 11.1576
#
#
#
# Elastic Compliance Matrix: (Units=1/GPa)
#
#
# Indices 1 2 3 4 5 6 
#
# 1 0.023232 -0.004053 -0.004311 0.000000 0.000000 0.000000
# 2 -0.004053 0.011372 -0.003413 0.000000 0.000000 0.000000
# 3 -0.004311 -0.003413 0.011611 0.000000 0.000000 0.000000
# 4 0.000000 0.000000 0.000000 0.042110 0.000000 0.000000
# 5 0.000000 0.000000 0.000000 0.000000 0.037190 0.000000
# 6 0.000000 0.000000 0.000000 0.000000 0.000000 0.089625
#
#
# Mechanical properties :
#
#
# Convention : Reuss Voigt Hill
#
# Bulk Modulus (GPa) = 44.12416 51.85404 47.98910
# Shear Modulus (GPa) = 20.30493 24.01686 22.16089
#
# Velocity S-wave (km/s) = 3.28129 3.56863 3.42797
# Velocity P-wave (km/s) = 6.14434 6.66904 6.41206
#
# Compressibility (1/GPa) = 0.02266332
#
# Stress axis : x y z
#
# Youngs Moduli (GPa) = 43.04376 87.93798 86.12293
#
# Poissons Ratio (x) = 0.35638 0.37125
# Poissons Ratio (y) = 0.17444 0.29391
# Poissons Ratio (z) = 0.18555 0.30010
#
# Static dielectric constant tensor:
#      x y z
#    x 3.110010 0.000000 0.000000 
#    y 0.000000 3.685760 0.000000 
#    z 0.000000 0.000000 3.847470 
# 
# 
# High freq. dielectric constant tensor:
#      x y z
#    x 1.690660 0.000000 0.000000 
#    y 0.000000 1.745150 0.000000 
#    z 0.000000 0.000000 1.745580 
# 
# From -- ./inp_files/12511.got.cif
#   From: 2010.06.25/outbox.cif.g09.slc.cpg/sg71_7_cif.got.tgz:12511.got - 2010.06.28 04:59:45.
