data_PCOD8288426
_publ_section_title
;
Structure prediction by ZEFSAII (Michael W. Deem and Ramdas Pophale) SiO2 
 PCOD8288426
Probable space group: I M M M
;
_chemical_formula_sum "Si O2"
_cell_formula_units_Z 72
_cell_length_a 8.919848
_cell_length_b 30.085678
_cell_length_c 17.152787
_cell_angle_alpha 90.000000
_cell_angle_beta 90.000000
_cell_angle_gamma 90.000000
_cell_volume 4603.116340
_symmetry_space_group_name_H-M "I M M M"
_symmetry_group_IT_number 71
_symmetry_cell_setting 'orthorhombic'
loop_
_space_group_symop_operation_xyz
x,y,z
-x,-y,z
x,-y,-z
-x,y,-z
-x,-y,-z
x,y,-z
-x,y,z
x,-y,z
1/2+x,1/2+y,1/2+z
1/2-x,1/2-y,1/2+z
1/2+x,1/2-y,1/2-z
1/2-x,1/2+y,1/2-z
1/2-x,1/2-y,1/2-z
1/2+x,1/2+y,1/2-z
1/2-x,1/2+y,1/2+z
1/2+x,1/2-y,1/2+z
loop_
_atom_site_type_symbol
_atom_site_label
_atom_site_fract_x
_atom_site_fract_y
_atom_site_fract_z
Si Si1 0.170508 0.649868 0.912648
Si Si2 0.170187 0.704915 0.772203
Si Si3 0.326689 0.947599 0.156559
Si Si4 0.322887 0.382733 0.228163
Si Si5 0.330859 0.552822 0.500000
O O1 0.175212 0.697360 0.866577
O O2 0.271123 0.614864 0.863078
O O3 0.000000 0.632057 0.915057
O O4 0.235060 0.655637 0.000000
O O5 0.250000 0.750000 0.750000
O O6 0.255528 0.662630 0.733136
O O7 0.000000 0.706267 0.741272
O O8 0.500000 0.934063 0.157458
O O9 0.241953 0.925449 0.228598
O O10 0.304353 0.000000 0.165205
O O11 0.255173 0.929686 0.076256
O O12 0.500000 0.382349 0.234600
O O13 0.331423 0.500000 0.500000
O O14 0.500000 0.571667 0.500000
#
# Coordination Sequence:
#
# PCOD8288426 Si02
#       5
#    16  16  16  16   8
#     4   8  16  31  50  70  94 126 163 199 236 286
#     4   9  17  30  49  71  95 123 157 195 239 284
#     4  10  19  32  50  71  96 128 164 199 238 287
#     4  10  19  30  48  73  99 127 159 199 244 286
#     4   9  17  29  47  71  97 125 159 199 241 287
#
# _framework density 15.641578000000001
#
# number of rings (size 3 to 8) (size 9 to 14) (size 15 to 20)
#    1.333    1.444    0.000    3.000    0.000    3.111 
#    0.000    0.000    2.444    0.667    0.000    4.667 
#    0.000    0.000    0.000    0.000    0.000    0.000 
#
# Total GULP energy -445997.329265 kJ/mol
# GULP energy per Si atom -12388.814702 kJ/mol
# Density = 1.560598 g / cm^3
# Si number density = 15.641578 Si / 1000 Ang^3
#
#
#
# Elastic Constant Matrix: (Units=GPa)
#
#
# Indices 1 2 3 4 5 6 
#
# 1 146.2627 44.6387 56.8784 0.0000 0.0000 0.0000
# 2 44.6387 46.8922 37.5700 0.0000 0.0000 0.0000
# 3 56.8784 37.5700 107.1738 0.0001 0.0001 0.0000
# 4 0.0000 0.0000 0.0001 20.4615 0.0000 0.0000
# 5 0.0000 0.0000 0.0001 0.0000 22.0703 0.0000
# 6 0.0000 0.0000 0.0000 0.0000 0.0000 27.9157
#
#
#
# Elastic Compliance Matrix: (Units=1/GPa)
#
#
# Indices 1 2 3 4 5 6 
#
# 1 0.010206 -0.007475 -0.002796 0.000000 0.000000 0.000000
# 2 -0.007475 0.035130 -0.008348 0.000000 0.000000 0.000000
# 3 -0.002796 -0.008348 0.013741 0.000000 0.000000 0.000000
# 4 0.000000 0.000000 0.000000 0.048872 0.000000 0.000000
# 5 0.000000 0.000000 0.000000 0.000000 0.045310 0.000000
# 6 0.000000 0.000000 0.000000 0.000000 0.000000 0.035822
#
#
# Mechanical properties :
#
#
# Convention : Reuss Voigt Hill
#
# Bulk Modulus (GPa) = 45.79022 64.27811 55.03417
# Shear Modulus (GPa) = 21.40442 24.83895 23.12169
#
# Velocity S-wave (km/s) = 3.70324 3.98931 3.84893
# Velocity P-wave (km/s) = 6.90098 7.89956 7.41710
#
# Compressibility (1/GPa) = 0.02183872
#
# Stress axis : x y z
#
# Youngs Moduli (GPa) = 97.98512 28.46604 72.77659
#
# Poissons Ratio (x) = 0.21279 0.20347
# Poissons Ratio (y) = 0.73246 0.60751
# Poissons Ratio (z) = 0.27395 0.23762
#
# Static dielectric constant tensor:
#      x y z
#    x 3.093500 0.000000 0.000000 
#    y 0.000000 2.664030 0.000000 
#    z 0.000000 0.000000 2.956510 
# 
# 
# High freq. dielectric constant tensor:
#      x y z
#    x 1.617390 0.000000 0.000000 
#    y 0.000000 1.564970 0.000000 
#    z 0.000000 0.000000 1.586790 
# 
# From -- ./inp_files/42173.got.cif
#   From: 2010.06.25/outbox.cif.g09.slc.cpg/sg71_22_cif.got.tgz:42173.got - 2010.06.28 04:59:45.
