data_PCOD8288121
_publ_section_title
;
Structure prediction by ZEFSAII (Michael W. Deem and Ramdas Pophale) SiO2 
 PCOD8288121
Probable space group: I M M M
;
_chemical_formula_sum "Si O2"
_cell_formula_units_Z 96
_cell_length_a 26.315059
_cell_length_b 28.304073
_cell_length_c 9.003073
_cell_angle_alpha 90.000000
_cell_angle_beta 90.000000
_cell_angle_gamma 90.000000
_cell_volume 6705.699001
_symmetry_space_group_name_H-M "I M M M"
_symmetry_group_IT_number 71
_symmetry_cell_setting 'orthorhombic'
loop_
_space_group_symop_operation_xyz
x,y,z
-x,-y,z
x,-y,-z
-x,y,-z
-x,-y,-z
x,y,-z
-x,y,z
x,-y,z
1/2+x,1/2+y,1/2+z
1/2-x,1/2-y,1/2+z
1/2+x,1/2-y,1/2-z
1/2-x,1/2+y,1/2-z
1/2-x,1/2-y,1/2-z
1/2+x,1/2+y,1/2-z
1/2-x,1/2+y,1/2+z
1/2+x,1/2-y,1/2+z
loop_
_atom_site_type_symbol
_atom_site_label
_atom_site_fract_x
_atom_site_fract_y
_atom_site_fract_z
Si Si1 0.142931 0.800804 0.173753
Si Si2 0.941979 0.140312 0.329427
Si Si3 0.400217 0.553612 0.327606
Si Si4 0.706225 0.552858 0.170745
Si Si5 0.701997 0.227274 0.172963
Si Si6 0.257915 0.637291 0.330648
O O1 0.091986 0.822723 0.239901
O O2 0.151939 0.749273 0.249814
O O3 0.190376 0.834774 0.209926
O O4 0.135810 0.792828 0.000000
O O5 0.924231 0.138918 0.500000
O O6 0.937603 0.087856 0.261273
O O7 0.000000 0.157024 0.315224
O O8 0.400725 0.567793 0.500000
O O9 0.419092 0.500000 0.303081
O O10 0.343388 0.560362 0.269669
O O11 0.728358 0.500000 0.192719
O O12 0.747444 0.591250 0.225887
O O13 0.692049 0.561946 0.000000
O O14 0.750000 0.250000 0.250000
O O15 0.708318 0.170605 0.194850
O O16 0.702119 0.240463 0.000000
O O17 0.260040 0.620104 0.500000
#
# Coordination Sequence:
#
# PCOD8288121 Si02
#       6
#    16  16  16  16  16  16
#     4  10  19  31  46  63  82 104 132 167 209 253
#     4  11  23  35  47  62  79 103 135 173 217 259
#     4  10  20  33  47  60  76 101 134 173 216 259
#     4  10  19  28  41  61  83 109 139 170 206 245
#     4   9  17  28  43  63  85 106 131 163 202 246
#     4   9  17  28  43  63  83 106 134 164 202 246
#
# _framework density 14.316179999999999
#
# number of rings (size 3 to 8) (size 9 to 14) (size 15 to 20)
#    0.000    2.167    1.667    3.500    0.000    7.000 
#    0.000    1.667    0.000    0.000    0.000    0.000 
#    0.000    0.000    0.000    0.000    0.000    0.833 
#
# Total GULP energy -595053.149015 kJ/mol
# GULP energy per Si atom -12396.940604 kJ/mol
# Density = 1.428360 g / cm^3
# Si number density = 14.316180 Si / 1000 Ang^3
#
#
#
# Elastic Constant Matrix: (Units=GPa)
#
#
# Indices 1 2 3 4 5 6 
#
# 1 43.8268 41.2418 34.3524 0.0000 0.0000 0.0000
# 2 41.2418 80.4166 51.2642 0.0000 0.0000 0.0000
# 3 34.3524 51.2642 100.5025 0.0000 0.0000 0.0000
# 4 0.0000 0.0000 0.0000 27.6200 0.0000 0.0000
# 5 0.0000 0.0000 0.0000 0.0000 18.4362 0.0000
# 6 0.0000 0.0000 0.0000 0.0000 0.0000 21.3115
#
#
#
# Elastic Compliance Matrix: (Units=1/GPa)
#
#
# Indices 1 2 3 4 5 6 
#
# 1 0.046046 -0.020126 -0.005473 0.000000 0.000000 0.000000
# 2 -0.020126 0.027224 -0.007007 0.000000 0.000000 0.000000
# 3 -0.005473 -0.007007 0.015395 0.000000 0.000000 0.000000
# 4 0.000000 0.000000 0.000000 0.036206 0.000000 0.000000
# 5 0.000000 0.000000 0.000000 0.000000 0.054241 0.000000
# 6 0.000000 0.000000 0.000000 0.000000 0.000000 0.046923
#
#
# Mechanical properties :
#
#
# Convention : Reuss Voigt Hill
#
# Bulk Modulus (GPa) = 42.63928 53.16252 47.90090
# Shear Modulus (GPa) = 16.71888 19.99936 18.35912
#
# Velocity S-wave (km/s) = 3.42106 3.74167 3.58495
# Velocity P-wave (km/s) = 6.74192 7.47542 7.11813
#
# Compressibility (1/GPa) = 0.02345255
#
# Stress axis : x y z
#
# Youngs Moduli (GPa) = 21.71763 36.73279 64.95652
#
# Poissons Ratio (x) = 0.73927 0.35551
# Poissons Ratio (y) = 0.43708 0.45516
# Poissons Ratio (z) = 0.11886 0.25739
#
# Static dielectric constant tensor:
#      x y z
#    x 2.497480 0.000000 0.000000 
#    y 0.000000 3.033450 0.000000 
#    z 0.000000 0.000000 2.998190 
# 
# 
# High freq. dielectric constant tensor:
#      x y z
#    x 1.489670 0.000000 0.000000 
#    y 0.000000 1.541120 0.000000 
#    z 0.000000 0.000000 1.569340 
# 
# From -- ./inp_files/13149.got.cif
#   From: 2010.06.25/outbox.cif.g09.slc.cpg/sg71_7_cif.got.tgz:13149.got - 2010.06.28 04:59:45.
