data_PCOD8288913
_publ_section_title
;
Structure prediction by ZEFSAII (Michael W. Deem and Ramdas Pophale) SiO2 
 PCOD8288913
Probable space group: I M M M
;
_chemical_formula_sum "Si O2"
_cell_formula_units_Z 72
_cell_length_a 30.987732
_cell_length_b 7.962026
_cell_length_c 13.874322
_cell_angle_alpha 90.000000
_cell_angle_beta 90.000000
_cell_angle_gamma 90.000000
_cell_volume 3423.143869
_symmetry_space_group_name_H-M "I M M M"
_symmetry_group_IT_number 71
_symmetry_cell_setting 'orthorhombic'
loop_
_space_group_symop_operation_xyz
x,y,z
-x,-y,z
x,-y,-z
-x,y,-z
-x,-y,-z
x,y,-z
-x,y,z
x,-y,z
1/2+x,1/2+y,1/2+z
1/2-x,1/2-y,1/2+z
1/2+x,1/2-y,1/2-z
1/2-x,1/2+y,1/2-z
1/2-x,1/2-y,1/2-z
1/2+x,1/2+y,1/2-z
1/2-x,1/2+y,1/2+z
1/2+x,1/2-y,1/2+z
loop_
_atom_site_type_symbol
_atom_site_label
_atom_site_fract_x
_atom_site_fract_y
_atom_site_fract_z
Si Si1 0.136423 0.799656 0.891527
Si Si2 0.551003 0.500000 0.110122
Si Si3 0.096994 0.312374 0.706694
Si Si4 0.820748 0.810629 0.611885
Si Si5 0.731088 0.312831 0.614809
O O1 0.100614 0.720401 0.821440
O O2 0.184137 0.741363 0.853984
O O3 0.134298 0.000000 0.887603
O O4 0.127160 0.735582 0.000000
O O5 0.500000 0.500000 0.115928
O O6 0.566933 0.671076 0.159830
O O7 0.567666 0.500000 0.000000
O O8 0.077789 0.500000 0.689442
O O9 0.144989 0.308997 0.662649
O O10 0.819520 0.762471 0.500000
O O11 0.772131 0.791943 0.655321
O O12 0.836787 0.000000 0.629157
O O13 0.731025 0.311065 0.500000
O O14 0.736940 0.500000 0.654412
#
# Coordination Sequence:
#
# PCOD8288913 Si02
#       5
#    16   8  16  16  16
#     4   9  18  36  60  86 126 175 219 263 308 354
#     4  11  26  50  75  99 129 157 192 252 321 391
#     4  12  24  39  65  97 126 163 208 255 311 379
#     4  10  19  32  51  78 120 168 212 263 315 364
#     4   8  15  28  48  77 115 164 217 264 307 351
#
# _framework density 21.033296
#
# number of rings (size 3 to 8) (size 9 to 14) (size 15 to 20)
#    0.000    2.111    2.222    2.667    0.000    5.333 
#    0.000    3.333    0.000    1.333    0.000    1.556 
#    0.000    0.000    0.000    0.000    0.000    0.000 
#
# Total GULP energy -446234.041567 kJ/mol
# GULP energy per Si atom -12395.390044 kJ/mol
# Density = 2.098542 g / cm^3
# Si number density = 21.033296 Si / 1000 Ang^3
#
#
#
# Elastic Constant Matrix: (Units=GPa)
#
#
# Indices 1 2 3 4 5 6 
#
# 1 64.4625 35.1586 38.6998 0.0000 0.0000 0.0000
# 2 35.1586 114.2278 46.8216 0.0000 0.0000 0.0000
# 3 38.6998 46.8216 72.5417 0.0000 0.0000 0.0000
# 4 0.0000 0.0000 0.0000 21.4605 0.0000 0.0000
# 5 0.0000 0.0000 0.0000 0.0000 25.7233 0.0000
# 6 0.0000 0.0000 0.0000 0.0000 0.0000 23.2533
#
#
#
# Elastic Compliance Matrix: (Units=1/GPa)
#
#
# Indices 1 2 3 4 5 6 
#
# 1 0.023483 -0.002846 -0.010691 0.000000 0.000000 0.000000
# 2 -0.002846 0.012249 -0.006388 0.000000 0.000000 0.000000
# 3 -0.010691 -0.006388 0.023612 0.000000 0.000000 0.000000
# 4 0.000000 0.000000 0.000000 0.046597 0.000000 0.000000
# 5 0.000000 0.000000 0.000000 0.000000 0.038875 0.000000
# 6 0.000000 0.000000 0.000000 0.000000 0.000000 0.043005
#
#
# Mechanical properties :
#
#
# Convention : Reuss Voigt Hill
#
# Bulk Modulus (GPa) = 51.29670 54.73243 53.01456
# Shear Modulus (GPa) = 21.35217 22.79089 22.07153
#
# Velocity S-wave (km/s) = 3.18962 3.29532 3.24290
# Velocity P-wave (km/s) = 6.16491 6.36845 6.26751
#
# Compressibility (1/GPa) = 0.01949443
#
# Stress axis : x y z
#
# Youngs Moduli (GPa) = 42.58323 81.64199 42.35207
#
# Poissons Ratio (x) = 0.23233 0.45280
# Poissons Ratio (y) = 0.12118 0.27053
# Poissons Ratio (z) = 0.45527 0.52150
#
# Static dielectric constant tensor:
#      x y z
#    x 3.538090 0.000000 0.000000 
#    y 0.000000 3.661810 0.000000 
#    z 0.000000 0.000000 3.938030 
# 
# 
# High freq. dielectric constant tensor:
#      x y z
#    x 1.782590 0.000000 0.000000 
#    y 0.000000 1.812640 0.000000 
#    z 0.000000 0.000000 1.835270 
# 
# From -- ./inp_files/39952.got.cif
#   From: 2010.06.25/outbox.cif.g09.slc.cpg/sg71_20_cif.got.tgz:39952.got - 2010.06.28 04:59:45.
