data_PCOD8288074
_publ_section_title
;
Structure prediction by ZEFSAII (Michael W. Deem and Ramdas Pophale) SiO2 
 PCOD8288074
Probable space group: I M M M
;
_chemical_formula_sum "Si O2"
_cell_formula_units_Z 88
_cell_length_a 22.477686
_cell_length_b 17.413488
_cell_length_c 11.644094
_cell_angle_alpha 90.000000
_cell_angle_beta 90.000000
_cell_angle_gamma 90.000000
_cell_volume 4557.672068
_symmetry_space_group_name_H-M "I M M M"
_symmetry_group_IT_number 71
_symmetry_cell_setting 'orthorhombic'
loop_
_space_group_symop_operation_xyz
x,y,z
-x,-y,z
x,-y,-z
-x,y,-z
-x,-y,-z
x,y,-z
-x,y,z
x,-y,z
1/2+x,1/2+y,1/2+z
1/2-x,1/2-y,1/2+z
1/2+x,1/2-y,1/2-z
1/2-x,1/2+y,1/2-z
1/2-x,1/2-y,1/2-z
1/2+x,1/2+y,1/2-z
1/2-x,1/2+y,1/2+z
1/2+x,1/2-y,1/2+z
loop_
_atom_site_type_symbol
_atom_site_label
_atom_site_fract_x
_atom_site_fract_y
_atom_site_fract_z
Si Si1 0.153039 0.414308 0.000000
Si Si2 0.363559 0.409602 0.133554
Si Si3 0.431460 0.227976 0.500000
Si Si4 0.066940 0.500000 0.636536
Si Si5 0.735274 0.912029 0.718031
Si Si6 0.361225 0.148049 0.135626
Si Si7 0.430875 0.283408 0.252787
O O1 0.100611 0.353486 0.000000
O O2 0.194280 0.401565 0.108463
O O3 0.125265 0.500000 0.000000
O O4 0.372895 0.500000 0.147787
O O5 0.300845 0.382168 0.186891
O O6 0.415333 0.367861 0.205441
O O7 0.366211 0.386080 0.000000
O O8 0.500000 0.205980 0.500000
O O9 0.415083 0.278146 0.387876
O O10 0.065575 0.500000 0.500000
O O11 0.100990 0.424808 0.682127
O O12 0.000000 0.500000 0.686385
O O13 0.706565 0.860717 0.819452
O O14 0.738491 0.000000 0.759008
O O15 0.391502 0.224159 0.181707
O O16 0.359545 0.151900 0.000000
O O17 0.500000 0.266321 0.229943
#
# Coordination Sequence:
#
# PCOD8288074 Si02
#       7
#     8  16   8   8  16  16  16
#     4  10  18  35  62  85 114 164 206 239 289 341
#     4  10  22  42  67  92 115 148 197 253 307 360
#     4  10  22  41  59  86 124 158 196 245 293 350
#     4   9  18  32  50  75 117 167 202 230 274 338
#     4  10  19  36  60  87 121 158 198 246 292 347
#     4  11  21  34  55  87 123 161 201 239 289 349
#     4  11  24  42  62  86 120 155 195 249 305 357
#
# _framework density 19.308102999999999
#
# number of rings (size 3 to 8) (size 9 to 14) (size 15 to 20)
#    0.000    1.727    3.636    1.091    0.000    3.455 
#    1.636    1.364    0.000    1.636    0.000    0.000 
#    0.000    0.000    0.000    0.000    0.000    0.000 
#
# Total GULP energy -545685.152803 kJ/mol
# GULP energy per Si atom -12401.935291 kJ/mol
# Density = 1.926416 g / cm^3
# Si number density = 19.308103 Si / 1000 Ang^3
#
#
#
# Elastic Constant Matrix: (Units=GPa)
#
#
# Indices 1 2 3 4 5 6 
#
# 1 62.3589 35.9637 43.9600 0.0000 0.0000 0.0000
# 2 35.9637 76.6705 43.4028 0.0000 0.0000 0.0000
# 3 43.9600 43.4028 111.3548 0.0000 0.0000 0.0000
# 4 0.0000 0.0000 0.0000 36.3298 0.0000 0.0000
# 5 0.0000 0.0000 0.0000 0.0000 33.3552 0.0000
# 6 0.0000 0.0000 0.0000 0.0000 0.0000 30.0544
#
#
#
# Elastic Compliance Matrix: (Units=1/GPa)
#
#
# Indices 1 2 3 4 5 6 
#
# 1 0.025594 -0.008065 -0.006960 0.000000 0.000000 0.000000
# 2 -0.008065 0.019277 -0.004330 0.000000 0.000000 0.000000
# 3 -0.006960 -0.004330 0.013416 0.000000 0.000000 0.000000
# 4 0.000000 0.000000 0.000000 0.027526 0.000000 0.000000
# 5 0.000000 0.000000 0.000000 0.000000 0.029980 0.000000
# 6 0.000000 0.000000 0.000000 0.000000 0.000000 0.033273
#
#
# Mechanical properties :
#
#
# Convention : Reuss Voigt Hill
#
# Bulk Modulus (GPa) = 51.08192 55.22636 53.15414
# Shear Modulus (GPa) = 25.73315 28.41840 27.07577
#
# Velocity S-wave (km/s) = 3.65467 3.84062 3.74879
# Velocity P-wave (km/s) = 6.65751 6.95211 6.80640
#
# Compressibility (1/GPa) = 0.01957640
#
# Stress axis : x y z
#
# Youngs Moduli (GPa) = 39.07113 51.87541 74.53988
#
# Poissons Ratio (x) = 0.41839 0.51883
# Poissons Ratio (y) = 0.31512 0.32273
# Poissons Ratio (z) = 0.27195 0.22460
#
# Static dielectric constant tensor:
#      x y z
#    x 3.565030 0.000000 0.000000 
#    y 0.000000 3.445350 0.000000 
#    z 0.000000 0.000000 3.592780 
# 
# 
# High freq. dielectric constant tensor:
#      x y z
#    x 1.749240 0.000000 0.000000 
#    y 0.000000 1.742840 0.000000 
#    z 0.000000 0.000000 1.754760 
# 
# From -- ./inp_files/27228.got.cif
#   From: 2010.06.25/outbox.cif.g09.slc.cpg/sg71_14_cif.got.tgz:27228.got - 2010.06.28 04:59:45.
