data_PCOD8288278
_publ_section_title
;
Structure prediction by ZEFSAII (Michael W. Deem and Ramdas Pophale) SiO2 
 PCOD8288278
Probable space group: I M M M
;
_chemical_formula_sum "Si O2"
_cell_formula_units_Z 88
_cell_length_a 8.793651
_cell_length_b 23.423980
_cell_length_c 30.841055
_cell_angle_alpha 90.000000
_cell_angle_beta 90.000000
_cell_angle_gamma 90.000000
_cell_volume 6352.711602
_symmetry_space_group_name_H-M "I M M M"
_symmetry_group_IT_number 71
_symmetry_cell_setting 'orthorhombic'
loop_
_space_group_symop_operation_xyz
x,y,z
-x,-y,z
x,-y,-z
-x,y,-z
-x,-y,-z
x,y,-z
-x,y,z
x,-y,z
1/2+x,1/2+y,1/2+z
1/2-x,1/2-y,1/2+z
1/2+x,1/2-y,1/2-z
1/2-x,1/2+y,1/2-z
1/2-x,1/2-y,1/2-z
1/2+x,1/2+y,1/2-z
1/2-x,1/2+y,1/2+z
1/2+x,1/2-y,1/2+z
loop_
_atom_site_type_symbol
_atom_site_label
_atom_site_fract_x
_atom_site_fract_y
_atom_site_fract_z
Si Si1 0.319982 0.064773 0.500000
Si Si2 0.322653 0.000000 0.271978
Si Si3 0.678661 0.314686 0.158813
Si Si4 0.821375 0.000000 0.363010
Si Si5 0.680131 0.892253 0.591749
Si Si6 0.324663 0.387348 0.755912
Si Si7 0.824021 0.222502 0.791495
O O1 0.500000 0.058710 0.500000
O O2 0.265768 0.100609 0.541917
O O3 0.251276 0.000000 0.500000
O O4 0.209320 0.000000 0.312357
O O5 0.281232 0.057848 0.246018
O O6 0.500000 0.000000 0.284436
O O7 0.500000 0.311712 0.153222
O O8 0.750953 0.335686 0.113560
O O9 0.724139 0.356200 0.198976
O O10 0.741509 0.250279 0.166786
O O11 0.743100 0.945227 0.382301
O O12 0.000000 0.000000 0.372534
O O13 0.500000 0.890433 0.595438
O O14 0.500000 0.406094 0.759722
O O15 0.302153 0.345694 0.714205
O O16 0.750000 0.250000 0.750000
O O17 0.000000 0.238982 0.793254
#
# Coordination Sequence:
#
# PCOD8288278 Si02
#       7
#     8   8  16   8  16  16  16
#     4   9  18  32  46  62  80 100 132 175 216 251
#     4  12  22  28  41  61  80 108 141 167 201 246
#     4  10  19  30  44  61  81 103 130 168 209 246
#     4  12  22  31  41  56  81 104 132 172 213 251
#     4  11  20  32  48  61  76 102 137 172 211 256
#     4   9  18  30  42  57  82 106 129 165 206 240
#     4   9  17  29  44  60  78 102 132 165 204 243
#
# _framework density 13.852353000000001
#
# number of rings (size 3 to 8) (size 9 to 14) (size 15 to 20)
#    0.000    1.909    2.727    4.364    0.000    3.636 
#    0.000    2.273    0.000    0.000    0.000    0.000 
#    0.000    0.000    0.000    0.000    0.000    0.909 
#
# Total GULP energy -545340.654103 kJ/mol
# GULP energy per Si atom -12394.105775 kJ/mol
# Density = 1.382082 g / cm^3
# Si number density = 13.852353 Si / 1000 Ang^3
#
#
#
# Elastic Constant Matrix: (Units=GPa)
#
#
# Indices 1 2 3 4 5 6 
#
# 1 68.9091 37.9665 28.1387 0.0000 0.0000 0.0000
# 2 37.9665 77.7084 47.3472 0.0000 0.0000 0.0000
# 3 28.1387 47.3472 71.6662 0.0000 0.0000 0.0000
# 4 0.0000 0.0000 0.0000 35.0215 0.0000 0.0000
# 5 0.0000 0.0000 0.0000 0.0000 14.2385 0.0000
# 6 0.0000 0.0000 0.0000 0.0000 0.0000 23.0643
#
#
#
# Elastic Compliance Matrix: (Units=1/GPa)
#
#
# Indices 1 2 3 4 5 6 
#
# 1 0.020091 -0.008385 -0.002349 0.000000 0.000000 0.000000
# 2 -0.008385 0.025038 -0.013250 0.000000 0.000000 0.000000
# 3 -0.002349 -0.013250 0.023629 0.000000 0.000000 0.000000
# 4 0.000000 0.000000 0.000000 0.028554 0.000000 0.000000
# 5 0.000000 0.000000 0.000000 0.000000 0.070232 0.000000
# 6 0.000000 0.000000 0.000000 0.000000 0.000000 0.043357
#
#
# Mechanical properties :
#
#
# Convention : Reuss Voigt Hill
#
# Bulk Modulus (GPa) = 48.09586 49.46537 48.78062
# Shear Modulus (GPa) = 18.81128 21.45362 20.13245
#
# Velocity S-wave (km/s) = 3.68908 3.93967 3.81643
# Velocity P-wave (km/s) = 7.27609 7.51539 7.39671
#
# Compressibility (1/GPa) = 0.02079181
#
# Stress axis : x y z
#
# Youngs Moduli (GPa) = 49.77434 39.93914 42.32021
#
# Poissons Ratio (x) = 0.33488 0.09940
# Poissons Ratio (y) = 0.41734 0.56073
# Poissons Ratio (z) = 0.11691 0.52918
#
# Static dielectric constant tensor:
#      x y z
#    x 2.818770 0.000000 0.000000 
#    y 0.000000 3.012420 0.000000 
#    z 0.000000 0.000000 2.741420 
# 
# 
# High freq. dielectric constant tensor:
#      x y z
#    x 1.540670 0.000000 0.000000 
#    y 0.000000 1.514800 0.000000 
#    z 0.000000 0.000000 1.484150 
# 
# From -- ./inp_files/16904.got.cif
#   From: 2010.06.25/outbox.cif.g09.slc.cpg/sg71_9_cif.got.tgz:16904.got - 2010.06.28 04:59:45.
