data_PCOD8288132
_publ_section_title
;
Structure prediction by ZEFSAII (Michael W. Deem and Ramdas Pophale) SiO2 
 PCOD8288132
Probable space group: I M M M
;
_chemical_formula_sum "Si O2"
_cell_formula_units_Z 96
_cell_length_a 30.901125
_cell_length_b 9.505449
_cell_length_c 19.056006
_cell_angle_alpha 90.000000
_cell_angle_beta 90.000000
_cell_angle_gamma 90.000000
_cell_volume 5597.302877
_symmetry_space_group_name_H-M "I M M M"
_symmetry_group_IT_number 71
_symmetry_cell_setting 'orthorhombic'
loop_
_space_group_symop_operation_xyz
x,y,z
-x,-y,z
x,-y,-z
-x,y,-z
-x,-y,-z
x,y,-z
-x,y,z
x,-y,z
1/2+x,1/2+y,1/2+z
1/2-x,1/2-y,1/2+z
1/2+x,1/2-y,1/2-z
1/2-x,1/2+y,1/2-z
1/2-x,1/2-y,1/2-z
1/2+x,1/2+y,1/2-z
1/2-x,1/2+y,1/2+z
1/2+x,1/2-y,1/2+z
loop_
_atom_site_type_symbol
_atom_site_label
_atom_site_fract_x
_atom_site_fract_y
_atom_site_fract_z
Si Si1 0.627327 0.163569 0.174422
Si Si2 0.703807 0.166875 0.922376
Si Si3 0.047858 0.842099 0.160875
Si Si4 0.800825 0.839325 0.082537
Si Si5 0.547575 0.342172 0.172430
Si Si6 0.371829 0.164433 0.661472
O O1 0.669004 0.224808 0.133410
O O2 0.584710 0.239557 0.143606
O O3 0.634231 0.194193 0.256228
O O4 0.620663 0.000000 0.159477
O O5 0.752095 0.210827 0.899119
O O6 0.702050 0.000000 0.925513
O O7 0.693267 0.227591 0.000000
O O8 0.047507 0.838295 0.244166
O O9 0.083793 0.733878 0.132407
O O10 0.000000 0.798447 0.132977
O O11 0.059210 0.000000 0.134851
O O12 0.831700 0.733279 0.122682
O O13 0.808837 0.000000 0.107614
O O14 0.809254 0.827797 0.000000
O O15 0.500000 0.293368 0.145319
O O16 0.557245 0.500000 0.145940
O O17 0.373563 0.000000 0.644244
#
# Coordination Sequence:
#
# PCOD8288132 Si02
#       6
#    16  16  16  16  16  16
#     4   9  17  28  44  69  95 116 145 185 226 266
#     4   8  15  30  50  67  85 115 154 191 223 257
#     4   8  14  26  44  64  87 118 154 185 212 252
#     4   9  18  33  51  66  82 114 158 191 216 258
#     4   8  14  25  41  62  89 120 151 181 216 260
#     4  10  19  28  42  69 100 121 139 176 230 274
#
# _framework density 17.151118
#
# number of rings (size 3 to 8) (size 9 to 14) (size 15 to 20)
#    0.000    3.333    0.000    2.500    0.000    2.333 
#    0.000    4.167    0.000    2.500    0.000    7.000 
#    0.000    0.000    0.000    0.000    0.000    0.000 
#
# Total GULP energy -594895.245977 kJ/mol
# GULP energy per Si atom -12393.650958 kJ/mol
# Density = 1.711208 g / cm^3
# Si number density = 17.151118 Si / 1000 Ang^3
#
#
#
# Elastic Constant Matrix: (Units=GPa)
#
#
# Indices 1 2 3 4 5 6 
#
# 1 177.2610 82.0762 53.2845 0.0000 0.0000 0.0000
# 2 82.0762 84.8037 34.7080 0.0000 0.0000 0.0000
# 3 53.2845 34.7080 35.3727 0.0000 0.0000 0.0000
# 4 0.0000 0.0000 0.0000 13.8045 0.0000 0.0000
# 5 0.0000 0.0000 0.0000 0.0000 -0.0576 0.0000
# 6 0.0000 0.0000 0.0000 0.0000 0.0000 29.9772
#
#
#
# Elastic Compliance Matrix: (Units=1/GPa)
#
#
# Indices 1 2 3 4 5 6 
#
# 1 0.012578 -0.007384 -0.011702 0.000000 0.000000 0.000000
# 2 -0.007384 0.024040 -0.012465 0.000000 0.000000 0.000000
# 3 -0.011702 -0.012465 0.058128 0.000000 0.000000 0.000000
# 4 0.000000 0.000000 0.000000 0.072440 0.000000 0.000000
# 5 0.000000 0.000000 0.000000 0.000000-17.370706 0.000000
# 6 0.000000 0.000000 0.000000 0.000000 0.000000 0.033359
#
#
# Mechanical properties :
#
#
# Convention : Reuss Voigt Hill
#
# Bulk Modulus (GPa) = 31.60104 70.84167 51.22135
# Shear Modulus (GPa) = -0.29246 17.23608 8.47181
#
# Velocity S-wave (km/s) = -0.41339 3.17354 2.22491
# Velocity P-wave (km/s) = 4.27050 7.40422 6.04400
#
# Compressibility (1/GPa) = 0.03164453
#
# Stress axis : x y z
#
# Youngs Moduli (GPa) = 79.50394 41.59665 17.20333
#
# Poissons Ratio (x) = 0.30716 0.20131
# Poissons Ratio (y) = 0.58708 0.21444
# Poissons Ratio (z) = 0.93032 0.51851
#
# Static dielectric constant tensor:
#      x y z
#    x 3.659350 0.000000 0.000000 
#    y 0.000000 3.112890 0.000000 
#    z 0.000000 0.000000 2.921200 
# 
# 
# High freq. dielectric constant tensor:
#      x y z
#    x 1.678270 0.000000 0.000000 
#    y 0.000000 1.644770 0.000000 
#    z 0.000000 0.000000 1.619450 
# 
# From -- ./inp_files/10981.got.cif
#   From: 2010.06.25/outbox.cif.g09.slc.cpg/sg71_6_cif.got.tgz:10981.got - 2010.06.28 04:59:45.
