data_PCOD8288764
_publ_section_title
;
Structure prediction by ZEFSAII (Michael W. Deem and Ramdas Pophale) SiO2 
 PCOD8288764
Probable space group: I M M M
;
_chemical_formula_sum "Si O2"
_cell_formula_units_Z 72
_cell_length_a 23.396938
_cell_length_b 11.480844
_cell_length_c 15.077660
_cell_angle_alpha 90.000000
_cell_angle_beta 90.000000
_cell_angle_gamma 90.000000
_cell_volume 4050.109694
_symmetry_space_group_name_H-M "I M M M"
_symmetry_group_IT_number 71
_symmetry_cell_setting 'orthorhombic'
loop_
_space_group_symop_operation_xyz
x,y,z
-x,-y,z
x,-y,-z
-x,y,-z
-x,-y,-z
x,y,-z
-x,y,z
x,-y,z
1/2+x,1/2+y,1/2+z
1/2-x,1/2-y,1/2+z
1/2+x,1/2-y,1/2-z
1/2-x,1/2+y,1/2-z
1/2-x,1/2-y,1/2-z
1/2+x,1/2+y,1/2-z
1/2-x,1/2+y,1/2+z
1/2+x,1/2-y,1/2+z
loop_
_atom_site_type_symbol
_atom_site_label
_atom_site_fract_x
_atom_site_fract_y
_atom_site_fract_z
Si Si1 0.500000 0.297105 0.104593
Si Si2 0.803637 0.862913 0.500000
Si Si3 0.500000 0.134902 0.734487
Si Si4 0.876699 0.133290 0.337862
Si Si5 0.827971 0.360346 0.000000
Si Si6 0.892422 0.754926 0.836164
Si Si7 0.067289 0.000000 0.097084
O O1 0.500000 0.182187 0.165203
O O2 0.443018 0.368375 0.130600
O O3 0.500000 0.266339 0.000000
O O4 0.835904 0.814598 0.586132
O O5 0.738017 0.824879 0.500000
O O6 0.810320 0.000000 0.500000
O O7 0.553933 0.171217 0.675646
O O8 0.500000 0.000000 0.746770
O O9 0.861944 0.224331 0.258563
O O10 0.860687 0.000000 0.312860
O O11 0.853570 0.302591 0.088506
O O12 0.837633 0.500000 0.000000
O O13 0.912517 0.885025 0.855131
O O14 0.000000 0.000000 0.093765
O O15 0.094598 0.000000 0.000000
#
# Coordination Sequence:
#
# PCOD8288764 Si02
#       7
#     8   8   8  16   8  16   8
#     4  10  19  31  55  88 114 147 180 217 277 329
#     4   9  20  37  54  79 110 147 191 233 273 326
#     4  10  22  36  51  81 117 150 186 214 264 334
#     4  10  19  32  56  87 118 142 174 229 288 337
#     4  11  24  40  55  75 107 154 202 229 264 323
#     4  11  21  35  58  84 112 147 178 233 280 332
#     4  11  20  34  54  85 121 139 175 222 298 342
#
# _framework density 17.777297000000001
#
# number of rings (size 3 to 8) (size 9 to 14) (size 15 to 20)
#    0.000    1.667    4.444    1.000    0.000    2.000 
#    0.000    1.111    0.000    0.000   14.444    0.000 
#    0.000    0.000    0.000    0.000    0.000    0.000 
#
# Total GULP energy -446159.064207 kJ/mol
# GULP energy per Si atom -12393.307339 kJ/mol
# Density = 1.773683 g / cm^3
# Si number density = 17.777297 Si / 1000 Ang^3
#
#
#
# Elastic Constant Matrix: (Units=GPa)
#
#
# Indices 1 2 3 4 5 6 
#
# 1 93.0872 33.0742 69.9146 0.0000 0.0000 0.0000
# 2 33.0742 95.9523 39.2234 0.0000 0.0000 0.0000
# 3 69.9146 39.2234 151.0883 0.0000 0.0000 0.0000
# 4 0.0000 0.0000 0.0000 25.4532 0.0000 0.0000
# 5 0.0000 0.0000 0.0000 0.0000 22.4721 0.0000
# 6 0.0000 0.0000 0.0000 0.0000 0.0000 33.7143
#
#
#
# Elastic Compliance Matrix: (Units=1/GPa)
#
#
# Indices 1 2 3 4 5 6 
#
# 1 0.017200 -0.002993 -0.007182 0.000000 0.000000 0.000000
# 2 -0.002993 0.012180 -0.001777 0.000000 0.000000 0.000000
# 3 -0.007182 -0.001777 0.010404 0.000000 0.000000 0.000000
# 4 0.000000 0.000000 0.000000 0.039288 0.000000 0.000000
# 5 0.000000 0.000000 0.000000 0.000000 0.044500 0.000000
# 6 0.000000 0.000000 0.000000 0.000000 0.000000 0.029661
#
#
# Mechanical properties :
#
#
# Convention : Reuss Voigt Hill
#
# Bulk Modulus (GPa) = 62.97510 69.39468 66.18489
# Shear Modulus (GPa) = 27.40777 29.52228 28.46502
#
# Velocity S-wave (km/s) = 3.93074 4.07956 4.00584
# Velocity P-wave (km/s) = 7.49015 7.83011 7.66202
#
# Compressibility (1/GPa) = 0.01587929
#
# Stress axis : x y z
#
# Youngs Moduli (GPa) = 58.13815 82.10248 96.12119
#
# Poissons Ratio (x) = 0.24572 0.69038
# Poissons Ratio (y) = 0.17400 0.17081
# Poissons Ratio (z) = 0.41757 0.14590
#
# Static dielectric constant tensor:
#      x y z
#    x 3.252150 0.000000 0.000000 
#    y 0.000000 2.841970 0.000000 
#    z 0.000000 0.000000 3.773270 
# 
# 
# High freq. dielectric constant tensor:
#      x y z
#    x 1.672790 0.000000 0.000000 
#    y 0.000000 1.672140 0.000000 
#    z 0.000000 0.000000 1.710690 
# 
# From -- ./inp_files/38940.got.cif
#   From: 2010.06.25/outbox.cif.g09.slc.cpg/sg71_20_cif.got.tgz:38940.got - 2010.06.28 04:59:45.
