data_PCOD8288030
_publ_section_title
;
Structure prediction by ZEFSAII (Michael W. Deem and Ramdas Pophale) SiO2 
 PCOD8288030
Probable space group: I M M M
;
_chemical_formula_sum "Si O2"
_cell_formula_units_Z 104
_cell_length_a 28.780252
_cell_length_b 8.140779
_cell_length_c 21.566571
_cell_angle_alpha 90.000000
_cell_angle_beta 90.000000
_cell_angle_gamma 90.000000
_cell_volume 5052.911093
_symmetry_space_group_name_H-M "I M M M"
_symmetry_group_IT_number 71
_symmetry_cell_setting 'orthorhombic'
loop_
_space_group_symop_operation_xyz
x,y,z
-x,-y,z
x,-y,-z
-x,y,-z
-x,-y,-z
x,y,-z
-x,y,z
x,-y,z
1/2+x,1/2+y,1/2+z
1/2-x,1/2-y,1/2+z
1/2+x,1/2-y,1/2-z
1/2-x,1/2+y,1/2-z
1/2-x,1/2-y,1/2-z
1/2+x,1/2+y,1/2-z
1/2-x,1/2+y,1/2+z
1/2+x,1/2-y,1/2+z
loop_
_atom_site_type_symbol
_atom_site_label
_atom_site_fract_x
_atom_site_fract_y
_atom_site_fract_z
Si Si1 0.364454 0.189106 0.203269
Si Si2 0.225005 0.304890 0.632684
Si Si3 0.948839 0.500000 0.073544
Si Si4 0.177836 0.813847 0.176424
Si Si5 0.448278 0.692947 0.127378
Si Si6 0.195858 0.306690 0.500000
Si Si7 0.407558 0.690893 0.000000
Si Si8 0.892643 0.183198 0.071597
O O1 0.321239 0.267136 0.165101
O O2 0.353897 0.212286 0.275910
O O3 0.413189 0.269741 0.183859
O O4 0.369019 0.000000 0.186821
O O5 0.226542 0.500000 0.638520
O O6 0.270695 0.235051 0.667864
O O7 0.224918 0.252379 0.560538
O O8 0.925162 0.330614 0.096446
O O9 0.000000 0.500000 0.102826
O O10 0.951111 0.500000 0.000000
O O11 0.155197 0.807168 0.108671
O O12 0.180685 0.000000 0.201158
O O13 0.500000 0.763857 0.141864
O O14 0.451321 0.500000 0.120021
O O15 0.429681 0.770544 0.062411
O O16 0.185528 0.500000 0.500000
O O17 0.147160 0.215254 0.500000
O O18 0.419154 0.500000 0.000000
O O19 0.915497 0.000000 0.081083
O O20 0.880087 0.211041 0.000000
#
# Coordination Sequence:
#
# PCOD8288030 Si02
#       8
#    16  16   8  16  16   8   8  16
#     4  11  22  37  57  83 115 152 195 241 286 342
#     4   9  19  34  56  84 114 151 192 231 282 345
#     4   9  18  34  58  84 116 150 180 227 294 354
#     4  10  21  37  58  82 112 154 194 232 287 349
#     4  10  21  38  60  84 114 154 197 243 295 349
#     4  10  18  33  57  85 118 152 186 235 290 343
#     4  10  19  34  58  86 118 150 192 244 295 345
#     4   9  19  35  58  87 116 146 190 243 296 357
#
# _framework density 20.582194999999999
#
# number of rings (size 3 to 8) (size 9 to 14) (size 15 to 20)
#    0.000    2.231    1.538    1.154    2.154    1.538 
#    0.000    3.846    0.000    2.308    0.000    0.000 
#    0.000    0.000    0.000    0.000    0.000    0.000 
#
# Total GULP energy -644579.911010 kJ/mol
# GULP energy per Si atom -12395.767519 kJ/mol
# Density = 2.053535 g / cm^3
# Si number density = 20.582195 Si / 1000 Ang^3
#
#
#
# Elastic Constant Matrix: (Units=GPa)
#
#
# Indices 1 2 3 4 5 6 
#
# 1 156.5381 29.1800 59.8951 0.0000 0.0000 0.0000
# 2 29.1800 60.5969 11.8414 0.0000 0.0000 0.0000
# 3 59.8951 11.8414 108.9572 0.0000 0.0000 0.0000
# 4 0.0000 0.0000 0.0000 18.3928 0.0000 0.0000
# 5 0.0000 0.0000 0.0000 0.0000 29.8756 0.0000
# 6 0.0000 0.0000 0.0000 0.0000 0.0000 24.9660
#
#
#
# Elastic Compliance Matrix: (Units=1/GPa)
#
#
# Indices 1 2 3 4 5 6 
#
# 1 0.008700 -0.003325 -0.004421 0.000000 0.000000 0.000000
# 2 -0.003325 0.018132 -0.000143 0.000000 0.000000 0.000000
# 3 -0.004421 -0.000143 0.011624 0.000000 0.000000 0.000000
# 4 0.000000 0.000000 0.000000 0.054369 0.000000 0.000000
# 5 0.000000 0.000000 0.000000 0.000000 0.033472 0.000000
# 6 0.000000 0.000000 0.000000 0.000000 0.000000 0.040054
#
#
# Mechanical properties :
#
#
# Convention : Reuss Voigt Hill
#
# Bulk Modulus (GPa) = 44.09693 58.65836 51.37764
# Shear Modulus (GPa) = 26.35918 29.65860 28.00889
#
# Velocity S-wave (km/s) = 3.58254 3.80015 3.69295
# Velocity P-wave (km/s) = 6.21161 6.91493 6.57268
#
# Compressibility (1/GPa) = 0.02267732
#
# Stress axis : x y z
#
# Youngs Moduli (GPa) = 114.94735 55.15218 86.03167
#
# Poissons Ratio (x) = 0.18340 0.38034
# Poissons Ratio (y) = 0.38224 0.01226
# Poissons Ratio (z) = 0.50817 0.00786
#
# Static dielectric constant tensor:
#      x y z
#    x 3.870190 0.000000 0.000000 
#    y 0.000000 3.608690 0.000000 
#    z 0.000000 0.000000 3.664750 
# 
# 
# High freq. dielectric constant tensor:
#      x y z
#    x 1.800180 0.000000 0.000000 
#    y 0.000000 1.784260 0.000000 
#    z 0.000000 0.000000 1.799800 
# 
# From -- ./inp_files/56325.got.cif
#   From: 2010.06.25/outbox.cif.g09.slc.cpg/sg71_29_cif.got.tgz:56325.got - 2010.06.28 04:59:45.
