data_PCOD8288663
_publ_section_title
;
Structure prediction by ZEFSAII (Michael W. Deem and Ramdas Pophale) SiO2 
 PCOD8288663
Probable space group: I M M M
;
_chemical_formula_sum "Si O2"
_cell_formula_units_Z 88
_cell_length_a 9.023756
_cell_length_b 17.078037
_cell_length_c 32.087552
_cell_angle_alpha 90.000000
_cell_angle_beta 90.000000
_cell_angle_gamma 90.000000
_cell_volume 4944.949710
_symmetry_space_group_name_H-M "I M M M"
_symmetry_group_IT_number 71
_symmetry_cell_setting 'orthorhombic'
loop_
_space_group_symop_operation_xyz
x,y,z
-x,-y,z
x,-y,-z
-x,y,-z
-x,-y,-z
x,y,-z
-x,y,z
x,-y,z
1/2+x,1/2+y,1/2+z
1/2-x,1/2-y,1/2+z
1/2+x,1/2-y,1/2-z
1/2-x,1/2+y,1/2-z
1/2-x,1/2-y,1/2-z
1/2+x,1/2+y,1/2-z
1/2-x,1/2+y,1/2+z
1/2+x,1/2-y,1/2+z
loop_
_atom_site_type_symbol
_atom_site_label
_atom_site_fract_x
_atom_site_fract_y
_atom_site_fract_z
Si Si1 0.327004 0.156809 0.451287
Si Si2 0.665151 0.636724 0.732596
Si Si3 0.830610 0.414219 0.345299
Si Si4 0.324817 0.245405 0.885006
Si Si5 0.166141 0.307012 0.193358
Si Si6 0.667435 0.500000 0.950515
O O1 0.296926 0.169204 0.500000
O O2 0.500000 0.152745 0.441149
O O3 0.252933 0.230230 0.427998
O O4 0.252560 0.076939 0.434491
O O5 0.500000 0.605379 0.741291
O O6 0.738823 0.583595 0.697288
O O7 0.757898 0.630580 0.775515
O O8 0.659877 0.724998 0.716718
O O9 0.811918 0.500000 0.366771
O O10 0.779273 0.345425 0.376659
O O11 0.000000 0.397714 0.332695
O O12 0.500000 0.256505 0.888875
O O13 0.264181 0.300660 0.848210
O O14 0.000000 0.335127 0.181861
O O15 0.500000 0.500000 0.932900
O O16 0.667340 0.500000 0.000000
#
# Coordination Sequence:
#
# PCOD8288663 Si02
#       6
#    16  16  16  16  16   8
#     4  10  20  34  53  77 105 135 166 201 246 303
#     4   9  16  26  43  67  92 120 158 201 244 292
#     4   9  18  32  49  70  98 133 173 216 260 303
#     4  10  19  31  50  75 101 131 170 214 256 300
#     4   9  16  27  44  66  93 124 157 195 243 297
#     4   9  17  31  53  79 103 127 157 193 235 287
#
# _framework density 17.795935
#
# number of rings (size 3 to 8) (size 9 to 14) (size 15 to 20)
#    0.000    2.636    0.000    2.455    0.000    7.636 
#    0.000    0.000    2.000    0.545    0.000    3.818 
#    0.000    0.000    0.000    0.000    0.000    0.000 
#
# Total GULP energy -545502.254543 kJ/mol
# GULP energy per Si atom -12397.778512 kJ/mol
# Density = 1.775543 g / cm^3
# Si number density = 17.795935 Si / 1000 Ang^3
#
#
#
# Elastic Constant Matrix: (Units=GPa)
#
#
# Indices 1 2 3 4 5 6 
#
# 1 125.3162 48.2745 50.8603 0.0000 0.0000 0.0000
# 2 48.2745 92.7566 47.5868 0.0000 0.0000 0.0000
# 3 50.8603 47.5868 74.5527 0.0000 0.0000 0.0000
# 4 0.0000 0.0000 0.0000 20.1663 0.0000 0.0000
# 5 0.0000 0.0000 0.0000 0.0000 32.3933 0.0000
# 6 0.0000 0.0000 0.0000 0.0000 0.0000 20.6570
#
#
#
# Elastic Compliance Matrix: (Units=1/GPa)
#
#
# Indices 1 2 3 4 5 6 
#
# 1 0.011546 -0.002926 -0.006009 0.000000 0.000000 0.000000
# 2 -0.002926 0.016772 -0.008709 0.000000 0.000000 0.000000
# 3 -0.006009 -0.008709 0.023072 0.000000 0.000000 0.000000
# 4 0.000000 0.000000 0.000000 0.049588 0.000000 0.000000
# 5 0.000000 0.000000 0.000000 0.000000 0.030871 0.000000
# 6 0.000000 0.000000 0.000000 0.000000 0.000000 0.048410
#
#
# Mechanical properties :
#
#
# Convention : Reuss Voigt Hill
#
# Bulk Modulus (GPa) = 62.10835 65.11875 63.61355
# Shear Modulus (GPa) = 22.63339 24.37025 23.50182
#
# Velocity S-wave (km/s) = 3.57014 3.70459 3.63799
# Velocity P-wave (km/s) = 7.20906 7.41418 7.31234
#
# Compressibility (1/GPa) = 0.01610089
#
# Stress axis : x y z
#
# Youngs Moduli (GPa) = 86.61186 59.62362 43.34337
#
# Poissons Ratio (x) = 0.17447 0.26044
# Poissons Ratio (y) = 0.25345 0.37748
# Poissons Ratio (z) = 0.52043 0.51927
#
# Static dielectric constant tensor:
#      x y z
#    x 3.519660 0.000000 0.000000 
#    y 0.000000 3.140160 0.000000 
#    z 0.000000 0.000000 3.084900 
# 
# 
# High freq. dielectric constant tensor:
#      x y z
#    x 1.706510 0.000000 0.000000 
#    y 0.000000 1.664570 0.000000 
#    z 0.000000 0.000000 1.660230 
# 
# From -- ./inp_files/49194.got.cif
#   From: 2010.06.25/outbox.cif.g09.slc.cpg/sg71_25_cif.got.tgz:49194.got - 2010.06.28 04:59:45.
