data_PCOD8288805
_publ_section_title
;
Structure prediction by ZEFSAII (Michael W. Deem and Ramdas Pophale) SiO2 
 PCOD8288805
Probable space group: I M M M
;
_chemical_formula_sum "Si O2"
_cell_formula_units_Z 72
_cell_length_a 14.957631
_cell_length_b 10.070879
_cell_length_c 28.094270
_cell_angle_alpha 90.000000
_cell_angle_beta 90.000000
_cell_angle_gamma 90.000000
_cell_volume 4232.022276
_symmetry_space_group_name_H-M "I M M M"
_symmetry_group_IT_number 71
_symmetry_cell_setting 'orthorhombic'
loop_
_space_group_symop_operation_xyz
x,y,z
-x,-y,z
x,-y,-z
-x,y,-z
-x,-y,-z
x,y,-z
-x,y,z
x,-y,z
1/2+x,1/2+y,1/2+z
1/2-x,1/2-y,1/2+z
1/2+x,1/2-y,1/2-z
1/2-x,1/2+y,1/2-z
1/2-x,1/2-y,1/2-z
1/2+x,1/2+y,1/2-z
1/2-x,1/2+y,1/2+z
1/2+x,1/2-y,1/2+z
loop_
_atom_site_type_symbol
_atom_site_label
_atom_site_fract_x
_atom_site_fract_y
_atom_site_fract_z
Si Si1 0.394823 0.644449 0.553010
Si Si2 0.163259 0.345380 0.871758
Si Si3 0.635775 0.344203 0.133317
Si Si4 0.500000 0.658464 0.054695
Si Si5 0.000000 0.654882 0.802770
Si Si6 0.000000 0.156613 0.712555
O O1 0.355851 0.653084 0.500000
O O2 0.500000 0.659296 0.552257
O O3 0.368761 0.500000 0.575195
O O4 0.354796 0.766879 0.580578
O O5 0.159248 0.500000 0.884310
O O6 0.262651 0.298154 0.857513
O O7 0.089737 0.310433 0.832043
O O8 0.629895 0.500000 0.127937
O O9 0.587326 0.289496 0.084889
O O10 0.585592 0.302062 0.181389
O O11 0.500000 0.500000 0.052031
O O12 0.500000 0.715192 0.000000
O O13 0.000000 0.500000 0.787403
O O14 0.000000 0.752423 0.758632
O O15 0.000000 0.000000 0.726406
#
# Coordination Sequence:
#
# PCOD8288805 Si02
#       6
#    16  16  16   8   8   8
#     4   9  18  32  48  67  96 132 165 196 229 273
#     4  10  19  32  49  72 100 128 158 198 246 290
#     4   8  16  30  48  70  97 124 157 201 241 281
#     4   8  13  24  44  70  97 124 155 194 238 278
#     4  10  21  33  46  69 100 126 154 201 250 294
#     4   9  18  35  54  70  90 125 166 203 244 289
#
# _framework density 17.013142999999999
#
# number of rings (size 3 to 8) (size 9 to 14) (size 15 to 20)
#    0.000    3.000    1.111    2.000    0.000    3.111 
#    0.000    4.444    0.000    0.000    0.000    0.000 
#    0.000    6.222    0.000    0.000    0.000    0.000 
#
# Total GULP energy -445975.816509 kJ/mol
# GULP energy per Si atom -12388.217125 kJ/mol
# Density = 1.697442 g / cm^3
# Si number density = 17.013143 Si / 1000 Ang^3
#
#
#
# Elastic Constant Matrix: (Units=GPa)
#
#
# Indices 1 2 3 4 5 6 
#
# 1 123.7757 35.4445 90.9821 0.0000 0.0000 0.0000
# 2 35.4445 50.8802 58.5185 0.0000 0.0000 0.0000
# 3 90.9821 58.5185 104.0001 0.0000 0.0000 0.0000
# 4 0.0000 0.0000 0.0000 21.8227 0.0000 0.0000
# 5 0.0000 0.0000 0.0000 0.0000 -22.2976 0.0000
# 6 0.0000 0.0000 0.0000 0.0000 0.0000 8.5670
#
#
#
# Elastic Compliance Matrix: (Units=1/GPa)
#
#
# Indices 1 2 3 4 5 6 
#
# 1 0.032931 0.028888 -0.045063 0.000000 0.000000 0.000000
# 2 0.028888 0.081042 -0.070872 0.000000 0.000000 0.000000
# 3 -0.045063 -0.070872 0.088916 0.000000 0.000000 0.000000
# 4 0.000000 0.000000 0.000000 0.045824 0.000000 0.000000
# 5 0.000000 0.000000 0.000000 0.000000 -0.044848 0.000000
# 6 0.000000 0.000000 0.000000 0.000000 0.000000 0.116727
#
#
# Mechanical properties :
#
#
# Convention : Reuss Voigt Hill
#
# Bulk Modulus (GPa) = 34.73020 72.06069 53.39545
# Shear Modulus (GPa) = 9.91504 7.86583 8.89043
#
# Velocity S-wave (km/s) = 2.41672 2.15254 2.28844
# Velocity P-wave (km/s) = 5.31464 6.97322 6.19964
#
# Compressibility (1/GPa) = 0.02879338
#
# Stress axis : x y z
#
# Youngs Moduli (GPa) = 30.36663 12.33934 11.24656
#
# Poissons Ratio (x) = -0.35646 0.50681
# Poissons Ratio (y) = -0.87723 0.79707
# Poissons Ratio (z) = 1.36842 0.87452
#
# Static dielectric constant tensor:
#      x y z
#    x -3.717490 0.000000 0.000000 
#    y 0.000000 3.030020 0.000000 
#    z 0.000000 0.000000 3.293230 
# 
# 
# High freq. dielectric constant tensor:
#      x y z
#    x 1.660840 0.000000 0.000000 
#    y 0.000000 1.625290 0.000000 
#    z 0.000000 0.000000 1.651310 
# 
# From -- ./inp_files/16396.got.cif
#   From: 2010.06.25/outbox.cif.g09.slc.cpg/sg71_9_cif.got.tgz:16396.got - 2010.06.28 04:59:45.
