data_PCOD8288336
_publ_section_title
;
Structure prediction by ZEFSAII (Michael W. Deem and Ramdas Pophale) SiO2 
 PCOD8288336
Probable space group: I M M M
;
_chemical_formula_sum "Si O2"
_cell_formula_units_Z 80
_cell_length_a 9.139953
_cell_length_b 18.496525
_cell_length_c 25.848623
_cell_angle_alpha 90.000000
_cell_angle_beta 90.000000
_cell_angle_gamma 90.000000
_cell_volume 4369.900201
_symmetry_space_group_name_H-M "I M M M"
_symmetry_group_IT_number 71
_symmetry_cell_setting 'orthorhombic'
loop_
_space_group_symop_operation_xyz
x,y,z
-x,-y,z
x,-y,-z
-x,y,-z
-x,-y,-z
x,y,-z
-x,y,z
x,-y,z
1/2+x,1/2+y,1/2+z
1/2-x,1/2-y,1/2+z
1/2+x,1/2-y,1/2-z
1/2-x,1/2+y,1/2-z
1/2-x,1/2-y,1/2-z
1/2+x,1/2+y,1/2-z
1/2-x,1/2+y,1/2+z
1/2+x,1/2-y,1/2+z
loop_
_atom_site_type_symbol
_atom_site_label
_atom_site_fract_x
_atom_site_fract_y
_atom_site_fract_z
Si Si1 0.674230 0.581512 0.000000
Si Si2 0.673722 0.919858 0.194686
Si Si3 0.330399 0.084259 0.689448
Si Si4 0.174438 0.581990 0.500000
Si Si5 0.674336 0.169819 0.901230
Si Si6 0.826132 0.833384 0.599869
O O1 0.733917 0.622142 0.949271
O O2 0.735828 0.500000 0.000000
O O3 0.500000 0.581713 0.000000
O O4 0.500000 0.923325 0.191530
O O5 0.719051 0.894966 0.252276
O O6 0.736355 0.864683 0.151943
O O7 0.736402 0.000000 0.183133
O O8 0.500000 0.102365 0.680445
O O9 0.233352 0.132228 0.652055
O O10 0.300054 0.000000 0.678929
O O11 0.234496 0.500000 0.500000
O O12 0.234402 0.623528 0.449494
O O13 0.000000 0.581661 0.500000
O O14 0.500000 0.168708 0.901428
O O15 0.731959 0.251592 0.905469
O O16 0.000000 0.835706 0.602120
#
# Coordination Sequence:
#
# PCOD8288336 Si02
#       6
#     8  16  16   8  16  16
#     4   9  17  29  44  61  84 116 148 175 214 269
#     4   8  14  26  43  61  85 119 152 180 218 268
#     4   9  18  32  48  65  87 118 155 189 219 260
#     4   9  15  23  39  64  94 125 154 186 222 261
#     4   9  16  25  39  63  93 120 148 184 225 268
#     4  10  19  30  46  68  93 119 147 184 229 272
#
# _framework density 18.307054999999998
#
# number of rings (size 3 to 8) (size 9 to 14) (size 15 to 20)
#    0.000    3.000    0.000    3.000    0.000    6.800 
#    0.000    0.500    0.000    1.800    0.000    0.000 
#    0.000    3.200    0.000    0.000    0.000    0.400 
#
# Total GULP energy -495885.018073 kJ/mol
# GULP energy per Si atom -12397.125452 kJ/mol
# Density = 1.826539 g / cm^3
# Si number density = 18.307055 Si / 1000 Ang^3
#
#
#
# Elastic Constant Matrix: (Units=GPa)
#
#
# Indices 1 2 3 4 5 6 
#
# 1 9.5406 17.3992 16.4557 0.0000 0.0000 0.0000
# 2 17.3992 164.5376 107.9769 0.0000 0.0000 0.0000
# 3 16.4557 107.9769 175.9074 0.0000 0.0000 0.0000
# 4 0.0000 0.0000 0.0000 30.6467 0.0000 0.0000
# 5 0.0000 0.0000 0.0000 0.0000 15.3083 0.0000
# 6 0.0000 0.0000 0.0000 0.0000 0.0000 12.7663
#
#
#
# Elastic Compliance Matrix: (Units=1/GPa)
#
#
# Indices 1 2 3 4 5 6 
#
# 1 0.134065 -0.009958 -0.006429 0.000000 0.000000 0.000000
# 2 -0.009958 0.010917 -0.005770 0.000000 0.000000 0.000000
# 3 -0.006429 -0.005770 0.009828 0.000000 0.000000 0.000000
# 4 0.000000 0.000000 0.000000 0.032630 0.000000 0.000000
# 5 0.000000 0.000000 0.000000 0.000000 0.065324 0.000000
# 6 0.000000 0.000000 0.000000 0.000000 0.000000 0.078331
#
#
# Mechanical properties :
#
#
# Convention : Reuss Voigt Hill
#
# Bulk Modulus (GPa) = 9.05005 70.40547 39.72776
# Shear Modulus (GPa) = 12.12887 25.62117 18.87502
#
# Velocity S-wave (km/s) = 2.57675 3.74508 3.21444
# Velocity P-wave (km/s) = 3.71578 7.56587 5.96026
#
# Compressibility (1/GPa) = 0.11049658
#
# Stress axis : x y z
#
# Youngs Moduli (GPa) = 7.45908 91.60125 101.75279
#
# Poissons Ratio (x) = 0.91215 0.65417
# Poissons Ratio (y) = 0.07428 0.58707
# Poissons Ratio (z) = 0.04795 0.52850
#
# Static dielectric constant tensor:
#      x y z
#    x 2.650660 0.000000 0.000000 
#    y 0.000000 3.596760 0.000000 
#    z 0.000000 0.000000 3.635060 
# 
# 
# High freq. dielectric constant tensor:
#      x y z
#    x 1.632480 0.000000 0.000000 
#    y 0.000000 1.719260 0.000000 
#    z 0.000000 0.000000 1.728520 
# 
# From -- ./inp_files/43491.got.cif
#   From: 2010.06.25/outbox.cif.g09.slc.cpg/sg71_22_cif.got.tgz:43491.got - 2010.06.28 04:59:45.
