data_PCOD8288051
_publ_section_title
;
Structure prediction by ZEFSAII (Michael W. Deem and Ramdas Pophale) SiO2 
 PCOD8288051
Probable space group: I M M M
;
_chemical_formula_sum "Si O2"
_cell_formula_units_Z 88
_cell_length_a 17.841704
_cell_length_b 16.639311
_cell_length_c 16.626029
_cell_angle_alpha 90.000000
_cell_angle_beta 90.000000
_cell_angle_gamma 90.000000
_cell_volume 4935.830108
_symmetry_space_group_name_H-M "I M M M"
_symmetry_group_IT_number 71
_symmetry_cell_setting 'orthorhombic'
loop_
_space_group_symop_operation_xyz
x,y,z
-x,-y,z
x,-y,-z
-x,y,-z
-x,-y,-z
x,y,-z
-x,y,z
x,-y,z
1/2+x,1/2+y,1/2+z
1/2-x,1/2-y,1/2+z
1/2+x,1/2-y,1/2-z
1/2-x,1/2+y,1/2-z
1/2-x,1/2-y,1/2-z
1/2+x,1/2+y,1/2-z
1/2-x,1/2+y,1/2+z
1/2+x,1/2-y,1/2+z
loop_
_atom_site_type_symbol
_atom_site_label
_atom_site_fract_x
_atom_site_fract_y
_atom_site_fract_z
Si Si1 0.239712 0.151307 0.088524
Si Si2 0.089749 0.096341 0.500000
Si Si3 0.080599 0.208364 0.088593
Si Si4 0.778448 0.588940 0.752228
Si Si5 0.670844 0.696161 0.859855
Si Si6 0.583026 0.810381 0.742994
O O1 0.149968 0.148836 0.099989
O O2 0.269062 0.091535 0.155946
O O3 0.273718 0.241434 0.096225
O O4 0.261611 0.118768 0.000000
O O5 0.127625 0.137341 0.421633
O O6 0.000000 0.112288 0.500000
O O7 0.105622 0.000000 0.500000
O O8 0.083304 0.277715 0.153354
O O9 0.000000 0.162077 0.096818
O O10 0.086757 0.248574 0.000000
O O11 0.765047 0.500000 0.785125
O O12 0.721134 0.646677 0.797434
O O13 0.864510 0.612435 0.764135
O O14 0.610427 0.744492 0.807495
O O15 0.500000 0.837353 0.769660
#
# Coordination Sequence:
#
# PCOD8288051 Si02
#       6
#    16   8  16  16  16  16
#     4  10  18  34  58  78 102 140 185 221 260 313
#     4  11  24  38  54  78 108 138 170 217 282 332
#     4   9  16  28  51  81 105 126 165 217 260 306
#     4  11  22  35  52  80 114 142 175 220 272 326
#     4  11  19  37  54  81 101 137 183 225 263 309
#     4  10  19  34  57  79 104 141 184 224 262 314
#
# _framework density 17.828814999999999
#
# number of rings (size 3 to 8) (size 9 to 14) (size 15 to 20)
#    0.000    1.727    4.545    2.182    0.000    0.727 
#    0.000    0.000    0.000    1.636    0.000    7.636 
#    0.000    0.000    0.000    0.000    0.000    0.000 
#
# Total GULP energy -545178.117310 kJ/mol
# GULP energy per Si atom -12390.411757 kJ/mol
# Density = 1.778824 g / cm^3
# Si number density = 17.828815 Si / 1000 Ang^3
#
#
#
# Elastic Constant Matrix: (Units=GPa)
#
#
# Indices 1 2 3 4 5 6 
#
# 1 101.9225 7.3540 14.2428 0.0000 0.0000 0.0000
# 2 7.3540 47.9652 -1.4762 0.0000 0.0000 0.0000
# 3 14.2428 -1.4762 68.1346 0.0000 0.0000 0.0000
# 4 0.0000 0.0000 0.0000 14.4327 0.0000 0.0000
# 5 0.0000 0.0000 0.0000 0.0000 23.9295 0.0000
# 6 0.0000 0.0000 0.0000 0.0000 0.0000 16.4726
#
#
#
# Elastic Compliance Matrix: (Units=1/GPa)
#
#
# Indices 1 2 3 4 5 6 
#
# 1 0.010233 -0.001636 -0.002175 0.000000 0.000000 0.000000
# 2 -0.001636 0.021124 0.000800 0.000000 0.000000 0.000000
# 3 -0.002175 0.000800 0.015149 0.000000 0.000000 0.000000
# 4 0.000000 0.000000 0.000000 0.069287 0.000000 0.000000
# 5 0.000000 0.000000 0.000000 0.000000 0.041790 0.000000
# 6 0.000000 0.000000 0.000000 0.000000 0.000000 0.060707
#
#
# Mechanical properties :
#
#
# Convention : Reuss Voigt Hill
#
# Bulk Modulus (GPa) = 24.70100 28.69594 26.69847
# Shear Modulus (GPa) = 21.02554 24.16039 22.59297
#
# Velocity S-wave (km/s) = 3.43782 3.68521 3.56366
# Velocity P-wave (km/s) = 5.44452 5.85131 5.65158
#
# Compressibility (1/GPa) = 0.04048418
#
# Stress axis : x y z
#
# Youngs Moduli (GPa) = 97.72027 47.33982 66.01215
#
# Poissons Ratio (x) = 0.07744 0.14355
# Poissons Ratio (y) = 0.15986 -0.05279
# Poissons Ratio (z) = 0.21250 -0.03785
#
# Static dielectric constant tensor:
#      x y z
#    x 3.746190 0.000000 0.000000 
#    y 0.000000 2.919890 0.000000 
#    z 0.000000 0.000000 3.529730 
# 
# 
# High freq. dielectric constant tensor:
#      x y z
#    x 1.708240 0.000000 0.000000 
#    y 0.000000 1.646240 0.000000 
#    z 0.000000 0.000000 1.708910 
# 
# From -- ./inp_files/36353.got.cif
#   From: 2010.06.25/outbox.cif.g09.slc.cpg/sg71_19_cif.got.tgz:36353.got - 2010.06.28 04:59:45.
