data_PCOD8288258
_publ_section_title
;
Structure prediction by ZEFSAII (Michael W. Deem and Ramdas Pophale) SiO2 
 PCOD8288258
Probable space group: I M M M
;
_chemical_formula_sum "Si O2"
_cell_formula_units_Z 80
_cell_length_a 19.223879
_cell_length_b 33.405971
_cell_length_c 8.880911
_cell_angle_alpha 90.000000
_cell_angle_beta 90.000000
_cell_angle_gamma 90.000000
_cell_volume 5703.253055
_symmetry_space_group_name_H-M "I M M M"
_symmetry_group_IT_number 71
_symmetry_cell_setting 'orthorhombic'
loop_
_space_group_symop_operation_xyz
x,y,z
-x,-y,z
x,-y,-z
-x,y,-z
-x,-y,-z
x,y,-z
-x,y,z
x,-y,z
1/2+x,1/2+y,1/2+z
1/2-x,1/2-y,1/2+z
1/2+x,1/2-y,1/2-z
1/2-x,1/2+y,1/2-z
1/2-x,1/2-y,1/2-z
1/2+x,1/2+y,1/2-z
1/2-x,1/2+y,1/2+z
1/2+x,1/2-y,1/2+z
loop_
_atom_site_type_symbol
_atom_site_label
_atom_site_fract_x
_atom_site_fract_y
_atom_site_fract_z
Si Si1 0.225563 0.812108 0.324855
Si Si2 0.348653 0.770274 0.175878
Si Si3 0.422002 0.543686 0.678126
Si Si4 0.000000 0.834415 0.679481
Si Si5 0.500000 0.754760 0.177814
Si Si6 0.366922 0.625941 0.321960
O O1 0.227076 0.821961 0.500000
O O2 0.302934 0.801135 0.270965
O O3 0.173206 0.775520 0.288335
O O4 0.202192 0.852181 0.237779
O O5 0.428905 0.777146 0.227444
O O6 0.337386 0.779200 0.000000
O O7 0.426644 0.542224 0.500000
O O8 0.500000 0.552853 0.740664
O O9 0.396545 0.500000 0.738805
O O10 0.367892 0.578760 0.724740
O O11 0.932214 0.855123 0.741192
O O12 0.000000 0.835904 0.500000
O O13 0.000000 0.789603 0.744841
O O14 0.500000 0.750605 0.000000
O O15 0.372690 0.631667 0.500000
#
# Coordination Sequence:
#
# PCOD8288258 Si02
#       6
#    16  16  16   8   8  16
#     4  10  19  30  42  58  82 109 134 168 211 244
#     4   9  17  30  44  58  78 106 138 169 204 246
#     4   8  14  25  40  58  80 104 133 171 208 239
#     4  11  19  29  40  58  83 108 136 171 213 246
#     4   9  16  29  45  58  76 105 137 171 210 242
#     4  11  19  28  43  62  79 104 142 177 206 244
#
# _framework density 14.027082999999999
#
# number of rings (size 3 to 8) (size 9 to 14) (size 15 to 20)
#    0.000    2.400    3.000    2.100    0.000    0.800 
#    0.000    0.500    0.000    3.000    0.000    0.000 
#    0.000    0.000    0.000    0.900    0.000   20.600 
#
# Total GULP energy -495698.981717 kJ/mol
# GULP energy per Si atom -12392.474543 kJ/mol
# Density = 1.399516 g / cm^3
# Si number density = 14.027083 Si / 1000 Ang^3
#
#
#
# Elastic Constant Matrix: (Units=GPa)
#
#
# Indices 1 2 3 4 5 6 
#
# 1 90.1201 45.2067 24.9991 -0.0018 -0.0079 0.0002
# 2 45.2067 98.5425 31.7170 0.0002 -0.0059 -0.0035
# 3 24.9991 31.7170 47.5936 0.0328 -0.1162 0.0271
# 4 -0.0018 0.0002 0.0328 13.2474 -0.0190 0.0049
# 5 -0.0079 -0.0059 -0.1162 -0.0190 -26.8439 -0.0059
# 6 0.0002 -0.0035 0.0271 0.0049 -0.0059 20.0842
#
#
#
# Elastic Compliance Matrix: (Units=1/GPa)
#
#
# Indices 1 2 3 4 5 6 
#
# 1 0.015046 -0.005549 -0.004205 0.000013 0.000015 0.000005
# 2 -0.005549 0.014965 -0.007058 0.000017 0.000029 0.000012
# 3 -0.004205 -0.007058 0.027924 -0.000070 -0.000118 -0.000039
# 4 0.000013 0.000017 -0.000070 0.075487 -0.000053 -0.000018
# 5 0.000015 0.000029 -0.000118 -0.000053 -0.037252 -0.000011
# 6 0.000005 0.000012 -0.000039 -0.000018 -0.000011 0.049790
#
#
# Mechanical properties :
#
#
# Convention : Reuss Voigt Hill
#
# Bulk Modulus (GPa) = 41.13536 48.90020 45.01778
# Shear Modulus (GPa) = 26.63977 10.25312 18.44644
#
# Velocity S-wave (km/s) = 4.36267 2.70654 3.63031
# Velocity P-wave (km/s) = 7.40044 6.68612 7.05233
#
# Compressibility (1/GPa) = 0.02430998
#
# Stress axis : x y z
#
# Youngs Moduli (GPa) = 66.46108 66.82095 35.81194
#
# Poissons Ratio (x) = 0.37079 0.15060
# Poissons Ratio (y) = 0.36880 0.25277
# Poissons Ratio (z) = 0.27949 0.47165
#
# Static dielectric constant tensor:
#      x y z
#    x 2.941350 0.000030 -0.000040 
#    y 0.000030 2.926570 -0.000070 
#    z -0.000040 -0.000070 2.643670 
# 
# 
# High freq. dielectric constant tensor:
#      x y z
#    x 1.512270 0.000000 0.000000 
#    y 0.000000 1.513640 0.000000 
#    z 0.000000 0.000000 1.526940 
# 
# From -- ./inp_files/11300.got.cif
#   From: 2010.06.25/outbox.cif.g09.slc.cpg/sg71_6_cif.got.tgz:11300.got - 2010.06.28 04:59:45.
