data_PCOD8288891
_publ_section_title
;
Structure prediction by ZEFSAII (Michael W. Deem and Ramdas Pophale) SiO2 
 PCOD8288891
Probable space group: I M M M
;
_chemical_formula_sum "Si O2"
_cell_formula_units_Z 104
_cell_length_a 33.769988
_cell_length_b 12.824877
_cell_length_c 13.940432
_cell_angle_alpha 90.000000
_cell_angle_beta 90.000000
_cell_angle_gamma 90.000000
_cell_volume 6037.544534
_symmetry_space_group_name_H-M "I M M M"
_symmetry_group_IT_number 71
_symmetry_cell_setting 'orthorhombic'
loop_
_space_group_symop_operation_xyz
x,y,z
-x,-y,z
x,-y,-z
-x,y,-z
-x,-y,-z
x,y,-z
-x,y,z
x,-y,z
1/2+x,1/2+y,1/2+z
1/2-x,1/2-y,1/2+z
1/2+x,1/2-y,1/2-z
1/2-x,1/2+y,1/2-z
1/2-x,1/2-y,1/2-z
1/2+x,1/2+y,1/2-z
1/2-x,1/2+y,1/2+z
1/2+x,1/2-y,1/2+z
loop_
_atom_site_type_symbol
_atom_site_label
_atom_site_fract_x
_atom_site_fract_y
_atom_site_fract_z
Si Si1 0.830963 0.878238 0.779781
Si Si2 0.410510 0.379254 0.612205
Si Si3 0.407083 0.119486 0.890944
Si Si4 0.047036 0.500000 0.892948
Si Si5 0.753768 0.120719 0.889157
Si Si6 0.672943 0.770554 0.890609
Si Si7 0.453361 0.202458 0.720931
O O1 0.866828 0.850653 0.850860
O O2 0.790791 0.836389 0.828557
O O3 0.837654 0.825972 0.676994
O O4 0.828387 0.000000 0.760686
O O5 0.412624 0.353943 0.500000
O O6 0.420749 0.500000 0.632561
O O7 0.442559 0.309422 0.667462
O O8 0.360419 0.141034 0.879061
O O9 0.432605 0.196605 0.824560
O O10 0.415342 0.000000 0.862328
O O11 0.420483 0.141016 0.000000
O O12 0.062292 0.604013 0.840431
O O13 0.000000 0.500000 0.896185
O O14 0.064822 0.500000 0.000000
O O15 0.714609 0.181703 0.857818
O O16 0.746206 0.000000 0.867804
O O17 0.763848 0.139153 0.000000
O O18 0.674757 0.729888 0.000000
O O19 0.500000 0.198633 0.736651
#
# Coordination Sequence:
#
# PCOD8288891 Si02
#       7
#    16  16  16   8  16  16  16
#     4  10  19  32  51  75 103 135 171 212 255 300
#     4  10  21  37  56  78 105 139 179 220 261 310
#     4  10  20  35  55  79 107 138 174 216 261 312
#     4   9  18  32  51  77 105 133 166 206 265 333
#     4   9  17  30  50  76 103 131 166 207 251 301
#     4  10  19  32  51  75 103 136 172 210 253 303
#     4  11  21  35  55  78 106 137 171 220 273 319
#
# _framework density 17.225546000000001
#
# number of rings (size 3 to 8) (size 9 to 14) (size 15 to 20)
#    0.000    2.077    2.308    1.846    0.000    5.538 
#    0.000    1.538    0.000    0.462    0.000    1.077 
#    0.000    0.000    0.000    0.000    0.000    0.000 
#
# Total GULP energy -644896.487594 kJ/mol
# GULP energy per Si atom -12401.855531 kJ/mol
# Density = 1.718634 g / cm^3
# Si number density = 17.225546 Si / 1000 Ang^3
#
#
#
# Elastic Constant Matrix: (Units=GPa)
#
#
# Indices 1 2 3 4 5 6 
#
# 1 78.1005 29.8061 37.9719 0.0000 0.0000 0.0000
# 2 29.8061 63.3981 44.2162 0.0000 0.0000 0.0000
# 3 37.9719 44.2162 100.7246 0.0000 0.0000 0.0000
# 4 0.0000 0.0000 0.0000 30.4199 0.0000 0.0000
# 5 0.0000 0.0000 0.0000 0.0000 27.7690 0.0000
# 6 0.0000 0.0000 0.0000 0.0000 0.0000 26.3756
#
#
#
# Elastic Compliance Matrix: (Units=1/GPa)
#
#
# Indices 1 2 3 4 5 6 
#
# 1 0.016705 -0.004989 -0.004108 0.000000 0.000000 0.000000
# 2 -0.004989 0.024223 -0.008753 0.000000 0.000000 0.000000
# 3 -0.004108 -0.008753 0.015319 0.000000 0.000000 0.000000
# 4 0.000000 0.000000 0.000000 0.032873 0.000000 0.000000
# 5 0.000000 0.000000 0.000000 0.000000 0.036011 0.000000
# 6 0.000000 0.000000 0.000000 0.000000 0.000000 0.037914
#
#
# Mechanical properties :
#
#
# Convention : Reuss Voigt Hill
#
# Bulk Modulus (GPa) = 48.66502 51.80129 50.23315
# Shear Modulus (GPa) = 24.31977 25.59483 24.95730
#
# Velocity S-wave (km/s) = 3.76153 3.85887 3.81051
# Velocity P-wave (km/s) = 6.86866 7.07052 6.97032
#
# Compressibility (1/GPa) = 0.02054864
#
# Stress axis : x y z
#
# Youngs Moduli (GPa) = 59.86215 41.28238 65.27898
#
# Poissons Ratio (x) = 0.20596 0.26813
# Poissons Ratio (y) = 0.29865 0.57138
# Poissons Ratio (z) = 0.24589 0.36134
#
# Static dielectric constant tensor:
#      x y z
#    x 3.170570 0.000000 0.000000 
#    y 0.000000 3.104070 0.000000 
#    z 0.000000 0.000000 3.254220 
# 
# 
# High freq. dielectric constant tensor:
#      x y z
#    x 1.664050 0.000000 0.000000 
#    y 0.000000 1.653270 0.000000 
#    z 0.000000 0.000000 1.670850 
# 
# From -- ./inp_files/22668.got.cif
#   From: 2010.06.25/outbox.cif.g09.slc.cpg/sg71_12_cif.got.tgz:22668.got - 2010.06.28 04:59:45.
