data_PCOD8288997
_publ_section_title
;
Structure prediction by ZEFSAII (Michael W. Deem and Ramdas Pophale) SiO2 
 PCOD8288997
Probable space group: I M M M
;
_chemical_formula_sum "Si O2"
_cell_formula_units_Z 112
_cell_length_a 13.853683
_cell_length_b 23.569217
_cell_length_c 18.456373
_cell_angle_alpha 90.000000
_cell_angle_beta 90.000000
_cell_angle_gamma 90.000000
_cell_volume 6026.383418
_symmetry_space_group_name_H-M "I M M M"
_symmetry_group_IT_number 71
_symmetry_cell_setting 'orthorhombic'
loop_
_space_group_symop_operation_xyz
x,y,z
-x,-y,z
x,-y,-z
-x,y,-z
-x,-y,-z
x,y,-z
-x,y,z
x,-y,z
1/2+x,1/2+y,1/2+z
1/2-x,1/2-y,1/2+z
1/2+x,1/2-y,1/2-z
1/2-x,1/2+y,1/2-z
1/2-x,1/2-y,1/2-z
1/2+x,1/2+y,1/2-z
1/2-x,1/2+y,1/2+z
1/2+x,1/2-y,1/2+z
loop_
_atom_site_type_symbol
_atom_site_label
_atom_site_fract_x
_atom_site_fract_y
_atom_site_fract_z
Si Si1 0.221905 0.234665 0.330333
Si Si2 0.391608 0.434901 0.679753
Si Si3 0.389803 0.158319 0.167559
Si Si4 0.785336 0.565845 0.582929
Si Si5 0.109676 0.659074 0.838767
Si Si6 0.111748 0.877919 0.329003
Si Si7 0.723850 0.065672 0.584898
O O1 0.250000 0.250000 0.250000
O O2 0.178800 0.291950 0.365854
O O3 0.319023 0.209277 0.368083
O O4 0.137144 0.188210 0.333983
O O5 0.500000 0.420629 0.653699
O O6 0.382882 0.500000 0.704434
O O7 0.321276 0.420921 0.613355
O O8 0.361455 0.397042 0.747939
O O9 0.500000 0.174378 0.150912
O O10 0.365117 0.099822 0.127946
O O11 0.374151 0.150586 0.253283
O O12 0.786991 0.585430 0.500000
O O13 0.811798 0.500000 0.591085
O O14 0.137409 0.600268 0.877221
O O15 0.000000 0.675623 0.857824
O O16 0.172160 0.914723 0.385964
O O17 0.000000 0.887933 0.346907
O O18 0.720878 0.077578 0.500000
O O19 0.707280 0.000000 0.603209
#
# Coordination Sequence:
#
# PCOD8288997 Si02
#       7
#    16  16  16  16  16  16  16
#     4   9  17  32  54  79 106 133 165 211 260 310
#     4   9  17  30  51  78 105 135 171 210 252 299
#     4  10  20  35  55  79 105 133 169 212 258 309
#     4  10  21  36  53  74 103 138 173 212 259 309
#     4   9  19  35  56  80 105 136 173 215 260 304
#     4  10  19  32  53  79 106 137 174 215 258 307
#     4  10  21  35  51  74 106 143 180 218 261 308
#
# _framework density 18.584944
#
# number of rings (size 3 to 8) (size 9 to 14) (size 15 to 20)
#    0.000    2.429    0.000    3.429    0.000    4.857 
#    0.000    8.571    0.000    3.429    0.000    0.000 
#    0.000    0.000    0.000    0.000    0.000    0.000 
#
# Total GULP energy -694295.217760 kJ/mol
# GULP energy per Si atom -12398.128889 kJ/mol
# Density = 1.854264 g / cm^3
# Si number density = 18.584944 Si / 1000 Ang^3
#
#
#
# Elastic Constant Matrix: (Units=GPa)
#
#
# Indices 1 2 3 4 5 6 
#
# 1 126.5267 57.3207 44.0958 0.0000 0.0000 0.0000
# 2 57.3207 98.6503 45.6949 -0.0002 0.0000 0.0000
# 3 44.0958 45.6949 66.2422 -0.0002 0.0000 0.0000
# 4 0.0000 -0.0002 -0.0002 13.8364 0.0000 0.0000
# 5 0.0000 0.0000 0.0000 0.0000 18.0469 0.0000
# 6 0.0000 0.0000 0.0000 0.0000 0.0000 25.8075
#
#
#
# Elastic Compliance Matrix: (Units=1/GPa)
#
#
# Indices 1 2 3 4 5 6 
#
# 1 0.011575 -0.004639 -0.004505 0.000000 0.000000 0.000000
# 2 -0.004639 0.016756 -0.008470 0.000000 0.000000 0.000000
# 3 -0.004505 -0.008470 0.023938 0.000000 0.000000 0.000000
# 4 0.000000 0.000000 0.000000 0.072273 0.000000 0.000000
# 5 0.000000 0.000000 0.000000 0.000000 0.055411 0.000000
# 6 0.000000 0.000000 0.000000 0.000000 0.000000 0.038748
#
#
# Mechanical properties :
#
#
# Convention : Reuss Voigt Hill
#
# Bulk Modulus (GPa) = 58.68570 65.07133 61.87851
# Shear Modulus (GPa) = 19.25958 21.15869 20.20914
#
# Velocity S-wave (km/s) = 3.22265 3.37781 3.30114
# Velocity P-wave (km/s) = 6.74484 7.09237 6.92079
#
# Compressibility (1/GPa) = 0.01703993
#
# Stress axis : x y z
#
# Youngs Moduli (GPa) = 86.39176 59.68113 41.77425
#
# Poissons Ratio (x) = 0.27685 0.18821
# Poissons Ratio (y) = 0.40076 0.35384
# Poissons Ratio (z) = 0.38922 0.50552
#
# Static dielectric constant tensor:
#      x y z
#    x 3.595790 0.000000 0.000000 
#    y 0.000000 3.642400 0.000000 
#    z 0.000000 0.000000 3.184440 
# 
# 
# High freq. dielectric constant tensor:
#      x y z
#    x 1.730100 0.000000 0.000000 
#    y 0.000000 1.726440 0.000000 
#    z 0.000000 0.000000 1.693320 
# 
# From -- ./inp_files/34840.got.cif
#   From: 2010.06.25/outbox.cif.g09.slc.cpg/sg71_18_cif.got.tgz:34840.got - 2010.06.28 04:59:45.
