data_PCOD8288308
_publ_section_title
;
Structure prediction by ZEFSAII (Michael W. Deem and Ramdas Pophale) SiO2 
 PCOD8288308
Probable space group: I M M M
;
_chemical_formula_sum "Si O2"
_cell_formula_units_Z 80
_cell_length_a 16.843404
_cell_length_b 12.547785
_cell_length_c 24.267617
_cell_angle_alpha 90.000000
_cell_angle_beta 90.000000
_cell_angle_gamma 90.000000
_cell_volume 5128.898050
_symmetry_space_group_name_H-M "I M M M"
_symmetry_group_IT_number 71
_symmetry_cell_setting 'orthorhombic'
loop_
_space_group_symop_operation_xyz
x,y,z
-x,-y,z
x,-y,-z
-x,y,-z
-x,-y,-z
x,y,-z
-x,y,z
x,-y,z
1/2+x,1/2+y,1/2+z
1/2-x,1/2-y,1/2+z
1/2+x,1/2-y,1/2-z
1/2-x,1/2+y,1/2-z
1/2-x,1/2-y,1/2-z
1/2+x,1/2+y,1/2-z
1/2-x,1/2+y,1/2+z
1/2+x,1/2-y,1/2+z
loop_
_atom_site_type_symbol
_atom_site_label
_atom_site_fract_x
_atom_site_fract_y
_atom_site_fract_z
Si Si1 0.312239 0.200229 0.292144
Si Si2 0.827611 0.123918 0.355575
Si Si3 0.092177 0.500000 0.384458
Si Si4 0.593080 0.216927 0.064274
Si Si5 0.593300 0.618156 0.740094
Si Si6 0.405970 0.000000 0.244552
O O1 0.250000 0.250000 0.250000
O O2 0.263961 0.159702 0.345400
O O3 0.372181 0.298281 0.304723
O O4 0.364050 0.104133 0.268216
O O5 0.861891 0.185419 0.407644
O O6 0.880474 0.150113 0.301826
O O7 0.830221 0.000000 0.370229
O O8 0.128585 0.393615 0.411728
O O9 0.109368 0.500000 0.320159
O O10 0.000000 0.500000 0.398810
O O11 0.500000 0.227733 0.077153
O O12 0.611282 0.221699 0.000000
O O13 0.500000 0.622053 0.736986
O O14 0.625811 0.500000 0.725937
O O15 0.500000 0.000000 0.258625
#
# Coordination Sequence:
#
# PCOD8288308 Si02
#       6
#    16  16   8  16  16   8
#     4  10  19  30  45  65  99 129 163 199 242 286
#     4  10  19  32  45  63  95 129 161 197 243 278
#     4   9  17  30  47  68  96 124 155 198 240 278
#     4  10  20  33  49  69  93 126 168 207 240 280
#     4   9  17  29  46  67  93 126 159 192 234 288
#     4  11  20  31  50  75  98 134 176 199 233 299
#
# _framework density 15.597892
#
# number of rings (size 3 to 8) (size 9 to 14) (size 15 to 20)
#    0.000    2.200    1.000    3.900    1.400    4.400 
#    1.800    1.000    0.000    0.000    0.000    0.000 
#    0.000    4.000    0.000    2.200    0.000    0.000 
#
# Total GULP energy -495807.503493 kJ/mol
# GULP energy per Si atom -12395.187587 kJ/mol
# Density = 1.556239 g / cm^3
# Si number density = 15.597892 Si / 1000 Ang^3
#
#
#
# Elastic Constant Matrix: (Units=GPa)
#
#
# Indices 1 2 3 4 5 6 
#
# 1 70.4924 50.8906 36.6970 0.0000 0.0000 0.0000
# 2 50.8906 134.4795 48.8015 0.0000 0.0000 0.0000
# 3 36.6970 48.8015 60.0019 0.0000 0.0000 0.0000
# 4 0.0000 0.0000 0.0000 13.7942 0.0000 0.0000
# 5 0.0000 0.0000 0.0000 0.0000 23.2658 0.0000
# 6 0.0000 0.0000 0.0000 0.0000 0.0000 34.9236
#
#
#
# Elastic Compliance Matrix: (Units=1/GPa)
#
#
# Indices 1 2 3 4 5 6 
#
# 1 0.023054 -0.005118 -0.009937 0.000000 0.000000 0.000000
# 2 -0.005118 0.011686 -0.006375 0.000000 0.000000 0.000000
# 3 -0.009937 -0.006375 0.027928 0.000000 0.000000 0.000000
# 4 0.000000 0.000000 0.000000 0.072494 0.000000 0.000000
# 5 0.000000 0.000000 0.000000 0.000000 0.042982 0.000000
# 6 0.000000 0.000000 0.000000 0.000000 0.000000 0.028634
#
#
# Mechanical properties :
#
#
# Convention : Reuss Voigt Hill
#
# Bulk Modulus (GPa) = 50.48207 59.75022 55.11615
# Shear Modulus (GPa) = 19.51297 22.96904 21.24100
#
# Velocity S-wave (km/s) = 3.54079 3.84158 3.69424
# Velocity P-wave (km/s) = 7.01079 7.62015 7.32181
#
# Compressibility (1/GPa) = 0.01980901
#
# Stress axis : x y z
#
# Youngs Moduli (GPa) = 43.37677 85.57119 35.80626
#
# Poissons Ratio (x) = 0.43797 0.35580
# Poissons Ratio (y) = 0.22201 0.22825
# Poissons Ratio (z) = 0.43103 0.54547
#
# Static dielectric constant tensor:
#      x y z
#    x 3.139710 0.000000 0.000000 
#    y 0.000000 3.428310 0.000000 
#    z 0.000000 0.000000 2.646370 
# 
# 
# High freq. dielectric constant tensor:
#      x y z
#    x 1.589300 0.000000 0.000000 
#    y 0.000000 1.628220 0.000000 
#    z 0.000000 0.000000 1.547720 
# 
# From -- ./inp_files/23856.got.cif
#   From: 2010.06.25/outbox.cif.g09.slc.cpg/sg71_12_cif.got.tgz:23856.got - 2010.06.28 04:59:45.
