data_PCOD8288125
_publ_section_title
;
Structure prediction by ZEFSAII (Michael W. Deem and Ramdas Pophale) SiO2 
 PCOD8288125
Probable space group: I M M M
;
_chemical_formula_sum "Si O2"
_cell_formula_units_Z 96
_cell_length_a 18.243828
_cell_length_b 14.067761
_cell_length_c 23.452981
_cell_angle_alpha 90.000000
_cell_angle_beta 90.000000
_cell_angle_gamma 90.000000
_cell_volume 6019.203165
_symmetry_space_group_name_H-M "I M M M"
_symmetry_group_IT_number 71
_symmetry_cell_setting 'orthorhombic'
loop_
_space_group_symop_operation_xyz
x,y,z
-x,-y,z
x,-y,-z
-x,y,-z
-x,-y,-z
x,y,-z
-x,y,z
x,-y,z
1/2+x,1/2+y,1/2+z
1/2-x,1/2-y,1/2+z
1/2+x,1/2-y,1/2-z
1/2-x,1/2+y,1/2-z
1/2-x,1/2-y,1/2-z
1/2+x,1/2+y,1/2-z
1/2-x,1/2+y,1/2+z
1/2+x,1/2-y,1/2+z
loop_
_atom_site_type_symbol
_atom_site_label
_atom_site_fract_x
_atom_site_fract_y
_atom_site_fract_z
Si Si1 0.586609 0.893817 0.437103
Si Si2 0.913365 0.270379 0.167491
Si Si3 0.083293 0.613554 0.500000
Si Si4 0.914459 0.390394 0.722674
Si Si5 0.418188 0.387711 0.500000
Si Si6 0.333560 0.112332 0.110480
Si Si7 0.834767 0.888140 0.113650
O O1 0.607071 0.852360 0.500000
O O2 0.500000 0.900171 0.430148
O O3 0.617917 0.828110 0.387002
O O4 0.619401 0.000000 0.430634
O O5 0.890421 0.326966 0.223872
O O6 0.872959 0.168035 0.165989
O O7 0.000000 0.254199 0.164847
O O8 0.085686 0.500000 0.500000
O O9 0.124319 0.654913 0.444267
O O10 0.000000 0.650618 0.500000
O O11 0.894643 0.500000 0.736205
O O12 0.870578 0.349943 0.668405
O O13 0.000000 0.380236 0.709197
O O14 0.424582 0.500000 0.500000
O O15 0.500000 0.341890 0.500000
O O16 0.375319 0.354931 0.556052
O O17 0.249296 0.143229 0.108284
O O18 0.341489 0.000000 0.108725
O O19 0.842945 0.000000 0.125615
#
# Coordination Sequence:
#
# PCOD8288125 Si02
#       7
#    16  16   8  16   8  16  16
#     4   8  14  25  40  58  80 104 136 182 225 255
#     4  10  19  28  42  62  83 114 153 185 214 252
#     4   9  15  25  45  69  87 106 136 173 218 269
#     4   9  17  30  47  66  87 110 140 179 222 268
#     4   9  17  29  43  57  78 111 148 182 211 237
#     4   9  17  29  44  63  88 115 141 173 216 266
#     4  10  20  31  42  59  86 120 153 183 213 251
#
# _framework density 15.948955
#
# number of rings (size 3 to 8) (size 9 to 14) (size 15 to 20)
#    0.000    2.833    0.000    2.500    1.167    7.667 
#    0.000    0.000    0.000    0.000    0.000    0.000 
#    0.000    0.000    0.000    0.167    0.000   12.333 
#
# Total GULP energy -595066.365673 kJ/mol
# GULP energy per Si atom -12397.215952 kJ/mol
# Density = 1.591265 g / cm^3
# Si number density = 15.948955 Si / 1000 Ang^3
#
#
#
# Elastic Constant Matrix: (Units=GPa)
#
#
# Indices 1 2 3 4 5 6 
#
# 1 90.9143 33.4860 67.3082 0.0000 0.0000 0.0000
# 2 33.4860 45.7344 45.6528 0.0000 0.0000 0.0000
# 3 67.3082 45.6528 138.3458 0.0000 0.0000 0.0000
# 4 0.0000 0.0000 0.0000 11.4260 0.0000 0.0000
# 5 0.0000 0.0000 0.0000 0.0000 22.3669 0.0000
# 6 0.0000 0.0000 0.0000 0.0000 0.0000 12.9635
#
#
#
# Elastic Compliance Matrix: (Units=1/GPa)
#
#
# Indices 1 2 3 4 5 6 
#
# 1 0.018511 -0.006805 -0.006760 0.000000 0.000000 0.000000
# 2 -0.006805 0.035108 -0.008274 0.000000 0.000000 0.000000
# 3 -0.006760 -0.008274 0.013248 0.000000 0.000000 0.000000
# 4 0.000000 0.000000 0.000000 0.087520 0.000000 0.000000
# 5 0.000000 0.000000 0.000000 0.000000 0.044709 0.000000
# 6 0.000000 0.000000 0.000000 0.000000 0.000000 0.077140
#
#
# Mechanical properties :
#
#
# Convention : Reuss Voigt Hill
#
# Bulk Modulus (GPa) = 43.12824 63.09871 53.11348
# Shear Modulus (GPa) = 15.26052 17.92111 16.59081
#
# Velocity S-wave (km/s) = 3.09663 3.35573 3.22878
# Velocity P-wave (km/s) = 6.31551 7.39347 6.87565
#
# Compressibility (1/GPa) = 0.02318666
#
# Stress axis : x y z
#
# Youngs Moduli (GPa) = 54.02239 28.48392 75.48467
#
# Poissons Ratio (x) = 0.19384 0.51030
# Poissons Ratio (y) = 0.36763 0.62458
# Poissons Ratio (z) = 0.36521 0.23568
#
# Static dielectric constant tensor:
#      x y z
#    x 2.910070 0.000000 0.000000 
#    y 0.000000 2.833480 0.000000 
#    z 0.000000 0.000000 3.179590 
# 
# 
# High freq. dielectric constant tensor:
#      x y z
#    x 1.592390 0.000000 0.000000 
#    y 0.000000 1.580210 0.000000 
#    z 0.000000 0.000000 1.616730 
# 
# From -- ./inp_files/59840.got.cif
#   From: 2010.06.25/outbox.cif.g09.slc.cpg/sg71_30_cif.got.tgz:59840.got - 2010.06.28 04:59:45.
