data_PCOD8288757
_publ_section_title
;
Structure prediction by ZEFSAII (Michael W. Deem and Ramdas Pophale) SiO2 
 PCOD8288757
Probable space group: I M M M
;
_chemical_formula_sum "Si O2"
_cell_formula_units_Z 88
_cell_length_a 18.156012
_cell_length_b 28.707612
_cell_length_c 8.915333
_cell_angle_alpha 90.000000
_cell_angle_beta 90.000000
_cell_angle_gamma 90.000000
_cell_volume 4646.811958
_symmetry_space_group_name_H-M "I M M M"
_symmetry_group_IT_number 71
_symmetry_cell_setting 'orthorhombic'
loop_
_space_group_symop_operation_xyz
x,y,z
-x,-y,z
x,-y,-z
-x,y,-z
-x,-y,-z
x,y,-z
-x,y,z
x,-y,z
1/2+x,1/2+y,1/2+z
1/2-x,1/2-y,1/2+z
1/2+x,1/2-y,1/2-z
1/2-x,1/2+y,1/2-z
1/2-x,1/2-y,1/2-z
1/2+x,1/2+y,1/2-z
1/2-x,1/2+y,1/2+z
1/2+x,1/2-y,1/2+z
loop_
_atom_site_type_symbol
_atom_site_label
_atom_site_fract_x
_atom_site_fract_y
_atom_site_fract_z
Si Si1 0.000000 0.444985 0.169666
Si Si2 0.081088 0.116018 0.823391
Si Si3 0.287815 0.447395 0.321305
Si Si4 0.169821 0.204351 0.827418
Si Si5 0.637836 0.101030 0.822818
Si Si6 0.822143 0.308377 0.172562
O O1 0.927902 0.427852 0.253402
O O2 0.000000 0.500000 0.173567
O O3 0.000000 0.425933 0.000000
O O4 0.140869 0.079851 0.756338
O O5 0.103953 0.169204 0.787072
O O6 0.000000 0.106907 0.752805
O O7 0.077121 0.108395 0.000000
O O8 0.289156 0.447345 0.500000
O O9 0.288842 0.500000 0.258386
O O10 0.214421 0.421323 0.265149
O O11 0.142297 0.257234 0.801275
O O12 0.237316 0.192377 0.720335
O O13 0.195872 0.197322 0.000000
O O14 0.632571 0.154558 0.770125
O O15 0.630902 0.098754 0.000000
O O16 0.826882 0.323318 0.000000
#
# Coordination Sequence:
#
# PCOD8288757 Si02
#       6
#     8  16  16  16  16  16
#     4  11  25  43  61  85 117 147 183 235 290 343
#     4   9  16  28  48  75 109 144 179 222 273 325
#     4   9  17  29  49  78 107 137 178 226 270 320
#     4   9  17  32  51  77 108 144 187 229 279 340
#     4  11  21  37  59  81 112 149 187 229 277 340
#     4  10  19  31  53  81 108 142 185 234 284 332
#
# _framework density 18.937715000000001
#
# number of rings (size 3 to 8) (size 9 to 14) (size 15 to 20)
#    0.000    2.273    1.818    1.909    0.000    2.545 
#    1.636    1.818    0.000    0.545    0.000    0.000 
#    0.000    1.455    0.000    0.000    0.000    0.000 
#
# Total GULP energy -545549.491473 kJ/mol
# GULP energy per Si atom -12398.852079 kJ/mol
# Density = 1.889461 g / cm^3
# Si number density = 18.937715 Si / 1000 Ang^3
#
#
#
# Elastic Constant Matrix: (Units=GPa)
#
#
# Indices 1 2 3 4 5 6 
#
# 1 133.5863 63.2030 34.3915 -0.0001 0.0000 0.0000
# 2 63.2030 135.5148 36.3428 0.0000 -0.0001 0.0000
# 3 34.3915 36.3428 58.8215 0.0004 -0.0004 0.0001
# 4 -0.0001 0.0000 0.0004 23.1115 -0.0001 0.0000
# 5 0.0000 -0.0001 -0.0004 -0.0001 18.9256 0.0000
# 6 0.0000 0.0000 0.0001 0.0000 0.0000 29.2886
#
#
#
# Elastic Compliance Matrix: (Units=1/GPa)
#
#
# Indices 1 2 3 4 5 6 
#
# 1 0.010213 -0.003790 -0.003630 0.000000 0.000000 0.000000
# 2 -0.003790 0.010251 -0.004118 0.000000 0.000000 0.000000
# 3 -0.003630 -0.004118 0.021667 0.000000 0.000000 0.000000
# 4 0.000000 0.000000 0.000000 0.043269 0.000000 0.000000
# 5 0.000000 0.000000 0.000000 0.000000 0.052839 0.000000
# 6 0.000000 0.000000 0.000000 0.000000 0.000000 0.034143
#
#
# Mechanical properties :
#
#
# Convention : Reuss Voigt Hill
#
# Bulk Modulus (GPa) = 52.47592 66.19970 59.33781
# Shear Modulus (GPa) = 24.77586 27.19748 25.98667
#
# Velocity S-wave (km/s) = 3.62094 3.79377 3.70836
# Velocity P-wave (km/s) = 6.72693 7.36361 7.05245
#
# Compressibility (1/GPa) = 0.01905636
#
# Stress axis : x y z
#
# Youngs Moduli (GPa) = 97.91008 97.54948 46.15298
#
# Poissons Ratio (x) = 0.36971 0.16753
# Poissons Ratio (y) = 0.37108 0.19005
# Poissons Ratio (z) = 0.35540 0.40169
#
# Static dielectric constant tensor:
#      x y z
#    x 3.502390 0.000000 0.000000 
#    y 0.000000 3.789740 0.000000 
#    z 0.000000 0.000000 3.201860 
# 
# 
# High freq. dielectric constant tensor:
#      x y z
#    x 1.724160 0.000000 0.000000 
#    y 0.000000 1.752860 0.000000 
#    z 0.000000 0.000000 1.701110 
# 
# From -- ./inp_files/8818.got.cif
#   From: 2010.06.25/outbox.cif.g09.slc.cpg/sg71_5_cif.got.tgz:8818.got - 2010.06.28 04:59:45.
