data_PCOD8288445
_publ_section_title
;
Structure prediction by ZEFSAII (Michael W. Deem and Ramdas Pophale) SiO2 
 PCOD8288445
Probable space group: I M M M
;
_chemical_formula_sum "Si O2"
_cell_formula_units_Z 88
_cell_length_a 28.433106
_cell_length_b 17.687210
_cell_length_c 9.305795
_cell_angle_alpha 90.000000
_cell_angle_beta 90.000000
_cell_angle_gamma 90.000000
_cell_volume 4679.905865
_symmetry_space_group_name_H-M "I M M M"
_symmetry_group_IT_number 71
_symmetry_cell_setting 'orthorhombic'
loop_
_space_group_symop_operation_xyz
x,y,z
-x,-y,z
x,-y,-z
-x,y,-z
-x,-y,-z
x,y,-z
-x,y,z
x,-y,z
1/2+x,1/2+y,1/2+z
1/2-x,1/2-y,1/2+z
1/2+x,1/2-y,1/2-z
1/2-x,1/2+y,1/2-z
1/2-x,1/2-y,1/2-z
1/2+x,1/2+y,1/2-z
1/2-x,1/2+y,1/2+z
1/2+x,1/2-y,1/2+z
loop_
_atom_site_type_symbol
_atom_site_label
_atom_site_fract_x
_atom_site_fract_y
_atom_site_fract_z
Si Si1 0.606155 0.585895 0.169405
Si Si2 0.799837 0.588553 0.667976
Si Si3 0.111948 0.642229 0.830226
Si Si4 0.210357 0.910361 0.659062
Si Si5 0.947685 0.500000 0.829504
Si Si6 0.053873 0.211040 0.833628
O O1 0.598940 0.500000 0.222915
O O2 0.658537 0.616091 0.210212
O O3 0.567454 0.636910 0.245730
O O4 0.598711 0.590889 0.000000
O O5 0.801505 0.605683 0.500000
O O6 0.807787 0.500000 0.701758
O O7 0.838856 0.638173 0.747584
O O8 0.749432 0.616658 0.727521
O O9 0.079403 0.573915 0.774988
O O10 0.086221 0.719132 0.785921
O O11 0.121297 0.636456 0.000000
O O12 0.222058 0.877681 0.500000
O O13 0.209108 0.000000 0.648743
O O14 0.000000 0.500000 0.762804
O O15 0.950989 0.500000 0.000000
O O16 0.000000 0.232585 0.800992
O O17 0.061351 0.192704 0.000000
#
# Coordination Sequence:
#
# PCOD8288445 Si02
#       6
#    16  16  16  16   8  16
#     4   9  19  37  60  84 107 136 177 220 263 322
#     4  10  19  30  48  78 113 143 175 217 264 315
#     4  10  19  33  53  76 104 142 185 223 263 312
#     4   8  15  30  53  78 104 135 174 217 260 310
#     4   9  16  28  51  77  97 129 183 233 262 297
#     4  10  22  38  55  79 110 140 175 224 275 318
#
# _framework density 18.803798
#
# number of rings (size 3 to 8) (size 9 to 14) (size 15 to 20)
#    0.000    2.636    0.909    2.182    0.000    5.455 
#    0.000    4.545    0.000    2.182    0.000    0.000 
#    0.000    0.000    0.000    0.000    0.000    0.000 
#
# Total GULP energy -545590.600847 kJ/mol
# GULP energy per Si atom -12399.786383 kJ/mol
# Density = 1.876100 g / cm^3
# Si number density = 18.803798 Si / 1000 Ang^3
#
#
#
# Elastic Constant Matrix: (Units=GPa)
#
#
# Indices 1 2 3 4 5 6 
#
# 1 80.7781 33.8952 37.7755 0.0000 0.0000 0.0000
# 2 33.8952 83.4911 33.7474 0.0000 0.0000 0.0000
# 3 37.7755 33.7474 58.5900 0.0000 0.0000 0.0000
# 4 0.0000 0.0000 0.0000 22.2496 0.0000 0.0000
# 5 0.0000 0.0000 0.0000 0.0000 28.8278 0.0000
# 6 0.0000 0.0000 0.0000 0.0000 0.0000 28.9697
#
#
#
# Elastic Compliance Matrix: (Units=1/GPa)
#
#
# Indices 1 2 3 4 5 6 
#
# 1 0.018476 -0.003501 -0.009896 0.000000 0.000000 0.000000
# 2 -0.003501 0.016275 -0.007117 0.000000 0.000000 0.000000
# 3 -0.009896 -0.007117 0.027548 0.000000 0.000000 0.000000
# 4 0.000000 0.000000 0.000000 0.044945 0.000000 0.000000
# 5 0.000000 0.000000 0.000000 0.000000 0.034689 0.000000
# 6 0.000000 0.000000 0.000000 0.000000 0.000000 0.034519
#
#
# Mechanical properties :
#
#
# Convention : Reuss Voigt Hill
#
# Bulk Modulus (GPa) = 47.01246 48.18839 47.60043
# Shear Modulus (GPa) = 22.26469 23.83883 23.05176
#
# Velocity S-wave (km/s) = 3.44474 3.56443 3.50510
# Velocity P-wave (km/s) = 6.39355 6.52862 6.46144
#
# Compressibility (1/GPa) = 0.02127095
#
# Stress axis : x y z
#
# Youngs Moduli (GPa) = 54.12294 61.44217 36.30064
#
# Poissons Ratio (x) = 0.21510 0.35923
# Poissons Ratio (y) = 0.18948 0.25836
# Poissons Ratio (z) = 0.53560 0.43731
#
# Static dielectric constant tensor:
#      x y z
#    x 3.637160 0.000000 0.000000 
#    y 0.000000 3.220220 0.000000 
#    z 0.000000 0.000000 3.233590 
# 
# 
# High freq. dielectric constant tensor:
#      x y z
#    x 1.741900 0.000000 0.000000 
#    y 0.000000 1.708310 0.000000 
#    z 0.000000 0.000000 1.711810 
# 
# From -- ./inp_files/16644.got.cif
#   From: 2010.06.25/outbox.cif.g09.slc.cpg/sg71_9_cif.got.tgz:16644.got - 2010.06.28 04:59:45.
