data_PCOD8288282
_publ_section_title
;
Structure prediction by ZEFSAII (Michael W. Deem and Ramdas Pophale) SiO2 
 PCOD8288282
Probable space group: I M M M
;
_chemical_formula_sum "Si O2"
_cell_formula_units_Z 88
_cell_length_a 30.484613
_cell_length_b 23.603006
_cell_length_c 8.818236
_cell_angle_alpha 90.000000
_cell_angle_beta 90.000000
_cell_angle_gamma 90.000000
_cell_volume 6344.972153
_symmetry_space_group_name_H-M "I M M M"
_symmetry_group_IT_number 71
_symmetry_cell_setting 'orthorhombic'
loop_
_space_group_symop_operation_xyz
x,y,z
-x,-y,z
x,-y,-z
-x,y,-z
-x,-y,-z
x,y,-z
-x,y,z
x,-y,z
1/2+x,1/2+y,1/2+z
1/2-x,1/2-y,1/2+z
1/2+x,1/2-y,1/2-z
1/2-x,1/2+y,1/2-z
1/2-x,1/2-y,1/2-z
1/2+x,1/2+y,1/2-z
1/2-x,1/2+y,1/2+z
1/2+x,1/2-y,1/2+z
loop_
_atom_site_type_symbol
_atom_site_label
_atom_site_fract_x
_atom_site_fract_y
_atom_site_fract_z
Si Si1 0.500000 0.934087 0.180187
Si Si2 0.238559 0.500000 0.178747
Si Si3 0.412029 0.892348 0.680622
Si Si4 0.246827 0.614541 0.674476
Si Si5 0.359128 0.000000 0.679389
Si Si6 0.840786 0.681283 0.679549
Si Si7 0.207194 0.774985 0.176017
O O1 0.540675 0.898851 0.244863
O O2 0.500000 0.000000 0.236669
O O3 0.500000 0.931976 0.000000
O O4 0.260732 0.442216 0.236716
O O5 0.189470 0.500000 0.246730
O O6 0.240358 0.500000 0.000000
O O7 0.416675 0.889313 0.500000
O O8 0.384187 0.945477 0.739887
O O9 0.386179 0.837914 0.743008
O O10 0.240659 0.598881 0.500000
O O11 0.200749 0.642359 0.732847
O O12 0.288263 0.657116 0.696971
O O13 0.357301 0.000000 0.500000
O O14 0.845797 0.681029 0.500000
O O15 0.833736 0.746158 0.737235
O O16 0.250000 0.750000 0.250000
O O17 0.204998 0.758473 0.000000
#
# Coordination Sequence:
#
# PCOD8288282 Si02
#       7
#     8   8  16  16   8  16  16
#     4  11  23  35  45  61  83 107 135 172 217 260
#     4  11  19  27  40  60  81 106 137 169 207 246
#     4  11  20  33  48  61  78 104 138 174 213 256
#     4   9  18  29  40  57  81 106 132 164 204 244
#     4   9  18  28  40  59  78 100 133 173 210 246
#     4  10  19  30  44  62  80 102 132 170 211 250
#     4   9  17  29  43  59  78 103 132 166 205 245
#
# _framework density 13.869249999999999
#
# number of rings (size 3 to 8) (size 9 to 14) (size 15 to 20)
#    0.000    2.091    2.727    3.273    0.000    4.000 
#    0.000    0.000    0.000    0.000    0.000    0.000 
#    0.000    0.000    0.000    0.000    0.000    0.909 
#
# Total GULP energy -545358.905212 kJ/mol
# GULP energy per Si atom -12394.520573 kJ/mol
# Density = 1.383768 g / cm^3
# Si number density = 13.869250 Si / 1000 Ang^3
#
#
#
# Elastic Constant Matrix: (Units=GPa)
#
#
# Indices 1 2 3 4 5 6 
#
# 1 66.3936 44.7246 28.7532 0.0000 0.0000 0.0000
# 2 44.7246 86.3700 40.4451 0.0000 0.0000 0.0000
# 3 28.7532 40.4451 68.4311 0.0000 0.0000 0.0000
# 4 0.0000 0.0000 0.0000 23.4520 0.0000 0.0000
# 5 0.0000 0.0000 0.0000 0.0000 20.0663 0.0000
# 6 0.0000 0.0000 0.0000 0.0000 0.0000 18.7524
#
#
#
# Elastic Compliance Matrix: (Units=1/GPa)
#
#
# Indices 1 2 3 4 5 6 
#
# 1 0.023809 -0.010569 -0.003757 0.000000 0.000000 0.000000
# 2 -0.010569 0.020701 -0.007794 0.000000 0.000000 0.000000
# 3 -0.003757 -0.007794 0.020798 0.000000 0.000000 0.000000
# 4 0.000000 0.000000 0.000000 0.042640 0.000000 0.000000
# 5 0.000000 0.000000 0.000000 0.000000 0.049835 0.000000
# 6 0.000000 0.000000 0.000000 0.000000 0.000000 0.053327
#
#
# Mechanical properties :
#
#
# Convention : Reuss Voigt Hill
#
# Bulk Modulus (GPa) = 47.46706 49.89340 48.68023
# Shear Modulus (GPa) = 19.05688 19.60559 19.33124
#
# Velocity S-wave (km/s) = 3.71082 3.76387 3.73744
# Velocity P-wave (km/s) = 7.25667 7.41223 7.33486
#
# Compressibility (1/GPa) = 0.02106724
#
# Stress axis : x y z
#
# Youngs Moduli (GPa) = 42.00172 48.30699 48.08085
#
# Poissons Ratio (x) = 0.51058 0.18064
# Poissons Ratio (y) = 0.44393 0.37474
# Poissons Ratio (z) = 0.15780 0.37650
#
# Static dielectric constant tensor:
#      x y z
#    x 2.589100 0.000000 0.000000 
#    y 0.000000 2.966960 0.000000 
#    z 0.000000 0.000000 2.768940 
# 
# 
# High freq. dielectric constant tensor:
#      x y z
#    x 1.484700 0.000000 0.000000 
#    y 0.000000 1.516060 0.000000 
#    z 0.000000 0.000000 1.541710 
# 
# From -- ./inp_files/11410.got.cif
#   From: 2010.06.25/outbox.cif.g09.slc.cpg/sg71_6_cif.got.tgz:11410.got - 2010.06.28 04:59:45.
