data_PCOD8288198
_publ_section_title
;
Structure prediction by ZEFSAII (Michael W. Deem and Ramdas Pophale) SiO2 
 PCOD8288198
Probable space group: I M M M
;
_chemical_formula_sum "Si O2"
_cell_formula_units_Z 120
_cell_length_a 9.760676
_cell_length_b 33.444393
_cell_length_c 22.761278
_cell_angle_alpha 90.000000
_cell_angle_beta 90.000000
_cell_angle_gamma 90.000000
_cell_volume 7430.188952
_symmetry_space_group_name_H-M "I M M M"
_symmetry_group_IT_number 71
_symmetry_cell_setting 'orthorhombic'
loop_
_space_group_symop_operation_xyz
x,y,z
-x,-y,z
x,-y,-z
-x,y,-z
-x,-y,-z
x,y,-z
-x,y,z
x,-y,z
1/2+x,1/2+y,1/2+z
1/2-x,1/2-y,1/2+z
1/2+x,1/2-y,1/2-z
1/2-x,1/2+y,1/2-z
1/2-x,1/2-y,1/2-z
1/2+x,1/2+y,1/2-z
1/2-x,1/2+y,1/2+z
1/2+x,1/2-y,1/2+z
loop_
_atom_site_type_symbol
_atom_site_label
_atom_site_fract_x
_atom_site_fract_y
_atom_site_fract_z
Si Si1 0.652569 0.955931 0.069854
Si Si2 0.156924 0.788716 0.741903
Si Si3 0.656601 0.768599 0.567365
Si Si4 0.156987 0.886764 0.069303
Si Si5 0.150423 0.000000 0.430219
Si Si6 0.662700 0.586115 0.066101
Si Si7 0.338910 0.667656 0.122836
Si Si8 0.842693 0.190854 0.870231
O O1 0.500000 0.944421 0.091133
O O2 0.760406 0.924344 0.095311
O O3 0.692314 0.000000 0.093347
O O4 0.658082 0.955906 0.000000
O O5 0.250000 0.750000 0.750000
O O6 0.201294 0.817585 0.688364
O O7 0.174472 0.814794 0.800666
O O8 0.000000 0.774292 0.734175
O O9 0.662711 0.755140 0.500000
O O10 0.500000 0.778935 0.585970
O O11 0.752642 0.806749 0.576485
O O12 0.720598 0.732651 0.606788
O O13 0.224476 0.847328 0.098189
O O14 0.000000 0.892729 0.088398
O O15 0.172847 0.882776 0.000000
O O16 0.223843 0.042504 0.412488
O O17 0.137349 0.000000 0.500000
O O18 0.000000 0.000000 0.401019
O O19 0.500000 0.581564 0.063855
O O20 0.703913 0.621309 0.111851
O O21 0.715717 0.596613 0.000000
O O22 0.500000 0.673633 0.110489
O O23 0.000000 0.192249 0.890404
#
# Coordination Sequence:
#
# PCOD8288198 Si02
#       8
#    16  16  16  16   8  16  16  16
#     4   8  14  25  40  59  86 115 136 161 207 262
#     4  10  19  32  48  63  82 114 151 184 219 258
#     4  10  19  30  45  63  86 119 151 175 210 262
#     4   9  16  26  42  63  83 106 141 180 215 255
#     4   7  10  18  34  56  83 115 141 159 196 258
#     4   8  13  22  37  60  90 116 137 168 211 259
#     4  10  19  29  44  67  90 113 143 184 227 257
#     4   9  17  30  45  60  82 113 146 182 217 253
#
# _framework density 16.150328999999999
#
# number of rings (size 3 to 8) (size 9 to 14) (size 15 to 20)
#    0.000    3.000    1.333    2.000    0.000    2.667 
#    0.000    2.667    0.000    1.600    1.733    0.467 
#    0.000    2.667    0.000    0.000    0.000    0.000 
#
# Total GULP energy -743415.238189 kJ/mol
# GULP energy per Si atom -12390.253970 kJ/mol
# Density = 1.611357 g / cm^3
# Si number density = 16.150329 Si / 1000 Ang^3
#
#
#
# Elastic Constant Matrix: (Units=GPa)
#
#
# Indices 1 2 3 4 5 6 
#
# 1 40.0563 44.6700 17.1226 0.0000 0.0000 0.0000
# 2 44.6700 158.1392 45.2224 0.0000 0.0000 0.0000
# 3 17.1226 45.2224 61.7937 0.0001 0.0000 0.0000
# 4 0.0000 0.0000 0.0001 15.6361 0.0000 0.0000
# 5 0.0000 0.0000 0.0000 0.0000 13.3103 0.0000
# 6 0.0000 0.0000 0.0000 0.0000 0.0000 19.8881
#
#
#
# Elastic Compliance Matrix: (Units=1/GPa)
#
#
# Indices 1 2 3 4 5 6 
#
# 1 0.036967 -0.009501 -0.003290 0.000000 0.000000 0.000000
# 2 -0.009501 0.010439 -0.005007 0.000000 0.000000 0.000000
# 3 -0.003290 -0.005007 0.020759 0.000000 0.000000 0.000000
# 4 0.000000 0.000000 0.000000 0.063955 0.000000 0.000000
# 5 0.000000 0.000000 0.000000 0.000000 0.075130 0.000000
# 6 0.000000 0.000000 0.000000 0.000000 0.000000 0.050281
#
#
# Mechanical properties :
#
#
# Convention : Reuss Voigt Hill
#
# Bulk Modulus (GPa) = 30.70462 52.66880 41.68671
# Shear Modulus (GPa) = 16.44828 19.96518 18.20673
#
# Velocity S-wave (km/s) = 3.19478 3.51979 3.36121
# Velocity P-wave (km/s) = 5.71505 7.01434 6.39776
#
# Compressibility (1/GPa) = 0.03256839
#
# Stress axis : x y z
#
# Youngs Moduli (GPa) = 27.05126 95.79256 48.17249
#
# Poissons Ratio (x) = 0.91015 0.15848
# Poissons Ratio (y) = 0.25702 0.24120
# Poissons Ratio (z) = 0.08900 0.47963
#
# Static dielectric constant tensor:
#      x y z
#    x 2.846900 0.000000 0.000000 
#    y 0.000000 3.461390 0.000000 
#    z 0.000000 0.000000 2.856480 
# 
# 
# High freq. dielectric constant tensor:
#      x y z
#    x 1.585880 0.000000 0.000000 
#    y 0.000000 1.630290 0.000000 
#    z 0.000000 0.000000 1.590860 
# 
# From -- ./inp_files/59343.got.cif
#   From: 2010.06.25/outbox.cif.g09.slc.cpg/sg71_30_cif.got.tgz:59343.got - 2010.06.28 04:59:45.
