data_PCOD8288332
_publ_section_title
;
Structure prediction by ZEFSAII (Michael W. Deem and Ramdas Pophale) SiO2 
 PCOD8288332
Probable space group: I M M M
;
_chemical_formula_sum "Si O2"
_cell_formula_units_Z 96
_cell_length_a 8.829874
_cell_length_b 30.692849
_cell_length_c 20.595326
_cell_angle_alpha 90.000000
_cell_angle_beta 90.000000
_cell_angle_gamma 90.000000
_cell_volume 5581.621462
_symmetry_space_group_name_H-M "I M M M"
_symmetry_group_IT_number 71
_symmetry_cell_setting 'orthorhombic'
loop_
_space_group_symop_operation_xyz
x,y,z
-x,-y,z
x,-y,-z
-x,y,-z
-x,-y,-z
x,y,-z
-x,y,z
x,-y,z
1/2+x,1/2+y,1/2+z
1/2-x,1/2-y,1/2+z
1/2+x,1/2-y,1/2-z
1/2-x,1/2+y,1/2-z
1/2-x,1/2-y,1/2-z
1/2+x,1/2+y,1/2-z
1/2-x,1/2+y,1/2+z
1/2+x,1/2-y,1/2+z
loop_
_atom_site_type_symbol
_atom_site_label
_atom_site_fract_x
_atom_site_fract_y
_atom_site_fract_z
Si Si1 0.321814 0.283701 0.301184
Si Si2 0.828625 0.661393 0.098081
Si Si3 0.328083 0.575889 0.930390
Si Si4 0.325416 0.748622 0.072835
Si Si5 0.327472 0.864665 0.744993
Si Si6 0.176494 0.047906 0.291000
O O1 0.500000 0.280213 0.292184
O O2 0.250000 0.250000 0.250000
O O3 0.279249 0.272806 0.375137
O O4 0.268838 0.333472 0.291574
O O5 0.783505 0.616602 0.064570
O O6 0.715240 0.697809 0.072553
O O7 0.812428 0.656807 0.174932
O O8 0.000000 0.673496 0.078572
O O9 0.500000 0.592725 0.921262
O O10 0.284873 0.546728 0.868251
O O11 0.312283 0.550539 0.000000
O O12 0.500000 0.754233 0.093114
O O13 0.297600 0.767324 0.000000
O O14 0.500000 0.865929 0.769166
O O15 0.266401 0.914249 0.746298
O O16 0.000000 0.056483 0.279346
O O17 0.223286 0.000000 0.264127
#
# Coordination Sequence:
#
# PCOD8288332 Si02
#       6
#    16  16  16  16  16  16
#     4  12  23  36  56  79 105 138 176 218 261 311
#     4  10  19  30  46  67  94 130 171 216 260 303
#     4   9  17  28  42  61  88 124 166 211 259 309
#     4  11  23  36  51  73 104 140 176 215 258 306
#     4  10  20  34  52  74  99 131 171 215 260 310
#     4   9  18  32  49  69  94 125 164 213 265 314
#
# _framework density 17.199301999999999
#
# number of rings (size 3 to 8) (size 9 to 14) (size 15 to 20)
#    0.000    1.833    1.667    3.500    0.000    5.667 
#    0.000    1.667    0.000    0.000    0.000    4.667 
#    0.000    0.667    0.000    7.000    0.000    3.000 
#
# Total GULP energy -594990.577198 kJ/mol
# GULP energy per Si atom -12395.637025 kJ/mol
# Density = 1.716016 g / cm^3
# Si number density = 17.199302 Si / 1000 Ang^3
#
#
#
# Elastic Constant Matrix: (Units=GPa)
#
#
# Indices 1 2 3 4 5 6 
#
# 1 104.1739 48.1689 34.3902 0.0000 0.0000 0.0000
# 2 48.1689 99.2412 35.2485 0.0000 0.0000 0.0000
# 3 34.3902 35.2485 60.5971 -0.0002 0.0000 0.0000
# 4 0.0000 0.0000 -0.0002 5.1169 0.0000 0.0000
# 5 0.0000 0.0000 0.0000 0.0000 21.4359 0.0000
# 6 0.0000 0.0000 0.0000 0.0000 0.0000 24.6202
#
#
#
# Elastic Compliance Matrix: (Units=1/GPa)
#
#
# Indices 1 2 3 4 5 6 
#
# 1 0.013408 -0.004796 -0.004820 0.000000 0.000000 0.000000
# 2 -0.004796 0.014416 -0.005664 0.000000 0.000000 0.000000
# 3 -0.004820 -0.005664 0.022532 0.000001 0.000000 0.000000
# 4 0.000000 0.000000 0.000001 0.195431 0.000000 0.000000
# 5 0.000000 0.000000 0.000000 0.000000 0.046651 0.000000
# 6 0.000000 0.000000 0.000000 0.000000 0.000000 0.040617
#
#
# Mechanical properties :
#
#
# Convention : Reuss Voigt Hill
#
# Bulk Modulus (GPa) = 50.51142 55.51415 53.01279
# Shear Modulus (GPa) = 13.50574 19.98158 16.74366
#
# Velocity S-wave (km/s) = 2.80527 3.41217 3.12349
# Velocity P-wave (km/s) = 6.31861 6.91888 6.62554
#
# Compressibility (1/GPa) = 0.01979750
#
# Stress axis : x y z
#
# Youngs Moduli (GPa) = 74.58212 69.36752 44.38112
#
# Poissons Ratio (x) = 0.33269 0.21390
# Poissons Ratio (y) = 0.35770 0.25136
# Poissons Ratio (z) = 0.35945 0.39287
#
# Static dielectric constant tensor:
#      x y z
#    x 3.297470 0.000000 0.000000 
#    y 0.000000 3.088870 0.000000 
#    z 0.000000 0.000000 3.101170 
# 
# 
# High freq. dielectric constant tensor:
#      x y z
#    x 1.673600 0.000000 0.000000 
#    y 0.000000 1.644930 0.000000 
#    z 0.000000 0.000000 1.633140 
# 
# From -- ./inp_files/50827.got.cif
#   From: 2010.06.25/outbox.cif.g09.slc.cpg/sg71_26_cif.got.tgz:50827.got - 2010.06.28 04:59:45.
