data_PCOD8288473
_publ_section_title
;
Structure prediction by ZEFSAII (Michael W. Deem and Ramdas Pophale) SiO2 
 PCOD8288473
Probable space group: I M M M
;
_chemical_formula_sum "Si O2"
_cell_formula_units_Z 104
_cell_length_a 13.133273
_cell_length_b 17.966213
_cell_length_c 26.424455
_cell_angle_alpha 90.000000
_cell_angle_beta 90.000000
_cell_angle_gamma 90.000000
_cell_volume 6234.987039
_symmetry_space_group_name_H-M "I M M M"
_symmetry_group_IT_number 71
_symmetry_cell_setting 'orthorhombic'
loop_
_space_group_symop_operation_xyz
x,y,z
-x,-y,z
x,-y,-z
-x,y,-z
-x,-y,-z
x,y,-z
-x,y,z
x,-y,z
1/2+x,1/2+y,1/2+z
1/2-x,1/2-y,1/2+z
1/2+x,1/2-y,1/2-z
1/2-x,1/2+y,1/2-z
1/2-x,1/2-y,1/2-z
1/2+x,1/2+y,1/2-z
1/2-x,1/2+y,1/2+z
1/2+x,1/2-y,1/2+z
loop_
_atom_site_type_symbol
_atom_site_label
_atom_site_fract_x
_atom_site_fract_y
_atom_site_fract_z
Si Si1 0.615021 0.311460 0.780408
Si Si2 0.617158 0.916930 0.125407
Si Si3 0.880228 0.000000 0.441584
Si Si4 0.616218 0.914098 0.672741
Si Si5 0.697353 0.358394 0.117288
Si Si6 0.808746 0.648070 0.276215
Si Si7 0.118517 0.278705 0.441374
O O1 0.500000 0.320215 0.760613
O O2 0.627444 0.356789 0.832579
O O3 0.689590 0.343151 0.737299
O O4 0.641425 0.226108 0.792131
O O5 0.500000 0.906633 0.141564
O O6 0.684957 0.905155 0.175404
O O7 0.646058 0.859263 0.081340
O O8 0.637768 0.000000 0.104507
O O9 0.834430 0.926934 0.416878
O O10 0.848804 0.000000 0.500000
O O11 0.000000 0.000000 0.434293
O O12 0.500000 0.903050 0.655814
O O13 0.685141 0.866366 0.634363
O O14 0.628924 0.886060 0.729841
O O15 0.649603 0.000000 0.670063
O O16 0.687407 0.283035 0.085504
O O17 0.146967 0.280877 0.500000
O O18 0.000000 0.258415 0.433085
#
# Coordination Sequence:
#
# PCOD8288473 Si02
#       7
#    16  16   8  16  16  16  16
#     4  10  19  31  49  74 106 138 169 207 255 303
#     4  10  19  32  52  76 104 135 168 209 254 306
#     4  11  22  34  51  75 101 135 178 216 250 301
#     4  10  20  34  52  74 103 136 171 212 256 301
#     4  11  20  34  53  75 102 137 170 212 256 302
#     4  10  19  30  50  76 102 136 173 208 247 303
#     4  10  20  34  53  76 103 134 168 210 259 307
#
# _framework density 16.680066
#
# number of rings (size 3 to 8) (size 9 to 14) (size 15 to 20)
#    0.000    1.769    2.308    3.692    0.000    2.769 
#    0.000    1.538    0.000    2.308    0.000    0.000 
#    0.000    0.000    0.000    2.769    0.000    0.308 
#
# Total GULP energy -644964.493753 kJ/mol
# GULP energy per Si atom -12403.163341 kJ/mol
# Density = 1.664210 g / cm^3
# Si number density = 16.680066 Si / 1000 Ang^3
#
#
#
# Elastic Constant Matrix: (Units=GPa)
#
#
# Indices 1 2 3 4 5 6 
#
# 1 91.5312 39.4169 43.2537 0.0000 0.0000 0.0000
# 2 39.4169 108.0824 45.1786 0.0000 0.0000 0.0000
# 3 43.2537 45.1786 92.6670 0.0000 0.0000 0.0000
# 4 0.0000 0.0000 0.0000 26.9185 0.0000 0.0000
# 5 0.0000 0.0000 0.0000 0.0000 21.3294 0.0000
# 6 0.0000 0.0000 0.0000 0.0000 0.0000 19.1165
#
#
#
# Elastic Compliance Matrix: (Units=1/GPa)
#
#
# Indices 1 2 3 4 5 6 
#
# 1 0.014828 -0.003158 -0.005382 0.000000 0.000000 0.000000
# 2 -0.003158 0.012293 -0.004519 0.000000 0.000000 0.000000
# 3 -0.005382 -0.004519 0.015507 0.000000 0.000000 0.000000
# 4 0.000000 0.000000 0.000000 0.037149 0.000000 0.000000
# 5 0.000000 0.000000 0.000000 0.000000 0.046884 0.000000
# 6 0.000000 0.000000 0.000000 0.000000 0.000000 0.052311
#
#
# Mechanical properties :
#
#
# Convention : Reuss Voigt Hill
#
# Bulk Modulus (GPa) = 60.56967 60.88655 60.72811
# Shear Modulus (GPa) = 23.74248 24.43497 24.08873
#
# Velocity S-wave (km/s) = 3.77690 3.83158 3.80434
# Velocity P-wave (km/s) = 7.44388 7.49376 7.46886
#
# Compressibility (1/GPa) = 0.01650991
#
# Stress axis : x y z
#
# Youngs Moduli (GPa) = 67.43795 81.34712 64.48902
#
# Poissons Ratio (x) = 0.25692 0.34705
# Poissons Ratio (y) = 0.21299 0.29143
# Poissons Ratio (z) = 0.36292 0.36762
#
# Static dielectric constant tensor:
#      x y z
#    x 3.024510 0.000000 0.000000 
#    y 0.000000 3.250550 0.000000 
#    z 0.000000 0.000000 3.077080 
# 
# 
# High freq. dielectric constant tensor:
#      x y z
#    x 1.621310 0.000000 0.000000 
#    y 0.000000 1.653710 0.000000 
#    z 0.000000 0.000000 1.637350 
# 
# From -- ./inp_files/64651.got.cif
#   From: 2010.06.25/outbox.cif.g09.slc.cpg/sg71_33_cif.got.tgz:64651.got - 2010.06.28 04:59:45.
