data_PCOD8288941
_publ_section_title
;
Structure prediction by ZEFSAII (Michael W. Deem and Ramdas Pophale) SiO2 
 PCOD8288941
Probable space group: I M M M
;
_chemical_formula_sum "Si O2"
_cell_formula_units_Z 72
_cell_length_a 8.804303
_cell_length_b 29.216778
_cell_length_c 15.655623
_cell_angle_alpha 90.000000
_cell_angle_beta 90.000000
_cell_angle_gamma 90.000000
_cell_volume 4027.148604
_symmetry_space_group_name_H-M "I M M M"
_symmetry_group_IT_number 71
_symmetry_cell_setting 'orthorhombic'
loop_
_space_group_symop_operation_xyz
x,y,z
-x,-y,z
x,-y,-z
-x,y,-z
-x,-y,-z
x,y,-z
-x,y,z
x,-y,z
1/2+x,1/2+y,1/2+z
1/2-x,1/2-y,1/2+z
1/2+x,1/2-y,1/2-z
1/2-x,1/2+y,1/2-z
1/2-x,1/2-y,1/2-z
1/2+x,1/2+y,1/2-z
1/2-x,1/2+y,1/2+z
1/2+x,1/2-y,1/2+z
loop_
_atom_site_type_symbol
_atom_site_label
_atom_site_fract_x
_atom_site_fract_y
_atom_site_fract_z
Si Si1 0.178389 0.051869 0.171737
Si Si2 0.682657 0.215405 0.682792
Si Si3 0.171803 0.445651 0.500000
Si Si4 0.179856 0.117154 0.674518
Si Si5 0.834532 0.719937 0.000000
Si Si6 0.668535 0.111658 0.500000
O O1 0.228606 0.081308 0.253052
O O2 0.000000 0.053102 0.158733
O O3 0.236098 0.000000 0.186826
O O4 0.250096 0.073556 0.085844
O O5 0.500000 0.214731 0.684522
O O6 0.750000 0.250000 0.750000
O O7 0.743366 0.164847 0.701007
O O8 0.745591 0.233132 0.589588
O O9 0.187733 0.500000 0.500000
O O10 0.000000 0.428557 0.500000
O O11 0.240064 0.096837 0.584790
O O12 0.000000 0.123987 0.668487
O O13 0.850174 0.665611 0.000000
O O14 0.000000 0.743112 0.000000
O O15 0.500000 0.089125 0.500000
#
# Coordination Sequence:
#
# PCOD8288941 Si02
#       6
#    16  16   8  16   8   8
#     4   9  18  33  52  73  99 132 168 205 246 293
#     4  10  19  33  52  74 100 130 164 203 248 295
#     4   9  17  29  48  73  98 127 165 206 247 295
#     4  10  19  32  52  76  99 128 168 208 246 292
#     4   7  14  29  48  67  90 123 158 191 232 285
#     4   9  17  31  50  71  98 132 165 200 245 295
#
# _framework density 17.878654999999998
#
# number of rings (size 3 to 8) (size 9 to 14) (size 15 to 20)
#    0.000    2.778    0.000    3.333    0.000    3.111 
#    0.000    3.333    0.000    6.000    0.000    0.000 
#    0.000    0.000    0.000    0.000    0.000    0.000 
#
# Total GULP energy -446127.633922 kJ/mol
# GULP energy per Si atom -12392.434276 kJ/mol
# Density = 1.783796 g / cm^3
# Si number density = 17.878655 Si / 1000 Ang^3
#
#
#
# Elastic Constant Matrix: (Units=GPa)
#
#
# Indices 1 2 3 4 5 6 
#
# 1 76.2105 33.6725 64.3385 0.0001 0.0000 0.0000
# 2 33.6725 64.3441 73.2912 0.0001 0.0000 0.0000
# 3 64.3385 73.2912 205.4752 0.0005 0.0000 0.0000
# 4 0.0001 0.0001 0.0005 31.3630 0.0000 0.0000
# 5 0.0000 0.0000 0.0000 0.0000 28.0467 0.0000
# 6 0.0000 0.0000 0.0000 0.0000 0.0000 20.5985
#
#
#
# Elastic Compliance Matrix: (Units=1/GPa)
#
#
# Indices 1 2 3 4 5 6 
#
# 1 0.018849 -0.005291 -0.004015 0.000000 0.000000 0.000000
# 2 -0.005291 0.027662 -0.008210 0.000000 0.000000 0.000000
# 3 -0.004015 -0.008210 0.009052 0.000000 0.000000 0.000000
# 4 0.000000 0.000000 0.000000 0.031885 0.000000 0.000000
# 5 0.000000 0.000000 0.000000 0.000000 0.035655 0.000000
# 6 0.000000 0.000000 0.000000 0.000000 0.000000 0.048547
#
#
# Mechanical properties :
#
#
# Convention : Reuss Voigt Hill
#
# Bulk Modulus (GPa) = 48.70558 76.51490 62.61024
# Shear Modulus (GPa) = 23.41650 27.65015 25.53332
#
# Velocity S-wave (km/s) = 3.62297 3.93688 3.78318
# Velocity P-wave (km/s) = 6.69348 7.97214 7.36063
#
# Compressibility (1/GPa) = 0.02053153
#
# Stress axis : x y z
#
# Youngs Moduli (GPa) = 53.05460 36.15070 110.46914
#
# Poissons Ratio (x) = 0.19127 0.44349
# Poissons Ratio (y) = 0.28071 0.90696
# Poissons Ratio (z) = 0.21300 0.29680
#
# Static dielectric constant tensor:
#      x y z
#    x 3.319040 0.000000 0.000000 
#    y 0.000000 2.984570 0.000000 
#    z 0.000000 0.000000 3.869440 
# 
# 
# High freq. dielectric constant tensor:
#      x y z
#    x 1.691910 0.000000 0.000000 
#    y 0.000000 1.647240 0.000000 
#    z 0.000000 0.000000 1.715040 
# 
# From -- ./inp_files/6517.got.cif
#   From: 2010.06.25/outbox.cif.g09.slc.cpg/sg71_4_cif.got.tgz:6517.got - 2010.06.28 04:59:45.
