data_PCOD8288766
_publ_section_title
;
Structure prediction by ZEFSAII (Michael W. Deem and Ramdas Pophale) SiO2 
 PCOD8288766
Probable space group: I M M M
;
_chemical_formula_sum "Si O2"
_cell_formula_units_Z 88
_cell_length_a 12.137535
_cell_length_b 29.811065
_cell_length_c 14.301776
_cell_angle_alpha 90.000000
_cell_angle_beta 90.000000
_cell_angle_gamma 90.000000
_cell_volume 5174.852296
_symmetry_space_group_name_H-M "I M M M"
_symmetry_group_IT_number 71
_symmetry_cell_setting 'orthorhombic'
loop_
_space_group_symop_operation_xyz
x,y,z
-x,-y,z
x,-y,-z
-x,y,-z
-x,-y,-z
x,y,-z
-x,y,z
x,-y,z
1/2+x,1/2+y,1/2+z
1/2-x,1/2-y,1/2+z
1/2+x,1/2-y,1/2-z
1/2-x,1/2+y,1/2-z
1/2-x,1/2-y,1/2-z
1/2+x,1/2+y,1/2-z
1/2-x,1/2+y,1/2+z
1/2+x,1/2-y,1/2+z
loop_
_atom_site_type_symbol
_atom_site_label
_atom_site_fract_x
_atom_site_fract_y
_atom_site_fract_z
Si Si1 0.336498 0.794881 0.106395
Si Si2 0.238761 0.087420 0.610368
Si Si3 0.377154 0.839921 0.713264
Si Si4 0.500000 0.382715 0.109509
Si Si5 0.373586 0.000000 0.389790
Si Si6 0.121507 0.748232 0.105497
Si Si7 0.000000 0.218067 0.390910
O O1 0.371774 0.835771 0.173731
O O2 0.205484 0.789226 0.116644
O O3 0.393447 0.747746 0.137584
O O4 0.370861 0.807267 0.000000
O O5 0.256711 0.096241 0.500000
O O6 0.290862 0.126046 0.672056
O O7 0.108555 0.088076 0.636638
O O8 0.300797 0.042336 0.642903
O O9 0.500000 0.854533 0.682470
O O10 0.345238 0.791541 0.673859
O O11 0.500000 0.332113 0.155604
O O12 0.500000 0.375458 0.000000
O O13 0.500000 0.000000 0.348166
O O14 0.384506 0.000000 0.500000
O O15 0.000000 0.766932 0.129859
O O16 0.126278 0.729008 0.000000
O O17 0.000000 0.209728 0.500000
#
# Coordination Sequence:
#
# PCOD8288766 Si02
#       7
#    16  16  16   8   8  16   8
#     4  10  19  32  46  62  91 129 170 209 243 285
#     4  10  20  34  51  74 101 128 160 199 245 298
#     4  11  20  30  46  69  93 124 166 204 245 291
#     4   9  18  31  48  71  99 133 165 195 235 284
#     4   9  18  33  53  75 100 129 157 192 243 298
#     4   9  18  30  43  62  89 122 160 203 246 286
#     4   9  16  28  45  62  88 126 166 204 236 272
#
# _framework density 17.005316000000001
#
# number of rings (size 3 to 8) (size 9 to 14) (size 15 to 20)
#    0.000    2.273    0.909    2.727    0.000    5.091 
#    1.636    1.818    0.000    0.000    0.000    0.636 
#    0.000    2.182    0.000    1.636    0.000    0.545 
#
# Total GULP energy -545273.210325 kJ/mol
# GULP energy per Si atom -12392.572962 kJ/mol
# Density = 1.696661 g / cm^3
# Si number density = 17.005316 Si / 1000 Ang^3
#
#
#
# Elastic Constant Matrix: (Units=GPa)
#
#
# Indices 1 2 3 4 5 6 
#
# 1 132.2326 53.5070 26.3652 -0.0001 0.0000 0.0000
# 2 53.5070 54.7973 23.7899 -0.0011 0.0002 0.0000
# 3 26.3652 23.7899 46.7990 -0.0043 0.0000 0.0003
# 4 -0.0001 -0.0011 -0.0043 6.9200 0.0008 0.0002
# 5 0.0000 0.0002 0.0000 0.0008 16.9849 0.0000
# 6 0.0000 0.0000 0.0003 0.0002 0.0000 15.3084
#
#
#
# Elastic Compliance Matrix: (Units=1/GPa)
#
#
# Indices 1 2 3 4 5 6 
#
# 1 0.012545 -0.011781 -0.001078 -0.000002 0.000000 0.000000
# 2 -0.011781 0.034481 -0.010891 -0.000002 0.000000 0.000000
# 3 -0.001078 -0.010891 0.027512 0.000016 0.000000 -0.000001
# 4 -0.000002 -0.000002 0.000016 0.144509 -0.000007 -0.000002
# 5 0.000000 0.000000 0.000000 -0.000007 0.058876 0.000000
# 6 0.000000 0.000000 -0.000001 -0.000002 0.000000 0.065323
#
#
# Mechanical properties :
#
#
# Convention : Reuss Voigt Hill
#
# Bulk Modulus (GPa) = 36.98713 49.01702 43.00207
# Shear Modulus (GPa) = 12.50755 16.52044 14.51399
#
# Velocity S-wave (km/s) = 2.71497 3.12025 2.92464
# Velocity P-wave (km/s) = 5.62367 6.47058 6.06193
#
# Compressibility (1/GPa) = 0.02703643
#
# Stress axis : x y z
#
# Youngs Moduli (GPa) = 79.71594 29.00153 36.34778
#
# Poissons Ratio (x) = 0.34167 0.03920
# Poissons Ratio (y) = 0.93913 0.39587
# Poissons Ratio (z) = 0.08597 0.31586
#
# Static dielectric constant tensor:
#      x y z
#    x 3.563150 0.000000 0.000000 
#    y 0.000000 3.044410 0.000000 
#    z 0.000000 0.000000 3.053850 
# 
# 
# High freq. dielectric constant tensor:
#      x y z
#    x 1.682190 0.000000 0.000000 
#    y 0.000000 1.605230 0.000000 
#    z 0.000000 0.000000 1.628520 
# 
# From -- ./inp_files/33157.got.cif
#   From: 2010.06.25/outbox.cif.g09.slc.cpg/sg71_17_cif.got.tgz:33157.got - 2010.06.28 04:59:45.
