data_PCOD8288155
_publ_section_title
;
Structure prediction by ZEFSAII (Michael W. Deem and Ramdas Pophale) SiO2 
 PCOD8288155
Probable space group: I M M M
;
_chemical_formula_sum "Si O2"
_cell_formula_units_Z 96
_cell_length_a 13.740918
_cell_length_b 32.142887
_cell_length_c 14.292114
_cell_angle_alpha 90.000000
_cell_angle_beta 90.000000
_cell_angle_gamma 90.000000
_cell_volume 6312.437645
_symmetry_space_group_name_H-M "I M M M"
_symmetry_group_IT_number 71
_symmetry_cell_setting 'orthorhombic'
loop_
_space_group_symop_operation_xyz
x,y,z
-x,-y,z
x,-y,-z
-x,y,-z
-x,-y,-z
x,y,-z
-x,y,z
x,-y,z
1/2+x,1/2+y,1/2+z
1/2-x,1/2-y,1/2+z
1/2+x,1/2-y,1/2-z
1/2-x,1/2+y,1/2-z
1/2-x,1/2-y,1/2-z
1/2+x,1/2+y,1/2-z
1/2-x,1/2+y,1/2+z
1/2+x,1/2-y,1/2+z
loop_
_atom_site_type_symbol
_atom_site_label
_atom_site_fract_x
_atom_site_fract_y
_atom_site_fract_z
Si Si1 0.113137 0.376244 0.793360
Si Si2 0.114808 0.658967 0.602124
Si Si3 0.296490 0.047203 0.609699
Si Si4 0.606210 0.590872 0.109996
Si Si5 0.777342 0.829481 0.610854
Si Si6 0.391683 0.749089 0.889872
O O1 0.142555 0.373967 0.682949
O O2 0.134981 0.422447 0.830740
O O3 0.171627 0.340323 0.847650
O O4 0.000000 0.366212 0.807574
O O5 0.157858 0.645294 0.500000
O O6 0.152411 0.705136 0.631079
O O7 0.000000 0.663078 0.591605
O O8 0.313108 0.056737 0.500000
O O9 0.183391 0.054878 0.636829
O O10 0.324489 0.000000 0.634511
O O11 0.500000 0.582106 0.156251
O O12 0.647175 0.635097 0.144828
O O13 0.592949 0.592372 0.000000
O O14 0.765609 0.829393 0.500000
O O15 0.817361 0.785627 0.650459
O O16 0.500000 0.743418 0.845597
O O17 0.400693 0.742076 0.000000
#
# Coordination Sequence:
#
# PCOD8288155 Si02
#       6
#    16  16  16  16  16  16
#     4  10  19  29  41  56  77 107 138 167 198 229
#     4   8  15  28  44  60  76  97 130 170 208 241
#     4   9  18  30  42  59  82 106 133 160 187 232
#     4   8  13  22  37  57  82 109 130 151 185 223
#     4   9  16  24  36  58  86 112 136 158 182 223
#     4   8  13  23  40  60  82 106 130 160 198 236
#
# _framework density 15.208071
#
# number of rings (size 3 to 8) (size 9 to 14) (size 15 to 20)
#    0.000    3.333    0.000    3.000    0.000    4.667 
#    0.000    2.500    0.000    0.500    0.000    2.333 
#    0.000   18.000    0.000    6.000    0.000    0.667 
#
# Total GULP energy -594692.923713 kJ/mol
# GULP energy per Si atom -12389.435911 kJ/mol
# Density = 1.517346 g / cm^3
# Si number density = 15.208071 Si / 1000 Ang^3
#
#
#
# Elastic Constant Matrix: (Units=GPa)
#
#
# Indices 1 2 3 4 5 6 
#
# 1 75.9718 29.3121 29.1949 0.0003 -0.0002 0.0000
# 2 29.3121 89.8086 47.6410 0.0000 -0.0001 0.0000
# 3 29.1949 47.6410 59.2949 0.0003 0.0002 0.0008
# 4 0.0003 0.0000 0.0003 17.4238 -0.0001 0.0002
# 5 -0.0002 -0.0001 0.0002 -0.0001 9.5448 -0.0002
# 6 0.0000 0.0000 0.0008 0.0002 -0.0002 16.7012
#
#
#
# Elastic Compliance Matrix: (Units=1/GPa)
#
#
# Indices 1 2 3 4 5 6 
#
# 1 0.016412 -0.001865 -0.006582 0.000000 0.000000 0.000000
# 2 -0.001865 0.019618 -0.014844 0.000000 0.000000 0.000001
# 3 -0.006582 -0.014844 0.032032 0.000000 -0.000001 -0.000002
# 4 0.000000 0.000000 0.000000 0.057393 0.000001 -0.000001
# 5 0.000000 0.000000 -0.000001 0.000001 0.104769 0.000001
# 6 0.000000 0.000001 -0.000002 -0.000001 0.000001 0.059876
#
#
# Mechanical properties :
#
#
# Convention : Reuss Voigt Hill
#
# Bulk Modulus (GPa) = 46.55556 48.59681 47.57619
# Shear Modulus (GPa) = 14.54158 16.66245 15.60201
#
# Velocity S-wave (km/s) = 3.09556 3.31362 3.20645
# Velocity P-wave (km/s) = 6.59208 6.83111 6.71266
#
# Compressibility (1/GPa) = 0.02147971
#
# Stress axis : x y z
#
# Youngs Moduli (GPa) = 60.93190 50.97446 31.21857
#
# Poissons Ratio (x) = 0.09506 0.20549
# Poissons Ratio (y) = 0.11362 0.46340
# Poissons Ratio (z) = 0.40108 0.75666
#
# Static dielectric constant tensor:
#      x y z
#    x 2.958690 0.000000 0.000000 
#    y 0.000000 2.955250 0.000000 
#    z 0.000000 0.000000 2.745420 
# 
# 
# High freq. dielectric constant tensor:
#      x y z
#    x 1.571330 0.000000 0.000000 
#    y 0.000000 1.576240 0.000000 
#    z 0.000000 0.000000 1.539660 
# 
# From -- ./inp_files/35273.got.cif
#   From: 2010.06.25/outbox.cif.g09.slc.cpg/sg71_18_cif.got.tgz:35273.got - 2010.06.28 04:59:45.
