data_PCOD8288304
_publ_section_title
;
Structure prediction by ZEFSAII (Michael W. Deem and Ramdas Pophale) SiO2 
 PCOD8288304
Probable space group: I M M M
;
_chemical_formula_sum "Si O2"
_cell_formula_units_Z 104
_cell_length_a 8.680349
_cell_length_b 24.237641
_cell_length_c 32.989963
_cell_angle_alpha 90.000000
_cell_angle_beta 90.000000
_cell_angle_gamma 90.000000
_cell_volume 6940.797337
_symmetry_space_group_name_H-M "I M M M"
_symmetry_group_IT_number 71
_symmetry_cell_setting 'orthorhombic'
loop_
_space_group_symop_operation_xyz
x,y,z
-x,-y,z
x,-y,-z
-x,y,-z
-x,-y,-z
x,y,-z
-x,y,z
x,-y,z
1/2+x,1/2+y,1/2+z
1/2-x,1/2-y,1/2+z
1/2+x,1/2-y,1/2-z
1/2-x,1/2+y,1/2-z
1/2-x,1/2-y,1/2-z
1/2+x,1/2+y,1/2-z
1/2-x,1/2+y,1/2+z
1/2+x,1/2-y,1/2+z
loop_
_atom_site_type_symbol
_atom_site_label
_atom_site_fract_x
_atom_site_fract_y
_atom_site_fract_z
Si Si1 0.320406 0.167073 0.269923
Si Si2 0.176630 0.438094 0.338045
Si Si3 0.820913 0.837797 0.120353
Si Si4 0.176628 0.939196 0.752079
Si Si5 0.826527 0.000000 0.951920
Si Si6 0.818266 0.385530 0.453720
Si Si7 0.680038 0.232009 0.189330
O O1 0.500000 0.156814 0.274727
O O2 0.231880 0.109307 0.278045
O O3 0.276251 0.189136 0.225013
O O4 0.267008 0.210469 0.303699
O O5 0.201279 0.500000 0.354896
O O6 0.290498 0.398353 0.361863
O O7 0.213629 0.435907 0.290774
O O8 0.000000 0.418394 0.343884
O O9 0.758988 0.838082 0.074049
O O10 0.731916 0.791889 0.146255
O O11 0.000000 0.823770 0.121111
O O12 0.000000 0.929416 0.765041
O O13 0.194902 0.000000 0.731647
O O14 0.736593 0.054641 0.937570
O O15 0.000000 0.000000 0.934100
O O16 0.831529 0.000000 0.000000
O O17 0.766457 0.374978 0.500000
O O18 0.000000 0.382877 0.448898
O O19 0.500000 0.244114 0.189145
#
# Coordination Sequence:
#
# PCOD8288304 Si02
#       7
#    16  16  16  16   8  16  16
#     4  10  19  31  48  66  88 116 145 180 220 259
#     4  10  20  32  44  59  82 111 143 180 223 267
#     4  12  23  33  48  66  87 109 141 182 223 269
#     4  10  19  30  45  65  89 116 146 180 219 262
#     4   9  17  31  49  67  85 105 135 175 221 271
#     4  10  21  36  51  64  82 109 140 176 220 270
#     4  10  20  33  48  65  87 114 145 181 219 263
#
# _framework density 14.983867999999999
#
# number of rings (size 3 to 8) (size 9 to 14) (size 15 to 20)
#    0.000    1.769    1.538    3.923    1.077    4.923 
#    0.000    0.000    0.000    0.000    0.000    0.000 
#    0.000    0.000    0.000    0.000    0.000    0.769 
#
# Total GULP energy -644843.418771 kJ/mol
# GULP energy per Si atom -12400.834976 kJ/mol
# Density = 1.494976 g / cm^3
# Si number density = 14.983868 Si / 1000 Ang^3
#
#
#
# Elastic Constant Matrix: (Units=GPa)
#
#
# Indices 1 2 3 4 5 6 
#
# 1 56.7413 25.3305 11.7986 0.0000 0.0000 0.0000
# 2 25.3305 83.4923 32.7446 0.0000 0.0000 0.0000
# 3 11.7986 32.7446 58.0062 0.0000 0.0000 0.0000
# 4 0.0000 0.0000 0.0000 21.2548 0.0000 0.0000
# 5 0.0000 0.0000 0.0000 0.0000 20.4360 0.0000
# 6 0.0000 0.0000 0.0000 0.0000 0.0000 24.8774
#
#
#
# Elastic Compliance Matrix: (Units=1/GPa)
#
#
# Indices 1 2 3 4 5 6 
#
# 1 0.020417 -0.005864 -0.000843 0.000000 0.000000 0.000000
# 2 -0.005864 0.017067 -0.008442 0.000000 0.000000 0.000000
# 3 -0.000843 -0.008442 0.022176 0.000000 0.000000 0.000000
# 4 0.000000 0.000000 0.000000 0.047048 0.000000 0.000000
# 5 0.000000 0.000000 0.000000 0.000000 0.048933 0.000000
# 6 0.000000 0.000000 0.000000 0.000000 0.000000 0.040197
#
#
# Mechanical properties :
#
#
# Convention : Reuss Voigt Hill
#
# Bulk Modulus (GPa) = 34.05555 37.55416 35.80485
# Shear Modulus (GPa) = 21.19341 21.87136 21.53239
#
# Velocity S-wave (km/s) = 3.76495 3.82470 3.79494
# Velocity P-wave (km/s) = 6.45580 6.67996 6.56883
#
# Compressibility (1/GPa) = 0.02936379
#
# Stress axis : x y z
#
# Youngs Moduli (GPa) = 48.97940 58.59327 45.09326
#
# Poissons Ratio (x) = 0.34357 0.03800
# Poissons Ratio (y) = 0.28720 0.38066
# Poissons Ratio (z) = 0.04128 0.49462
#
# Static dielectric constant tensor:
#      x y z
#    x 2.978380 0.000000 0.000000 
#    y 0.000000 2.892560 0.000000 
#    z 0.000000 0.000000 2.713310 
# 
# 
# High freq. dielectric constant tensor:
#      x y z
#    x 1.594660 0.000000 0.000000 
#    y 0.000000 1.550450 0.000000 
#    z 0.000000 0.000000 1.533860 
# 
# From -- ./inp_files/68422.got.cif
#   From: 2010.06.25/outbox.cif.g09.slc.cpg/sg71_35_cif.got.tgz:68422.got - 2010.06.28 04:59:45.
