data_PCOD8288970
_publ_section_title
;
Structure prediction by ZEFSAII (Michael W. Deem and Ramdas Pophale) SiO2 
 PCOD8288970
Probable space group: I M M M
;
_chemical_formula_sum "Si O2"
_cell_formula_units_Z 104
_cell_length_a 19.755035
_cell_length_b 8.656484
_cell_length_c 31.909217
_cell_angle_alpha 90.000000
_cell_angle_beta 90.000000
_cell_angle_gamma 90.000000
_cell_volume 5456.767898
_symmetry_space_group_name_H-M "I M M M"
_symmetry_group_IT_number 71
_symmetry_cell_setting 'orthorhombic'
loop_
_space_group_symop_operation_xyz
x,y,z
-x,-y,z
x,-y,-z
-x,y,-z
-x,-y,-z
x,y,-z
-x,y,z
x,-y,z
1/2+x,1/2+y,1/2+z
1/2-x,1/2-y,1/2+z
1/2+x,1/2-y,1/2-z
1/2-x,1/2+y,1/2-z
1/2-x,1/2-y,1/2-z
1/2+x,1/2+y,1/2-z
1/2-x,1/2+y,1/2+z
1/2+x,1/2-y,1/2+z
loop_
_atom_site_type_symbol
_atom_site_label
_atom_site_fract_x
_atom_site_fract_y
_atom_site_fract_z
Si Si1 0.574546 0.683548 0.452970
Si Si2 0.422614 0.817415 0.000000
Si Si3 0.334584 0.175557 0.775246
Si Si4 0.206557 0.324111 0.187346
Si Si5 0.200404 0.181241 0.099407
Si Si6 0.576203 0.821921 0.150013
Si Si7 0.658360 0.680614 0.922678
O O1 0.588655 0.743389 0.500000
O O2 0.500000 0.741473 0.438014
O O3 0.575747 0.500000 0.452307
O O4 0.633044 0.748112 0.422761
O O5 0.383847 0.762135 0.958923
O O6 0.500000 0.753986 0.000000
O O7 0.423424 0.000000 0.000000
O O8 0.280680 0.294130 0.794024
O O9 0.346550 0.207361 0.725557
O O10 0.403959 0.197551 0.801082
O O11 0.307168 0.000000 0.780802
O O12 0.202944 0.500000 0.171226
O O13 0.191787 0.212626 0.148664
O O14 0.264308 0.264016 0.078237
O O15 0.209646 0.000000 0.092187
O O16 0.500000 0.762681 0.144354
O O17 0.625267 0.718815 0.121950
O O18 0.583324 0.000000 0.135865
O O19 0.656723 0.500000 0.931110
#
# Coordination Sequence:
#
# PCOD8288970 Si02
#       7
#    16   8  16  16  16  16  16
#     4   8  16  33  57  84 110 139 181 230 278 329
#     4  11  25  45  65  83 110 153 198 237 283 340
#     4   9  18  33  53  76 105 144 186 228 278 335
#     4  10  19  32  52  79 110 144 182 229 280 331
#     4  11  21  34  57  86 115 150 189 233 282 337
#     4  10  20  36  58  82 110 148 195 241 283 336
#     4  12  25  39  57  85 118 151 189 237 287 336
#
# _framework density 19.058900999999999
#
# number of rings (size 3 to 8) (size 9 to 14) (size 15 to 20)
#    0.000    1.923    1.538    3.462    1.077    3.385 
#    0.000    0.769    0.000    2.769    0.000    4.308 
#    0.000    0.000    0.000    0.000    0.000    0.000 
#
# Total GULP energy -644704.127429 kJ/mol
# GULP energy per Si atom -12398.156297 kJ/mol
# Density = 1.901552 g / cm^3
# Si number density = 19.058901 Si / 1000 Ang^3
#
#
#
# Elastic Constant Matrix: (Units=GPa)
#
#
# Indices 1 2 3 4 5 6 
#
# 1 135.7105 27.5857 64.1976 0.0000 0.0000 0.0000
# 2 27.5857 54.9295 21.7595 0.0000 0.0000 0.0000
# 3 64.1976 21.7595 112.2032 0.0000 0.0000 0.0000
# 4 0.0000 0.0000 0.0000 24.0774 0.0000 0.0000
# 5 0.0000 0.0000 0.0000 0.0000 24.4490 0.0000
# 6 0.0000 0.0000 0.0000 0.0000 0.0000 9.9838
#
#
#
# Elastic Compliance Matrix: (Units=1/GPa)
#
#
# Indices 1 2 3 4 5 6 
#
# 1 0.010586 -0.003160 -0.005444 0.000000 0.000000 0.000000
# 2 -0.003160 0.020663 -0.002199 0.000000 0.000000 0.000000
# 3 -0.005444 -0.002199 0.012454 0.000000 0.000000 0.000000
# 4 0.000000 0.000000 0.000000 0.041533 0.000000 0.000000
# 5 0.000000 0.000000 0.000000 0.000000 0.040901 0.000000
# 6 0.000000 0.000000 0.000000 0.000000 0.000000 0.100162
#
#
# Mechanical properties :
#
#
# Convention : Reuss Voigt Hill
#
# Bulk Modulus (GPa) = 45.25564 58.88099 52.06831
# Shear Modulus (GPa) = 19.58696 24.32206 21.95451
#
# Velocity S-wave (km/s) = 3.20926 3.57620 3.39769
# Velocity P-wave (km/s) = 6.12611 6.92918 6.53998
#
# Compressibility (1/GPa) = 0.02209670
#
# Stress axis : x y z
#
# Youngs Moduli (GPa) = 94.46181 48.39512 80.29651
#
# Poissons Ratio (x) = 0.15292 0.43715
# Poissons Ratio (y) = 0.29848 0.17660
# Poissons Ratio (z) = 0.51427 0.10644
#
# Static dielectric constant tensor:
#      x y z
#    x 3.615670 0.000000 0.000000 
#    y 0.000000 3.354260 0.000000 
#    z 0.000000 0.000000 3.733740 
# 
# 
# High freq. dielectric constant tensor:
#      x y z
#    x 1.729570 0.000000 0.000000 
#    y 0.000000 1.728250 0.000000 
#    z 0.000000 0.000000 1.749000 
# 
# From -- ./inp_files/70708.got.cif
#   From: 2010.06.25/outbox.cif.g09.slc.cpg/sg71_36_cif.got.tgz:70708.got - 2010.06.28 04:59:45.
