data_PCOD8288883
_publ_section_title
;
Structure prediction by ZEFSAII (Michael W. Deem and Ramdas Pophale) SiO2 
 PCOD8288883
Probable space group: I M M M
;
_chemical_formula_sum "Si O2"
_cell_formula_units_Z 80
_cell_length_a 8.797229
_cell_length_b 22.010718
_cell_length_c 21.971480
_cell_angle_alpha 90.000000
_cell_angle_beta 90.000000
_cell_angle_gamma 90.000000
_cell_volume 4254.410765
_symmetry_space_group_name_H-M "I M M M"
_symmetry_group_IT_number 71
_symmetry_cell_setting 'orthorhombic'
loop_
_space_group_symop_operation_xyz
x,y,z
-x,-y,z
x,-y,-z
-x,y,-z
-x,-y,-z
x,y,-z
-x,y,z
x,-y,z
1/2+x,1/2+y,1/2+z
1/2-x,1/2-y,1/2+z
1/2+x,1/2-y,1/2-z
1/2-x,1/2+y,1/2-z
1/2-x,1/2-y,1/2-z
1/2+x,1/2+y,1/2-z
1/2-x,1/2+y,1/2+z
1/2+x,1/2-y,1/2+z
loop_
_atom_site_type_symbol
_atom_site_label
_atom_site_fract_x
_atom_site_fract_y
_atom_site_fract_z
Si Si1 0.180870 0.114975 0.859950
Si Si2 0.680393 0.430148 0.769828
Si Si3 0.319257 0.267685 0.430471
Si Si4 0.818582 0.000000 0.067646
Si Si5 0.319162 0.067409 0.500000
Si Si6 0.180052 0.361808 0.117112
O O1 0.237747 0.104027 0.791141
O O2 0.245804 0.176588 0.890238
O O3 0.000000 0.116414 0.861636
O O4 0.244984 0.059422 0.899335
O O5 0.500000 0.431419 0.772295
O O6 0.741325 0.500000 0.772386
O O7 0.742885 0.389420 0.823890
O O8 0.255070 0.269259 0.500000
O O9 0.500000 0.270217 0.434515
O O10 0.267817 0.207326 0.394587
O O11 0.000000 0.000000 0.068475
O O12 0.753325 0.000000 0.000000
O O13 0.500000 0.067862 0.500000
O O14 0.258414 0.100563 0.559746
O O15 0.251850 0.000000 0.500000
O O16 0.000000 0.367046 0.124480
#
# Coordination Sequence:
#
# PCOD8288883 Si02
#       6
#    16  16  16   8   8  16
#     4   9  16  27  44  67  99 135 163 196 245 295
#     4  10  20  34  49  69 102 138 167 198 243 295
#     4   9  16  28  47  72  99 126 161 208 254 293
#     4   9  14  22  40  68  97 128 167 202 238 289
#     4   9  16  28  47  69  91 118 158 206 249 283
#     4  10  19  32  51  74  98 127 165 207 251 295
#
# _framework density 18.804015
#
# number of rings (size 3 to 8) (size 9 to 14) (size 15 to 20)
#    0.000    2.600    2.000    1.200    0.000    4.400 
#    0.000    0.500    0.000    1.800    0.000    0.000 
#    0.000    3.200    0.000    0.000    0.000    0.000 
#
# Total GULP energy -495823.239922 kJ/mol
# GULP energy per Si atom -12395.580998 kJ/mol
# Density = 1.876122 g / cm^3
# Si number density = 18.804015 Si / 1000 Ang^3
#
#
#
# Elastic Constant Matrix: (Units=GPa)
#
#
# Indices 1 2 3 4 5 6 
#
# 1 6.4219 12.4371 15.7163 0.0000 0.0000 0.0000
# 2 12.4371 201.9313 112.5406 0.0000 0.0000 0.0000
# 3 15.7163 112.5406 203.1445 0.0000 0.0000 0.0000
# 4 0.0000 0.0000 0.0000 42.7403 0.0000 0.0000
# 5 0.0000 0.0000 0.0000 0.0000 16.8254 0.0000
# 6 0.0000 0.0000 0.0000 0.0000 0.0000 12.8693
#
#
#
# Elastic Compliance Matrix: (Units=1/GPa)
#
#
# Indices 1 2 3 4 5 6 
#
# 1 0.195838 -0.005234 -0.012252 0.000000 0.000000 0.000000
# 2 -0.005234 0.007304 -0.003641 0.000000 0.000000 0.000000
# 3 -0.012252 -0.003641 0.007888 0.000000 0.000000 0.000000
# 4 0.000000 0.000000 0.000000 0.023397 0.000000 0.000000
# 5 0.000000 0.000000 0.000000 0.000000 0.059434 0.000000
# 6 0.000000 0.000000 0.000000 0.000000 0.000000 0.077704
#
#
# Mechanical properties :
#
#
# Convention : Reuss Voigt Hill
#
# Bulk Modulus (GPa) = 5.92500 76.98730 41.45615
# Shear Modulus (GPa) = 10.63654 32.54056 21.58855
#
# Velocity S-wave (km/s) = 2.38093 4.16445 3.39201
# Velocity P-wave (km/s) = 3.27356 8.00964 6.11844
#
# Compressibility (1/GPa) = 0.16877626
#
# Stress axis : x y z
#
# Youngs Moduli (GPa) = 5.10626 136.91155 126.77811
#
# Poissons Ratio (x) = 0.71655 1.55324
# Poissons Ratio (y) = 0.02672 0.46166
# Poissons Ratio (z) = 0.06256 0.49856
#
# Static dielectric constant tensor:
#      x y z
#    x 2.721540 0.000000 0.000000 
#    y 0.000000 3.798520 0.000000 
#    z 0.000000 0.000000 3.678920 
# 
# 
# High freq. dielectric constant tensor:
#      x y z
#    x 1.654390 0.000000 0.000000 
#    y 0.000000 1.748310 0.000000 
#    z 0.000000 0.000000 1.746850 
# 
# From -- ./inp_files/43272.got.cif
#   From: 2010.06.25/outbox.cif.g09.slc.cpg/sg71_22_cif.got.tgz:43272.got - 2010.06.28 04:59:45.
