data_PCOD8288318
_publ_section_title
;
Structure prediction by ZEFSAII (Michael W. Deem and Ramdas Pophale) SiO2 
 PCOD8288318
Probable space group: I M M M
;
_chemical_formula_sum "Si O2"
_cell_formula_units_Z 72
_cell_length_a 21.266708
_cell_length_b 9.713690
_cell_length_c 20.111361
_cell_angle_alpha 90.000000
_cell_angle_beta 90.000000
_cell_angle_gamma 90.000000
_cell_volume 4154.568933
_symmetry_space_group_name_H-M "I M M M"
_symmetry_group_IT_number 71
_symmetry_cell_setting 'orthorhombic'
loop_
_space_group_symop_operation_xyz
x,y,z
-x,-y,z
x,-y,-z
-x,y,-z
-x,-y,-z
x,y,-z
-x,y,z
x,-y,z
1/2+x,1/2+y,1/2+z
1/2-x,1/2-y,1/2+z
1/2+x,1/2-y,1/2-z
1/2-x,1/2+y,1/2-z
1/2-x,1/2-y,1/2-z
1/2+x,1/2+y,1/2-z
1/2-x,1/2+y,1/2+z
1/2+x,1/2-y,1/2+z
loop_
_atom_site_type_symbol
_atom_site_label
_atom_site_fract_x
_atom_site_fract_y
_atom_site_fract_z
Si Si1 0.842094 0.656412 0.769924
Si Si2 0.647078 0.261877 0.923030
Si Si3 0.428541 0.650327 0.191489
Si Si4 0.257130 0.343791 0.348010
Si Si5 0.431355 0.000000 0.078093
O O1 0.859245 0.500000 0.792355
O O2 0.903502 0.733200 0.741643
O O3 0.788269 0.650783 0.714985
O O4 0.816924 0.746786 0.832257
O O5 0.616218 0.372761 0.873848
O O6 0.720334 0.228655 0.909480
O O7 0.607722 0.129859 0.898770
O O8 0.638063 0.303657 0.000000
O O9 0.500000 0.687720 0.170494
O O10 0.426679 0.500000 0.226781
O O11 0.278373 0.500000 0.366674
O O12 0.500000 0.000000 0.112160
O O13 0.438794 0.000000 0.000000
#
# Coordination Sequence:
#
# PCOD8288318 Si02
#       5
#    16  16  16  16   8
#     4   9  18  31  48  67  85 113 155 200 245 288
#     4  10  19  30  45  67  95 129 165 196 228 271
#     4  10  21  34  47  66  94 126 160 199 242 287
#     4   9  16  28  46  65  89 118 152 195 240 281
#     4   9  16  26  40  60  88 122 159 195 222 251
#
# _framework density 17.330317999999998
#
# number of rings (size 3 to 8) (size 9 to 14) (size 15 to 20)
#    0.000    2.556    1.111    1.333    1.556    7.556 
#    0.000    1.111    0.000    0.000    0.000    0.000 
#    0.000    0.889    0.000    6.667    0.000    2.444 
#
# Total GULP energy -446055.185137 kJ/mol
# GULP energy per Si atom -12390.421809 kJ/mol
# Density = 1.729087 g / cm^3
# Si number density = 17.330318 Si / 1000 Ang^3
#
#
#
# Elastic Constant Matrix: (Units=GPa)
#
#
# Indices 1 2 3 4 5 6 
#
# 1 73.2497 46.8257 44.7769 0.0000 0.0000 0.0000
# 2 46.8257 113.0866 21.6984 0.0000 0.0000 0.0000
# 3 44.7769 21.6984 39.6214 0.0000 0.0000 0.0000
# 4 0.0000 0.0000 0.0000 10.3468 0.0000 0.0000
# 5 0.0000 0.0000 0.0000 0.0000 21.4318 0.0000
# 6 0.0000 0.0000 0.0000 0.0000 0.0000 25.8204
#
#
#
# Elastic Compliance Matrix: (Units=1/GPa)
#
#
# Indices 1 2 3 4 5 6 
#
# 1 0.056398 -0.012429 -0.056930 0.000000 0.000000 0.000000
# 2 -0.012429 0.012620 0.007135 0.000000 0.000000 0.000000
# 3 -0.056930 0.007135 0.085669 0.000000 0.000000 0.000000
# 4 0.000000 0.000000 0.000000 0.096648 0.000000 0.000000
# 5 0.000000 0.000000 0.000000 0.000000 0.046660 0.000000
# 6 0.000000 0.000000 0.000000 0.000000 0.000000 0.038729
#
#
# Mechanical properties :
#
#
# Convention : Reuss Voigt Hill
#
# Bulk Modulus (GPa) = 33.06938 50.28440 41.67689
# Shear Modulus (GPa) = 10.61001 19.03026 14.82013
#
# Velocity S-wave (km/s) = 2.47700 3.31734 2.92748
# Velocity P-wave (km/s) = 5.22532 6.61447 5.96050
#
# Compressibility (1/GPa) = 0.03023946
#
# Stress axis : x y z
#
# Youngs Moduli (GPa) = 17.73097 79.23701 11.67282
#
# Poissons Ratio (x) = 0.98488 0.66454
# Poissons Ratio (y) = 0.22039 -0.08329
# Poissons Ratio (z) = 1.00943 -0.56538
#
# Static dielectric constant tensor:
#      x y z
#    x 3.188320 0.000000 0.000000 
#    y 0.000000 3.599290 0.000000 
#    z 0.000000 0.000000 2.855090 
# 
# 
# High freq. dielectric constant tensor:
#      x y z
#    x 1.643280 0.000000 0.000000 
#    y 0.000000 1.687080 0.000000 
#    z 0.000000 0.000000 1.613740 
# 
# From -- ./inp_files/9893.got.cif
#   From: 2010.06.25/outbox.cif.g09.slc.cpg/sg71_5_cif.got.tgz:9893.got - 2010.06.28 04:59:45.
