data_PCOD8288621
_publ_section_title
;
Structure prediction by ZEFSAII (Michael W. Deem and Ramdas Pophale) SiO2 
 PCOD8288621
Probable space group: I M M M
;
_chemical_formula_sum "Si O2"
_cell_formula_units_Z 56
_cell_length_a 14.635115
_cell_length_b 13.020740
_cell_length_c 17.230427
_cell_angle_alpha 90.000000
_cell_angle_beta 90.000000
_cell_angle_gamma 90.000000
_cell_volume 3283.430639
_symmetry_space_group_name_H-M "I M M M"
_symmetry_group_IT_number 71
_symmetry_cell_setting 'orthorhombic'
loop_
_space_group_symop_operation_xyz
x,y,z
-x,-y,z
x,-y,-z
-x,y,-z
-x,-y,-z
x,y,-z
-x,y,z
x,-y,z
1/2+x,1/2+y,1/2+z
1/2-x,1/2-y,1/2+z
1/2+x,1/2-y,1/2-z
1/2-x,1/2+y,1/2-z
1/2-x,1/2-y,1/2-z
1/2+x,1/2+y,1/2-z
1/2-x,1/2+y,1/2+z
1/2+x,1/2-y,1/2+z
loop_
_atom_site_type_symbol
_atom_site_label
_atom_site_fract_x
_atom_site_fract_y
_atom_site_fract_z
Si Si1 0.000000 0.885954 0.819401
Si Si2 0.860192 0.192475 0.699024
Si Si3 0.157657 0.381660 0.203579
Si Si4 0.500000 0.384562 0.909621
Si Si5 0.500000 0.815148 0.592228
O O1 0.909140 0.872159 0.767223
O O2 0.000000 0.806776 0.891078
O O3 0.000000 0.000000 0.855014
O O4 0.869899 0.312523 0.722267
O O5 0.758713 0.154644 0.681062
O O6 0.911035 0.176436 0.618119
O O7 0.155772 0.500000 0.229135
O O8 0.090140 0.365522 0.130588
O O9 0.500000 0.500000 0.874837
O O10 0.500000 0.387676 0.000000
O O11 0.500000 0.835898 0.500000
#
# Coordination Sequence:
#
# PCOD8288621 Si02
#       5
#     8  16  16   8   8
#     4   9  16  31  54  72  90 119 156 201 241 270
#     4   9  18  32  51  74  94 115 156 201 232 275
#     4  10  19  32  51  70  92 126 159 192 232 270
#     4  10  19  31  49  73  99 122 147 190 243 284
#     4  10  22  33  42  68 103 130 159 188 221 277
#
# _framework density 17.055332
#
# number of rings (size 3 to 8) (size 9 to 14) (size 15 to 20)
#    0.000    2.429    0.000    4.714    0.000    2.571 
#    0.000    0.000    0.000    1.714    0.000    0.000 
#    0.000    0.000    0.000    0.000    0.000    0.000 
#
# Total GULP energy -347057.072397 kJ/mol
# GULP energy per Si atom -12394.895443 kJ/mol
# Density = 1.701651 g / cm^3
# Si number density = 17.055332 Si / 1000 Ang^3
#
#
#
# Elastic Constant Matrix: (Units=GPa)
#
#
# Indices 1 2 3 4 5 6 
#
# 1 127.8052 40.0270 50.5170 0.0000 0.0000 0.0000
# 2 40.0270 152.9373 45.3526 0.0000 0.0000 0.0000
# 3 50.5170 45.3526 76.0936 0.0000 0.0000 0.0000
# 4 0.0000 0.0000 0.0000 18.3037 0.0000 0.0000
# 5 0.0000 0.0000 0.0000 0.0000 12.4484 0.0000
# 6 0.0000 0.0000 0.0000 0.0000 0.0000 9.9548
#
#
#
# Elastic Compliance Matrix: (Units=1/GPa)
#
#
# Indices 1 2 3 4 5 6 
#
# 1 0.010697 -0.000843 -0.006599 0.000000 0.000000 0.000000
# 2 -0.000843 0.008009 -0.004214 0.000000 0.000000 0.000000
# 3 -0.006599 -0.004214 0.020034 0.000000 0.000000 0.000000
# 4 0.000000 0.000000 0.000000 0.054634 0.000000 0.000000
# 5 0.000000 0.000000 0.000000 0.000000 0.080331 0.000000
# 6 0.000000 0.000000 0.000000 0.000000 0.000000 0.100454
#
#
# Mechanical properties :
#
#
# Convention : Reuss Voigt Hill
#
# Bulk Modulus (GPa) = 64.81538 69.84772 67.33155
# Shear Modulus (GPa) = 16.52277 22.87069 19.69673
#
# Velocity S-wave (km/s) = 3.11589 3.66590 3.40203
# Velocity P-wave (km/s) = 7.14357 7.67860 7.41591
#
# Compressibility (1/GPa) = 0.01542844
#
# Stress axis : x y z
#
# Youngs Moduli (GPa) = 93.48659 124.86305 49.91442
#
# Poissons Ratio (x) = 0.10521 0.32939
# Poissons Ratio (y) = 0.07877 0.21034
# Poissons Ratio (z) = 0.61693 0.52616
#
# Static dielectric constant tensor:
#      x y z
#    x 3.437120 0.000000 0.000000 
#    y 0.000000 3.423080 0.000000 
#    z 0.000000 0.000000 2.828190 
# 
# 
# High freq. dielectric constant tensor:
#      x y z
#    x 1.675250 0.000000 0.000000 
#    y 0.000000 1.666940 0.000000 
#    z 0.000000 0.000000 1.621410 
# 
# From -- ./inp_files/21142.got.cif
#   From: 2010.06.25/outbox.cif.g09.slc.cpg/sg71_11_cif.got.tgz:21142.got - 2010.06.28 04:59:45.
