data_PCOD8288362
_publ_section_title
;
Structure prediction by ZEFSAII (Michael W. Deem and Ramdas Pophale) SiO2 
 PCOD8288362
Probable space group: I M M M
;
_chemical_formula_sum "Si O2"
_cell_formula_units_Z 64
_cell_length_a 9.536450
_cell_length_b 48.427371
_cell_length_c 7.759612
_cell_angle_alpha 90.000000
_cell_angle_beta 90.000000
_cell_angle_gamma 90.000000
_cell_volume 3583.584381
_symmetry_space_group_name_H-M "I M M M"
_symmetry_group_IT_number 71
_symmetry_cell_setting 'orthorhombic'
loop_
_space_group_symop_operation_xyz
x,y,z
-x,-y,z
x,-y,-z
-x,y,-z
-x,-y,-z
x,y,-z
-x,y,z
x,-y,z
1/2+x,1/2+y,1/2+z
1/2-x,1/2-y,1/2+z
1/2+x,1/2-y,1/2-z
1/2-x,1/2+y,1/2-z
1/2-x,1/2-y,1/2-z
1/2+x,1/2+y,1/2-z
1/2-x,1/2+y,1/2+z
1/2+x,1/2-y,1/2+z
loop_
_atom_site_type_symbol
_atom_site_label
_atom_site_fract_x
_atom_site_fract_y
_atom_site_fract_z
Si Si1 0.667592 0.069095 0.000000
Si Si2 0.833281 0.835266 0.692428
Si Si3 0.832959 0.125655 0.000000
Si Si4 0.152911 0.224892 0.298403
Si Si5 0.666261 0.969217 0.691439
O O1 0.720821 0.052393 0.167688
O O2 0.500000 0.073764 0.000000
O O3 0.748453 0.097573 0.000000
O O4 0.775314 0.842593 0.500000
O O5 0.781321 0.804851 0.756260
O O6 0.000000 0.834061 0.686239
O O7 0.783059 0.857924 0.829642
O O8 0.000000 0.120465 0.000000
O O9 0.132515 0.223796 0.500000
O O10 0.250000 0.250000 0.250000
O O11 0.000000 0.229326 0.210932
O O12 0.716140 0.959949 0.500000
O O13 0.500000 0.970257 0.699007
O O14 0.724194 0.000000 0.732602
#
# Coordination Sequence:
#
# PCOD8288362 Si02
#       5
#     8  16   8  16  16
#     4  10  19  30  46  72 100 122 152 200 244 272
#     4   8  16  32  50  67  89 119 160 199 226 270
#     4  10  20  33  51  69  88 128 170 194 230 280
#     4   9  18  31  48  72  96 118 149 192 240 289
#     4   8  14  26  46  71  97 126 159 192 230 280
#
# _framework density 17.859211999999999
#
# number of rings (size 3 to 8) (size 9 to 14) (size 15 to 20)
#    0.000    3.250    0.000    2.625    1.750    3.000 
#    0.000    1.250    0.000    3.000    0.000    1.750 
#    0.000    0.000    0.000    0.000    0.000    0.000 
#
# Total GULP energy -396480.257779 kJ/mol
# GULP energy per Si atom -12390.008056 kJ/mol
# Density = 1.781856 g / cm^3
# Si number density = 17.859212 Si / 1000 Ang^3
#
#
#
# Elastic Constant Matrix: (Units=GPa)
#
#
# Indices 1 2 3 4 5 6 
#
# 1 32.3205 42.8736 26.7701 0.0087 -0.0028 0.0024
# 2 42.8736 177.0885 98.4291 -0.0065 0.0070 0.0083
# 3 26.7701 98.4291 127.4906 0.0164 -0.0003 0.0080
# 4 0.0087 -0.0065 0.0164 27.0622 -0.0039 0.0066
# 5 -0.0028 0.0070 -0.0003 -0.0039 12.7820 0.0076
# 6 0.0024 0.0083 0.0080 0.0066 0.0076 29.8766
#
#
#
# Elastic Compliance Matrix: (Units=1/GPa)
#
#
# Indices 1 2 3 4 5 6 
#
# 1 0.045826 -0.010066 -0.001851 -0.000016 0.000015 0.000000
# 2 -0.010066 0.012102 -0.007230 0.000011 -0.000009 -0.000001
# 3 -0.001851 -0.007230 0.013814 -0.000009 0.000004 -0.000002
# 4 -0.000016 0.000011 -0.000009 0.036952 0.000011 -0.000008
# 5 0.000015 -0.000009 0.000004 0.000011 0.078235 -0.000020
# 6 0.000000 -0.000001 -0.000002 -0.000008 -0.000020 0.033471
#
#
# Mechanical properties :
#
#
# Convention : Reuss Voigt Hill
#
# Bulk Modulus (GPa) = 29.89657 74.78280 52.33969
# Shear Modulus (GPa) = 18.52922 25.19926 21.86424
#
# Velocity S-wave (km/s) = 3.22454 3.76040 3.50273
# Velocity P-wave (km/s) = 5.53535 7.79862 6.76234
#
# Compressibility (1/GPa) = 0.03344866
#
# Stress axis : x y z
#
# Youngs Moduli (GPa) = 21.82186 82.62791 72.38784
#
# Poissons Ratio (x) = 0.83170 0.13401
# Poissons Ratio (y) = 0.21965 0.52338
# Poissons Ratio (z) = 0.04040 0.59741
#
# Static dielectric constant tensor:
#      x y z
#    x 2.693850 -0.000150 0.007740 
#    y -0.000150 2.738450 -0.102170 
#    z 0.007740 -0.102170 23.751270 
# 
# 
# High freq. dielectric constant tensor:
#      x y z
#    x 1.627450 0.000000 0.000000 
#    y 0.000000 1.695820 0.000000 
#    z 0.000000 0.000000 1.704100 
# 
# From -- ./inp_files/3733.got.cif
#   From: 2010.06.25/outbox.cif.g09.slc.cpg/sg71_2_cif.got.tgz:3733.got - 2010.06.28 04:59:45.
