data_PCOD8288487
_publ_section_title
;
Structure prediction by ZEFSAII (Michael W. Deem and Ramdas Pophale) SiO2 
 PCOD8288487
Probable space group: I M M M
;
_chemical_formula_sum "Si O2"
_cell_formula_units_Z 104
_cell_length_a 9.493811
_cell_length_b 33.311609
_cell_length_c 24.373447
_cell_angle_alpha 90.000000
_cell_angle_beta 90.000000
_cell_angle_gamma 90.000000
_cell_volume 7708.203031
_symmetry_space_group_name_H-M "I M M M"
_symmetry_group_IT_number 71
_symmetry_cell_setting 'orthorhombic'
loop_
_space_group_symop_operation_xyz
x,y,z
-x,-y,z
x,-y,-z
-x,y,-z
-x,-y,-z
x,y,-z
-x,y,z
x,-y,z
1/2+x,1/2+y,1/2+z
1/2-x,1/2-y,1/2+z
1/2+x,1/2-y,1/2-z
1/2-x,1/2+y,1/2-z
1/2-x,1/2-y,1/2-z
1/2+x,1/2+y,1/2-z
1/2-x,1/2+y,1/2+z
1/2+x,1/2-y,1/2+z
loop_
_atom_site_type_symbol
_atom_site_label
_atom_site_fract_x
_atom_site_fract_y
_atom_site_fract_z
Si Si1 0.161417 0.625696 0.349907
Si Si2 0.838888 0.544939 0.603884
Si Si3 0.662539 0.809369 0.765590
Si Si4 0.157728 0.047362 0.000000
Si Si5 0.660656 0.726963 0.824067
Si Si6 0.839176 0.168751 0.938241
Si Si7 0.839811 0.252175 0.439878
O O1 0.177436 0.577052 0.345916
O O2 0.208447 0.648757 0.294507
O O3 0.258035 0.638064 0.400233
O O4 0.000000 0.638016 0.362527
O O5 0.796585 0.500000 0.624207
O O6 0.741424 0.560438 0.554318
O O7 0.000000 0.544844 0.582763
O O8 0.500000 0.809727 0.749490
O O9 0.699170 0.772646 0.806595
O O10 0.746739 0.805160 0.708830
O O11 0.000000 0.066588 0.000000
O O12 0.145492 0.000000 0.000000
O O13 0.500000 0.717448 0.809394
O O14 0.690370 0.721787 0.889362
O O15 0.768825 0.212008 0.935015
O O16 0.000000 0.173147 0.918511
O O17 0.831193 0.151524 0.000000
O O18 0.822142 0.231086 0.500000
O O19 0.000000 0.268665 0.433394
#
# Coordination Sequence:
#
# PCOD8288487 Si02
#       7
#    16  16  16   8  16  16  16
#     4  10  19  31  44  56  72  95 126 157 191 233
#     4   9  18  31  45  58  71  91 122 158 192 229
#     4   9  17  28  40  56  74  97 126 154 185 221
#     4   9  17  29  43  57  75  97 119 149 193 241
#     4   9  16  27  41  57  76  98 124 152 185 219
#     4  10  20  29  37  54  77  97 122 158 196 230
#     4   9  16  28  44  58  75 100 128 155 186 226
#
# _framework density 13.49212
#
# number of rings (size 3 to 8) (size 9 to 14) (size 15 to 20)
#    0.000    2.692    1.538    0.692    1.077    3.692 
#    0.000    0.000    0.000    0.000    0.000    0.000 
#    0.000    0.000    0.000    0.000    0.000    0.769 
#
# Total GULP energy -644396.917265 kJ/mol
# GULP energy per Si atom -12392.248409 kJ/mol
# Density = 1.346141 g / cm^3
# Si number density = 13.492120 Si / 1000 Ang^3
#
#
#
# Elastic Constant Matrix: (Units=GPa)
#
#
# Indices 1 2 3 4 5 6 
#
# 1 59.8171 29.4214 37.7033 0.0000 0.0000 0.0000
# 2 29.4214 66.8434 46.9310 0.0000 0.0000 0.0000
# 3 37.7033 46.9310 90.2885 -0.0001 0.0000 0.0000
# 4 0.0000 0.0000 -0.0001 20.5722 0.0000 0.0000
# 5 0.0000 0.0000 0.0000 0.0000 20.0658 0.0000
# 6 0.0000 0.0000 0.0000 0.0000 0.0000 10.8909
#
#
#
# Elastic Compliance Matrix: (Units=1/GPa)
#
#
# Indices 1 2 3 4 5 6 
#
# 1 0.023924 -0.005536 -0.007112 0.000000 0.000000 0.000000
# 2 -0.005536 0.024839 -0.010599 0.000000 0.000000 0.000000
# 3 -0.007112 -0.010599 0.019555 0.000000 0.000000 0.000000
# 4 0.000000 0.000000 0.000000 0.048609 0.000000 0.000000
# 5 0.000000 0.000000 0.000000 0.000000 0.049836 0.000000
# 6 0.000000 0.000000 0.000000 0.000000 0.000000 0.091820
#
#
# Mechanical properties :
#
#
# Convention : Reuss Voigt Hill
#
# Bulk Modulus (GPa) = 45.82593 49.45113 47.63853
# Shear Modulus (GPa) = 16.00754 17.16533 16.58643
#
# Velocity S-wave (km/s) = 3.44820 3.57073 3.51000
# Velocity P-wave (km/s) = 7.06344 7.33018 7.19805
#
# Compressibility (1/GPa) = 0.02182170
#
# Stress axis : x y z
#
# Youngs Moduli (GPa) = 41.79926 40.25952 51.13801
#
# Poissons Ratio (x) = 0.22290 0.36372
# Poissons Ratio (y) = 0.23142 0.54201
# Poissons Ratio (z) = 0.29730 0.42671
#
# Static dielectric constant tensor:
#      x y z
#    x 2.824220 0.000000 0.000000 
#    y 0.000000 2.522690 0.000000 
#    z 0.000000 0.000000 2.683040 
# 
# 
# High freq. dielectric constant tensor:
#      x y z
#    x 1.524530 0.000000 0.000000 
#    y 0.000000 1.476380 0.000000 
#    z 0.000000 0.000000 1.489180 
# 
# From -- ./inp_files/17433.got.cif
#   From: 2010.06.25/outbox.cif.g09.slc.cpg/sg71_9_cif.got.tgz:17433.got - 2010.06.28 04:59:45.
