data_PCOD8288835
_publ_section_title
;
Structure prediction by ZEFSAII (Michael W. Deem and Ramdas Pophale) SiO2 
 PCOD8288835
Probable space group: I M M M
;
_chemical_formula_sum "Si O2"
_cell_formula_units_Z 104
_cell_length_a 26.642999
_cell_length_b 17.422918
_cell_length_c 13.069401
_cell_angle_alpha 90.000000
_cell_angle_beta 90.000000
_cell_angle_gamma 90.000000
_cell_volume 6066.800089
_symmetry_space_group_name_H-M "I M M M"
_symmetry_group_IT_number 71
_symmetry_cell_setting 'orthorhombic'
loop_
_space_group_symop_operation_xyz
x,y,z
-x,-y,z
x,-y,-z
-x,y,-z
-x,-y,-z
x,y,-z
-x,y,z
x,-y,z
1/2+x,1/2+y,1/2+z
1/2-x,1/2-y,1/2+z
1/2+x,1/2-y,1/2-z
1/2-x,1/2+y,1/2-z
1/2-x,1/2-y,1/2-z
1/2+x,1/2+y,1/2-z
1/2-x,1/2+y,1/2+z
1/2+x,1/2-y,1/2+z
loop_
_atom_site_type_symbol
_atom_site_label
_atom_site_fract_x
_atom_site_fract_y
_atom_site_fract_z
Si Si1 0.700727 0.144679 0.115583
Si Si2 0.790663 0.087450 0.779423
Si Si3 0.103883 0.590702 0.291982
Si Si4 0.556077 0.908813 0.000000
Si Si5 0.850350 0.208602 0.117754
Si Si6 0.057920 0.688556 0.882313
Si Si7 0.246845 0.697230 0.884182
O O1 0.750819 0.093214 0.127618
O O2 0.661271 0.118405 0.201878
O O3 0.714632 0.233122 0.136470
O O4 0.680282 0.131931 0.000000
O O5 0.840808 0.134104 0.811194
O O6 0.763143 0.124659 0.681939
O O7 0.805626 0.000000 0.755696
O O8 0.100661 0.500000 0.286186
O O9 0.079992 0.624206 0.396253
O O10 0.074594 0.620342 0.192460
O O11 0.500000 0.878835 0.000000
O O12 0.560438 0.000000 0.000000
O O13 0.906528 0.238465 0.140717
O O14 0.809439 0.274757 0.143205
O O15 0.844544 0.183702 0.000000
O O16 0.000000 0.711427 0.862035
O O17 0.065372 0.661189 0.000000
O O18 0.249531 0.668957 0.000000
#
# Coordination Sequence:
#
# PCOD8288835 Si02
#       7
#    16  16  16   8  16  16  16
#     4  10  19  32  50  73 100 134 170 199 234 289
#     4  11  20  29  48  76 104 130 159 199 246 298
#     4  11  20  31  48  71 102 132 162 205 248 289
#     4   9  18  30  42  60  90 128 161 193 240 280
#     4   9  18  34  52  69  95 130 165 205 247 289
#     4  10  21  36  54  72  91 126 175 216 250 293
#     4   9  18  32  49  69 100 136 165 195 236 291
#
# _framework density 17.142479999999999
#
# number of rings (size 3 to 8) (size 9 to 14) (size 15 to 20)
#    0.000    2.077    0.769    6.000    0.000    3.385 
#    0.000    0.769    0.000    5.077    0.000    2.154 
#    0.000    0.000    0.000    5.231    0.000    0.000 
#
# Total GULP energy -644625.913121 kJ/mol
# GULP energy per Si atom -12396.652175 kJ/mol
# Density = 1.710346 g / cm^3
# Si number density = 17.142480 Si / 1000 Ang^3
#
#
#
# Elastic Constant Matrix: (Units=GPa)
#
#
# Indices 1 2 3 4 5 6 
#
# 1 103.4336 45.8830 49.6111 0.0000 0.0000 0.0000
# 2 45.8830 98.8871 49.2121 0.0000 0.0000 0.0000
# 3 49.6111 49.2121 86.8858 0.0000 0.0000 0.0000
# 4 0.0000 0.0000 0.0000 16.5147 0.0000 0.0000
# 5 0.0000 0.0000 0.0000 0.0000 26.8911 0.0000
# 6 0.0000 0.0000 0.0000 0.0000 0.0000 17.0172
#
#
#
# Elastic Compliance Matrix: (Units=1/GPa)
#
#
# Indices 1 2 3 4 5 6 
#
# 1 0.014154 -0.003544 -0.006074 0.000000 0.000000 0.000000
# 2 -0.003544 0.014969 -0.006455 0.000000 0.000000 0.000000
# 3 -0.006074 -0.006455 0.018634 0.000000 0.000000 0.000000
# 4 0.000000 0.000000 0.000000 0.060552 0.000000 0.000000
# 5 0.000000 0.000000 0.000000 0.000000 0.037187 0.000000
# 6 0.000000 0.000000 0.000000 0.000000 0.000000 0.058764
#
#
# Mechanical properties :
#
#
# Convention : Reuss Voigt Hill
#
# Bulk Modulus (GPa) = 64.06119 64.29097 64.17608
# Shear Modulus (GPa) = 20.69448 21.71795 21.20621
#
# Velocity S-wave (km/s) = 3.47825 3.56323 3.52100
# Velocity P-wave (km/s) = 7.31997 7.38337 7.35174
#
# Compressibility (1/GPa) = 0.01561008
#
# Stress axis : x y z
#
# Youngs Moduli (GPa) = 70.65274 66.80267 53.66632
#
# Poissons Ratio (x) = 0.23678 0.32597
# Poissons Ratio (y) = 0.25042 0.34641
# Poissons Ratio (z) = 0.42915 0.43120
#
# Static dielectric constant tensor:
#      x y z
#    x 3.229880 0.000000 0.000000 
#    y 0.000000 2.868620 0.000000 
#    z 0.000000 0.000000 3.388760 
# 
# 
# High freq. dielectric constant tensor:
#      x y z
#    x 1.651770 0.000000 0.000000 
#    y 0.000000 1.625640 0.000000 
#    z 0.000000 0.000000 1.677140 
# 
# From -- ./inp_files/40453.got.cif
#   From: 2010.06.25/outbox.cif.g09.slc.cpg/sg71_21_cif.got.tgz:40453.got - 2010.06.28 04:59:45.
