data_PCOD8288379
_publ_section_title
;
Structure prediction by ZEFSAII (Michael W. Deem and Ramdas Pophale) SiO2 
 PCOD8288379
Probable space group: I M M M
;
_chemical_formula_sum "Si O2"
_cell_formula_units_Z 104
_cell_length_a 22.830847
_cell_length_b 9.406780
_cell_length_c 27.933759
_cell_angle_alpha 90.000000
_cell_angle_beta 90.000000
_cell_angle_gamma 90.000000
_cell_volume 5999.186906
_symmetry_space_group_name_H-M "I M M M"
_symmetry_group_IT_number 71
_symmetry_cell_setting 'orthorhombic'
loop_
_space_group_symop_operation_xyz
x,y,z
-x,-y,z
x,-y,-z
-x,y,-z
-x,-y,-z
x,y,-z
-x,y,z
x,-y,z
1/2+x,1/2+y,1/2+z
1/2-x,1/2-y,1/2+z
1/2+x,1/2-y,1/2-z
1/2-x,1/2+y,1/2-z
1/2-x,1/2-y,1/2-z
1/2+x,1/2+y,1/2-z
1/2-x,1/2+y,1/2+z
1/2+x,1/2-y,1/2+z
loop_
_atom_site_type_symbol
_atom_site_label
_atom_site_fract_x
_atom_site_fract_y
_atom_site_fract_z
Si Si1 0.933845 0.837072 0.736988
Si Si2 0.243817 0.836373 0.701276
Si Si3 0.936367 0.832192 0.000000
Si Si4 0.374112 0.838048 0.684017
Si Si5 0.569887 0.659392 0.602259
Si Si6 0.566178 0.669257 0.946527
Si Si7 0.634041 0.337174 0.143563
O O1 0.889089 0.742706 0.767067
O O2 0.918746 0.820866 0.681247
O O3 0.000000 0.784244 0.745493
O O4 0.927057 0.000000 0.753660
O O5 0.250000 0.750000 0.750000
O O6 0.305113 0.827307 0.673335
O O7 0.193589 0.769798 0.666290
O O8 0.227764 0.000000 0.714367
O O9 0.904083 0.792330 0.049995
O O10 0.000000 0.757233 0.000000
O O11 0.945689 0.000000 0.000000
O O12 0.408459 0.771169 0.640313
O O13 0.394465 0.000000 0.689773
O O14 0.500000 0.661440 0.600250
O O15 0.591403 0.500000 0.615599
O O16 0.500000 0.725979 0.937472
O O17 0.565254 0.500000 0.942112
O O18 0.611097 0.733255 0.906395
O O19 0.587036 0.714917 0.000000
O O20 0.648849 0.500000 0.132782
#
# Coordination Sequence:
#
# PCOD8288379 Si02
#       7
#    16  16   8  16  16  16  16
#     4  10  19  30  47  70  93 121 158 195 233 280
#     4  10  20  34  50  66  89 125 167 200 231 274
#     4   7  12  26  49  73  91 111 149 197 232 267
#     4  11  22  32  44  66  97 128 158 193 237 288
#     4   9  17  31  52  74  94 120 156 196 238 283
#     4   8  13  22  40  69 100 123 146 186 243 296
#     4   9  16  28  46  65  90 123 159 196 231 275
#
# _framework density 17.335683
#
# number of rings (size 3 to 8) (size 9 to 14) (size 15 to 20)
#    0.000    2.692    1.538    2.769    0.000    4.923 
#    0.000    0.385    1.692    1.385    0.000    0.000 
#    0.000    1.846    0.000    8.462    0.000    7.692 
#
# Total GULP energy -644298.264507 kJ/mol
# GULP energy per Si atom -12390.351241 kJ/mol
# Density = 1.729623 g / cm^3
# Si number density = 17.335683 Si / 1000 Ang^3
#
#
#
# Elastic Constant Matrix: (Units=GPa)
#
#
# Indices 1 2 3 4 5 6 
#
# 1 85.7777 21.9794 46.8529 0.0000 0.0000 0.0000
# 2 21.9794 46.5802 31.3295 0.0000 0.0000 0.0000
# 3 46.8529 31.3295 134.0646 0.0000 0.0000 0.0000
# 4 0.0000 0.0000 0.0000 4.0391 0.0000 0.0000
# 5 0.0000 0.0000 0.0000 0.0000 21.8894 0.0000
# 6 0.0000 0.0000 0.0000 0.0000 0.0000 16.0154
#
#
#
# Elastic Compliance Matrix: (Units=1/GPa)
#
#
# Indices 1 2 3 4 5 6 
#
# 1 0.015082 -0.004238 -0.004281 0.000000 0.000000 0.000000
# 2 -0.004238 0.026663 -0.004750 0.000000 0.000000 0.000000
# 3 -0.004281 -0.004750 0.010065 0.000000 0.000000 0.000000
# 4 0.000000 0.000000 0.000000 0.247582 0.000000 0.000000
# 5 0.000000 0.000000 0.000000 0.000000 0.045684 0.000000
# 6 0.000000 0.000000 0.000000 0.000000 0.000000 0.062440
#
#
# Mechanical properties :
#
#
# Convention : Reuss Voigt Hill
#
# Bulk Modulus (GPa) = 39.56679 51.86067 45.71373
# Shear Modulus (GPa) = 11.30006 19.47282 15.38644
#
# Velocity S-wave (km/s) = 2.55588 3.35517 2.98242
# Velocity P-wave (km/s) = 5.61992 6.70746 6.18763
#
# Compressibility (1/GPa) = 0.02527372
#
# Stress axis : x y z
#
# Youngs Moduli (GPa) = 66.30436 37.50578 99.35365
#
# Poissons Ratio (x) = 0.15893 0.42529
# Poissons Ratio (y) = 0.28097 0.47191
# Poissons Ratio (z) = 0.28382 0.17815
#
# Static dielectric constant tensor:
#      x y z
#    x 3.300680 0.000000 0.000000 
#    y 0.000000 2.919160 0.000000 
#    z 0.000000 0.000000 3.538680 
# 
# 
# High freq. dielectric constant tensor:
#      x y z
#    x 1.657490 0.000000 0.000000 
#    y 0.000000 1.623170 0.000000 
#    z 0.000000 0.000000 1.677000 
# 
# From -- ./inp_files/66806.got.cif
#   From: 2010.06.25/outbox.cif.g09.slc.cpg/sg71_34_cif.got.tgz:66806.got - 2010.06.28 04:59:45.
