data_PCOD8288761
_publ_section_title
;
Structure prediction by ZEFSAII (Michael W. Deem and Ramdas Pophale) SiO2 
 PCOD8288761
Probable space group: I M M M
;
_chemical_formula_sum "Si O2"
_cell_formula_units_Z 72
_cell_length_a 24.941788
_cell_length_b 8.531920
_cell_length_c 16.989736
_cell_angle_alpha 90.000000
_cell_angle_beta 90.000000
_cell_angle_gamma 90.000000
_cell_volume 3615.438585
_symmetry_space_group_name_H-M "I M M M"
_symmetry_group_IT_number 71
_symmetry_cell_setting 'orthorhombic'
loop_
_space_group_symop_operation_xyz
x,y,z
-x,-y,z
x,-y,-z
-x,y,-z
-x,-y,-z
x,y,-z
-x,y,z
x,-y,z
1/2+x,1/2+y,1/2+z
1/2-x,1/2-y,1/2+z
1/2+x,1/2-y,1/2-z
1/2-x,1/2+y,1/2-z
1/2-x,1/2-y,1/2-z
1/2+x,1/2+y,1/2-z
1/2-x,1/2+y,1/2+z
1/2+x,1/2-y,1/2+z
loop_
_atom_site_type_symbol
_atom_site_label
_atom_site_fract_x
_atom_site_fract_y
_atom_site_fract_z
Si Si1 0.741306 0.814125 0.913748
Si Si2 0.059087 0.314133 0.586933
Si Si3 0.061550 0.315008 0.000000
Si Si4 0.650033 0.186878 0.201643
Si Si5 0.641413 0.684464 0.626113
O O1 0.704251 0.752752 0.842035
O O2 0.801795 0.750179 0.905712
O O3 0.741217 0.000000 0.908970
O O4 0.719307 0.761184 0.000000
O O5 0.071290 0.246467 0.500000
O O6 0.062852 0.500000 0.583351
O O7 0.101911 0.249760 0.647968
O O8 0.000000 0.261005 0.614754
O O9 0.092211 0.259541 0.921423
O O10 0.060521 0.500000 0.000000
O O11 0.000000 0.250782 0.000000
O O12 0.639829 0.272581 0.282914
O O13 0.650041 0.000000 0.213652
O O14 0.637286 0.500000 0.614127
#
# Coordination Sequence:
#
# PCOD8288761 Si02
#       5
#    16  16   8  16  16
#     4   9  17  32  55  81 111 150 194 237 282 332
#     4   8  14  26  46  74 106 139 179 228 276 319
#     4  11  25  45  67  87 107 139 190 245 292 344
#     4  10  19  31  53  83 113 148 192 237 280 328
#     4  11  22  38  58  81 115 150 183 230 288 349
#
# _framework density 19.914596
#
# number of rings (size 3 to 8) (size 9 to 14) (size 15 to 20)
#    0.000    2.333    1.111    3.000    0.000    4.444 
#    0.000    3.333    0.000    2.000    0.000    1.556 
#    0.000    0.000    0.000    0.000    0.000    0.000 
#
# Total GULP energy -446183.720617 kJ/mol
# GULP energy per Si atom -12393.992239 kJ/mol
# Density = 1.986927 g / cm^3
# Si number density = 19.914596 Si / 1000 Ang^3
#
#
#
# Elastic Constant Matrix: (Units=GPa)
#
#
# Indices 1 2 3 4 5 6 
#
# 1 161.7124 24.5876 83.1098 0.0000 0.0000 0.0000
# 2 24.5876 27.7716 14.6615 0.0000 0.0000 0.0000
# 3 83.1098 14.6615 151.7317 0.0000 0.0000 0.0000
# 4 0.0000 0.0000 0.0000 21.7446 0.0000 0.0000
# 5 0.0000 0.0000 0.0000 0.0000 27.2603 0.0000
# 6 0.0000 0.0000 0.0000 0.0000 0.0000 16.4398
#
#
#
# Elastic Compliance Matrix: (Units=1/GPa)
#
#
# Indices 1 2 3 4 5 6 
#
# 1 0.009453 -0.005939 -0.004604 0.000000 0.000000 0.000000
# 2 -0.005939 0.041674 -0.000774 0.000000 0.000000 0.000000
# 3 -0.004604 -0.000774 0.009187 0.000000 0.000000 0.000000
# 4 0.000000 0.000000 0.000000 0.045989 0.000000 0.000000
# 5 0.000000 0.000000 0.000000 0.000000 0.036683 0.000000
# 6 0.000000 0.000000 0.000000 0.000000 0.000000 0.060828
#
#
# Mechanical properties :
#
#
# Convention : Reuss Voigt Hill
#
# Bulk Modulus (GPa) = 26.53839 65.10374 45.82107
# Shear Modulus (GPa) = 20.91980 27.67936 24.29958
#
# Velocity S-wave (km/s) = 3.24462 3.73219 3.49691
# Velocity P-wave (km/s) = 5.23372 7.16483 6.27401
#
# Compressibility (1/GPa) = 0.03768126
#
# Stress axis : x y z
#
# Youngs Moduli (GPa) = 105.78815 23.99553 108.84789
#
# Poissons Ratio (x) = 0.14250 0.50112
# Poissons Ratio (y) = 0.62823 0.08426
# Poissons Ratio (z) = 0.48704 0.01858
#
# Static dielectric constant tensor:
#      x y z
#    x 4.090250 0.000000 0.000000 
#    y 0.000000 3.105770 0.000000 
#    z 0.000000 0.000000 3.823680 
# 
# 
# High freq. dielectric constant tensor:
#      x y z
#    x 1.788350 0.000000 0.000000 
#    y 0.000000 1.726820 0.000000 
#    z 0.000000 0.000000 1.790320 
# 
# From -- ./inp_files/39965.got.cif
#   From: 2010.06.25/outbox.cif.g09.slc.cpg/sg71_20_cif.got.tgz:39965.got - 2010.06.28 04:59:45.
