data_PCOD8288881
_publ_section_title
;
Structure prediction by ZEFSAII (Michael W. Deem and Ramdas Pophale) SiO2 
 PCOD8288881
Probable space group: I M M M
;
_chemical_formula_sum "Si O2"
_cell_formula_units_Z 120
_cell_length_a 12.633369
_cell_length_b 21.713874
_cell_length_c 25.020877
_cell_angle_alpha 90.000000
_cell_angle_beta 90.000000
_cell_angle_gamma 90.000000
_cell_volume 6863.711532
_symmetry_space_group_name_H-M "I M M M"
_symmetry_group_IT_number 71
_symmetry_cell_setting 'orthorhombic'
loop_
_space_group_symop_operation_xyz
x,y,z
-x,-y,z
x,-y,-z
-x,y,-z
-x,-y,-z
x,y,-z
-x,y,z
x,-y,z
1/2+x,1/2+y,1/2+z
1/2-x,1/2-y,1/2+z
1/2+x,1/2-y,1/2-z
1/2-x,1/2+y,1/2-z
1/2-x,1/2-y,1/2-z
1/2+x,1/2+y,1/2-z
1/2-x,1/2+y,1/2+z
1/2+x,1/2-y,1/2+z
loop_
_atom_site_type_symbol
_atom_site_label
_atom_site_fract_x
_atom_site_fract_y
_atom_site_fract_z
Si Si1 0.733895 0.746189 0.328394
Si Si2 0.121630 0.428148 0.560597
Si Si3 0.874577 0.068459 0.442106
Si Si4 0.274638 0.426684 0.255405
Si Si5 0.305588 0.377336 0.627988
Si Si6 0.124244 0.141935 0.657671
Si Si7 0.878962 0.673343 0.247879
Si Si8 0.500000 0.572715 0.561754
O O1 0.685409 0.697408 0.370294
O O2 0.824699 0.791155 0.349158
O O3 0.791528 0.702160 0.286229
O O4 0.636173 0.787737 0.306669
O O5 0.148138 0.407460 0.500000
O O6 0.145734 0.500000 0.566945
O O7 0.191132 0.391743 0.603170
O O8 0.000000 0.413589 0.574088
O O9 0.843591 0.097638 0.500000
O O10 0.826799 0.105907 0.392851
O O11 0.000000 0.065793 0.436370
O O12 0.827402 0.000000 0.438754
O O13 0.272072 0.500000 0.246910
O O14 0.317602 0.410808 0.314588
O O15 0.352098 0.394200 0.212506
O O16 0.156849 0.398438 0.244061
O O17 0.395911 0.400964 0.589147
O O18 0.000000 0.151660 0.653738
O O19 0.000000 0.677565 0.267214
O O20 0.500000 0.500000 0.567957
O O21 0.500000 0.592632 0.500000
#
# Coordination Sequence:
#
# PCOD8288881 Si02
#       8
#    16  16  16  16  16  16  16   8
#     4   9  20  33  48  75  98 133 180 214 250 313
#     4   9  18  34  55  75  98 133 174 215 264 320
#     4   8  14  26  45  69  96 130 170 204 247 309
#     4  10  21  33  48  80 110 132 173 219 267 321
#     4  11  22  35  53  77 105 139 175 224 272 318
#     4  10  19  32  51  74 107 144 172 211 260 313
#     4   9  18  34  52  67  98 142 175 208 257 316
#     4  11  24  40  58  78 104 142 184 230 280 326
#
# _framework density 17.483253000000001
#
# number of rings (size 3 to 8) (size 9 to 14) (size 15 to 20)
#    0.000    2.467    0.000    4.000    1.867    4.800 
#    0.000    1.333    0.000    1.600    0.000    0.000 
#    0.000    0.000    0.000   14.400    0.000    2.133 
#
# Total GULP energy -743499.699118 kJ/mol
# GULP energy per Si atom -12391.661652 kJ/mol
# Density = 1.744346 g / cm^3
# Si number density = 17.483253 Si / 1000 Ang^3
#
#
#
# Elastic Constant Matrix: (Units=GPa)
#
#
# Indices 1 2 3 4 5 6 
#
# 1 69.6482 28.3452 28.9649 0.0000 0.0000 0.0000
# 2 28.3452 113.4566 45.7939 0.0000 0.0000 0.0000
# 3 28.9649 45.7939 113.7338 0.0000 0.0000 0.0000
# 4 0.0000 0.0000 0.0000 18.1864 0.0000 0.0000
# 5 0.0000 0.0000 0.0000 0.0000 -45.1212 0.0000
# 6 0.0000 0.0000 0.0000 0.0000 0.0000 15.2134
#
#
#
# Elastic Compliance Matrix: (Units=1/GPa)
#
#
# Indices 1 2 3 4 5 6 
#
# 1 0.016851 -0.002959 -0.003100 0.000000 0.000000 0.000000
# 2 -0.002959 0.011044 -0.003693 0.000000 0.000000 0.000000
# 3 -0.003100 -0.003693 0.011069 0.000000 0.000000 0.000000
# 4 0.000000 0.000000 0.000000 0.054986 0.000000 0.000000
# 5 0.000000 0.000000 0.000000 0.000000 -0.022163 0.000000
# 6 0.000000 0.000000 0.000000 0.000000 0.000000 0.065732
#
#
# Mechanical properties :
#
#
# Convention : Reuss Voigt Hill
#
# Bulk Modulus (GPa) = 51.38782 55.89405 53.64094
# Shear Modulus (GPa) = 30.57912 10.57135 20.57524
#
# Velocity S-wave (km/s) = 4.18670 2.46164 3.43425
# Velocity P-wave (km/s) = 7.26827 6.33396 6.81714
#
# Compressibility (1/GPa) = 0.01945986
#
# Stress axis : x y z
#
# Youngs Moduli (GPa) = 59.34254 90.54873 90.34202
#
# Poissons Ratio (x) = 0.26790 0.28009
# Poissons Ratio (y) = 0.17557 0.33365
# Poissons Ratio (z) = 0.18398 0.33441
#
# Static dielectric constant tensor:
#      x y z
#    x 3.023330 0.000000 0.000000 
#    y 0.000000 3.547540 0.000000 
#    z 0.000000 0.000000 3.418830 
# 
# 
# High freq. dielectric constant tensor:
#      x y z
#    x 1.654280 0.000000 0.000000 
#    y 0.000000 1.678570 0.000000 
#    z 0.000000 0.000000 1.671890 
# 
# From -- ./inp_files/64875.got.cif
#   From: 2010.06.25/outbox.cif.g09.slc.cpg/sg71_33_cif.got.tgz:64875.got - 2010.06.28 04:59:45.
