data_PCOD8288759
_publ_section_title
;
Structure prediction by ZEFSAII (Michael W. Deem and Ramdas Pophale) SiO2 
 PCOD8288759
Probable space group: I M M M
;
_chemical_formula_sum "Si O2"
_cell_formula_units_Z 92
_cell_length_a 17.651169
_cell_length_b 23.799229
_cell_length_c 11.294484
_cell_angle_alpha 90.000000
_cell_angle_beta 90.000000
_cell_angle_gamma 90.000000
_cell_volume 4744.634424
_symmetry_space_group_name_H-M "I M M M"
_symmetry_group_IT_number 71
_symmetry_cell_setting 'orthorhombic'
loop_
_space_group_symop_operation_xyz
x,y,z
-x,-y,z
x,-y,-z
-x,y,-z
-x,-y,-z
x,y,-z
-x,y,z
x,-y,z
1/2+x,1/2+y,1/2+z
1/2-x,1/2-y,1/2+z
1/2+x,1/2-y,1/2-z
1/2-x,1/2+y,1/2-z
1/2-x,1/2-y,1/2-z
1/2+x,1/2+y,1/2-z
1/2-x,1/2+y,1/2+z
1/2+x,1/2-y,1/2+z
loop_
_atom_site_type_symbol
_atom_site_label
_atom_site_fract_x
_atom_site_fract_y
_atom_site_fract_z
Si Si1 0.414844 0.372659 0.000000
Si Si2 0.264522 0.500000 0.207666
Si Si3 0.681206 0.312293 0.799054
Si Si4 0.121228 0.000000 0.500000
Si Si5 0.843504 0.281939 0.130963
Si Si6 0.602655 0.000000 0.631010
Si Si7 0.237519 0.605377 0.365308
Si Si8 0.083591 0.383589 0.252736
O O1 0.372347 0.350152 0.882274
O O2 0.500000 0.348215 0.000000
O O3 0.423235 0.440639 0.000000
O O4 0.335163 0.500000 0.122629
O O5 0.192913 0.500000 0.121693
O O6 0.265518 0.553158 0.290945
O O7 0.752637 0.291045 0.874851
O O8 0.634814 0.260834 0.738196
O O9 0.714606 0.343184 0.684126
O O10 0.887574 0.340238 0.153000
O O11 0.867885 0.260349 0.000000
O O12 0.574001 0.945175 0.698235
O O13 0.568247 0.000000 0.500000
O O14 0.259434 0.595560 0.500000
O O15 0.146698 0.615364 0.356277
O O16 0.000000 0.365957 0.301268
#
# Coordination Sequence:
#
# PCOD8288759 Si02
#       8
#     8   8  16   4  16   8  16  16
#     4  12  25  42  66  96 130 159 194 253 324 381
#     4  10  19  32  60  91 115 146 195 247 298 351
#     4  10  21  38  61  89 118 154 203 254 298 363
#     4  12  21  40  68  94 121 154 192 264 315 382
#     4  10  20  36  61  85 119 161 210 253 299 352
#     4  10  19  31  53  81 114 155 200 246 298 351
#     4  10  20  36  59  86 116 153 200 245 296 354
#     4  10  22  35  51  83 121 160 201 246 301 359
#
# _framework density 19.390322999999999
#
# number of rings (size 3 to 8) (size 9 to 14) (size 15 to 20)
#    0.000    1.739    3.043    1.696    0.000    2.783 
#    1.565    0.000    0.000    4.696    0.000    1.217 
#    0.000    0.000    0.000    0.000    0.000    0.000 
#
# Total GULP energy -570069.222560 kJ/mol
# GULP energy per Si atom -12392.809186 kJ/mol
# Density = 1.934619 g / cm^3
# Si number density = 19.390323 Si / 1000 Ang^3
#
#
#
# Elastic Constant Matrix: (Units=GPa)
#
#
# Indices 1 2 3 4 5 6 
#
# 1 88.3887 28.2615 34.8850 0.0000 0.0000 0.0000
# 2 28.2615 107.4840 36.8669 0.0000 0.0000 0.0000
# 3 34.8850 36.8669 117.2237 0.0000 0.0000 0.0000
# 4 0.0000 0.0000 0.0000 -560.5180 0.0000 0.0000
# 5 0.0000 0.0000 0.0000 0.0000 3.0508 0.0000
# 6 0.0000 0.0000 0.0000 0.0000 0.0000 8.6081
#
#
#
# Elastic Compliance Matrix: (Units=1/GPa)
#
#
# Indices 1 2 3 4 5 6 
#
# 1 0.013353 -0.002408 -0.003217 0.000000 0.000000 0.000000
# 2 -0.002408 0.010863 -0.002700 0.000000 0.000000 0.000000
# 3 -0.003217 -0.002700 0.010337 0.000000 0.000000 0.000000
# 4 0.000000 0.000000 0.000000 -0.001784 0.000000 0.000000
# 5 0.000000 0.000000 0.000000 0.000000 0.327785 0.000000
# 6 0.000000 0.000000 0.000000 0.000000 0.000000 0.116170
#
#
# Mechanical properties :
#
#
# Convention : Reuss Voigt Hill
#
# Bulk Modulus (GPa) = 55.85145 57.01373 56.43259
# Shear Modulus (GPa) = 10.01321 -95.56629 -42.77654
#
# Velocity S-wave (km/s) = 2.27491 -7.02798 -4.70198
# Velocity P-wave (km/s) = 5.98052 6.03239 0.55817
#
# Compressibility (1/GPa) = 0.01790464
#
# Stress axis : x y z
#
# Youngs Moduli (GPa) = 74.88948 92.05703 96.73968
#
# Poissons Ratio (x) = 0.22165 0.31117
# Poissons Ratio (y) = 0.18031 0.26118
# Poissons Ratio (z) = 0.24088 0.24854
#
# Static dielectric constant tensor:
#      x y z
#    x 3.363170 0.000000 0.000000 
#    y 0.000000 3.445770 0.000000 
#    z 0.000000 0.000000 3.275280 
# 
# 
# High freq. dielectric constant tensor:
#      x y z
#    x 1.733510 0.000000 0.000000 
#    y 0.000000 1.767820 0.000000 
#    z 0.000000 0.000000 1.746840 
# 
# From -- ./inp_files/24324.got.cif
#   From: 2010.06.25/outbox.cif.g09.slc.cpg/sg71_13_cif.got.tgz:24324.got - 2010.06.28 04:59:45.
