data_PCOD8288604
_publ_section_title
;
Structure prediction by ZEFSAII (Michael W. Deem and Ramdas Pophale) SiO2 
 PCOD8288604
Probable space group: I M M M
;
_chemical_formula_sum "Si O2"
_cell_formula_units_Z 80
_cell_length_a 8.038656
_cell_length_b 28.887157
_cell_length_c 19.657337
_cell_angle_alpha 90.000000
_cell_angle_beta 90.000000
_cell_angle_gamma 90.000000
_cell_volume 4564.707241
_symmetry_space_group_name_H-M "I M M M"
_symmetry_group_IT_number 71
_symmetry_cell_setting 'orthorhombic'
loop_
_space_group_symop_operation_xyz
x,y,z
-x,-y,z
x,-y,-z
-x,y,-z
-x,-y,-z
x,y,-z
-x,y,z
x,-y,z
1/2+x,1/2+y,1/2+z
1/2-x,1/2-y,1/2+z
1/2+x,1/2-y,1/2-z
1/2-x,1/2+y,1/2-z
1/2-x,1/2-y,1/2-z
1/2+x,1/2+y,1/2-z
1/2-x,1/2+y,1/2+z
1/2+x,1/2-y,1/2+z
loop_
_atom_site_type_symbol
_atom_site_label
_atom_site_fract_x
_atom_site_fract_y
_atom_site_fract_z
Si Si1 0.194138 0.115216 0.079767
Si Si2 0.695490 0.551362 0.000000
Si Si3 0.000000 0.448433 0.419633
Si Si4 0.691726 0.698667 0.328502
Si Si5 0.187318 0.633170 0.924745
Si Si6 0.310031 0.295858 0.821629
O O1 0.326392 0.076001 0.103221
O O2 0.260827 0.161081 0.118522
O O3 0.000000 0.101623 0.097066
O O4 0.209663 0.125557 0.000000
O O5 0.754255 0.579496 0.067635
O O6 0.775271 0.500000 0.000000
O O7 0.500000 0.547682 0.000000
O O8 0.000000 0.500000 0.387729
O O9 0.000000 0.451318 0.500000
O O10 0.500000 0.687921 0.323415
O O11 0.770724 0.692964 0.252487
O O12 0.722456 0.750973 0.355115
O O13 0.299012 0.660256 0.871096
O O14 0.000000 0.634569 0.897504
O O15 0.202257 0.656534 0.000000
O O16 0.500000 0.282251 0.811126
#
# Coordination Sequence:
#
# PCOD8288604 Si02
#       6
#    16   8   8  16  16  16
#     4   9  18  33  52  75 103 134 168 208 255 302
#     4   9  17  31  53  77  99 125 163 211 259 306
#     4   9  18  32  52  78 104 128 165 211 253 309
#     4   9  19  33  48  71 102 136 170 205 249 301
#     4   9  19  32  48  71  99 128 162 208 251 297
#     4  10  19  31  49  72 100 134 173 208 246 300
#
# _framework density 17.525767999999999
#
# number of rings (size 3 to 8) (size 9 to 14) (size 15 to 20)
#    0.600    2.200    0.000    1.200    1.400    2.800 
#    0.000    4.000    0.000    1.200    0.000    2.800 
#    0.000    0.000    0.000    0.000    0.000    0.000 
#
# Total GULP energy -495524.591121 kJ/mol
# GULP energy per Si atom -12388.114778 kJ/mol
# Density = 1.748588 g / cm^3
# Si number density = 17.525768 Si / 1000 Ang^3
#
#
#
# Elastic Constant Matrix: (Units=GPa)
#
#
# Indices 1 2 3 4 5 6 
#
# 1 68.4985 36.1850 24.3025 0.0000 0.0000 0.0000
# 2 36.1850 146.9612 55.7773 0.0001 0.0000 0.0000
# 3 24.3025 55.7773 55.7960 0.0003 0.0000 0.0000
# 4 0.0000 0.0001 0.0003 7.3235 0.0000 0.0000
# 5 0.0000 0.0000 0.0000 0.0000 16.8924 0.0000
# 6 0.0000 0.0000 0.0000 0.0000 0.0000 28.1913
#
#
#
# Elastic Compliance Matrix: (Units=1/GPa)
#
#
# Indices 1 2 3 4 5 6 
#
# 1 0.017742 -0.002313 -0.005415 0.000000 0.000000 0.000000
# 2 -0.002313 0.011266 -0.010255 0.000000 0.000000 0.000000
# 3 -0.005415 -0.010255 0.030533 -0.000001 0.000000 0.000000
# 4 0.000000 0.000000 -0.000001 0.136547 0.000000 0.000000
# 5 0.000000 0.000000 0.000000 0.000000 0.059198 0.000000
# 6 0.000000 0.000000 0.000000 0.000000 0.000000 0.035472
#
#
# Mechanical properties :
#
#
# Convention : Reuss Voigt Hill
#
# Bulk Modulus (GPa) = 42.41951 55.97615 49.19783
# Shear Modulus (GPa) = 14.94395 20.81415 17.87905
#
# Velocity S-wave (km/s) = 2.92324 3.44994 3.19746
# Velocity P-wave (km/s) = 5.97080 6.91940 6.46253
#
# Compressibility (1/GPa) = 0.02357406
#
# Stress axis : x y z
#
# Youngs Moduli (GPa) = 56.36309 88.76126 32.75189
#
# Poissons Ratio (x) = 0.20532 0.17736
# Poissons Ratio (y) = 0.13038 0.33587
# Poissons Ratio (z) = 0.30523 0.91024
#
# Static dielectric constant tensor:
#      x y z
#    x 3.276350 0.000000 0.000000 
#    y 0.000000 3.346450 0.000000 
#    z 0.000000 0.000000 3.169880 
# 
# 
# High freq. dielectric constant tensor:
#      x y z
#    x 1.685560 0.000000 0.000000 
#    y 0.000000 1.664820 0.000000 
#    z 0.000000 0.000000 1.649110 
# 
# From -- ./inp_files/50742.got.cif
#   From: 2010.06.25/outbox.cif.g09.slc.cpg/sg71_26_cif.got.tgz:50742.got - 2010.06.28 04:59:45.
