data_PCOD8288425
_publ_section_title
;
Structure prediction by ZEFSAII (Michael W. Deem and Ramdas Pophale) SiO2 
 PCOD8288425
Probable space group: I M M M
;
_chemical_formula_sum "Si O2"
_cell_formula_units_Z 128
_cell_length_a 24.935054
_cell_length_b 13.363273
_cell_length_c 23.525892
_cell_angle_alpha 90.000000
_cell_angle_beta 90.000000
_cell_angle_gamma 90.000000
_cell_volume 7839.155021
_symmetry_space_group_name_H-M "I M M M"
_symmetry_group_IT_number 71
_symmetry_cell_setting 'orthorhombic'
loop_
_space_group_symop_operation_xyz
x,y,z
-x,-y,z
x,-y,-z
-x,y,-z
-x,-y,-z
x,y,-z
-x,y,z
x,-y,z
1/2+x,1/2+y,1/2+z
1/2-x,1/2-y,1/2+z
1/2+x,1/2-y,1/2-z
1/2-x,1/2+y,1/2-z
1/2-x,1/2-y,1/2-z
1/2+x,1/2+y,1/2-z
1/2-x,1/2+y,1/2+z
1/2+x,1/2-y,1/2+z
loop_
_atom_site_type_symbol
_atom_site_label
_atom_site_fract_x
_atom_site_fract_y
_atom_site_fract_z
Si Si1 0.164753 0.615236 0.436492
Si Si2 0.781926 0.888237 0.103964
Si Si3 0.357527 0.884339 0.281120
Si Si4 0.241700 0.719100 0.813378
Si Si5 0.061594 0.235688 0.831853
Si Si6 0.397751 0.386076 0.563691
Si Si7 0.357019 0.243625 0.166985
Si Si8 0.437984 0.614728 0.779129
O O1 0.146758 0.646312 0.500000
O O2 0.150287 0.500000 0.424520
O O3 0.228653 0.632532 0.432377
O O4 0.132688 0.682429 0.391008
O O5 0.786781 0.812506 0.156146
O O6 0.833473 0.874051 0.064251
O O7 0.780173 0.000000 0.130024
O O8 0.300330 0.873023 0.314111
O O9 0.403402 0.834022 0.319692
O O10 0.354739 0.834612 0.218915
O O11 0.371579 0.000000 0.273861
O O12 0.250000 0.750000 0.750000
O O13 0.300430 0.695848 0.839385
O O14 0.073860 0.189480 0.893248
O O15 0.074629 0.152104 0.784416
O O16 0.000000 0.269250 0.829392
O O17 0.417266 0.359832 0.500000
O O18 0.414084 0.500000 0.579333
O O19 0.404426 0.322931 0.174649
O O20 0.500000 0.629181 0.794711
O O21 0.420207 0.500000 0.782638
#
# Coordination Sequence:
#
# PCOD8288425 Si02
#       8
#    16  16  16  16  16  16  16  16
#     4   9  16  27  46  72 102 133 160 189 229 277
#     4   9  16  28  45  67  98 129 159 191 230 285
#     4  10  19  32  48  68  96 126 158 199 242 283
#     4   9  17  28  42  69  99 125 153 185 238 285
#     4  10  20  34  49  68  94 126 164 203 243 284
#     4  10  19  30  48  73  98 125 158 197 243 292
#     4   9  18  30  48  75 100 124 156 192 233 283
#     4   9  18  33  52  72  96 126 157 192 237 289
#
# _framework density 16.328289999999999
#
# number of rings (size 3 to 8) (size 9 to 14) (size 15 to 20)
#    0.000    2.625    1.250    1.125    0.000    6.250 
#    0.000    0.625    0.000    2.250    0.000    2.625 
#    0.000    0.000    0.000    0.000    0.000    0.000 
#
# Total GULP energy -793332.860642 kJ/mol
# GULP energy per Si atom -12395.825948 kJ/mol
# Density = 1.629113 g / cm^3
# Si number density = 16.328290 Si / 1000 Ang^3
#
#
#
# Elastic Constant Matrix: (Units=GPa)
#
#
# Indices 1 2 3 4 5 6 
#
# 1 73.6791 48.3102 32.2739 0.0000 0.0000 0.0000
# 2 48.3102 99.1906 45.0997 0.0000 0.0000 0.0000
# 3 32.2739 45.0997 94.7013 0.0000 0.0000 0.0000
# 4 0.0000 0.0000 0.0000 26.0684 0.0000 0.0000
# 5 0.0000 0.0000 0.0000 0.0000 18.2276 0.0000
# 6 0.0000 0.0000 0.0000 0.0000 0.0000 22.3874
#
#
#
# Elastic Compliance Matrix: (Units=1/GPa)
#
#
# Indices 1 2 3 4 5 6 
#
# 1 0.020526 -0.008701 -0.002852 0.000000 0.000000 0.000000
# 2 -0.008701 0.016556 -0.004919 0.000000 0.000000 0.000000
# 3 -0.002852 -0.004919 0.013874 0.000000 0.000000 0.000000
# 4 0.000000 0.000000 0.000000 0.038361 0.000000 0.000000
# 5 0.000000 0.000000 0.000000 0.000000 0.054862 0.000000
# 6 0.000000 0.000000 0.000000 0.000000 0.000000 0.044668
#
#
# Mechanical properties :
#
#
# Convention : Reuss Voigt Hill
#
# Bulk Modulus (GPa) = 55.51557 57.65985 56.58771
# Shear Modulus (GPa) = 21.94960 22.79584 22.37272
#
# Velocity S-wave (km/s) = 3.67040 3.74049 3.70561
# Velocity P-wave (km/s) = 7.21359 7.35150 7.28287
#
# Compressibility (1/GPa) = 0.01801296
#
# Stress axis : x y z
#
# Youngs Moduli (GPa) = 48.71767 60.40148 72.07666
#
# Poissons Ratio (x) = 0.52553 0.20555
# Poissons Ratio (y) = 0.42387 0.35457
# Poissons Ratio (z) = 0.13893 0.29713
#
# Static dielectric constant tensor:
#      x y z
#    x 3.221510 0.000000 0.000000 
#    y 0.000000 2.915510 0.000000 
#    z 0.000000 0.000000 2.900650 
# 
# 
# High freq. dielectric constant tensor:
#      x y z
#    x 1.626630 0.000000 0.000000 
#    y 0.000000 1.606360 0.000000 
#    z 0.000000 0.000000 1.613900 
# 
# From -- ./inp_files/28037.got.cif
#   From: 2010.06.25/outbox.cif.g09.slc.cpg/sg71_15_cif.got.tgz:28037.got - 2010.06.28 04:59:45.
