data_PCOD8288923
_publ_section_title
;
Structure prediction by ZEFSAII (Michael W. Deem and Ramdas Pophale) SiO2 
 PCOD8288923
Probable space group: I M M M
;
_chemical_formula_sum "Si O2"
_cell_formula_units_Z 104
_cell_length_a 17.232696
_cell_length_b 25.200401
_cell_length_c 13.613269
_cell_angle_alpha 90.000000
_cell_angle_beta 90.000000
_cell_angle_gamma 90.000000
_cell_volume 5911.845893
_symmetry_space_group_name_H-M "I M M M"
_symmetry_group_IT_number 71
_symmetry_cell_setting 'orthorhombic'
loop_
_space_group_symop_operation_xyz
x,y,z
-x,-y,z
x,-y,-z
-x,y,-z
-x,-y,-z
x,y,-z
-x,y,z
x,-y,z
1/2+x,1/2+y,1/2+z
1/2-x,1/2-y,1/2+z
1/2+x,1/2-y,1/2-z
1/2-x,1/2+y,1/2-z
1/2-x,1/2-y,1/2-z
1/2+x,1/2+y,1/2-z
1/2-x,1/2+y,1/2+z
1/2+x,1/2-y,1/2+z
loop_
_atom_site_type_symbol
_atom_site_label
_atom_site_fract_x
_atom_site_fract_y
_atom_site_fract_z
Si Si1 0.412951 0.407425 0.612436
Si Si2 0.852843 0.207192 0.888575
Si Si3 0.415553 0.000000 0.616133
Si Si4 0.817023 0.400336 0.113091
Si Si5 0.408127 0.189826 0.289315
Si Si6 0.234939 0.060701 0.212688
Si Si7 0.810196 0.344540 0.612514
O O1 0.392963 0.422088 0.500000
O O2 0.500000 0.424782 0.639504
O O3 0.404716 0.344658 0.627854
O O4 0.355148 0.439524 0.682616
O O5 0.884730 0.249949 0.811916
O O6 0.763029 0.193774 0.867033
O O7 0.862589 0.228207 0.000000
O O8 0.373051 0.947072 0.650146
O O9 0.500000 0.000000 0.665883
O O10 0.422459 0.000000 0.500000
O O11 0.861850 0.345649 0.131485
O O12 0.741458 0.408940 0.181608
O O13 0.791494 0.404459 0.000000
O O14 0.500000 0.181149 0.299941
O O15 0.381693 0.174631 0.179402
O O16 0.286339 0.094493 0.135376
O O17 0.264726 0.000000 0.216818
O O18 0.837343 0.341198 0.500000
#
# Coordination Sequence:
#
# PCOD8288923 Si02
#       7
#    16  16   8  16  16  16  16
#     4   9  18  32  51  77 106 131 157 199 256 301
#     4   9  17  32  53  74  99 130 161 196 242 296
#     4   9  16  28  46  64  88 121 152 192 244 285
#     4  10  20  33  48  71 100 130 163 201 246 295
#     4  11  21  31  50  78 102 128 165 206 246 291
#     4  10  19  32  52  75  97 128 171 207 242 293
#     4   9  20  36  51  70  99 134 168 202 244 293
#
# _framework density 17.591798000000001
#
# number of rings (size 3 to 8) (size 9 to 14) (size 15 to 20)
#    0.000    2.385    0.769    3.231    0.000    4.308 
#    0.000    0.769    0.000    0.462    0.000    3.231 
#    0.000    0.000    0.000    0.000    0.000    0.000 
#
# Total GULP energy -644699.380378 kJ/mol
# GULP energy per Si atom -12398.065007 kJ/mol
# Density = 1.755176 g / cm^3
# Si number density = 17.591798 Si / 1000 Ang^3
#
#
#
# Elastic Constant Matrix: (Units=GPa)
#
#
# Indices 1 2 3 4 5 6 
#
# 1 78.9388 24.3474 42.1604 0.0000 0.0000 0.0000
# 2 24.3474 72.8879 31.1981 0.0000 0.0000 0.0000
# 3 42.1604 31.1981 98.4890 0.0000 0.0000 0.0000
# 4 0.0000 0.0000 0.0000 21.8672 0.0000 0.0000
# 5 0.0000 0.0000 0.0000 0.0000 24.0907 0.0000
# 6 0.0000 0.0000 0.0000 0.0000 0.0000 17.2552
#
#
#
# Elastic Compliance Matrix: (Units=1/GPa)
#
#
# Indices 1 2 3 4 5 6 
#
# 1 0.016957 -0.002958 -0.006322 0.000000 0.000000 0.000000
# 2 -0.002958 0.016388 -0.003925 0.000000 0.000000 0.000000
# 3 -0.006322 -0.003925 0.014103 0.000000 0.000000 0.000000
# 4 0.000000 0.000000 0.000000 0.045731 0.000000 0.000000
# 5 0.000000 0.000000 0.000000 0.000000 0.041510 0.000000
# 6 0.000000 0.000000 0.000000 0.000000 0.000000 0.057954
#
#
# Mechanical properties :
#
#
# Convention : Reuss Voigt Hill
#
# Bulk Modulus (GPa) = 47.53324 49.52528 48.52926
# Shear Modulus (GPa) = 22.11768 22.81660 22.46714
#
# Velocity S-wave (km/s) = 3.54965 3.60530 3.57758
# Velocity P-wave (km/s) = 6.62411 6.74867 6.68668
#
# Compressibility (1/GPa) = 0.02103791
#
# Stress axis : x y z
#
# Youngs Moduli (GPa) = 58.97336 61.02098 70.90816
#
# Poissons Ratio (x) = 0.18052 0.44825
# Poissons Ratio (y) = 0.17447 0.27829
# Poissons Ratio (z) = 0.37281 0.23949
#
# Static dielectric constant tensor:
#      x y z
#    x 3.234270 0.000000 0.000000 
#    y 0.000000 3.240940 0.000000 
#    z 0.000000 0.000000 3.173140 
# 
# 
# High freq. dielectric constant tensor:
#      x y z
#    x 1.665690 0.000000 0.000000 
#    y 0.000000 1.686850 0.000000 
#    z 0.000000 0.000000 1.667130 
# 
# From -- ./inp_files/36916.got.cif
#   From: 2010.06.25/outbox.cif.g09.slc.cpg/sg71_19_cif.got.tgz:36916.got - 2010.06.28 04:59:45.
