data_PCOD8288492
_publ_section_title
;
Structure prediction by ZEFSAII (Michael W. Deem and Ramdas Pophale) SiO2 
 PCOD8288492
Probable space group: I M M M
;
_chemical_formula_sum "Si O2"
_cell_formula_units_Z 72
_cell_length_a 8.893004
_cell_length_b 19.182743
_cell_length_c 27.786783
_cell_angle_alpha 90.000000
_cell_angle_beta 90.000000
_cell_angle_gamma 90.000000
_cell_volume 4740.208727
_symmetry_space_group_name_H-M "I M M M"
_symmetry_group_IT_number 71
_symmetry_cell_setting 'orthorhombic'
loop_
_space_group_symop_operation_xyz
x,y,z
-x,-y,z
x,-y,-z
-x,y,-z
-x,-y,-z
x,y,-z
-x,y,z
x,-y,z
1/2+x,1/2+y,1/2+z
1/2-x,1/2-y,1/2+z
1/2+x,1/2-y,1/2-z
1/2-x,1/2+y,1/2-z
1/2-x,1/2-y,1/2-z
1/2+x,1/2+y,1/2-z
1/2-x,1/2+y,1/2+z
1/2+x,1/2-y,1/2+z
loop_
_atom_site_type_symbol
_atom_site_label
_atom_site_fract_x
_atom_site_fract_y
_atom_site_fract_z
Si Si1 0.825253 0.222974 0.175482
Si Si2 0.177429 0.000000 0.740062
Si Si3 0.321222 0.500000 0.346559
Si Si4 0.823231 0.578916 0.500000
Si Si5 0.324603 0.347908 0.224239
Si Si6 0.822431 0.370528 0.397665
O O1 0.772871 0.300663 0.188791
O O2 0.790726 0.170860 0.219963
O O3 0.735337 0.200170 0.127566
O O4 0.000000 0.224076 0.162931
O O5 0.225529 0.928139 0.713624
O O6 0.246880 0.000000 0.793129
O O7 0.000000 0.000000 0.745822
O O8 0.500000 0.500000 0.347312
O O9 0.261651 0.567376 0.372290
O O10 0.752052 0.500000 0.500000
O O11 0.774728 0.624628 0.546278
O O12 0.000000 0.568339 0.500000
O O13 0.500000 0.335444 0.213314
O O14 0.000000 0.377335 0.391022
#
# Coordination Sequence:
#
# PCOD8288492 Si02
#       6
#    16   8   8   8  16  16
#     4  10  19  31  45  64  91 119 150 190 228 264
#     4   9  16  29  46  64  89 119 151 188 224 261
#     4  11  19  30  44  65  92 120 151 191 232 265
#     4   9  18  32  46  64  90 117 152 195 228 260
#     4   9  17  30  46  64  88 120 152 183 225 270
#     4  11  20  32  48  64  86 121 159 192 227 270
#
# _framework density 15.189204
#
# number of rings (size 3 to 8) (size 9 to 14) (size 15 to 20)
#    0.000    2.111    3.333    1.667    0.000    0.889 
#    0.000    3.333    0.000    0.000    0.000    0.000 
#    0.000    0.889    0.000   10.222    0.000    4.000 
#
# Total GULP energy -446220.227878 kJ/mol
# GULP energy per Si atom -12395.006330 kJ/mol
# Density = 1.515463 g / cm^3
# Si number density = 15.189204 Si / 1000 Ang^3
#
#
#
# Elastic Constant Matrix: (Units=GPa)
#
#
# Indices 1 2 3 4 5 6 
#
# 1 54.5339 28.2848 31.1746 0.0000 0.0000 0.0000
# 2 28.2848 106.8088 43.8098 0.0000 0.0000 0.0000
# 3 31.1746 43.8098 86.3401 0.0000 0.0000 0.0000
# 4 0.0000 0.0000 0.0000 32.2470 0.0000 0.0000
# 5 0.0000 0.0000 0.0000 0.0000 18.3144 0.0000
# 6 0.0000 0.0000 0.0000 0.0000 0.0000 27.4443
#
#
#
# Elastic Compliance Matrix: (Units=1/GPa)
#
#
# Indices 1 2 3 4 5 6 
#
# 1 0.024131 -0.003557 -0.006908 0.000000 0.000000 0.000000
# 2 -0.003557 0.012347 -0.004981 0.000000 0.000000 0.000000
# 3 -0.006908 -0.004981 0.016604 0.000000 0.000000 0.000000
# 4 0.000000 0.000000 0.000000 0.031011 0.000000 0.000000
# 5 0.000000 0.000000 0.000000 0.000000 0.054602 0.000000
# 6 0.000000 0.000000 0.000000 0.000000 0.000000 0.036437
#
#
# Mechanical properties :
#
#
# Convention : Reuss Voigt Hill
#
# Bulk Modulus (GPa) = 45.06443 50.46903 47.76673
# Shear Modulus (GPa) = 23.42783 25.22869 24.32826
#
# Velocity S-wave (km/s) = 3.93160 4.07991 4.00644
# Velocity P-wave (km/s) = 7.09529 7.44938 7.27449
#
# Compressibility (1/GPa) = 0.02219045
#
# Stress axis : x y z
#
# Youngs Moduli (GPa) = 41.44023 80.98817 60.22700
#
# Poissons Ratio (x) = 0.28806 0.41606
# Poissons Ratio (y) = 0.14739 0.29999
# Poissons Ratio (z) = 0.28628 0.40340
#
# Static dielectric constant tensor:
#      x y z
#    x 2.841470 0.000000 0.000000 
#    y 0.000000 2.755260 0.000000 
#    z 0.000000 0.000000 2.913780 
# 
# 
# High freq. dielectric constant tensor:
#      x y z
#    x 1.578130 0.000000 0.000000 
#    y 0.000000 1.574230 0.000000 
#    z 0.000000 0.000000 1.551170 
# 
# From -- ./inp_files/8216.got.cif
#   From: 2010.06.25/outbox.cif.g09.slc.cpg/sg71_5_cif.got.tgz:8216.got - 2010.06.28 04:59:45.
