data_PCOD8288538
_publ_section_title
;
Structure prediction by ZEFSAII (Michael W. Deem and Ramdas Pophale) SiO2 
 PCOD8288538
Probable space group: I M M M
;
_chemical_formula_sum "Si O2"
_cell_formula_units_Z 88
_cell_length_a 7.703309
_cell_length_b 17.991956
_cell_length_c 35.919792
_cell_angle_alpha 90.000000
_cell_angle_beta 90.000000
_cell_angle_gamma 90.000000
_cell_volume 4978.396841
_symmetry_space_group_name_H-M "I M M M"
_symmetry_group_IT_number 71
_symmetry_cell_setting 'orthorhombic'
loop_
_space_group_symop_operation_xyz
x,y,z
-x,-y,z
x,-y,-z
-x,y,-z
-x,-y,-z
x,y,-z
-x,y,z
x,-y,z
1/2+x,1/2+y,1/2+z
1/2-x,1/2-y,1/2+z
1/2+x,1/2-y,1/2-z
1/2-x,1/2+y,1/2-z
1/2-x,1/2-y,1/2-z
1/2+x,1/2+y,1/2-z
1/2-x,1/2+y,1/2+z
1/2+x,1/2-y,1/2+z
loop_
_atom_site_type_symbol
_atom_site_label
_atom_site_fract_x
_atom_site_fract_y
_atom_site_fract_z
Si Si1 0.307954 0.635042 0.202746
Si Si2 0.202341 0.415329 0.281450
Si Si3 0.500000 0.081399 0.345267
Si Si4 0.300876 0.214221 0.835192
Si Si5 0.000000 0.731022 0.885452
Si Si6 0.500000 0.312348 0.543823
Si Si7 0.191533 0.417857 0.544055
O O1 0.500000 0.614374 0.187852
O O2 0.303275 0.617200 0.246277
O O3 0.169488 0.586527 0.180461
O O4 0.272077 0.722595 0.196278
O O5 0.260016 0.500000 0.289850
O O6 0.247885 0.365255 0.317287
O O7 0.000000 0.410368 0.272118
O O8 0.500000 0.143185 0.377426
O O9 0.500000 0.000000 0.364188
O O10 0.500000 0.214230 0.849719
O O11 0.172212 0.229855 0.869312
O O12 0.000000 0.739055 0.930413
O O13 0.500000 0.291287 0.500000
O O14 0.333041 0.358937 0.556875
O O15 0.194393 0.422776 0.500000
O O16 0.235371 0.500000 0.560117
O O17 0.000000 0.392854 0.557989
#
# Coordination Sequence:
#
# PCOD8288538 Si02
#       7
#    16  16   8  16   8   8  16
#     4  10  19  31  51  74  96 125 166 210 250 285
#     4  10  19  31  47  69  99 133 169 207 243 279
#     4  10  20  36  53  74 102 124 158 210 254 293
#     4   9  20  36  50  67  96 133 167 203 243 293
#     4  10  22  37  54  73  95 132 166 193 250 314
#     4  10  19  32  52  77 102 127 163 212 253 296
#     4   8  14  26  46  73 102 129 158 196 242 283
#
# _framework density 17.676373999999999
#
# number of rings (size 3 to 8) (size 9 to 14) (size 15 to 20)
#    0.000    2.545    0.909    1.909    1.273    3.273 
#    0.000    1.818    0.000    2.455    0.000    0.000 
#    0.000    0.000    0.000   13.636    0.000    0.000 
#
# Total GULP energy -545424.936027 kJ/mol
# GULP energy per Si atom -12396.021273 kJ/mol
# Density = 1.763614 g / cm^3
# Si number density = 17.676374 Si / 1000 Ang^3
#
#
#
# Elastic Constant Matrix: (Units=GPa)
#
#
# Indices 1 2 3 4 5 6 
#
# 1 102.1688 41.5449 35.6734 0.0000 0.0000 0.0000
# 2 41.5449 109.8448 51.0185 0.0000 0.0000 0.0000
# 3 35.6734 51.0185 72.5512 0.0000 0.0000 0.0000
# 4 0.0000 0.0000 0.0000 19.1030 0.0000 0.0000
# 5 0.0000 0.0000 0.0000 0.0000 11.1800 0.0000
# 6 0.0000 0.0000 0.0000 0.0000 0.0000 12.6757
#
#
#
# Elastic Compliance Matrix: (Units=1/GPa)
#
#
# Indices 1 2 3 4 5 6 
#
# 1 0.012351 -0.002748 -0.004140 0.000000 0.000000 0.000000
# 2 -0.002748 0.014131 -0.008586 0.000000 0.000000 0.000000
# 3 -0.004140 -0.008586 0.021857 0.000000 0.000000 0.000000
# 4 0.000000 0.000000 0.000000 0.052348 0.000000 0.000000
# 5 0.000000 0.000000 0.000000 0.000000 0.089445 0.000000
# 6 0.000000 0.000000 0.000000 0.000000 0.000000 0.078891
#
#
# Mechanical properties :
#
#
# Convention : Reuss Voigt Hill
#
# Bulk Modulus (GPa) = 57.50436 60.11538 58.80987
# Shear Modulus (GPa) = 16.35229 19.01361 17.68295
#
# Velocity S-wave (km/s) = 3.04483 3.28327 3.16630
# Velocity P-wave (km/s) = 6.70550 6.96102 6.83446
#
# Compressibility (1/GPa) = 0.01738998
#
# Stress axis : x y z
#
# Youngs Moduli (GPa) = 80.96579 70.76721 45.75280
#
# Poissons Ratio (x) = 0.19449 0.18943
# Poissons Ratio (y) = 0.22252 0.39281
# Poissons Ratio (z) = 0.33522 0.60758
#
# Static dielectric constant tensor:
#      x y z
#    x 3.629400 0.000000 0.000000 
#    y 0.000000 3.332930 0.000000 
#    z 0.000000 0.000000 2.764870 
# 
# 
# High freq. dielectric constant tensor:
#      x y z
#    x 1.702260 0.000000 0.000000 
#    y 0.000000 1.674920 0.000000 
#    z 0.000000 0.000000 1.633460 
# 
# From -- ./inp_files/8886.got.cif
#   From: 2010.06.25/outbox.cif.g09.slc.cpg/sg71_5_cif.got.tgz:8886.got - 2010.06.28 04:59:45.
