data_PCOD8288095
_publ_section_title
;
Structure prediction by ZEFSAII (Michael W. Deem and Ramdas Pophale) SiO2 
 PCOD8288095
Probable space group: I M M M
;
_chemical_formula_sum "Si O2"
_cell_formula_units_Z 96
_cell_length_a 33.273957
_cell_length_b 23.248917
_cell_length_c 7.801062
_cell_angle_alpha 90.000000
_cell_angle_beta 90.000000
_cell_angle_gamma 90.000000
_cell_volume 6034.772569
_symmetry_space_group_name_H-M "I M M M"
_symmetry_group_IT_number 71
_symmetry_cell_setting 'orthorhombic'
loop_
_space_group_symop_operation_xyz
x,y,z
-x,-y,z
x,-y,-z
-x,y,-z
-x,-y,-z
x,y,-z
-x,y,z
x,-y,z
1/2+x,1/2+y,1/2+z
1/2-x,1/2-y,1/2+z
1/2+x,1/2-y,1/2-z
1/2-x,1/2+y,1/2-z
1/2-x,1/2-y,1/2-z
1/2+x,1/2+y,1/2-z
1/2-x,1/2+y,1/2+z
1/2+x,1/2-y,1/2+z
loop_
_atom_site_type_symbol
_atom_site_label
_atom_site_fract_x
_atom_site_fract_y
_atom_site_fract_z
Si Si1 0.601175 0.759983 0.695679
Si Si2 0.045007 0.260613 0.500000
Si Si3 0.311004 0.227001 0.299057
Si Si4 0.765106 0.836381 0.299778
Si Si5 0.044984 0.876165 0.500000
Si Si6 0.182520 0.063517 0.799731
Si Si7 0.601440 0.623521 0.695688
O O1 0.590651 0.779230 0.500000
O O2 0.643661 0.786171 0.763518
O O3 0.605841 0.691671 0.702462
O O4 0.567178 0.782374 0.826771
O O5 0.043800 0.192334 0.500000
O O6 0.000000 0.286320 0.500000
O O7 0.311452 0.220429 0.500000
O O8 0.278007 0.183053 0.217304
O O9 0.299732 0.292525 0.256250
O O10 0.760120 0.834111 0.500000
O O11 0.777467 0.900284 0.243757
O O12 0.066822 0.897708 0.673793
O O13 0.000000 0.901686 0.500000
O O14 0.142565 0.095456 0.733441
O O15 0.186087 0.000000 0.715246
O O16 0.179088 0.056967 0.000000
O O17 0.591242 0.603887 0.500000
#
# Coordination Sequence:
#
# PCOD8288095 Si02
#       7
#    16   8  16  16   8  16  16
#     4   9  16  27  44  60  84 114 140 178 219 260
#     4   9  18  28  40  63  88 111 145 178 213 269
#     4   9  17  29  42  63  90 114 140 174 221 265
#     4  10  19  27  43  66  87 110 141 182 220 259
#     4   9  18  30  45  64  83 104 134 181 232 276
#     4  10  20  33  46  60  83 114 146 180 222 266
#     4   9  17  29  45  62  81 106 140 179 219 270
#
# _framework density 15.907806000000001
#
# number of rings (size 3 to 8) (size 9 to 14) (size 15 to 20)
#    0.000    2.667    1.667    0.500    2.333    1.667 
#    0.000    3.333    0.000    1.000    0.000    2.333 
#    0.000    0.000    0.000    0.000    0.000    1.667 
#
# Total GULP energy -594796.059184 kJ/mol
# GULP energy per Si atom -12391.584566 kJ/mol
# Density = 1.587160 g / cm^3
# Si number density = 15.907806 Si / 1000 Ang^3
#
#
#
# Elastic Constant Matrix: (Units=GPa)
#
#
# Indices 1 2 3 4 5 6 
#
# 1 136.9985 30.9084 52.2163 0.0000 0.0000 0.0000
# 2 30.9084 36.2572 13.9288 0.0000 0.0000 0.0000
# 3 52.2163 13.9288 68.3398 0.0000 0.0000 0.0000
# 4 0.0000 0.0000 0.0000 10.2228 0.0000 0.0000
# 5 0.0000 0.0000 0.0000 0.0000 25.3659 0.0000
# 6 0.0000 0.0000 0.0000 0.0000 0.0000 12.6346
#
#
#
# Elastic Compliance Matrix: (Units=1/GPa)
#
#
# Indices 1 2 3 4 5 6 
#
# 1 0.011791 -0.007150 -0.007552 0.000000 0.000000 0.000000
# 2 -0.007150 0.034260 -0.001519 0.000000 0.000000 0.000000
# 3 -0.007552 -0.001519 0.020712 0.000000 0.000000 0.000000
# 4 0.000000 0.000000 0.000000 0.097820 0.000000 0.000000
# 5 0.000000 0.000000 0.000000 0.000000 0.039423 0.000000
# 6 0.000000 0.000000 0.000000 0.000000 0.000000 0.079148
#
#
# Mechanical properties :
#
#
# Convention : Reuss Voigt Hill
#
# Bulk Modulus (GPa) = 29.13722 48.41139 38.77431
# Shear Modulus (GPa) = 15.28880 19.28081 17.28481
#
# Velocity S-wave (km/s) = 3.10350 3.48521 3.29988
# Velocity P-wave (km/s) = 5.58555 6.83331 6.24069
#
# Compressibility (1/GPa) = 0.03432036
#
# Stress axis : x y z
#
# Youngs Moduli (GPa) = 84.81201 29.18868 48.28027
#
# Poissons Ratio (x) = 0.20871 0.36459
# Poissons Ratio (y) = 0.60643 0.07336
# Poissons Ratio (z) = 0.64047 0.04435
#
# Static dielectric constant tensor:
#      x y z
#    x 3.540950 0.000000 0.000000 
#    y 0.000000 3.008010 0.000000 
#    z 0.000000 0.000000 3.141840 
# 
# 
# High freq. dielectric constant tensor:
#      x y z
#    x 1.608770 0.000000 0.000000 
#    y 0.000000 1.543870 0.000000 
#    z 0.000000 0.000000 1.620470 
# 
# From -- ./inp_files/15199.got.cif
#   From: 2010.06.25/outbox.cif.g09.slc.cpg/sg71_8_cif.got.tgz:15199.got - 2010.06.28 04:59:45.
