data_PCOD8288044
_publ_section_title
;
Structure prediction by ZEFSAII (Michael W. Deem and Ramdas Pophale) SiO2 
 PCOD8288044
Probable space group: I M M M
;
_chemical_formula_sum "Si O2"
_cell_formula_units_Z 96
_cell_length_a 8.771844
_cell_length_b 23.640144
_cell_length_c 25.412708
_cell_angle_alpha 90.000000
_cell_angle_beta 90.000000
_cell_angle_gamma 90.000000
_cell_volume 5269.773673
_symmetry_space_group_name_H-M "I M M M"
_symmetry_group_IT_number 71
_symmetry_cell_setting 'orthorhombic'
loop_
_space_group_symop_operation_xyz
x,y,z
-x,-y,z
x,-y,-z
-x,y,-z
-x,-y,-z
x,y,-z
-x,y,z
x,-y,z
1/2+x,1/2+y,1/2+z
1/2-x,1/2-y,1/2+z
1/2+x,1/2-y,1/2-z
1/2-x,1/2+y,1/2-z
1/2-x,1/2-y,1/2-z
1/2+x,1/2+y,1/2-z
1/2-x,1/2+y,1/2+z
1/2+x,1/2-y,1/2+z
loop_
_atom_site_type_symbol
_atom_site_label
_atom_site_fract_x
_atom_site_fract_y
_atom_site_fract_z
Si Si1 0.321111 0.887979 0.349107
Si Si2 0.180755 0.500000 0.308901
Si Si3 0.320323 0.811165 0.747391
Si Si4 0.318843 0.880483 0.846784
Si Si5 0.181512 0.692761 0.558038
Si Si6 0.320199 0.500000 0.193274
Si Si7 0.175858 0.179556 0.438863
O O1 0.500000 0.900396 0.345680
O O2 0.269263 0.842112 0.305841
O O3 0.278433 0.863847 0.406159
O O4 0.232444 0.945783 0.339476
O O5 0.235500 0.554549 0.342111
O O6 0.250014 0.500000 0.251163
O O7 0.000000 0.500000 0.300803
O O8 0.500000 0.805368 0.750906
O O9 0.250000 0.750000 0.750000
O O10 0.256010 0.847120 0.796297
O O11 0.500000 0.877416 0.848276
O O12 0.251179 0.851679 0.899621
O O13 0.243926 0.676315 0.500000
O O14 0.232432 0.756422 0.572805
O O15 0.000000 0.691092 0.557174
O O16 0.500000 0.500000 0.198538
O O17 0.198028 0.165039 0.500000
O O18 0.000000 0.172586 0.422214
#
# Coordination Sequence:
#
# PCOD8288044 Si02
#       7
#    16   8  16  16  16   8  16
#     4  11  22  37  56  79 108 141 177 221 271 323
#     4  10  18  34  53  71 103 144 180 217 268 322
#     4  10  20  32  49  74 104 138 173 216 270 323
#     4   9  16  28  47  69 100 141 177 213 261 313
#     4   8  14  26  47  76 108 141 177 217 263 311
#     4  12  24  38  57  78 103 141 182 224 266 319
#     4   9  18  34  56  80 108 142 178 220 268 318
#
# _framework density 18.217102000000001
#
# number of rings (size 3 to 8) (size 9 to 14) (size 15 to 20)
#    0.000    2.333    1.667    3.250    0.000    3.000 
#    0.000    0.833    0.000    5.000    0.000    0.000 
#    0.000    0.667    0.000    0.000    0.000    0.000 
#
# Total GULP energy -595164.390240 kJ/mol
# GULP energy per Si atom -12399.258130 kJ/mol
# Density = 1.817564 g / cm^3
# Si number density = 18.217102 Si / 1000 Ang^3
#
#
#
# Elastic Constant Matrix: (Units=GPa)
#
#
# Indices 1 2 3 4 5 6 
#
# 1 31.8292 31.1559 22.9034 0.0000 0.0000 0.0000
# 2 31.1559 151.2906 69.3634 0.0000 0.0000 0.0000
# 3 22.9034 69.3634 116.7640 0.0000 0.0000 0.0000
# 4 0.0000 0.0000 0.0000 30.5983 0.0000 0.0000
# 5 0.0000 0.0000 0.0000 0.0000 21.2794 0.0000
# 6 0.0000 0.0000 0.0000 0.0000 0.0000 23.5544
#
#
#
# Elastic Compliance Matrix: (Units=1/GPa)
#
#
# Indices 1 2 3 4 5 6 
#
# 1 0.040752 -0.006497 -0.004134 0.000000 0.000000 0.000000
# 2 -0.006497 0.010120 -0.004737 0.000000 0.000000 0.000000
# 3 -0.004134 -0.004737 0.012189 0.000000 0.000000 0.000000
# 4 0.000000 0.000000 0.000000 0.032682 0.000000 0.000000
# 5 0.000000 0.000000 0.000000 0.000000 0.046994 0.000000
# 6 0.000000 0.000000 0.000000 0.000000 0.000000 0.042455
#
#
# Mechanical properties :
#
#
# Convention : Reuss Voigt Hill
#
# Bulk Modulus (GPa) = 30.93619 60.74769 45.84194
# Shear Modulus (GPa) = 22.05537 26.85049 24.45293
#
# Velocity S-wave (km/s) = 3.48328 3.84333 3.66772
# Velocity P-wave (km/s) = 5.76164 7.28792 6.56926
#
# Compressibility (1/GPa) = 0.03232460
#
# Stress axis : x y z
#
# Youngs Moduli (GPa) = 24.53874 98.81821 82.03919
#
# Poissons Ratio (x) = 0.64200 0.33916
# Poissons Ratio (y) = 0.15942 0.38863
# Poissons Ratio (z) = 0.10145 0.46812
#
# Static dielectric constant tensor:
#      x y z
#    x 2.989210 0.000000 0.000000 
#    y 0.000000 3.551700 0.000000 
#    z 0.000000 0.000000 4.304530 
# 
# 
# High freq. dielectric constant tensor:
#      x y z
#    x 1.669180 0.000000 0.000000 
#    y 0.000000 1.711480 0.000000 
#    z 0.000000 0.000000 1.710340 
# 
# From -- ./inp_files/57753.got.cif
#   From: 2010.06.25/outbox.cif.g09.slc.cpg/sg71_29_cif.got.tgz:57753.got - 2010.06.28 04:59:45.
