data_PCOD8288235
_publ_section_title
;
Structure prediction by ZEFSAII (Michael W. Deem and Ramdas Pophale) SiO2 
 PCOD8288235
Probable space group: I M M M
;
_chemical_formula_sum "Si O2"
_cell_formula_units_Z 104
_cell_length_a 32.246693
_cell_length_b 20.203827
_cell_length_c 9.337464
_cell_angle_alpha 90.000000
_cell_angle_beta 90.000000
_cell_angle_gamma 90.000000
_cell_volume 6083.419486
_symmetry_space_group_name_H-M "I M M M"
_symmetry_group_IT_number 71
_symmetry_cell_setting 'orthorhombic'
loop_
_space_group_symop_operation_xyz
x,y,z
-x,-y,z
x,-y,-z
-x,y,-z
-x,-y,-z
x,y,-z
-x,y,z
x,-y,z
1/2+x,1/2+y,1/2+z
1/2-x,1/2-y,1/2+z
1/2+x,1/2-y,1/2-z
1/2-x,1/2+y,1/2-z
1/2-x,1/2-y,1/2-z
1/2+x,1/2+y,1/2-z
1/2-x,1/2+y,1/2+z
1/2+x,1/2-y,1/2+z
loop_
_atom_site_type_symbol
_atom_site_label
_atom_site_fract_x
_atom_site_fract_y
_atom_site_fract_z
Si Si1 0.872087 0.310717 0.328643
Si Si2 0.154283 0.180942 0.834026
Si Si3 0.312473 0.926898 0.169738
Si Si4 0.453648 0.205068 0.335243
Si Si5 0.780437 0.925910 0.829779
Si Si6 0.436653 0.356272 0.658284
Si Si7 0.500000 0.423459 0.846270
O O1 0.874005 0.303464 0.500000
O O2 0.849785 0.246432 0.262261
O O3 0.844995 0.372877 0.275317
O O4 0.918387 0.324682 0.268452
O O5 0.189897 0.132585 0.771094
O O6 0.112390 0.139001 0.820881
O O7 0.162019 0.201729 0.000000
O O8 0.266086 0.909886 0.224595
O O9 0.325642 0.000000 0.225575
O O10 0.311752 0.927046 0.000000
O O11 0.442713 0.187426 0.500000
O O12 0.500000 0.178446 0.295731
O O13 0.453750 0.283272 0.313385
O O14 0.793466 0.000000 0.776254
O O15 0.782934 0.925079 0.000000
O O16 0.449229 0.379251 0.500000
O O17 0.457870 0.405523 0.766871
O O18 0.500000 0.500000 0.869982
O O19 0.500000 0.387112 0.000000
#
# Coordination Sequence:
#
# PCOD8288235 Si02
#       7
#    16  16  16  16  16  16   8
#     4  10  19  29  46  75 102 125 157 193 238 292
#     4   9  18  31  48  71  97 122 155 202 246 279
#     4   8  15  29  48  70  98 129 160 197 236 276
#     4   9  17  32  52  70  91 119 152 192 236 278
#     4   8  14  27  48  70  91 124 170 207 234 272
#     4   9  17  31  47  63  84 114 152 193 234 273
#     4  11  23  33  41  59  87 119 154 191 234 281
#
# _framework density 17.095649000000002
#
# number of rings (size 3 to 8) (size 9 to 14) (size 15 to 20)
#    0.000    3.000    0.769    2.538    0.000    4.615 
#    0.000    1.538    0.000    3.692    0.000    7.538 
#    0.000    0.000    0.000    0.000    0.000    0.000 
#
# Total GULP energy -644393.874243 kJ/mol
# GULP energy per Si atom -12392.189889 kJ/mol
# Density = 1.705674 g / cm^3
# Si number density = 17.095649 Si / 1000 Ang^3
#
#
#
# Elastic Constant Matrix: (Units=GPa)
#
#
# Indices 1 2 3 4 5 6 
#
# 1 130.9340 72.9826 42.9606 0.0000 0.0000 0.0000
# 2 72.9826 88.1291 39.1437 0.0000 0.0000 0.0000
# 3 42.9606 39.1437 64.2884 0.0000 0.0000 0.0000
# 4 0.0000 0.0000 0.0000 15.8873 0.0000 0.0000
# 5 0.0000 0.0000 0.0000 0.0000 20.1535 0.0000
# 6 0.0000 0.0000 0.0000 0.0000 0.0000 57.8013
#
#
#
# Elastic Compliance Matrix: (Units=1/GPa)
#
#
# Indices 1 2 3 4 5 6 
#
# 1 0.014679 -0.010690 -0.003300 0.000000 0.000000 0.000000
# 2 -0.010690 0.023339 -0.007067 0.000000 0.000000 0.000000
# 3 -0.003300 -0.007067 0.022063 0.000000 0.000000 0.000000
# 4 0.000000 0.000000 0.000000 0.062943 0.000000 0.000000
# 5 0.000000 0.000000 0.000000 0.000000 0.049619 0.000000
# 6 0.000000 0.000000 0.000000 0.000000 0.000000 0.017301
#
#
# Mechanical properties :
#
#
# Convention : Reuss Voigt Hill
#
# Bulk Modulus (GPa) = 55.65912 65.94724 60.80318
# Shear Modulus (GPa) = 21.00425 27.31940 24.16182
#
# Velocity S-wave (km/s) = 3.50899 4.00188 3.76351
# Velocity P-wave (km/s) = 7.00325 7.74678 7.38438
#
# Compressibility (1/GPa) = 0.01796651
#
# Stress axis : x y z
#
# Youngs Moduli (GPa) = 68.12408 42.84704 45.32499
#
# Poissons Ratio (x) = 0.45805 0.14958
# Poissons Ratio (y) = 0.72828 0.32029
# Poissons Ratio (z) = 0.22482 0.30278
#
# Static dielectric constant tensor:
#      x y z
#    x 3.436190 0.000000 0.000000 
#    y 0.000000 3.156280 0.000000 
#    z 0.000000 0.000000 2.980050 
# 
# 
# High freq. dielectric constant tensor:
#      x y z
#    x 1.668920 0.000000 0.000000 
#    y 0.000000 1.638180 0.000000 
#    z 0.000000 0.000000 1.631370 
# 
# From -- ./inp_files/17010.got.cif
#   From: 2010.06.25/outbox.cif.g09.slc.cpg/sg71_9_cif.got.tgz:17010.got - 2010.06.28 04:59:45.
