data_PCOD8288758
_publ_section_title
;
Structure prediction by ZEFSAII (Michael W. Deem and Ramdas Pophale) SiO2 
 PCOD8288758
Probable space group: I M M M
;
_chemical_formula_sum "Si O2"
_cell_formula_units_Z 104
_cell_length_a 22.322083
_cell_length_b 18.167955
_cell_length_c 14.126812
_cell_angle_alpha 90.000000
_cell_angle_beta 90.000000
_cell_angle_gamma 90.000000
_cell_volume 5729.080568
_symmetry_space_group_name_H-M "I M M M"
_symmetry_group_IT_number 71
_symmetry_cell_setting 'orthorhombic'
loop_
_space_group_symop_operation_xyz
x,y,z
-x,-y,z
x,-y,-z
-x,y,-z
-x,-y,-z
x,y,-z
-x,y,z
x,-y,z
1/2+x,1/2+y,1/2+z
1/2-x,1/2-y,1/2+z
1/2+x,1/2-y,1/2-z
1/2-x,1/2+y,1/2-z
1/2-x,1/2-y,1/2-z
1/2+x,1/2+y,1/2-z
1/2-x,1/2+y,1/2+z
1/2+x,1/2-y,1/2+z
loop_
_atom_site_type_symbol
_atom_site_label
_atom_site_fract_x
_atom_site_fract_y
_atom_site_fract_z
Si Si1 0.000000 0.339447 0.390627
Si Si2 0.387419 0.584378 0.108840
Si Si3 0.725901 0.810060 0.893265
Si Si4 0.779523 0.842735 0.698018
Si Si5 0.932943 0.587395 0.000000
Si Si6 0.876950 0.581194 0.640366
Si Si7 0.000000 0.176202 0.387277
Si Si8 0.661347 0.081054 0.648160
O O1 0.942730 0.386051 0.363196
O O2 0.000000 0.258375 0.342795
O O3 0.000000 0.322691 0.500000
O O4 0.407180 0.500000 0.117746
O O5 0.329857 0.597519 0.175036
O O6 0.441051 0.634182 0.149247
O O7 0.371708 0.604269 0.000000
O O8 0.772720 0.839600 0.813239
O O9 0.700393 0.734197 0.849281
O O10 0.670505 0.865204 0.909174
O O11 0.754120 0.800194 0.000000
O O12 0.717932 0.864826 0.645474
O O13 0.894353 0.614788 0.910142
O O14 0.940027 0.500000 0.000000
O O15 0.000000 0.622735 0.000000
O O16 0.875732 0.500000 0.591803
O O17 0.860869 0.571291 0.747569
O O18 0.000000 0.173857 0.500000
O O19 0.679508 0.000000 0.607863
#
# Coordination Sequence:
#
# PCOD8288758 Si02
#       8
#     8  16  16  16   8  16   8  16
#     4  11  21  31  49  72  95 133 176 212 254 308
#     4  10  19  31  53  81 110 138 169 209 263 321
#     4  10  21  36  53  73 102 139 172 213 264 316
#     4  10  20  34  53  79 105 136 173 217 261 311
#     4   9  18  30  48  72 102 139 172 202 251 309
#     4  10  21  35  50  70 100 134 175 221 259 298
#     4   9  19  35  51  73 107 141 169 208 259 321
#     4   9  19  33  50  74 104 134 170 213 256 305
#
# _framework density 18.152999999999999
#
# number of rings (size 3 to 8) (size 9 to 14) (size 15 to 20)
#    0.000    2.231    0.000    2.769    3.231    4.308 
#    0.000    0.000    0.000    0.000    0.000    0.538 
#    0.000    1.231    0.000    0.000    0.000    0.154 
#
# Total GULP energy -644463.506037 kJ/mol
# GULP energy per Si atom -12393.528962 kJ/mol
# Density = 1.811168 g / cm^3
# Si number density = 18.153000 Si / 1000 Ang^3
#
#
#
# Elastic Constant Matrix: (Units=GPa)
#
#
# Indices 1 2 3 4 5 6 
#
# 1 112.3067 50.4126 35.2508 0.0000 0.0000 0.0000
# 2 50.4126 110.0237 18.4857 0.0000 0.0000 0.0000
# 3 35.2508 18.4857 58.6956 0.0000 0.0000 0.0000
# 4 0.0000 0.0000 0.0000 19.3859 0.0000 0.0000
# 5 0.0000 0.0000 0.0000 0.0000 -34.9387 0.0000
# 6 0.0000 0.0000 0.0000 0.0000 0.0000 33.0506
#
#
#
# Elastic Compliance Matrix: (Units=1/GPa)
#
#
# Indices 1 2 3 4 5 6 
#
# 1 0.013105 -0.004944 -0.006313 0.000000 0.000000 0.000000
# 2 -0.004944 0.011462 -0.000641 0.000000 0.000000 0.000000
# 3 -0.006313 -0.000641 0.021030 0.000000 0.000000 0.000000
# 4 0.000000 0.000000 0.000000 0.051584 0.000000 0.000000
# 5 0.000000 0.000000 0.000000 0.000000 -0.028622 0.000000
# 6 0.000000 0.000000 0.000000 0.000000 0.000000 0.030257
#
#
# Mechanical properties :
#
#
# Convention : Reuss Voigt Hill
#
# Bulk Modulus (GPa) = 45.86870 54.36936 50.11903
# Shear Modulus (GPa) = 38.49715 15.29136 26.89426
#
# Velocity S-wave (km/s) = 4.61011 2.90549 3.85324
# Velocity P-wave (km/s) = 7.32531 6.42429 6.88954
#
# Compressibility (1/GPa) = 0.02180136
#
# Stress axis : x y z
#
# Youngs Moduli (GPa) = 76.30609 87.24559 47.55000
#
# Poissons Ratio (x) = 0.43134 0.30021
# Poissons Ratio (y) = 0.37725 0.03046
# Poissons Ratio (z) = 0.48176 0.05589
#
# Static dielectric constant tensor:
#      x y z
#    x 3.308870 0.000000 0.000000 
#    y 0.000000 3.595440 0.000000 
#    z 0.000000 0.000000 3.293250 
# 
# 
# High freq. dielectric constant tensor:
#      x y z
#    x 1.695160 0.000000 0.000000 
#    y 0.000000 1.705330 0.000000 
#    z 0.000000 0.000000 1.689430 
# 
# From -- ./inp_files/38131.got.cif
#   From: 2010.06.25/outbox.cif.g09.slc.cpg/sg71_20_cif.got.tgz:38131.got - 2010.06.28 04:59:45.
