data_PCOD8288800
_publ_section_title
;
Structure prediction by ZEFSAII (Michael W. Deem and Ramdas Pophale) SiO2 
 PCOD8288800
Probable space group: I M M M
;
_chemical_formula_sum "Si O2"
_cell_formula_units_Z 112
_cell_length_a 15.625761
_cell_length_b 27.104692
_cell_length_c 14.086652
_cell_angle_alpha 90.000000
_cell_angle_beta 90.000000
_cell_angle_gamma 90.000000
_cell_volume 5966.139995
_symmetry_space_group_name_H-M "I M M M"
_symmetry_group_IT_number 71
_symmetry_cell_setting 'orthorhombic'
loop_
_space_group_symop_operation_xyz
x,y,z
-x,-y,z
x,-y,-z
-x,y,-z
-x,-y,-z
x,y,-z
-x,y,z
x,-y,z
1/2+x,1/2+y,1/2+z
1/2-x,1/2-y,1/2+z
1/2+x,1/2-y,1/2-z
1/2-x,1/2+y,1/2-z
1/2-x,1/2-y,1/2-z
1/2+x,1/2+y,1/2-z
1/2-x,1/2+y,1/2+z
1/2+x,1/2-y,1/2+z
loop_
_atom_site_type_symbol
_atom_site_label
_atom_site_fract_x
_atom_site_fract_y
_atom_site_fract_z
Si Si1 0.699247 0.860072 0.258032
Si Si2 0.905598 0.943229 0.730926
Si Si3 0.406010 0.273232 0.367938
Si Si4 0.834740 0.120313 0.107890
Si Si5 0.593699 0.222464 0.179402
Si Si6 0.742308 0.942565 0.388545
Si Si7 0.761485 0.215933 0.600954
O O1 0.742748 0.876285 0.159706
O O2 0.613525 0.830199 0.230365
O O3 0.678651 0.907141 0.326844
O O4 0.765011 0.823356 0.313807
O O5 0.891775 0.917020 0.831476
O O6 0.837462 0.929110 0.649111
O O7 0.000000 0.929897 0.691286
O O8 0.897271 0.000000 0.755574
O O9 0.500000 0.260248 0.410738
O O10 0.384144 0.328520 0.395353
O O11 0.410072 0.266612 0.254990
O O12 0.333721 0.237599 0.409383
O O13 0.820987 0.101098 0.000000
O O14 0.500000 0.217918 0.129163
O O15 0.671141 0.238692 0.111062
O O16 0.735663 0.930216 0.500000
O O17 0.719166 0.000000 0.370128
O O18 0.782048 0.189750 0.500000
#
# Coordination Sequence:
#
# PCOD8288800 Si02
#       7
#    16  16  16  16  16  16  16
#     4  10  19  36  53  75 105 137 172 220 265 313
#     4   9  19  33  47  69 103 136 170 215 258 301
#     4  10  19  32  49  71 101 134 170 210 251 303
#     4  11  20  31  50  70  95 134 178 215 253 302
#     4  10  20  35  53  73 100 137 176 218 264 313
#     4   9  18  33  55  80 104 137 177 213 260 319
#     4  11  20  33  52  76 105 139 175 216 264 313
#
# _framework density 18.772607000000001
#
# number of rings (size 3 to 8) (size 9 to 14) (size 15 to 20)
#    0.000    2.000    2.857    2.143    0.000    2.857 
#    0.000    2.143    0.000    3.429    0.000    1.000 
#    0.000    0.000    0.000    8.429    0.000    0.000 
#
# Total GULP energy -693803.466617 kJ/mol
# GULP energy per Si atom -12389.347618 kJ/mol
# Density = 1.872988 g / cm^3
# Si number density = 18.772607 Si / 1000 Ang^3
#
#
#
# Elastic Constant Matrix: (Units=GPa)
#
#
# Indices 1 2 3 4 5 6 
#
# 1 72.9358 16.7648 14.2666 -0.0001 0.0000 0.0000
# 2 16.7648 60.9437 12.3985 0.0000 0.0000 0.0000
# 3 14.2666 12.3985 80.7081 0.0005 0.0000 0.0000
# 4 -0.0001 0.0000 0.0005 7.4724 0.0000 0.0000
# 5 0.0000 0.0000 0.0000 0.0000 -0.0333 0.0000
# 6 0.0000 0.0000 0.0000 0.0000 0.0000 19.1340
#
#
#
# Elastic Compliance Matrix: (Units=1/GPa)
#
#
# Indices 1 2 3 4 5 6 
#
# 1 0.014966 -0.003694 -0.002078 0.000000 0.000016 0.000000
# 2 -0.003694 0.017850 -0.002089 0.000000 -0.000006 0.000000
# 3 -0.002078 -0.002089 0.013079 -0.000001 -0.000016 0.000000
# 4 0.000000 0.000000 -0.000001 0.133826 -0.000143 0.000000
# 5 0.000016 -0.000006 -0.000016 -0.000143-30.001018 -0.000006
# 6 0.000000 0.000000 0.000000 0.000000 -0.000006 0.052263
#
#
# Mechanical properties :
#
#
# Convention : Reuss Voigt Hill
#
# Bulk Modulus (GPa) = 33.14338 33.49415 33.31876
# Shear Modulus (GPa) = -0.16811 16.72511 8.27850
#
# Velocity S-wave (km/s) = -0.29957 2.98809 2.10225
# Velocity P-wave (km/s) = 4.19212 5.45762 4.86618
#
# Compressibility (1/GPa) = 0.03017194
#
# Stress axis : x y z
#
# Youngs Moduli (GPa) = 66.81669 56.02287 76.46077
#
# Poissons Ratio (x) = 0.20696 0.15889
# Poissons Ratio (y) = 0.24684 0.15973
# Poissons Ratio (z) = 0.13885 0.11704
#
# Static dielectric constant tensor:
#      x y z
#    x 3.410030 0.000000 0.000000 
#    y 0.000000 3.496020 0.000000 
#    z 0.000000 0.000000 3.431290 
# 
# 
# High freq. dielectric constant tensor:
#      x y z
#    x 1.705460 0.000000 0.000000 
#    y 0.000000 1.716530 0.000000 
#    z 0.000000 0.000000 1.729230 
# 
# From -- ./inp_files/35141.got.cif
#   From: 2010.06.25/outbox.cif.g09.slc.cpg/sg71_18_cif.got.tgz:35141.got - 2010.06.28 04:59:45.
