data_PCOD8288020
_publ_section_title
;
Structure prediction by ZEFSAII (Michael W. Deem and Ramdas Pophale) SiO2 
 PCOD8288020
Probable space group: I M M M
;
_chemical_formula_sum "Si O2"
_cell_formula_units_Z 88
_cell_length_a 9.079230
_cell_length_b 30.616391
_cell_length_c 16.548960
_cell_angle_alpha 90.000000
_cell_angle_beta 90.000000
_cell_angle_gamma 90.000000
_cell_volume 4600.168289
_symmetry_space_group_name_H-M "I M M M"
_symmetry_group_IT_number 71
_symmetry_cell_setting 'orthorhombic'
loop_
_space_group_symop_operation_xyz
x,y,z
-x,-y,z
x,-y,-z
-x,y,-z
-x,-y,-z
x,y,-z
-x,y,z
x,-y,z
1/2+x,1/2+y,1/2+z
1/2-x,1/2-y,1/2+z
1/2+x,1/2-y,1/2-z
1/2-x,1/2+y,1/2-z
1/2-x,1/2-y,1/2-z
1/2+x,1/2+y,1/2-z
1/2-x,1/2+y,1/2+z
1/2+x,1/2-y,1/2+z
loop_
_atom_site_type_symbol
_atom_site_label
_atom_site_fract_x
_atom_site_fract_y
_atom_site_fract_z
Si Si1 0.326607 0.223806 0.675192
Si Si2 0.175561 0.500000 0.590607
Si Si3 0.334941 0.548237 0.904694
Si Si4 0.325503 0.875766 0.317361
Si Si5 0.825360 0.645921 0.500000
Si Si6 0.170773 0.764199 0.000000
Si Si7 0.675455 0.091220 0.851834
O O1 0.500000 0.226367 0.693181
O O2 0.250000 0.250000 0.750000
O O3 0.269858 0.173798 0.671490
O O4 0.289865 0.239825 0.584101
O O5 0.238279 0.500000 0.500000
O O6 0.235541 0.457770 0.637288
O O7 0.000000 0.500000 0.587466
O O8 0.500000 0.555637 0.871261
O O9 0.277139 0.500000 0.874423
O O10 0.234512 0.589204 0.880760
O O11 0.336760 0.547510 0.000000
O O12 0.500000 0.877355 0.323620
O O13 0.263055 0.890515 0.231232
O O14 0.774905 0.694852 0.500000
O O15 0.760336 0.621693 0.577984
O O16 0.000000 0.644261 0.500000
O O17 0.000000 0.777243 0.000000
O O18 0.500000 0.091809 0.853934
#
# Coordination Sequence:
#
# PCOD8288020 Si02
#       7
#    16   8  16  16   8   8  16
#     4  10  22  40  59  83 117 151 189 237 291 345
#     4   9  14  24  42  70 109 144 169 205 264 320
#     4   9  20  39  58  77 107 145 182 222 272 334
#     4  10  21  34  55  85 112 140 181 232 280 326
#     4  10  18  33  56  80 106 139 185 228 262 314
#     4  10  22  38  57  79 110 151 182 223 290 347
#     4   9  17  28  46  77 112 140 171 218 268 312
#
# _framework density 19.129735
#
# number of rings (size 3 to 8) (size 9 to 14) (size 15 to 20)
#    0.000    2.455    0.909    1.636    2.545    3.636 
#    0.000    1.818    0.000    0.000    0.000    0.636 
#    0.000    0.000    0.000    0.000    0.000    0.000 
#
# Total GULP energy -545202.798760 kJ/mol
# GULP energy per Si atom -12390.972699 kJ/mol
# Density = 1.908619 g / cm^3
# Si number density = 19.129735 Si / 1000 Ang^3
#
#
#
# Elastic Constant Matrix: (Units=GPa)
#
#
# Indices 1 2 3 4 5 6 
#
# 1 24.7875 30.5865 22.3387 0.0000 0.0000 0.0000
# 2 30.5865 177.4331 62.5534 0.0000 0.0000 0.0000
# 3 22.3387 62.5534 114.2739 0.0001 0.0001 -0.0001
# 4 0.0000 0.0000 0.0001 51.3035 0.0000 0.0000
# 5 0.0000 0.0000 0.0001 0.0000 21.7307 0.0000
# 6 0.0000 0.0000 -0.0001 0.0000 0.0000 25.8080
#
#
#
# Elastic Compliance Matrix: (Units=1/GPa)
#
#
# Indices 1 2 3 4 5 6 
#
# 1 0.055350 -0.007096 -0.006935 0.000000 0.000000 0.000000
# 2 -0.007096 0.007893 -0.002934 0.000000 0.000000 0.000000
# 3 -0.006935 -0.002934 0.011713 0.000000 0.000000 0.000000
# 4 0.000000 0.000000 0.000000 0.019492 0.000000 0.000000
# 5 0.000000 0.000000 0.000000 0.000000 0.046018 0.000000
# 6 0.000000 0.000000 0.000000 0.000000 0.000000 0.038748
#
#
# Mechanical properties :
#
#
# Convention : Reuss Voigt Hill
#
# Bulk Modulus (GPa) = 24.37542 60.82798 42.60170
# Shear Modulus (GPa) = 22.04399 33.16949 27.60674
#
# Velocity S-wave (km/s) = 3.39830 4.16856 3.80298
# Velocity P-wave (km/s) = 5.30733 7.41861 6.44994
#
# Compressibility (1/GPa) = 0.04102493
#
# Stress axis : x y z
#
# Youngs Moduli (GPa) = 18.06691 126.68713 85.37842
#
# Poissons Ratio (x) = 0.89901 0.59214
# Poissons Ratio (y) = 0.12821 0.25047
# Poissons Ratio (z) = 0.12530 0.37166
#
# Static dielectric constant tensor:
#      x y z
#    x 3.103320 0.000000 0.000000 
#    y 0.000000 3.789300 0.000000 
#    z 0.000000 0.000000 3.711940 
# 
# 
# High freq. dielectric constant tensor:
#      x y z
#    x 1.699020 0.000000 0.000000 
#    y 0.000000 1.763790 0.000000 
#    z 0.000000 0.000000 1.754930 
# 
# From -- ./inp_files/42543.got.cif
#   From: 2010.06.25/outbox.cif.g09.slc.cpg/sg71_22_cif.got.tgz:42543.got - 2010.06.28 04:59:45.
