data_PCOD8288900
_publ_section_title
;
Structure prediction by ZEFSAII (Michael W. Deem and Ramdas Pophale) SiO2 
 PCOD8288900
Probable space group: I M M M
;
_chemical_formula_sum "Si O2"
_cell_formula_units_Z 104
_cell_length_a 26.566364
_cell_length_b 23.596844
_cell_length_c 9.061948
_cell_angle_alpha 90.000000
_cell_angle_beta 90.000000
_cell_angle_gamma 90.000000
_cell_volume 5680.775230
_symmetry_space_group_name_H-M "I M M M"
_symmetry_group_IT_number 71
_symmetry_cell_setting 'orthorhombic'
loop_
_space_group_symop_operation_xyz
x,y,z
-x,-y,z
x,-y,-z
-x,y,-z
-x,-y,-z
x,y,-z
-x,y,z
x,-y,z
1/2+x,1/2+y,1/2+z
1/2-x,1/2-y,1/2+z
1/2+x,1/2-y,1/2-z
1/2-x,1/2+y,1/2-z
1/2-x,1/2-y,1/2-z
1/2+x,1/2+y,1/2-z
1/2-x,1/2+y,1/2+z
1/2+x,1/2-y,1/2+z
loop_
_atom_site_type_symbol
_atom_site_label
_atom_site_fract_x
_atom_site_fract_y
_atom_site_fract_z
Si Si1 0.622536 0.934016 0.172144
Si Si2 0.403404 0.564113 0.670128
Si Si3 0.144622 0.264293 0.830907
Si Si4 0.210410 0.372363 0.171137
Si Si5 0.500000 0.567516 0.166066
Si Si6 0.057904 0.343021 0.825293
Si Si7 0.814076 0.147337 0.826883
O O1 0.675437 0.917985 0.247233
O O2 0.576258 0.900048 0.245181
O O3 0.611804 0.000000 0.197965
O O4 0.625693 0.918836 0.000000
O O5 0.418260 0.566802 0.500000
O O6 0.393049 0.500000 0.722034
O O7 0.450084 0.591835 0.756912
O O8 0.353675 0.598508 0.705255
O O9 0.188373 0.309752 0.807584
O O10 0.091987 0.289969 0.767767
O O11 0.163170 0.205642 0.757179
O O12 0.134755 0.249747 0.000000
O O13 0.265039 0.372578 0.241592
O O14 0.213539 0.389262 0.000000
O O15 0.500000 0.500000 0.180787
O O16 0.500000 0.589148 0.000000
O O17 0.000000 0.330803 0.785343
O O18 0.066099 0.351862 0.000000
O O19 0.801363 0.154054 0.000000
#
# Coordination Sequence:
#
# PCOD8288900 Si02
#       7
#    16  16  16  16   8  16  16
#     4  10  21  36  54  77 105 138 176 215 256 310
#     4   9  18  32  49  71  99 129 163 203 247 297
#     4   8  16  32  51  74 101 133 174 213 253 304
#     4  10  20  34  53  75 102 135 170 213 261 307
#     4   9  17  31  51  69  89 123 161 197 240 289
#     4   9  18  34  55  78 106 138 172 217 267 312
#     4  10  19  32  51  76 103 135 174 213 256 304
#
# _framework density 18.307361
#
# number of rings (size 3 to 8) (size 9 to 14) (size 15 to 20)
#    0.000    2.692    0.000    2.538    0.000    4.000 
#    1.385    6.154    0.000    0.000    0.000    0.000 
#    0.000    0.000    0.000    0.000    0.000    0.000 
#
# Total GULP energy -644703.105746 kJ/mol
# GULP energy per Si atom -12398.136649 kJ/mol
# Density = 1.826569 g / cm^3
# Si number density = 18.307361 Si / 1000 Ang^3
#
#
#
# Elastic Constant Matrix: (Units=GPa)
#
#
# Indices 1 2 3 4 5 6 
#
# 1 141.7332 27.7787 54.4203 0.0000 0.0000 0.0000
# 2 27.7787 46.7979 23.4742 0.0000 0.0000 0.0000
# 3 54.4203 23.4742 70.5912 0.0000 0.0000 0.0000
# 4 0.0000 0.0000 0.0000 18.2946 0.0000 0.0000
# 5 0.0000 0.0000 0.0000 0.0000 33.5128 0.0000
# 6 0.0000 0.0000 0.0000 0.0000 0.0000 9.0503
#
#
#
# Elastic Compliance Matrix: (Units=1/GPa)
#
#
# Indices 1 2 3 4 5 6 
#
# 1 0.010270 -0.002550 -0.007069 0.000000 0.000000 0.000000
# 2 -0.002550 0.026280 -0.006773 0.000000 0.000000 0.000000
# 3 -0.007069 -0.006773 0.021868 0.000000 0.000000 0.000000
# 4 0.000000 0.000000 0.000000 0.054661 0.000000 0.000000
# 5 0.000000 0.000000 0.000000 0.000000 0.029839 0.000000
# 6 0.000000 0.000000 0.000000 0.000000 0.000000 0.110494
#
#
# Mechanical properties :
#
#
# Convention : Reuss Voigt Hill
#
# Bulk Modulus (GPa) = 39.01236 52.27431 45.64334
# Shear Modulus (GPa) = 16.96410 22.40147 19.68278
#
# Velocity S-wave (km/s) = 3.04736 3.50184 3.28247
# Velocity P-wave (km/s) = 5.80842 6.70568 6.27312
#
# Compressibility (1/GPa) = 0.02563290
#
# Stress axis : x y z
#
# Youngs Moduli (GPa) = 97.37531 38.05243 45.72877
#
# Poissons Ratio (x) = 0.09703 0.32326
# Poissons Ratio (y) = 0.24831 0.30972
# Poissons Ratio (z) = 0.68835 0.25773
#
# Static dielectric constant tensor:
#      x y z
#    x 3.423410 0.000000 0.000000 
#    y 0.000000 3.424650 0.000000 
#    z 0.000000 0.000000 3.276560 
# 
# 
# High freq. dielectric constant tensor:
#      x y z
#    x 1.717700 0.000000 0.000000 
#    y 0.000000 1.700210 0.000000 
#    z 0.000000 0.000000 1.695110 
# 
# From -- ./inp_files/15268.got.cif
#   From: 2010.06.25/outbox.cif.g09.slc.cpg/sg71_8_cif.got.tgz:15268.got - 2010.06.28 04:59:45.
