data_PCOD8288931
_publ_section_title
;
Structure prediction by ZEFSAII (Michael W. Deem and Ramdas Pophale) SiO2 
 PCOD8288931
Probable space group: I M M M
;
_chemical_formula_sum "Si O2"
_cell_formula_units_Z 88
_cell_length_a 19.037781
_cell_length_b 8.833308
_cell_length_c 27.404039
_cell_angle_alpha 90.000000
_cell_angle_beta 90.000000
_cell_angle_gamma 90.000000
_cell_volume 4608.443605
_symmetry_space_group_name_H-M "I M M M"
_symmetry_group_IT_number 71
_symmetry_cell_setting 'orthorhombic'
loop_
_space_group_symop_operation_xyz
x,y,z
-x,-y,z
x,-y,-z
-x,y,-z
-x,-y,-z
x,y,-z
-x,y,z
x,-y,z
1/2+x,1/2+y,1/2+z
1/2-x,1/2-y,1/2+z
1/2+x,1/2-y,1/2-z
1/2-x,1/2+y,1/2-z
1/2-x,1/2-y,1/2-z
1/2+x,1/2+y,1/2-z
1/2-x,1/2+y,1/2+z
1/2+x,1/2-y,1/2+z
loop_
_atom_site_type_symbol
_atom_site_label
_atom_site_fract_x
_atom_site_fract_y
_atom_site_fract_z
Si Si1 0.188142 0.326818 0.183220
Si Si2 0.310277 0.177147 0.054630
Si Si3 0.580653 0.665318 0.500000
Si Si4 0.579763 0.179686 0.237616
Si Si5 0.834553 0.326093 0.925166
Si Si6 0.340532 0.319687 0.153677
O O1 0.197484 0.500000 0.198078
O O2 0.136733 0.251649 0.223658
O O3 0.149136 0.307863 0.131830
O O4 0.266850 0.256933 0.177480
O O5 0.229729 0.226214 0.056202
O O6 0.351399 0.264351 0.097859
O O7 0.316458 0.000000 0.065189
O O8 0.340089 0.214920 0.000000
O O9 0.618620 0.500000 0.500000
O O10 0.500000 0.634634 0.500000
O O11 0.597768 0.763727 0.547619
O O12 0.500000 0.223626 0.252888
O O13 0.595663 0.255066 0.185402
O O14 0.586680 0.000000 0.233284
O O15 0.818464 0.500000 0.938300
O O16 0.340246 0.500000 0.152850
#
# Coordination Sequence:
#
# PCOD8288931 Si02
#       6
#    16  16   8  16  16  16
#     4   8  17  33  53  79 105 135 177 223 270 319
#     4  10  19  32  54  81 109 137 169 212 266 323
#     4  11  23  35  45  63  99 145 186 223 268 321
#     4  10  20  35  55  77 106 143 180 221 272 329
#     4  10  19  32  52  76 102 132 175 226 271 317
#     4  10  20  34  54  80 110 142 180 225 267 314
#
# _framework density 19.095385
#
# number of rings (size 3 to 8) (size 9 to 14) (size 15 to 20)
#    0.000    2.273    0.909    3.545    0.000    2.909 
#    0.000    6.364    0.000    0.545    0.000    3.818 
#    0.000    0.000    0.000    0.000    0.000    0.000 
#
# Total GULP energy -545293.664516 kJ/mol
# GULP energy per Si atom -12393.037830 kJ/mol
# Density = 1.905192 g / cm^3
# Si number density = 19.095385 Si / 1000 Ang^3
#
#
#
# Elastic Constant Matrix: (Units=GPa)
#
#
# Indices 1 2 3 4 5 6 
#
# 1 49.9280 23.8958 35.7616 0.0000 0.0000 0.0000
# 2 23.8958 53.6257 35.8783 0.0000 0.0000 0.0000
# 3 35.7616 35.8783 114.6902 0.0000 0.0000 0.0000
# 4 0.0000 0.0000 0.0000 27.7257 0.0000 0.0000
# 5 0.0000 0.0000 0.0000 0.0000 11.3184 0.0000
# 6 0.0000 0.0000 0.0000 0.0000 0.0000 20.1954
#
#
#
# Elastic Compliance Matrix: (Units=1/GPa)
#
#
# Indices 1 2 3 4 5 6 
#
# 1 0.028597 -0.008571 -0.006236 0.000000 0.000000 0.000000
# 2 -0.008571 0.026153 -0.005509 0.000000 0.000000 0.000000
# 3 -0.006236 -0.005509 0.012387 0.000000 0.000000 0.000000
# 4 0.000000 0.000000 0.000000 0.036068 0.000000 0.000000
# 5 0.000000 0.000000 0.000000 0.000000 0.088352 0.000000
# 6 0.000000 0.000000 0.000000 0.000000 0.000000 0.049516
#
#
# Mechanical properties :
#
#
# Convention : Reuss Voigt Hill
#
# Bulk Modulus (GPa) = 37.72755 45.47947 41.60351
# Shear Modulus (GPa) = 17.20940 20.02845 18.61893
#
# Velocity S-wave (km/s) = 3.00531 3.24213 3.12596
# Velocity P-wave (km/s) = 5.64295 6.15499 5.90452
#
# Compressibility (1/GPa) = 0.02650583
#
# Stress axis : x y z
#
# Youngs Moduli (GPa) = 34.96822 38.23696 80.73130
#
# Poissons Ratio (x) = 0.32773 0.50341
# Poissons Ratio (y) = 0.29972 0.44473
# Poissons Ratio (z) = 0.21805 0.21064
#
# Static dielectric constant tensor:
#      x y z
#    x 3.281330 0.000000 0.000000 
#    y 0.000000 3.385860 0.000000 
#    z 0.000000 0.000000 3.577780 
# 
# 
# High freq. dielectric constant tensor:
#      x y z
#    x 1.706930 0.000000 0.000000 
#    y 0.000000 1.733610 0.000000 
#    z 0.000000 0.000000 1.755650 
# 
# From -- ./inp_files/66328.got.cif
#   From: 2010.06.25/outbox.cif.g09.slc.cpg/sg71_34_cif.got.tgz:66328.got - 2010.06.28 04:59:45.
