data_PCOD8288795
_publ_section_title
;
Structure prediction by ZEFSAII (Michael W. Deem and Ramdas Pophale) SiO2 
 PCOD8288795
Probable space group: I M M M
;
_chemical_formula_sum "Si O2"
_cell_formula_units_Z 128
_cell_length_a 20.828970
_cell_length_b 13.219383
_cell_length_c 27.404384
_cell_angle_alpha 90.000000
_cell_angle_beta 90.000000
_cell_angle_gamma 90.000000
_cell_volume 7545.691132
_symmetry_space_group_name_H-M "I M M M"
_symmetry_group_IT_number 71
_symmetry_cell_setting 'orthorhombic'
loop_
_space_group_symop_operation_xyz
x,y,z
-x,-y,z
x,-y,-z
-x,y,-z
-x,-y,-z
x,y,-z
-x,y,z
x,-y,z
1/2+x,1/2+y,1/2+z
1/2-x,1/2-y,1/2+z
1/2+x,1/2-y,1/2-z
1/2-x,1/2+y,1/2-z
1/2-x,1/2-y,1/2-z
1/2+x,1/2+y,1/2-z
1/2-x,1/2+y,1/2+z
1/2+x,1/2-y,1/2+z
loop_
_atom_site_type_symbol
_atom_site_label
_atom_site_fract_x
_atom_site_fract_y
_atom_site_fract_z
Si Si1 0.670569 0.883047 0.268722
Si Si2 0.623188 0.615279 0.943896
Si Si3 0.926456 0.739310 0.363896
Si Si4 0.574557 0.384932 0.665799
Si Si5 0.728209 0.884009 0.445290
Si Si6 0.804499 0.384687 0.658817
Si Si7 0.071883 0.774472 0.258399
Si Si8 0.689218 0.752687 0.639389
O O1 0.708029 0.873657 0.217207
O O2 0.603202 0.829652 0.259473
O O3 0.704144 0.822213 0.312997
O O4 0.661466 0.000000 0.283759
O O5 0.601040 0.500000 0.934838
O O6 0.581751 0.689014 0.910306
O O7 0.697551 0.627487 0.930357
O O8 0.610752 0.645369 0.000000
O O9 0.874552 0.649005 0.361370
O O10 0.913051 0.804508 0.314418
O O11 0.000000 0.696976 0.364656
O O12 0.500000 0.361207 0.652631
O O13 0.591781 0.500000 0.652234
O O14 0.588204 0.369971 0.723823
O O15 0.622070 0.308145 0.638514
O O16 0.717259 0.842569 0.500000
O O17 0.684190 0.822119 0.408245
O O18 0.707070 0.000000 0.442395
O O19 0.797339 0.500000 0.642771
O O20 0.748725 0.322610 0.632433
O O21 0.000000 0.741857 0.251909
#
# Coordination Sequence:
#
# PCOD8288795 Si02
#       8
#    16  16  16  16  16  16  16  16
#     4   9  18  29  44  70 101 127 157 200 246 290
#     4   9  18  33  51  72  98 127 161 203 253 300
#     4  10  19  32  49  70  97 131 169 208 247 286
#     4   9  18  32  49  72 103 135 163 194 236 286
#     4   9  18  33  54  78 101 126 158 198 246 298
#     4  10  20  33  47  69  99 130 167 205 241 285
#     4   8  16  29  45  66  96 134 170 198 232 284
#     4  11  18  31  54  74  97 127 164 200 241 289
#
# _framework density 16.963322999999999
#
# number of rings (size 3 to 8) (size 9 to 14) (size 15 to 20)
#    0.000    2.625    1.250    1.875    0.000    1.500 
#    0.000    4.375    0.000    4.125    0.000    2.625 
#    0.000    0.000    0.000    0.000    0.000    0.000 
#
# Total GULP energy -793055.345134 kJ/mol
# GULP energy per Si atom -12391.489768 kJ/mol
# Density = 1.692471 g / cm^3
# Si number density = 16.963323 Si / 1000 Ang^3
#
#
#
# Elastic Constant Matrix: (Units=GPa)
#
#
# Indices 1 2 3 4 5 6 
#
# 1 72.7858 41.2336 34.6431 0.0000 0.0000 0.0000
# 2 41.2336 92.5381 43.8346 0.0000 0.0000 0.0000
# 3 34.6431 43.8346 77.1569 0.0000 0.0000 0.0000
# 4 0.0000 0.0000 0.0000 27.7391 0.0000 0.0000
# 5 0.0000 0.0000 0.0000 0.0000 22.6881 0.0000
# 6 0.0000 0.0000 0.0000 0.0000 0.0000 23.2967
#
#
#
# Elastic Compliance Matrix: (Units=1/GPa)
#
#
# Indices 1 2 3 4 5 6 
#
# 1 0.019856 -0.006327 -0.005321 0.000000 0.000000 0.000000
# 2 -0.006327 0.016801 -0.006704 0.000000 0.000000 0.000000
# 3 -0.005321 -0.006704 0.019158 0.000000 0.000000 0.000000
# 4 0.000000 0.000000 0.000000 0.036050 0.000000 0.000000
# 5 0.000000 0.000000 0.000000 0.000000 0.044076 0.000000
# 6 0.000000 0.000000 0.000000 0.000000 0.000000 0.042925
#
#
# Mechanical properties :
#
#
# Convention : Reuss Voigt Hill
#
# Bulk Modulus (GPa) = 52.32480 53.54484 52.93482
# Shear Modulus (GPa) = 22.52853 22.92942 22.72898
#
# Velocity S-wave (km/s) = 3.64823 3.68054 3.66442
# Velocity P-wave (km/s) = 6.97559 7.04950 7.01264
#
# Compressibility (1/GPa) = 0.01911139
#
# Stress axis : x y z
#
# Youngs Moduli (GPa) = 50.36353 59.51858 52.19621
#
# Poissons Ratio (x) = 0.37658 0.27771
# Poissons Ratio (y) = 0.31865 0.34995
# Poissons Ratio (z) = 0.26796 0.39904
#
# Static dielectric constant tensor:
#      x y z
#    x 3.099400 0.000000 0.000000 
#    y 0.000000 3.075560 0.000000 
#    z 0.000000 0.000000 3.117400 
# 
# 
# High freq. dielectric constant tensor:
#      x y z
#    x 1.646690 0.000000 0.000000 
#    y 0.000000 1.645830 0.000000 
#    z 0.000000 0.000000 1.638840 
# 
# From -- ./inp_files/61747.got.cif
#   From: 2010.06.25/outbox.cif.g09.slc.cpg/sg71_31_cif.got.tgz:61747.got - 2010.06.28 04:59:45.
