data_PCOD8288958
_publ_section_title
;
Structure prediction by ZEFSAII (Michael W. Deem and Ramdas Pophale) SiO2 
 PCOD8288958
Probable space group: I M M M
;
_chemical_formula_sum "Si O2"
_cell_formula_units_Z 88
_cell_length_a 8.906564
_cell_length_b 28.981204
_cell_length_c 17.772249
_cell_angle_alpha 90.000000
_cell_angle_beta 90.000000
_cell_angle_gamma 90.000000
_cell_volume 4587.425308
_symmetry_space_group_name_H-M "I M M M"
_symmetry_group_IT_number 71
_symmetry_cell_setting 'orthorhombic'
loop_
_space_group_symop_operation_xyz
x,y,z
-x,-y,z
x,-y,-z
-x,y,-z
-x,-y,-z
x,y,-z
-x,y,z
x,-y,z
1/2+x,1/2+y,1/2+z
1/2-x,1/2-y,1/2+z
1/2+x,1/2-y,1/2-z
1/2-x,1/2+y,1/2-z
1/2-x,1/2-y,1/2-z
1/2+x,1/2+y,1/2-z
1/2-x,1/2+y,1/2+z
1/2+x,1/2-y,1/2+z
loop_
_atom_site_type_symbol
_atom_site_label
_atom_site_fract_x
_atom_site_fract_y
_atom_site_fract_z
Si Si1 0.323263 0.122069 0.085931
Si Si2 0.675488 0.307637 0.911899
Si Si3 0.331318 0.285203 0.410637
Si Si4 0.830546 0.054442 0.500000
Si Si5 0.178389 0.398353 0.860799
Si Si6 0.177996 0.551588 0.289953
O O1 0.500000 0.130181 0.092780
O O2 0.245116 0.167950 0.118596
O O3 0.268573 0.078855 0.135678
O O4 0.275838 0.111804 0.000000
O O5 0.500000 0.309478 0.895562
O O6 0.737373 0.258756 0.882331
O O7 0.758592 0.346701 0.864173
O O8 0.711111 0.315402 0.000000
O O9 0.330466 0.285752 0.500000
O O10 0.500000 0.282067 0.378740
O O11 0.743424 0.070880 0.572929
O O12 0.000000 0.075060 0.500000
O O13 0.835053 0.000000 0.500000
O O14 0.234584 0.421307 0.783472
O O15 0.000000 0.396911 0.867282
O O16 0.247444 0.500000 0.291762
O O17 0.000000 0.548281 0.288317
#
# Coordination Sequence:
#
# PCOD8288958 Si02
#       6
#    16  16  16   8  16  16
#     4   9  17  32  56  83 109 139 177 220 270 325
#     4  10  19  32  52  78 110 143 179 223 269 317
#     4   9  17  30  51  79 110 141 177 219 266 320
#     4  11  23  37  53  75 105 141 185 233 274 317
#     4  11  21  34  54  78 107 143 184 225 270 322
#     4   9  19  35  54  79 110 141 177 225 275 322
#
# _framework density 19.182873000000001
#
# number of rings (size 3 to 8) (size 9 to 14) (size 15 to 20)
#    0.000    2.273    0.909    2.455    0.000    4.727 
#    0.000    4.545    0.000    2.727    0.000    2.545 
#    0.000    0.000    0.000    0.000    0.000    0.000 
#
# Total GULP energy -545655.731028 kJ/mol
# GULP energy per Si atom -12401.266614 kJ/mol
# Density = 1.913921 g / cm^3
# Si number density = 19.182873 Si / 1000 Ang^3
#
#
#
# Elastic Constant Matrix: (Units=GPa)
#
#
# Indices 1 2 3 4 5 6 
#
# 1 85.3750 56.7161 36.9288 -0.0002 -0.0001 0.0000
# 2 56.7161 180.4522 75.7880 -0.0004 -0.0001 0.0000
# 3 36.9288 75.7880 100.4423 -0.0011 -0.0002 -0.0001
# 4 -0.0002 -0.0004 -0.0011 -8.1100 -0.0001 -0.0001
# 5 -0.0001 -0.0001 -0.0002 -0.0001 6.6740 0.0000
# 6 0.0000 0.0000 -0.0001 -0.0001 0.0000 30.5800
#
#
#
# Elastic Compliance Matrix: (Units=1/GPa)
#
#
# Indices 1 2 3 4 5 6 
#
# 1 0.015374 -0.003598 -0.002937 0.000000 0.000000 0.000000
# 2 -0.003598 0.008955 -0.005434 0.000000 0.000000 0.000000
# 3 -0.002937 -0.005434 0.015136 -0.000002 0.000000 0.000000
# 4 0.000000 0.000000 -0.000002 -0.123304 -0.000002 0.000000
# 5 0.000000 0.000000 0.000000 -0.000002 0.149835 0.000000
# 6 0.000000 0.000000 0.000000 0.000000 0.000000 0.032701
#
#
# Mechanical properties :
#
#
# Convention : Reuss Voigt Hill
#
# Bulk Modulus (GPa) = 64.40901 78.34836 71.37869
# Shear Modulus (GPa) = 39.12022 18.95123 29.03572
#
# Velocity S-wave (km/s) = 4.52079 3.14654 3.89476
# Velocity P-wave (km/s) = 7.80380 7.35748 7.58392
#
# Compressibility (1/GPa) = 0.01552578
#
# Stress axis : x y z
#
# Youngs Moduli (GPa) = 65.04465 111.67293 66.06823
#
# Poissons Ratio (x) = 0.40185 0.19406
# Poissons Ratio (y) = 0.23406 0.35900
# Poissons Ratio (z) = 0.19105 0.60680
#
# Static dielectric constant tensor:
#      x y z
#    x 3.461640 0.000000 0.000000 
#    y 0.000000 3.787690 0.000000 
#    z 0.000000 0.000000 3.353640 
# 
# 
# High freq. dielectric constant tensor:
#      x y z
#    x 1.735390 0.000000 0.000000 
#    y 0.000000 1.762630 0.000000 
#    z 0.000000 0.000000 1.721980 
# 
# From -- ./inp_files/42463.got.cif
#   From: 2010.06.25/outbox.cif.g09.slc.cpg/sg71_22_cif.got.tgz:42463.got - 2010.06.28 04:59:45.
