data_PCOD8288635
_publ_section_title
;
Structure prediction by ZEFSAII (Michael W. Deem and Ramdas Pophale) SiO2 
 PCOD8288635
Probable space group: I M M M
;
_chemical_formula_sum "Si O2"
_cell_formula_units_Z 56
_cell_length_a 8.759223
_cell_length_b 24.269064
_cell_length_c 13.255335
_cell_angle_alpha 90.000000
_cell_angle_beta 90.000000
_cell_angle_gamma 90.000000
_cell_volume 2817.794507
_symmetry_space_group_name_H-M "I M M M"
_symmetry_group_IT_number 71
_symmetry_cell_setting 'orthorhombic'
loop_
_space_group_symop_operation_xyz
x,y,z
-x,-y,z
x,-y,-z
-x,y,-z
-x,-y,-z
x,y,-z
-x,y,z
x,-y,z
1/2+x,1/2+y,1/2+z
1/2-x,1/2-y,1/2+z
1/2+x,1/2-y,1/2-z
1/2-x,1/2+y,1/2-z
1/2-x,1/2-y,1/2-z
1/2+x,1/2+y,1/2-z
1/2-x,1/2+y,1/2+z
1/2+x,1/2-y,1/2+z
loop_
_atom_site_type_symbol
_atom_site_label
_atom_site_fract_x
_atom_site_fract_y
_atom_site_fract_z
Si Si1 0.181832 0.562013 0.000000
Si Si2 0.326827 0.261723 0.113537
Si Si3 0.678843 0.355971 0.387967
Si Si4 0.180282 0.368829 0.809557
O O1 0.242962 0.592195 0.899069
O O2 0.246528 0.500000 0.000000
O O3 0.000000 0.561888 0.000000
O O4 0.500000 0.249430 0.149279
O O5 0.226938 0.207296 0.120629
O O6 0.250596 0.307840 0.183131
O O7 0.325476 0.284792 0.000000
O O8 0.722819 0.378474 0.500000
O O9 0.500000 0.361080 0.369468
O O10 0.765467 0.391155 0.300581
O O11 0.000000 0.365347 0.814924
#
# Coordination Sequence:
#
# PCOD8288635 Si02
#       4
#     8  16  16  16
#     4   9  20  38  59  83 107 135 175 225 278 325
#     4  10  19  31  49  75 109 145 181 217 257 314
#     4  10  21  35  51  74 108 146 182 216 256 313
#     4  11  20  33  55  78 105 138 176 222 270 319
#
# _framework density 19.873699999999999
#
# number of rings (size 3 to 8) (size 9 to 14) (size 15 to 20)
#    0.000    1.857    1.429    3.429    0.000    2.857 
#    0.000    0.000    0.000    7.714    0.000    6.000 
#    0.000    0.000    0.000    0.000    0.000    0.000 
#
# Total GULP energy -347116.933987 kJ/mol
# GULP energy per Si atom -12397.033357 kJ/mol
# Density = 1.982847 g / cm^3
# Si number density = 19.873700 Si / 1000 Ang^3
#
#
#
# Elastic Constant Matrix: (Units=GPa)
#
#
# Indices 1 2 3 4 5 6 
#
# 1 41.4686 6.4487 32.5864 -0.0001 0.0000 0.0000
# 2 6.4487 43.9644 37.0135 0.0001 0.0000 0.0000
# 3 32.5864 37.0135 173.4125 0.0002 -0.0001 0.0000
# 4 -0.0001 0.0001 0.0002 13.3745 0.0000 0.0000
# 5 0.0000 0.0000 -0.0001 0.0000 36.9525 0.0000
# 6 0.0000 0.0000 0.0000 0.0000 0.0000 10.3216
#
#
#
# Elastic Compliance Matrix: (Units=1/GPa)
#
#
# Indices 1 2 3 4 5 6 
#
# 1 0.028298 0.000397 -0.005402 0.000000 0.000000 0.000000
# 2 0.000397 0.027734 -0.005994 0.000000 0.000000 0.000000
# 3 -0.005402 -0.005994 0.008061 0.000000 0.000000 0.000000
# 4 0.000000 0.000000 0.000000 0.074769 0.000000 0.000000
# 5 0.000000 0.000000 0.000000 0.000000 0.027062 0.000000
# 6 0.000000 0.000000 0.000000 0.000000 0.000000 0.096884
#
#
# Mechanical properties :
#
#
# Convention : Reuss Voigt Hill
#
# Bulk Modulus (GPa) = 23.75590 45.66031 34.70810
# Shear Modulus (GPa) = 16.73146 24.31618 20.52382
#
# Velocity S-wave (km/s) = 2.90468 3.50170 3.21707
# Velocity P-wave (km/s) = 4.81964 6.27490 5.59479
#
# Compressibility (1/GPa) = 0.04209481
#
# Stress axis : x y z
#
# Youngs Moduli (GPa) = 35.33808 36.05694 124.05082
#
# Poissons Ratio (x) = -0.01433 0.67017
# Poissons Ratio (y) = -0.01405 0.74359
# Poissons Ratio (z) = 0.19091 0.21614
#
# Static dielectric constant tensor:
#      x y z
#    x 3.484960 0.000000 0.000000 
#    y 0.000000 3.159060 0.000000 
#    z 0.000000 0.000000 4.427720 
# 
# 
# High freq. dielectric constant tensor:
#      x y z
#    x 1.770370 0.000000 0.000000 
#    y 0.000000 1.707930 0.000000 
#    z 0.000000 0.000000 1.811700 
# 
# From -- ./inp_files/11899.got.cif
#   From: 2010.06.25/outbox.cif.g09.slc.cpg/sg71_6_cif.got.tgz:11899.got - 2010.06.28 04:59:45.
