data_PCOD8288162
_publ_section_title
;
Structure prediction by ZEFSAII (Michael W. Deem and Ramdas Pophale) SiO2 
 PCOD8288162
Probable space group: I M M M
;
_chemical_formula_sum "Si O2"
_cell_formula_units_Z 104
_cell_length_a 24.062390
_cell_length_b 36.302689
_cell_length_c 9.022088
_cell_angle_alpha 90.000000
_cell_angle_beta 90.000000
_cell_angle_gamma 90.000000
_cell_volume 7881.059666
_symmetry_space_group_name_H-M "I M M M"
_symmetry_group_IT_number 71
_symmetry_cell_setting 'orthorhombic'
loop_
_space_group_symop_operation_xyz
x,y,z
-x,-y,z
x,-y,-z
-x,y,-z
-x,-y,-z
x,y,-z
-x,y,z
x,-y,z
1/2+x,1/2+y,1/2+z
1/2-x,1/2-y,1/2+z
1/2+x,1/2-y,1/2-z
1/2-x,1/2+y,1/2-z
1/2-x,1/2-y,1/2-z
1/2+x,1/2+y,1/2-z
1/2-x,1/2+y,1/2+z
1/2+x,1/2-y,1/2+z
loop_
_atom_site_type_symbol
_atom_site_label
_atom_site_fract_x
_atom_site_fract_y
_atom_site_fract_z
Si Si1 0.206671 0.223104 0.825311
Si Si2 0.561901 0.159934 0.174132
Si Si3 0.627292 0.783295 0.664520
Si Si4 0.888256 0.457301 0.825894
Si Si5 0.266747 0.835868 0.331536
Si Si6 0.338307 0.892266 0.176150
Si Si7 0.500000 0.956637 0.165188
O O1 0.250000 0.250000 0.750000
O O2 0.145277 0.241002 0.797637
O O3 0.213251 0.182926 0.748978
O O4 0.219457 0.220149 0.000000
O O5 0.500000 0.150340 0.234364
O O6 0.580252 0.200695 0.227711
O O7 0.605940 0.129398 0.228589
O O8 0.561508 0.161647 0.000000
O O9 0.602259 0.785222 0.500000
O O10 0.682600 0.807645 0.674928
O O11 0.875854 0.500000 0.791632
O O12 0.840593 0.432975 0.748078
O O13 0.946211 0.443967 0.754990
O O14 0.890447 0.449695 0.000000
O O15 0.250983 0.846220 0.500000
O O16 0.283730 0.872528 0.241557
O O17 0.333372 0.894962 0.000000
O O18 0.500000 0.000000 0.147815
O O19 0.500000 0.938321 0.000000
#
# Coordination Sequence:
#
# PCOD8288162 Si02
#       7
#    16  16  16  16  16  16   8
#     4   9  15  23  36  53  71  88 109 134 163 199
#     4   9  18  29  38  50  68  89 113 142 173 207
#     4   8  15  25  36  51  68  87 110 135 161 197
#     4  10  20  32  43  55  70  86 108 140 177 215
#     4   9  16  26  38  53  72  89 108 133 166 206
#     4  10  19  29  42  55  70  90 113 141 175 215
#     4   9  17  29  43  55  65  79 103 135 169 207
#
# _framework density 13.196194999999999
#
# number of rings (size 3 to 8) (size 9 to 14) (size 15 to 20)
#    0.000    2.846    0.000    3.000    1.077    7.077 
#    0.000    0.000    0.000    0.000    0.000    0.000 
#    0.000    0.000    0.000    0.000    0.000    0.000 
#
# Total GULP energy -644397.055698 kJ/mol
# GULP energy per Si atom -12392.251071 kJ/mol
# Density = 1.316616 g / cm^3
# Si number density = 13.196195 Si / 1000 Ang^3
#
#
#
# Elastic Constant Matrix: (Units=GPa)
#
#
# Indices 1 2 3 4 5 6 
#
# 1 13.7484 20.7534 13.3301 0.0000 0.0000 0.0000
# 2 20.7534 68.4482 36.7755 0.0000 0.0000 0.0000
# 3 13.3301 36.7755 70.8646 0.0000 0.0001 0.0000
# 4 0.0000 0.0000 0.0000 22.2798 0.0000 0.0000
# 5 0.0000 0.0000 0.0001 0.0000 16.1076 0.0000
# 6 0.0000 0.0000 0.0000 0.0000 0.0000 21.1785
#
#
#
# Elastic Compliance Matrix: (Units=1/GPa)
#
#
# Indices 1 2 3 4 5 6 
#
# 1 0.135814 -0.038066 -0.005793 0.000000 0.000000 0.000000
# 2 -0.038066 0.030927 -0.008889 0.000000 0.000000 0.000000
# 3 -0.005793 -0.008889 0.019814 0.000000 0.000000 0.000000
# 4 0.000000 0.000000 0.000000 0.044884 0.000000 0.000000
# 5 0.000000 0.000000 0.000000 0.000000 0.062082 0.000000
# 6 0.000000 0.000000 0.000000 0.000000 0.000000 0.047218
#
#
# Mechanical properties :
#
#
# Convention : Reuss Voigt Hill
#
# Bulk Modulus (GPa) = 12.33673 32.75323 22.54498
# Shear Modulus (GPa) = 10.56510 17.39332 13.97921
#
# Velocity S-wave (km/s) = 2.83259 3.63444 3.25828
# Velocity P-wave (km/s) = 4.47963 6.51815 5.59256
#
# Compressibility (1/GPa) = 0.08105878
#
# Stress axis : x y z
#
# Youngs Moduli (GPa) = 7.36300 32.33389 50.46879
#
# Poissons Ratio (x) = 1.23083 0.29235
# Poissons Ratio (y) = 0.28028 0.44863
# Poissons Ratio (z) = 0.04265 0.28743
#
# Static dielectric constant tensor:
#      x y z
#    x 2.716520 0.000000 0.000000 
#    y 0.000000 2.948160 0.000000 
#    z 0.000000 0.000000 2.772840 
# 
# 
# High freq. dielectric constant tensor:
#      x y z
#    x 1.443060 0.000000 0.000000 
#    y 0.000000 1.484910 0.000000 
#    z 0.000000 0.000000 1.519230 
# 
# From -- ./inp_files/15783.got.cif
#   From: 2010.06.25/outbox.cif.g09.slc.cpg/sg71_8_cif.got.tgz:15783.got - 2010.06.28 04:59:45.
