data_PCOD8288510
_publ_section_title
;
Structure prediction by ZEFSAII (Michael W. Deem and Ramdas Pophale) SiO2 
 PCOD8288510
Probable space group: I M M M
;
_chemical_formula_sum "Si O2"
_cell_formula_units_Z 80
_cell_length_a 9.900217
_cell_length_b 18.852832
_cell_length_c 29.536497
_cell_angle_alpha 90.000000
_cell_angle_beta 90.000000
_cell_angle_gamma 90.000000
_cell_volume 5512.902332
_symmetry_space_group_name_H-M "I M M M"
_symmetry_group_IT_number 71
_symmetry_cell_setting 'orthorhombic'
loop_
_space_group_symop_operation_xyz
x,y,z
-x,-y,z
x,-y,-z
-x,y,-z
-x,-y,-z
x,y,-z
-x,y,z
x,-y,z
1/2+x,1/2+y,1/2+z
1/2-x,1/2-y,1/2+z
1/2+x,1/2-y,1/2-z
1/2-x,1/2+y,1/2-z
1/2-x,1/2-y,1/2-z
1/2+x,1/2+y,1/2-z
1/2-x,1/2+y,1/2+z
1/2+x,1/2-y,1/2+z
loop_
_atom_site_type_symbol
_atom_site_label
_atom_site_fract_x
_atom_site_fract_y
_atom_site_fract_z
Si Si1 0.500000 0.420170 0.947366
Si Si2 0.240646 0.130282 0.605332
Si Si3 0.500000 0.084566 0.553813
Si Si4 0.657879 0.728009 0.817543
Si Si5 0.841813 0.000000 0.762777
Si Si6 0.655808 0.655262 0.723348
Si Si7 0.838070 0.000000 0.663346
O O1 0.500000 0.500000 0.925150
O O2 0.627514 0.374566 0.932951
O O3 0.500000 0.430454 0.000000
O O4 0.377575 0.124935 0.577536
O O5 0.223556 0.201036 0.635414
O O6 0.225037 0.067662 0.640358
O O7 0.500000 0.098271 0.500000
O O8 0.500000 0.000000 0.563421
O O9 0.500000 0.746322 0.824920
O O10 0.672626 0.670553 0.777102
O O11 0.740977 0.798307 0.805498
O O12 0.802574 0.073456 0.787863
O O13 0.775997 0.000000 0.713391
O O14 0.000000 0.000000 0.754811
O O15 0.500000 0.670794 0.709220
O O16 0.000000 0.000000 0.661795
#
# Coordination Sequence:
#
# PCOD8288510 Si02
#       7
#     8  16   8  16   8  16   8
#     4  11  20  30  48  69  86 113 159 202 231 267
#     4  12  19  32  48  64  88 124 160 196 232 273
#     4  11  24  36  44  63  96 125 153 198 247 277
#     4  10  19  31  46  67  92 119 156 196 230 268
#     4   9  16  28  48  67  93 121 158 198 229 265
#     4   9  18  30  46  67  92 121 153 192 234 270
#     4  11  16  27  46  70  86 118 166 199 223 260
#
# _framework density 14.511412999999999
#
# number of rings (size 3 to 8) (size 9 to 14) (size 15 to 20)
#    0.000    1.600    6.000    0.600    1.400    1.600 
#    0.000    0.500    2.200    0.000    0.000    0.000 
#    0.000    0.000    0.000    5.400    0.000    0.100 
#
# Total GULP energy -495688.678372 kJ/mol
# GULP energy per Si atom -12392.216959 kJ/mol
# Density = 1.447838 g / cm^3
# Si number density = 14.511413 Si / 1000 Ang^3
#
#
#
# Elastic Constant Matrix: (Units=GPa)
#
#
# Indices 1 2 3 4 5 6 
#
# 1 110.4528 46.4687 48.4770 0.0000 0.0000 0.0000
# 2 46.4687 94.7629 39.0303 0.0000 0.0000 0.0000
# 3 48.4770 39.0303 74.4032 0.0000 0.0000 0.0000
# 4 0.0000 0.0000 0.0000 24.2496 0.0000 0.0000
# 5 0.0000 0.0000 0.0000 0.0000 1233.5101 0.0000
# 6 0.0000 0.0000 0.0000 0.0000 0.0000 28.6347
#
#
#
# Elastic Compliance Matrix: (Units=1/GPa)
#
#
# Indices 1 2 3 4 5 6 
#
# 1 0.013716 -0.003884 -0.006899 0.000000 0.000000 0.000000
# 2 -0.003884 0.014561 -0.005108 0.000000 0.000000 0.000000
# 3 -0.006899 -0.005108 0.020614 0.000000 0.000000 0.000000
# 4 0.000000 0.000000 0.000000 0.041238 0.000000 0.000000
# 5 0.000000 0.000000 0.000000 0.000000 0.000811 0.000000
# 6 0.000000 0.000000 0.000000 0.000000 0.000000 0.034923
#
#
# Mechanical properties :
#
#
# Convention : Reuss Voigt Hill
#
# Bulk Modulus (GPa) = 58.44583 60.84120 59.64351
# Shear Modulus (GPa) = 30.60970 266.98840 148.79905
#
# Velocity S-wave (km/s) = 4.59775 13.57883 10.13716
# Velocity P-wave (km/s) = 8.27943 16.96654 13.34939
#
# Compressibility (1/GPa) = 0.01710986
#
# Stress axis : x y z
#
# Youngs Moduli (GPa) = 72.90966 68.67617 48.50962
#
# Poissons Ratio (x) = 0.26676 0.33465
# Poissons Ratio (y) = 0.28320 0.24777
# Poissons Ratio (z) = 0.50298 0.35077
#
# Static dielectric constant tensor:
#      x y z
#    x 7.151860 0.000000 0.000000 
#    y 0.000000 2.987960 0.000000 
#    z 0.000000 0.000000 2.713620 
# 
# 
# High freq. dielectric constant tensor:
#      x y z
#    x 1.555790 0.000000 0.000000 
#    y 0.000000 1.531810 0.000000 
#    z 0.000000 0.000000 1.535270 
# 
# From -- ./inp_files/10794.got.cif
#   From: 2010.06.25/outbox.cif.g09.slc.cpg/sg71_6_cif.got.tgz:10794.got - 2010.06.28 04:59:45.
