data_PCOD8288146
_publ_section_title
;
Structure prediction by ZEFSAII (Michael W. Deem and Ramdas Pophale) SiO2 
 PCOD8288146
Probable space group: I M M M
;
_chemical_formula_sum "Si O2"
_cell_formula_units_Z 96
_cell_length_a 28.167527
_cell_length_b 9.015124
_cell_length_c 28.936528
_cell_angle_alpha 90.000000
_cell_angle_beta 90.000000
_cell_angle_gamma 90.000000
_cell_volume 7347.961029
_symmetry_space_group_name_H-M "I M M M"
_symmetry_group_IT_number 71
_symmetry_cell_setting 'orthorhombic'
loop_
_space_group_symop_operation_xyz
x,y,z
-x,-y,z
x,-y,-z
-x,y,-z
-x,-y,-z
x,y,-z
-x,y,z
x,-y,z
1/2+x,1/2+y,1/2+z
1/2-x,1/2-y,1/2+z
1/2+x,1/2-y,1/2-z
1/2-x,1/2+y,1/2-z
1/2-x,1/2-y,1/2-z
1/2+x,1/2+y,1/2-z
1/2-x,1/2+y,1/2+z
1/2+x,1/2-y,1/2+z
loop_
_atom_site_type_symbol
_atom_site_label
_atom_site_fract_x
_atom_site_fract_y
_atom_site_fract_z
Si Si1 0.000000 0.823889 0.798845
Si Si2 0.324133 0.669109 0.765381
Si Si3 0.766807 0.330537 0.189811
Si Si4 0.904829 0.327029 0.221607
Si Si5 0.500000 0.676286 0.595918
Si Si6 0.596755 0.324278 0.551869
Si Si7 0.651373 0.831787 0.371840
O O1 0.046148 0.760525 0.773453
O O2 0.000000 0.766414 0.851612
O O3 0.000000 0.000000 0.795593
O O4 0.341379 0.500000 0.760583
O O5 0.290839 0.690721 0.811505
O O6 0.288970 0.708463 0.723507
O O7 0.370558 0.773352 0.763629
O O8 0.778600 0.500000 0.206918
O O9 0.792536 0.309378 0.140064
O O10 0.914682 0.500000 0.227125
O O11 0.879907 0.287198 0.172944
O O12 0.500000 0.500000 0.594544
O O13 0.453492 0.739182 0.570217
O O14 0.605283 0.265118 0.500000
O O15 0.595974 0.500000 0.552815
O O16 0.639089 0.270380 0.584733
O O17 0.640251 0.000000 0.385973
#
# Coordination Sequence:
#
# PCOD8288146 Si02
#       7
#     8  16  16  16   8  16  16
#     4  11  19  28  43  57  68  92 128 155 182 224
#     4   9  15  24  39  56  72  91 116 141 169 211
#     4   8  15  26  38  54  74  93 111 138 176 214
#     4  10  19  29  39  53  75  96 115 145 186 219
#     4   9  17  29  42  53  65  83 115 155 193 228
#     4  10  19  30  42  54  68  88 117 155 195 230
#     4   9  17  28  40  53  71  92 113 141 182 226
#
# _framework density 13.064849000000001
#
# number of rings (size 3 to 8) (size 9 to 14) (size 15 to 20)
#    0.000    2.667    1.667    2.500    0.000    4.667 
#    0.000    0.417    0.000    1.000    0.000    0.000 
#    0.000    0.000    0.000    0.000    0.000    0.000 
#
# Total GULP energy -594792.359626 kJ/mol
# GULP energy per Si atom -12391.507492 kJ/mol
# Density = 1.303511 g / cm^3
# Si number density = 13.064849 Si / 1000 Ang^3
#
#
#
# Elastic Constant Matrix: (Units=GPa)
#
#
# Indices 1 2 3 4 5 6 
#
# 1 96.3838 33.1106 46.2953 0.0000 0.0000 0.0000
# 2 33.1106 44.4710 16.9510 0.0000 0.0000 0.0000
# 3 46.2953 16.9510 40.8109 0.0000 0.0000 0.0000
# 4 0.0000 0.0000 0.0000 14.3529 0.0000 0.0000
# 5 0.0000 0.0000 0.0000 0.0000 16.2455 0.0000
# 6 0.0000 0.0000 0.0000 0.0000 0.0000 21.1883
#
#
#
# Elastic Compliance Matrix: (Units=1/GPa)
#
#
# Indices 1 2 3 4 5 6 
#
# 1 0.025827 -0.009578 -0.025320 0.000000 0.000000 0.000000
# 2 -0.009578 0.030269 -0.001707 0.000000 0.000000 0.000000
# 3 -0.025320 -0.001707 0.053934 0.000000 0.000000 0.000000
# 4 0.000000 0.000000 0.000000 0.069672 0.000000 0.000000
# 5 0.000000 0.000000 0.000000 0.000000 0.061556 0.000000
# 6 0.000000 0.000000 0.000000 0.000000 0.000000 0.047196
#
#
# Mechanical properties :
#
#
# Convention : Reuss Voigt Hill
#
# Bulk Modulus (GPa) = 27.15845 41.59769 34.37807
# Shear Modulus (GPa) = 13.37124 16.04457 14.70791
#
# Velocity S-wave (km/s) = 3.20261 3.50819 3.35888
# Velocity P-wave (km/s) = 5.87437 6.95114 6.43531
#
# Compressibility (1/GPa) = 0.03682095
#
# Stress axis : x y z
#
# Youngs Moduli (GPa) = 38.71886 33.03749 18.54111
#
# Poissons Ratio (x) = 0.31645 0.46945
# Poissons Ratio (y) = 0.37087 0.03164
# Poissons Ratio (z) = 0.98034 0.05638
#
# Static dielectric constant tensor:
#      x y z
#    x 2.803170 0.000000 0.000000 
#    y 0.000000 2.612160 0.000000 
#    z 0.000000 0.000000 2.405750 
# 
# 
# High freq. dielectric constant tensor:
#      x y z
#    x 1.492110 0.000000 0.000000 
#    y 0.000000 1.503360 0.000000 
#    z 0.000000 0.000000 1.440010 
# 
# From -- ./inp_files/71250.got.cif
#   From: 2010.06.25/outbox.cif.g09.slc.cpg/sg71_36_cif.got.tgz:71250.got - 2010.06.28 04:59:45.
