data_PCOD8288940
_publ_section_title
;
Structure prediction by ZEFSAII (Michael W. Deem and Ramdas Pophale) SiO2 
 PCOD8288940
Probable space group: I M M M
;
_chemical_formula_sum "Si O2"
_cell_formula_units_Z 104
_cell_length_a 25.824204
_cell_length_b 23.378938
_cell_length_c 9.616612
_cell_angle_alpha 90.000000
_cell_angle_beta 90.000000
_cell_angle_gamma 90.000000
_cell_volume 5805.957026
_symmetry_space_group_name_H-M "I M M M"
_symmetry_group_IT_number 71
_symmetry_cell_setting 'orthorhombic'
loop_
_space_group_symop_operation_xyz
x,y,z
-x,-y,z
x,-y,-z
-x,y,-z
-x,-y,-z
x,y,-z
-x,y,z
x,-y,z
1/2+x,1/2+y,1/2+z
1/2-x,1/2-y,1/2+z
1/2+x,1/2-y,1/2-z
1/2-x,1/2+y,1/2-z
1/2-x,1/2-y,1/2-z
1/2+x,1/2+y,1/2-z
1/2-x,1/2+y,1/2+z
1/2+x,1/2-y,1/2+z
loop_
_atom_site_type_symbol
_atom_site_label
_atom_site_fract_x
_atom_site_fract_y
_atom_site_fract_z
Si Si1 0.500000 0.063371 0.166491
Si Si2 0.246910 0.156746 0.662450
Si Si3 0.295945 0.934537 0.846154
Si Si4 0.649456 0.214774 0.654541
Si Si5 0.941505 0.064996 0.835217
Si Si6 0.399993 0.124027 0.843392
Si Si7 0.355561 0.343707 0.657810
O O1 0.549313 0.096968 0.224653
O O2 0.500000 0.000000 0.229652
O O3 0.500000 0.060462 0.000000
O O4 0.234146 0.152289 0.500000
O O5 0.270394 0.097872 0.718288
O O6 0.288814 0.207839 0.693678
O O7 0.193571 0.162295 0.743409
O O8 0.357255 0.925589 0.838344
O O9 0.281737 0.000000 0.825786
O O10 0.276319 0.913719 0.000000
O O11 0.643573 0.188677 0.500000
O O12 0.614887 0.180237 0.760526
O O13 0.625417 0.278323 0.656487
O O14 0.899286 0.112137 0.781860
O O15 0.000000 0.079205 0.779881
O O16 0.925977 0.000000 0.788016
O O17 0.942609 0.067934 0.000000
O O18 0.410311 0.144739 0.000000
O O19 0.340372 0.362495 0.500000
#
# Coordination Sequence:
#
# PCOD8288940 Si02
#       7
#     8  16  16  16  16  16  16
#     4   9  16  28  49  75  99 125 164 211 252 290
#     4  10  20  32  47  69 101 134 163 199 247 296
#     4   9  17  30  48  69  94 127 167 206 244 289
#     4   9  19  34  48  68 100 134 165 200 244 294
#     4   8  15  30  52  76  99 121 151 198 251 295
#     4   9  17  30  49  71  95 127 166 207 248 289
#     4  10  19  32  52  76  98 125 165 203 239 290
#
# _framework density 17.912637
#
# number of rings (size 3 to 8) (size 9 to 14) (size 15 to 20)
#    0.000    2.846    0.000    1.846    0.000    4.000 
#    1.385    1.923    0.000    2.308    0.000    1.077 
#    0.000    0.000    0.000    0.000    0.000    0.000 
#
# Total GULP energy -644194.615583 kJ/mol
# GULP energy per Si atom -12388.357992 kJ/mol
# Density = 1.787187 g / cm^3
# Si number density = 17.912637 Si / 1000 Ang^3
#
#
#
# Elastic Constant Matrix: (Units=GPa)
#
#
# Indices 1 2 3 4 5 6 
#
# 1 96.2543 53.2072 37.2229 0.0000 0.0000 0.0000
# 2 53.2072 99.0244 32.1153 0.0000 0.0000 0.0000
# 3 37.2229 32.1153 54.9550 0.0000 0.0000 0.0000
# 4 0.0000 0.0000 0.0000 18.7334 0.0000 0.0000
# 5 0.0000 0.0000 0.0000 0.0000 -95.1808 0.0000
# 6 0.0000 0.0000 0.0000 0.0000 0.0000 21.4624
#
#
#
# Elastic Compliance Matrix: (Units=1/GPa)
#
#
# Indices 1 2 3 4 5 6 
#
# 1 0.017032 -0.006675 -0.007635 0.000000 0.000000 0.000000
# 2 -0.006675 0.015076 -0.004289 0.000000 0.000000 0.000000
# 3 -0.007635 -0.004289 0.025875 0.000000 0.000000 0.000000
# 4 0.000000 0.000000 0.000000 0.053381 0.000000 0.000000
# 5 0.000000 0.000000 0.000000 0.000000 -0.010506 0.000000
# 6 0.000000 0.000000 0.000000 0.000000 0.000000 0.046593
#
#
# Mechanical properties :
#
#
# Convention : Reuss Voigt Hill
#
# Bulk Modulus (GPa) = 48.11457 55.03607 51.57532
# Shear Modulus (GPa) = 26.09919 -2.48444 11.80738
#
# Velocity S-wave (km/s) = 3.82124 -1.17898 2.57021
# Velocity P-wave (km/s) = 6.81089 5.37941 6.13703
#
# Compressibility (1/GPa) = 0.02078372
#
# Stress axis : x y z
#
# Youngs Moduli (GPa) = 58.71421 66.32978 38.64761
#
# Poissons Ratio (x) = 0.44276 0.29508
# Poissons Ratio (y) = 0.39192 0.16576
# Poissons Ratio (z) = 0.44830 0.28450
#
# Static dielectric constant tensor:
#      x y z
#    x 3.386760 0.000000 0.000000 
#    y 0.000000 3.378850 0.000000 
#    z 0.000000 0.000000 3.125080 
# 
# 
# High freq. dielectric constant tensor:
#      x y z
#    x 1.685880 0.000000 0.000000 
#    y 0.000000 1.691670 0.000000 
#    z 0.000000 0.000000 1.666390 
# 
# From -- ./inp_files/15245.got.cif
#   From: 2010.06.25/outbox.cif.g09.slc.cpg/sg71_8_cif.got.tgz:15245.got - 2010.06.28 04:59:45.
