data_PCOD8288178
_publ_section_title
;
Structure prediction by ZEFSAII (Michael W. Deem and Ramdas Pophale) SiO2 
 PCOD8288178
Probable space group: I M M M
;
_chemical_formula_sum "Si O2"
_cell_formula_units_Z 72
_cell_length_a 27.798392
_cell_length_b 19.303689
_cell_length_c 8.693108
_cell_angle_alpha 90.000000
_cell_angle_beta 90.000000
_cell_angle_gamma 90.000000
_cell_volume 4664.821844
_symmetry_space_group_name_H-M "I M M M"
_symmetry_group_IT_number 71
_symmetry_cell_setting 'orthorhombic'
loop_
_space_group_symop_operation_xyz
x,y,z
-x,-y,z
x,-y,-z
-x,y,-z
-x,-y,-z
x,y,-z
-x,y,z
x,-y,z
1/2+x,1/2+y,1/2+z
1/2-x,1/2-y,1/2+z
1/2+x,1/2-y,1/2-z
1/2-x,1/2+y,1/2-z
1/2-x,1/2-y,1/2-z
1/2+x,1/2+y,1/2-z
1/2-x,1/2+y,1/2+z
1/2+x,1/2-y,1/2+z
loop_
_atom_site_type_symbol
_atom_site_label
_atom_site_fract_x
_atom_site_fract_y
_atom_site_fract_z
Si Si1 0.655242 0.000000 0.817470
Si Si2 0.738085 0.500000 0.318448
Si Si3 0.596567 0.868715 0.818102
Si Si4 0.769172 0.149882 0.818893
Si Si5 0.500000 0.920156 0.681916
Si Si6 0.676322 0.784203 0.319158
O O1 0.708454 0.000000 0.747225
O O2 0.627559 0.933059 0.756637
O O3 0.656353 0.000000 0.000000
O O4 0.742088 0.500000 0.500000
O O5 0.712587 0.427583 0.268032
O O6 0.544848 0.875594 0.740947
O O7 0.625493 0.800516 0.762730
O O8 0.589937 0.867070 0.000000
O O9 0.718655 0.165101 0.736586
O O10 0.809859 0.205222 0.772503
O O11 0.758288 0.153382 0.000000
O O12 0.500000 0.921935 0.500000
O O13 0.500000 0.000000 0.746003
O O14 0.669850 0.792414 0.500000
#
# Coordination Sequence:
#
# PCOD8288178 Si02
#       6
#     8   8  16  16   8  16
#     4   9  16  25  43  64  83 113 155 191 212 249
#     4   9  14  26  45  65  84 114 157 191 217 258
#     4  11  20  33  49  63  85 122 160 187 219 269
#     4   9  17  29  45  63  86 118 154 188 225 273
#     4  11  23  35  47  69  95 114 143 194 239 261
#     4  10  19  29  42  64  91 117 148 190 234 267
#
# _framework density 15.434673999999999
#
# number of rings (size 3 to 8) (size 9 to 14) (size 15 to 20)
#    0.000    2.111    3.333    1.667    0.000    1.333 
#    0.000    1.667    0.000    0.000    0.000    0.000 
#    0.000    0.889    0.000   10.444    0.000    2.000 
#
# Total GULP energy -446174.609293 kJ/mol
# GULP energy per Si atom -12393.739147 kJ/mol
# Density = 1.539954 g / cm^3
# Si number density = 15.434674 Si / 1000 Ang^3
#
#
#
# Elastic Constant Matrix: (Units=GPa)
#
#
# Indices 1 2 3 4 5 6 
#
# 1 93.9268 53.4252 27.2323 0.0000 0.0000 0.0000
# 2 53.4252 124.5783 22.5396 0.0000 0.0000 0.0000
# 3 27.2323 22.5396 46.3065 0.0000 0.0000 0.0000
# 4 0.0000 0.0000 0.0000 17.2865 0.0000 0.0000
# 5 0.0000 0.0000 0.0000 0.0000 22.9786 0.0000
# 6 0.0000 0.0000 0.0000 0.0000 0.0000 21.7554
#
#
#
# Elastic Compliance Matrix: (Units=1/GPa)
#
#
# Indices 1 2 3 4 5 6 
#
# 1 0.015697 -0.005550 -0.006529 0.000000 0.000000 0.000000
# 2 -0.005550 0.010765 -0.001976 0.000000 0.000000 0.000000
# 3 -0.006529 -0.001976 0.026397 0.000000 0.000000 0.000000
# 4 0.000000 0.000000 0.000000 0.057849 0.000000 0.000000
# 5 0.000000 0.000000 0.000000 0.000000 0.043519 0.000000
# 6 0.000000 0.000000 0.000000 0.000000 0.000000 0.045966
#
#
# Mechanical properties :
#
#
# Convention : Reuss Voigt Hill
#
# Bulk Modulus (GPa) = 40.40816 52.35618 46.38217
# Shear Modulus (GPa) = 21.13713 23.17841 22.15777
#
# Velocity S-wave (km/s) = 3.70463 3.87940 3.79302
# Velocity P-wave (km/s) = 6.67353 7.35262 7.02129
#
# Compressibility (1/GPa) = 0.02474748
#
# Stress axis : x y z
#
# Youngs Moduli (GPa) = 63.70831 92.89635 37.88337
#
# Poissons Ratio (x) = 0.51558 0.24736
# Poissons Ratio (y) = 0.35359 0.07485
# Poissons Ratio (z) = 0.41598 0.18354
#
# Static dielectric constant tensor:
#      x y z
#    x 2.798350 0.000000 0.000000 
#    y 0.000000 3.288020 0.000000 
#    z 0.000000 0.000000 2.841390 
# 
# 
# High freq. dielectric constant tensor:
#      x y z
#    x 1.559140 0.000000 0.000000 
#    y 0.000000 1.586710 0.000000 
#    z 0.000000 0.000000 1.586500 
# 
# From -- ./inp_files/10181.got.cif
#   From: 2010.06.25/outbox.cif.g09.slc.cpg/sg71_6_cif.got.tgz:10181.got - 2010.06.28 04:59:45.
