data_PCOD8288804
_publ_section_title
;
Structure prediction by ZEFSAII (Michael W. Deem and Ramdas Pophale) SiO2 
 PCOD8288804
Probable space group: I M M M
;
_chemical_formula_sum "Si O2"
_cell_formula_units_Z 88
_cell_length_a 9.118867
_cell_length_b 19.390597
_cell_length_c 27.468669
_cell_angle_alpha 90.000000
_cell_angle_beta 90.000000
_cell_angle_gamma 90.000000
_cell_volume 4857.017609
_symmetry_space_group_name_H-M "I M M M"
_symmetry_group_IT_number 71
_symmetry_cell_setting 'orthorhombic'
loop_
_space_group_symop_operation_xyz
x,y,z
-x,-y,z
x,-y,-z
-x,y,-z
-x,-y,-z
x,y,-z
-x,y,z
x,-y,z
1/2+x,1/2+y,1/2+z
1/2-x,1/2-y,1/2+z
1/2+x,1/2-y,1/2-z
1/2-x,1/2+y,1/2-z
1/2-x,1/2-y,1/2-z
1/2+x,1/2+y,1/2-z
1/2-x,1/2+y,1/2+z
1/2+x,1/2-y,1/2+z
loop_
_atom_site_type_symbol
_atom_site_label
_atom_site_fract_x
_atom_site_fract_y
_atom_site_fract_z
Si Si1 0.174293 0.424505 0.054497
Si Si2 0.173102 0.300157 0.881472
Si Si3 0.326093 0.923324 0.192193
Si Si4 0.825982 0.421656 0.500000
Si Si5 0.671442 0.184350 0.270557
Si Si6 0.825643 0.657603 0.403099
O O1 0.226426 0.500000 0.073501
O O2 0.237352 0.363722 0.087626
O O3 0.000000 0.421886 0.055358
O O4 0.232903 0.412746 0.000000
O O5 0.213297 0.321928 0.826774
O O6 0.253698 0.232378 0.900257
O O7 0.000000 0.288804 0.888095
O O8 0.500000 0.928058 0.190386
O O9 0.273904 0.882483 0.240441
O O10 0.269760 0.885753 0.143396
O O11 0.257781 0.000000 0.194379
O O12 0.763033 0.500000 0.500000
O O13 0.771218 0.381302 0.548106
O O14 0.000000 0.425209 0.500000
O O15 0.500000 0.194765 0.262554
O O16 0.750000 0.250000 0.250000
O O17 0.000000 0.666380 0.402853
#
# Coordination Sequence:
#
# PCOD8288804 Si02
#       6
#    16  16  16   8  16  16
#     4   8  15  29  48  70  97 128 160 195 238 285
#     4  10  20  31  49  76 102 128 160 202 245 288
#     4   9  17  30  50  73  95 125 165 202 237 282
#     4   9  18  32  51  75 100 127 166 212 247 281
#     4  10  19  32  49  71  99 128 159 198 242 285
#     4  10  19  32  51  74 100 131 163 199 244 292
#
# _framework density 18.118113999999998
#
# number of rings (size 3 to 8) (size 9 to 14) (size 15 to 20)
#    0.000    2.636    1.818    1.091    1.273    2.909 
#    0.000    3.636    0.000    4.909    0.000    3.818 
#    0.000    0.000    0.000    0.000    0.000    0.000 
#
# Total GULP energy -545434.415470 kJ/mol
# GULP energy per Si atom -12396.236715 kJ/mol
# Density = 1.807688 g / cm^3
# Si number density = 18.118114 Si / 1000 Ang^3
#
#
#
# Elastic Constant Matrix: (Units=GPa)
#
#
# Indices 1 2 3 4 5 6 
#
# 1 13.2793 26.4903 23.9908 0.0000 0.0000 0.0000
# 2 26.4903 207.7280 112.7702 0.0000 0.0000 0.0000
# 3 23.9908 112.7702 155.6309 0.0000 0.0000 0.0000
# 4 0.0000 0.0000 0.0000 41.8950 0.0000 0.0000
# 5 0.0000 0.0000 0.0000 0.0000 14.6817 0.0000
# 6 0.0000 0.0000 0.0000 0.0000 0.0000 25.8282
#
#
#
# Elastic Compliance Matrix: (Units=1/GPa)
#
#
# Indices 1 2 3 4 5 6 
#
# 1 0.112070 -0.008099 -0.011407 0.000000 0.000000 0.000000
# 2 -0.008099 0.008521 -0.004926 0.000000 0.000000 0.000000
# 3 -0.011407 -0.004926 0.011753 0.000000 0.000000 0.000000
# 4 0.000000 0.000000 0.000000 0.023869 0.000000 0.000000
# 5 0.000000 0.000000 0.000000 0.000000 0.068112 0.000000
# 6 0.000000 0.000000 0.000000 0.000000 0.000000 0.038717
#
#
# Mechanical properties :
#
#
# Convention : Reuss Voigt Hill
#
# Bulk Modulus (GPa) = 11.97890 78.12675 45.05283
# Shear Modulus (GPa) = 14.71742 30.70677 22.71210
#
# Velocity S-wave (km/s) = 2.85319 4.12127 3.54440
# Velocity P-wave (km/s) = 4.18093 8.11548 6.45527
#
# Compressibility (1/GPa) = 0.08348009
#
# Stress axis : x y z
#
# Youngs Moduli (GPa) = 8.92298 117.35913 85.08362
#
# Poissons Ratio (x) = 0.95047 0.97058
# Poissons Ratio (y) = 0.07227 0.41910
# Poissons Ratio (z) = 0.10179 0.57808
#
# Static dielectric constant tensor:
#      x y z
#    x 2.850070 0.000000 0.000000 
#    y 0.000000 3.433600 0.000000 
#    z 0.000000 0.000000 3.601990 
# 
# 
# High freq. dielectric constant tensor:
#      x y z
#    x 1.644230 0.000000 0.000000 
#    y 0.000000 1.717500 0.000000 
#    z 0.000000 0.000000 1.715690 
# 
# From -- ./inp_files/8724.got.cif
#   From: 2010.06.25/outbox.cif.g09.slc.cpg/sg71_5_cif.got.tgz:8724.got - 2010.06.28 04:59:45.
