data_PCOD8288275
_publ_section_title
;
Structure prediction by ZEFSAII (Michael W. Deem and Ramdas Pophale) SiO2 
 PCOD8288275
Probable space group: I M M M
;
_chemical_formula_sum "Si O2"
_cell_formula_units_Z 104
_cell_length_a 24.931818
_cell_length_b 33.075872
_cell_length_c 8.629580
_cell_angle_alpha 90.000000
_cell_angle_beta 90.000000
_cell_angle_gamma 90.000000
_cell_volume 7116.310839
_symmetry_space_group_name_H-M "I M M M"
_symmetry_group_IT_number 71
_symmetry_cell_setting 'orthorhombic'
loop_
_space_group_symop_operation_xyz
x,y,z
-x,-y,z
x,-y,-z
-x,y,-z
-x,-y,-z
x,y,-z
-x,y,z
x,-y,z
1/2+x,1/2+y,1/2+z
1/2-x,1/2-y,1/2+z
1/2+x,1/2-y,1/2-z
1/2-x,1/2+y,1/2-z
1/2-x,1/2-y,1/2-z
1/2+x,1/2+y,1/2-z
1/2-x,1/2+y,1/2+z
1/2+x,1/2-y,1/2+z
loop_
_atom_site_type_symbol
_atom_site_label
_atom_site_fract_x
_atom_site_fract_y
_atom_site_fract_z
Si Si1 0.442725 0.242850 0.680993
Si Si2 0.724345 0.312116 0.180925
Si Si3 0.616557 0.545803 0.184999
Si Si4 0.000000 0.047516 0.667721
Si Si5 0.654240 0.377511 0.318704
Si Si6 0.672381 0.233907 0.682871
Si Si7 0.940443 0.171188 0.677193
O O1 0.448093 0.236878 0.500000
O O2 0.500000 0.227592 0.756636
O O3 0.387973 0.220035 0.735254
O O4 0.434488 0.289813 0.715592
O O5 0.707366 0.352570 0.271320
O O6 0.686460 0.274835 0.226790
O O7 0.785972 0.301635 0.225768
O O8 0.717892 0.320324 0.000000
O O9 0.631861 0.500000 0.232130
O O10 0.556693 0.557751 0.251573
O O11 0.659639 0.575693 0.265659
O O12 0.617603 0.550625 0.000000
O O13 0.000000 0.069549 0.500000
O O14 0.000000 0.000000 0.637900
O O15 0.645503 0.373920 0.500000
O O16 0.602614 0.361406 0.228008
O O17 0.674947 0.243718 0.500000
O O18 0.930036 0.184159 0.500000
O O19 0.000000 0.152158 0.696730
#
# Coordination Sequence:
#
# PCOD8288275 Si02
#       7
#    16  16  16   8  16  16  16
#     4   9  16  27  43  62  84 106 128 162 210 255
#     4  10  19  30  44  60  79 107 141 172 202 239
#     4   9  18  33  50  64  78  99 129 165 206 252
#     4   7  12  26  47  65  77  93 121 157 199 249
#     4  12  23  32  43  60  83 105 134 170 210 251
#     4   9  17  29  44  62  83 106 134 169 208 245
#     4  10  20  31  42  57  77 103 136 171 208 249
#
# _framework density 14.614314
#
# number of rings (size 3 to 8) (size 9 to 14) (size 15 to 20)
#    0.000    2.385    1.538    3.231    1.077    1.846 
#    0.000    0.000    0.000    1.385    0.000    0.000 
#    0.000    0.000    0.000    0.000    0.000    0.769 
#
# Total GULP energy -644202.417668 kJ/mol
# GULP energy per Si atom -12388.508032 kJ/mol
# Density = 1.458105 g / cm^3
# Si number density = 14.614314 Si / 1000 Ang^3
#
#
#
# Elastic Constant Matrix: (Units=GPa)
#
#
# Indices 1 2 3 4 5 6 
#
# 1 116.8003 41.5174 18.3085 0.0000 0.0000 0.0000
# 2 41.5174 62.4694 11.7101 0.0000 0.0000 0.0000
# 3 18.3085 11.7101 24.1683 0.0000 0.0000 0.0000
# 4 0.0000 0.0000 0.0000 17.0818 0.0000 0.0000
# 5 0.0000 0.0000 0.0000 0.0000 13.8389 0.0000
# 6 0.0000 0.0000 0.0000 0.0000 0.0000 21.4788
#
#
#
# Elastic Compliance Matrix: (Units=1/GPa)
#
#
# Indices 1 2 3 4 5 6 
#
# 1 0.011881 -0.006829 -0.005692 0.000000 0.000000 0.000000
# 2 -0.006829 0.021533 -0.005259 0.000000 0.000000 0.000000
# 3 -0.005692 -0.005259 0.048236 0.000000 0.000000 0.000000
# 4 0.000000 0.000000 0.000000 0.058542 0.000000 0.000000
# 5 0.000000 0.000000 0.000000 0.000000 0.072260 0.000000
# 6 0.000000 0.000000 0.000000 0.000000 0.000000 0.046558
#
#
# Mechanical properties :
#
#
# Convention : Reuss Voigt Hill
#
# Bulk Modulus (GPa) = 21.69696 38.50111 30.09903
# Shear Modulus (GPa) = 16.13245 19.27336 17.70290
#
# Velocity S-wave (km/s) = 3.32607 3.63547 3.48421
# Velocity P-wave (km/s) = 5.44325 6.63507 6.06849
#
# Compressibility (1/GPa) = 0.04608941
#
# Stress axis : x y z
#
# Youngs Moduli (GPa) = 84.16539 46.44110 20.73124
#
# Poissons Ratio (x) = 0.31717 0.11799
# Poissons Ratio (y) = 0.57481 0.10903
# Poissons Ratio (z) = 0.47904 0.24425
#
# Static dielectric constant tensor:
#      x y z
#    x 3.218250 0.000000 0.000000 
#    y 0.000000 2.649680 0.000000 
#    z 0.000000 0.000000 2.770120 
# 
# 
# High freq. dielectric constant tensor:
#      x y z
#    x 1.548060 0.000000 0.000000 
#    y 0.000000 1.515470 0.000000 
#    z 0.000000 0.000000 1.556460 
# 
# From -- ./inp_files/15541.got.cif
#   From: 2010.06.25/outbox.cif.g09.slc.cpg/sg71_8_cif.got.tgz:15541.got - 2010.06.28 04:59:45.
