data_PCOD8288726
_publ_section_title
;
Structure prediction by ZEFSAII (Michael W. Deem and Ramdas Pophale) SiO2 
 PCOD8288726
Probable space group: I M M M
;
_chemical_formula_sum "Si O2"
_cell_formula_units_Z 128
_cell_length_a 18.291743
_cell_length_b 23.550450
_cell_length_c 16.535173
_cell_angle_alpha 90.000000
_cell_angle_beta 90.000000
_cell_angle_gamma 90.000000
_cell_volume 7123.001634
_symmetry_space_group_name_H-M "I M M M"
_symmetry_group_IT_number 71
_symmetry_cell_setting 'orthorhombic'
loop_
_space_group_symop_operation_xyz
x,y,z
-x,-y,z
x,-y,-z
-x,y,-z
-x,-y,-z
x,y,-z
-x,y,z
x,-y,z
1/2+x,1/2+y,1/2+z
1/2-x,1/2-y,1/2+z
1/2+x,1/2-y,1/2-z
1/2-x,1/2+y,1/2-z
1/2-x,1/2-y,1/2-z
1/2+x,1/2+y,1/2-z
1/2-x,1/2+y,1/2+z
1/2+x,1/2-y,1/2+z
loop_
_atom_site_type_symbol
_atom_site_label
_atom_site_fract_x
_atom_site_fract_y
_atom_site_fract_z
Si Si1 0.686794 0.143201 0.908347
Si Si2 0.169060 0.935236 0.590876
Si Si3 0.783934 0.934167 0.181374
Si Si4 0.217476 0.747887 0.906169
Si Si5 0.416740 0.393460 0.240383
Si Si6 0.919386 0.228320 0.192297
Si Si7 0.784300 0.628737 0.831958
Si Si8 0.916898 0.651220 0.737720
O O1 0.747905 0.093070 0.898778
O O2 0.722425 0.204162 0.889824
O O3 0.618619 0.133606 0.848080
O O4 0.657536 0.140292 0.000000
O O5 0.139877 0.928222 0.500000
O O6 0.112543 0.904321 0.649855
O O7 0.252270 0.910318 0.596190
O O8 0.173646 0.000000 0.618354
O O9 0.871863 0.927958 0.189641
O O10 0.756114 0.892638 0.251996
O O11 0.760383 0.000000 0.189146
O O12 0.138032 0.771047 0.880795
O O13 0.237813 0.693657 0.851417
O O14 0.214342 0.730375 0.000000
O O15 0.500000 0.414498 0.246698
O O16 0.408587 0.326582 0.252715
O O17 0.911969 0.281139 0.253483
O O18 0.000000 0.228662 0.151962
O O19 0.871388 0.623595 0.813527
O O20 0.000000 0.628430 0.741137
#
# Coordination Sequence:
#
# PCOD8288726 Si02
#       8
#    16  16  16  16  16  16  16  16
#     4  10  21  34  52  77 104 137 174 217 270 318
#     4  10  21  35  51  75 107 141 177 217 259 304
#     4  10  20  34  54  76 100 137 183 224 259 298
#     4  10  19  31  51  79 106 134 172 216 263 313
#     4  10  19  32  51  74 103 141 181 217 254 295
#     4   9  18  32  50  74 107 144 173 209 254 303
#     4   9  18  32  55  76 103 132 172 214 259 310
#     4   9  19  33  52  78 105 133 167 208 263 321
#
# _framework density 17.969951999999999
#
# number of rings (size 3 to 8) (size 9 to 14) (size 15 to 20)
#    0.000    2.375    1.250    1.875    3.500    3.500 
#    0.000    0.625    0.000   13.125    0.000    5.250 
#    0.000    0.000    0.000    0.000    0.000    0.000 
#
# Total GULP energy -793053.643578 kJ/mol
# GULP energy per Si atom -12391.463181 kJ/mol
# Density = 1.792905 g / cm^3
# Si number density = 17.969952 Si / 1000 Ang^3
#
#
#
# Elastic Constant Matrix: (Units=GPa)
#
#
# Indices 1 2 3 4 5 6 
#
# 1 114.2418 35.3072 29.5066 0.0000 0.0000 0.0000
# 2 35.3072 83.1737 27.2012 0.0000 0.0000 0.0000
# 3 29.5066 27.2012 49.0803 0.0000 0.0000 0.0000
# 4 0.0000 0.0000 0.0000 24.3656 0.0000 0.0000
# 5 0.0000 0.0000 0.0000 0.0000 22.3807 0.0000
# 6 0.0000 0.0000 0.0000 0.0000 0.0000 20.4116
#
#
#
# Elastic Compliance Matrix: (Units=1/GPa)
#
#
# Indices 1 2 3 4 5 6 
#
# 1 0.010962 -0.003051 -0.004899 0.000000 0.000000 0.000000
# 2 -0.003051 0.015534 -0.006775 0.000000 0.000000 0.000000
# 3 -0.004899 -0.006775 0.027075 0.000000 0.000000 0.000000
# 4 0.000000 0.000000 0.000000 0.041042 0.000000 0.000000
# 5 0.000000 0.000000 0.000000 0.000000 0.044681 0.000000
# 6 0.000000 0.000000 0.000000 0.000000 0.000000 0.048992
#
#
# Mechanical properties :
#
#
# Convention : Reuss Voigt Hill
#
# Bulk Modulus (GPa) = 41.45887 47.83620 44.64753
# Shear Modulus (GPa) = 22.14593 23.73029 22.93811
#
# Velocity S-wave (km/s) = 3.51434 3.63789 3.57665
# Velocity P-wave (km/s) = 6.29196 6.65759 6.47736
#
# Compressibility (1/GPa) = 0.02412029
#
# Stress axis : x y z
#
# Youngs Moduli (GPa) = 91.22712 64.37552 36.93464
#
# Poissons Ratio (x) = 0.19641 0.18095
# Poissons Ratio (y) = 0.27833 0.25023
# Poissons Ratio (z) = 0.44693 0.43614
#
# Static dielectric constant tensor:
#      x y z
#    x 3.620600 0.000000 0.000000 
#    y 0.000000 3.353220 0.000000 
#    z 0.000000 0.000000 3.271990 
# 
# 
# High freq. dielectric constant tensor:
#      x y z
#    x 1.691030 0.000000 0.000000 
#    y 0.000000 1.693490 0.000000 
#    z 0.000000 0.000000 1.679230 
# 
# From -- ./inp_files/46650.got.cif
#   From: 2010.06.25/outbox.cif.g09.slc.cpg/sg71_24_cif.got.tgz:46650.got - 2010.06.28 04:59:45.
