data_PCOD8288105
_publ_section_title
;
Structure prediction by ZEFSAII (Michael W. Deem and Ramdas Pophale) SiO2 
 PCOD8288105
Probable space group: I M M M
;
_chemical_formula_sum "Si O2"
_cell_formula_units_Z 104
_cell_length_a 32.698612
_cell_length_b 8.777947
_cell_length_c 28.262430
_cell_angle_alpha 90.000000
_cell_angle_beta 90.000000
_cell_angle_gamma 90.000000
_cell_volume 8112.071540
_symmetry_space_group_name_H-M "I M M M"
_symmetry_group_IT_number 71
_symmetry_cell_setting 'orthorhombic'
loop_
_space_group_symop_operation_xyz
x,y,z
-x,-y,z
x,-y,-z
-x,y,-z
-x,-y,-z
x,y,-z
-x,y,z
x,-y,z
1/2+x,1/2+y,1/2+z
1/2-x,1/2-y,1/2+z
1/2+x,1/2-y,1/2-z
1/2-x,1/2+y,1/2-z
1/2-x,1/2-y,1/2-z
1/2+x,1/2+y,1/2-z
1/2-x,1/2+y,1/2+z
1/2+x,1/2-y,1/2+z
loop_
_atom_site_type_symbol
_atom_site_label
_atom_site_fract_x
_atom_site_fract_y
_atom_site_fract_z
Si Si1 0.223043 0.819030 0.500000
Si Si2 0.000000 0.680683 0.445177
Si Si3 0.773366 0.329191 0.817971
Si Si4 0.731684 0.820245 0.902356
Si Si5 0.148962 0.679664 0.350377
Si Si6 0.417978 0.319052 0.910481
Si Si7 0.631630 0.319708 0.000000
Si Si8 0.688072 0.670865 0.235551
O O1 0.243567 0.754914 0.547534
O O2 0.177025 0.753601 0.500000
O O3 0.225710 0.000000 0.500000
O O4 0.961959 0.742859 0.415344
O O5 0.000000 0.500000 0.444650
O O6 0.000000 0.740355 0.500000
O O7 0.787510 0.500000 0.830804
O O8 0.766213 0.234672 0.865809
O O9 0.732361 0.333925 0.787703
O O10 0.808782 0.247926 0.787255
O O11 0.686565 0.767556 0.884396
O O12 0.733802 0.000000 0.906804
O O13 0.143106 0.500000 0.352432
O O14 0.106661 0.761676 0.364665
O O15 0.157767 0.729669 0.296688
O O16 0.422983 0.500000 0.909147
O O17 0.391820 0.258120 0.954561
O O18 0.633032 0.500000 0.000000
O O19 0.670608 0.500000 0.240885
#
# Coordination Sequence:
#
# PCOD8288105 Si02
#       8
#     8   8  16  16  16  16   8  16
#     4  11  19  29  40  54  73  96 123 152 186 221
#     4  11  23  35  45  59  75  93 117 149 187 228
#     4   9  16  26  39  54  72  94 117 143 174 211
#     4  10  19  28  38  54  74  96 120 147 180 218
#     4  10  19  29  41  58  76  93 114 145 182 221
#     4  11  20  33  47  59  72  92 119 149 184 227
#     4   9  18  28  42  57  70  88 115 149 183 221
#     4   9  16  26  40  56  73  93 115 141 173 214
#
# _framework density 12.820399999999999
#
# number of rings (size 3 to 8) (size 9 to 14) (size 15 to 20)
#    0.000    2.077    2.308    2.769    0.000    5.231 
#    0.000    0.000    0.000    0.000    0.000    0.000 
#    0.000    0.000    0.000    0.000    0.000    0.000 
#
# Total GULP energy -644765.372525 kJ/mol
# GULP energy per Si atom -12399.334087 kJ/mol
# Density = 1.279122 g / cm^3
# Si number density = 12.820400 Si / 1000 Ang^3
#
#
#
# Elastic Constant Matrix: (Units=GPa)
#
#
# Indices 1 2 3 4 5 6 
#
# 1 38.5704 18.9923 38.3061 0.0000 0.0000 0.0000
# 2 18.9923 71.8891 34.5868 0.0000 0.0000 0.0000
# 3 38.3061 34.5868 88.4454 0.0000 0.0000 0.0000
# 4 0.0000 0.0000 0.0000 23.7819 0.0000 0.0000
# 5 0.0000 0.0000 0.0000 0.0000 13.1811 0.0000
# 6 0.0000 0.0000 0.0000 0.0000 0.0000 16.4937
#
#
#
# Elastic Compliance Matrix: (Units=1/GPa)
#
#
# Indices 1 2 3 4 5 6 
#
# 1 0.046074 -0.003168 -0.018716 0.000000 0.000000 0.000000
# 2 -0.003168 0.017352 -0.005413 0.000000 0.000000 0.000000
# 3 -0.018716 -0.005413 0.021530 0.000000 0.000000 0.000000
# 4 0.000000 0.000000 0.000000 0.042049 0.000000 0.000000
# 5 0.000000 0.000000 0.000000 0.000000 0.075866 0.000000
# 6 0.000000 0.000000 0.000000 0.000000 0.000000 0.060629
#
#
# Mechanical properties :
#
#
# Convention : Reuss Voigt Hill
#
# Bulk Modulus (GPa) = 32.93734 42.51947 37.72841
# Shear Modulus (GPa) = 15.23390 17.82598 16.52994
#
# Velocity S-wave (km/s) = 3.45085 3.73290 3.59464
# Velocity P-wave (km/s) = 6.45174 7.19840 6.83527
#
# Compressibility (1/GPa) = 0.03036068
#
# Stress axis : x y z
#
# Youngs Moduli (GPa) = 21.70399 57.63131 46.44789
#
# Poissons Ratio (x) = 0.18256 0.86933
# Poissons Ratio (y) = 0.06875 0.25145
# Poissons Ratio (z) = 0.40622 0.31199
#
# Static dielectric constant tensor:
#      x y z
#    x 2.292180 0.000000 0.000000 
#    y 0.000000 2.667650 0.000000 
#    z 0.000000 0.000000 2.600130 
# 
# 
# High freq. dielectric constant tensor:
#      x y z
#    x 1.430890 0.000000 0.000000 
#    y 0.000000 1.504690 0.000000 
#    z 0.000000 0.000000 1.474670 
# 
# From -- ./inp_files/63735.got.cif
#   From: 2010.06.25/outbox.cif.g09.slc.cpg/sg71_32_cif.got.tgz:63735.got - 2010.06.28 04:59:45.
