data_PCOD8288946
_publ_section_title
;
Structure prediction by ZEFSAII (Michael W. Deem and Ramdas Pophale) SiO2 
 PCOD8288946
Probable space group: I M M M
;
_chemical_formula_sum "Si O2"
_cell_formula_units_Z 104
_cell_length_a 19.409860
_cell_length_b 11.941173
_cell_length_c 25.140259
_cell_angle_alpha 90.000000
_cell_angle_beta 90.000000
_cell_angle_gamma 90.000000
_cell_volume 5826.921144
_symmetry_space_group_name_H-M "I M M M"
_symmetry_group_IT_number 71
_symmetry_cell_setting 'orthorhombic'
loop_
_space_group_symop_operation_xyz
x,y,z
-x,-y,z
x,-y,-z
-x,y,-z
-x,-y,-z
x,y,-z
-x,y,z
x,-y,z
1/2+x,1/2+y,1/2+z
1/2-x,1/2-y,1/2+z
1/2+x,1/2-y,1/2-z
1/2-x,1/2+y,1/2-z
1/2-x,1/2-y,1/2-z
1/2+x,1/2+y,1/2-z
1/2-x,1/2+y,1/2+z
1/2+x,1/2-y,1/2+z
loop_
_atom_site_type_symbol
_atom_site_label
_atom_site_fract_x
_atom_site_fract_y
_atom_site_fract_z
Si Si1 0.800723 0.130999 0.058284
Si Si2 0.659885 0.796426 0.104030
Si Si3 0.575320 0.125962 0.800710
Si Si4 0.723124 0.630168 0.819963
Si Si5 0.924041 0.868283 0.126408
Si Si6 0.582401 0.866106 0.000000
Si Si7 0.155097 0.227696 0.779945
O O1 0.734448 0.151649 0.094154
O O2 0.869638 0.183564 0.084358
O O3 0.811584 0.000000 0.052885
O O4 0.790459 0.185793 0.000000
O O5 0.619746 0.872474 0.145794
O O6 0.672675 0.674511 0.132132
O O7 0.614283 0.799550 0.050336
O O8 0.500000 0.181619 0.810800
O O9 0.613404 0.180779 0.751932
O O10 0.565106 0.000000 0.783027
O O11 0.739994 0.500000 0.831118
O O12 0.791067 0.707956 0.818382
O O13 0.689595 0.641362 0.761481
O O14 0.898139 0.842910 0.185513
O O15 0.000000 0.815332 0.117003
O O16 0.928482 0.000000 0.119435
O O17 0.500000 0.853127 0.000000
O O18 0.602540 0.000000 0.000000
#
# Coordination Sequence:
#
# PCOD8288946 Si02
#       7
#    16  16  16  16  16   8  16
#     4  10  19  32  52  77 105 136 174 217 264 316
#     4  11  20  34  54  77 108 142 176 220 272 318
#     4  10  20  32  49  76 109 140 170 211 267 324
#     4  10  21  35  53  79 107 139 184 228 269 317
#     4  10  20  33  51  77 108 139 171 211 263 323
#     4  11  22  36  59  89 116 142 178 225 275 328
#     4  10  19  34  53  76 104 142 177 221 266 315
#
# _framework density 17.848191
#
# number of rings (size 3 to 8) (size 9 to 14) (size 15 to 20)
#    0.000    1.769    2.308    3.231    0.000    1.538 
#    0.000    1.923    0.000    9.692    0.000    0.000 
#    0.000    1.231    0.000    0.000    0.000    0.000 
#
# Total GULP energy -644425.078775 kJ/mol
# GULP energy per Si atom -12392.789976 kJ/mol
# Density = 1.780757 g / cm^3
# Si number density = 17.848191 Si / 1000 Ang^3
#
#
#
# Elastic Constant Matrix: (Units=GPa)
#
#
# Indices 1 2 3 4 5 6 
#
# 1 129.7265 14.4066 41.2105 0.0000 0.0000 0.0000
# 2 14.4066 44.7454 19.8559 0.0000 0.0000 0.0000
# 3 41.2105 19.8559 88.0214 0.0000 0.0000 0.0000
# 4 0.0000 0.0000 0.0000 10.1445 0.0000 0.0000
# 5 0.0000 0.0000 0.0000 0.0000 -13.6894 0.0000
# 6 0.0000 0.0000 0.0000 0.0000 0.0000 20.4295
#
#
#
# Elastic Compliance Matrix: (Units=1/GPa)
#
#
# Indices 1 2 3 4 5 6 
#
# 1 0.009109 -0.001156 -0.004004 0.000000 0.000000 0.000000
# 2 -0.001156 0.024981 -0.005094 0.000000 0.000000 0.000000
# 3 -0.004004 -0.005094 0.014385 0.000000 0.000000 0.000000
# 4 0.000000 0.000000 0.000000 0.098575 0.000000 0.000000
# 5 0.000000 0.000000 0.000000 0.000000 -0.073049 0.000000
# 6 0.000000 0.000000 0.000000 0.000000 0.000000 0.048949
#
#
# Mechanical properties :
#
#
# Convention : Reuss Voigt Hill
#
# Bulk Modulus (GPa) = 35.75664 45.93771 40.84717
# Shear Modulus (GPa) = 32.72683 15.84495 24.28589
#
# Velocity S-wave (km/s) = 4.28673 2.98277 3.69276
# Velocity P-wave (km/s) = 6.67672 6.13648 6.41229
#
# Compressibility (1/GPa) = 0.02796683
#
# Stress axis : x y z
#
# Youngs Moduli (GPa) = 109.78377 40.02981 69.51903
#
# Poissons Ratio (x) = 0.04628 0.27834
# Poissons Ratio (y) = 0.12691 0.35414
# Poissons Ratio (z) = 0.43956 0.20392
#
# Static dielectric constant tensor:
#      x y z
#    x 3.725540 0.000000 0.000000 
#    y 0.000000 2.948740 0.000000 
#    z 0.000000 0.000000 3.595660 
# 
# 
# High freq. dielectric constant tensor:
#      x y z
#    x 1.708680 0.000000 0.000000 
#    y 0.000000 1.648180 0.000000 
#    z 0.000000 0.000000 1.695590 
# 
# From -- ./inp_files/48845.got.cif
#   From: 2010.06.25/outbox.cif.g09.slc.cpg/sg71_25_cif.got.tgz:48845.got - 2010.06.28 04:59:45.
