data_PCOD8288655
_publ_section_title
;
Structure prediction by ZEFSAII (Michael W. Deem and Ramdas Pophale) SiO2 
 PCOD8288655
Probable space group: I M M M
;
_chemical_formula_sum "Si O2"
_cell_formula_units_Z 128
_cell_length_a 18.235608
_cell_length_b 17.461314
_cell_length_c 22.072191
_cell_angle_alpha 90.000000
_cell_angle_beta 90.000000
_cell_angle_gamma 90.000000
_cell_volume 7028.175790
_symmetry_space_group_name_H-M "I M M M"
_symmetry_group_IT_number 71
_symmetry_cell_setting 'orthorhombic'
loop_
_space_group_symop_operation_xyz
x,y,z
-x,-y,z
x,-y,-z
-x,y,-z
-x,-y,-z
x,y,-z
-x,y,z
x,-y,z
1/2+x,1/2+y,1/2+z
1/2-x,1/2-y,1/2+z
1/2+x,1/2-y,1/2-z
1/2-x,1/2+y,1/2-z
1/2-x,1/2-y,1/2-z
1/2+x,1/2+y,1/2-z
1/2-x,1/2+y,1/2+z
1/2+x,1/2-y,1/2+z
loop_
_atom_site_type_symbol
_atom_site_label
_atom_site_fract_x
_atom_site_fract_y
_atom_site_fract_z
Si Si1 0.417897 0.675967 0.864653
Si Si2 0.680000 0.585651 0.288098
Si Si3 0.719253 0.589038 0.151900
Si Si4 0.705014 0.787570 0.429326
Si Si5 0.583632 0.289660 0.646273
Si Si6 0.852146 0.696380 0.567119
Si Si7 0.418841 0.795547 0.764548
Si Si8 0.336012 0.085247 0.168961
O O1 0.500000 0.642563 0.861850
O O2 0.361986 0.605811 0.875178
O O3 0.410521 0.736570 0.919301
O O4 0.395196 0.720105 0.802589
O O5 0.646719 0.500000 0.281453
O O6 0.713286 0.611698 0.222966
O O7 0.617574 0.637745 0.318203
O O8 0.748199 0.585582 0.333946
O O9 0.739713 0.500000 0.142842
O O10 0.779293 0.639616 0.114908
O O11 0.697524 0.813467 0.500000
O O12 0.631563 0.741264 0.410029
O O13 0.770948 0.728317 0.420941
O O14 0.500000 0.309428 0.625127
O O15 0.582046 0.220502 0.693634
O O16 0.863354 0.666530 0.500000
O O17 0.867608 0.623048 0.608353
O O18 0.500000 0.819418 0.786567
O O19 0.363810 0.865823 0.773887
O O20 0.367585 0.000000 0.174863
#
# Coordination Sequence:
#
# PCOD8288655 Si02
#       8
#    16  16  16  16  16  16  16  16
#     4   9  17  30  48  74 109 141 172 215 265 324
#     4  10  20  33  52  84 117 140 169 216 277 341
#     4  10  20  33  55  84 113 145 178 221 280 337
#     4  10  21  37  56  78 107 144 190 239 272 312
#     4  11  21  35  58  81 106 146 184 224 280 333
#     4   9  18  32  50  71  97 138 184 222 262 305
#     4   9  18  31  49  76 105 138 177 216 266 323
#     4  10  19  31  50  74 104 140 173 214 268 320
#
# _framework density 18.212406999999999
#
# number of rings (size 3 to 8) (size 9 to 14) (size 15 to 20)
#    0.000    2.250    2.500    0.750    0.000    2.750 
#    0.000    1.250    0.000    1.500    0.000    8.750 
#    0.000    0.000    0.000    0.000    0.000    0.000 
#
# Total GULP energy -793161.959841 kJ/mol
# GULP energy per Si atom -12393.155623 kJ/mol
# Density = 1.817095 g / cm^3
# Si number density = 18.212407 Si / 1000 Ang^3
#
#
#
# Elastic Constant Matrix: (Units=GPa)
#
#
# Indices 1 2 3 4 5 6 
#
# 1 63.7281 24.4985 17.9587 0.0000 0.0000 0.0000
# 2 24.4985 74.3908 26.7326 0.0000 0.0000 0.0000
# 3 17.9587 26.7326 73.0438 0.0000 0.0000 0.0000
# 4 0.0000 0.0000 0.0000 16.2122 0.0000 0.0000
# 5 0.0000 0.0000 0.0000 0.0000 19.3375 0.0000
# 6 0.0000 0.0000 0.0000 0.0000 0.0000 19.2194
#
#
#
# Elastic Compliance Matrix: (Units=1/GPa)
#
#
# Indices 1 2 3 4 5 6 
#
# 1 0.018403 -0.005106 -0.002656 0.000000 0.000000 0.000000
# 2 -0.005106 0.016895 -0.004928 0.000000 0.000000 0.000000
# 3 -0.002656 -0.004928 0.016147 0.000000 0.000000 0.000000
# 4 0.000000 0.000000 0.000000 0.061682 0.000000 0.000000
# 5 0.000000 0.000000 0.000000 0.000000 0.051713 0.000000
# 6 0.000000 0.000000 0.000000 0.000000 0.000000 0.052031
#
#
# Mechanical properties :
#
#
# Convention : Reuss Voigt Hill
#
# Bulk Modulus (GPa) = 38.36531 38.83804 38.60167
# Shear Modulus (GPa) = 19.92519 20.41867 20.17193
#
# Velocity S-wave (km/s) = 3.31122 3.35198 3.33166
# Velocity P-wave (km/s) = 5.97747 6.02929 6.00344
#
# Compressibility (1/GPa) = 0.02606521
#
# Stress axis : x y z
#
# Youngs Moduli (GPa) = 54.33895 59.18942 61.93154
#
# Poissons Ratio (x) = 0.30223 0.16448
# Poissons Ratio (y) = 0.27746 0.30519
# Poissons Ratio (z) = 0.14432 0.29167
#
# Static dielectric constant tensor:
#      x y z
#    x 3.315870 0.000000 0.000000 
#    y 0.000000 3.203660 0.000000 
#    z 0.000000 0.000000 3.277260 
# 
# 
# High freq. dielectric constant tensor:
#      x y z
#    x 1.699010 0.000000 0.000000 
#    y 0.000000 1.690240 0.000000 
#    z 0.000000 0.000000 1.691130 
# 
# From -- ./inp_files/48448.got.cif
#   From: 2010.06.25/outbox.cif.g09.slc.cpg/sg71_25_cif.got.tgz:48448.got - 2010.06.28 04:59:45.
