data_PCOD8288018
_publ_section_title
;
Structure prediction by ZEFSAII (Michael W. Deem and Ramdas Pophale) SiO2 
 PCOD8288018
Probable space group: I M M M
;
_chemical_formula_sum "Si O2"
_cell_formula_units_Z 88
_cell_length_a 14.343155
_cell_length_b 11.498773
_cell_length_c 28.936166
_cell_angle_alpha 90.000000
_cell_angle_beta 90.000000
_cell_angle_gamma 90.000000
_cell_volume 4772.403762
_symmetry_space_group_name_H-M "I M M M"
_symmetry_group_IT_number 71
_symmetry_cell_setting 'orthorhombic'
loop_
_space_group_symop_operation_xyz
x,y,z
-x,-y,z
x,-y,-z
-x,y,-z
-x,-y,-z
x,y,-z
-x,y,z
x,-y,z
1/2+x,1/2+y,1/2+z
1/2-x,1/2-y,1/2+z
1/2+x,1/2-y,1/2-z
1/2-x,1/2+y,1/2-z
1/2-x,1/2-y,1/2-z
1/2+x,1/2+y,1/2-z
1/2-x,1/2+y,1/2+z
1/2+x,1/2-y,1/2+z
loop_
_atom_site_type_symbol
_atom_site_label
_atom_site_fract_x
_atom_site_fract_y
_atom_site_fract_z
Si Si1 0.249975 0.807871 0.051505
Si Si2 0.735680 0.866678 0.634743
Si Si3 0.393910 0.367892 0.796801
Si Si4 0.602462 0.500000 0.331444
Si Si5 0.105688 0.500000 0.554774
Si Si6 0.390312 0.262512 0.297471
Si Si7 0.897012 0.000000 0.061259
O O1 0.226868 0.706651 0.087901
O O2 0.337201 0.884967 0.070509
O O3 0.158411 0.886254 0.045374
O O4 0.272419 0.756596 0.000000
O O5 0.835921 0.842043 0.657249
O O6 0.660179 0.840620 0.675211
O O7 0.722561 0.000000 0.620220
O O8 0.500000 0.355632 0.812336
O O9 0.373943 0.500000 0.778124
O O10 0.370513 0.270622 0.757575
O O11 0.500000 0.500000 0.306757
O O12 0.654409 0.617774 0.317185
O O13 0.590699 0.500000 0.385055
O O14 0.101641 0.500000 0.500000
O O15 0.000000 0.500000 0.575466
O O16 0.500000 0.251077 0.307912
O O17 0.000000 0.000000 0.038376
#
# Coordination Sequence:
#
# PCOD8288018 Si02
#       7
#    16  16  16   8   8  16   8
#     4  10  21  35  53  79 107 138 178 221 266 315
#     4  11  23  35  50  76 108 148 184 210 248 306
#     4   9  18  34  56  79 101 129 171 222 269 311
#     4   9  15  26  53  83 100 126 164 210 267 314
#     4   8  16  34  59  82 101 126 166 222 282 320
#     4  10  18  33  56  79 104 134 171 215 265 317
#     4  10  18  33  57  84 106 127 168 226 278 314
#
# _framework density 18.439344999999999
#
# number of rings (size 3 to 8) (size 9 to 14) (size 15 to 20)
#    0.000    2.273    2.727    1.364    0.000    2.182 
#    0.000    0.000    2.000    0.000    0.000    7.636 
#    0.000    0.000    0.000    0.000    0.000    0.000 
#
# Total GULP energy -545204.423321 kJ/mol
# GULP energy per Si atom -12391.009621 kJ/mol
# Density = 1.839738 g / cm^3
# Si number density = 18.439345 Si / 1000 Ang^3
#
#
#
# Elastic Constant Matrix: (Units=GPa)
#
#
# Indices 1 2 3 4 5 6 
#
# 1 97.9965 39.5834 29.9697 0.0000 0.0000 0.0000
# 2 39.5834 96.5063 52.0712 0.0000 0.0000 0.0000
# 3 29.9697 52.0712 91.5076 0.0000 0.0000 0.0000
# 4 0.0000 0.0000 0.0000 34.7439 0.0000 0.0000
# 5 0.0000 0.0000 0.0000 0.0000 19.1900 0.0000
# 6 0.0000 0.0000 0.0000 0.0000 0.0000 20.5175
#
#
#
# Elastic Compliance Matrix: (Units=1/GPa)
#
#
# Indices 1 2 3 4 5 6 
#
# 1 0.012408 -0.004180 -0.001685 0.000000 0.000000 0.000000
# 2 -0.004180 0.016361 -0.007941 0.000000 0.000000 0.000000
# 3 -0.001685 -0.007941 0.015999 0.000000 0.000000 0.000000
# 4 0.000000 0.000000 0.000000 0.028782 0.000000 0.000000
# 5 0.000000 0.000000 0.000000 0.000000 0.052110 0.000000
# 6 0.000000 0.000000 0.000000 0.000000 0.000000 0.048739
#
#
# Mechanical properties :
#
#
# Convention : Reuss Voigt Hill
#
# Bulk Modulus (GPa) = 58.29068 58.80656 58.54862
# Shear Modulus (GPa) = 24.06956 25.84936 24.95946
#
# Velocity S-wave (km/s) = 3.61686 3.74820 3.68312
# Velocity P-wave (km/s) = 7.00878 7.11991 7.06457
#
# Compressibility (1/GPa) = 0.01715540
#
# Stress axis : x y z
#
# Youngs Moduli (GPa) = 80.59126 61.11968 62.50475
#
# Poissons Ratio (x) = 0.25549 0.10533
# Poissons Ratio (y) = 0.33689 0.49636
# Poissons Ratio (z) = 0.13581 0.48536
#
# Static dielectric constant tensor:
#      x y z
#    x 3.595250 0.000000 0.000000 
#    y 0.000000 2.768580 0.000000 
#    z 0.000000 0.000000 3.296650 
# 
# 
# High freq. dielectric constant tensor:
#      x y z
#    x 1.710000 0.000000 0.000000 
#    y 0.000000 1.690250 0.000000 
#    z 0.000000 0.000000 1.714770 
# 
# From -- ./inp_files/69852.got.cif
#   From: 2010.06.25/outbox.cif.g09.slc.cpg/sg71_35_cif.got.tgz:69852.got - 2010.06.28 04:59:45.
