data_PCOD8288636
_publ_section_title
;
Structure prediction by ZEFSAII (Michael W. Deem and Ramdas Pophale) SiO2 
 PCOD8288636
Probable space group: I M M M
;
_chemical_formula_sum "Si O2"
_cell_formula_units_Z 88
_cell_length_a 18.953387
_cell_length_b 15.570997
_cell_length_c 14.335209
_cell_angle_alpha 90.000000
_cell_angle_beta 90.000000
_cell_angle_gamma 90.000000
_cell_volume 4230.651780
_symmetry_space_group_name_H-M "I M M M"
_symmetry_group_IT_number 71
_symmetry_cell_setting 'orthorhombic'
loop_
_space_group_symop_operation_xyz
x,y,z
-x,-y,z
x,-y,-z
-x,y,-z
-x,-y,-z
x,y,-z
-x,y,z
x,-y,z
1/2+x,1/2+y,1/2+z
1/2-x,1/2-y,1/2+z
1/2+x,1/2-y,1/2-z
1/2-x,1/2+y,1/2-z
1/2-x,1/2-y,1/2-z
1/2+x,1/2+y,1/2-z
1/2-x,1/2+y,1/2+z
1/2+x,1/2-y,1/2+z
loop_
_atom_site_type_symbol
_atom_site_label
_atom_site_fract_x
_atom_site_fract_y
_atom_site_fract_z
Si Si1 0.919020 0.593523 0.272383
Si Si2 0.583619 0.500000 0.398075
Si Si3 0.921191 0.182380 0.889407
Si Si4 0.163736 0.347484 0.108410
Si Si5 0.082762 0.753432 0.392737
Si Si6 0.320008 0.403621 0.890359
O O1 0.909357 0.500000 0.321200
O O2 0.879096 0.587804 0.173525
O O3 0.889674 0.668565 0.339329
O O4 0.000000 0.611828 0.250024
O O5 0.500000 0.500000 0.409678
O O6 0.619992 0.500000 0.500000
O O7 0.604316 0.410217 0.346389
O O8 0.862973 0.252461 0.862050
O O9 0.000000 0.207923 0.851638
O O10 0.926215 0.171780 0.000000
O O11 0.245632 0.358559 0.131600
O O12 0.147347 0.367751 0.000000
O O13 0.104217 0.739717 0.500000
O O14 0.120159 0.838857 0.350924
O O15 0.000000 0.767423 0.380746
O O16 0.325444 0.500000 0.845813
O O17 0.330455 0.413731 0.000000
#
# Coordination Sequence:
#
# PCOD8288636 Si02
#       6
#    16   8  16  16  16  16
#     4  10  21  35  53  79 108 141 182 221 260 313
#     4   7  10  18  34  56  80 116 176 228 250 274
#     4   8  13  22  39  62  90 133 182 218 248 284
#     4  10  19  31  49  75 113 153 182 212 252 307
#     4   9  19  37  60  82 103 129 170 229 287 332
#     4   9  18  33  55  82 109 139 176 216 268 331
#
# _framework density 20.800578000000002
#
# number of rings (size 3 to 8) (size 9 to 14) (size 15 to 20)
#    0.000    3.000    0.000    2.182    0.000    3.636 
#    0.000    4.545    4.000    0.000    0.000    0.000 
#    0.000    0.000    0.000    0.000    0.000    0.000 
#
# Total GULP energy -545125.539660 kJ/mol
# GULP energy per Si atom -12389.216810 kJ/mol
# Density = 2.075323 g / cm^3
# Si number density = 20.800578 Si / 1000 Ang^3
#
#
#
# Elastic Constant Matrix: (Units=GPa)
#
#
# Indices 1 2 3 4 5 6 
#
# 1 72.9681 72.8720 22.5227 0.0000 0.0000 0.0000
# 2 72.8720 198.9772 37.3916 0.0000 0.0000 0.0000
# 3 22.5227 37.3916 47.7828 0.0000 0.0000 0.0000
# 4 0.0000 0.0000 0.0000 22.6332 0.0000 0.0000
# 5 0.0000 0.0000 0.0000 0.0000 10.8605 0.0000
# 6 0.0000 0.0000 0.0000 0.0000 0.0000 8.6043
#
#
#
# Elastic Compliance Matrix: (Units=1/GPa)
#
#
# Indices 1 2 3 4 5 6 
#
# 1 0.022539 -0.007337 -0.004882 0.000000 0.000000 0.000000
# 2 -0.007337 0.008281 -0.003021 0.000000 0.000000 0.000000
# 3 -0.004882 -0.003021 0.025594 0.000000 0.000000 0.000000
# 4 0.000000 0.000000 0.000000 0.044183 0.000000 0.000000
# 5 0.000000 0.000000 0.000000 0.000000 0.092077 0.000000
# 6 0.000000 0.000000 0.000000 0.000000 0.000000 0.116221
#
#
# Mechanical properties :
#
#
# Convention : Reuss Voigt Hill
#
# Bulk Modulus (GPa) = 38.56311 65.03340 51.79826
# Shear Modulus (GPa) = 14.36702 20.88240 17.62471
#
# Velocity S-wave (km/s) = 2.63097 3.17193 2.91403
# Velocity P-wave (km/s) = 5.27343 6.68939 6.02316
#
# Compressibility (1/GPa) = 0.02593152
#
# Stress axis : x y z
#
# Youngs Moduli (GPa) = 44.36751 120.76494 39.07206
#
# Poissons Ratio (x) = 0.88606 0.19077
# Poissons Ratio (y) = 0.32553 0.11805
# Poissons Ratio (z) = 0.21662 0.36488
#
# Static dielectric constant tensor:
#      x y z
#    x 3.515290 0.000000 0.000000 
#    y 0.000000 4.378660 0.000000 
#    z 0.000000 0.000000 3.439230 
# 
# 
# High freq. dielectric constant tensor:
#      x y z
#    x 1.786150 0.000000 0.000000 
#    y 0.000000 1.835750 0.000000 
#    z 0.000000 0.000000 1.784620 
# 
# From -- ./inp_files/37735.got.cif
#   From: 2010.06.25/outbox.cif.g09.slc.cpg/sg71_19_cif.got.tgz:37735.got - 2010.06.28 04:59:45.
