data_PCOD8288441
_publ_section_title
;
Structure prediction by ZEFSAII (Michael W. Deem and Ramdas Pophale) SiO2 
 PCOD8288441
Probable space group: I M M M
;
_chemical_formula_sum "Si O2"
_cell_formula_units_Z 88
_cell_length_a 29.185671
_cell_length_b 8.659116
_cell_length_c 17.859408
_cell_angle_alpha 90.000000
_cell_angle_beta 90.000000
_cell_angle_gamma 90.000000
_cell_volume 4513.467286
_symmetry_space_group_name_H-M "I M M M"
_symmetry_group_IT_number 71
_symmetry_cell_setting 'orthorhombic'
loop_
_space_group_symop_operation_xyz
x,y,z
-x,-y,z
x,-y,-z
-x,y,-z
-x,-y,-z
x,y,-z
-x,y,z
x,-y,z
1/2+x,1/2+y,1/2+z
1/2-x,1/2-y,1/2+z
1/2+x,1/2-y,1/2-z
1/2-x,1/2+y,1/2-z
1/2-x,1/2-y,1/2-z
1/2+x,1/2+y,1/2-z
1/2-x,1/2+y,1/2+z
1/2+x,1/2-y,1/2+z
loop_
_atom_site_type_symbol
_atom_site_label
_atom_site_fract_x
_atom_site_fract_y
_atom_site_fract_z
Si Si1 0.947262 0.178345 0.645615
Si Si2 0.693744 0.825258 0.000000
Si Si3 0.099341 0.820151 0.500000
Si Si4 0.420255 0.682850 0.694521
Si Si5 0.500000 0.315917 0.585426
Si Si6 0.183646 0.822626 0.209243
Si Si7 0.769436 0.174378 0.360727
O O1 0.920800 0.257223 0.575800
O O2 0.935014 0.256062 0.725435
O O3 0.000000 0.199993 0.627934
O O4 0.932694 0.000000 0.650771
O O5 0.723808 0.796129 0.073287
O O6 0.653203 0.702294 0.000000
O O7 0.675588 0.000000 0.000000
O O8 0.086279 0.000000 0.500000
O O9 0.426308 0.500000 0.697969
O O10 0.454145 0.744932 0.628837
O O11 0.367103 0.727578 0.681884
O O12 0.500000 0.500000 0.583500
O O13 0.500000 0.251239 0.500000
O O14 0.190301 0.805314 0.298926
O O15 0.219230 0.707163 0.171599
O O16 0.193528 0.000000 0.186141
O O17 0.770018 0.000000 0.391639
#
# Coordination Sequence:
#
# PCOD8288441 Si02
#       7
#    16   8   8  16   8  16  16
#     4   9  15  25  44  71 102 135 174 222 265 305
#     4  12  24  37  53  75 106 141 177 218 268 325
#     4  10  19  30  48  76 104 134 177 221 266 315
#     4   9  15  26  44  68 101 137 173 213 261 308
#     4   9  16  26  40  63 100 140 171 207 256 306
#     4   9  18  33  54  80 107 138 175 219 270 321
#     4  10  20  36  56  77 105 138 176 220 268 321
#
# _framework density 19.497205999999998
#
# number of rings (size 3 to 8) (size 9 to 14) (size 15 to 20)
#    0.000    2.455    0.909    2.727    0.000    4.727 
#    1.636    0.000    0.000    1.091    0.000    0.636 
#    0.000    0.727    0.000    0.000    0.000    0.000 
#
# Total GULP energy -545389.736508 kJ/mol
# GULP energy per Si atom -12395.221284 kJ/mol
# Density = 1.945283 g / cm^3
# Si number density = 19.497206 Si / 1000 Ang^3
#
#
#
# Elastic Constant Matrix: (Units=GPa)
#
#
# Indices 1 2 3 4 5 6 
#
# 1 109.2191 12.6179 65.4714 0.0000 0.0000 0.0000
# 2 12.6179 30.8635 18.6124 0.0000 0.0000 0.0000
# 3 65.4714 18.6124 139.5096 0.0000 0.0000 0.0000
# 4 0.0000 0.0000 0.0000 12.8943 0.0000 0.0000
# 5 0.0000 0.0000 0.0000 0.0000 14.9203 0.0000
# 6 0.0000 0.0000 0.0000 0.0000 0.0000 13.2170
#
#
#
# Elastic Compliance Matrix: (Units=1/GPa)
#
#
# Indices 1 2 3 4 5 6 
#
# 1 0.012827 -0.001755 -0.005785 0.000000 0.000000 0.000000
# 2 -0.001755 0.035476 -0.003909 0.000000 0.000000 0.000000
# 3 -0.005785 -0.003909 0.010405 0.000000 0.000000 0.000000
# 4 0.000000 0.000000 0.000000 0.077554 0.000000 0.000000
# 5 0.000000 0.000000 0.000000 0.000000 0.067023 0.000000
# 6 0.000000 0.000000 0.000000 0.000000 0.000000 0.075660
#
#
# Mechanical properties :
#
#
# Convention : Reuss Voigt Hill
#
# Bulk Modulus (GPa) = 27.92704 52.55509 40.24106
# Shear Modulus (GPa) = 15.93478 20.39902 18.16690
#
# Velocity S-wave (km/s) = 2.86192 3.23809 3.05580
# Velocity P-wave (km/s) = 5.02747 6.40266 5.75628
#
# Compressibility (1/GPa) = 0.03580759
#
# Stress axis : x y z
#
# Youngs Moduli (GPa) = 77.96231 28.18830 96.11145
#
# Poissons Ratio (x) = 0.04947 0.55604
# Poissons Ratio (y) = 0.13682 0.37573
# Poissons Ratio (z) = 0.45104 0.11020
#
# Static dielectric constant tensor:
#      x y z
#    x 3.509160 0.000000 0.000000 
#    y 0.000000 2.942160 0.000000 
#    z 0.000000 0.000000 3.787420 
# 
# 
# High freq. dielectric constant tensor:
#      x y z
#    x 1.764890 0.000000 0.000000 
#    y 0.000000 1.698060 0.000000 
#    z 0.000000 0.000000 1.763020 
# 
# From -- ./inp_files/49272.got.cif
#   From: 2010.06.25/outbox.cif.g09.slc.cpg/sg71_25_cif.got.tgz:49272.got - 2010.06.28 04:59:45.
