data_PCOD8288955
_publ_section_title
;
Structure prediction by ZEFSAII (Michael W. Deem and Ramdas Pophale) SiO2 
 PCOD8288955
Probable space group: I M M M
;
_chemical_formula_sum "Si O2"
_cell_formula_units_Z 104
_cell_length_a 27.781001
_cell_length_b 22.494293
_cell_length_c 9.328789
_cell_angle_alpha 90.000000
_cell_angle_beta 90.000000
_cell_angle_gamma 90.000000
_cell_volume 5829.690628
_symmetry_space_group_name_H-M "I M M M"
_symmetry_group_IT_number 71
_symmetry_cell_setting 'orthorhombic'
loop_
_space_group_symop_operation_xyz
x,y,z
-x,-y,z
x,-y,-z
-x,y,-z
-x,-y,-z
x,y,-z
-x,y,z
x,-y,z
1/2+x,1/2+y,1/2+z
1/2-x,1/2-y,1/2+z
1/2+x,1/2-y,1/2-z
1/2-x,1/2+y,1/2-z
1/2-x,1/2-y,1/2-z
1/2+x,1/2+y,1/2-z
1/2-x,1/2+y,1/2+z
1/2+x,1/2-y,1/2+z
loop_
_atom_site_type_symbol
_atom_site_label
_atom_site_fract_x
_atom_site_fract_y
_atom_site_fract_z
Si Si1 0.444880 0.500000 0.169833
Si Si2 0.887250 0.341779 0.168412
Si Si3 0.056609 0.433252 0.341100
Si Si4 0.899066 0.876732 0.669018
Si Si5 0.297791 0.677963 0.164711
Si Si6 0.945133 0.773761 0.164080
Si Si7 0.703879 0.817411 0.834736
O O1 0.500000 0.500000 0.231094
O O2 0.414658 0.442409 0.222324
O O3 0.447851 0.500000 0.000000
O O4 0.921952 0.394640 0.213692
O O5 0.911230 0.279728 0.215215
O O6 0.837607 0.351993 0.251403
O O7 0.877822 0.344236 0.000000
O O8 0.070628 0.408808 0.500000
O O9 0.076341 0.500000 0.324284
O O10 0.000000 0.432466 0.322476
O O11 0.905142 0.870252 0.500000
O O12 0.844258 0.860408 0.713464
O O13 0.935805 0.831179 0.740334
O O14 0.306937 0.747784 0.185776
O O15 0.253940 0.660305 0.267185
O O16 0.284334 0.664101 0.000000
O O17 0.000000 0.753111 0.184650
O O18 0.934275 0.790562 0.000000
O O19 0.704099 0.835988 0.000000
#
# Coordination Sequence:
#
# PCOD8288955 Si02
#       7
#     8  16  16  16  16  16  16
#     4   9  18  32  53  81 109 139 177 223 272 317
#     4  11  21  33  52  78 109 140 174 217 265 314
#     4   9  19  36  56  77 104 140 179 216 256 308
#     4  10  19  34  55  78 104 137 179 222 266 320
#     4   9  18  32  51  76 104 134 171 215 266 321
#     4  10  21  34  48  73 109 142 172 212 262 311
#     4  10  19  32  52  78 106 135 172 214 265 322
#
# _framework density 17.839711999999999
#
# number of rings (size 3 to 8) (size 9 to 14) (size 15 to 20)
#    0.000    2.231    1.538    2.308    0.000    4.000 
#    0.000    1.154    1.692    1.385    0.000    0.000 
#    0.000    0.000    0.000    0.000    0.000    0.000 
#
# Total GULP energy -644804.307883 kJ/mol
# GULP energy per Si atom -12400.082844 kJ/mol
# Density = 1.779911 g / cm^3
# Si number density = 17.839712 Si / 1000 Ang^3
#
#
#
# Elastic Constant Matrix: (Units=GPa)
#
#
# Indices 1 2 3 4 5 6 
#
# 1 105.7925 46.6212 48.2005 0.0000 0.0000 0.0000
# 2 46.6212 80.8745 33.5539 0.0000 0.0000 0.0000
# 3 48.2005 33.5539 69.9039 0.0000 0.0000 0.0000
# 4 0.0000 0.0000 0.0000 21.2787 0.0000 0.0000
# 5 0.0000 0.0000 0.0000 0.0000 33.1658 0.0000
# 6 0.0000 0.0000 0.0000 0.0000 0.0000 25.3079
#
#
#
# Elastic Compliance Matrix: (Units=1/GPa)
#
#
# Indices 1 2 3 4 5 6 
#
# 1 0.015615 -0.005662 -0.008049 0.000000 0.000000 0.000000
# 2 -0.005662 0.017493 -0.004492 0.000000 0.000000 0.000000
# 3 -0.008049 -0.004492 0.022012 0.000000 0.000000 0.000000
# 4 0.000000 0.000000 0.000000 0.046995 0.000000 0.000000
# 5 0.000000 0.000000 0.000000 0.000000 0.030152 0.000000
# 6 0.000000 0.000000 0.000000 0.000000 0.000000 0.039513
#
#
# Mechanical properties :
#
#
# Convention : Reuss Voigt Hill
#
# Bulk Modulus (GPa) = 53.44071 57.03582 55.23827
# Shear Modulus (GPa) = 23.31829 24.49683 23.90756
#
# Velocity S-wave (km/s) = 3.61931 3.70964 3.66475
# Velocity P-wave (km/s) = 6.89107 7.09854 6.99558
#
# Compressibility (1/GPa) = 0.01871233
#
# Stress axis : x y z
#
# Youngs Moduli (GPa) = 64.04146 57.16711 45.43014
#
# Poissons Ratio (x) = 0.32368 0.36567
# Poissons Ratio (y) = 0.36260 0.20409
# Poissons Ratio (z) = 0.51548 0.25682
#
# Static dielectric constant tensor:
#      x y z
#    x 3.333080 0.000000 0.000000 
#    y 0.000000 3.227450 0.000000 
#    z 0.000000 0.000000 3.235160 
# 
# 
# High freq. dielectric constant tensor:
#      x y z
#    x 1.696390 0.000000 0.000000 
#    y 0.000000 1.668280 0.000000 
#    z 0.000000 0.000000 1.686130 
# 
# From -- ./inp_files/11556.got.cif
#   From: 2010.06.25/outbox.cif.g09.slc.cpg/sg71_6_cif.got.tgz:11556.got - 2010.06.28 04:59:45.
