data_PCOD8288365
_publ_section_title
;
Structure prediction by ZEFSAII (Michael W. Deem and Ramdas Pophale) SiO2 
 PCOD8288365
Probable space group: I M M M
;
_chemical_formula_sum "Si O2"
_cell_formula_units_Z 88
_cell_length_a 31.363588
_cell_length_b 13.827345
_cell_length_c 10.844727
_cell_angle_alpha 90.000000
_cell_angle_beta 90.000000
_cell_angle_gamma 90.000000
_cell_volume 4703.088627
_symmetry_space_group_name_H-M "I M M M"
_symmetry_group_IT_number 71
_symmetry_cell_setting 'orthorhombic'
loop_
_space_group_symop_operation_xyz
x,y,z
-x,-y,z
x,-y,-z
-x,y,-z
-x,-y,-z
x,y,-z
-x,y,z
x,-y,z
1/2+x,1/2+y,1/2+z
1/2-x,1/2-y,1/2+z
1/2+x,1/2-y,1/2-z
1/2-x,1/2+y,1/2-z
1/2-x,1/2-y,1/2-z
1/2+x,1/2+y,1/2-z
1/2-x,1/2+y,1/2+z
1/2+x,1/2-y,1/2+z
loop_
_atom_site_type_symbol
_atom_site_label
_atom_site_fract_x
_atom_site_fract_y
_atom_site_fract_z
Si Si1 0.449591 0.111060 0.000000
Si Si2 0.453631 0.893709 0.643120
Si Si3 0.393621 0.795064 0.798457
Si Si4 0.696047 0.114492 0.861030
Si Si5 0.149047 0.107288 0.643492
Si Si6 0.754840 0.884808 0.638373
O O1 0.432288 0.170296 0.883881
O O2 0.500000 0.115851 0.000000
O O3 0.433327 0.000000 0.000000
O O4 0.455683 0.908183 0.500000
O O5 0.500000 0.853503 0.689239
O O6 0.412818 0.824190 0.666481
O O7 0.446175 0.000000 0.704919
O O8 0.351471 0.850889 0.837845
O O9 0.385042 0.680119 0.796789
O O10 0.726253 0.156924 0.751417
O O11 0.696983 0.000000 0.853780
O O12 0.710662 0.147841 0.000000
O O13 0.139130 0.101146 0.500000
O O14 0.196705 0.149960 0.663329
O O15 0.144129 0.000000 0.702714
O O16 0.739836 0.850026 0.500000
O O17 0.754452 0.000000 0.638884
#
# Coordination Sequence:
#
# PCOD8288365 Si02
#       6
#     8  16  16  16  16  16
#     4  11  22  34  51  79 111 137 162 200 261 339
#     4   9  19  36  56  78 106 139 172 207 254 321
#     4  12  20  32  53  79 104 138 175 215 266 321
#     4  10  19  30  46  74 113 142 166 216 281 333
#     4   9  18  35  55  74 101 140 187 231 266 306
#     4   8  16  32  52  71  97 141 189 225 262 317
#
# _framework density 18.711109
#
# number of rings (size 3 to 8) (size 9 to 14) (size 15 to 20)
#    0.000    2.273    1.818    3.818    0.000    2.909 
#    0.000    2.727    0.000    4.364    0.000    1.273 
#    0.000    0.000    0.000    0.000    0.000    0.000 
#
# Total GULP energy -545105.578505 kJ/mol
# GULP energy per Si atom -12388.763148 kJ/mol
# Density = 1.866852 g / cm^3
# Si number density = 18.711109 Si / 1000 Ang^3
#
#
#
# Elastic Constant Matrix: (Units=GPa)
#
#
# Indices 1 2 3 4 5 6 
#
# 1 95.7972 60.0050 51.1056 0.0000 0.0000 0.0000
# 2 60.0050 60.7252 39.2925 0.0000 0.0000 0.0000
# 3 51.1056 39.2925 87.6846 0.0000 0.0000 0.0000
# 4 0.0000 0.0000 0.0000 9.1478 0.0000 0.0000
# 5 0.0000 0.0000 0.0000 0.0000 28.8969 0.0000
# 6 0.0000 0.0000 0.0000 0.0000 0.0000 28.5337
#
#
#
# Elastic Compliance Matrix: (Units=1/GPa)
#
#
# Indices 1 2 3 4 5 6 
#
# 1 0.029341 -0.025249 -0.005787 0.000000 0.000000 0.000000
# 2 -0.025249 0.044919 -0.005413 0.000000 0.000000 0.000000
# 3 -0.005787 -0.005413 0.017203 0.000000 0.000000 0.000000
# 4 0.000000 0.000000 0.000000 0.109316 0.000000 0.000000
# 5 0.000000 0.000000 0.000000 0.000000 0.034606 0.000000
# 6 0.000000 0.000000 0.000000 0.000000 0.000000 0.035046
#
#
# Mechanical properties :
#
#
# Convention : Reuss Voigt Hill
#
# Bulk Modulus (GPa) = 53.86106 60.55704 57.20905
# Shear Modulus (GPa) = 14.30543 19.56925 16.93734
#
# Velocity S-wave (km/s) = 2.76804 3.23749 3.01192
# Velocity P-wave (km/s) = 6.25013 6.81246 6.53734
#
# Compressibility (1/GPa) = 0.01856629
#
# Stress axis : x y z
#
# Youngs Moduli (GPa) = 34.08209 22.26206 58.12977
#
# Poissons Ratio (x) = 0.56209 0.33638
# Poissons Ratio (y) = 0.86053 0.31467
# Poissons Ratio (z) = 0.19722 0.12051
#
# Static dielectric constant tensor:
#      x y z
#    x 3.473300 0.000000 0.000000 
#    y 0.000000 3.641340 0.000000 
#    z 0.000000 0.000000 3.857370 
# 
# 
# High freq. dielectric constant tensor:
#      x y z
#    x 1.717490 0.000000 0.000000 
#    y 0.000000 1.712930 0.000000 
#    z 0.000000 0.000000 1.720840 
# 
# From -- ./inp_files/28625.got.cif
#   From: 2010.06.25/outbox.cif.g09.slc.cpg/sg71_15_cif.got.tgz:28625.got - 2010.06.28 04:59:45.
