data_PCOD8288838
_publ_section_title
;
Structure prediction by ZEFSAII (Michael W. Deem and Ramdas Pophale) SiO2 
 PCOD8288838
Probable space group: I M M M
;
_chemical_formula_sum "Si O2"
_cell_formula_units_Z 80
_cell_length_a 17.757624
_cell_length_b 10.319023
_cell_length_c 22.672299
_cell_angle_alpha 90.000000
_cell_angle_beta 90.000000
_cell_angle_gamma 90.000000
_cell_volume 4154.502234
_symmetry_space_group_name_H-M "I M M M"
_symmetry_group_IT_number 71
_symmetry_cell_setting 'orthorhombic'
loop_
_space_group_symop_operation_xyz
x,y,z
-x,-y,z
x,-y,-z
-x,y,-z
-x,-y,-z
x,y,-z
-x,y,z
x,-y,z
1/2+x,1/2+y,1/2+z
1/2-x,1/2-y,1/2+z
1/2+x,1/2-y,1/2-z
1/2-x,1/2+y,1/2-z
1/2-x,1/2-y,1/2-z
1/2+x,1/2+y,1/2-z
1/2-x,1/2+y,1/2+z
1/2+x,1/2-y,1/2+z
loop_
_atom_site_type_symbol
_atom_site_label
_atom_site_fract_x
_atom_site_fract_y
_atom_site_fract_z
Si Si1 0.332651 0.854367 0.627112
Si Si2 0.134827 0.640958 0.500000
Si Si3 0.763423 0.351314 0.000000
Si Si4 0.824183 0.143990 0.685541
Si Si5 0.582779 0.143318 0.125327
Si Si6 0.086337 0.853207 0.196794
O O1 0.310333 0.823971 0.559558
O O2 0.264987 0.844169 0.675006
O O3 0.395490 0.749058 0.645079
O O4 0.366419 0.000000 0.630651
O O5 0.177307 0.500000 0.500000
O O6 0.193178 0.757303 0.500000
O O7 0.079385 0.648858 0.555138
O O8 0.734660 0.500000 0.000000
O O9 0.858266 0.250919 0.643896
O O10 0.852715 0.170917 0.751587
O O11 0.851081 0.000000 0.666287
O O12 0.500000 0.175027 0.150517
O O13 0.608000 0.000000 0.147468
O O14 0.000000 0.831108 0.218551
O O15 0.095444 0.000000 0.172617
#
# Coordination Sequence:
#
# PCOD8288838 Si02
#       6
#    16   8   8  16  16  16
#     4  10  21  37  60  86 112 145 184 230 280 333
#     4  10  19  32  50  73 107 149 190 230 273 322
#     4  10  20  37  58  84 114 140 182 237 280 326
#     4  10  20  36  58  83 112 147 185 227 275 329
#     4  10  20  32  48  75 112 152 191 229 270 322
#     4  10  22  39  58  83 115 148 185 232 281 330
#
# _framework density 19.256216999999999
#
# number of rings (size 3 to 8) (size 9 to 14) (size 15 to 20)
#    0.000    2.000    2.000    1.500    0.000    5.200 
#    0.000    0.500    0.000    4.800    0.000    0.000 
#    0.000    0.000    0.000    0.000    0.000    0.000 
#
# Total GULP energy -495680.177895 kJ/mol
# GULP energy per Si atom -12392.004447 kJ/mol
# Density = 1.921239 g / cm^3
# Si number density = 19.256217 Si / 1000 Ang^3
#
#
#
# Elastic Constant Matrix: (Units=GPa)
#
#
# Indices 1 2 3 4 5 6 
#
# 1 51.3104 39.0183 29.7440 0.0000 0.0000 0.0000
# 2 39.0183 112.8764 39.9982 0.0000 0.0000 0.0000
# 3 29.7440 39.9982 72.7401 0.0000 0.0000 0.0000
# 4 0.0000 0.0000 0.0000 32.4566 0.0000 0.0000
# 5 0.0000 0.0000 0.0000 0.0000 14.4371 0.0000
# 6 0.0000 0.0000 0.0000 0.0000 0.0000 28.7992
#
#
#
# Elastic Compliance Matrix: (Units=1/GPa)
#
#
# Indices 1 2 3 4 5 6 
#
# 1 0.029854 -0.007444 -0.008114 0.000000 0.000000 0.000000
# 2 -0.007444 0.012860 -0.004027 0.000000 0.000000 0.000000
# 3 -0.008114 -0.004027 0.019280 0.000000 0.000000 0.000000
# 4 0.000000 0.000000 0.000000 0.030810 0.000000 0.000000
# 5 0.000000 0.000000 0.000000 0.000000 0.069266 0.000000
# 6 0.000000 0.000000 0.000000 0.000000 0.000000 0.034723
#
#
# Mechanical properties :
#
#
# Convention : Reuss Voigt Hill
#
# Bulk Modulus (GPa) = 43.81682 50.49422 47.15552
# Shear Modulus (GPa) = 20.52785 23.68299 22.10542
#
# Velocity S-wave (km/s) = 3.26857 3.51078 3.39184
# Velocity P-wave (km/s) = 6.08677 6.53554 6.31514
#
# Compressibility (1/GPa) = 0.02282229
#
# Stress axis : x y z
#
# Youngs Moduli (GPa) = 33.49654 77.76276 51.86756
#
# Poissons Ratio (x) = 0.57890 0.42085
# Poissons Ratio (y) = 0.24936 0.20888
# Poissons Ratio (z) = 0.27179 0.31316
#
# Static dielectric constant tensor:
#      x y z
#    x 3.195620 0.000000 0.000000 
#    y 0.000000 3.783490 0.000000 
#    z 0.000000 0.000000 3.420670 
# 
# 
# High freq. dielectric constant tensor:
#      x y z
#    x 1.723890 0.000000 0.000000 
#    y 0.000000 1.769510 0.000000 
#    z 0.000000 0.000000 1.738580 
# 
# From -- ./inp_files/61036.got.cif
#   From: 2010.06.25/outbox.cif.g09.slc.cpg/sg71_31_cif.got.tgz:61036.got - 2010.06.28 04:59:45.
