data_PCOD8288526
_publ_section_title
;
Structure prediction by ZEFSAII (Michael W. Deem and Ramdas Pophale) SiO2 
 PCOD8288526
Probable space group: I M M M
;
_chemical_formula_sum "Si O2"
_cell_formula_units_Z 80
_cell_length_a 24.006225
_cell_length_b 9.164927
_cell_length_c 18.391770
_cell_angle_alpha 90.000000
_cell_angle_beta 90.000000
_cell_angle_gamma 90.000000
_cell_volume 4046.470788
_symmetry_space_group_name_H-M "I M M M"
_symmetry_group_IT_number 71
_symmetry_cell_setting 'orthorhombic'
loop_
_space_group_symop_operation_xyz
x,y,z
-x,-y,z
x,-y,-z
-x,y,-z
-x,-y,-z
x,y,-z
-x,y,z
x,-y,z
1/2+x,1/2+y,1/2+z
1/2-x,1/2-y,1/2+z
1/2+x,1/2-y,1/2-z
1/2-x,1/2+y,1/2-z
1/2-x,1/2-y,1/2-z
1/2+x,1/2+y,1/2-z
1/2-x,1/2+y,1/2+z
1/2+x,1/2-y,1/2+z
loop_
_atom_site_type_symbol
_atom_site_label
_atom_site_fract_x
_atom_site_fract_y
_atom_site_fract_z
Si Si1 0.934507 0.332819 0.082214
Si Si2 0.361063 0.666180 0.138561
Si Si3 0.732034 0.829019 0.641741
Si Si4 0.134374 0.663649 0.500000
Si Si5 0.267178 0.333177 0.500000
Si Si6 0.864632 0.170268 0.797648
O O1 0.916784 0.500000 0.096367
O O2 0.905669 0.230422 0.141307
O O3 0.000000 0.314086 0.092295
O O4 0.917557 0.286418 0.000000
O O5 0.366669 0.500000 0.112751
O O6 0.296571 0.706204 0.151860
O O7 0.390996 0.693299 0.216508
O O8 0.388294 0.761176 0.073935
O O9 0.708778 0.753000 0.568670
O O10 0.694813 0.754052 0.704063
O O11 0.719835 0.000000 0.638774
O O12 0.111786 0.500000 0.500000
O O13 0.200565 0.674053 0.500000
O O14 0.288257 0.500000 0.500000
O O15 0.853211 0.000000 0.811249
#
# Coordination Sequence:
#
# PCOD8288526 Si02
#       6
#    16  16  16   8   8  16
#     4   9  20  40  61  78 100 133 174 219 267 319
#     4   9  19  34  49  70 103 142 177 210 254 308
#     4  10  19  31  47  67  98 140 178 213 253 302
#     4   9  17  29  49  71  94 129 172 213 249 290
#     4   9  17  29  43  63  92 127 170 215 253 293
#     4  11  22  33  50  77 105 133 170 216 263 310
#
# _framework density 19.770315
#
# number of rings (size 3 to 8) (size 9 to 14) (size 15 to 20)
#    0.000    2.400    0.000    3.000    1.400    5.600 
#    0.000    1.000    0.000    0.000    0.000    0.700 
#    0.000    5.600    0.000    0.000    0.000    0.000 
#
# Total GULP energy -495833.015820 kJ/mol
# GULP energy per Si atom -12395.825395 kJ/mol
# Density = 1.972532 g / cm^3
# Si number density = 19.770315 Si / 1000 Ang^3
#
#
#
# Elastic Constant Matrix: (Units=GPa)
#
#
# Indices 1 2 3 4 5 6 
#
# 1 23.1465 17.5527 20.7797 0.0000 0.0000 0.0000
# 2 17.5527 126.6458 78.5859 0.0000 0.0000 0.0000
# 3 20.7797 78.5859 151.0961 0.0000 0.0000 0.0000
# 4 0.0000 0.0000 0.0000 34.5862 0.0000 0.0000
# 5 0.0000 0.0000 0.0000 0.0000 19.0253 0.0000
# 6 0.0000 0.0000 0.0000 0.0000 0.0000 19.8280
#
#
#
# Elastic Compliance Matrix: (Units=1/GPa)
#
#
# Indices 1 2 3 4 5 6 
#
# 1 0.050612 -0.003980 -0.004890 0.000000 0.000000 0.000000
# 2 -0.003980 0.011972 -0.005679 0.000000 0.000000 0.000000
# 3 -0.004890 -0.005679 0.010245 0.000000 0.000000 0.000000
# 4 0.000000 0.000000 0.000000 0.028913 0.000000 0.000000
# 5 0.000000 0.000000 0.000000 0.000000 0.052562 0.000000
# 6 0.000000 0.000000 0.000000 0.000000 0.000000 0.050434
#
#
# Mechanical properties :
#
#
# Convention : Reuss Voigt Hill
#
# Bulk Modulus (GPa) = 22.86826 59.41389 41.14108
# Shear Modulus (GPa) = 20.12785 26.95257 23.54021
#
# Velocity S-wave (km/s) = 3.19421 3.69627 3.45437
# Velocity P-wave (km/s) = 5.01956 6.95226 6.06341
#
# Compressibility (1/GPa) = 0.04372873
#
# Stress axis : x y z
#
# Youngs Moduli (GPa) = 19.75829 83.53047 97.61211
#
# Poissons Ratio (x) = 0.33246 0.47736
# Poissons Ratio (y) = 0.07864 0.55436
# Poissons Ratio (z) = 0.09663 0.47438
#
# Static dielectric constant tensor:
#      x y z
#    x 3.032150 0.000000 0.000000 
#    y 0.000000 3.604420 0.000000 
#    z 0.000000 0.000000 3.891310 
# 
# 
# High freq. dielectric constant tensor:
#      x y z
#    x 1.712650 0.000000 0.000000 
#    y 0.000000 1.775230 0.000000 
#    z 0.000000 0.000000 1.789180 
# 
# From -- ./inp_files/8459.got.cif
#   From: 2010.06.25/outbox.cif.g09.slc.cpg/sg71_5_cif.got.tgz:8459.got - 2010.06.28 04:59:45.
