data_PCOD8288169
_publ_section_title
;
Structure prediction by ZEFSAII (Michael W. Deem and Ramdas Pophale) SiO2 
 PCOD8288169
Probable space group: I M M M
;
_chemical_formula_sum "Si O2"
_cell_formula_units_Z 96
_cell_length_a 15.079772
_cell_length_b 26.339700
_cell_length_c 14.064053
_cell_angle_alpha 90.000000
_cell_angle_beta 90.000000
_cell_angle_gamma 90.000000
_cell_volume 5586.195026
_symmetry_space_group_name_H-M "I M M M"
_symmetry_group_IT_number 71
_symmetry_cell_setting 'orthorhombic'
loop_
_space_group_symop_operation_xyz
x,y,z
-x,-y,z
x,-y,-z
-x,y,-z
-x,-y,-z
x,y,-z
-x,y,z
x,-y,z
1/2+x,1/2+y,1/2+z
1/2-x,1/2-y,1/2+z
1/2+x,1/2-y,1/2-z
1/2-x,1/2+y,1/2-z
1/2-x,1/2-y,1/2-z
1/2+x,1/2+y,1/2-z
1/2-x,1/2+y,1/2+z
1/2+x,1/2-y,1/2+z
loop_
_atom_site_type_symbol
_atom_site_label
_atom_site_fract_x
_atom_site_fract_y
_atom_site_fract_z
Si Si1 0.232729 0.500000 0.612894
Si Si2 0.101724 0.194691 0.112684
Si Si3 0.894904 0.500000 0.779553
Si Si4 0.601915 0.797401 0.301024
Si Si5 0.775963 0.892649 0.108603
Si Si6 0.394421 0.900855 0.608012
Si Si7 0.900830 0.661889 0.605520
O O1 0.208787 0.500000 0.500000
O O2 0.142268 0.500000 0.672712
O O3 0.291203 0.450608 0.642082
O O4 0.144277 0.246274 0.156093
O O5 0.159817 0.148604 0.158447
O O6 0.000000 0.185998 0.143973
O O7 0.110568 0.199210 0.000000
O O8 0.859571 0.549830 0.835513
O O9 0.000000 0.500000 0.772723
O O10 0.500000 0.796716 0.332943
O O11 0.644223 0.849414 0.343048
O O12 0.612777 0.795461 0.186308
O O13 0.671094 0.882002 0.122283
O O14 0.803721 0.888559 0.000000
O O15 0.359503 0.903494 0.500000
O O16 0.500000 0.900407 0.610791
O O17 0.889145 0.686307 0.500000
O O18 0.000000 0.637949 0.616504
#
# Coordination Sequence:
#
# PCOD8288169 Si02
#       7
#     8  16   8  16  16  16  16
#     4  10  20  32  44  60  84 110 141 182 217 254
#     4   9  17  30  47  66  87 109 137 179 227 270
#     4  10  19  29  42  60  84 118 154 181 212 251
#     4   9  16  26  43  66  88 114 148 179 212 255
#     4   9  18  31  45  62  85 113 144 178 219 262
#     4   9  16  26  40  60  87 116 147 182 214 249
#     4   9  17  29  43  61  90 124 152 177 204 241
#
# _framework density 17.185222
#
# number of rings (size 3 to 8) (size 9 to 14) (size 15 to 20)
#    0.000    2.833    0.000    1.750    0.000    5.833 
#    0.000    2.083    0.000    2.500    0.000    1.167 
#    0.000    0.000    0.000    0.000    0.000   25.667 
#
# Total GULP energy -594688.236121 kJ/mol
# GULP energy per Si atom -12389.338253 kJ/mol
# Density = 1.714611 g / cm^3
# Si number density = 17.185222 Si / 1000 Ang^3
#
#
#
# Elastic Constant Matrix: (Units=GPa)
#
#
# Indices 1 2 3 4 5 6 
#
# 1 44.6213 52.4039 21.0958 -0.0001 0.0000 0.0000
# 2 52.4039 174.1360 52.7243 0.0004 0.0001 0.0000
# 3 21.0958 52.7243 84.2712 0.0008 0.0001 0.0000
# 4 -0.0001 0.0004 0.0008 14.1460 0.0001 0.0000
# 5 0.0000 0.0001 0.0001 0.0001 9.6516 0.0000
# 6 0.0000 0.0000 0.0000 0.0000 0.0000 15.2760
#
#
#
# Elastic Compliance Matrix: (Units=1/GPa)
#
#
# Indices 1 2 3 4 5 6 
#
# 1 0.035148 -0.009763 -0.002691 0.000001 0.000000 0.000000
# 2 -0.009763 0.009796 -0.003685 0.000000 0.000000 0.000000
# 3 -0.002691 -0.003685 0.014846 -0.000001 0.000000 0.000000
# 4 0.000001 0.000000 -0.000001 0.070691 -0.000001 0.000000
# 5 0.000000 0.000000 0.000000 -0.000001 0.103610 0.000000
# 6 0.000000 0.000000 0.000000 0.000000 0.000000 0.065462
#
#
# Mechanical properties :
#
#
# Convention : Reuss Voigt Hill
#
# Bulk Modulus (GPa) = 36.34621 61.71962 49.03292
# Shear Modulus (GPa) = 14.66268 19.60170 17.13219
#
# Velocity S-wave (km/s) = 2.92415 3.38096 3.16082
# Velocity P-wave (km/s) = 5.70933 7.15776 6.47418
#
# Compressibility (1/GPa) = 0.02751318
#
# Stress axis : x y z
#
# Youngs Moduli (GPa) = 28.45075 102.07824 67.35972
#
# Poissons Ratio (x) = 0.99657 0.18124
# Poissons Ratio (y) = 0.27776 0.24823
# Poissons Ratio (z) = 0.07655 0.37618
#
# Static dielectric constant tensor:
#      x y z
#    x 2.918430 0.000000 0.000000 
#    y 0.000000 3.479530 0.000000 
#    z 0.000000 0.000000 3.244740 
# 
# 
# High freq. dielectric constant tensor:
#      x y z
#    x 1.610660 0.000000 0.000000 
#    y 0.000000 1.664240 0.000000 
#    z 0.000000 0.000000 1.656300 
# 
# From -- ./inp_files/34766.got.cif
#   From: 2010.06.25/outbox.cif.g09.slc.cpg/sg71_18_cif.got.tgz:34766.got - 2010.06.28 04:59:45.
