data_PCOD8288057
_publ_section_title
;
Structure prediction by ZEFSAII (Michael W. Deem and Ramdas Pophale) SiO2 
 PCOD8288057
Probable space group: I M M M
;
_chemical_formula_sum "Si O2"
_cell_formula_units_Z 72
_cell_length_a 9.057512
_cell_length_b 17.557692
_cell_length_c 23.643943
_cell_angle_alpha 90.000000
_cell_angle_beta 90.000000
_cell_angle_gamma 90.000000
_cell_volume 3760.072753
_symmetry_space_group_name_H-M "I M M M"
_symmetry_group_IT_number 71
_symmetry_cell_setting 'orthorhombic'
loop_
_space_group_symop_operation_xyz
x,y,z
-x,-y,z
x,-y,-z
-x,y,-z
-x,-y,-z
x,y,-z
-x,y,z
x,-y,z
1/2+x,1/2+y,1/2+z
1/2-x,1/2-y,1/2+z
1/2+x,1/2-y,1/2-z
1/2-x,1/2+y,1/2-z
1/2-x,1/2-y,1/2-z
1/2+x,1/2+y,1/2-z
1/2-x,1/2+y,1/2+z
1/2+x,1/2-y,1/2+z
loop_
_atom_site_type_symbol
_atom_site_label
_atom_site_fract_x
_atom_site_fract_y
_atom_site_fract_z
Si Si1 0.326719 0.000000 0.435712
Si Si2 0.327179 0.383211 0.500000
Si Si3 0.828752 0.414904 0.382901
Si Si4 0.325795 0.229173 0.808285
Si Si5 0.164118 0.139405 0.390997
Si Si6 0.342294 0.738966 0.000000
O O1 0.277292 0.071062 0.398165
O O2 0.500000 0.000000 0.440633
O O3 0.259270 0.000000 0.500000
O O4 0.500000 0.401839 0.500000
O O5 0.256544 0.416050 0.557367
O O6 0.298791 0.293199 0.500000
O O7 0.808792 0.500000 0.356107
O O8 0.769802 0.349559 0.339061
O O9 0.000000 0.397656 0.395776
O O10 0.500000 0.222730 0.799351
O O11 0.250000 0.250000 0.750000
O O12 0.278922 0.302275 0.844314
O O13 0.162523 0.185220 0.447710
O O14 0.000000 0.108015 0.376768
O O15 0.500000 0.784743 0.000000
#
# Coordination Sequence:
#
# PCOD8288057 Si02
#       6
#     8   8  16  16  16   8
#     4  11  23  35  53  89 129 153 183 236 297 352
#     4  12  23  33  55  92 129 154 184 237 298 352
#     4  10  21  40  64  87 116 156 199 237 281 349
#     4  10  22  41  63  86 113 152 201 246 291 342
#     4  10  20  37  61  83 111 154 199 239 284 350
#     4  10  18  34  60  84 112 153 199 238 283 353
#
# _framework density 19.148565999999999
#
# number of rings (size 3 to 8) (size 9 to 14) (size 15 to 20)
#    0.000    1.667    3.333    1.667    0.000    4.889 
#    2.000    0.000    0.000    0.000    0.000    0.000 
#    0.000    0.000    0.000    0.000    0.000    0.000 
#
# Total GULP energy -446060.684006 kJ/mol
# GULP energy per Si atom -12390.574556 kJ/mol
# Density = 1.910498 g / cm^3
# Si number density = 19.148566 Si / 1000 Ang^3
#
#
#
# Elastic Constant Matrix: (Units=GPa)
#
#
# Indices 1 2 3 4 5 6 
#
# 1 67.5173 50.1832 41.6763 0.0000 0.0000 0.0000
# 2 50.1832 148.5487 68.7348 0.0000 0.0000 0.0000
# 3 41.6763 68.7348 143.3055 0.0000 0.0000 0.0000
# 4 0.0000 0.0000 0.0000 18.0929 0.0000 0.0000
# 5 0.0000 0.0000 0.0000 0.0000 36.6932 0.0000
# 6 0.0000 0.0000 0.0000 0.0000 0.0000 -16.9643
#
#
#
# Elastic Compliance Matrix: (Units=1/GPa)
#
#
# Indices 1 2 3 4 5 6 
#
# 1 0.021049 -0.005499 -0.003484 0.000000 0.000000 0.000000
# 2 -0.005499 0.010088 -0.003240 0.000000 0.000000 0.000000
# 3 -0.003484 -0.003240 0.009545 0.000000 0.000000 0.000000
# 4 0.000000 0.000000 0.000000 0.055270 0.000000 0.000000
# 5 0.000000 0.000000 0.000000 0.000000 0.027253 0.000000
# 6 0.000000 0.000000 0.000000 0.000000 0.000000 -0.058947
#
#
# Mechanical properties :
#
#
# Convention : Reuss Voigt Hill
#
# Bulk Modulus (GPa) = 61.58573 75.61779 68.60176
# Shear Modulus (GPa) = 53.12637 20.81617 36.97127
#
# Velocity S-wave (km/s) = 5.27300 3.30068 4.39881
# Velocity P-wave (km/s) = 8.32494 7.35539 7.85514
#
# Compressibility (1/GPa) = 0.01623753
#
# Stress axis : x y z
#
# Youngs Moduli (GPa) = 47.50929 99.12410 104.76475
#
# Poissons Ratio (x) = 0.54504 0.36500
# Poissons Ratio (y) = 0.26123 0.33940
# Poissons Ratio (z) = 0.16552 0.32113
#
# Static dielectric constant tensor:
#      x y z
#    x 3.489500 0.000000 0.000000 
#    y 0.000000 4.200290 0.000000 
#    z 0.000000 0.000000 3.381660 
# 
# 
# High freq. dielectric constant tensor:
#      x y z
#    x 1.728750 0.000000 0.000000 
#    y 0.000000 1.758800 0.000000 
#    z 0.000000 0.000000 1.735560 
# 
# From -- ./inp_files/42116.got.cif
#   From: 2010.06.25/outbox.cif.g09.slc.cpg/sg71_22_cif.got.tgz:42116.got - 2010.06.28 04:59:45.
