data_PCOD8288213
_publ_section_title
;
Structure prediction by ZEFSAII (Michael W. Deem and Ramdas Pophale) SiO2 
 PCOD8288213
Probable space group: I M M M
;
_chemical_formula_sum "Si O2"
_cell_formula_units_Z 112
_cell_length_a 32.430663
_cell_length_b 14.789014
_cell_length_c 14.017747
_cell_angle_alpha 90.000000
_cell_angle_beta 90.000000
_cell_angle_gamma 90.000000
_cell_volume 6723.157180
_symmetry_space_group_name_H-M "I M M M"
_symmetry_group_IT_number 71
_symmetry_cell_setting 'orthorhombic'
loop_
_space_group_symop_operation_xyz
x,y,z
-x,-y,z
x,-y,-z
-x,y,-z
-x,-y,-z
x,y,-z
-x,y,z
x,-y,z
1/2+x,1/2+y,1/2+z
1/2-x,1/2-y,1/2+z
1/2+x,1/2-y,1/2-z
1/2-x,1/2+y,1/2-z
1/2-x,1/2-y,1/2-z
1/2+x,1/2+y,1/2-z
1/2-x,1/2+y,1/2+z
1/2+x,1/2-y,1/2+z
loop_
_atom_site_type_symbol
_atom_site_label
_atom_site_fract_x
_atom_site_fract_y
_atom_site_fract_z
Si Si1 0.404036 0.102582 0.609003
Si Si2 0.383693 0.397720 0.613268
Si Si3 0.714087 0.213878 0.111535
Si Si4 0.045263 0.770837 0.111627
Si Si5 0.748521 0.599956 0.890737
Si Si6 0.207454 0.101114 0.887079
Si Si7 0.827548 0.603103 0.238115
O O1 0.388518 0.115329 0.500000
O O2 0.442973 0.166435 0.630082
O O3 0.367482 0.132215 0.678889
O O4 0.418234 0.000000 0.627517
O O5 0.384240 0.388773 0.500000
O O6 0.392918 0.500000 0.645102
O O7 0.419561 0.334924 0.658299
O O8 0.337958 0.368365 0.650275
O O9 0.715294 0.321598 0.133096
O O10 0.757379 0.169825 0.148392
O O11 0.676893 0.168242 0.170014
O O12 0.706819 0.193872 0.000000
O O13 0.000000 0.788885 0.157479
O O14 0.042743 0.791557 0.000000
O O15 0.729135 0.500000 0.871736
O O16 0.789053 0.615683 0.830502
O O17 0.762535 0.609869 0.000000
O O18 0.217987 0.000000 0.848468
O O19 0.206361 0.098354 0.000000
O O20 0.831300 0.500000 0.274122
#
# Coordination Sequence:
#
# PCOD8288213 Si02
#       7
#    16  16  16  16  16  16  16
#     4   9  18  31  46  63  85 115 147 180 217 256
#     4   8  14  24  37  54  78 108 140 172 207 250
#     4  10  19  29  45  65  86 115 147 186 227 256
#     4   9  17  27  41  61  81 104 137 176 217 259
#     4   9  18  31  44  59  81 111 149 187 219 253
#     4   8  14  24  37  55  79 107 139 173 210 249
#     4  10  19  30  44  63  86 112 147 184 219 262
#
# _framework density 16.658840000000001
#
# number of rings (size 3 to 8) (size 9 to 14) (size 15 to 20)
#    0.000    3.000    0.000    2.143    2.000    3.143 
#    0.000    2.857    0.000    0.000    0.000    0.000 
#    0.000    0.571    0.000    3.143    0.000    0.143 
#
# Total GULP energy -694004.633788 kJ/mol
# GULP energy per Si atom -12392.939889 kJ/mol
# Density = 1.662092 g / cm^3
# Si number density = 16.658840 Si / 1000 Ang^3
#
#
#
# Elastic Constant Matrix: (Units=GPa)
#
#
# Indices 1 2 3 4 5 6 
#
# 1 68.8875 34.0787 21.0026 0.0000 0.0000 0.0000
# 2 34.0787 87.3754 18.5521 0.0000 0.0000 0.0000
# 3 21.0026 18.5521 31.2401 0.0000 0.0000 0.0000
# 4 0.0000 0.0000 0.0000 13.1813 0.0000 0.0000
# 5 0.0000 0.0000 0.0000 0.0000 10.2626 0.0000
# 6 0.0000 0.0000 0.0000 0.0000 0.0000 19.4083
#
#
#
# Elastic Compliance Matrix: (Units=1/GPa)
#
#
# Indices 1 2 3 4 5 6 
#
# 1 0.020553 -0.005816 -0.010364 0.000000 0.000000 0.000000
# 2 -0.005816 0.014742 -0.004845 0.000000 0.000000 0.000000
# 3 -0.010364 -0.004845 0.041855 0.000000 0.000000 0.000000
# 4 0.000000 0.000000 0.000000 0.075865 0.000000 0.000000
# 5 0.000000 0.000000 0.000000 0.000000 0.097442 0.000000
# 6 0.000000 0.000000 0.000000 0.000000 0.000000 0.051524
#
#
# Mechanical properties :
#
#
# Convention : Reuss Voigt Hill
#
# Bulk Modulus (GPa) = 28.48926 37.19665 32.84296
# Shear Modulus (GPa) = 14.05558 16.16173 15.10866
#
# Velocity S-wave (km/s) = 2.90786 3.11812 3.01482
# Velocity P-wave (km/s) = 5.33037 5.94479 5.64594
#
# Compressibility (1/GPa) = 0.03510094
#
# Stress axis : x y z
#
# Youngs Moduli (GPa) = 48.65379 67.83433 23.89205
#
# Poissons Ratio (x) = 0.39451 0.24762
# Poissons Ratio (y) = 0.28296 0.11575
# Poissons Ratio (z) = 0.50426 0.32863
#
# Static dielectric constant tensor:
#      x y z
#    x 3.151880 0.000000 0.000000 
#    y 0.000000 3.434690 0.000000 
#    z 0.000000 0.000000 2.784960 
# 
# 
# High freq. dielectric constant tensor:
#      x y z
#    x 1.607430 0.000000 0.000000 
#    y 0.000000 1.660910 0.000000 
#    z 0.000000 0.000000 1.592250 
# 
# From -- ./inp_files/41092.got.cif
#   From: 2010.06.25/outbox.cif.g09.slc.cpg/sg71_21_cif.got.tgz:41092.got - 2010.06.28 04:59:45.
