data_PCOD8288563
_publ_section_title
;
Structure prediction by ZEFSAII (Michael W. Deem and Ramdas Pophale) SiO2 
 PCOD8288563
Probable space group: I M M M
;
_chemical_formula_sum "Si O2"
_cell_formula_units_Z 96
_cell_length_a 28.403872
_cell_length_b 7.872610
_cell_length_c 25.108413
_cell_angle_alpha 90.000000
_cell_angle_beta 90.000000
_cell_angle_gamma 90.000000
_cell_volume 5614.557682
_symmetry_space_group_name_H-M "I M M M"
_symmetry_group_IT_number 71
_symmetry_cell_setting 'orthorhombic'
loop_
_space_group_symop_operation_xyz
x,y,z
-x,-y,z
x,-y,-z
-x,y,-z
-x,-y,-z
x,y,-z
-x,y,z
x,-y,z
1/2+x,1/2+y,1/2+z
1/2-x,1/2-y,1/2+z
1/2+x,1/2-y,1/2-z
1/2-x,1/2+y,1/2-z
1/2-x,1/2-y,1/2-z
1/2+x,1/2+y,1/2-z
1/2-x,1/2+y,1/2+z
1/2+x,1/2-y,1/2+z
loop_
_atom_site_type_symbol
_atom_site_label
_atom_site_fract_x
_atom_site_fract_y
_atom_site_fract_z
Si Si1 0.699301 0.500000 0.062927
Si Si2 0.554515 0.305658 0.746456
Si Si3 0.132812 0.303992 0.437731
Si Si4 0.632567 0.689533 0.438707
Si Si5 0.053719 0.307169 0.134500
Si Si6 0.804123 0.500000 0.936781
Si Si7 0.052162 0.698652 0.358826
O O1 0.673469 0.326165 0.081137
O O2 0.751690 0.500000 0.088055
O O3 0.703107 0.500000 0.000000
O O4 0.500000 0.261267 0.753276
O O5 0.564711 0.500000 0.734174
O O6 0.573889 0.204385 0.695063
O O7 0.577256 0.253236 0.803040
O O8 0.122068 0.283595 0.500000
O O9 0.147281 0.500000 0.424384
O O10 0.085645 0.246166 0.407203
O O11 0.620001 0.727863 0.500000
O O12 0.654409 0.500000 0.432633
O O13 0.584481 0.695349 0.405391
O O14 0.669226 0.829952 0.416804
O O15 0.056260 0.500000 0.114885
O O16 0.000000 0.238047 0.132943
O O17 0.801080 0.500000 0.000000
O O18 0.046018 0.500000 0.358638
O O19 0.000000 0.782885 0.366299
#
# Coordination Sequence:
#
# PCOD8288563 Si02
#       7
#     8  16  16  16  16   8  16
#     4   9  18  32  51  71  95 125 158 204 252 291
#     4   9  17  28  43  65  93 125 164 206 237 271
#     4   9  18  31  47  71 101 129 163 201 239 291
#     4  10  20  33  50  73 101 129 161 198 237 289
#     4  10  19  31  48  69  99 134 165 198 235 279
#     4   9  18  34  51  71  97 123 158 204 250 291
#     4   9  17  29  45  66  97 133 166 200 238 281
#
# _framework density 17.098409
#
# number of rings (size 3 to 8) (size 9 to 14) (size 15 to 20)
#    0.000    2.667    0.833    1.000    1.167    4.333 
#    0.000    6.667    0.000    1.500    0.000    1.167 
#    0.000    0.000    0.000    0.000    0.000    0.000 
#
# Total GULP energy -594917.239754 kJ/mol
# GULP energy per Si atom -12394.109162 kJ/mol
# Density = 1.705949 g / cm^3
# Si number density = 17.098409 Si / 1000 Ang^3
#
#
#
# Elastic Constant Matrix: (Units=GPa)
#
#
# Indices 1 2 3 4 5 6 
#
# 1 92.3313 47.3486 47.4362 0.0000 0.0000 0.0000
# 2 47.3486 84.3166 35.3034 0.0000 0.0000 0.0000
# 3 47.4362 35.3034 68.0526 0.0000 0.0000 0.0000
# 4 0.0000 0.0000 0.0000 22.0218 0.0000 0.0000
# 5 0.0000 0.0000 0.0000 0.0000 -5.8083 0.0000
# 6 0.0000 0.0000 0.0000 0.0000 0.0000 20.0513
#
#
#
# Elastic Compliance Matrix: (Units=1/GPa)
#
#
# Indices 1 2 3 4 5 6 
#
# 1 0.019444 -0.006699 -0.010078 0.000000 0.000000 0.000000
# 2 -0.006699 0.017459 -0.004388 0.000000 0.000000 0.000000
# 3 -0.010078 -0.004388 0.023995 0.000000 0.000000 0.000000
# 4 0.000000 0.000000 0.000000 0.045410 0.000000 0.000000
# 5 0.000000 0.000000 0.000000 0.000000 -0.172168 0.000000
# 6 0.000000 0.000000 0.000000 0.000000 0.000000 0.049872
#
#
# Mechanical properties :
#
#
# Convention : Reuss Voigt Hill
#
# Bulk Modulus (GPa) = 53.85328 56.09745 54.97536
# Shear Modulus (GPa) = 153.70177 14.89378 84.29778
#
# Velocity S-wave (km/s) = 9.49145 2.95458 7.02912
# Velocity P-wave (km/s) = 12.31589 6.67227 9.90455
#
# Compressibility (1/GPa) = 0.01856897
#
# Stress axis : x y z
#
# Youngs Moduli (GPa) = 51.43092 57.27694 41.67452
#
# Poissons Ratio (x) = 0.38370 0.41999
# Poissons Ratio (y) = 0.34454 0.18285
# Poissons Ratio (z) = 0.51832 0.25131
#
# Static dielectric constant tensor:
#      x y z
#    x 3.445390 0.000000 0.000000 
#    y 0.000000 3.283680 0.000000 
#    z 0.000000 0.000000 3.213910 
# 
# 
# High freq. dielectric constant tensor:
#      x y z
#    x 1.619430 0.000000 0.000000 
#    y 0.000000 1.673200 0.000000 
#    z 0.000000 0.000000 1.644260 
# 
# From -- ./inp_files/61899.got.cif
#   From: 2010.06.25/outbox.cif.g09.slc.cpg/sg71_31_cif.got.tgz:61899.got - 2010.06.28 04:59:45.
