data_PCOD8288665
_publ_section_title
;
Structure prediction by ZEFSAII (Michael W. Deem and Ramdas Pophale) SiO2 
 PCOD8288665
Probable space group: I M M M
;
_chemical_formula_sum "Si O2"
_cell_formula_units_Z 72
_cell_length_a 9.008139
_cell_length_b 13.251228
_cell_length_c 31.984346
_cell_angle_alpha 90.000000
_cell_angle_beta 90.000000
_cell_angle_gamma 90.000000
_cell_volume 3817.936319
_symmetry_space_group_name_H-M "I M M M"
_symmetry_group_IT_number 71
_symmetry_cell_setting 'orthorhombic'
loop_
_space_group_symop_operation_xyz
x,y,z
-x,-y,z
x,-y,-z
-x,y,-z
-x,-y,-z
x,y,-z
-x,y,z
x,-y,z
1/2+x,1/2+y,1/2+z
1/2-x,1/2-y,1/2+z
1/2+x,1/2-y,1/2-z
1/2-x,1/2+y,1/2-z
1/2-x,1/2-y,1/2-z
1/2+x,1/2+y,1/2-z
1/2-x,1/2+y,1/2+z
1/2+x,1/2-y,1/2+z
loop_
_atom_site_type_symbol
_atom_site_label
_atom_site_fract_x
_atom_site_fract_y
_atom_site_fract_z
Si Si1 0.823630 0.111903 0.047082
Si Si2 0.831455 0.612275 0.740000
Si Si3 0.326970 0.297045 0.814855
Si Si4 0.323385 0.804384 0.597109
Si Si5 0.823552 0.500000 0.047026
O O1 0.760667 0.200293 0.076899
O O2 0.000000 0.117033 0.046828
O O3 0.772036 0.000000 0.062598
O O4 0.764782 0.130505 0.000000
O O5 0.814090 0.500000 0.722152
O O6 0.724841 0.623699 0.779840
O O7 0.786638 0.685624 0.702116
O O8 0.000000 0.635302 0.754500
O O9 0.500000 0.311518 0.823744
O O10 0.238042 0.317129 0.856727
O O11 0.500000 0.802917 0.599062
O O12 0.265802 0.899474 0.570212
O O13 0.000000 0.500000 0.046069
O O14 0.759592 0.500000 0.000000
#
# Coordination Sequence:
#
# PCOD8288665 Si02
#       5
#    16  16  16  16   8
#     4   8  14  26  46  72  99 127 164 213 261 297
#     4   9  19  37  58  74  96 133 173 211 251 301
#     4  10  21  35  51  77 106 132 166 208 257 309
#     4  10  19  31  50  75 102 133 170 212 254 304
#     4   9  18  32  51  75 101 135 179 219 251 291
#
# _framework density 18.858357000000002
#
# number of rings (size 3 to 8) (size 9 to 14) (size 15 to 20)
#    0.000    2.778    0.000    2.000    1.556    4.889 
#    0.000    0.000    0.000    3.333    0.000    1.556 
#    0.000    0.000    0.000    0.000    0.000    0.000 
#
# Total GULP energy -446309.900948 kJ/mol
# GULP energy per Si atom -12397.497249 kJ/mol
# Density = 1.881543 g / cm^3
# Si number density = 18.858357 Si / 1000 Ang^3
#
#
#
# Elastic Constant Matrix: (Units=GPa)
#
#
# Indices 1 2 3 4 5 6 
#
# 1 22.6194 22.8860 21.9875 0.0000 0.0000 0.0000
# 2 22.8860 135.7697 59.3233 0.0000 0.0000 0.0000
# 3 21.9875 59.3233 120.6450 0.0000 0.0000 0.0000
# 4 0.0000 0.0000 0.0000 17.5944 0.0000 0.0000
# 5 0.0000 0.0000 0.0000 0.0000 13.8752 0.0000
# 6 0.0000 0.0000 0.0000 0.0000 0.0000 14.3552
#
#
#
# Elastic Compliance Matrix: (Units=1/GPa)
#
#
# Indices 1 2 3 4 5 6 
#
# 1 0.057989 -0.006568 -0.007339 0.000000 0.000000 0.000000
# 2 -0.006568 0.010125 -0.003782 0.000000 0.000000 0.000000
# 3 -0.007339 -0.003782 0.011486 0.000000 0.000000 0.000000
# 4 0.000000 0.000000 0.000000 0.056836 0.000000 0.000000
# 5 0.000000 0.000000 0.000000 0.000000 0.072071 0.000000
# 6 0.000000 0.000000 0.000000 0.000000 0.000000 0.069661
#
#
# Mechanical properties :
#
#
# Convention : Reuss Voigt Hill
#
# Bulk Modulus (GPa) = 22.61282 54.15863 38.38573
# Shear Modulus (GPa) = 15.23059 20.82077 18.02568
#
# Velocity S-wave (km/s) = 2.84497 3.32635 3.09503
# Velocity P-wave (km/s) = 4.77584 6.59801 5.75945
#
# Compressibility (1/GPa) = 0.04422271
#
# Stress axis : x y z
#
# Youngs Moduli (GPa) = 17.24455 98.76628 87.06475
#
# Poissons Ratio (x) = 0.64873 0.63895
# Poissons Ratio (y) = 0.11327 0.32924
# Poissons Ratio (z) = 0.12655 0.37349
#
# Static dielectric constant tensor:
#      x y z
#    x 3.063490 0.000000 0.000000 
#    y 0.000000 3.790520 0.000000 
#    z 0.000000 0.000000 3.378960 
# 
# 
# High freq. dielectric constant tensor:
#      x y z
#    x 1.689420 0.000000 0.000000 
#    y 0.000000 1.748290 0.000000 
#    z 0.000000 0.000000 1.727910 
# 
# From -- ./inp_files/6470.got.cif
#   From: 2010.06.25/outbox.cif.g09.slc.cpg/sg71_4_cif.got.tgz:6470.got - 2010.06.28 04:59:45.
