data_PCOD8288257
_publ_section_title
;
Structure prediction by ZEFSAII (Michael W. Deem and Ramdas Pophale) SiO2 
 PCOD8288257
Probable space group: I M M M
;
_chemical_formula_sum "Si O2"
_cell_formula_units_Z 96
_cell_length_a 12.539371
_cell_length_b 24.496308
_cell_length_c 20.083171
_cell_angle_alpha 90.000000
_cell_angle_beta 90.000000
_cell_angle_gamma 90.000000
_cell_volume 6168.913377
_symmetry_space_group_name_H-M "I M M M"
_symmetry_group_IT_number 71
_symmetry_cell_setting 'orthorhombic'
loop_
_space_group_symop_operation_xyz
x,y,z
-x,-y,z
x,-y,-z
-x,y,-z
-x,-y,-z
x,y,-z
-x,y,z
x,-y,z
1/2+x,1/2+y,1/2+z
1/2-x,1/2-y,1/2+z
1/2+x,1/2-y,1/2-z
1/2-x,1/2+y,1/2-z
1/2-x,1/2-y,1/2-z
1/2+x,1/2+y,1/2-z
1/2-x,1/2+y,1/2+z
1/2+x,1/2-y,1/2+z
loop_
_atom_site_type_symbol
_atom_site_label
_atom_site_fract_x
_atom_site_fract_y
_atom_site_fract_z
Si Si1 0.374928 0.809344 0.777544
Si Si2 0.250097 0.282278 0.149786
Si Si3 0.305400 0.616593 0.684150
Si Si4 0.616792 0.500000 0.162644
Si Si5 0.380883 0.500000 0.319146
Si Si6 0.876121 0.117213 0.666716
Si Si7 0.378649 0.300085 0.574214
O O1 0.500000 0.819263 0.783716
O O2 0.340458 0.756529 0.819161
O O3 0.342690 0.798009 0.701594
O O4 0.316779 0.863845 0.805988
O O5 0.310348 0.337262 0.126277
O O6 0.195180 0.252622 0.087726
O O7 0.313505 0.553753 0.660049
O O8 0.366455 0.626671 0.753798
O O9 0.360581 0.652558 0.627571
O O10 0.500000 0.500000 0.129365
O O11 0.602381 0.500000 0.241240
O O12 0.673257 0.442319 0.144325
O O13 0.500000 0.500000 0.352208
O O14 0.000000 0.120281 0.647526
O O15 0.351715 0.321812 0.500000
O O16 0.500000 0.280491 0.578815
#
# Coordination Sequence:
#
# PCOD8288257 Si02
#       7
#    16  16  16   8   8  16  16
#     4   9  16  26  40  60  85 107 132 171 211 248
#     4   9  17  25  40  61  80 106 138 167 202 249
#     4   9  17  27  42  62  83 111 140 166 202 247
#     4   7  12  20  34  60  88 109 124 148 195 246
#     4   9  14  24  42  61  84 109 136 169 204 245
#     4   9  14  23  41  64  88 108 129 161 201 247
#     4  10  19  30  42  57  81 109 137 172 208 240
#
# _framework density 15.561897999999999
#
# number of rings (size 3 to 8) (size 9 to 14) (size 15 to 20)
#    0.000    3.000    0.000    4.500    0.000    0.000 
#    0.000    0.833    0.000   14.000    0.000    2.333 
#    0.000    8.667    0.000    0.000    0.000    0.000 
#
# Total GULP energy -594700.529202 kJ/mol
# GULP energy per Si atom -12389.594358 kJ/mol
# Density = 1.552648 g / cm^3
# Si number density = 15.561898 Si / 1000 Ang^3
#
#
#
# Elastic Constant Matrix: (Units=GPa)
#
#
# Indices 1 2 3 4 5 6 
#
# 1 94.3151 47.8875 11.2828 0.0000 0.0000 0.0000
# 2 47.8875 140.4184 14.7639 0.0000 0.0000 0.0000
# 3 11.2828 14.7639 26.0909 0.0000 0.0000 0.0000
# 4 0.0000 0.0000 0.0000 8.6580 0.0000 0.0000
# 5 0.0000 0.0000 0.0000 0.0000 13.6100 0.0000
# 6 0.0000 0.0000 0.0000 0.0000 0.0000 21.6431
#
#
#
# Elastic Compliance Matrix: (Units=1/GPa)
#
#
# Indices 1 2 3 4 5 6 
#
# 1 0.013090 -0.004114 -0.003333 0.000000 0.000000 0.000000
# 2 -0.004114 0.008865 -0.003237 0.000000 0.000000 0.000000
# 3 -0.003333 -0.003237 0.041601 0.000000 0.000000 0.000000
# 4 0.000000 0.000000 0.000000 0.115500 0.000000 0.000000
# 5 0.000000 0.000000 0.000000 0.000000 0.073475 0.000000
# 6 0.000000 0.000000 0.000000 0.000000 0.000000 0.046204
#
#
# Mechanical properties :
#
#
# Convention : Reuss Voigt Hill
#
# Bulk Modulus (GPa) = 23.70354 45.41032 34.55693
# Shear Modulus (GPa) = 14.96261 21.24156 18.10209
#
# Velocity S-wave (km/s) = 3.10415 3.69856 3.41432
# Velocity P-wave (km/s) = 5.30213 6.89079 6.14799
#
# Compressibility (1/GPa) = 0.04218779
#
# Stress axis : x y z
#
# Youngs Moduli (GPa) = 76.39306 112.80445 24.03799
#
# Poissons Ratio (x) = 0.46405 0.08012
# Poissons Ratio (y) = 0.31426 0.07782
# Poissons Ratio (z) = 0.25461 0.36519
#
# Static dielectric constant tensor:
#      x y z
#    x 2.821630 0.000000 0.000000 
#    y 0.000000 3.402280 0.000000 
#    z 0.000000 0.000000 2.595000 
# 
# 
# High freq. dielectric constant tensor:
#      x y z
#    x 1.579880 0.000000 0.000000 
#    y 0.000000 1.607130 0.000000 
#    z 0.000000 0.000000 1.548190 
# 
# From -- ./inp_files/27768.got.cif
#   From: 2010.06.25/outbox.cif.g09.slc.cpg/sg71_14_cif.got.tgz:27768.got - 2010.06.28 04:59:45.
