data_PCOD8288519
_publ_section_title
;
Structure prediction by ZEFSAII (Michael W. Deem and Ramdas Pophale) SiO2 
 PCOD8288519
Probable space group: I M M M
;
_chemical_formula_sum "Si O2"
_cell_formula_units_Z 104
_cell_length_a 19.544595
_cell_length_b 30.562740
_cell_length_c 9.983528
_cell_angle_alpha 90.000000
_cell_angle_beta 90.000000
_cell_angle_gamma 90.000000
_cell_volume 5963.524429
_symmetry_space_group_name_H-M "I M M M"
_symmetry_group_IT_number 71
_symmetry_cell_setting 'orthorhombic'
loop_
_space_group_symop_operation_xyz
x,y,z
-x,-y,z
x,-y,-z
-x,y,-z
-x,-y,-z
x,y,-z
-x,y,z
x,-y,z
1/2+x,1/2+y,1/2+z
1/2-x,1/2-y,1/2+z
1/2+x,1/2-y,1/2-z
1/2-x,1/2+y,1/2-z
1/2-x,1/2-y,1/2-z
1/2+x,1/2+y,1/2-z
1/2-x,1/2+y,1/2+z
1/2+x,1/2-y,1/2+z
loop_
_atom_site_type_symbol
_atom_site_label
_atom_site_fract_x
_atom_site_fract_y
_atom_site_fract_z
Si Si1 0.879324 0.050690 0.846603
Si Si2 0.000000 0.732387 0.147327
Si Si3 0.730819 0.378285 0.652356
Si Si4 0.728682 0.695745 0.143921
Si Si5 0.883681 0.368729 0.351933
Si Si6 0.360491 0.227098 0.775069
Si Si7 0.500000 0.448152 0.846724
Si Si8 0.500000 0.128621 0.651119
O O1 0.810877 0.077806 0.817847
O O2 0.934641 0.067698 0.738791
O O3 0.861760 0.000000 0.823069
O O4 0.905563 0.057904 0.000000
O O5 0.930606 0.748237 0.218978
O O6 0.000000 0.680300 0.138905
O O7 0.000000 0.753192 0.000000
O O8 0.721124 0.362414 0.500000
O O9 0.704957 0.338224 0.743043
O O10 0.809888 0.389253 0.682185
O O11 0.676270 0.736244 0.136484
O O12 0.806487 0.712850 0.160591
O O13 0.725767 0.672030 0.000000
O O14 0.908640 0.383990 0.500000
O O15 0.879200 0.315961 0.359838
O O16 0.933718 0.386373 0.235782
O O17 0.500000 0.500000 0.853265
O O18 0.500000 0.429208 0.000000
O O19 0.500000 0.108178 0.500000
#
# Coordination Sequence:
#
# PCOD8288519 Si02
#       8
#    16   8  16  16  16  16   8   8
#     4   9  17  32  53  73  94 122 153 185 227 279
#     4   9  16  27  42  62  85 110 146 191 231 260
#     4   9  19  32  47  70  95 118 149 189 228 272
#     4  10  19  31  47  66  90 122 155 186 226 274
#     4   9  16  28  45  65  91 119 148 185 228 266
#     4   9  18  29  45  65  87 116 154 191 224 265
#     4   9  17  29  48  75 100 119 146 187 230 273
#     4   9  17  27  41  64  91 118 151 188 223 262
#
# _framework density 17.439350999999998
#
# number of rings (size 3 to 8) (size 9 to 14) (size 15 to 20)
#    0.000    2.846    0.000    1.385    0.000    9.538 
#    0.000    1.923    0.000    0.000    0.000    0.538 
#    0.000    4.308    0.000    0.000    0.000    0.000 
#
# Total GULP energy -644434.973071 kJ/mol
# GULP energy per Si atom -12392.980251 kJ/mol
# Density = 1.739966 g / cm^3
# Si number density = 17.439351 Si / 1000 Ang^3
#
#
#
# Elastic Constant Matrix: (Units=GPa)
#
#
# Indices 1 2 3 4 5 6 
#
# 1 124.9428 36.2443 65.7347 -0.0001 0.0000 0.0000
# 2 36.2443 42.9901 32.2749 0.0000 0.0000 0.0000
# 3 65.7347 32.2749 134.8261 -0.0005 -0.0003 -0.0003
# 4 -0.0001 0.0000 -0.0005 13.6836 -0.0001 -0.0001
# 5 0.0000 0.0000 -0.0003 -0.0001 16.4188 -0.0001
# 6 0.0000 0.0000 -0.0003 -0.0001 -0.0001 21.7001
#
#
#
# Elastic Compliance Matrix: (Units=1/GPa)
#
#
# Indices 1 2 3 4 5 6 
#
# 1 0.012351 -0.007183 -0.004302 0.000000 0.000000 0.000000
# 2 -0.007183 0.032535 -0.004286 0.000000 0.000000 0.000000
# 3 -0.004302 -0.004286 0.010541 0.000000 0.000000 0.000000
# 4 0.000000 0.000000 0.000000 0.073080 0.000001 0.000000
# 5 0.000000 0.000000 0.000000 0.000001 0.060906 0.000000
# 6 0.000000 0.000000 0.000000 0.000000 0.000000 0.046083
#
#
# Mechanical properties :
#
#
# Convention : Reuss Voigt Hill
#
# Bulk Modulus (GPa) = 41.86976 63.47409 52.67193
# Shear Modulus (GPa) = 18.18192 21.59418 19.88805
#
# Velocity S-wave (km/s) = 3.23240 3.52269 3.38066
# Velocity P-wave (km/s) = 6.16378 7.28161 6.74589
#
# Compressibility (1/GPa) = 0.02388359
#
# Stress axis : x y z
#
# Youngs Moduli (GPa) = 80.96651 30.73628 94.87171
#
# Poissons Ratio (x) = 0.22077 0.40816
# Poissons Ratio (y) = 0.58157 0.40664
# Poissons Ratio (z) = 0.34833 0.13174
#
# Static dielectric constant tensor:
#      x y z
#    x 3.379180 0.000000 0.000000 
#    y 0.000000 2.755370 0.000000 
#    z 0.000000 0.000000 3.419730 
# 
# 
# High freq. dielectric constant tensor:
#      x y z
#    x 1.677910 0.000000 0.000000 
#    y 0.000000 1.613100 0.000000 
#    z 0.000000 0.000000 1.682700 
# 
# From -- ./inp_files/11566.got.cif
#   From: 2010.06.25/outbox.cif.g09.slc.cpg/sg71_6_cif.got.tgz:11566.got - 2010.06.28 04:59:45.
