data_PCOD8288159
_publ_section_title
;
Structure prediction by ZEFSAII (Michael W. Deem and Ramdas Pophale) SiO2 
 PCOD8288159
Probable space group: I M M M
;
_chemical_formula_sum "Si O2"
_cell_formula_units_Z 72
_cell_length_a 23.307704
_cell_length_b 23.373262
_cell_length_c 8.540621
_cell_angle_alpha 90.000000
_cell_angle_beta 90.000000
_cell_angle_gamma 90.000000
_cell_volume 4652.734503
_symmetry_space_group_name_H-M "I M M M"
_symmetry_group_IT_number 71
_symmetry_cell_setting 'orthorhombic'
loop_
_space_group_symop_operation_xyz
x,y,z
-x,-y,z
x,-y,-z
-x,y,-z
-x,-y,-z
x,y,-z
-x,y,z
x,-y,z
1/2+x,1/2+y,1/2+z
1/2-x,1/2-y,1/2+z
1/2+x,1/2-y,1/2-z
1/2-x,1/2+y,1/2-z
1/2-x,1/2-y,1/2-z
1/2+x,1/2+y,1/2-z
1/2-x,1/2+y,1/2+z
1/2+x,1/2-y,1/2+z
loop_
_atom_site_type_symbol
_atom_site_label
_atom_site_fract_x
_atom_site_fract_y
_atom_site_fract_z
Si Si1 0.162192 0.221274 0.321502
Si Si2 0.724462 0.172233 0.316805
Si Si3 0.126465 0.388971 0.316643
Si Si4 0.565944 0.000000 0.684864
Si Si5 0.935053 0.280225 0.819089
O O1 0.141763 0.218644 0.500000
O O2 0.206405 0.168580 0.284024
O O3 0.198530 0.278557 0.292743
O O4 0.104411 0.224027 0.216520
O O5 0.713963 0.186167 0.500000
O O6 0.689448 0.115470 0.266721
O O7 0.135698 0.394772 0.500000
O O8 0.095618 0.444423 0.252955
O O9 0.087089 0.333988 0.279988
O O10 0.500000 0.000000 0.738208
O O11 0.571871 0.000000 0.500000
O O12 0.000000 0.265485 0.771064
O O13 0.930428 0.296841 0.000000
#
# Coordination Sequence:
#
# PCOD8288159 Si02
#       5
#    16  16  16   8  16
#     4   9  16  25  40  60  79 102 132 166 201 238
#     4   9  16  27  42  59  79 102 130 164 204 247
#     4  11  21  31  45  62  79 103 137 176 212 244
#     4  11  23  37  49  59  77 107 140 175 214 249
#     4  10  19  29  41  58  82 112 141 168 203 246
#
# _framework density 15.474771
#
# number of rings (size 3 to 8) (size 9 to 14) (size 15 to 20)
#    0.000    2.111    0.000    7.667    0.000    8.000 
#    0.000    0.000    0.000    0.000    0.000    0.000 
#    0.000    0.000    0.000    1.000    0.000   18.667 
#
# Total GULP energy -446038.771162 kJ/mol
# GULP energy per Si atom -12389.965866 kJ/mol
# Density = 1.543955 g / cm^3
# Si number density = 15.474771 Si / 1000 Ang^3
#
#
#
# Elastic Constant Matrix: (Units=GPa)
#
#
# Indices 1 2 3 4 5 6 
#
# 1 142.5001 55.7704 37.0761 0.0000 0.0000 0.0000
# 2 55.7704 44.5334 25.6912 0.0000 0.0000 0.0000
# 3 37.0761 25.6912 58.2671 0.0000 0.0000 0.0000
# 4 0.0000 0.0000 0.0000 19.3791 0.0000 0.0000
# 5 0.0000 0.0000 0.0000 0.0000 24.7509 0.0000
# 6 0.0000 0.0000 0.0000 0.0000 0.0000 27.0222
#
#
#
# Elastic Compliance Matrix: (Units=1/GPa)
#
#
# Indices 1 2 3 4 5 6 
#
# 1 0.013869 -0.016466 -0.001565 0.000000 0.000000 0.000000
# 2 -0.016466 0.049664 -0.011421 0.000000 0.000000 0.000000
# 3 -0.001565 -0.011421 0.023194 0.000000 0.000000 0.000000
# 4 0.000000 0.000000 0.000000 0.051602 0.000000 0.000000
# 5 0.000000 0.000000 0.000000 0.000000 0.040403 0.000000
# 6 0.000000 0.000000 0.000000 0.000000 0.000000 0.037007
#
#
# Mechanical properties :
#
#
# Convention : Reuss Voigt Hill
#
# Bulk Modulus (GPa) = 35.93987 53.59733 44.76860
# Shear Modulus (GPa) = 17.61094 22.68129 20.14611
#
# Velocity S-wave (km/s) = 3.37715 3.83259 3.61206
# Velocity P-wave (km/s) = 6.20339 7.36855 6.81093
#
# Compressibility (1/GPa) = 0.02782425
#
# Stress axis : x y z
#
# Youngs Moduli (GPa) = 72.10415 20.13539 43.11520
#
# Poissons Ratio (x) = 0.33154 0.06747
# Poissons Ratio (y) = 1.18723 0.49240
# Poissons Ratio (z) = 0.11284 0.22996
#
# Static dielectric constant tensor:
#      x y z
#    x 3.565350 0.000000 0.000000 
#    y 0.000000 2.767860 0.000000 
#    z 0.000000 0.000000 3.065540 
# 
# 
# High freq. dielectric constant tensor:
#      x y z
#    x 1.602730 0.000000 0.000000 
#    y 0.000000 1.526010 0.000000 
#    z 0.000000 0.000000 1.613260 
# 
# From -- ./inp_files/12717.got.cif
#   From: 2010.06.25/outbox.cif.g09.slc.cpg/sg71_7_cif.got.tgz:12717.got - 2010.06.28 04:59:45.
