data_PCOD8288481
_publ_section_title
;
Structure prediction by ZEFSAII (Michael W. Deem and Ramdas Pophale) SiO2 
 PCOD8288481
Probable space group: I M M M
;
_chemical_formula_sum "Si O2"
_cell_formula_units_Z 76
_cell_length_a 29.445570
_cell_length_b 7.694038
_cell_length_c 16.665438
_cell_angle_alpha 90.000000
_cell_angle_beta 90.000000
_cell_angle_gamma 90.000000
_cell_volume 3775.643881
_symmetry_space_group_name_H-M "I M M M"
_symmetry_group_IT_number 71
_symmetry_cell_setting 'orthorhombic'
loop_
_space_group_symop_operation_xyz
x,y,z
-x,-y,z
x,-y,-z
-x,y,-z
-x,-y,-z
x,y,-z
-x,y,z
x,-y,z
1/2+x,1/2+y,1/2+z
1/2-x,1/2-y,1/2+z
1/2+x,1/2-y,1/2-z
1/2-x,1/2+y,1/2-z
1/2-x,1/2-y,1/2-z
1/2+x,1/2+y,1/2-z
1/2-x,1/2+y,1/2+z
1/2+x,1/2-y,1/2+z
loop_
_atom_site_type_symbol
_atom_site_label
_atom_site_fract_x
_atom_site_fract_y
_atom_site_fract_z
Si Si1 0.672982 0.500000 0.500000
Si Si2 0.600419 0.203975 0.500000
Si Si3 0.500000 0.707614 0.909258
Si Si4 0.679453 0.302518 0.904760
Si Si5 0.911492 0.801214 0.325510
Si Si6 0.240130 0.500000 0.588527
Si Si7 0.550991 0.795778 0.337169
O O1 0.645103 0.322000 0.500000
O O2 0.704891 0.500000 0.580485
O O3 0.570426 0.255088 0.576433
O O4 0.614430 0.000000 0.500000
O O5 0.500000 0.500000 0.902386
O O6 0.544374 0.787813 0.865885
O O7 0.500000 0.772485 0.000000
O O8 0.690418 0.500000 0.876570
O O9 0.635062 0.222389 0.860284
O O10 0.720970 0.179648 0.873407
O O11 0.671412 0.300172 0.000000
O O12 0.915386 0.782776 0.229511
O O13 0.910612 0.000000 0.351855
O O14 0.217954 0.500000 0.500000
O O15 0.500000 0.718054 0.328754
O O16 0.549498 0.000000 0.326690
#
# Coordination Sequence:
#
# PCOD8288481 Si02
#       7
#     4   8   8  16  16   8  16
#     4  10  22  40  65  98 110 141 194 260 314 366
#     4  10  23  42  64  90 114 152 193 248 305 370
#     4   9  16  28  45  72 119 162 196 238 272 324
#     4   9  17  31  52  82 114 156 200 231 277 342
#     4  10  19  30  50  82 116 156 203 237 280 339
#     4   8  18  34  56  86 110 141 186 247 298 347
#     4  10  21  38  58  83 119 158 195 237 296 355
#
# _framework density 20.129016
#
# number of rings (size 3 to 8) (size 9 to 14) (size 15 to 20)
#    0.316    2.211    1.053    0.947    2.947    4.632 
#    0.000    0.526    0.000    1.895    0.000    0.000 
#    0.000    0.000    0.000    0.000    0.000    0.000 
#
# Total GULP energy -470926.516865 kJ/mol
# GULP energy per Si atom -12392.803075 kJ/mol
# Density = 2.008320 g / cm^3
# Si number density = 20.129016 Si / 1000 Ang^3
#
#
#
# Elastic Constant Matrix: (Units=GPa)
#
#
# Indices 1 2 3 4 5 6 
#
# 1 113.1501 44.5861 23.6430 0.0000 0.0000 0.0000
# 2 44.5861 71.0505 11.6769 0.0000 0.0000 0.0000
# 3 23.6430 11.6769 86.8039 0.0000 0.0000 0.0000
# 4 0.0000 0.0000 0.0000 17.9147 0.0000 0.0000
# 5 0.0000 0.0000 0.0000 0.0000 16.5476 0.0000
# 6 0.0000 0.0000 0.0000 0.0000 0.0000 29.6824
#
#
#
# Elastic Compliance Matrix: (Units=1/GPa)
#
#
# Indices 1 2 3 4 5 6 
#
# 1 0.012190 -0.007264 -0.002343 0.000000 0.000000 0.000000
# 2 -0.007264 0.018722 -0.000540 0.000000 0.000000 0.000000
# 3 -0.002343 -0.000540 0.012231 0.000000 0.000000 0.000000
# 4 0.000000 0.000000 0.000000 0.055820 0.000000 0.000000
# 5 0.000000 0.000000 0.000000 0.000000 0.060432 0.000000
# 6 0.000000 0.000000 0.000000 0.000000 0.000000 0.033690
#
#
# Mechanical properties :
#
#
# Convention : Reuss Voigt Hill
#
# Bulk Modulus (GPa) = 43.76705 47.86850 45.81777
# Shear Modulus (GPa) = 22.62494 25.56885 24.09689
#
# Velocity S-wave (km/s) = 3.35624 3.56792 3.46370
# Velocity P-wave (km/s) = 6.06709 6.38795 6.22959
#
# Compressibility (1/GPa) = 0.02284824
#
# Stress axis : x y z
#
# Youngs Moduli (GPa) = 82.03526 53.41357 81.75947
#
# Poissons Ratio (x) = 0.38802 0.19156
# Poissons Ratio (y) = 0.59594 0.04414
# Poissons Ratio (z) = 0.19221 0.02884
#
# Static dielectric constant tensor:
#      x y z
#    x 3.606240 0.000000 0.000000 
#    y 0.000000 3.547820 0.000000 
#    z 0.000000 0.000000 3.457640 
# 
# 
# High freq. dielectric constant tensor:
#      x y z
#    x 1.774510 0.000000 0.000000 
#    y 0.000000 1.779270 0.000000 
#    z 0.000000 0.000000 1.764460 
# 
# From -- ./inp_files/48649.got.cif
#   From: 2010.06.25/outbox.cif.g09.slc.cpg/sg71_25_cif.got.tgz:48649.got - 2010.06.28 04:59:45.
