data_PCOD8288107
_publ_section_title
;
Structure prediction by ZEFSAII (Michael W. Deem and Ramdas Pophale) SiO2 
 PCOD8288107
Probable space group: I M M M
;
_chemical_formula_sum "Si O2"
_cell_formula_units_Z 112
_cell_length_a 18.154920
_cell_length_b 25.680392
_cell_length_c 14.186801
_cell_angle_alpha 90.000000
_cell_angle_beta 90.000000
_cell_angle_gamma 90.000000
_cell_volume 6614.247855
_symmetry_space_group_name_H-M "I M M M"
_symmetry_group_IT_number 71
_symmetry_cell_setting 'orthorhombic'
loop_
_space_group_symop_operation_xyz
x,y,z
-x,-y,z
x,-y,-z
-x,y,-z
-x,-y,-z
x,y,-z
-x,y,z
x,-y,z
1/2+x,1/2+y,1/2+z
1/2-x,1/2-y,1/2+z
1/2+x,1/2-y,1/2-z
1/2-x,1/2+y,1/2-z
1/2-x,1/2-y,1/2-z
1/2+x,1/2+y,1/2-z
1/2-x,1/2+y,1/2+z
1/2+x,1/2-y,1/2+z
loop_
_atom_site_type_symbol
_atom_site_label
_atom_site_fract_x
_atom_site_fract_y
_atom_site_fract_z
Si Si1 0.582678 0.944078 0.793678
Si Si2 0.913871 0.750564 0.266724
Si Si3 0.159914 0.831903 0.611476
Si Si4 0.822773 0.293564 0.105672
Si Si5 0.133213 0.409646 0.894540
Si Si6 0.412266 0.155351 0.105132
Si Si7 0.295717 0.556860 0.889000
O O1 0.500000 0.948325 0.831502
O O2 0.576860 0.931445 0.682209
O O3 0.622604 0.897601 0.850885
O O4 0.622298 0.000000 0.811767
O O5 0.901390 0.803536 0.325349
O O6 0.862809 0.748206 0.173584
O O7 0.886113 0.703575 0.332729
O O8 0.000000 0.746556 0.239557
O O9 0.141836 0.827378 0.500000
O O10 0.238412 0.805113 0.633974
O O11 0.157918 0.892726 0.645269
O O12 0.867730 0.347309 0.109597
O O13 0.825785 0.270432 0.000000
O O14 0.211270 0.433214 0.863092
O O15 0.111370 0.428169 0.000000
O O16 0.500000 0.152711 0.105023
O O17 0.380936 0.162523 0.000000
O O18 0.321013 0.500000 0.846947
O O19 0.303595 0.554927 0.000000
#
# Coordination Sequence:
#
# PCOD8288107 Si02
#       7
#    16  16  16  16  16  16  16
#     4  10  19  28  38  55  80 112 151 191 231 276
#     4  11  20  31  49  70  94 125 160 198 236 282
#     4   9  18  31  48  72  98 125 159 196 233 277
#     4   9  18  32  49  69  94 124 155 191 237 283
#     4   9  16  27  43  63  88 115 147 187 228 275
#     4   9  18  31  43  56  77 110 152 192 229 268
#     4   8  14  26  45  67  90 118 150 183 226 280
#
# _framework density 16.933142
#
# number of rings (size 3 to 8) (size 9 to 14) (size 15 to 20)
#    0.000    2.714    1.429    3.000    0.000    2.571 
#    0.000    3.571    0.000    0.429    0.000    2.000 
#    0.000    0.571    0.000    1.286    0.000    0.000 
#
# Total GULP energy -693857.710356 kJ/mol
# GULP energy per Si atom -12390.316256 kJ/mol
# Density = 1.689460 g / cm^3
# Si number density = 16.933142 Si / 1000 Ang^3
#
#
#
# Elastic Constant Matrix: (Units=GPa)
#
#
# Indices 1 2 3 4 5 6 
#
# 1 25.8125 16.8344 14.1788 0.0000 0.0000 0.0000
# 2 16.8344 96.9339 28.6560 0.0000 0.0000 0.0000
# 3 14.1788 28.6560 71.1859 0.0000 0.0000 0.0000
# 4 0.0000 0.0000 0.0000 21.2609 0.0000 0.0000
# 5 0.0000 0.0000 0.0000 0.0000 19.5937 0.0000
# 6 0.0000 0.0000 0.0000 0.0000 0.0000 18.8206
#
#
#
# Elastic Compliance Matrix: (Units=1/GPa)
#
#
# Indices 1 2 3 4 5 6 
#
# 1 0.046428 -0.006049 -0.006812 0.000000 0.000000 0.000000
# 2 -0.006049 0.012498 -0.003826 0.000000 0.000000 0.000000
# 3 -0.006812 -0.003826 0.016945 0.000000 0.000000 0.000000
# 4 0.000000 0.000000 0.000000 0.047035 0.000000 0.000000
# 5 0.000000 0.000000 0.000000 0.000000 0.051037 0.000000
# 6 0.000000 0.000000 0.000000 0.000000 0.000000 0.053133
#
#
# Mechanical properties :
#
#
# Convention : Reuss Voigt Hill
#
# Bulk Modulus (GPa) = 23.53197 34.80784 29.16990
# Shear Modulus (GPa) = 18.20720 20.88592 19.54656
#
# Velocity S-wave (km/s) = 3.28264 3.51584 3.40124
# Velocity P-wave (km/s) = 5.31929 6.08951 5.71739
#
# Compressibility (1/GPa) = 0.04249539
#
# Stress axis : x y z
#
# Youngs Moduli (GPa) = 21.53862 80.01287 59.01492
#
# Poissons Ratio (x) = 0.48401 0.40204
# Poissons Ratio (y) = 0.13029 0.22580
# Poissons Ratio (z) = 0.14673 0.30615
#
# Static dielectric constant tensor:
#      x y z
#    x 2.770970 0.000000 0.000000 
#    y 0.000000 3.054630 0.000000 
#    z 0.000000 0.000000 3.094190 
# 
# 
# High freq. dielectric constant tensor:
#      x y z
#    x 1.601080 0.000000 0.000000 
#    y 0.000000 1.655070 0.000000 
#    z 0.000000 0.000000 1.636020 
# 
# From -- ./inp_files/26464.got.cif
#   From: 2010.06.25/outbox.cif.g09.slc.cpg/sg71_14_cif.got.tgz:26464.got - 2010.06.28 04:59:45.
