data_PCOD8288668
_publ_section_title
;
Structure prediction by ZEFSAII (Michael W. Deem and Ramdas Pophale) SiO2 
 PCOD8288668
Probable space group: I M M M
;
_chemical_formula_sum "Si O2"
_cell_formula_units_Z 80
_cell_length_a 8.929395
_cell_length_b 18.080220
_cell_length_c 27.469673
_cell_angle_alpha 90.000000
_cell_angle_beta 90.000000
_cell_angle_gamma 90.000000
_cell_volume 4434.853061
_symmetry_space_group_name_H-M "I M M M"
_symmetry_group_IT_number 71
_symmetry_cell_setting 'orthorhombic'
loop_
_space_group_symop_operation_xyz
x,y,z
-x,-y,z
x,-y,-z
-x,y,-z
-x,-y,-z
x,y,-z
-x,y,z
x,-y,z
1/2+x,1/2+y,1/2+z
1/2-x,1/2-y,1/2+z
1/2+x,1/2-y,1/2-z
1/2-x,1/2+y,1/2-z
1/2-x,1/2-y,1/2-z
1/2+x,1/2+y,1/2-z
1/2-x,1/2+y,1/2+z
1/2+x,1/2-y,1/2+z
loop_
_atom_site_type_symbol
_atom_site_label
_atom_site_fract_x
_atom_site_fract_y
_atom_site_fract_z
Si Si1 0.322706 0.702418 0.643175
Si Si2 0.175537 0.416485 0.093196
Si Si3 0.327589 0.277264 0.055295
Si Si4 0.824033 0.350517 0.193357
Si Si5 0.677553 0.085116 0.793447
O O1 0.500000 0.695031 0.640720
O O2 0.264233 0.721314 0.589328
O O3 0.271672 0.767240 0.680593
O O4 0.250864 0.625906 0.660603
O O5 0.213963 0.500000 0.077596
O O6 0.266267 0.360951 0.058954
O O7 0.224008 0.404549 0.149378
O O8 0.000000 0.399101 0.087074
O O9 0.500000 0.276646 0.071467
O O10 0.308273 0.249940 0.000000
O O11 0.753597 0.379302 0.243886
O O12 0.000000 0.353389 0.199730
O O13 0.500000 0.094015 0.796281
O O14 0.725828 0.000000 0.795624
#
# Coordination Sequence:
#
# PCOD8288668 Si02
#       5
#    16  16  16  16  16
#     4  10  20  34  53  75 100 130 166 209 250 292
#     4   9  17  30  49  74 105 138 171 206 242 284
#     4  10  21  36  53  72  95 126 166 211 256 302
#     4   8  15  29  49  73 101 136 173 202 234 280
#     4  10  19  31  50  75 104 137 168 199 240 291
#
# _framework density 18.038930000000001
#
# number of rings (size 3 to 8) (size 9 to 14) (size 15 to 20)
#    0.000    2.600    0.000    3.600    0.000    5.200 
#    0.000    6.000    0.000    5.400    0.000    4.200 
#    0.000    0.000    0.000    0.000    0.000    0.000 
#
# Total GULP energy -495964.715176 kJ/mol
# GULP energy per Si atom -12399.117879 kJ/mol
# Density = 1.799787 g / cm^3
# Si number density = 18.038930 Si / 1000 Ang^3
#
#
#
# Elastic Constant Matrix: (Units=GPa)
#
#
# Indices 1 2 3 4 5 6 
#
# 1 50.7536 44.7375 33.5060 0.0000 0.0000 0.0000
# 2 44.7375 101.8411 58.2867 0.0000 0.0000 0.0000
# 3 33.5060 58.2867 95.9684 0.0000 0.0000 0.0000
# 4 0.0000 0.0000 0.0000 14.4036 0.0000 0.0000
# 5 0.0000 0.0000 0.0000 0.0000 24.2120 0.0000
# 6 0.0000 0.0000 0.0000 0.0000 0.0000 28.3049
#
#
#
# Elastic Compliance Matrix: (Units=1/GPa)
#
#
# Indices 1 2 3 4 5 6 
#
# 1 0.033218 -0.012193 -0.004192 0.000000 0.000000 0.000000
# 2 -0.012193 0.019527 -0.007603 0.000000 0.000000 0.000000
# 3 -0.004192 -0.007603 0.016501 0.000000 0.000000 0.000000
# 4 0.000000 0.000000 0.000000 0.069427 0.000000 0.000000
# 5 0.000000 0.000000 0.000000 0.000000 0.041302 0.000000
# 6 0.000000 0.000000 0.000000 0.000000 0.000000 0.035330
#
#
# Mechanical properties :
#
#
# Convention : Reuss Voigt Hill
#
# Bulk Modulus (GPa) = 47.01336 57.95817 52.48577
# Shear Modulus (GPa) = 18.49314 20.85296 19.67305
#
# Velocity S-wave (km/s) = 3.20532 3.40368 3.30599
# Velocity P-wave (km/s) = 6.31011 6.90261 6.61300
#
# Compressibility (1/GPa) = 0.02127055
#
# Stress axis : x y z
#
# Youngs Moduli (GPa) = 30.10375 51.21200 60.60175
#
# Poissons Ratio (x) = 0.62443 0.25406
# Poissons Ratio (y) = 0.36706 0.46073
# Poissons Ratio (z) = 0.12620 0.38934
#
# Static dielectric constant tensor:
#      x y z
#    x 3.126630 0.000000 0.000000 
#    y 0.000000 3.326550 0.000000 
#    z 0.000000 0.000000 3.320470 
# 
# 
# High freq. dielectric constant tensor:
#      x y z
#    x 1.682030 0.000000 0.000000 
#    y 0.000000 1.685950 0.000000 
#    z 0.000000 0.000000 1.692840 
# 
# From -- ./inp_files/8274.got.cif
#   From: 2010.06.25/outbox.cif.g09.slc.cpg/sg71_5_cif.got.tgz:8274.got - 2010.06.28 04:59:45.
