data_PCOD8288443
_publ_section_title
;
Structure prediction by ZEFSAII (Michael W. Deem and Ramdas Pophale) SiO2 
 PCOD8288443
Probable space group: I M M M
;
_chemical_formula_sum "Si O2"
_cell_formula_units_Z 104
_cell_length_a 22.423454
_cell_length_b 26.154032
_cell_length_c 9.425883
_cell_angle_alpha 90.000000
_cell_angle_beta 90.000000
_cell_angle_gamma 90.000000
_cell_volume 5527.938535
_symmetry_space_group_name_H-M "I M M M"
_symmetry_group_IT_number 71
_symmetry_cell_setting 'orthorhombic'
loop_
_space_group_symop_operation_xyz
x,y,z
-x,-y,z
x,-y,-z
-x,y,-z
-x,-y,-z
x,y,-z
-x,y,z
x,-y,z
1/2+x,1/2+y,1/2+z
1/2-x,1/2-y,1/2+z
1/2+x,1/2-y,1/2-z
1/2-x,1/2+y,1/2-z
1/2-x,1/2-y,1/2-z
1/2+x,1/2+y,1/2-z
1/2-x,1/2+y,1/2+z
1/2+x,1/2-y,1/2+z
loop_
_atom_site_type_symbol
_atom_site_label
_atom_site_fract_x
_atom_site_fract_y
_atom_site_fract_z
Si Si1 0.070296 0.803671 0.164424
Si Si2 0.736284 0.440631 0.663641
Si Si3 0.433110 0.000000 0.831140
Si Si4 0.153401 0.124260 0.331209
Si Si5 0.250698 0.797230 0.652083
Si Si6 0.613487 0.807575 0.344034
Si Si7 0.634904 0.099045 0.167364
O O1 0.094928 0.850657 0.259529
O O2 0.096885 0.748832 0.216090
O O3 0.000000 0.802499 0.187038
O O4 0.087584 0.812972 0.000000
O O5 0.720024 0.429940 0.500000
O O6 0.752049 0.500000 0.687053
O O7 0.676846 0.428034 0.758118
O O8 0.794940 0.407419 0.707437
O O9 0.399299 0.049695 0.773538
O O10 0.500000 0.000000 0.771220
O O11 0.432061 0.000000 0.000000
O O12 0.143419 0.116769 0.500000
O O13 0.207929 0.160159 0.285541
O O14 0.224666 0.780296 0.500000
O O15 0.250000 0.750000 0.750000
O O16 0.316898 0.816875 0.635951
O O17 0.582629 0.814162 0.500000
O O18 0.598534 0.852782 0.234634
O O19 0.628386 0.105308 0.000000
#
# Coordination Sequence:
#
# PCOD8288443 Si02
#       7
#    16  16   8  16  16  16  16
#     4  10  22  40  59  78 107 151 193 225 265 326
#     4  10  20  35  56  82 112 144 183 229 278 335
#     4   9  18  34  53  73 103 145 192 237 276 317
#     4  11  22  35  55  84 113 142 178 225 284 338
#     4  10  19  30  48  76 107 138 173 213 262 315
#     4  10  20  34  51  77 112 145 178 222 273 321
#     4  10  19  32  53  80 108 144 189 234 277 322
#
# _framework density 18.813523
#
# number of rings (size 3 to 8) (size 9 to 14) (size 15 to 20)
#    0.000    1.923    3.846    0.462    0.000    3.077 
#    0.000    0.385    0.000    0.923    0.000    3.231 
#    0.000    0.000    0.000    0.000    0.000    0.000 
#
# Total GULP energy -644307.186431 kJ/mol
# GULP energy per Si atom -12390.522816 kJ/mol
# Density = 1.877070 g / cm^3
# Si number density = 18.813523 Si / 1000 Ang^3
#
#
#
# Elastic Constant Matrix: (Units=GPa)
#
#
# Indices 1 2 3 4 5 6 
#
# 1 73.1183 20.6654 26.9788 0.0000 0.0000 0.0000
# 2 20.6654 64.3298 36.9075 0.0000 0.0000 0.0000
# 3 26.9788 36.9075 69.3089 0.0000 0.0000 0.0000
# 4 0.0000 0.0000 0.0000 31.6665 0.0000 0.0000
# 5 0.0000 0.0000 0.0000 0.0000 20.0952 0.0000
# 6 0.0000 0.0000 0.0000 0.0000 0.0000 23.1057
#
#
#
# Elastic Compliance Matrix: (Units=1/GPa)
#
#
# Indices 1 2 3 4 5 6 
#
# 1 0.016200 -0.002284 -0.005090 0.000000 0.000000 0.000000
# 2 -0.002284 0.022705 -0.011202 0.000000 0.000000 0.000000
# 3 -0.005090 -0.011202 0.022374 0.000000 0.000000 0.000000
# 4 0.000000 0.000000 0.000000 0.031579 0.000000 0.000000
# 5 0.000000 0.000000 0.000000 0.000000 0.049763 0.000000
# 6 0.000000 0.000000 0.000000 0.000000 0.000000 0.043279
#
#
# Mechanical properties :
#
#
# Convention : Reuss Voigt Hill
#
# Bulk Modulus (GPa) = 41.44420 41.76229 41.60324
# Shear Modulus (GPa) = 21.63616 23.12051 22.37833
#
# Velocity S-wave (km/s) = 3.39489 3.50941 3.45263
# Velocity P-wave (km/s) = 6.11913 6.21832 6.16893
#
# Compressibility (1/GPa) = 0.02412883
#
# Stress axis : x y z
#
# Youngs Moduli (GPa) = 61.72862 44.04261 44.69417
#
# Poissons Ratio (x) = 0.10060 0.22748
# Poissons Ratio (y) = 0.14099 0.50065
# Poissons Ratio (z) = 0.31417 0.49335
#
# Static dielectric constant tensor:
#      x y z
#    x 3.242250 0.000000 0.000000 
#    y 0.000000 3.395460 0.000000 
#    z 0.000000 0.000000 3.502150 
# 
# 
# High freq. dielectric constant tensor:
#      x y z
#    x 1.712850 0.000000 0.000000 
#    y 0.000000 1.724190 0.000000 
#    z 0.000000 0.000000 1.721470 
# 
# From -- ./inp_files/13255.got.cif
#   From: 2010.06.25/outbox.cif.g09.slc.cpg/sg71_7_cif.got.tgz:13255.got - 2010.06.28 04:59:45.
