data_PCOD8288405
_publ_section_title
;
Structure prediction by ZEFSAII (Michael W. Deem and Ramdas Pophale) SiO2 
 PCOD8288405
Probable space group: I M M M
;
_chemical_formula_sum "Si O2"
_cell_formula_units_Z 104
_cell_length_a 20.767395
_cell_length_b 10.349361
_cell_length_c 27.610225
_cell_angle_alpha 90.000000
_cell_angle_beta 90.000000
_cell_angle_gamma 90.000000
_cell_volume 5934.245445
_symmetry_space_group_name_H-M "I M M M"
_symmetry_group_IT_number 71
_symmetry_cell_setting 'orthorhombic'
loop_
_space_group_symop_operation_xyz
x,y,z
-x,-y,z
x,-y,-z
-x,y,-z
-x,-y,-z
x,y,-z
-x,y,z
x,-y,z
1/2+x,1/2+y,1/2+z
1/2-x,1/2-y,1/2+z
1/2+x,1/2-y,1/2-z
1/2-x,1/2+y,1/2-z
1/2-x,1/2-y,1/2-z
1/2+x,1/2+y,1/2-z
1/2-x,1/2+y,1/2+z
1/2+x,1/2-y,1/2+z
loop_
_atom_site_type_symbol
_atom_site_label
_atom_site_fract_x
_atom_site_fract_y
_atom_site_fract_z
Si Si1 0.195938 0.352067 0.802731
Si Si2 0.500000 0.845745 0.555421
Si Si3 0.572114 0.000000 0.944153
Si Si4 0.371767 0.150030 0.602527
Si Si5 0.810900 0.651049 0.693357
Si Si6 0.744998 0.347941 0.946660
Si Si7 0.877414 0.256722 0.397132
Si Si8 0.500000 0.353681 0.945194
O O1 0.223392 0.500000 0.809615
O O2 0.137014 0.328556 0.839843
O O3 0.166755 0.336026 0.749037
O O4 0.249666 0.244449 0.814132
O O5 0.500000 0.798177 0.500000
O O6 0.562295 0.786693 0.583006
O O7 0.500000 0.000000 0.558092
O O8 0.615938 0.118144 0.929542
O O9 0.500000 0.000000 0.919429
O O10 0.560485 0.000000 0.000000
O O11 0.310509 0.212704 0.574987
O O12 0.374566 0.000000 0.589476
O O13 0.793966 0.500000 0.681402
O O14 0.869592 0.701812 0.659374
O O15 0.752247 0.500000 0.949605
O O16 0.686581 0.317847 0.911400
O O17 0.732692 0.289489 0.000000
O O18 0.939680 0.172643 0.410213
O O19 0.500000 0.500000 0.959553
O O20 0.500000 0.283503 0.000000
#
# Coordination Sequence:
#
# PCOD8288405 Si02
#       8
#    16   8   8  16  16  16  16   8
#     4   9  18  34  55  77 106 140 177 220 272 319
#     4   9  16  26  43  70 107 141 165 199 255 316
#     4  11  22  36  52  68  98 143 179 209 257 322
#     4   9  16  28  47  72 102 136 171 209 259 316
#     4  10  20  34  53  80 107 138 178 224 272 323
#     4  10  19  30  47  73 103 132 170 219 267 312
#     4  12  21  34  52  73 102 136 178 220 267 317
#     4  11  24  39  54  75 105 142 185 227 270 327
#
# _framework density 17.525396000000001
#
# number of rings (size 3 to 8) (size 9 to 14) (size 15 to 20)
#    0.000    1.923    3.077    2.308    0.000    3.692 
#    0.000    0.769    0.000    1.846    0.000    0.538 
#    0.000    0.615    0.000    0.000    0.000    0.000 
#
# Total GULP energy -644214.100737 kJ/mol
# GULP energy per Si atom -12388.732706 kJ/mol
# Density = 1.748551 g / cm^3
# Si number density = 17.525396 Si / 1000 Ang^3
#
#
#
# Elastic Constant Matrix: (Units=GPa)
#
#
# Indices 1 2 3 4 5 6 
#
# 1 131.7861 24.7650 67.2880 0.0000 0.0000 0.0000
# 2 24.7650 54.0392 32.3861 0.0000 0.0000 0.0000
# 3 67.2880 32.3861 135.7881 0.0000 0.0000 0.0000
# 4 0.0000 0.0000 0.0000 20.9891 0.0000 0.0000
# 5 0.0000 0.0000 0.0000 0.0000 32.6614 0.0000
# 6 0.0000 0.0000 0.0000 0.0000 0.0000 3.4387
#
#
#
# Elastic Compliance Matrix: (Units=1/GPa)
#
#
# Indices 1 2 3 4 5 6 
#
# 1 0.010330 -0.001944 -0.004655 0.000000 0.000000 0.000000
# 2 -0.001944 0.021957 -0.004273 0.000000 0.000000 0.000000
# 3 -0.004655 -0.004273 0.010691 0.000000 0.000000 0.000000
# 4 0.000000 0.000000 0.000000 0.047644 0.000000 0.000000
# 5 0.000000 0.000000 0.000000 0.000000 0.030617 0.000000
# 6 0.000000 0.000000 0.000000 0.000000 0.000000 0.290807
#
#
# Mechanical properties :
#
#
# Convention : Reuss Voigt Hill
#
# Bulk Modulus (GPa) = 47.09858 63.38795 55.24326
# Shear Modulus (GPa) = 11.34122 24.56280 17.95201
#
# Velocity S-wave (km/s) = 2.54664 3.74780 3.20401
# Velocity P-wave (km/s) = 5.96489 7.41456 6.72888
#
# Compressibility (1/GPa) = 0.02123206
#
# Stress axis : x y z
#
# Youngs Moduli (GPa) = 96.80195 45.54314 93.54034
#
# Poissons Ratio (x) = 0.08854 0.43547
# Poissons Ratio (y) = 0.18820 0.39974
# Poissons Ratio (z) = 0.45065 0.19463
#
# Static dielectric constant tensor:
#      x y z
#    x 3.343420 0.000000 0.000000 
#    y 0.000000 3.161010 0.000000 
#    z 0.000000 0.000000 3.542340 
# 
# 
# High freq. dielectric constant tensor:
#      x y z
#    x 1.662460 0.000000 0.000000 
#    y 0.000000 1.649970 0.000000 
#    z 0.000000 0.000000 1.690670 
# 
# From -- ./inp_files/70531.got.cif
#   From: 2010.06.25/outbox.cif.g09.slc.cpg/sg71_36_cif.got.tgz:70531.got - 2010.06.28 04:59:45.
