data_PCOD8288995
_publ_section_title
;
Structure prediction by ZEFSAII (Michael W. Deem and Ramdas Pophale) SiO2 
 PCOD8288995
Probable space group: I M M M
;
_chemical_formula_sum "Si O2"
_cell_formula_units_Z 104
_cell_length_a 8.929969
_cell_length_b 30.086776
_cell_length_c 20.762660
_cell_angle_alpha 90.000000
_cell_angle_beta 90.000000
_cell_angle_gamma 90.000000
_cell_volume 5578.386435
_symmetry_space_group_name_H-M "I M M M"
_symmetry_group_IT_number 71
_symmetry_cell_setting 'orthorhombic'
loop_
_space_group_symop_operation_xyz
x,y,z
-x,-y,z
x,-y,-z
-x,y,-z
-x,-y,-z
x,y,-z
-x,y,z
x,-y,z
1/2+x,1/2+y,1/2+z
1/2-x,1/2-y,1/2+z
1/2+x,1/2-y,1/2-z
1/2-x,1/2+y,1/2-z
1/2-x,1/2-y,1/2-z
1/2+x,1/2+y,1/2-z
1/2-x,1/2+y,1/2+z
1/2+x,1/2-y,1/2+z
loop_
_atom_site_type_symbol
_atom_site_label
_atom_site_fract_x
_atom_site_fract_y
_atom_site_fract_z
Si Si1 0.823580 0.133031 0.859046
Si Si2 0.177043 0.448579 0.131206
Si Si3 0.332405 0.447489 0.000000
Si Si4 0.324699 0.627486 0.787431
Si Si5 0.323353 0.786017 0.927415
Si Si6 0.324036 0.725871 0.188921
Si Si7 0.822038 0.048079 0.071498
O O1 0.775650 0.137523 0.785468
O O2 0.746889 0.168064 0.905362
O O3 0.761768 0.085047 0.880217
O O4 0.000000 0.138360 0.867972
O O5 0.224009 0.500000 0.146512
O O6 0.246136 0.431634 0.063770
O O7 0.235552 0.415017 0.185810
O O8 0.000000 0.444915 0.125987
O O9 0.340242 0.500000 0.000000
O O10 0.500000 0.426987 0.000000
O O11 0.500000 0.616064 0.793244
O O12 0.281639 0.673986 0.821453
O O13 0.500000 0.791266 0.925403
O O14 0.269977 0.748148 0.877638
O O15 0.269358 0.774138 0.000000
O O16 0.500000 0.730546 0.200728
O O17 0.250000 0.750000 0.250000
O O18 0.000000 0.048693 0.069765
O O19 0.765017 0.000000 0.096059
O O20 0.759795 0.057452 0.000000
#
# Coordination Sequence:
#
# PCOD8288995 Si02
#       7
#    16  16   8  16  16  16  16
#     4  10  19  32  53  79 104 135 182 230 272 319
#     4  10  21  37  57  82 114 150 187 227 275 335
#     4   9  17  33  59  85 109 143 185 229 279 329
#     4  10  21  35  53  81 110 140 185 232 277 331
#     4  10  21  36  55  79 108 143 180 220 275 339
#     4  10  20  37  58  80 108 143 184 228 280 338
#     4   8  14  25  42  67  99 132 166 210 266 317
#
# _framework density 18.643384000000001
#
# number of rings (size 3 to 8) (size 9 to 14) (size 15 to 20)
#    0.000    2.385    1.538    1.615    0.000    4.615 
#    1.385    1.538    0.000    0.462    0.000    2.154 
#    0.000    0.000    0.000    0.000    0.000    0.000 
#
# Total GULP energy -644545.671219 kJ/mol
# GULP energy per Si atom -12395.109062 kJ/mol
# Density = 1.860095 g / cm^3
# Si number density = 18.643384 Si / 1000 Ang^3
#
#
#
# Elastic Constant Matrix: (Units=GPa)
#
#
# Indices 1 2 3 4 5 6 
#
# 1 40.0314 26.4319 32.8668 0.0000 0.0000 0.0000
# 2 26.4319 126.4038 67.5229 0.0000 0.0000 0.0000
# 3 32.8668 67.5229 131.9174 0.0000 0.0000 0.0000
# 4 0.0000 0.0000 0.0000 38.1624 0.0000 0.0000
# 5 0.0000 0.0000 0.0000 0.0000 25.5313 0.0000
# 6 0.0000 0.0000 0.0000 0.0000 0.0000 26.8905
#
#
#
# Elastic Compliance Matrix: (Units=1/GPa)
#
#
# Indices 1 2 3 4 5 6 
#
# 1 0.032428 -0.003393 -0.006343 0.000000 0.000000 0.000000
# 2 -0.003393 0.011243 -0.004910 0.000000 0.000000 0.000000
# 3 -0.006343 -0.004910 0.011674 0.000000 0.000000 0.000000
# 4 0.000000 0.000000 0.000000 0.026204 0.000000 0.000000
# 5 0.000000 0.000000 0.000000 0.000000 0.039168 0.000000
# 6 0.000000 0.000000 0.000000 0.000000 0.000000 0.037188
#
#
# Mechanical properties :
#
#
# Convention : Reuss Voigt Hill
#
# Bulk Modulus (GPa) = 38.38050 61.33286 49.85668
# Shear Modulus (GPa) = 25.52584 29.55222 27.53903
#
# Velocity S-wave (km/s) = 3.70424 3.98569 3.84754
# Velocity P-wave (km/s) = 6.23911 7.35869 6.82191
#
# Compressibility (1/GPa) = 0.02605490
#
# Stress axis : x y z
#
# Youngs Moduli (GPa) = 30.83741 88.94222 85.66165
#
# Poissons Ratio (x) = 0.30176 0.54333
# Poissons Ratio (y) = 0.10462 0.42057
# Poissons Ratio (z) = 0.19560 0.43668
#
# Static dielectric constant tensor:
#      x y z
#    x 3.218750 0.000000 0.000000 
#    y 0.000000 3.662230 0.000000 
#    z 0.000000 0.000000 3.627380 
# 
# 
# High freq. dielectric constant tensor:
#      x y z
#    x 1.700210 0.000000 0.000000 
#    y 0.000000 1.727870 0.000000 
#    z 0.000000 0.000000 1.726890 
# 
# From -- ./inp_files/51167.got.cif
#   From: 2010.06.25/outbox.cif.g09.slc.cpg/sg71_26_cif.got.tgz:51167.got - 2010.06.28 04:59:45.
