data_PCOD8288458
_publ_section_title
;
Structure prediction by ZEFSAII (Michael W. Deem and Ramdas Pophale) SiO2 
 PCOD8288458
Probable space group: I M M M
;
_chemical_formula_sum "Si O2"
_cell_formula_units_Z 80
_cell_length_a 9.473178
_cell_length_b 14.435649
_cell_length_c 33.258006
_cell_angle_alpha 90.000000
_cell_angle_beta 90.000000
_cell_angle_gamma 90.000000
_cell_volume 4548.081294
_symmetry_space_group_name_H-M "I M M M"
_symmetry_group_IT_number 71
_symmetry_cell_setting 'orthorhombic'
loop_
_space_group_symop_operation_xyz
x,y,z
-x,-y,z
x,-y,-z
-x,y,-z
-x,-y,-z
x,y,-z
-x,y,z
x,-y,z
1/2+x,1/2+y,1/2+z
1/2-x,1/2-y,1/2+z
1/2+x,1/2-y,1/2-z
1/2-x,1/2+y,1/2-z
1/2-x,1/2-y,1/2-z
1/2+x,1/2+y,1/2-z
1/2-x,1/2+y,1/2+z
1/2+x,1/2-y,1/2+z
loop_
_atom_site_type_symbol
_atom_site_label
_atom_site_fract_x
_atom_site_fract_y
_atom_site_fract_z
Si Si1 0.835619 0.892947 0.243270
Si Si2 0.341361 0.890825 0.544896
Si Si3 0.164441 0.743025 0.308912
Si Si4 0.167684 0.397788 0.455271
Si Si5 0.167041 0.234353 0.599793
O O1 0.802103 0.836530 0.284076
O O2 0.748492 0.846035 0.207317
O O3 0.000000 0.886389 0.232298
O O4 0.789039 0.000000 0.248974
O O5 0.292695 0.860373 0.500000
O O6 0.500000 0.854490 0.552956
O O7 0.236056 0.853368 0.578518
O O8 0.337465 0.000000 0.548432
O O9 0.215151 0.761893 0.354101
O O10 0.000000 0.717351 0.306960
O O11 0.220162 0.369782 0.500000
O O12 0.224949 0.500000 0.444075
O O13 0.225739 0.325912 0.422564
O O14 0.000000 0.398450 0.454539
O O15 0.000000 0.224078 0.595968
#
# Coordination Sequence:
#
# PCOD8288458 Si02
#       5
#    16  16  16  16  16
#     4   9  18  34  53  69  92 129 165 197 240 295
#     4   9  19  35  51  68  96 135 172 202 237 283
#     4   9  19  33  49  74 102 124 155 202 250 295
#     4   8  14  25  41  63  93 126 156 187 228 279
#     4  10  19  30  49  76 100 123 157 204 250 288
#
# _framework density 17.589835999999998
#
# number of rings (size 3 to 8) (size 9 to 14) (size 15 to 20)
#    0.000    3.000    0.000    1.800    0.000    4.400 
#    0.000    5.000    0.000    0.600    0.000    2.800 
#    0.000    0.000    0.000    0.000    0.000    0.000 
#
# Total GULP energy -495888.705825 kJ/mol
# GULP energy per Si atom -12397.217646 kJ/mol
# Density = 1.754980 g / cm^3
# Si number density = 17.589836 Si / 1000 Ang^3
#
#
#
# Elastic Constant Matrix: (Units=GPa)
#
#
# Indices 1 2 3 4 5 6 
#
# 1 38.0465 38.2774 47.0943 0.0000 0.0000 0.0000
# 2 38.2774 106.5710 63.7820 0.0000 0.0000 0.0000
# 3 47.0943 63.7820 150.5111 0.0000 0.0000 0.0000
# 4 0.0000 0.0000 0.0000 15.7272 0.0000 0.0000
# 5 0.0000 0.0000 0.0000 0.0000 19.3920 0.0000
# 6 0.0000 0.0000 0.0000 0.0000 0.0000 25.4558
#
#
#
# Elastic Compliance Matrix: (Units=1/GPa)
#
#
# Indices 1 2 3 4 5 6 
#
# 1 0.052380 -0.012064 -0.011277 0.000000 0.000000 0.000000
# 2 -0.012064 0.015351 -0.002730 0.000000 0.000000 0.000000
# 3 -0.011277 -0.002730 0.011330 0.000000 0.000000 0.000000
# 4 0.000000 0.000000 0.000000 0.063584 0.000000 0.000000
# 5 0.000000 0.000000 0.000000 0.000000 0.051568 0.000000
# 6 0.000000 0.000000 0.000000 0.000000 0.000000 0.039284
#
#
# Mechanical properties :
#
#
# Convention : Reuss Voigt Hill
#
# Bulk Modulus (GPa) = 37.15117 65.93735 51.54426
# Shear Modulus (GPa) = 16.97155 21.84667 19.40911
#
# Velocity S-wave (km/s) = 3.10957 3.52803 3.32539
# Velocity P-wave (km/s) = 5.83603 7.35958 6.64164
#
# Compressibility (1/GPa) = 0.02691705
#
# Stress axis : x y z
#
# Youngs Moduli (GPa) = 19.09130 65.14405 88.26458
#
# Poissons Ratio (x) = 0.78591 0.99536
# Poissons Ratio (y) = 0.23032 0.24099
# Poissons Ratio (z) = 0.21529 0.17786
#
# Static dielectric constant tensor:
#      x y z
#    x 3.040870 0.000000 0.000000 
#    y 0.000000 3.362330 0.000000 
#    z 0.000000 0.000000 3.362400 
# 
# 
# High freq. dielectric constant tensor:
#      x y z
#    x 1.653940 0.000000 0.000000 
#    y 0.000000 1.683500 0.000000 
#    z 0.000000 0.000000 1.680900 
# 
# From -- ./inp_files/29670.got.cif
#   From: 2010.06.25/outbox.cif.g09.slc.cpg/sg71_15_cif.got.tgz:29670.got - 2010.06.28 04:59:45.
