data_PCOD8288618
_publ_section_title
;
Structure prediction by ZEFSAII (Michael W. Deem and Ramdas Pophale) SiO2 
 PCOD8288618
Probable space group: I M M M
;
_chemical_formula_sum "Si O2"
_cell_formula_units_Z 120
_cell_length_a 12.892566
_cell_length_b 18.504136
_cell_length_c 28.000433
_cell_angle_alpha 90.000000
_cell_angle_beta 90.000000
_cell_angle_gamma 90.000000
_cell_volume 6679.945549
_symmetry_space_group_name_H-M "I M M M"
_symmetry_group_IT_number 71
_symmetry_cell_setting 'orthorhombic'
loop_
_space_group_symop_operation_xyz
x,y,z
-x,-y,z
x,-y,-z
-x,y,-z
-x,-y,-z
x,y,-z
-x,y,z
x,-y,z
1/2+x,1/2+y,1/2+z
1/2-x,1/2-y,1/2+z
1/2+x,1/2-y,1/2-z
1/2-x,1/2+y,1/2-z
1/2-x,1/2-y,1/2-z
1/2+x,1/2+y,1/2-z
1/2-x,1/2+y,1/2+z
1/2+x,1/2-y,1/2+z
loop_
_atom_site_type_symbol
_atom_site_label
_atom_site_fract_x
_atom_site_fract_y
_atom_site_fract_z
Si Si1 0.880450 0.268868 0.448025
Si Si2 0.797244 0.080878 0.847994
Si Si3 0.789782 0.580284 0.553779
Si Si4 0.623344 0.363041 0.885913
Si Si5 0.622496 0.500000 0.052977
Si Si6 0.757553 0.165792 0.705453
Si Si7 0.116446 0.583876 0.721250
Si Si8 0.883296 0.207780 0.794318
O O1 0.828534 0.253400 0.500000
O O2 0.868102 0.353864 0.435390
O O3 0.836761 0.213134 0.408653
O O4 0.000000 0.250972 0.452150
O O5 0.798702 0.086785 0.905706
O O6 0.682339 0.099562 0.826929
O O7 0.880473 0.135521 0.826308
O O8 0.829226 0.000000 0.832061
O O9 0.742789 0.587182 0.500000
O O10 0.843143 0.500000 0.559042
O O11 0.500000 0.363836 0.876149
O O12 0.658985 0.427953 0.920066
O O13 0.685070 0.376312 0.836873
O O14 0.500000 0.500000 0.049000
O O15 0.671916 0.500000 0.000000
O O16 0.675366 0.116485 0.733267
O O17 0.848509 0.193358 0.740110
O O18 0.693817 0.232949 0.683214
O O19 0.106891 0.500000 0.731412
O O20 0.000000 0.617080 0.715433
O O21 0.000000 0.237206 0.793742
#
# Coordination Sequence:
#
# PCOD8288618 Si02
#       8
#    16  16  16  16   8  16  16  16
#     4   9  17  28  42  63  94 131 165 196 238 295
#     4   9  18  32  49  70  95 128 166 200 238 290
#     4   9  17  29  46  69  97 126 159 203 248 287
#     4  10  19  31  49  73 102 135 168 206 249 298
#     4   9  18  32  50  74 105 139 171 207 257 316
#     4  10  20  32  50  73  99 128 163 207 248 297
#     4   9  18  32  49  68  95 129 162 197 238 289
#     4  10  20  34  50  70  98 130 165 206 251 298
#
# _framework density 17.964217999999999
#
# number of rings (size 3 to 8) (size 9 to 14) (size 15 to 20)
#    0.000    2.600    0.000    2.000    0.933    2.667 
#    0.000    6.000    0.000    0.400    0.000    1.867 
#    0.000    8.533    0.000    0.000    0.000    0.000 
#
# Total GULP energy -743483.373141 kJ/mol
# GULP energy per Si atom -12391.389552 kJ/mol
# Density = 1.792333 g / cm^3
# Si number density = 17.964218 Si / 1000 Ang^3
#
#
#
# Elastic Constant Matrix: (Units=GPa)
#
#
# Indices 1 2 3 4 5 6 
#
# 1 59.5954 24.1388 34.3651 0.0000 0.0000 0.0000
# 2 24.1388 93.1653 45.4326 0.0000 0.0000 0.0000
# 3 34.3651 45.4326 106.9478 0.0000 0.0000 0.0000
# 4 0.0000 0.0000 0.0000 23.3720 0.0000 0.0000
# 5 0.0000 0.0000 0.0000 0.0000 18.4912 0.0000
# 6 0.0000 0.0000 0.0000 0.0000 0.0000 17.7781
#
#
#
# Elastic Compliance Matrix: (Units=1/GPa)
#
#
# Indices 1 2 3 4 5 6 
#
# 1 0.021132 -0.002729 -0.005631 0.000000 0.000000 0.000000
# 2 -0.002729 0.013891 -0.005024 0.000000 0.000000 0.000000
# 3 -0.005631 -0.005024 0.013294 0.000000 0.000000 0.000000
# 4 0.000000 0.000000 0.000000 0.042786 0.000000 0.000000
# 5 0.000000 0.000000 0.000000 0.000000 0.054080 0.000000
# 6 0.000000 0.000000 0.000000 0.000000 0.000000 0.056249
#
#
# Mechanical properties :
#
#
# Convention : Reuss Voigt Hill
#
# Bulk Modulus (GPa) = 46.40669 51.95349 49.18009
# Shear Modulus (GPa) = 21.24195 22.31306 21.77751
#
# Velocity S-wave (km/s) = 3.44242 3.52814 3.48555
# Velocity P-wave (km/s) = 6.45672 6.75133 6.60567
#
# Compressibility (1/GPa) = 0.02154862
#
# Stress axis : x y z
#
# Youngs Moduli (GPa) = 47.32079 71.99050 75.22227
#
# Poissons Ratio (x) = 0.19649 0.42357
# Poissons Ratio (y) = 0.12916 0.37791
# Poissons Ratio (z) = 0.26646 0.36167
#
# Static dielectric constant tensor:
#      x y z
#    x 2.901260 0.000000 0.000000 
#    y 0.000000 3.515930 0.000000 
#    z 0.000000 0.000000 3.418400 
# 
# 
# High freq. dielectric constant tensor:
#      x y z
#    x 1.644170 0.000000 0.000000 
#    y 0.000000 1.709260 0.000000 
#    z 0.000000 0.000000 1.697160 
# 
# From -- ./inp_files/64877.got.cif
#   From: 2010.06.25/outbox.cif.g09.slc.cpg/sg71_33_cif.got.tgz:64877.got - 2010.06.28 04:59:45.
