data_PCOD8288648
_publ_section_title
;
Structure prediction by ZEFSAII (Michael W. Deem and Ramdas Pophale) SiO2 
 PCOD8288648
Probable space group: I M M M
;
_chemical_formula_sum "Si O2"
_cell_formula_units_Z 88
_cell_length_a 24.045191
_cell_length_b 24.508496
_cell_length_c 9.411814
_cell_angle_alpha 90.000000
_cell_angle_beta 90.000000
_cell_angle_gamma 90.000000
_cell_volume 5546.489920
_symmetry_space_group_name_H-M "I M M M"
_symmetry_group_IT_number 71
_symmetry_cell_setting 'orthorhombic'
loop_
_space_group_symop_operation_xyz
x,y,z
-x,-y,z
x,-y,-z
-x,y,-z
-x,-y,-z
x,y,-z
-x,y,z
x,-y,z
1/2+x,1/2+y,1/2+z
1/2-x,1/2-y,1/2+z
1/2+x,1/2-y,1/2-z
1/2-x,1/2+y,1/2-z
1/2-x,1/2-y,1/2-z
1/2+x,1/2+y,1/2-z
1/2-x,1/2+y,1/2+z
1/2+x,1/2-y,1/2+z
loop_
_atom_site_type_symbol
_atom_site_label
_atom_site_fract_x
_atom_site_fract_y
_atom_site_fract_z
Si Si1 0.702392 0.561842 0.160587
Si Si2 0.663043 0.242377 0.165225
Si Si3 0.000000 0.061775 0.652262
Si Si4 0.935805 0.220713 0.839726
Si Si5 0.756488 0.328012 0.839639
Si Si6 0.400019 0.402071 0.339622
O O1 0.724698 0.500000 0.186604
O O2 0.751353 0.606508 0.177757
O O3 0.657731 0.577178 0.278109
O O4 0.677615 0.566634 0.000000
O O5 0.601928 0.242552 0.236671
O O6 0.697229 0.298469 0.192782
O O7 0.696980 0.191908 0.230687
O O8 0.654115 0.231139 0.000000
O O9 0.053538 0.072804 0.742954
O O10 0.000000 0.094345 0.500000
O O11 0.000000 0.000000 0.609583
O O12 0.906617 0.162401 0.836800
O O13 0.000000 0.217901 0.785743
O O14 0.934417 0.244190 0.000000
O O15 0.774896 0.312644 0.000000
O O16 0.405594 0.424086 0.500000
#
# Coordination Sequence:
#
# PCOD8288648 Si02
#       6
#    16  16   8  16  16  16
#     4  10  20  34  50  69  95 126 161 198 238 284
#     4  10  19  31  50  73  93 121 159 200 242 285
#     4  11  23  35  45  57  79 117 163 207 246 281
#     4  10  20  34  49  67  94 127 159 197 243 287
#     4   9  18  32  49  70  95 125 158 196 241 286
#     4  11  21  33  47  65  89 120 160 202 243 281
#
# _framework density 15.86589
#
# number of rings (size 3 to 8) (size 9 to 14) (size 15 to 20)
#    0.000    1.909    2.727    1.909    0.000    5.818 
#    0.000    0.000    0.000    0.000    0.000    0.000 
#    0.000    0.727    0.000    8.364    0.000    2.364 
#
# Total GULP energy -545370.244770 kJ/mol
# GULP energy per Si atom -12394.778290 kJ/mol
# Density = 1.582978 g / cm^3
# Si number density = 15.865890 Si / 1000 Ang^3
#
#
#
# Elastic Constant Matrix: (Units=GPa)
#
#
# Indices 1 2 3 4 5 6 
#
# 1 62.7019 42.2336 52.1743 0.0000 0.0000 0.0000
# 2 42.2336 77.2267 45.3338 0.0000 0.0000 0.0000
# 3 52.1743 45.3338 120.5680 0.0000 0.0000 0.0000
# 4 0.0000 0.0000 0.0000 18.6935 0.0000 0.0000
# 5 0.0000 0.0000 0.0000 0.0000 31.8875 0.0000
# 6 0.0000 0.0000 0.0000 0.0000 0.0000 23.9209
#
#
#
# Elastic Compliance Matrix: (Units=1/GPa)
#
#
# Indices 1 2 3 4 5 6 
#
# 1 0.031621 -0.011883 -0.009215 0.000000 0.000000 0.000000
# 2 -0.011883 0.021082 -0.002785 0.000000 0.000000 0.000000
# 3 -0.009215 -0.002785 0.013329 0.000000 0.000000 0.000000
# 4 0.000000 0.000000 0.000000 0.053495 0.000000 0.000000
# 5 0.000000 0.000000 0.000000 0.000000 0.031360 0.000000
# 6 0.000000 0.000000 0.000000 0.000000 0.000000 0.041804
#
#
# Mechanical properties :
#
#
# Convention : Reuss Voigt Hill
#
# Bulk Modulus (GPa) = 54.74794 59.99777 57.37286
# Shear Modulus (GPa) = 20.28022 22.95069 21.61546
#
# Velocity S-wave (km/s) = 3.57911 3.80747 3.69505
# Velocity P-wave (km/s) = 7.18760 7.56484 7.37863
#
# Compressibility (1/GPa) = 0.01826553
#
# Stress axis : x y z
#
# Youngs Moduli (GPa) = 31.62503 47.43356 75.02450
#
# Poissons Ratio (x) = 0.56365 0.69138
# Poissons Ratio (y) = 0.37580 0.20892
# Poissons Ratio (z) = 0.29144 0.13209
#
# Static dielectric constant tensor:
#      x y z
#    x 2.976550 0.000000 0.000000 
#    y 0.000000 2.913150 0.000000 
#    z 0.000000 0.000000 3.248100 
# 
# 
# High freq. dielectric constant tensor:
#      x y z
#    x 1.580710 0.000000 0.000000 
#    y 0.000000 1.581720 0.000000 
#    z 0.000000 0.000000 1.628340 
# 
# From -- ./inp_files/10388.got.cif
#   From: 2010.06.25/outbox.cif.g09.slc.cpg/sg71_6_cif.got.tgz:10388.got - 2010.06.28 04:59:45.
