data_PCOD8288667
_publ_section_title
;
Structure prediction by ZEFSAII (Michael W. Deem and Ramdas Pophale) SiO2 
 PCOD8288667
Probable space group: I M M M
;
_chemical_formula_sum "Si O2"
_cell_formula_units_Z 72
_cell_length_a 12.098402
_cell_length_b 28.581818
_cell_length_c 12.466202
_cell_angle_alpha 90.000000
_cell_angle_beta 90.000000
_cell_angle_gamma 90.000000
_cell_volume 4310.741894
_symmetry_space_group_name_H-M "I M M M"
_symmetry_group_IT_number 71
_symmetry_cell_setting 'orthorhombic'
loop_
_space_group_symop_operation_xyz
x,y,z
-x,-y,z
x,-y,-z
-x,y,-z
-x,-y,-z
x,y,-z
-x,y,z
x,-y,z
1/2+x,1/2+y,1/2+z
1/2-x,1/2-y,1/2+z
1/2+x,1/2-y,1/2-z
1/2-x,1/2+y,1/2-z
1/2-x,1/2-y,1/2-z
1/2+x,1/2+y,1/2-z
1/2-x,1/2+y,1/2+z
1/2+x,1/2-y,1/2+z
loop_
_atom_site_type_symbol
_atom_site_label
_atom_site_fract_x
_atom_site_fract_y
_atom_site_fract_z
Si Si1 0.701163 0.175777 0.757117
Si Si2 0.872630 0.761829 0.877048
Si Si3 0.500000 0.132735 0.125526
Si Si4 0.229154 0.585466 0.123601
Si Si5 0.124577 0.000000 0.372407
Si Si6 0.500000 0.053944 0.705411
O O1 0.803719 0.198419 0.817739
O O2 0.647394 0.210950 0.672282
O O3 0.608525 0.161914 0.843247
O O4 0.748399 0.131462 0.693654
O O5 0.000000 0.775762 0.865026
O O6 0.835412 0.759517 0.000000
O O7 0.500000 0.082858 0.184394
O O8 0.500000 0.123013 0.000000
O O9 0.312968 0.546284 0.169182
O O10 0.104926 0.566534 0.133011
O O11 0.254070 0.597279 0.000000
O O12 0.126594 0.000000 0.500000
O O13 0.000000 0.000000 0.327030
O O14 0.500000 0.000000 0.738046
#
# Coordination Sequence:
#
# PCOD8288667 Si02
#       6
#    16  16   8  16   8   8
#     4  10  20  34  52  76 103 134 172 210 256 312
#     4  10  20  35  54  75 101 134 173 216 257 301
#     4  10  20  34  51  74 104 137 167 210 260 305
#     4  10  19  31  50  75 104 134 166 209 254 301
#     4   9  18  31  47  69  99 135 166 198 246 298
#     4  10  19  31  50  77 103 130 173 209 251 303
#
# _framework density 16.702459999999999
#
# number of rings (size 3 to 8) (size 9 to 14) (size 15 to 20)
#    0.000    2.111    2.222    1.667    0.000    1.556 
#    0.000    0.000    0.000    0.000    0.000    0.000 
#    0.000    7.111    0.000    0.000    0.000    0.000 
#
# Total GULP energy -446512.367969 kJ/mol
# GULP energy per Si atom -12403.121332 kJ/mol
# Density = 1.666444 g / cm^3
# Si number density = 16.702460 Si / 1000 Ang^3
#
#
#
# Elastic Constant Matrix: (Units=GPa)
#
#
# Indices 1 2 3 4 5 6 
#
# 1 82.8543 37.3653 29.0388 -0.0004 -0.0003 0.0000
# 2 37.3653 113.5154 41.3467 -0.0002 -0.0004 0.0000
# 3 29.0388 41.3467 92.7410 -0.0010 0.0012 0.0001
# 4 -0.0004 -0.0002 -0.0010 18.9286 0.0004 0.0001
# 5 -0.0003 -0.0004 0.0012 0.0004 16.4906 -0.0002
# 6 0.0000 0.0000 0.0001 0.0001 -0.0002 22.0058
#
#
#
# Elastic Compliance Matrix: (Units=1/GPa)
#
#
# Indices 1 2 3 4 5 6 
#
# 1 0.014817 -0.003805 -0.002943 0.000000 0.000000 0.000000
# 2 -0.003805 0.011495 -0.003933 0.000000 0.000001 0.000000
# 3 -0.002943 -0.003933 0.013458 0.000001 -0.000001 0.000000
# 4 0.000000 0.000000 0.000001 0.052830 -0.000001 0.000000
# 5 0.000000 0.000001 -0.000001 -0.000001 0.060641 0.000001
# 6 0.000000 0.000000 0.000000 0.000000 0.000001 0.045442
#
#
# Mechanical properties :
#
#
# Convention : Reuss Voigt Hill
#
# Bulk Modulus (GPa) = 54.32858 56.06802 55.19830
# Shear Modulus (GPa) = 22.10624 23.57567 22.84095
#
# Velocity S-wave (km/s) = 3.64198 3.76108 3.70201
# Velocity P-wave (km/s) = 7.09107 7.24587 7.16889
#
# Compressibility (1/GPa) = 0.01840652
#
# Stress axis : x y z
#
# Youngs Moduli (GPa) = 67.49050 86.99792 74.30699
#
# Poissons Ratio (x) = 0.33105 0.21868
# Poissons Ratio (y) = 0.25682 0.29226
# Poissons Ratio (z) = 0.19862 0.34217
#
# Static dielectric constant tensor:
#      x y z
#    x 3.199760 0.000000 0.000000 
#    y 0.000000 3.208390 0.000000 
#    z 0.000000 0.000000 2.949810 
# 
# 
# High freq. dielectric constant tensor:
#      x y z
#    x 1.648690 0.000000 0.000000 
#    y 0.000000 1.652800 0.000000 
#    z 0.000000 0.000000 1.630100 
# 
# From -- ./inp_files/19888.got.cif
#   From: 2010.06.25/outbox.cif.g09.slc.cpg/sg71_10_cif.got.tgz:19888.got - 2010.06.28 04:59:45.
