data_PCOD8288625
_publ_section_title
;
Structure prediction by ZEFSAII (Michael W. Deem and Ramdas Pophale) SiO2 
 PCOD8288625
Probable space group: I M M M
;
_chemical_formula_sum "Si O2"
_cell_formula_units_Z 96
_cell_length_a 29.597131
_cell_length_b 9.159815
_cell_length_c 19.589219
_cell_angle_alpha 90.000000
_cell_angle_beta 90.000000
_cell_angle_gamma 90.000000
_cell_volume 5310.720417
_symmetry_space_group_name_H-M "I M M M"
_symmetry_group_IT_number 71
_symmetry_cell_setting 'orthorhombic'
loop_
_space_group_symop_operation_xyz
x,y,z
-x,-y,z
x,-y,-z
-x,y,-z
-x,-y,-z
x,y,-z
-x,y,z
x,-y,z
1/2+x,1/2+y,1/2+z
1/2-x,1/2-y,1/2+z
1/2+x,1/2-y,1/2-z
1/2-x,1/2+y,1/2-z
1/2-x,1/2-y,1/2-z
1/2+x,1/2+y,1/2-z
1/2-x,1/2+y,1/2+z
1/2+x,1/2-y,1/2+z
loop_
_atom_site_type_symbol
_atom_site_label
_atom_site_fract_x
_atom_site_fract_y
_atom_site_fract_z
Si Si1 0.053460 0.167234 0.206061
Si Si2 0.119990 0.672696 0.701381
Si Si3 0.658716 0.668705 0.078134
Si Si4 0.053673 0.336448 0.924834
Si Si5 0.739316 0.172514 0.573654
Si Si6 0.291998 0.828094 0.283915
O O1 0.074769 0.258456 0.267662
O O2 0.071775 0.228410 0.133486
O O3 0.000000 0.185840 0.211918
O O4 0.068496 0.000000 0.211402
O O5 0.114574 0.500000 0.698242
O O6 0.126269 0.734418 0.625362
O O7 0.161786 0.722539 0.748999
O O8 0.654781 0.500000 0.100322
O O9 0.709764 0.728189 0.087926
O O10 0.643084 0.689073 0.000000
O O11 0.071719 0.500000 0.909265
O O12 0.000000 0.337391 0.924859
O O13 0.070956 0.285821 0.000000
O O14 0.721961 0.234858 0.500000
O O15 0.706536 0.218750 0.635788
O O16 0.742233 0.000000 0.567747
O O17 0.250000 0.750000 0.250000
O O18 0.284544 0.000000 0.275916
#
# Coordination Sequence:
#
# PCOD8288625 Si02
#       6
#    16  16  16  16  16  16
#     4  10  21  36  54  75 100 136 181 225 266 309
#     4  11  22  33  50  79 109 138 171 212 267 318
#     4   9  17  31  53  77 100 133 175 213 251 302
#     4   8  14  27  49  75 101 129 163 207 259 311
#     4   8  14  27  48  71  97 133 174 210 243 287
#     4  10  19  31  49  74 103 134 169 207 250 303
#
# _framework density 18.076644000000002
#
# number of rings (size 3 to 8) (size 9 to 14) (size 15 to 20)
#    0.000    2.667    1.667    2.500    0.000    2.333 
#    0.000    2.500    0.000    4.000    0.000    3.500 
#    0.000    0.000    0.000    0.000    0.000    0.000 
#
# Total GULP energy -594989.564226 kJ/mol
# GULP energy per Si atom -12395.615921 kJ/mol
# Density = 1.803550 g / cm^3
# Si number density = 18.076644 Si / 1000 Ang^3
#
#
#
# Elastic Constant Matrix: (Units=GPa)
#
#
# Indices 1 2 3 4 5 6 
#
# 1 35.9790 30.2135 32.2712 0.0000 0.0000 0.0000
# 2 30.2135 78.2699 49.2585 0.0000 0.0000 0.0000
# 3 32.2712 49.2585 127.9053 0.0000 0.0000 0.0000
# 4 0.0000 0.0000 0.0000 32.6189 0.0000 0.0000
# 5 0.0000 0.0000 0.0000 0.0000 27.0608 0.0000
# 6 0.0000 0.0000 0.0000 0.0000 0.0000 20.2479
#
#
#
# Elastic Compliance Matrix: (Units=1/GPa)
#
#
# Indices 1 2 3 4 5 6 
#
# 1 0.044439 -0.013328 -0.006079 0.000000 0.000000 0.000000
# 2 -0.013328 0.020861 -0.004671 0.000000 0.000000 0.000000
# 3 -0.006079 -0.004671 0.011151 0.000000 0.000000 0.000000
# 4 0.000000 0.000000 0.000000 0.030657 0.000000 0.000000
# 5 0.000000 0.000000 0.000000 0.000000 0.036954 0.000000
# 6 0.000000 0.000000 0.000000 0.000000 0.000000 0.049388
#
#
# Mechanical properties :
#
#
# Convention : Reuss Voigt Hill
#
# Bulk Modulus (GPa) = 35.34337 51.73785 43.54061
# Shear Modulus (GPa) = 19.91721 24.67959 22.29840
#
# Velocity S-wave (km/s) = 3.32297 3.69897 3.51600
# Velocity P-wave (km/s) = 5.85809 6.85031 6.37354
#
# Compressibility (1/GPa) = 0.02829385
#
# Stress axis : x y z
#
# Youngs Moduli (GPa) = 22.50253 47.93632 89.67767
#
# Poissons Ratio (x) = 0.63892 0.54518
# Poissons Ratio (y) = 0.29992 0.41889
# Poissons Ratio (z) = 0.13680 0.22392
#
# Static dielectric constant tensor:
#      x y z
#    x 3.014850 0.000000 0.000000 
#    y 0.000000 3.203030 0.000000 
#    z 0.000000 0.000000 4.017850 
# 
# 
# High freq. dielectric constant tensor:
#      x y z
#    x 1.661750 0.000000 0.000000 
#    y 0.000000 1.682610 0.000000 
#    z 0.000000 0.000000 1.714040 
# 
# From -- ./inp_files/56126.got.cif
#   From: 2010.06.25/outbox.cif.g09.slc.cpg/sg71_29_cif.got.tgz:56126.got - 2010.06.28 04:59:45.
