data_PCOD8288022
_publ_section_title
;
Structure prediction by ZEFSAII (Michael W. Deem and Ramdas Pophale) SiO2 
 PCOD8288022
Probable space group: I M M M
;
_chemical_formula_sum "Si O2"
_cell_formula_units_Z 104
_cell_length_a 14.065050
_cell_length_b 19.216114
_cell_length_c 20.964465
_cell_angle_alpha 90.000000
_cell_angle_beta 90.000000
_cell_angle_gamma 90.000000
_cell_volume 5666.183445
_symmetry_space_group_name_H-M "I M M M"
_symmetry_group_IT_number 71
_symmetry_cell_setting 'orthorhombic'
loop_
_space_group_symop_operation_xyz
x,y,z
-x,-y,z
x,-y,-z
-x,y,-z
-x,-y,-z
x,y,-z
-x,y,z
x,-y,z
1/2+x,1/2+y,1/2+z
1/2-x,1/2-y,1/2+z
1/2+x,1/2-y,1/2-z
1/2-x,1/2+y,1/2-z
1/2-x,1/2-y,1/2-z
1/2+x,1/2+y,1/2-z
1/2-x,1/2+y,1/2+z
1/2+x,1/2-y,1/2+z
loop_
_atom_site_type_symbol
_atom_site_label
_atom_site_fract_x
_atom_site_fract_y
_atom_site_fract_z
Si Si1 0.388167 0.261535 0.191907
Si Si2 0.759777 0.080179 0.868288
Si Si3 0.231217 0.644733 0.238032
Si Si4 0.108133 0.673977 0.427976
Si Si5 0.388329 0.305967 0.427313
Si Si6 0.388079 0.156846 0.622937
Si Si7 0.112794 0.576677 0.000000
O O1 0.500000 0.267357 0.209888
O O2 0.333934 0.332771 0.209266
O O3 0.335418 0.204942 0.234280
O O4 0.374347 0.240984 0.117392
O O5 0.748420 0.086540 0.791734
O O6 0.666511 0.107116 0.904607
O O7 0.847696 0.126402 0.892302
O O8 0.777806 0.000000 0.885974
O O9 0.167796 0.617763 0.179426
O O10 0.136670 0.695321 0.500000
O O11 0.000000 0.649349 0.423824
O O12 0.349364 0.299482 0.500000
O O13 0.500000 0.314150 0.429486
O O14 0.359609 0.238355 0.385502
O O15 0.500000 0.148443 0.634104
O O16 0.351109 0.117970 0.560813
O O17 0.157706 0.500000 0.000000
O O18 0.000000 0.573402 0.000000
#
# Coordination Sequence:
#
# PCOD8288022 Si02
#       7
#    16  16  16  16  16  16   8
#     4   9  17  32  52  76 103 126 163 216 264 312
#     4  11  24  37  48  69 105 144 184 225 257 297
#     4  10  20  32  49  75  98 137 175 208 260 313
#     4   9  18  33  53  76 101 130 164 209 263 316
#     4  10  20  35  56  80 105 136 175 221 271 313
#     4  10  18  33  56  82 109 136 168 212 262 319
#     4   9  18  32  52  82 114 138 162 199 260 332
#
# _framework density 18.354506000000001
#
# number of rings (size 3 to 8) (size 9 to 14) (size 15 to 20)
#    0.000    2.231    0.769    3.692    0.000    4.923 
#    1.385    1.538    0.000    0.000    0.000    0.000 
#    0.000    0.615    0.000    0.000    0.000    0.000 
#
# Total GULP energy -644518.812993 kJ/mol
# GULP energy per Si atom -12394.592558 kJ/mol
# Density = 1.831273 g / cm^3
# Si number density = 18.354506 Si / 1000 Ang^3
#
#
#
# Elastic Constant Matrix: (Units=GPa)
#
#
# Indices 1 2 3 4 5 6 
#
# 1 78.9500 30.7536 33.5436 0.0000 0.0000 0.0000
# 2 30.7536 65.3298 25.5016 0.0000 0.0000 0.0000
# 3 33.5436 25.5016 127.7312 0.0000 0.0000 0.0000
# 4 0.0000 0.0000 0.0000 17.5044 0.0000 0.0000
# 5 0.0000 0.0000 0.0000 0.0000 24.8749 0.0000
# 6 0.0000 0.0000 0.0000 0.0000 0.0000 17.0948
#
#
#
# Elastic Compliance Matrix: (Units=1/GPa)
#
#
# Indices 1 2 3 4 5 6 
#
# 1 0.016520 -0.006597 -0.003021 0.000000 0.000000 0.000000
# 2 -0.006597 0.019235 -0.002108 0.000000 0.000000 0.000000
# 3 -0.003021 -0.002108 0.009043 0.000000 0.000000 0.000000
# 4 0.000000 0.000000 0.000000 0.057128 0.000000 0.000000
# 5 0.000000 0.000000 0.000000 0.000000 0.040201 0.000000
# 6 0.000000 0.000000 0.000000 0.000000 0.000000 0.058497
#
#
# Mechanical properties :
#
#
# Convention : Reuss Voigt Hill
#
# Bulk Modulus (GPa) = 46.84760 50.17872 48.51316
# Shear Modulus (GPa) = 21.62698 24.04230 22.83464
#
# Velocity S-wave (km/s) = 3.43635 3.62316 3.53099
# Velocity P-wave (km/s) = 6.42836 6.70082 6.56601
#
# Compressibility (1/GPa) = 0.02134581
#
# Stress axis : x y z
#
# Youngs Moduli (GPa) = 60.53399 51.98762 110.58097
#
# Poissons Ratio (x) = 0.34297 0.33408
# Poissons Ratio (y) = 0.39936 0.23309
# Poissons Ratio (z) = 0.18288 0.10958
#
# Static dielectric constant tensor:
#      x y z
#    x 3.398840 0.000000 0.000000 
#    y 0.000000 3.052680 0.000000 
#    z 0.000000 0.000000 3.838960 
# 
# 
# High freq. dielectric constant tensor:
#      x y z
#    x 1.710880 0.000000 0.000000 
#    y 0.000000 1.667290 0.000000 
#    z 0.000000 0.000000 1.732670 
# 
# From -- ./inp_files/53207.got.cif
#   From: 2010.06.25/outbox.cif.g09.slc.cpg/sg71_27_cif.got.tgz:53207.got - 2010.06.28 04:59:45.
