data_PCOD8288174
_publ_section_title
;
Structure prediction by ZEFSAII (Michael W. Deem and Ramdas Pophale) SiO2 
 PCOD8288174
Probable space group: I M M M
;
_chemical_formula_sum "Si O2"
_cell_formula_units_Z 104
_cell_length_a 19.459433
_cell_length_b 10.401855
_cell_length_c 31.317023
_cell_angle_alpha 90.000000
_cell_angle_beta 90.000000
_cell_angle_gamma 90.000000
_cell_volume 6339.010171
_symmetry_space_group_name_H-M "I M M M"
_symmetry_group_IT_number 71
_symmetry_cell_setting 'orthorhombic'
loop_
_space_group_symop_operation_xyz
x,y,z
-x,-y,z
x,-y,-z
-x,y,-z
-x,-y,-z
x,y,-z
-x,y,z
x,-y,z
1/2+x,1/2+y,1/2+z
1/2-x,1/2-y,1/2+z
1/2+x,1/2-y,1/2-z
1/2-x,1/2+y,1/2-z
1/2-x,1/2-y,1/2-z
1/2+x,1/2+y,1/2-z
1/2-x,1/2+y,1/2+z
1/2+x,1/2-y,1/2+z
loop_
_atom_site_type_symbol
_atom_site_label
_atom_site_fract_x
_atom_site_fract_y
_atom_site_fract_z
Si Si1 0.645038 0.774986 0.736522
Si Si2 0.579406 0.653659 0.500000
Si Si3 0.422470 0.353027 0.661815
Si Si4 0.422715 0.000000 0.113817
Si Si5 0.159329 0.849767 0.918154
Si Si6 0.277988 0.355676 0.808070
Si Si7 0.298332 0.855861 0.879574
Si Si8 0.424151 0.000000 0.784891
O O1 0.585388 0.718901 0.706758
O O2 0.678510 0.662417 0.764752
O O3 0.698786 0.839824 0.704267
O O4 0.615449 0.875141 0.769845
O O5 0.580234 0.500000 0.500000
O O6 0.500000 0.702446 0.500000
O O7 0.621514 0.710780 0.540617
O O8 0.500000 0.338826 0.645576
O O9 0.401900 0.500000 0.669752
O O10 0.374093 0.292477 0.625061
O O11 0.376293 0.126578 0.100707
O O12 0.500000 0.000000 0.093333
O O13 0.428762 0.000000 0.164517
O O14 0.241654 0.820512 0.916044
O O15 0.143903 0.000000 0.920235
O O16 0.290835 0.500000 0.825594
O O17 0.299545 0.252122 0.843530
O O18 0.278712 0.000000 0.860587
O O19 0.500000 0.000000 0.764786
#
# Coordination Sequence:
#
# PCOD8288174 Si02
#       8
#    16   8  16   8  16  16  16   8
#     4  11  20  31  43  61  89 124 164 203 251 278
#     4   9  16  26  42  70 105 131 157 194 240 286
#     4  10  19  29  42  62  92 127 162 204 248 287
#     4   9  18  32  52  69  86 123 165 196 235 290
#     4   9  16  27  45  67  93 127 159 195 240 289
#     4  11  21  30  47  67  92 120 162 207 244 288
#     4   9  17  32  51  69  92 122 158 201 239 287
#     4  11  20  32  46  62  87 125 171 205 238 287
#
# _framework density 16.406347
#
# number of rings (size 3 to 8) (size 9 to 14) (size 15 to 20)
#    0.462    1.615    3.846    1.385    0.000    2.462 
#    0.000    0.000    0.000    1.385    0.000    1.615 
#    0.000    0.615    0.000    0.000    0.000    1.538 
#
# Total GULP energy -644189.339846 kJ/mol
# GULP energy per Si atom -12388.256535 kJ/mol
# Density = 1.636901 g / cm^3
# Si number density = 16.406347 Si / 1000 Ang^3
#
#
#
# Elastic Constant Matrix: (Units=GPa)
#
#
# Indices 1 2 3 4 5 6 
#
# 1 124.2867 17.2329 30.9477 0.0000 0.0000 0.0000
# 2 17.2329 58.7212 15.4041 0.0000 0.0000 0.0000
# 3 30.9477 15.4041 61.4841 0.0000 0.0000 0.0000
# 4 0.0000 0.0000 0.0000 8.1632 0.0000 0.0000
# 5 0.0000 0.0000 0.0000 0.0000 25.2696 0.0000
# 6 0.0000 0.0000 0.0000 0.0000 0.0000 14.9979
#
#
#
# Elastic Compliance Matrix: (Units=1/GPa)
#
#
# Indices 1 2 3 4 5 6 
#
# 1 0.009340 -0.001614 -0.004297 0.000000 0.000000 0.000000
# 2 -0.001614 0.018506 -0.003824 0.000000 0.000000 0.000000
# 3 -0.004297 -0.003824 0.019385 0.000000 0.000000 0.000000
# 4 0.000000 0.000000 0.000000 0.122501 0.000000 0.000000
# 5 0.000000 0.000000 0.000000 0.000000 0.039573 0.000000
# 6 0.000000 0.000000 0.000000 0.000000 0.000000 0.066676
#
#
# Mechanical properties :
#
#
# Convention : Reuss Voigt Hill
#
# Bulk Modulus (GPa) = 36.02085 41.29572 38.65829
# Shear Modulus (GPa) = 16.40932 21.74662 19.07797
#
# Velocity S-wave (km/s) = 3.16600 3.64469 3.41374
# Velocity P-wave (km/s) = 5.94708 6.55263 6.25719
#
# Compressibility (1/GPa) = 0.02776170
#
# Stress axis : x y z
#
# Youngs Moduli (GPa) = 107.07149 54.03534 51.58564
#
# Poissons Ratio (x) = 0.08720 0.22165
# Poissons Ratio (y) = 0.17278 0.19728
# Poissons Ratio (z) = 0.46006 0.20665
#
# Static dielectric constant tensor:
#      x y z
#    x 3.401680 0.000000 0.000000 
#    y 0.000000 2.741930 0.000000 
#    z 0.000000 0.000000 2.916330 
# 
# 
# High freq. dielectric constant tensor:
#      x y z
#    x 1.641850 0.000000 0.000000 
#    y 0.000000 1.588550 0.000000 
#    z 0.000000 0.000000 1.599910 
# 
# From -- ./inp_files/70851.got.cif
#   From: 2010.06.25/outbox.cif.g09.slc.cpg/sg71_36_cif.got.tgz:70851.got - 2010.06.28 04:59:45.
