data_PCOD8288496
_publ_section_title
;
Structure prediction by ZEFSAII (Michael W. Deem and Ramdas Pophale) SiO2 
 PCOD8288496
Probable space group: I M M M
;
_chemical_formula_sum "Si O2"
_cell_formula_units_Z 72
_cell_length_a 9.034291
_cell_length_b 22.900174
_cell_length_c 22.903777
_cell_angle_alpha 90.000000
_cell_angle_beta 90.000000
_cell_angle_gamma 90.000000
_cell_volume 4738.489953
_symmetry_space_group_name_H-M "I M M M"
_symmetry_group_IT_number 71
_symmetry_cell_setting 'orthorhombic'
loop_
_space_group_symop_operation_xyz
x,y,z
-x,-y,z
x,-y,-z
-x,y,-z
-x,-y,-z
x,y,-z
-x,y,z
x,-y,z
1/2+x,1/2+y,1/2+z
1/2-x,1/2-y,1/2+z
1/2+x,1/2-y,1/2-z
1/2-x,1/2+y,1/2-z
1/2-x,1/2-y,1/2-z
1/2+x,1/2+y,1/2-z
1/2-x,1/2+y,1/2+z
1/2+x,1/2-y,1/2+z
loop_
_atom_site_type_symbol
_atom_site_label
_atom_site_fract_x
_atom_site_fract_y
_atom_site_fract_z
Si Si1 0.172913 0.068435 0.500000
Si Si2 0.326285 0.125725 0.389933
Si Si3 0.332816 0.269780 0.837637
Si Si4 0.827790 0.433329 0.767952
Si Si5 0.333525 0.668280 0.286831
O O1 0.246683 0.095398 0.443326
O O2 0.000000 0.083138 0.500000
O O3 0.203865 0.000000 0.500000
O O4 0.500000 0.130554 0.402193
O O5 0.261328 0.190715 0.382071
O O6 0.290866 0.086638 0.333480
O O7 0.500000 0.263147 0.861090
O O8 0.331843 0.298898 0.774486
O O9 0.258296 0.205907 0.833950
O O10 0.777278 0.500000 0.760763
O O11 0.739313 0.395307 0.720578
O O12 0.000000 0.424744 0.754903
O O13 0.500000 0.660639 0.310133
#
# Coordination Sequence:
#
# PCOD8288496 Si02
#       5
#     8  16  16  16  16
#     4  11  23  35  45  59  81 109 142 179 216 251
#     4  10  19  31  46  61  78 104 140 179 215 249
#     4   9  16  27  42  59  79 102 130 166 207 248
#     4   9  17  28  41  58  81 109 139 170 206 248
#     4   9  16  25  39  59  80 103 132 165 201 243
#
# _framework density 15.194713
#
# number of rings (size 3 to 8) (size 9 to 14) (size 15 to 20)
#    0.000    2.556    0.000    3.000    0.000    8.444 
#    0.000    0.000    0.000    0.000    0.000    0.000 
#    0.000    0.000    0.000    1.000    0.000   18.444 
#
# Total GULP energy -446405.137757 kJ/mol
# GULP energy per Si atom -12400.142715 kJ/mol
# Density = 1.516013 g / cm^3
# Si number density = 15.194713 Si / 1000 Ang^3
#
#
#
# Elastic Constant Matrix: (Units=GPa)
#
#
# Indices 1 2 3 4 5 6 
#
# 1 117.7587 77.3152 43.8461 0.0000 0.0000 0.0000
# 2 77.3152 133.1081 44.9707 0.0000 0.0000 0.0000
# 3 43.8461 44.9707 36.2215 0.0000 0.0000 0.0000
# 4 0.0000 0.0000 0.0000 10.6200 0.0000 0.0000
# 5 0.0000 0.0000 0.0000 0.0000 23.2199 0.0000
# 6 0.0000 0.0000 0.0000 0.0000 0.0000 28.8249
#
#
#
# Elastic Compliance Matrix: (Units=1/GPa)
#
#
# Indices 1 2 3 4 5 6 
#
# 1 0.017268 -0.005112 -0.014556 0.000000 0.000000 0.000000
# 2 -0.005112 0.014454 -0.011757 0.000000 0.000000 0.000000
# 3 -0.014556 -0.011757 0.059825 0.000000 0.000000 0.000000
# 4 0.000000 0.000000 0.000000 0.094162 0.000000 0.000000
# 5 0.000000 0.000000 0.000000 0.000000 0.043067 0.000000
# 6 0.000000 0.000000 0.000000 0.000000 0.000000 0.034692
#
#
# Mechanical properties :
#
#
# Convention : Reuss Voigt Hill
#
# Bulk Modulus (GPa) = 34.84745 68.81692 51.83219
# Shear Modulus (GPa) = 14.88607 20.59671 17.74139
#
# Velocity S-wave (km/s) = 3.13339 3.68573 3.42073
# Velocity P-wave (km/s) = 6.00621 7.96876 7.05605
#
# Compressibility (1/GPa) = 0.02869651
#
# Stress axis : x y z
#
# Youngs Moduli (GPa) = 57.90959 69.18295 16.71547
#
# Poissons Ratio (x) = 0.35370 0.24331
# Poissons Ratio (y) = 0.29606 0.19653
# Poissons Ratio (z) = 0.84292 0.81340
#
# Static dielectric constant tensor:
#      x y z
#    x 3.124860 0.000000 0.000000 
#    y 0.000000 3.037490 0.000000 
#    z 0.000000 0.000000 2.563290 
# 
# 
# High freq. dielectric constant tensor:
#      x y z
#    x 1.601820 0.000000 0.000000 
#    y 0.000000 1.581500 0.000000 
#    z 0.000000 0.000000 1.523410 
# 
# From -- ./inp_files/7889.got.cif
#   From: 2010.06.25/outbox.cif.g09.slc.cpg/sg71_4_cif.got.tgz:7889.got - 2010.06.28 04:59:45.
