data_PCOD8288139
_publ_section_title
;
Structure prediction by ZEFSAII (Michael W. Deem and Ramdas Pophale) SiO2 
 PCOD8288139
Probable space group: I M M M
;
_chemical_formula_sum "Si O2"
_cell_formula_units_Z 96
_cell_length_a 24.727893
_cell_length_b 24.190222
_cell_length_c 9.348772
_cell_angle_alpha 90.000000
_cell_angle_beta 90.000000
_cell_angle_gamma 90.000000
_cell_volume 5592.185062
_symmetry_space_group_name_H-M "I M M M"
_symmetry_group_IT_number 71
_symmetry_cell_setting 'orthorhombic'
loop_
_space_group_symop_operation_xyz
x,y,z
-x,-y,z
x,-y,-z
-x,y,-z
-x,-y,-z
x,y,-z
-x,y,z
x,-y,z
1/2+x,1/2+y,1/2+z
1/2-x,1/2-y,1/2+z
1/2+x,1/2-y,1/2-z
1/2-x,1/2+y,1/2-z
1/2-x,1/2-y,1/2-z
1/2+x,1/2+y,1/2-z
1/2-x,1/2+y,1/2+z
1/2+x,1/2-y,1/2+z
loop_
_atom_site_type_symbol
_atom_site_label
_atom_site_fract_x
_atom_site_fract_y
_atom_site_fract_z
Si Si1 0.111603 0.111090 0.837557
Si Si2 0.221562 0.500000 0.836002
Si Si3 0.176082 0.000000 0.846132
Si Si4 0.313895 0.305882 0.167397
Si Si5 0.500000 0.436964 0.329889
Si Si6 0.309553 0.195040 0.665850
Si Si7 0.563768 0.000000 0.833902
Si Si8 0.133262 0.415833 0.166966
O O1 0.138825 0.052235 0.829927
O O2 0.143446 0.152702 0.736183
O O3 0.051171 0.099750 0.779402
O O4 0.111534 0.134491 0.000000
O O5 0.279872 0.500000 0.772950
O O6 0.188645 0.554004 0.790391
O O7 0.233672 0.500000 0.000000
O O8 0.205461 0.000000 0.000000
O O9 0.324454 0.245891 0.234086
O O10 0.252007 0.325275 0.197668
O O11 0.325819 0.302546 0.000000
O O12 0.500000 0.500000 0.266171
O O13 0.500000 0.442591 0.500000
O O14 0.313627 0.212713 0.500000
O O15 0.354474 0.148171 0.701291
O O16 0.585663 0.943496 0.760256
O O17 0.500000 0.000000 0.814653
O O18 0.580768 0.000000 0.000000
O O19 0.118934 0.424953 0.000000
#
# Coordination Sequence:
#
# PCOD8288139 Si02
#       8
#    16   8   8  16   8  16   8  16
#     4  10  19  32  51  73  97 129 172 216 253 294
#     4   9  17  29  45  71 106 135 156 190 247 303
#     4  10  19  28  44  72 101 128 163 208 252 297
#     4  10  20  33  51  76 106 137 165 202 254 304
#     4   9  16  32  55  73  93 129 175 218 255 288
#     4   9  18  34  54  76 103 135 171 206 243 295
#     4  10  21  35  52  77 106 133 162 203 256 304
#     4   9  18  33  53  74  99 133 170 206 241 289
#
# _framework density 17.166813000000001
#
# number of rings (size 3 to 8) (size 9 to 14) (size 15 to 20)
#    0.000    2.500    0.833    2.250    0.000    5.333 
#    0.000    0.417    1.833    0.500    0.000    0.000 
#    0.000    0.000    0.000    0.000    0.000    0.000 
#
# Total GULP energy -594944.821437 kJ/mol
# GULP energy per Si atom -12394.683780 kJ/mol
# Density = 1.712774 g / cm^3
# Si number density = 17.166813 Si / 1000 Ang^3
#
#
#
# Elastic Constant Matrix: (Units=GPa)
#
#
# Indices 1 2 3 4 5 6 
#
# 1 99.0485 52.7786 50.2927 0.0000 0.0000 0.0000
# 2 52.7786 108.2704 59.5355 0.0000 0.0000 0.0000
# 3 50.2927 59.5355 77.6040 0.0000 0.0000 0.0000
# 4 0.0000 0.0000 0.0000 25.3565 0.0000 0.0000
# 5 0.0000 0.0000 0.0000 0.0000 25.5273 0.0000
# 6 0.0000 0.0000 0.0000 0.0000 0.0000 40.5268
#
#
#
# Elastic Compliance Matrix: (Units=1/GPa)
#
#
# Indices 1 2 3 4 5 6 
#
# 1 0.015814 -0.003586 -0.007497 0.000000 0.000000 0.000000
# 2 -0.003586 0.016789 -0.010556 0.000000 0.000000 0.000000
# 3 -0.007497 -0.010556 0.025843 0.000000 0.000000 0.000000
# 4 0.000000 0.000000 0.000000 0.039438 0.000000 0.000000
# 5 0.000000 0.000000 0.000000 0.000000 0.039174 0.000000
# 6 0.000000 0.000000 0.000000 0.000000 0.000000 0.024675
#
#
# Mechanical properties :
#
#
# Convention : Reuss Voigt Hill
#
# Bulk Modulus (GPa) = 65.93280 67.79292 66.86286
# Shear Modulus (GPa) = 23.80216 26.43652 25.11934
#
# Velocity S-wave (km/s) = 3.72764 3.92851 3.82939
# Velocity P-wave (km/s) = 7.55100 7.75590 7.65414
#
# Compressibility (1/GPa) = 0.01516696
#
# Stress axis : x y z
#
# Youngs Moduli (GPa) = 63.23617 59.56422 38.69587
#
# Poissons Ratio (x) = 0.21361 0.29011
# Poissons Ratio (y) = 0.22678 0.40846
# Poissons Ratio (z) = 0.47409 0.62874
#
# Static dielectric constant tensor:
#      x y z
#    x 3.199700 0.000000 0.000000 
#    y 0.000000 3.153120 0.000000 
#    z 0.000000 0.000000 3.194720 
# 
# 
# High freq. dielectric constant tensor:
#      x y z
#    x 1.652220 0.000000 0.000000 
#    y 0.000000 1.661030 0.000000 
#    z 0.000000 0.000000 1.655390 
# 
# From -- ./inp_files/12961.got.cif
#   From: 2010.06.25/outbox.cif.g09.slc.cpg/sg71_7_cif.got.tgz:12961.got - 2010.06.28 04:59:45.
