data_PCOD8288357
_publ_section_title
;
Structure prediction by ZEFSAII (Michael W. Deem and Ramdas Pophale) SiO2 
 PCOD8288357
Probable space group: I M M M
;
_chemical_formula_sum "Si O2"
_cell_formula_units_Z 104
_cell_length_a 21.076258
_cell_length_b 21.235190
_cell_length_c 13.792065
_cell_angle_alpha 90.000000
_cell_angle_beta 90.000000
_cell_angle_gamma 90.000000
_cell_volume 6172.753760
_symmetry_space_group_name_H-M "I M M M"
_symmetry_group_IT_number 71
_symmetry_cell_setting 'orthorhombic'
loop_
_space_group_symop_operation_xyz
x,y,z
-x,-y,z
x,-y,-z
-x,y,-z
-x,-y,-z
x,y,-z
-x,y,z
x,-y,z
1/2+x,1/2+y,1/2+z
1/2-x,1/2-y,1/2+z
1/2+x,1/2-y,1/2-z
1/2-x,1/2+y,1/2-z
1/2-x,1/2-y,1/2-z
1/2+x,1/2+y,1/2-z
1/2-x,1/2+y,1/2+z
1/2+x,1/2-y,1/2+z
loop_
_atom_site_type_symbol
_atom_site_label
_atom_site_fract_x
_atom_site_fract_y
_atom_site_fract_z
Si Si1 0.253688 0.713172 0.892037
Si Si2 0.245910 0.651505 0.304461
Si Si3 0.000000 0.762741 0.615675
Si Si4 0.371191 0.425658 0.716196
Si Si5 0.000000 0.925342 0.890548
Si Si6 0.367090 0.929520 0.885287
Si Si7 0.000000 0.622406 0.384432
Si Si8 0.886989 0.155071 0.607251
O O1 0.228859 0.665685 0.808592
O O2 0.239976 0.784837 0.863023
O O3 0.328362 0.702249 0.896751
O O4 0.224239 0.699537 0.000000
O O5 0.308282 0.608990 0.323316
O O6 0.184323 0.617602 0.343879
O O7 0.940124 0.801027 0.654975
O O8 0.000000 0.758981 0.500000
O O9 0.000000 0.692805 0.659168
O O10 0.361118 0.500000 0.705635
O O11 0.434967 0.402311 0.661051
O O12 0.377769 0.407422 0.829033
O O13 0.000000 0.000000 0.889460
O O14 0.000000 0.898932 0.000000
O O15 0.437162 0.912561 0.845809
O O16 0.350566 0.000000 0.851092
O O17 0.365943 0.923590 0.000000
O O18 0.000000 0.623196 0.500000
O O19 0.905233 0.130771 0.500000
#
# Coordination Sequence:
#
# PCOD8288357 Si02
#       8
#    16  16   8  16   8  16   8  16
#     4   9  18  32  48  68  96 126 156 195 243 286
#     4  10  19  31  50  73  95 123 160 200 238 281
#     4   9  15  24  42  66  90 119 156 189 219 270
#     4  10  20  33  48  67  92 123 160 199 238 283
#     4   9  19  34  47  59  83 121 159 194 232 269
#     4  10  19  30  46  71 102 130 156 190 235 290
#     4   9  17  29  46  68  97 130 155 183 233 292
#     4   9  17  29  46  69  95 122 153 192 238 285
#
# _framework density 16.848234999999999
#
# number of rings (size 3 to 8) (size 9 to 14) (size 15 to 20)
#    0.000    2.538    0.000    2.538    0.000    4.923 
#    0.000    1.538    0.000    4.154    0.000    0.538 
#    0.000    1.231    0.000    0.000    0.000    0.000 
#
# Total GULP energy -644449.269095 kJ/mol
# GULP energy per Si atom -12393.255175 kJ/mol
# Density = 1.680989 g / cm^3
# Si number density = 16.848235 Si / 1000 Ang^3
#
#
#
# Elastic Constant Matrix: (Units=GPa)
#
#
# Indices 1 2 3 4 5 6 
#
# 1 93.2592 37.4118 18.5352 0.0000 0.0000 0.0000
# 2 37.4118 78.6073 17.8660 0.0000 0.0000 0.0000
# 3 18.5352 17.8660 56.7173 0.0000 0.0000 0.0000
# 4 0.0000 0.0000 0.0000 16.2591 0.0000 0.0000
# 5 0.0000 0.0000 0.0000 0.0000 21.4008 0.0000
# 6 0.0000 0.0000 0.0000 0.0000 0.0000 20.8357
#
#
#
# Elastic Compliance Matrix: (Units=1/GPa)
#
#
# Indices 1 2 3 4 5 6 
#
# 1 0.013598 -0.005883 -0.002591 0.000000 0.000000 0.000000
# 2 -0.005883 0.016248 -0.003196 0.000000 0.000000 0.000000
# 3 -0.002591 -0.003196 0.019485 0.000000 0.000000 0.000000
# 4 0.000000 0.000000 0.000000 0.061504 0.000000 0.000000
# 5 0.000000 0.000000 0.000000 0.000000 0.046727 0.000000
# 6 0.000000 0.000000 0.000000 0.000000 0.000000 0.047995
#
#
# Mechanical properties :
#
#
# Convention : Reuss Voigt Hill
#
# Bulk Modulus (GPa) = 38.47352 41.80108 40.13730
# Shear Modulus (GPa) = 21.04755 22.01716 21.53236
#
# Velocity S-wave (km/s) = 3.53830 3.61888 3.57882
# Velocity P-wave (km/s) = 6.29108 6.50584 6.39936
#
# Compressibility (1/GPa) = 0.02599190
#
# Stress axis : x y z
#
# Youngs Moduli (GPa) = 73.54233 61.54777 51.32278
#
# Poissons Ratio (x) = 0.36207 0.13296
# Poissons Ratio (y) = 0.43263 0.16400
# Poissons Ratio (z) = 0.19052 0.19668
#
# Static dielectric constant tensor:
#      x y z
#    x 3.249200 0.000000 0.000000 
#    y 0.000000 3.128430 0.000000 
#    z 0.000000 0.000000 3.231350 
# 
# 
# High freq. dielectric constant tensor:
#      x y z
#    x 1.652890 0.000000 0.000000 
#    y 0.000000 1.646750 0.000000 
#    z 0.000000 0.000000 1.626840 
# 
# From -- ./inp_files/38386.got.cif
#   From: 2010.06.25/outbox.cif.g09.slc.cpg/sg71_20_cif.got.tgz:38386.got - 2010.06.28 04:59:45.
