data_PCOD8288300
_publ_section_title
;
Structure prediction by ZEFSAII (Michael W. Deem and Ramdas Pophale) SiO2 
 PCOD8288300
Probable space group: I M M M
;
_chemical_formula_sum "Si O2"
_cell_formula_units_Z 104
_cell_length_a 13.547046
_cell_length_b 32.564356
_cell_length_c 13.896212
_cell_angle_alpha 90.000000
_cell_angle_beta 90.000000
_cell_angle_gamma 90.000000
_cell_volume 6130.325439
_symmetry_space_group_name_H-M "I M M M"
_symmetry_group_IT_number 71
_symmetry_cell_setting 'orthorhombic'
loop_
_space_group_symop_operation_xyz
x,y,z
-x,-y,z
x,-y,-z
-x,y,-z
-x,-y,-z
x,y,-z
-x,y,z
x,-y,z
1/2+x,1/2+y,1/2+z
1/2-x,1/2-y,1/2+z
1/2+x,1/2-y,1/2-z
1/2-x,1/2+y,1/2-z
1/2-x,1/2-y,1/2-z
1/2+x,1/2+y,1/2-z
1/2-x,1/2+y,1/2+z
1/2+x,1/2-y,1/2+z
loop_
_atom_site_type_symbol
_atom_site_label
_atom_site_fract_x
_atom_site_fract_y
_atom_site_fract_z
Si Si1 0.798342 0.584521 0.110941
Si Si2 0.882429 0.743466 0.106334
Si Si3 0.616384 0.162792 0.708745
Si Si4 0.117475 0.707218 0.606277
Si Si5 0.382608 0.711736 0.792115
Si Si6 0.611777 0.000000 0.385827
Si Si7 0.610377 0.369698 0.110027
O O1 0.850800 0.618317 0.175419
O O2 0.829718 0.540082 0.151363
O O3 0.680086 0.590366 0.121187
O O4 0.832097 0.589803 0.000000
O O5 0.839846 0.699413 0.141875
O O6 0.851058 0.779392 0.181331
O O7 0.000000 0.740607 0.104502
O O8 0.840907 0.753855 0.000000
O O9 0.500000 0.164421 0.701914
O O10 0.650704 0.171800 0.818741
O O11 0.158425 0.696682 0.500000
O O12 0.160126 0.751616 0.640541
O O13 0.000000 0.710384 0.605471
O O14 0.500000 0.710683 0.803797
O O15 0.343010 0.667162 0.825523
O O16 0.500000 0.000000 0.345187
O O17 0.610228 0.000000 0.500000
O O18 0.500000 0.382105 0.143272
O O19 0.609350 0.354198 0.000000
#
# Coordination Sequence:
#
# PCOD8288300 Si02
#       7
#    16  16  16  16  16   8  16
#     4  10  19  30  45  65  87 110 138 173 213 258
#     4   8  13  21  34  55  85 119 150 178 212 254
#     4   9  16  25  40  62  86 114 146 179 217 259
#     4   8  13  22  37  58  85 117 151 184 216 249
#     4   8  13  22  38  57  78 111 151 185 216 247
#     4   9  18  32  49  69  92 114 133 158 201 259
#     4   9  17  29  44  61  82 111 147 182 212 244
#
# _framework density 16.964841
#
# number of rings (size 3 to 8) (size 9 to 14) (size 15 to 20)
#    0.000    3.308    0.000    3.231    0.000    3.385 
#    0.000    3.462    0.000    5.077    0.000    0.538 
#    0.000    3.077    0.000    0.000    0.000   13.077 
#
# Total GULP energy -644465.944696 kJ/mol
# GULP energy per Si atom -12393.575860 kJ/mol
# Density = 1.692623 g / cm^3
# Si number density = 16.964841 Si / 1000 Ang^3
#
#
#
# Elastic Constant Matrix: (Units=GPa)
#
#
# Indices 1 2 3 4 5 6 
#
# 1 39.6360 45.8979 23.8189 0.0000 0.0003 0.0001
# 2 45.8979 129.5395 49.1388 -0.0002 -0.0001 0.0001
# 3 23.8189 49.1388 109.9947 -0.0013 0.0014 0.0010
# 4 0.0000 -0.0002 -0.0013 17.5759 -0.0006 0.0000
# 5 0.0003 -0.0001 0.0014 -0.0006 8.2719 -0.0002
# 6 0.0001 0.0001 0.0010 0.0000 -0.0002 26.2185
#
#
#
# Elastic Compliance Matrix: (Units=1/GPa)
#
#
# Indices 1 2 3 4 5 6 
#
# 1 0.043622 -0.014295 -0.003060 -0.000001 -0.000001 0.000000
# 2 -0.014295 0.013979 -0.003150 0.000000 0.000001 0.000000
# 3 -0.003060 -0.003150 0.011161 0.000001 -0.000002 0.000000
# 4 -0.000001 0.000000 0.000001 0.056896 0.000004 0.000000
# 5 -0.000001 0.000001 -0.000002 0.000004 0.120892 0.000001
# 6 0.000000 0.000000 0.000000 0.000000 0.000001 0.038141
#
#
# Mechanical properties :
#
#
# Convention : Reuss Voigt Hill
#
# Bulk Modulus (GPa) = 36.03215 57.43127 46.73171
# Shear Modulus (GPa) = 14.92752 21.10089 18.01420
#
# Velocity S-wave (km/s) = 2.96954 3.53058 3.26215
# Velocity P-wave (km/s) = 5.74830 7.10961 6.46489
#
# Compressibility (1/GPa) = 0.02775299
#
# Stress axis : x y z
#
# Youngs Moduli (GPa) = 22.92413 71.53370 89.59769
#
# Poissons Ratio (x) = 1.02259 0.27417
# Poissons Ratio (y) = 0.32771 0.28219
# Poissons Ratio (z) = 0.07015 0.22530
#
# Static dielectric constant tensor:
#      x y z
#    x 3.222070 0.000000 0.000000 
#    y 0.000000 3.002560 0.000000 
#    z 0.000000 0.000000 3.320510 
# 
# 
# High freq. dielectric constant tensor:
#      x y z
#    x 1.669620 0.000000 0.000000 
#    y 0.000000 1.610380 0.000000 
#    z 0.000000 0.000000 1.634200 
# 
# From -- ./inp_files/35385.got.cif
#   From: 2010.06.25/outbox.cif.g09.slc.cpg/sg71_18_cif.got.tgz:35385.got - 2010.06.28 04:59:45.
