data_PCOD8288149
_publ_section_title
;
Structure prediction by ZEFSAII (Michael W. Deem and Ramdas Pophale) SiO2 
 PCOD8288149
Probable space group: I M M M
;
_chemical_formula_sum "Si O2"
_cell_formula_units_Z 104
_cell_length_a 8.750065
_cell_length_b 28.327617
_cell_length_c 32.725936
_cell_angle_alpha 90.000000
_cell_angle_beta 90.000000
_cell_angle_gamma 90.000000
_cell_volume 8111.728342
_symmetry_space_group_name_H-M "I M M M"
_symmetry_group_IT_number 71
_symmetry_cell_setting 'orthorhombic'
loop_
_space_group_symop_operation_xyz
x,y,z
-x,-y,z
x,-y,-z
-x,y,-z
-x,-y,-z
x,y,-z
-x,y,z
x,-y,z
1/2+x,1/2+y,1/2+z
1/2-x,1/2-y,1/2+z
1/2+x,1/2-y,1/2-z
1/2-x,1/2+y,1/2-z
1/2-x,1/2-y,1/2-z
1/2+x,1/2+y,1/2-z
1/2-x,1/2+y,1/2+z
1/2+x,1/2-y,1/2+z
loop_
_atom_site_type_symbol
_atom_site_label
_atom_site_fract_x
_atom_site_fract_y
_atom_site_fract_z
Si Si1 0.820249 0.084681 0.912474
Si Si2 0.320765 0.149989 0.851308
Si Si3 0.822050 0.500000 0.365829
Si Si4 0.328666 0.264738 0.311915
Si Si5 0.171254 0.182081 0.726444
Si Si6 0.179026 0.000000 0.779111
Si Si7 0.679661 0.902212 0.232053
Si Si8 0.678804 0.552941 0.500000
O O1 0.772481 0.133986 0.891627
O O2 0.000000 0.074527 0.905970
O O3 0.715196 0.045645 0.891815
O O4 0.774804 0.083567 0.960308
O O5 0.500000 0.147973 0.859982
O O6 0.272862 0.203733 0.842347
O O7 0.274787 0.116103 0.813282
O O8 0.715937 0.500000 0.326631
O O9 0.000000 0.500000 0.352770
O O10 0.500000 0.260300 0.329386
O O11 0.255549 0.212642 0.308500
O O12 0.331120 0.288449 0.267846
O O13 0.259626 0.133183 0.733298
O O14 0.000000 0.170982 0.711647
O O15 0.248636 0.046860 0.758773
O O16 0.000000 0.000000 0.771796
O O17 0.500000 0.905659 0.236186
O O18 0.753944 0.500000 0.500000
O O19 0.500000 0.544754 0.500000
#
# Coordination Sequence:
#
# PCOD8288149 Si02
#       8
#    16  16   8  16  16   8  16   8
#     4  11  20  32  47  58  71  91 118 148 183 227
#     4  10  19  29  41  57  76  92 113 145 183 220
#     4  12  22  31  41  56  73  90 114 148 186 224
#     4   9  16  26  40  56  73  93 117 140 173 213
#     4   9  16  26  39  55  74  94 118 142 172 210
#     4  12  22  30  41  55  72  96 125 152 184 221
#     4  10  19  29  40  54  75  96 118 147 181 216
#     4   9  18  32  46  60  72  90 118 150 184 225
#
# _framework density 12.820942000000001
#
# number of rings (size 3 to 8) (size 9 to 14) (size 15 to 20)
#    0.000    1.923    2.308    3.692    0.000    4.923 
#    0.000    1.923    0.000    0.000    0.000    0.000 
#    0.000    0.000    0.000    0.000    0.000    0.000 
#
# Total GULP energy -644733.839793 kJ/mol
# GULP energy per Si atom -12398.727688 kJ/mol
# Density = 1.279176 g / cm^3
# Si number density = 12.820942 Si / 1000 Ang^3
#
#
#
# Elastic Constant Matrix: (Units=GPa)
#
#
# Indices 1 2 3 4 5 6 
#
# 1 70.9892 37.0605 16.4496 0.0000 0.0000 0.0000
# 2 37.0605 93.7858 39.1232 0.0000 0.0000 0.0000
# 3 16.4496 39.1232 37.4157 0.0000 0.0000 0.0000
# 4 0.0000 0.0000 0.0000 24.8653 0.0000 0.0000
# 5 0.0000 0.0000 0.0000 0.0000 11.9839 0.0000
# 6 0.0000 0.0000 0.0000 0.0000 0.0000 24.2695
#
#
#
# Elastic Compliance Matrix: (Units=1/GPa)
#
#
# Indices 1 2 3 4 5 6 
#
# 1 0.017763 -0.006672 -0.000833 0.000000 0.000000 0.000000
# 2 -0.006672 0.021418 -0.019462 0.000000 0.000000 0.000000
# 3 -0.000833 -0.019462 0.047443 0.000000 0.000000 0.000000
# 4 0.000000 0.000000 0.000000 0.040217 0.000000 0.000000
# 5 0.000000 0.000000 0.000000 0.000000 0.083445 0.000000
# 6 0.000000 0.000000 0.000000 0.000000 0.000000 0.041204
#
#
# Mechanical properties :
#
#
# Convention : Reuss Voigt Hill
#
# Bulk Modulus (GPa) = 30.59036 43.05081 36.82058
# Shear Modulus (GPa) = 15.80682 19.52757 17.66719
#
# Velocity S-wave (km/s) = 3.51506 3.90692 3.71616
# Velocity P-wave (km/s) = 6.35497 7.34871 6.86983
#
# Compressibility (1/GPa) = 0.03269004
#
# Stress axis : x y z
#
# Youngs Moduli (GPa) = 56.29792 46.69077 21.07787
#
# Poissons Ratio (x) = 0.31150 0.01756
# Poissons Ratio (y) = 0.37559 0.41021
# Poissons Ratio (z) = 0.04691 0.90869
#
# Static dielectric constant tensor:
#      x y z
#    x 2.695220 0.000000 0.000000 
#    y 0.000000 2.608700 0.000000 
#    z 0.000000 0.000000 2.360320 
# 
# 
# High freq. dielectric constant tensor:
#      x y z
#    x 1.504420 0.000000 0.000000 
#    y 0.000000 1.475900 0.000000 
#    z 0.000000 0.000000 1.429140 
# 
# From -- ./inp_files/68589.got.cif
#   From: 2010.06.25/outbox.cif.g09.slc.cpg/sg71_35_cif.got.tgz:68589.got - 2010.06.28 04:59:45.
