data_PCOD8288089
_publ_section_title
;
Structure prediction by ZEFSAII (Michael W. Deem and Ramdas Pophale) SiO2 
 PCOD8288089
Probable space group: I M M M
;
_chemical_formula_sum "Si O2"
_cell_formula_units_Z 96
_cell_length_a 32.074345
_cell_length_b 26.786365
_cell_length_c 9.267320
_cell_angle_alpha 90.000000
_cell_angle_beta 90.000000
_cell_angle_gamma 90.000000
_cell_volume 7962.065355
_symmetry_space_group_name_H-M "I M M M"
_symmetry_group_IT_number 71
_symmetry_cell_setting 'orthorhombic'
loop_
_space_group_symop_operation_xyz
x,y,z
-x,-y,z
x,-y,-z
-x,y,-z
-x,-y,-z
x,y,-z
-x,y,z
x,-y,z
1/2+x,1/2+y,1/2+z
1/2-x,1/2-y,1/2+z
1/2+x,1/2-y,1/2-z
1/2-x,1/2+y,1/2-z
1/2-x,1/2-y,1/2-z
1/2+x,1/2+y,1/2-z
1/2-x,1/2+y,1/2+z
1/2+x,1/2-y,1/2+z
loop_
_atom_site_type_symbol
_atom_site_label
_atom_site_fract_x
_atom_site_fract_y
_atom_site_fract_z
Si Si1 0.164726 0.797851 0.159632
Si Si2 0.879650 0.894012 0.170662
Si Si3 0.755348 0.131149 0.159174
Si Si4 0.211715 0.274479 0.668466
Si Si5 0.803883 0.942004 0.334313
Si Si6 0.048009 0.057652 0.665557
O O1 0.127581 0.835311 0.207486
O O2 0.205950 0.831308 0.159744
O O3 0.169411 0.750326 0.267034
O O4 0.156260 0.776314 0.000000
O O5 0.845204 0.928857 0.245549
O O6 0.925009 0.908026 0.229138
O O7 0.876800 0.903364 0.000000
O O8 0.714337 0.165278 0.194152
O O9 0.763215 0.087554 0.274912
O O10 0.750804 0.106921 0.000000
O O11 0.214593 0.261633 0.500000
O O12 0.250000 0.250000 0.750000
O O13 0.811169 0.926893 0.500000
O O14 0.793979 0.000000 0.317492
O O15 0.060355 0.068189 0.500000
O O16 0.000000 0.071251 0.692737
O O17 0.056418 0.000000 0.702764
#
# Coordination Sequence:
#
# PCOD8288089 Si02
#       6
#    16  16  16  16  16  16
#     4   8  15  25  34  47  65  81  98 121 150 185
#     4  10  19  28  38  52  67  82 102 128 159 196
#     4   8  15  25  34  46  63  81 102 127 154 185
#     4   9  15  22  33  48  63  79 100 123 148 182
#     4  10  19  27  35  48  64  83 108 134 160 192
#     4   9  18  31  43  53  65  81 102 129 161 197
#
# _framework density 12.057173000000001
#
# number of rings (size 3 to 8) (size 9 to 14) (size 15 to 20)
#    0.000    3.000    0.000    4.500    0.000   11.333 
#    0.000    0.833    0.000    0.000    0.000    0.000 
#    0.000    0.000    0.000    0.000    0.000    0.000 
#
# Total GULP energy -594757.069629 kJ/mol
# GULP energy per Si atom -12390.772284 kJ/mol
# Density = 1.202973 g / cm^3
# Si number density = 12.057173 Si / 1000 Ang^3
#
#
#
# Elastic Constant Matrix: (Units=GPa)
#
#
# Indices 1 2 3 4 5 6 
#
# 1 40.7529 37.7020 34.9054 0.0000 0.0000 0.0000
# 2 37.7020 56.4591 46.9074 0.0000 0.0000 0.0000
# 3 34.9054 46.9074 86.2943 0.0000 0.0000 0.0000
# 4 0.0000 0.0000 0.0000 20.8685 0.0000 0.0000
# 5 0.0000 0.0000 0.0000 0.0000 16.7815 0.0000
# 6 0.0000 0.0000 0.0000 0.0000 0.0000 20.6976
#
#
#
# Elastic Compliance Matrix: (Units=1/GPa)
#
#
# Indices 1 2 3 4 5 6 
#
# 1 0.065337 -0.039522 -0.004945 0.000000 0.000000 0.000000
# 2 -0.039522 0.056205 -0.014565 0.000000 0.000000 0.000000
# 3 -0.004945 -0.014565 0.021506 0.000000 0.000000 0.000000
# 4 0.000000 0.000000 0.000000 0.047919 0.000000 0.000000
# 5 0.000000 0.000000 0.000000 0.000000 0.059589 0.000000
# 6 0.000000 0.000000 0.000000 0.000000 0.000000 0.048315
#
#
# Mechanical properties :
#
#
# Convention : Reuss Voigt Hill
#
# Bulk Modulus (GPa) = 40.02721 46.94843 43.48782
# Shear Modulus (GPa) = 11.75742 15.93561 13.84652
#
# Velocity S-wave (km/s) = 3.12611 3.63942 3.39249
# Velocity P-wave (km/s) = 6.80441 7.52883 7.17577
#
# Compressibility (1/GPa) = 0.02498301
#
# Stress axis : x y z
#
# Youngs Moduli (GPa) = 15.30527 17.79208 46.49901
#
# Poissons Ratio (x) = 0.70318 0.22995
# Poissons Ratio (y) = 0.60489 0.67727
# Poissons Ratio (z) = 0.07569 0.25915
#
# Static dielectric constant tensor:
#      x y z
#    x 2.387170 0.000000 0.000000 
#    y 0.000000 2.759660 0.000000 
#    z 0.000000 0.000000 2.709290 
# 
# 
# High freq. dielectric constant tensor:
#      x y z
#    x 1.406450 0.000000 0.000000 
#    y 0.000000 1.439700 0.000000 
#    z 0.000000 0.000000 1.472720 
# 
# From -- ./inp_files/15442.got.cif
#   From: 2010.06.25/outbox.cif.g09.slc.cpg/sg71_8_cif.got.tgz:15442.got - 2010.06.28 04:59:45.
