data_PCOD8288281
_publ_section_title
;
Structure prediction by ZEFSAII (Michael W. Deem and Ramdas Pophale) SiO2 
 PCOD8288281
Probable space group: I M M M
;
_chemical_formula_sum "Si O2"
_cell_formula_units_Z 88
_cell_length_a 8.645352
_cell_length_b 23.952188
_cell_length_c 29.758828
_cell_angle_alpha 90.000000
_cell_angle_beta 90.000000
_cell_angle_gamma 90.000000
_cell_volume 6162.312178
_symmetry_space_group_name_H-M "I M M M"
_symmetry_group_IT_number 71
_symmetry_cell_setting 'orthorhombic'
loop_
_space_group_symop_operation_xyz
x,y,z
-x,-y,z
x,-y,-z
-x,y,-z
-x,-y,-z
x,y,-z
-x,y,z
x,-y,z
1/2+x,1/2+y,1/2+z
1/2-x,1/2-y,1/2+z
1/2+x,1/2-y,1/2-z
1/2-x,1/2+y,1/2-z
1/2-x,1/2-y,1/2-z
1/2+x,1/2+y,1/2-z
1/2-x,1/2+y,1/2+z
1/2+x,1/2-y,1/2+z
loop_
_atom_site_type_symbol
_atom_site_label
_atom_site_fract_x
_atom_site_fract_y
_atom_site_fract_z
Si Si1 0.681350 0.902121 0.592475
Si Si2 0.316294 0.434136 0.000000
Si Si3 0.320857 0.218208 0.791427
Si Si4 0.820390 0.825960 0.339648
Si Si5 0.318586 0.383560 0.254150
Si Si6 0.178999 0.000000 0.352631
Si Si7 0.320393 0.000000 0.742604
O O1 0.500000 0.916582 0.594599
O O2 0.739394 0.902025 0.541577
O O3 0.716696 0.843669 0.617547
O O4 0.786901 0.946450 0.617917
O O5 0.273135 0.500000 0.000000
O O6 0.500000 0.426005 0.000000
O O7 0.500000 0.208256 0.782633
O O8 0.250000 0.250000 0.750000
O O9 0.293872 0.259037 0.834102
O O10 0.239702 0.157658 0.794122
O O11 0.767182 0.860313 0.294976
O O12 0.000000 0.838672 0.349087
O O13 0.500000 0.387336 0.256791
O O14 0.250798 0.444442 0.264359
O O15 0.289591 0.000000 0.310202
O O16 0.000000 0.000000 0.337231
O O17 0.500000 0.000000 0.752481
#
# Coordination Sequence:
#
# PCOD8288281 Si02
#       7
#    16   8  16  16  16   8   8
#     4  12  23  33  48  66  82 103 139 180 216 258
#     4  11  23  37  51  61  80 112 138 171 222 269
#     4   9  17  29  44  61  82 106 137 172 208 248
#     4   9  18  31  46  61  82 109 136 170 213 256
#     4  10  19  30  44  61  85 111 137 171 213 255
#     4  12  22  33  45  58  82 110 139 172 217 263
#     4  12  22  30  43  63  84 110 144 179 214 252
#
# _framework density 14.280355
#
# number of rings (size 3 to 8) (size 9 to 14) (size 15 to 20)
#    0.000    1.545    2.727    5.727    0.000    4.000 
#    0.000    0.000    0.000    0.000    0.000    0.000 
#    0.000    0.000    0.000    0.000    0.000    0.909 
#
# Total GULP energy -545437.857850 kJ/mol
# GULP energy per Si atom -12396.314951 kJ/mol
# Density = 1.424785 g / cm^3
# Si number density = 14.280355 Si / 1000 Ang^3
#
#
#
# Elastic Constant Matrix: (Units=GPa)
#
#
# Indices 1 2 3 4 5 6 
#
# 1 81.1775 42.1770 25.8899 0.0000 0.0000 0.0000
# 2 42.1770 112.2793 38.6192 0.0000 0.0000 0.0000
# 3 25.8899 38.6192 46.8660 0.0000 0.0000 0.0000
# 4 0.0000 0.0000 0.0000 25.3818 0.0000 0.0000
# 5 0.0000 0.0000 0.0000 0.0000 18.3880 0.0000
# 6 0.0000 0.0000 0.0000 0.0000 0.0000 25.0142
#
#
#
# Elastic Compliance Matrix: (Units=1/GPa)
#
#
# Indices 1 2 3 4 5 6 
#
# 1 0.016267 -0.004214 -0.005514 0.000000 0.000000 0.000000
# 2 -0.004214 0.013521 -0.008814 0.000000 0.000000 0.000000
# 3 -0.005514 -0.008814 0.031646 0.000000 0.000000 0.000000
# 4 0.000000 0.000000 0.000000 0.039398 0.000000 0.000000
# 5 0.000000 0.000000 0.000000 0.000000 0.054383 0.000000
# 6 0.000000 0.000000 0.000000 0.000000 0.000000 0.039977
#
#
# Mechanical properties :
#
#
# Convention : Reuss Voigt Hill
#
# Bulk Modulus (GPa) = 41.06625 50.41056 45.73840
# Shear Modulus (GPa) = 20.79935 22.66590 21.73263
#
# Velocity S-wave (km/s) = 3.82055 3.98830 3.90533
# Velocity P-wave (km/s) = 6.94851 7.52237 7.24112
#
# Compressibility (1/GPa) = 0.02435090
#
# Stress axis : x y z
#
# Youngs Moduli (GPa) = 61.47579 73.95967 31.59950
#
# Poissons Ratio (x) = 0.31167 0.17423
# Poissons Ratio (y) = 0.25906 0.27851
# Poissons Ratio (z) = 0.33895 0.65186
#
# Static dielectric constant tensor:
#      x y z
#    x 2.918540 0.000000 0.000000 
#    y 0.000000 3.139600 0.000000 
#    z 0.000000 0.000000 2.635280 
# 
# 
# High freq. dielectric constant tensor:
#      x y z
#    x 1.564470 0.000000 0.000000 
#    y 0.000000 1.539530 0.000000 
#    z 0.000000 0.000000 1.491820 
# 
# From -- ./inp_files/62256.got.cif
#   From: 2010.06.25/outbox.cif.g09.slc.cpg/sg71_32_cif.got.tgz:62256.got - 2010.06.28 04:59:45.
