data_PCOD8288817
_publ_section_title
;
Structure prediction by ZEFSAII (Michael W. Deem and Ramdas Pophale) SiO2 
 PCOD8288817
Probable space group: I M M M
;
_chemical_formula_sum "Si O2"
_cell_formula_units_Z 104
_cell_length_a 18.585304
_cell_length_b 10.230658
_cell_length_c 30.413155
_cell_angle_alpha 90.000000
_cell_angle_beta 90.000000
_cell_angle_gamma 90.000000
_cell_volume 5782.753917
_symmetry_space_group_name_H-M "I M M M"
_symmetry_group_IT_number 71
_symmetry_cell_setting 'orthorhombic'
loop_
_space_group_symop_operation_xyz
x,y,z
-x,-y,z
x,-y,-z
-x,y,-z
-x,-y,-z
x,y,-z
-x,y,z
x,-y,z
1/2+x,1/2+y,1/2+z
1/2-x,1/2-y,1/2+z
1/2+x,1/2-y,1/2-z
1/2-x,1/2+y,1/2-z
1/2-x,1/2-y,1/2-z
1/2+x,1/2+y,1/2-z
1/2-x,1/2+y,1/2+z
1/2+x,1/2-y,1/2+z
loop_
_atom_site_type_symbol
_atom_site_label
_atom_site_fract_x
_atom_site_fract_y
_atom_site_fract_z
Si Si1 0.167988 0.151696 0.710983
Si Si2 0.664546 0.849316 0.287894
Si Si3 0.684775 0.151800 0.450434
Si Si4 0.342849 0.261694 0.050449
Si Si5 0.080613 0.500000 0.448199
Si Si6 0.419641 0.845423 0.625040
Si Si7 0.578217 0.353496 0.870256
O O1 0.251995 0.165157 0.700358
O O2 0.143165 0.247886 0.749882
O O3 0.127416 0.208280 0.668014
O O4 0.149883 0.000000 0.722753
O O5 0.619318 0.804245 0.330158
O O6 0.646731 0.000000 0.274441
O O7 0.655251 0.169877 0.500000
O O8 0.757212 0.234844 0.443671
O O9 0.625154 0.207148 0.416930
O O10 0.703232 0.000000 0.441164
O O11 0.373041 0.123222 0.067182
O O12 0.381771 0.362004 0.082812
O O13 0.364125 0.293835 0.000000
O O14 0.073294 0.500000 0.500000
O O15 0.000000 0.500000 0.427470
O O16 0.500000 0.784871 0.623865
O O17 0.424141 0.000000 0.621538
O O18 0.500000 0.282219 0.873724
O O19 0.564788 0.500000 0.855117
#
# Coordination Sequence:
#
# PCOD8288817 Si02
#       7
#    16  16  16  16   8  16  16
#     4   9  18  33  51  70  97 131 162 202 254 301
#     4   9  17  31  52  74  95 124 166 209 248 295
#     4   9  17  29  48  75 103 130 163 203 247 297
#     4  10  19  32  50  70  94 128 167 205 243 287
#     4   9  18  32  48  66  91 125 165 207 248 288
#     4   9  17  29  48  74 103 134 164 201 251 302
#     4  10  20  32  47  69  97 128 159 192 238 294
#
# _framework density 17.984511999999999
#
# number of rings (size 3 to 8) (size 9 to 14) (size 15 to 20)
#    0.000    2.692    0.000    1.846    0.000    5.231 
#    1.385    2.308    5.077    0.000    0.000    0.000 
#    0.000    3.077    0.000    0.000    0.000    0.000 
#
# Total GULP energy -644498.414430 kJ/mol
# GULP energy per Si atom -12394.200277 kJ/mol
# Density = 1.794358 g / cm^3
# Si number density = 17.984512 Si / 1000 Ang^3
#
#
#
# Elastic Constant Matrix: (Units=GPa)
#
#
# Indices 1 2 3 4 5 6 
#
# 1 122.7545 33.5022 85.5768 0.0000 0.0000 0.0000
# 2 33.5022 51.2530 37.8416 0.0000 0.0000 0.0000
# 3 85.5768 37.8416 142.7843 0.0000 0.0000 0.0000
# 4 0.0000 0.0000 0.0000 21.1263 0.0000 0.0000
# 5 0.0000 0.0000 0.0000 0.0000 24.7391 0.0000
# 6 0.0000 0.0000 0.0000 0.0000 0.0000 16.4675
#
#
#
# Elastic Compliance Matrix: (Units=1/GPa)
#
#
# Indices 1 2 3 4 5 6 
#
# 1 0.014572 -0.003825 -0.007720 0.000000 0.000000 0.000000
# 2 -0.003825 0.025262 -0.004402 0.000000 0.000000 0.000000
# 3 -0.007720 -0.004402 0.012797 0.000000 0.000000 0.000000
# 4 0.000000 0.000000 0.000000 0.047334 0.000000 0.000000
# 5 0.000000 0.000000 0.000000 0.000000 0.040422 0.000000
# 6 0.000000 0.000000 0.000000 0.000000 0.000000 0.060726
#
#
# Mechanical properties :
#
#
# Convention : Reuss Voigt Hill
#
# Bulk Modulus (GPa) = 48.22534 70.07032 59.14783
# Shear Modulus (GPa) = 20.84021 23.12466 21.98243
#
# Velocity S-wave (km/s) = 3.40779 3.58971 3.49993
# Velocity P-wave (km/s) = 6.50824 7.49849 7.02085
#
# Compressibility (1/GPa) = 0.02073599
#
# Stress axis : x y z
#
# Youngs Moduli (GPa) = 68.62364 39.58513 78.14218
#
# Poissons Ratio (x) = 0.15143 0.60325
# Poissons Ratio (y) = 0.26252 0.34401
# Poissons Ratio (z) = 0.52977 0.17427
#
# Static dielectric constant tensor:
#      x y z
#    x 3.539080 0.000000 0.000000 
#    y 0.000000 3.124560 0.000000 
#    z 0.000000 0.000000 3.307420 
# 
# 
# High freq. dielectric constant tensor:
#      x y z
#    x 1.700140 0.000000 0.000000 
#    y 0.000000 1.657970 0.000000 
#    z 0.000000 0.000000 1.697280 
# 
# From -- ./inp_files/24808.got.cif
#   From: 2010.06.25/outbox.cif.g09.slc.cpg/sg71_13_cif.got.tgz:24808.got - 2010.06.28 04:59:45.
