data_PCOD8288381
_publ_section_title
;
Structure prediction by ZEFSAII (Michael W. Deem and Ramdas Pophale) SiO2 
 PCOD8288381
Probable space group: I M M M
;
_chemical_formula_sum "Si O2"
_cell_formula_units_Z 104
_cell_length_a 20.668955
_cell_length_b 8.816715
_cell_length_c 32.381407
_cell_angle_alpha 90.000000
_cell_angle_beta 90.000000
_cell_angle_gamma 90.000000
_cell_volume 5900.937808
_symmetry_space_group_name_H-M "I M M M"
_symmetry_group_IT_number 71
_symmetry_cell_setting 'orthorhombic'
loop_
_space_group_symop_operation_xyz
x,y,z
-x,-y,z
x,-y,-z
-x,y,-z
-x,-y,-z
x,y,-z
-x,y,z
x,-y,z
1/2+x,1/2+y,1/2+z
1/2-x,1/2-y,1/2+z
1/2+x,1/2-y,1/2-z
1/2-x,1/2+y,1/2-z
1/2-x,1/2-y,1/2-z
1/2+x,1/2+y,1/2-z
1/2-x,1/2+y,1/2+z
1/2+x,1/2-y,1/2+z
loop_
_atom_site_type_symbol
_atom_site_label
_atom_site_fract_x
_atom_site_fract_y
_atom_site_fract_z
Si Si1 0.168419 0.327235 0.064450
Si Si2 0.678379 0.679676 0.130873
Si Si3 0.568910 0.179187 0.500000
Si Si4 0.926980 0.320105 0.216820
Si Si5 0.817659 0.328391 0.156664
Si Si6 0.300188 0.177681 0.953693
Si Si7 0.426420 0.324889 0.196887
O O1 0.188061 0.500000 0.052345
O O2 0.149306 0.318465 0.112141
O O3 0.225173 0.216377 0.050898
O O4 0.105702 0.268508 0.040888
O O5 0.685903 0.500000 0.126252
O O6 0.745271 0.744754 0.151773
O O7 0.663372 0.741762 0.084718
O O8 0.619026 0.729328 0.159543
O O9 0.500000 0.261799 0.500000
O O10 0.560563 0.000000 0.500000
O O11 0.927208 0.500000 0.212680
O O12 0.869476 0.249472 0.187923
O O13 0.909333 0.273857 0.263257
O O14 0.000000 0.259392 0.205553
O O15 0.808105 0.500000 0.172033
O O16 0.310793 0.000000 0.948802
O O17 0.324138 0.228893 0.000000
O O18 0.500000 0.298026 0.182522
O O19 0.413652 0.500000 0.207890
#
# Coordination Sequence:
#
# PCOD8288381 Si02
#       7
#    16  16   8  16  16  16  16
#     4   9  16  28  45  63  89 124 159 197 238 277
#     4   9  18  32  50  71  93 120 154 190 233 278
#     4   9  16  24  39  65  89 115 160 207 238 269
#     4   9  17  29  45  65  91 126 161 189 227 277
#     4   8  15  27  43  65  91 118 153 195 230 266
#     4  10  19  30  47  70  95 120 149 188 230 277
#     4   9  18  33  51  70  93 120 151 189 231 278
#
# _framework density 17.624317000000001
#
# number of rings (size 3 to 8) (size 9 to 14) (size 15 to 20)
#    0.000    3.000    0.769    1.385    0.000    2.769 
#    0.000    6.154    0.000    1.385    0.000    3.231 
#    0.000    0.000    0.000    0.000    0.000    0.000 
#
# Total GULP energy -644181.522640 kJ/mol
# GULP energy per Si atom -12388.106205 kJ/mol
# Density = 1.758420 g / cm^3
# Si number density = 17.624317 Si / 1000 Ang^3
#
#
#
# Elastic Constant Matrix: (Units=GPa)
#
#
# Indices 1 2 3 4 5 6 
#
# 1 96.6259 12.6051 73.8599 0.0000 0.0000 0.0000
# 2 12.6051 20.3501 21.4147 0.0000 0.0000 0.0000
# 3 73.8599 21.4147 130.8122 0.0000 0.0000 0.0000
# 4 0.0000 0.0000 0.0000 24.0582 0.0000 0.0000
# 5 0.0000 0.0000 0.0000 0.0000 41.4304 0.0000
# 6 0.0000 0.0000 0.0000 0.0000 0.0000 12.0502
#
#
#
# Elastic Compliance Matrix: (Units=1/GPa)
#
#
# Indices 1 2 3 4 5 6 
#
# 1 0.018213 -0.000556 -0.010192 0.000000 0.000000 0.000000
# 2 -0.000556 0.059384 -0.009408 0.000000 0.000000 0.000000
# 3 -0.010192 -0.009408 0.014940 0.000000 0.000000 0.000000
# 4 0.000000 0.000000 0.000000 0.041566 0.000000 0.000000
# 5 0.000000 0.000000 0.000000 0.000000 0.024137 0.000000
# 6 0.000000 0.000000 0.000000 0.000000 0.000000 0.082986
#
#
# Mechanical properties :
#
#
# Convention : Reuss Voigt Hill
#
# Bulk Modulus (GPa) = 19.14808 51.50527 35.32667
# Shear Modulus (GPa) = 16.72552 24.83501 20.78026
#
# Velocity S-wave (km/s) = 3.08393 3.75791 3.43748
# Velocity P-wave (km/s) = 4.85479 6.93662 5.98689
#
# Compressibility (1/GPa) = 0.05222457
#
# Stress axis : x y z
#
# Youngs Moduli (GPa) = 54.90708 16.83961 66.93659
#
# Poissons Ratio (x) = 0.00936 0.68224
# Poissons Ratio (y) = 0.03050 0.62972
# Poissons Ratio (z) = 0.55963 0.15842
#
# Static dielectric constant tensor:
#      x y z
#    x 3.393840 0.000000 0.000000 
#    y 0.000000 2.951410 0.000000 
#    z 0.000000 0.000000 3.466600 
# 
# 
# High freq. dielectric constant tensor:
#      x y z
#    x 1.666960 0.000000 0.000000 
#    y 0.000000 1.645530 0.000000 
#    z 0.000000 0.000000 1.688160 
# 
# From -- ./inp_files/66783.got.cif
#   From: 2010.06.25/outbox.cif.g09.slc.cpg/sg71_34_cif.got.tgz:66783.got - 2010.06.28 04:59:45.
