data_PCOD8288161
_publ_section_title
;
Structure prediction by ZEFSAII (Michael W. Deem and Ramdas Pophale) SiO2 
 PCOD8288161
Probable space group: I M M M
;
_chemical_formula_sum "Si O2"
_cell_formula_units_Z 80
_cell_length_a 24.532939
_cell_length_b 18.487163
_cell_length_c 9.303218
_cell_angle_alpha 90.000000
_cell_angle_beta 90.000000
_cell_angle_gamma 90.000000
_cell_volume 4219.422818
_symmetry_space_group_name_H-M "I M M M"
_symmetry_group_IT_number 71
_symmetry_cell_setting 'orthorhombic'
loop_
_space_group_symop_operation_xyz
x,y,z
-x,-y,z
x,-y,-z
-x,y,-z
-x,-y,-z
x,y,-z
-x,y,z
x,-y,z
1/2+x,1/2+y,1/2+z
1/2-x,1/2-y,1/2+z
1/2+x,1/2-y,1/2-z
1/2-x,1/2+y,1/2-z
1/2-x,1/2-y,1/2-z
1/2+x,1/2+y,1/2-z
1/2-x,1/2+y,1/2+z
1/2+x,1/2-y,1/2+z
loop_
_atom_site_type_symbol
_atom_site_label
_atom_site_fract_x
_atom_site_fract_y
_atom_site_fract_z
Si Si1 0.561045 0.580414 0.329712
Si Si2 0.142531 0.364176 0.162282
Si Si3 0.638560 0.000000 0.839214
Si Si4 0.770144 0.138888 0.667029
Si Si5 0.640193 0.294168 0.331867
Si Si6 0.268433 0.500000 0.336818
O O1 0.559209 0.586326 0.500000
O O2 0.500000 0.591530 0.268123
O O3 0.582620 0.500000 0.284871
O O4 0.599121 0.644863 0.270296
O O5 0.117330 0.426834 0.262428
O O6 0.206295 0.350610 0.190619
O O7 0.114185 0.286194 0.190785
O O8 0.133012 0.390857 0.000000
O O9 0.703367 0.000000 0.834779
O O10 0.615335 0.000000 0.000000
O O11 0.784905 0.131649 0.500000
O O12 0.803913 0.203929 0.739755
O O13 0.791390 0.068731 0.752974
O O14 0.654364 0.305371 0.500000
O O15 0.291060 0.500000 0.500000
#
# Coordination Sequence:
#
# PCOD8288161 Si02
#       6
#    16  16   8  16  16   8
#     4   8  15  29  48  70  95 121 154 199 242 275
#     4   9  18  31  44  63  94 128 158 191 231 276
#     4   9  17  29  47  65  84 117 158 192 226 270
#     4  10  19  29  41  61  93 128 156 191 234 274
#     4  10  19  29  46  70  92 121 160 194 232 282
#     4   9  17  29  43  59  82 117 160 197 224 267
#
# _framework density 18.959938000000001
#
# number of rings (size 3 to 8) (size 9 to 14) (size 15 to 20)
#    0.000    2.800    0.000    2.400    1.400    4.000 
#    0.000    0.000    0.000    0.600    0.000    2.100 
#    0.000    5.600    0.000    0.000    0.000    0.000 
#
# Total GULP energy -495757.467895 kJ/mol
# GULP energy per Si atom -12393.936697 kJ/mol
# Density = 1.891678 g / cm^3
# Si number density = 18.959938 Si / 1000 Ang^3
#
#
#
# Elastic Constant Matrix: (Units=GPa)
#
#
# Indices 1 2 3 4 5 6 
#
# 1 26.8181 27.4784 13.8860 0.0000 0.0000 0.0000
# 2 27.4784 149.3287 54.9195 0.0000 0.0000 0.0000
# 3 13.8860 54.9195 84.2794 0.0000 0.0000 0.0000
# 4 0.0000 0.0000 0.0000 26.8719 0.0000 0.0000
# 5 0.0000 0.0000 0.0000 0.0000 8.2029 0.0000
# 6 0.0000 0.0000 0.0000 0.0000 0.0000 20.4500
#
#
#
# Elastic Compliance Matrix: (Units=1/GPa)
#
#
# Indices 1 2 3 4 5 6 
#
# 1 0.046428 -0.007536 -0.002739 0.000000 0.000000 0.000000
# 2 -0.007536 0.010031 -0.005295 0.000000 0.000000 0.000000
# 3 -0.002739 -0.005295 0.015767 0.000000 0.000000 0.000000
# 4 0.000000 0.000000 0.000000 0.037214 0.000000 0.000000
# 5 0.000000 0.000000 0.000000 0.000000 0.121908 0.000000
# 6 0.000000 0.000000 0.000000 0.000000 0.000000 0.048900
#
#
# Mechanical properties :
#
#
# Convention : Reuss Voigt Hill
#
# Bulk Modulus (GPa) = 24.33898 50.33266 37.33582
# Shear Modulus (GPa) = 15.38077 22.04777 18.71427
#
# Velocity S-wave (km/s) = 2.85129 3.41377 3.14513
# Velocity P-wave (km/s) = 4.86875 6.49176 5.73793
#
# Compressibility (1/GPa) = 0.04108636
#
# Stress axis : x y z
#
# Youngs Moduli (GPa) = 21.53869 99.69469 63.42474
#
# Poissons Ratio (x) = 0.75131 0.17371
# Poissons Ratio (y) = 0.16232 0.33581
# Poissons Ratio (z) = 0.05899 0.52785
#
# Static dielectric constant tensor:
#      x y z
#    x 3.085560 0.000000 0.000000 
#    y 0.000000 3.808600 0.000000 
#    z 0.000000 0.000000 3.306090 
# 
# 
# High freq. dielectric constant tensor:
#      x y z
#    x 1.677920 0.000000 0.000000 
#    y 0.000000 1.755600 0.000000 
#    z 0.000000 0.000000 1.713750 
# 
# From -- ./inp_files/8447.got.cif
#   From: 2010.06.25/outbox.cif.g09.slc.cpg/sg71_5_cif.got.tgz:8447.got - 2010.06.28 04:59:45.
