data_PCOD8288179
_publ_section_title
;
Structure prediction by ZEFSAII (Michael W. Deem and Ramdas Pophale) SiO2 
 PCOD8288179
Probable space group: I M M M
;
_chemical_formula_sum "Si O2"
_cell_formula_units_Z 112
_cell_length_a 9.742785
_cell_length_b 24.016858
_cell_length_c 26.290112
_cell_angle_alpha 90.000000
_cell_angle_beta 90.000000
_cell_angle_gamma 90.000000
_cell_volume 6151.651802
_symmetry_space_group_name_H-M "I M M M"
_symmetry_group_IT_number 71
_symmetry_cell_setting 'orthorhombic'
loop_
_space_group_symop_operation_xyz
x,y,z
-x,-y,z
x,-y,-z
-x,y,-z
-x,-y,-z
x,y,-z
-x,y,z
x,-y,z
1/2+x,1/2+y,1/2+z
1/2-x,1/2-y,1/2+z
1/2+x,1/2-y,1/2-z
1/2-x,1/2+y,1/2-z
1/2-x,1/2-y,1/2-z
1/2+x,1/2+y,1/2-z
1/2-x,1/2+y,1/2+z
1/2+x,1/2-y,1/2+z
loop_
_atom_site_type_symbol
_atom_site_label
_atom_site_fract_x
_atom_site_fract_y
_atom_site_fract_z
Si Si1 0.155781 0.440127 0.618471
Si Si2 0.657360 0.250216 0.199474
Si Si3 0.836467 0.258982 0.500000
Si Si4 0.835704 0.319471 0.601687
Si Si5 0.653911 0.938297 0.238464
Si Si6 0.163577 0.937706 0.592963
Si Si7 0.663883 0.366336 0.000000
Si Si8 0.844708 0.876615 0.692032
O O1 0.225779 0.500000 0.601895
O O2 0.223660 0.383058 0.597287
O O3 0.159727 0.435043 0.678511
O O4 0.000000 0.442329 0.598993
O O5 0.500000 0.234341 0.214048
O O6 0.750000 0.250000 0.250000
O O7 0.714294 0.210060 0.154329
O O8 0.662746 0.312216 0.176641
O O9 0.780607 0.288315 0.551357
O O10 0.779153 0.196306 0.500000
O O11 0.000000 0.260189 0.500000
O O12 0.000000 0.319660 0.602996
O O13 0.500000 0.925864 0.257479
O O14 0.753037 0.890334 0.259100
O O15 0.700268 0.000000 0.256759
O O16 0.222533 0.898690 0.548715
O O17 0.215751 0.912860 0.645970
O O18 0.000000 0.937513 0.591164
O O19 0.221228 0.000000 0.586073
O O20 0.500000 0.365722 0.000000
O O21 0.000000 0.894108 0.705007
#
# Coordination Sequence:
#
# PCOD8288179 Si02
#       8
#    16  16   8  16  16  16   8  16
#     4   8  14  25  41  59  79 107 144 183 220 262
#     4  10  20  32  47  68  94 125 158 193 235 281
#     4   9  16  25  39  59  84 117 151 184 226 273
#     4   9  16  27  42  61  87 116 148 187 230 275
#     4   9  17  29  45  64  87 120 158 186 215 266
#     4   9  16  25  38  57  82 111 140 175 222 268
#     4   9  15  24  37  53  77 109 145 177 208 261
#     4  10  19  29  42  64  92 117 145 186 233 272
#
# _framework density 18.206492000000001
#
# number of rings (size 3 to 8) (size 9 to 14) (size 15 to 20)
#    0.000    2.857    0.000    3.214    0.000    6.857 
#    0.000    0.357    0.000    2.143    0.000    1.000 
#    0.000    5.714    0.000    0.000    0.000   23.857 
#
# Total GULP energy -693890.578697 kJ/mol
# GULP energy per Si atom -12390.903191 kJ/mol
# Density = 1.816505 g / cm^3
# Si number density = 18.206492 Si / 1000 Ang^3
#
#
#
# Elastic Constant Matrix: (Units=GPa)
#
#
# Indices 1 2 3 4 5 6 
#
# 1 25.2732 16.7584 18.0699 0.0000 0.0000 0.0000
# 2 16.7584 157.3960 55.6986 0.0000 0.0000 0.0000
# 3 18.0699 55.6986 93.5613 0.0000 0.0000 0.0000
# 4 0.0000 0.0000 0.0000 30.6465 0.0000 0.0000
# 5 0.0000 0.0000 0.0000 0.0000 13.4742 0.0000
# 6 0.0000 0.0000 0.0000 0.0000 0.0000 14.5258
#
#
#
# Elastic Compliance Matrix: (Units=1/GPa)
#
#
# Indices 1 2 3 4 5 6 
#
# 1 0.046526 -0.002247 -0.007648 0.000000 0.000000 0.000000
# 2 -0.002247 0.008158 -0.004422 0.000000 0.000000 0.000000
# 3 -0.007648 -0.004422 0.014798 0.000000 0.000000 0.000000
# 4 0.000000 0.000000 0.000000 0.032630 0.000000 0.000000
# 5 0.000000 0.000000 0.000000 0.000000 0.074216 0.000000
# 6 0.000000 0.000000 0.000000 0.000000 0.000000 0.068843
#
#
# Mechanical properties :
#
#
# Convention : Reuss Voigt Hill
#
# Bulk Modulus (GPa) = 24.48194 50.80935 37.64565
# Shear Modulus (GPa) = 17.39607 24.10954 20.75281
#
# Velocity S-wave (km/s) = 3.09445 3.64294 3.37984
# Velocity P-wave (km/s) = 5.12284 6.75741 5.99608
#
# Compressibility (1/GPa) = 0.04084643
#
# Stress axis : x y z
#
# Youngs Moduli (GPa) = 21.49336 122.58438 67.57693
#
# Poissons Ratio (x) = 0.27549 0.51682
# Poissons Ratio (y) = 0.04830 0.29885
# Poissons Ratio (z) = 0.16438 0.54211
#
# Static dielectric constant tensor:
#      x y z
#    x 2.734030 0.000000 0.000000 
#    y 0.000000 3.888100 0.000000 
#    z 0.000000 0.000000 3.283820 
# 
# 
# High freq. dielectric constant tensor:
#      x y z
#    x 1.623140 0.000000 0.000000 
#    y 0.000000 1.733770 0.000000 
#    z 0.000000 0.000000 1.697300 
# 
# From -- ./inp_files/59175.got.cif
#   From: 2010.06.25/outbox.cif.g09.slc.cpg/sg71_30_cif.got.tgz:59175.got - 2010.06.28 04:59:45.
