data_PCOD8288516
_publ_section_title
;
Structure prediction by ZEFSAII (Michael W. Deem and Ramdas Pophale) SiO2 
 PCOD8288516
Probable space group: I M M M
;
_chemical_formula_sum "Si O2"
_cell_formula_units_Z 88
_cell_length_a 8.583914
_cell_length_b 30.204070
_cell_length_c 23.827384
_cell_angle_alpha 90.000000
_cell_angle_beta 90.000000
_cell_angle_gamma 90.000000
_cell_volume 6177.705342
_symmetry_space_group_name_H-M "I M M M"
_symmetry_group_IT_number 71
_symmetry_cell_setting 'orthorhombic'
loop_
_space_group_symop_operation_xyz
x,y,z
-x,-y,z
x,-y,-z
-x,y,-z
-x,-y,-z
x,y,-z
-x,y,z
x,-y,z
1/2+x,1/2+y,1/2+z
1/2-x,1/2-y,1/2+z
1/2+x,1/2-y,1/2-z
1/2-x,1/2+y,1/2-z
1/2-x,1/2-y,1/2-z
1/2+x,1/2+y,1/2-z
1/2-x,1/2+y,1/2+z
1/2+x,1/2-y,1/2+z
loop_
_atom_site_type_symbol
_atom_site_label
_atom_site_fract_x
_atom_site_fract_y
_atom_site_fract_z
Si Si1 0.685073 0.500000 0.066088
Si Si2 0.182129 0.705734 0.724971
Si Si3 0.819269 0.751599 0.383710
Si Si4 0.679084 0.239272 0.500000
Si Si5 0.816896 0.591425 0.099406
Si Si6 0.183553 0.841283 0.678404
Si Si7 0.179580 0.145212 0.500000
O O1 0.500000 0.500000 0.073722
O O2 0.761645 0.540993 0.098508
O O3 0.729874 0.500000 0.000000
O O4 0.250000 0.750000 0.750000
O O5 0.213728 0.709909 0.657978
O O6 0.270571 0.665331 0.755813
O O7 0.000000 0.702163 0.737860
O O8 0.745338 0.739146 0.443273
O O9 0.758422 0.798484 0.357885
O O10 0.000000 0.758252 0.393613
O O11 0.500000 0.249466 0.500000
O O12 0.710299 0.187305 0.500000
O O13 0.775463 0.614927 0.158267
O O14 0.713078 0.616340 0.053980
O O15 0.000000 0.594606 0.086268
O O16 0.000000 0.848696 0.673285
O O17 0.000000 0.160404 0.500000
#
# Coordination Sequence:
#
# PCOD8288516 Si02
#       7
#     8  16  16   8  16  16   8
#     4  11  23  37  51  63  84 112 136 171 222 269
#     4   9  17  29  44  61  81 105 136 172 211 251
#     4   9  18  30  43  58  83 112 137 169 213 254
#     4  12  22  28  41  63  84 110 144 179 212 250
#     4  12  23  34  49  66  82 104 141 180 215 258
#     4  10  19  31  47  63  82 108 136 171 216 257
#     4  12  22  33  45  58  82 110 139 174 219 263
#
# _framework density 14.244771999999999
#
# number of rings (size 3 to 8) (size 9 to 14) (size 15 to 20)
#    0.000    1.545    2.727    5.727    0.000    4.000 
#    0.000    0.000    0.000    0.000    0.000    0.000 
#    0.000    0.000    0.000    0.000    0.000    0.909 
#
# Total GULP energy -545400.567411 kJ/mol
# GULP energy per Si atom -12395.467441 kJ/mol
# Density = 1.421235 g / cm^3
# Si number density = 14.244772 Si / 1000 Ang^3
#
#
#
# Elastic Constant Matrix: (Units=GPa)
#
#
# Indices 1 2 3 4 5 6 
#
# 1 57.1921 19.2150 34.1487 0.0000 0.0000 0.0000
# 2 19.2150 57.5211 42.4126 0.0000 0.0000 0.0000
# 3 34.1487 42.4126 96.0684 0.0000 0.0000 0.0000
# 4 0.0000 0.0000 0.0000 29.4942 0.0000 0.0000
# 5 0.0000 0.0000 0.0000 0.0000 20.0939 0.0000
# 6 0.0000 0.0000 0.0000 0.0000 0.0000 19.2424
#
#
#
# Elastic Compliance Matrix: (Units=1/GPa)
#
#
# Indices 1 2 3 4 5 6 
#
# 1 0.022416 -0.002391 -0.006912 0.000000 0.000000 0.000000
# 2 -0.002391 0.026031 -0.010642 0.000000 0.000000 0.000000
# 3 -0.006912 -0.010642 0.017565 0.000000 0.000000 0.000000
# 4 0.000000 0.000000 0.000000 0.033905 0.000000 0.000000
# 5 0.000000 0.000000 0.000000 0.000000 0.049766 0.000000
# 6 0.000000 0.000000 0.000000 0.000000 0.000000 0.051969
#
#
# Mechanical properties :
#
#
# Convention : Reuss Voigt Hill
#
# Bulk Modulus (GPa) = 38.28545 44.70380 41.49463
# Shear Modulus (GPa) = 19.98018 21.43311 20.70664
#
# Velocity S-wave (km/s) = 3.74924 3.88316 3.81679
# Velocity P-wave (km/s) = 6.75852 7.18025 6.97257
#
# Compressibility (1/GPa) = 0.02611958
#
# Stress axis : x y z
#
# Youngs Moduli (GPa) = 44.61198 38.41642 56.93295
#
# Poissons Ratio (x) = 0.09187 0.39353
# Poissons Ratio (y) = 0.10668 0.60588
# Poissons Ratio (z) = 0.30836 0.40883
#
# Static dielectric constant tensor:
#      x y z
#    x 2.885740 0.000000 0.000000 
#    y 0.000000 2.660900 0.000000 
#    z 0.000000 0.000000 3.262510 
# 
# 
# High freq. dielectric constant tensor:
#      x y z
#    x 1.561710 0.000000 0.000000 
#    y 0.000000 1.495420 0.000000 
#    z 0.000000 0.000000 1.534140 
# 
# From -- ./inp_files/17215.got.cif
#   From: 2010.06.25/outbox.cif.g09.slc.cpg/sg71_9_cif.got.tgz:17215.got - 2010.06.28 04:59:45.
