data_PCOD8288645
_publ_section_title
;
Structure prediction by ZEFSAII (Michael W. Deem and Ramdas Pophale) SiO2 
 PCOD8288645
Probable space group: I M M M
;
_chemical_formula_sum "Si O2"
_cell_formula_units_Z 72
_cell_length_a 21.658121
_cell_length_b 7.824460
_cell_length_c 26.364608
_cell_angle_alpha 90.000000
_cell_angle_beta 90.000000
_cell_angle_gamma 90.000000
_cell_volume 4467.828240
_symmetry_space_group_name_H-M "I M M M"
_symmetry_group_IT_number 71
_symmetry_cell_setting 'orthorhombic'
loop_
_space_group_symop_operation_xyz
x,y,z
-x,-y,z
x,-y,-z
-x,y,-z
-x,-y,-z
x,y,-z
-x,y,z
x,-y,z
1/2+x,1/2+y,1/2+z
1/2-x,1/2-y,1/2+z
1/2+x,1/2-y,1/2-z
1/2-x,1/2+y,1/2-z
1/2-x,1/2-y,1/2-z
1/2+x,1/2+y,1/2-z
1/2-x,1/2+y,1/2+z
1/2+x,1/2-y,1/2+z
loop_
_atom_site_type_symbol
_atom_site_label
_atom_site_fract_x
_atom_site_fract_y
_atom_site_fract_z
Si Si1 0.845452 0.190739 0.718556
Si Si2 0.118179 0.194163 0.893390
Si Si3 0.927815 0.297115 0.000000
Si Si4 0.276545 0.693969 0.321197
Si Si5 0.568077 0.000000 0.667208
Si Si6 0.573762 0.000000 0.222061
O O1 0.784963 0.192726 0.682324
O O2 0.824318 0.235357 0.775891
O O3 0.896877 0.325915 0.698704
O O4 0.874135 0.000000 0.715930
O O5 0.188528 0.230222 0.874681
O O6 0.075165 0.330079 0.865823
O O7 0.099558 0.000000 0.878113
O O8 0.109612 0.219057 0.953052
O O9 0.923231 0.500000 0.000000
O O10 0.000000 0.239653 0.000000
O O11 0.253862 0.500000 0.316941
O O12 0.602403 0.000000 0.720750
O O13 0.500000 0.000000 0.687987
O O14 0.500000 0.000000 0.213266
#
# Coordination Sequence:
#
# PCOD8288645 Si02
#       6
#    16  16   8  16   8   8
#     4  10  19  31  50  72  93 126 158 199 247 293
#     4  11  22  35  51  70  90 122 167 214 253 285
#     4  11  23  37  51  66  93 133 172 206 247 291
#     4   9  18  31  50  72  94 116 161 208 248 292
#     4  11  22  33  48  67  94 128 167 205 246 288
#     4  11  22  34  47  70 105 131 157 202 244 289
#
# _framework density 16.115212
#
# number of rings (size 3 to 8) (size 9 to 14) (size 15 to 20)
#    0.000    1.667    4.444    1.000    3.111    2.667 
#    0.000    2.222    0.000    0.000    0.000    0.000 
#    0.000    0.000    0.000    2.000    0.000    4.667 
#
# Total GULP energy -446061.781182 kJ/mol
# GULP energy per Si atom -12390.605033 kJ/mol
# Density = 1.607853 g / cm^3
# Si number density = 16.115212 Si / 1000 Ang^3
#
#
#
# Elastic Constant Matrix: (Units=GPa)
#
#
# Indices 1 2 3 4 5 6 
#
# 1 86.5569 53.2962 34.0558 0.0000 0.0000 0.0000
# 2 53.2962 114.5572 13.3245 0.0000 0.0000 0.0000
# 3 34.0558 13.3245 62.1574 0.0000 0.0000 0.0000
# 4 0.0000 0.0000 0.0000 14.1648 0.0000 0.0000
# 5 0.0000 0.0000 0.0000 0.0000 23.0008 0.0000
# 6 0.0000 0.0000 0.0000 0.0000 0.0000 23.0668
#
#
#
# Elastic Compliance Matrix: (Units=1/GPa)
#
#
# Indices 1 2 3 4 5 6 
#
# 1 0.020426 -0.008411 -0.009388 0.000000 0.000000 0.000000
# 2 -0.008411 0.012416 0.001947 0.000000 0.000000 0.000000
# 3 -0.009388 0.001947 0.020815 0.000000 0.000000 0.000000
# 4 0.000000 0.000000 0.000000 0.070598 0.000000 0.000000
# 5 0.000000 0.000000 0.000000 0.000000 0.043477 0.000000
# 6 0.000000 0.000000 0.000000 0.000000 0.000000 0.043352
#
#
# Mechanical properties :
#
#
# Convention : Reuss Voigt Hill
#
# Bulk Modulus (GPa) = 45.55474 51.62496 48.58985
# Shear Modulus (GPa) = 19.99163 22.88615 21.43889
#
# Velocity S-wave (km/s) = 3.52596 3.77259 3.65135
# Velocity P-wave (km/s) = 6.70120 7.14710 6.92774
#
# Compressibility (1/GPa) = 0.02195161
#
# Stress axis : x y z
#
# Youngs Moduli (GPa) = 48.95794 80.54224 48.04316
#
# Poissons Ratio (x) = 0.67742 0.45104
# Poissons Ratio (y) = 0.41178 -0.09353
# Poissons Ratio (z) = 0.45963 -0.15679
#
# Static dielectric constant tensor:
#      x y z
#    x 2.884790 0.000000 0.000000 
#    y 0.000000 3.291390 0.000000 
#    z 0.000000 0.000000 2.809440 
# 
# 
# High freq. dielectric constant tensor:
#      x y z
#    x 1.600550 0.000000 0.000000 
#    y 0.000000 1.644450 0.000000 
#    z 0.000000 0.000000 1.570090 
# 
# From -- ./inp_files/66276.got.cif
#   From: 2010.06.25/outbox.cif.g09.slc.cpg/sg71_34_cif.got.tgz:66276.got - 2010.06.28 04:59:45.
