data_PCOD8288652
_publ_section_title
;
Structure prediction by ZEFSAII (Michael W. Deem and Ramdas Pophale) SiO2 
 PCOD8288652
Probable space group: I M M M
;
_chemical_formula_sum "Si O2"
_cell_formula_units_Z 88
_cell_length_a 27.796717
_cell_length_b 8.791168
_cell_length_c 19.304597
_cell_angle_alpha 90.000000
_cell_angle_beta 90.000000
_cell_angle_gamma 90.000000
_cell_volume 4717.379602
_symmetry_space_group_name_H-M "I M M M"
_symmetry_group_IT_number 71
_symmetry_cell_setting 'orthorhombic'
loop_
_space_group_symop_operation_xyz
x,y,z
-x,-y,z
x,-y,-z
-x,y,-z
-x,-y,-z
x,y,-z
-x,y,z
x,-y,z
1/2+x,1/2+y,1/2+z
1/2-x,1/2-y,1/2+z
1/2+x,1/2-y,1/2-z
1/2-x,1/2+y,1/2-z
1/2-x,1/2-y,1/2-z
1/2+x,1/2+y,1/2-z
1/2-x,1/2+y,1/2+z
1/2+x,1/2-y,1/2+z
loop_
_atom_site_type_symbol
_atom_site_label
_atom_site_fract_x
_atom_site_fract_y
_atom_site_fract_z
Si Si1 0.258988 0.679663 0.422510
Si Si2 0.656200 0.679975 0.672640
Si Si3 0.082249 0.826967 0.652281
Si Si4 0.051883 0.826731 0.192676
Si Si5 0.679125 0.179251 0.815969
Si Si6 0.000000 0.334056 0.420525
O O1 0.252728 0.749798 0.500000
O O2 0.252714 0.500000 0.427007
O O3 0.312439 0.720996 0.394713
O O4 0.220137 0.744340 0.367871
O O5 0.652219 0.500000 0.685693
O O6 0.601520 0.747093 0.662089
O O7 0.683025 0.745575 0.740214
O O8 0.054923 0.815971 0.724944
O O9 0.128782 0.720895 0.649436
O O10 0.046926 0.764177 0.594799
O O11 0.097136 0.000000 0.635780
O O12 0.000000 0.749719 0.170384
O O13 0.049684 0.000000 0.167514
O O14 0.684348 0.000000 0.806596
O O15 0.000000 0.500000 0.381947
O O16 0.000000 0.368912 0.500000
#
# Coordination Sequence:
#
# PCOD8288652 Si02
#       6
#    16  16  16  16  16   8
#     4   9  18  32  49  70  98 133 170 208 258 316
#     4   9  17  30  51  74  96 129 170 210 252 306
#     4  10  19  33  51  70  95 128 168 210 250 297
#     4   8  13  24  45  71  94 117 150 195 244 289
#     4  10  19  31  50  74 100 129 164 213 263 307
#     4  11  23  35  47  67  99 137 172 207 252 303
#
# _framework density 18.654423999999999
#
# number of rings (size 3 to 8) (size 9 to 14) (size 15 to 20)
#    0.000    2.636    0.909    3.000    0.000    1.455 
#    0.000    2.727    0.000    4.909    0.000    3.818 
#    0.000    0.000    0.000    4.727    0.000    6.182 
#
# Total GULP energy -545139.771611 kJ/mol
# GULP energy per Si atom -12389.540264 kJ/mol
# Density = 1.861197 g / cm^3
# Si number density = 18.654424 Si / 1000 Ang^3
#
#
#
# Elastic Constant Matrix: (Units=GPa)
#
#
# Indices 1 2 3 4 5 6 
#
# 1 131.4116 8.4640 50.0832 0.0000 0.0000 0.0000
# 2 8.4640 33.2603 12.5632 0.0000 0.0000 0.0000
# 3 50.0832 12.5632 74.0883 0.0000 0.0000 0.0000
# 4 0.0000 0.0000 0.0000 16.5989 0.0000 0.0000
# 5 0.0000 0.0000 0.0000 0.0000 20.6840 0.0000
# 6 0.0000 0.0000 0.0000 0.0000 0.0000 17.3185
#
#
#
# Elastic Compliance Matrix: (Units=1/GPa)
#
#
# Indices 1 2 3 4 5 6 
#
# 1 0.010251 0.000009 -0.006931 0.000000 0.000000 0.000000
# 2 0.000009 0.032123 -0.005454 0.000000 0.000000 0.000000
# 3 -0.006931 -0.005454 0.019107 0.000000 0.000000 0.000000
# 4 0.000000 0.000000 0.000000 0.060245 0.000000 0.000000
# 5 0.000000 0.000000 0.000000 0.000000 0.048347 0.000000
# 6 0.000000 0.000000 0.000000 0.000000 0.000000 0.057742
#
#
# Mechanical properties :
#
#
# Convention : Reuss Voigt Hill
#
# Bulk Modulus (GPa) = 27.22474 42.33124 34.77799
# Shear Modulus (GPa) = 18.88158 22.09695 20.48926
#
# Velocity S-wave (km/s) = 3.18492 3.44545 3.31775
# Velocity P-wave (km/s) = 5.30575 6.21046 5.77584
#
# Compressibility (1/GPa) = 0.03673130
#
# Stress axis : x y z
#
# Youngs Moduli (GPa) = 97.55566 31.12993 52.33564
#
# Poissons Ratio (x) = -0.00029 0.36273
# Poissons Ratio (y) = -0.00092 0.28542
# Poissons Ratio (z) = 0.67615 0.16977
#
# Static dielectric constant tensor:
#      x y z
#    x 3.865750 0.000000 0.000000 
#    y 0.000000 3.133190 0.000000 
#    z 0.000000 0.000000 3.236420 
# 
# 
# High freq. dielectric constant tensor:
#      x y z
#    x 1.745490 0.000000 0.000000 
#    y 0.000000 1.689290 0.000000 
#    z 0.000000 0.000000 1.688770 
# 
# From -- ./inp_files/10960.got.cif
#   From: 2010.06.25/outbox.cif.g09.slc.cpg/sg71_6_cif.got.tgz:10960.got - 2010.06.28 04:59:45.
