data_PCOD8288968
_publ_section_title
;
Structure prediction by ZEFSAII (Michael W. Deem and Ramdas Pophale) SiO2 
 PCOD8288968
Probable space group: I M M M
;
_chemical_formula_sum "Si O2"
_cell_formula_units_Z 88
_cell_length_a 13.375981
_cell_length_b 28.181283
_cell_length_c 12.120020
_cell_angle_alpha 90.000000
_cell_angle_beta 90.000000
_cell_angle_gamma 90.000000
_cell_volume 4568.669487
_symmetry_space_group_name_H-M "I M M M"
_symmetry_group_IT_number 71
_symmetry_cell_setting 'orthorhombic'
loop_
_space_group_symop_operation_xyz
x,y,z
-x,-y,z
x,-y,-z
-x,y,-z
-x,-y,-z
x,y,-z
-x,y,z
x,-y,z
1/2+x,1/2+y,1/2+z
1/2-x,1/2-y,1/2+z
1/2+x,1/2-y,1/2-z
1/2-x,1/2+y,1/2-z
1/2-x,1/2-y,1/2-z
1/2+x,1/2+y,1/2-z
1/2-x,1/2+y,1/2+z
1/2+x,1/2-y,1/2+z
loop_
_atom_site_type_symbol
_atom_site_label
_atom_site_fract_x
_atom_site_fract_y
_atom_site_fract_z
Si Si1 0.385550 0.910035 0.732536
Si Si2 0.118665 0.552549 0.000000
Si Si3 0.289169 0.555118 0.629668
Si Si4 0.614790 0.638774 0.760937
Si Si5 0.201061 0.671151 0.125899
Si Si6 0.611598 0.731516 0.626869
O O1 0.500000 0.924355 0.752312
O O2 0.340491 0.925580 0.613379
O O3 0.324285 0.934181 0.831353
O O4 0.368931 0.853508 0.720380
O O5 0.159683 0.500000 0.000000
O O6 0.000000 0.556194 0.000000
O O7 0.298041 0.566286 0.500000
O O8 0.315887 0.500000 0.652970
O O9 0.363303 0.589093 0.698511
O O10 0.500000 0.638359 0.800080
O O11 0.686789 0.649236 0.865114
O O12 0.642288 0.682462 0.682328
O O13 0.192027 0.727092 0.153127
O O14 0.162480 0.662163 0.000000
O O15 0.612535 0.718860 0.500000
O O16 0.500000 0.747916 0.663766
#
# Coordination Sequence:
#
# PCOD8288968 Si02
#       6
#    16   8  16  16  16  16
#     4  10  19  32  52  79 110 141 173 210 257 317
#     4   9  16  26  44  70  99 133 171 205 239 289
#     4  10  22  38  55  77 104 136 178 226 273 319
#     4  10  21  36  54  76 103 138 181 226 270 312
#     4  10  19  32  52  79 110 142 175 214 261 315
#     4   9  17  30  52  80 107 135 170 213 262 317
#
# _framework density 19.261624999999999
#
# number of rings (size 3 to 8) (size 9 to 14) (size 15 to 20)
#    0.000    2.273    0.909    2.182    0.000    4.000 
#    0.000    1.818    0.000    0.000    0.000    7.636 
#    0.000    0.000    0.000    0.000    0.000    0.000 
#
# Total GULP energy -545177.293666 kJ/mol
# GULP energy per Si atom -12390.393038 kJ/mol
# Density = 1.921778 g / cm^3
# Si number density = 19.261625 Si / 1000 Ang^3
#
#
#
# Elastic Constant Matrix: (Units=GPa)
#
#
# Indices 1 2 3 4 5 6 
#
# 1 79.9704 19.9073 7.7388 -0.0005 0.0002 0.0002
# 2 19.9073 101.7896 23.0916 -0.0005 0.0002 0.0001
# 3 7.7388 23.0916 38.6934 0.0030 -0.0012 -0.0006
# 4 -0.0005 -0.0005 0.0030 29.0602 -0.0004 -0.0002
# 5 0.0002 0.0002 -0.0012 -0.0004 22.8694 0.0001
# 6 0.0002 0.0001 -0.0006 -0.0002 0.0001 23.9385
#
#
#
# Elastic Compliance Matrix: (Units=1/GPa)
#
#
# Indices 1 2 3 4 5 6 
#
# 1 0.013198 -0.002293 -0.001271 0.000000 0.000000 0.000000
# 2 -0.002293 0.011761 -0.006560 0.000001 0.000000 0.000000
# 3 -0.001271 -0.006560 0.030014 -0.000003 0.000002 0.000001
# 4 0.000000 0.000001 -0.000003 0.034411 0.000001 0.000000
# 5 0.000000 0.000000 0.000002 0.000001 0.043727 0.000000
# 6 0.000000 0.000000 0.000001 0.000000 0.000000 0.041774
#
#
# Mechanical properties :
#
#
# Convention : Reuss Voigt Hill
#
# Bulk Modulus (GPa) = 28.79850 35.76988 32.28419
# Shear Modulus (GPa) = 24.18875 26.48799 25.33837
#
# Velocity S-wave (km/s) = 3.54757 3.71235 3.63090
# Velocity P-wave (km/s) = 5.63596 6.08163 5.86303
#
# Compressibility (1/GPa) = 0.03472403
#
# Stress axis : x y z
#
# Youngs Moduli (GPa) = 75.76666 85.02819 33.31834
#
# Poissons Ratio (x) = 0.19495 0.04236
# Poissons Ratio (y) = 0.17372 0.21857
# Poissons Ratio (z) = 0.09633 0.55779
#
# Static dielectric constant tensor:
#      x y z
#    x 3.362770 0.000000 0.000000 
#    y 0.000000 3.685380 0.000000 
#    z 0.000000 0.000000 3.421010 
# 
# 
# High freq. dielectric constant tensor:
#      x y z
#    x 1.730820 0.000000 0.000000 
#    y 0.000000 1.766310 0.000000 
#    z 0.000000 0.000000 1.731540 
# 
# From -- ./inp_files/20294.got.cif
#   From: 2010.06.25/outbox.cif.g09.slc.cpg/sg71_11_cif.got.tgz:20294.got - 2010.06.28 04:59:45.
