data_PCOD8288550
_publ_section_title
;
Structure prediction by ZEFSAII (Michael W. Deem and Ramdas Pophale) SiO2 
 PCOD8288550
Probable space group: I M M M
;
_chemical_formula_sum "Si O2"
_cell_formula_units_Z 104
_cell_length_a 23.765336
_cell_length_b 25.924451
_cell_length_c 9.816105
_cell_angle_alpha 90.000000
_cell_angle_beta 90.000000
_cell_angle_gamma 90.000000
_cell_volume 6047.734572
_symmetry_space_group_name_H-M "I M M M"
_symmetry_group_IT_number 71
_symmetry_cell_setting 'orthorhombic'
loop_
_space_group_symop_operation_xyz
x,y,z
-x,-y,z
x,-y,-z
-x,y,-z
-x,-y,-z
x,y,-z
-x,y,z
x,-y,z
1/2+x,1/2+y,1/2+z
1/2-x,1/2-y,1/2+z
1/2+x,1/2-y,1/2-z
1/2-x,1/2+y,1/2-z
1/2-x,1/2-y,1/2-z
1/2+x,1/2+y,1/2-z
1/2-x,1/2+y,1/2+z
1/2+x,1/2-y,1/2+z
loop_
_atom_site_type_symbol
_atom_site_label
_atom_site_fract_x
_atom_site_fract_y
_atom_site_fract_z
Si Si1 0.061814 0.000000 0.160786
Si Si2 0.780817 0.713650 0.852113
Si Si3 0.710797 0.388576 0.150059
Si Si4 0.886330 0.345530 0.838109
Si Si5 0.179919 0.442932 0.162345
Si Si6 0.393723 0.609784 0.338321
Si Si7 0.000000 0.295690 0.162925
Si Si8 0.000000 0.822232 0.161271
O O1 0.093977 0.948814 0.207383
O O2 0.000000 0.000000 0.227825
O O3 0.054988 0.000000 0.000000
O O4 0.750000 0.750000 0.750000
O O5 0.746259 0.662282 0.871297
O O6 0.842571 0.699273 0.795396
O O7 0.786279 0.741168 0.000000
O O8 0.755529 0.430741 0.207499
O O9 0.662505 0.375752 0.258353
O O10 0.686564 0.404813 0.000000
O O11 0.865447 0.401186 0.779390
O O12 0.946536 0.327564 0.779750
O O13 0.888971 0.349459 0.000000
O O14 0.163685 0.500000 0.216748
O O15 0.178178 0.440837 0.000000
O O16 0.383687 0.614770 0.500000
O O17 0.444258 0.647257 0.289360
O O18 0.000000 0.236512 0.218070
O O19 0.000000 0.294025 0.000000
O O20 0.000000 0.822123 0.000000
#
# Coordination Sequence:
#
# PCOD8288550 Si02
#       8
#     8  16  16  16  16  16   8   8
#     4   9  16  30  47  63  89 119 149 200 251 276
#     4   9  18  31  47  68  94 123 154 189 230 275
#     4   9  19  32  45  67  96 122 153 192 231 275
#     4   8  15  27  42  64  91 117 149 191 233 268
#     4   8  14  27  45  62  86 122 155 182 224 283
#     4  10  19  31  48  68  89 119 161 198 235 282
#     4   9  16  26  42  65  93 118 148 195 235 268
#     4   9  18  29  43  65  88 119 160 194 230 281
#
# _framework density 17.196522000000002
#
# number of rings (size 3 to 8) (size 9 to 14) (size 15 to 20)
#    0.000    3.154    0.769    1.846    3.231    0.615 
#    0.000    0.769    0.000    2.769    0.000    0.538 
#    0.000    0.000    0.000    0.000    0.000   10.538 
#
# Total GULP energy -644270.867136 kJ/mol
# GULP energy per Si atom -12389.824368 kJ/mol
# Density = 1.715738 g / cm^3
# Si number density = 17.196522 Si / 1000 Ang^3
#
#
#
# Elastic Constant Matrix: (Units=GPa)
#
#
# Indices 1 2 3 4 5 6 
#
# 1 143.0874 58.5879 31.5318 0.0000 0.0000 0.0000
# 2 58.5879 99.8626 21.9878 0.0000 0.0000 0.0000
# 3 31.5318 21.9878 29.5356 0.0000 0.0000 0.0000
# 4 0.0000 0.0000 0.0000 14.1077 0.0000 0.0000
# 5 0.0000 0.0000 0.0000 0.0000 17.6954 0.0000
# 6 0.0000 0.0000 0.0000 0.0000 0.0000 14.2294
#
#
#
# Elastic Compliance Matrix: (Units=1/GPa)
#
#
# Indices 1 2 3 4 5 6 
#
# 1 0.010564 -0.004443 -0.007971 0.000000 0.000000 0.000000
# 2 -0.004443 0.013845 -0.005564 0.000000 0.000000 0.000000
# 3 -0.007971 -0.005564 0.046509 0.000000 0.000000 0.000000
# 4 0.000000 0.000000 0.000000 0.070883 0.000000 0.000000
# 5 0.000000 0.000000 0.000000 0.000000 0.056512 0.000000
# 6 0.000000 0.000000 0.000000 0.000000 0.000000 0.070277
#
#
# Mechanical properties :
#
#
# Convention : Reuss Voigt Hill
#
# Bulk Modulus (GPa) = 28.60141 55.18896 41.89518
# Shear Modulus (GPa) = 15.81273 19.89839 17.85556
#
# Velocity S-wave (km/s) = 3.03567 3.40533 3.22580
# Velocity P-wave (km/s) = 5.38101 6.90105 6.18788
#
# Compressibility (1/GPa) = 0.03496331
#
# Stress axis : x y z
#
# Youngs Moduli (GPa) = 94.65698 72.22576 21.50116
#
# Poissons Ratio (x) = 0.32090 0.17138
# Poissons Ratio (y) = 0.42056 0.11963
# Poissons Ratio (z) = 0.75450 0.40186
#
# Static dielectric constant tensor:
#      x y z
#    x 3.316490 0.000000 0.000000 
#    y 0.000000 2.164640 0.000000 
#    z 0.000000 0.000000 2.557600 
# 
# 
# High freq. dielectric constant tensor:
#      x y z
#    x 1.666540 0.000000 0.000000 
#    y 0.000000 1.670970 0.000000 
#    z 0.000000 0.000000 1.598340 
# 
# From -- ./inp_files/13390.got.cif
#   From: 2010.06.25/outbox.cif.g09.slc.cpg/sg71_7_cif.got.tgz:13390.got - 2010.06.28 04:59:45.
