data_PCOD8288629
_publ_section_title
;
Structure prediction by ZEFSAII (Michael W. Deem and Ramdas Pophale) SiO2 
 PCOD8288629
Probable space group: I M M M
;
_chemical_formula_sum "Si O2"
_cell_formula_units_Z 104
_cell_length_a 28.014478
_cell_length_b 8.943504
_cell_length_c 23.117305
_cell_angle_alpha 90.000000
_cell_angle_beta 90.000000
_cell_angle_gamma 90.000000
_cell_volume 5791.985195
_symmetry_space_group_name_H-M "I M M M"
_symmetry_group_IT_number 71
_symmetry_cell_setting 'orthorhombic'
loop_
_space_group_symop_operation_xyz
x,y,z
-x,-y,z
x,-y,-z
-x,y,-z
-x,-y,-z
x,y,-z
-x,y,z
x,-y,z
1/2+x,1/2+y,1/2+z
1/2-x,1/2-y,1/2+z
1/2+x,1/2-y,1/2-z
1/2-x,1/2+y,1/2-z
1/2-x,1/2-y,1/2-z
1/2+x,1/2+y,1/2-z
1/2-x,1/2+y,1/2+z
1/2+x,1/2-y,1/2+z
loop_
_atom_site_type_symbol
_atom_site_label
_atom_site_fract_x
_atom_site_fract_y
_atom_site_fract_z
Si Si1 0.805408 0.829091 0.687075
Si Si2 0.698763 0.830284 0.692699
Si Si3 0.554620 0.825118 0.772777
Si Si4 0.600002 0.324405 0.879225
Si Si5 0.609324 0.675863 0.669429
Si Si6 0.553178 0.677610 0.562194
Si Si7 0.555080 0.676935 0.000000
O O1 0.751149 0.814630 0.663878
O O2 0.806650 0.715797 0.740297
O O3 0.844368 0.787400 0.637439
O O4 0.814536 0.000000 0.708729
O O5 0.663949 0.721033 0.657653
O O6 0.680913 0.000000 0.688317
O O7 0.500000 0.789881 0.755975
O O8 0.564805 0.761434 0.836214
O O9 0.589938 0.745004 0.728492
O O10 0.565165 0.000000 0.772312
O O11 0.590416 0.500000 0.873167
O O12 0.585447 0.269091 0.943727
O O13 0.603333 0.500000 0.673704
O O14 0.582121 0.747449 0.614983
O O15 0.575431 0.724999 0.500000
O O16 0.500000 0.741489 0.566661
O O17 0.552695 0.500000 0.567236
O O18 0.552224 0.500000 0.000000
O O19 0.500000 0.739558 0.000000
#
# Coordination Sequence:
#
# PCOD8288629 Si02
#       7
#    16  16  16  16  16  16   8
#     4   9  18  32  51  75 100 132 172 210 251 305
#     4  10  19  31  49  74 107 136 164 206 256 305
#     4  11  23  35  48  73 108 139 167 206 259 311
#     4  10  19  34  56  78 101 133 176 220 262 312
#     4  11  20  31  51  78 103 132 170 210 255 305
#     4   8  15  29  49  72  97 127 166 210 250 292
#     4   9  18  32  53  81 107 133 171 223 274 315
#
# _framework density 17.955846999999999
#
# number of rings (size 3 to 8) (size 9 to 14) (size 15 to 20)
#    0.000    2.231    1.538    2.769    0.000    3.077 
#    0.000    0.385    1.692    3.231    0.000    5.385 
#    0.000    0.000    0.000    0.000    0.000    0.000 
#
# Total GULP energy -644408.822727 kJ/mol
# GULP energy per Si atom -12392.477360 kJ/mol
# Density = 1.791498 g / cm^3
# Si number density = 17.955847 Si / 1000 Ang^3
#
#
#
# Elastic Constant Matrix: (Units=GPa)
#
#
# Indices 1 2 3 4 5 6 
#
# 1 112.4072 27.3458 51.1726 0.0000 0.0000 0.0000
# 2 27.3458 50.2517 20.8573 0.0000 0.0000 0.0000
# 3 51.1726 20.8573 107.7410 0.0000 0.0000 0.0000
# 4 0.0000 0.0000 0.0000 2.7488 0.0000 0.0000
# 5 0.0000 0.0000 0.0000 0.0000 29.5661 0.0000
# 6 0.0000 0.0000 0.0000 0.0000 0.0000 26.2743
#
#
#
# Elastic Compliance Matrix: (Units=1/GPa)
#
#
# Indices 1 2 3 4 5 6 
#
# 1 0.012267 -0.004629 -0.004930 0.000000 0.000000 0.000000
# 2 -0.004629 0.023385 -0.002329 0.000000 0.000000 0.000000
# 3 -0.004930 -0.002329 0.012074 0.000000 0.000000 0.000000
# 4 0.000000 0.000000 0.000000 0.363800 0.000000 0.000000
# 5 0.000000 0.000000 0.000000 0.000000 0.033823 0.000000
# 6 0.000000 0.000000 0.000000 0.000000 0.000000 0.038060
#
#
# Mechanical properties :
#
#
# Convention : Reuss Voigt Hill
#
# Bulk Modulus (GPa) = 41.75240 52.12791 46.94016
# Shear Modulus (GPa) = 9.70559 23.11945 16.41252
#
# Velocity S-wave (km/s) = 2.32744 3.59217 3.02660
# Velocity P-wave (km/s) = 5.52503 6.80434 6.19778
#
# Compressibility (1/GPa) = 0.02395072
#
# Stress axis : x y z
#
# Youngs Moduli (GPa) = 81.52129 42.76189 82.82352
#
# Poissons Ratio (x) = 0.19795 0.40833
# Poissons Ratio (y) = 0.37736 0.19285
# Poissons Ratio (z) = 0.40191 0.09957
#
# Static dielectric constant tensor:
#      x y z
#    x 3.685960 0.000000 0.000000 
#    y 0.000000 3.147100 0.000000 
#    z 0.000000 0.000000 3.407450 
# 
# 
# High freq. dielectric constant tensor:
#      x y z
#    x 1.706120 0.000000 0.000000 
#    y 0.000000 1.677170 0.000000 
#    z 0.000000 0.000000 1.674460 
# 
# From -- ./inp_files/56697.got.cif
#   From: 2010.06.25/outbox.cif.g09.slc.cpg/sg71_29_cif.got.tgz:56697.got - 2010.06.28 04:59:45.
