data_PCOD8288259
_publ_section_title
;
Structure prediction by ZEFSAII (Michael W. Deem and Ramdas Pophale) SiO2 
 PCOD8288259
Probable space group: I M M M
;
_chemical_formula_sum "Si O2"
_cell_formula_units_Z 88
_cell_length_a 28.111562
_cell_length_b 12.589998
_cell_length_c 15.209146
_cell_angle_alpha 90.000000
_cell_angle_beta 90.000000
_cell_angle_gamma 90.000000
_cell_volume 5382.889536
_symmetry_space_group_name_H-M "I M M M"
_symmetry_group_IT_number 71
_symmetry_cell_setting 'orthorhombic'
loop_
_space_group_symop_operation_xyz
x,y,z
-x,-y,z
x,-y,-z
-x,y,-z
-x,-y,-z
x,y,-z
-x,y,z
x,-y,z
1/2+x,1/2+y,1/2+z
1/2-x,1/2-y,1/2+z
1/2+x,1/2-y,1/2-z
1/2-x,1/2+y,1/2-z
1/2-x,1/2-y,1/2-z
1/2+x,1/2+y,1/2-z
1/2-x,1/2+y,1/2+z
1/2+x,1/2-y,1/2+z
loop_
_atom_site_type_symbol
_atom_site_label
_atom_site_fract_x
_atom_site_fract_y
_atom_site_fract_z
Si Si1 0.179848 0.251296 0.099811
Si Si2 0.446763 0.697377 0.287193
Si Si3 0.725928 0.378134 0.101091
Si Si4 0.055749 0.000000 0.904687
Si Si5 0.146530 0.874963 0.737397
Si Si6 0.413916 0.120944 0.599839
O O1 0.229703 0.304535 0.124993
O O2 0.168925 0.157765 0.168493
O O3 0.140554 0.343344 0.107786
O O4 0.180959 0.205584 0.000000
O O5 0.500000 0.676335 0.248374
O O6 0.429355 0.606880 0.355376
O O7 0.403853 0.687218 0.216502
O O8 0.447559 0.809715 0.336815
O O9 0.739450 0.500000 0.122148
O O10 0.681610 0.340256 0.159656
O O11 0.710818 0.364827 0.000000
O O12 0.000000 0.000000 0.916642
O O13 0.080933 0.000000 0.000000
O O14 0.137297 0.000000 0.737571
O O15 0.432354 0.133512 0.500000
O O16 0.417919 0.000000 0.631587
#
# Coordination Sequence:
#
# PCOD8288259 Si02
#       6
#    16  16  16   8  16  16
#     4   9  17  29  45  66  92 121 145 172 217 269
#     4  10  19  30  42  59  85 119 153 185 224 265
#     4   9  17  30  49  68  87 113 147 185 225 269
#     4   9  16  26  40  56  77 111 151 179 206 258
#     4  10  19  30  44  66  90 117 151 186 221 259
#     4   9  17  28  42  62  89 118 150 184 216 256
#
# _framework density 16.348096999999999
#
# number of rings (size 3 to 8) (size 9 to 14) (size 15 to 20)
#    0.000    2.636    0.909    1.636    0.000    4.727 
#    0.000    0.909    0.000    0.545    0.000    2.545 
#    0.000    0.000    0.000    6.545    0.000    0.000 
#
# Total GULP energy -545361.136314 kJ/mol
# GULP energy per Si atom -12394.571280 kJ/mol
# Density = 1.631089 g / cm^3
# Si number density = 16.348097 Si / 1000 Ang^3
#
#
#
# Elastic Constant Matrix: (Units=GPa)
#
#
# Indices 1 2 3 4 5 6 
#
# 1 115.6935 17.2011 37.3527 0.0000 0.0000 0.0000
# 2 17.2011 62.1644 12.9005 0.0000 0.0000 0.0000
# 3 37.3527 12.9005 43.2196 0.0000 0.0000 0.0000
# 4 0.0000 0.0000 0.0000 19.5561 0.0000 0.0000
# 5 0.0000 0.0000 0.0000 0.0000 20.2513 0.0000
# 6 0.0000 0.0000 0.0000 0.0000 0.0000 19.1990
#
#
#
# Elastic Compliance Matrix: (Units=1/GPa)
#
#
# Indices 1 2 3 4 5 6 
#
# 1 0.012080 -0.001254 -0.010066 0.000000 0.000000 0.000000
# 2 -0.001254 0.017279 -0.004074 0.000000 0.000000 0.000000
# 3 -0.010066 -0.004074 0.033053 0.000000 0.000000 0.000000
# 4 0.000000 0.000000 0.000000 0.051135 0.000000 0.000000
# 5 0.000000 0.000000 0.000000 0.000000 0.049380 0.000000
# 6 0.000000 0.000000 0.000000 0.000000 0.000000 0.052086
#
#
# Mechanical properties :
#
#
# Convention : Reuss Voigt Hill
#
# Bulk Modulus (GPa) = 31.62087 39.55403 35.58745
# Shear Modulus (GPa) = 19.50531 22.04283 20.77407
#
# Velocity S-wave (km/s) = 3.45791 3.67596 3.56860
# Velocity P-wave (km/s) = 5.94366 6.50110 6.22862
#
# Compressibility (1/GPa) = 0.03162468
#
# Stress axis : x y z
#
# Youngs Moduli (GPa) = 82.78320 57.87469 30.25436
#
# Poissons Ratio (x) = 0.07255 0.30453
# Poissons Ratio (y) = 0.10378 0.12326
# Poissons Ratio (z) = 0.83328 0.23578
#
# Static dielectric constant tensor:
#      x y z
#    x 3.211060 0.000000 0.000000 
#    y 0.000000 3.021940 0.000000 
#    z 0.000000 0.000000 2.960940 
# 
# 
# High freq. dielectric constant tensor:
#      x y z
#    x 1.639440 0.000000 0.000000 
#    y 0.000000 1.624070 0.000000 
#    z 0.000000 0.000000 1.587510 
# 
# From -- ./inp_files/28599.got.cif
#   From: 2010.06.25/outbox.cif.g09.slc.cpg/sg71_15_cif.got.tgz:28599.got - 2010.06.28 04:59:45.
