data_PCOD8288438
_publ_section_title
;
Structure prediction by ZEFSAII (Michael W. Deem and Ramdas Pophale) SiO2 
 PCOD8288438
Probable space group: I M M M
;
_chemical_formula_sum "Si O2"
_cell_formula_units_Z 72
_cell_length_a 17.477272
_cell_length_b 9.065924
_cell_length_c 25.351849
_cell_angle_alpha 90.000000
_cell_angle_beta 90.000000
_cell_angle_gamma 90.000000
_cell_volume 4016.940129
_symmetry_space_group_name_H-M "I M M M"
_symmetry_group_IT_number 71
_symmetry_cell_setting 'orthorhombic'
loop_
_space_group_symop_operation_xyz
x,y,z
-x,-y,z
x,-y,-z
-x,y,-z
-x,-y,-z
x,y,-z
-x,y,z
x,-y,z
1/2+x,1/2+y,1/2+z
1/2-x,1/2-y,1/2+z
1/2+x,1/2-y,1/2-z
1/2-x,1/2+y,1/2-z
1/2-x,1/2-y,1/2-z
1/2+x,1/2+y,1/2-z
1/2-x,1/2+y,1/2+z
1/2+x,1/2-y,1/2+z
loop_
_atom_site_type_symbol
_atom_site_label
_atom_site_fract_x
_atom_site_fract_y
_atom_site_fract_z
Si Si1 0.409343 0.173913 0.000000
Si Si2 0.739430 0.829373 0.695463
Si Si3 0.416818 0.832264 0.644343
Si Si4 0.154623 0.835769 0.058246
Si Si5 0.694790 0.324676 0.915055
O O1 0.374753 0.244982 0.053895
O O2 0.500000 0.203603 0.000000
O O3 0.390568 0.000000 0.000000
O O4 0.750000 0.750000 0.750000
O O5 0.651692 0.788877 0.682838
O O6 0.797378 0.781300 0.647661
O O7 0.751373 0.000000 0.705773
O O8 0.500000 0.810632 0.671832
O O9 0.413449 0.726540 0.593903
O O10 0.405761 0.000000 0.625159
O O11 0.226945 0.726755 0.058380
O O12 0.179446 0.000000 0.077050
O O13 0.120575 0.841933 0.000000
O O14 0.685159 0.500000 0.921601
#
# Coordination Sequence:
#
# PCOD8288438 Si02
#       5
#     8  16  16  16  16
#     4  11  23  37  55  83 116 147 184 233 289 339
#     4   9  19  35  56  81 104 136 182 227 273 328
#     4   9  19  35  52  72 101 136 175 217 262 315
#     4  10  19  30  48  75 106 138 172 210 253 306
#     4  10  20  35  56  79 107 143 184 224 267 327
#
# _framework density 17.924091000000001
#
# number of rings (size 3 to 8) (size 9 to 14) (size 15 to 20)
#    0.000    2.333    1.111    3.000    0.000    7.556 
#    0.000    3.333    0.000    4.000    0.000    0.000 
#    0.000    0.000    0.000    0.000    0.000    0.000 
#
# Total GULP energy -446009.430265 kJ/mol
# GULP energy per Si atom -12389.150841 kJ/mol
# Density = 1.788330 g / cm^3
# Si number density = 17.924091 Si / 1000 Ang^3
#
#
#
# Elastic Constant Matrix: (Units=GPa)
#
#
# Indices 1 2 3 4 5 6 
#
# 1 112.7076 46.1404 61.2777 0.0000 0.0000 0.0000
# 2 46.1404 86.0893 65.9408 0.0000 0.0000 0.0000
# 3 61.2777 65.9408 150.5926 0.0000 0.0000 0.0000
# 4 0.0000 0.0000 0.0000 34.5527 0.0000 0.0000
# 5 0.0000 0.0000 0.0000 0.0000 17.7721 0.0000
# 6 0.0000 0.0000 0.0000 0.0000 0.0000 24.4223
#
#
#
# Elastic Compliance Matrix: (Units=1/GPa)
#
#
# Indices 1 2 3 4 5 6 
#
# 1 0.012307 -0.004153 -0.003189 0.000000 0.000000 0.000000
# 2 -0.004153 0.018879 -0.006577 0.000000 0.000000 0.000000
# 3 -0.003189 -0.006577 0.010818 0.000000 0.000000 0.000000
# 4 0.000000 0.000000 0.000000 0.028941 0.000000 0.000000
# 5 0.000000 0.000000 0.000000 0.000000 0.056268 0.000000
# 6 0.000000 0.000000 0.000000 0.000000 0.000000 0.040946
#
#
# Mechanical properties :
#
#
# Convention : Reuss Voigt Hill
#
# Bulk Modulus (GPa) = 70.59295 77.34524 73.96910
# Shear Modulus (GPa) = 24.91038 27.08480 25.99759
#
# Velocity S-wave (km/s) = 3.73201 3.89148 3.81258
# Velocity P-wave (km/s) = 7.61843 7.96472 7.79350
#
# Compressibility (1/GPa) = 0.01416572
#
# Stress axis : x y z
#
# Youngs Moduli (GPa) = 81.25710 52.96795 92.43865
#
# Poissons Ratio (x) = 0.21998 0.29480
# Poissons Ratio (y) = 0.33747 0.60796
# Poissons Ratio (z) = 0.25914 0.34836
#
# Static dielectric constant tensor:
#      x y z
#    x 28.095470 0.000000 0.000000 
#    y 0.000000 3.490790 0.000000 
#    z 0.000000 0.000000 3.446780 
# 
# 
# High freq. dielectric constant tensor:
#      x y z
#    x 1.677590 0.000000 0.000000 
#    y 0.000000 1.705720 0.000000 
#    z 0.000000 0.000000 1.683140 
# 
# From -- ./inp_files/8144.got.cif
#   From: 2010.06.25/outbox.cif.g09.slc.cpg/sg71_5_cif.got.tgz:8144.got - 2010.06.28 04:59:45.
