data_PCOD8288486
_publ_section_title
;
Structure prediction by ZEFSAII (Michael W. Deem and Ramdas Pophale) SiO2 
 PCOD8288486
Probable space group: I M M M
;
_chemical_formula_sum "Si O2"
_cell_formula_units_Z 96
_cell_length_a 11.519386
_cell_length_b 28.084914
_cell_length_c 18.737902
_cell_angle_alpha 90.000000
_cell_angle_beta 90.000000
_cell_angle_gamma 90.000000
_cell_volume 6062.104140
_symmetry_space_group_name_H-M "I M M M"
_symmetry_group_IT_number 71
_symmetry_cell_setting 'orthorhombic'
loop_
_space_group_symop_operation_xyz
x,y,z
-x,-y,z
x,-y,-z
-x,y,-z
-x,-y,-z
x,y,-z
-x,y,z
x,-y,z
1/2+x,1/2+y,1/2+z
1/2-x,1/2-y,1/2+z
1/2+x,1/2-y,1/2-z
1/2-x,1/2+y,1/2-z
1/2-x,1/2-y,1/2-z
1/2+x,1/2+y,1/2-z
1/2-x,1/2+y,1/2+z
1/2+x,1/2-y,1/2+z
loop_
_atom_site_type_symbol
_atom_site_label
_atom_site_fract_x
_atom_site_fract_y
_atom_site_fract_z
Si Si1 0.862765 0.775799 0.421052
Si Si2 0.362323 0.621518 0.919698
Si Si3 0.267291 0.413942 0.647619
Si Si4 0.136623 0.944448 0.706235
Si Si5 0.500000 0.446760 0.583415
Si Si6 0.363113 0.000000 0.080445
Si Si7 0.364518 0.827429 0.084835
O O1 0.809926 0.777250 0.500000
O O2 0.823871 0.826478 0.386289
O O3 0.824054 0.725323 0.386578
O O4 0.000000 0.773520 0.425833
O O5 0.500000 0.620233 0.924875
O O6 0.319840 0.579919 0.867126
O O7 0.311809 0.613458 0.000000
O O8 0.289072 0.420125 0.731505
O O9 0.388192 0.417691 0.606627
O O10 0.178538 0.453554 0.621061
O O11 0.212521 0.362952 0.631267
O O12 0.000000 0.935841 0.720444
O O13 0.165412 0.000000 0.700969
O O14 0.500000 0.500000 0.619053
O O15 0.500000 0.452713 0.500000
O O16 0.500000 0.000000 0.078608
O O17 0.312120 0.000000 0.000000
O O18 0.500000 0.836860 0.100564
O O19 0.341155 0.833270 0.000000
#
# Coordination Sequence:
#
# PCOD8288486 Si02
#       7
#    16  16  16  16   8   8  16
#     4   7  11  23  43  66  89 113 143 182 230 278
#     4   8  14  26  47  70  90 115 148 184 227 281
#     4  12  20  31  43  62  91 124 158 186 221 270
#     4  10  19  31  43  61  93 129 154 182 224 269
#     4  11  20  30  44  58  79 123 171 197 209 251
#     4  11  22  33  47  65  86 114 154 204 239 256
#     4   9  17  29  46  67  91 117 149 194 238 266
#
# _framework density 15.836085000000001
#
# number of rings (size 3 to 8) (size 9 to 14) (size 15 to 20)
#    0.000    2.500    2.500    4.000    0.000    1.667 
#    0.000    2.500    0.000    0.000    0.000    0.000 
#    0.000    3.333    1.500    0.000    0.000    0.000 
#
# Total GULP energy -594629.394563 kJ/mol
# GULP energy per Si atom -12388.112387 kJ/mol
# Density = 1.580004 g / cm^3
# Si number density = 15.836085 Si / 1000 Ang^3
#
#
#
# Elastic Constant Matrix: (Units=GPa)
#
#
# Indices 1 2 3 4 5 6 
#
# 1 42.6438 30.7460 25.2840 0.0000 0.0000 0.0000
# 2 30.7460 127.8268 64.3150 0.0001 0.0000 0.0000
# 3 25.2840 64.3150 93.6140 -0.0014 0.0001 0.0000
# 4 0.0000 0.0001 -0.0014 5.6112 0.0000 0.0000
# 5 0.0000 0.0000 0.0001 0.0000 18.3334 0.0000
# 6 0.0000 0.0000 0.0000 0.0000 0.0000 2.8762
#
#
#
# Elastic Compliance Matrix: (Units=1/GPa)
#
#
# Indices 1 2 3 4 5 6 
#
# 1 0.029695 -0.004749 -0.004758 -0.000001 0.000000 0.000000
# 2 -0.004749 0.012715 -0.007453 -0.000002 0.000000 0.000000
# 3 -0.004758 -0.007453 0.017088 0.000004 0.000000 0.000000
# 4 -0.000001 -0.000002 0.000004 0.178215 0.000000 0.000001
# 5 0.000000 0.000000 0.000000 0.000000 0.054545 0.000000
# 6 0.000000 0.000000 0.000000 0.000001 0.000000 0.347685
#
#
# Mechanical properties :
#
#
# Convention : Reuss Voigt Hill
#
# Bulk Modulus (GPa) = 39.09518 56.08607 47.59063
# Shear Modulus (GPa) = 7.32721 14.94679 11.13700
#
# Velocity S-wave (km/s) = 2.15336 3.07554 2.65480
# Velocity P-wave (km/s) = 5.56090 6.93581 6.28606
#
# Compressibility (1/GPa) = 0.02557860
#
# Stress axis : x y z
#
# Youngs Moduli (GPa) = 33.67605 78.64583 58.52178
#
# Poissons Ratio (x) = 0.37346 0.27843
# Poissons Ratio (y) = 0.15991 0.43617
# Poissons Ratio (z) = 0.16022 0.58616
#
# Static dielectric constant tensor:
#      x y z
#    x 2.633650 0.000000 0.000000 
#    y 0.000000 3.398770 0.000000 
#    z 0.000000 0.000000 2.999180 
# 
# 
# High freq. dielectric constant tensor:
#      x y z
#    x 1.561020 0.000000 0.000000 
#    y 0.000000 1.624630 0.000000 
#    z 0.000000 0.000000 1.587810 
# 
# From -- ./inp_files/52310.got.cif
#   From: 2010.06.25/outbox.cif.g09.slc.cpg/sg71_27_cif.got.tgz:52310.got - 2010.06.28 04:59:45.
