data_PCOD8288119
_publ_section_title
;
Structure prediction by ZEFSAII (Michael W. Deem and Ramdas Pophale) SiO2 
 PCOD8288119
Probable space group: I M M M
;
_chemical_formula_sum "Si O2"
_cell_formula_units_Z 112
_cell_length_a 18.607826
_cell_length_b 18.319020
_cell_length_c 19.853805
_cell_angle_alpha 90.000000
_cell_angle_beta 90.000000
_cell_angle_gamma 90.000000
_cell_volume 6767.708200
_symmetry_space_group_name_H-M "I M M M"
_symmetry_group_IT_number 71
_symmetry_cell_setting 'orthorhombic'
loop_
_space_group_symop_operation_xyz
x,y,z
-x,-y,z
x,-y,-z
-x,y,-z
-x,-y,-z
x,y,-z
-x,y,z
x,-y,z
1/2+x,1/2+y,1/2+z
1/2-x,1/2-y,1/2+z
1/2+x,1/2-y,1/2-z
1/2-x,1/2+y,1/2-z
1/2-x,1/2-y,1/2-z
1/2+x,1/2+y,1/2-z
1/2-x,1/2+y,1/2+z
1/2+x,1/2-y,1/2+z
loop_
_atom_site_type_symbol
_atom_site_label
_atom_site_fract_x
_atom_site_fract_y
_atom_site_fract_z
Si Si1 0.827873 0.418600 0.187011
Si Si2 0.418877 0.418317 0.146033
Si Si3 0.219607 0.883910 0.574842
Si Si4 0.713202 0.189241 0.796923
Si Si5 0.283300 0.728939 0.425622
Si Si6 0.080976 0.711256 0.862478
Si Si7 0.420359 0.274963 0.220091
O O1 0.856410 0.500000 0.202751
O O2 0.767396 0.425320 0.129670
O O3 0.793026 0.385621 0.255188
O O4 0.893919 0.369045 0.161538
O O5 0.500000 0.408937 0.117956
O O6 0.408040 0.500000 0.175584
O O7 0.363988 0.403388 0.085159
O O8 0.402772 0.359765 0.204966
O O9 0.242074 0.909896 0.500000
O O10 0.230105 0.797373 0.582100
O O11 0.750000 0.250000 0.750000
O O12 0.759191 0.174523 0.865268
O O13 0.634478 0.219944 0.816772
O O14 0.275597 0.692778 0.500000
O O15 0.365583 0.756592 0.418682
O O16 0.084956 0.766839 0.800296
O O17 0.000000 0.705515 0.891535
O O18 0.500000 0.253805 0.194327
#
# Coordination Sequence:
#
# PCOD8288119 Si02
#       7
#    16  16  16  16  16  16  16
#     4  10  20  31  49  75  98 127 165 200 245 295
#     4  10  19  28  40  62  93 126 158 191 228 274
#     4  10  19  31  45  64  93 126 159 191 228 280
#     4  11  16  32  52  69  94 125 164 205 243 285
#     4  10  19  31  51  73  94 125 165 204 245 289
#     4   9  18  32  50  69  97 129 160 204 247 289
#     4   9  16  28  46  67  91 123 157 197 243 282
#
# _framework density 16.549177
#
# number of rings (size 3 to 8) (size 9 to 14) (size 15 to 20)
#    0.000    2.143    5.714    0.429    0.000    2.000 
#    0.000    0.714    0.000    0.857    0.000    4.000 
#    0.000    0.000    0.000   14.000    0.000    0.000 
#
# Total GULP energy -694044.531587 kJ/mol
# GULP energy per Si atom -12393.652350 kJ/mol
# Density = 1.651151 g / cm^3
# Si number density = 16.549177 Si / 1000 Ang^3
#
#
#
# Elastic Constant Matrix: (Units=GPa)
#
#
# Indices 1 2 3 4 5 6 
#
# 1 100.7319 27.8169 38.6182 0.0000 0.0000 0.0000
# 2 27.8169 65.7489 34.3662 0.0000 0.0000 0.0000
# 3 38.6182 34.3662 99.5546 0.0000 0.0000 0.0000
# 4 0.0000 0.0000 0.0000 11.0429 0.0000 0.0000
# 5 0.0000 0.0000 0.0000 0.0000 17.0107 0.0000
# 6 0.0000 0.0000 0.0000 0.0000 0.0000 15.3085
#
#
#
# Elastic Compliance Matrix: (Units=1/GPa)
#
#
# Indices 1 2 3 4 5 6 
#
# 1 0.012216 -0.003284 -0.003605 0.000000 0.000000 0.000000
# 2 -0.003284 0.019441 -0.005437 0.000000 0.000000 0.000000
# 3 -0.003605 -0.005437 0.013320 0.000000 0.000000 0.000000
# 4 0.000000 0.000000 0.000000 0.090556 0.000000 0.000000
# 5 0.000000 0.000000 0.000000 0.000000 0.058787 0.000000
# 6 0.000000 0.000000 0.000000 0.000000 0.000000 0.065323
#
#
# Mechanical properties :
#
#
# Convention : Reuss Voigt Hill
#
# Bulk Modulus (GPa) = 49.20149 51.95980 50.58065
# Shear Modulus (GPa) = 17.17800 19.68802 18.43301
#
# Velocity S-wave (km/s) = 3.22529 3.45290 3.34103
# Velocity P-wave (km/s) = 6.60795 6.88201 6.74637
#
# Compressibility (1/GPa) = 0.02032459
#
# Stress axis : x y z
#
# Youngs Moduli (GPa) = 81.85730 51.43861 75.07463
#
# Poissons Ratio (x) = 0.16893 0.27066
# Poissons Ratio (y) = 0.26883 0.40818
# Poissons Ratio (z) = 0.29511 0.27967
#
# Static dielectric constant tensor:
#      x y z
#    x 3.419100 0.000000 0.000000 
#    y 0.000000 2.926410 0.000000 
#    z 0.000000 0.000000 3.037330 
# 
# 
# High freq. dielectric constant tensor:
#      x y z
#    x 1.649900 0.000000 0.000000 
#    y 0.000000 1.604960 0.000000 
#    z 0.000000 0.000000 1.616330 
# 
# From -- ./inp_files/54283.got.cif
#   From: 2010.06.25/outbox.cif.g09.slc.cpg/sg71_28_cif.got.tgz:54283.got - 2010.06.28 04:59:45.
