data_PCOD8288949
_publ_section_title
;
Structure prediction by ZEFSAII (Michael W. Deem and Ramdas Pophale) SiO2 
 PCOD8288949
Probable space group: I M M M
;
_chemical_formula_sum "Si O2"
_cell_formula_units_Z 96
_cell_length_a 14.241500
_cell_length_b 24.968769
_cell_length_c 14.187901
_cell_angle_alpha 90.000000
_cell_angle_beta 90.000000
_cell_angle_gamma 90.000000
_cell_volume 5045.114360
_symmetry_space_group_name_H-M "I M M M"
_symmetry_group_IT_number 71
_symmetry_cell_setting 'orthorhombic'
loop_
_space_group_symop_operation_xyz
x,y,z
-x,-y,z
x,-y,-z
-x,y,-z
-x,-y,-z
x,y,-z
-x,y,z
x,-y,z
1/2+x,1/2+y,1/2+z
1/2-x,1/2-y,1/2+z
1/2+x,1/2-y,1/2-z
1/2-x,1/2+y,1/2-z
1/2-x,1/2-y,1/2-z
1/2+x,1/2+y,1/2-z
1/2-x,1/2+y,1/2+z
1/2+x,1/2-y,1/2+z
loop_
_atom_site_type_symbol
_atom_site_label
_atom_site_fract_x
_atom_site_fract_y
_atom_site_fract_z
Si Si1 0.208814 0.745847 0.892206
Si Si2 0.606692 0.438775 0.761617
Si Si3 0.223917 0.562169 0.107805
Si Si4 0.609276 0.353832 0.606869
Si Si5 0.104490 0.700959 0.394832
Si Si6 0.892379 0.350736 0.793576
O O1 0.163635 0.801444 0.857749
O O2 0.321204 0.751136 0.876913
O O3 0.170489 0.697513 0.831597
O O4 0.181962 0.734387 0.000000
O O5 0.500000 0.426145 0.792862
O O6 0.617256 0.500000 0.728413
O O7 0.672545 0.426634 0.851059
O O8 0.638391 0.403068 0.673154
O O9 0.197114 0.500000 0.113868
O O10 0.146150 0.593138 0.168647
O O11 0.223320 0.582515 0.000000
O O12 0.637948 0.368851 0.500000
O O13 0.500000 0.340826 0.614207
O O14 0.120783 0.676889 0.500000
O O15 0.115639 0.652291 0.320246
O O16 0.000000 0.726184 0.385374
O O17 0.000000 0.344376 0.827113
#
# Coordination Sequence:
#
# PCOD8288949 Si02
#       6
#    16  16  16  16  16  16
#     4  10  19  32  52  77 107 140 173 211 253 300
#     4   9  18  33  53  76 103 138 178 215 254 306
#     4  10  22  39  56  75 101 132 170 219 268 311
#     4   9  17  29  48  77 111 143 174 212 258 304
#     4   9  19  35  54  78 108 140 171 204 248 303
#     4  11  22  36  57  80 103 135 173 213 258 310
#
# _framework density 19.028310000000001
#
# number of rings (size 3 to 8) (size 9 to 14) (size 15 to 20)
#    0.000    2.333    0.000    2.500    0.000    3.000 
#    0.000    6.667    0.000    3.500    0.000    2.333 
#    0.000    0.000    0.000    0.000    0.000    0.000 
#
# Total GULP energy -595152.748506 kJ/mol
# GULP energy per Si atom -12399.015594 kJ/mol
# Density = 1.898500 g / cm^3
# Si number density = 19.028310 Si / 1000 Ang^3
#
#
#
# Elastic Constant Matrix: (Units=GPa)
#
#
# Indices 1 2 3 4 5 6 
#
# 1 108.1056 51.3996 57.6818 -0.0001 0.0000 0.0000
# 2 51.3996 84.1369 54.8975 0.0000 0.0000 0.0000
# 3 57.6818 54.8975 111.7664 0.0002 0.0000 0.0000
# 4 -0.0001 0.0000 0.0002 24.4973 0.0000 0.0000
# 5 0.0000 0.0000 0.0000 0.0000 28.0046 0.0000
# 6 0.0000 0.0000 0.0000 0.0000 0.0000 24.9357
#
#
#
# Elastic Compliance Matrix: (Units=1/GPa)
#
#
# Indices 1 2 3 4 5 6 
#
# 1 0.014487 -0.005845 -0.004606 0.000000 0.000000 0.000000
# 2 -0.005845 0.019849 -0.006733 0.000000 0.000000 0.000000
# 3 -0.004606 -0.006733 0.014631 0.000000 0.000000 0.000000
# 4 0.000000 0.000000 0.000000 0.040821 0.000000 0.000000
# 5 0.000000 0.000000 0.000000 0.000000 0.035708 0.000000
# 6 0.000000 0.000000 0.000000 0.000000 0.000000 0.040103
#
#
# Mechanical properties :
#
#
# Convention : Reuss Voigt Hill
#
# Bulk Modulus (GPa) = 68.49256 70.21850 69.35553
# Shear Modulus (GPa) = 24.41012 24.82286 24.61649
#
# Velocity S-wave (km/s) = 3.58555 3.61574 3.60067
# Velocity P-wave (km/s) = 7.29485 7.37656 7.33582
#
# Compressibility (1/GPa) = 0.01460013
#
# Stress axis : x y z
#
# Youngs Moduli (GPa) = 69.02941 50.37982 68.34693
#
# Poissons Ratio (x) = 0.29447 0.31477
# Poissons Ratio (y) = 0.40347 0.46018
# Poissons Ratio (z) = 0.31792 0.33921
#
# Static dielectric constant tensor:
#      x y z
#    x 3.697090 0.000000 0.000000 
#    y 0.000000 3.308130 0.000000 
#    z 0.000000 0.000000 3.698620 
# 
# 
# High freq. dielectric constant tensor:
#      x y z
#    x 1.751760 0.000000 0.000000 
#    y 0.000000 1.713180 0.000000 
#    z 0.000000 0.000000 1.748560 
# 
# From -- ./inp_files/34526.got.cif
#   From: 2010.06.25/outbox.cif.g09.slc.cpg/sg71_18_cif.got.tgz:34526.got - 2010.06.28 04:59:45.
