data_PCOD8288325
_publ_section_title
;
Structure prediction by ZEFSAII (Michael W. Deem and Ramdas Pophale) SiO2 
 PCOD8288325
Probable space group: I M M M
;
_chemical_formula_sum "Si O2"
_cell_formula_units_Z 88
_cell_length_a 17.857728
_cell_length_b 25.548541
_cell_length_c 11.514708
_cell_angle_alpha 90.000000
_cell_angle_beta 90.000000
_cell_angle_gamma 90.000000
_cell_volume 5253.457665
_symmetry_space_group_name_H-M "I M M M"
_symmetry_group_IT_number 71
_symmetry_cell_setting 'orthorhombic'
loop_
_space_group_symop_operation_xyz
x,y,z
-x,-y,z
x,-y,-z
-x,y,-z
-x,-y,-z
x,y,-z
-x,y,z
x,-y,z
1/2+x,1/2+y,1/2+z
1/2-x,1/2-y,1/2+z
1/2+x,1/2-y,1/2-z
1/2-x,1/2+y,1/2-z
1/2-x,1/2-y,1/2-z
1/2+x,1/2+y,1/2-z
1/2-x,1/2+y,1/2+z
1/2+x,1/2-y,1/2+z
loop_
_atom_site_type_symbol
_atom_site_label
_atom_site_fract_x
_atom_site_fract_y
_atom_site_fract_z
Si Si1 0.087714 0.941284 0.000000
Si Si2 0.583244 0.000000 0.137062
Si Si3 0.681720 0.902015 0.138149
Si Si4 0.414518 0.500000 0.137306
Si Si5 0.655202 0.595616 0.267908
Si Si6 0.917544 0.306360 0.637498
Si Si7 0.412560 0.311222 0.865957
O O1 0.112478 0.908918 0.888817
O O2 0.000000 0.946804 0.000000
O O3 0.123764 0.000000 0.000000
O O4 0.627062 0.051511 0.177250
O O5 0.500000 0.000000 0.192712
O O6 0.575731 0.000000 0.000000
O O7 0.756833 0.909332 0.210726
O O8 0.643772 0.847911 0.180020
O O9 0.698325 0.903052 0.000000
O O10 0.500000 0.500000 0.185052
O O11 0.371604 0.449008 0.180434
O O12 0.414419 0.500000 0.000000
O O13 0.637516 0.651743 0.213573
O O14 0.923626 0.308637 0.500000
O O15 0.894299 0.247869 0.675406
O O16 0.000000 0.320187 0.688648
O O17 0.500000 0.324232 0.848665
O O18 0.390209 0.319416 0.000000
#
# Coordination Sequence:
#
# PCOD8288325 Si02
#       7
#     8   8  16   8  16  16  16
#     4  11  22  34  48  66  96 142 174 189 225 301
#     4   9  17  28  46  68  94 129 161 193 234 293
#     4  10  19  30  45  72 107 133 157 194 247 299
#     4  11  23  37  53  71  93 125 168 214 249 283
#     4  12  21  32  49  72 103 132 160 203 248 293
#     4   8  15  30  51  71  96 131 167 204 248 296
#     4   9  18  33  52  72  94 127 172 216 248 281
#
# _framework density 16.750872999999999
#
# number of rings (size 3 to 8) (size 9 to 14) (size 15 to 20)
#    0.000    2.091    1.818    4.364    0.000    4.364 
#    0.000    0.000    0.000    0.000    0.000    0.000 
#    0.000   26.909    0.000    0.000    0.000    0.000 
#
# Total GULP energy -545579.526760 kJ/mol
# GULP energy per Si atom -12399.534699 kJ/mol
# Density = 1.671275 g / cm^3
# Si number density = 16.750873 Si / 1000 Ang^3
#
#
#
# Elastic Constant Matrix: (Units=GPa)
#
#
# Indices 1 2 3 4 5 6 
#
# 1 134.4151 75.2413 38.4069 0.0000 0.0000 0.0000
# 2 75.2413 133.1136 37.3102 0.0000 0.0000 0.0000
# 3 38.4069 37.3102 53.8788 0.0000 -0.0001 0.0000
# 4 0.0000 0.0000 0.0000 6.3353 -0.0001 0.0000
# 5 0.0000 0.0000 -0.0001 -0.0001 11.2335 0.0000
# 6 0.0000 0.0000 0.0000 0.0000 0.0000 14.0494
#
#
#
# Elastic Compliance Matrix: (Units=1/GPa)
#
#
# Indices 1 2 3 4 5 6 
#
# 1 0.011768 -0.005336 -0.004693 0.000000 0.000000 0.000000
# 2 -0.005336 0.011741 -0.004327 0.000000 0.000000 0.000000
# 3 -0.004693 -0.004327 0.024902 0.000000 0.000000 0.000000
# 4 0.000000 0.000000 0.000000 0.157846 0.000001 0.000000
# 5 0.000000 0.000000 0.000000 0.000001 0.089020 0.000000
# 6 0.000000 0.000000 0.000000 0.000000 0.000000 0.071178
#
#
# Mechanical properties :
#
#
# Convention : Reuss Voigt Hill
#
# Bulk Modulus (GPa) = 50.76541 69.25825 60.01183
# Shear Modulus (GPa) = 12.44608 17.68690 15.06649
#
# Velocity S-wave (km/s) = 2.72878 3.25295 3.00233
# Velocity P-wave (km/s) = 6.34825 7.45284 6.92261
#
# Compressibility (1/GPa) = 0.01969845
#
# Stress axis : x y z
#
# Youngs Moduli (GPa) = 84.97877 85.16920 40.15738
#
# Poissons Ratio (x) = 0.45447 0.18847
# Poissons Ratio (y) = 0.45345 0.17376
# Poissons Ratio (z) = 0.39883 0.36852
#
# Static dielectric constant tensor:
#      x y z
#    x 3.275070 0.000000 0.000000 
#    y 0.000000 3.431700 0.000000 
#    z 0.000000 0.000000 2.801460 
# 
# 
# High freq. dielectric constant tensor:
#      x y z
#    x 1.648460 0.000000 0.000000 
#    y 0.000000 1.659960 0.000000 
#    z 0.000000 0.000000 1.602360 
# 
# From -- ./inp_files/22378.got.cif
#   From: 2010.06.25/outbox.cif.g09.slc.cpg/sg71_12_cif.got.tgz:22378.got - 2010.06.28 04:59:45.
