data_PCOD8288834
_publ_section_title
;
Structure prediction by ZEFSAII (Michael W. Deem and Ramdas Pophale) SiO2 
 PCOD8288834
Probable space group: I M M M
;
_chemical_formula_sum "Si O2"
_cell_formula_units_Z 120
_cell_length_a 27.495001
_cell_length_b 26.678135
_cell_length_c 9.232342
_cell_angle_alpha 90.000000
_cell_angle_beta 90.000000
_cell_angle_gamma 90.000000
_cell_volume 6772.064560
_symmetry_space_group_name_H-M "I M M M"
_symmetry_group_IT_number 71
_symmetry_cell_setting 'orthorhombic'
loop_
_space_group_symop_operation_xyz
x,y,z
-x,-y,z
x,-y,-z
-x,y,-z
-x,-y,-z
x,y,-z
-x,y,z
x,-y,z
1/2+x,1/2+y,1/2+z
1/2-x,1/2-y,1/2+z
1/2+x,1/2-y,1/2-z
1/2-x,1/2+y,1/2-z
1/2-x,1/2-y,1/2-z
1/2+x,1/2+y,1/2-z
1/2-x,1/2+y,1/2+z
1/2+x,1/2-y,1/2+z
loop_
_atom_site_type_symbol
_atom_site_label
_atom_site_fract_x
_atom_site_fract_y
_atom_site_fract_z
Si Si1 0.319388 0.942641 0.668340
Si Si2 0.354430 0.851357 0.829286
Si Si3 0.618947 0.407260 0.329615
Si Si4 0.606309 0.704958 0.667566
Si Si5 0.291769 0.557988 0.163228
Si Si6 0.055050 0.000000 0.172613
Si Si7 0.054099 0.712179 0.332769
Si Si8 0.701190 0.766294 0.328780
O O1 0.327733 0.929657 0.500000
O O2 0.352419 0.907992 0.770452
O O3 0.263478 0.933255 0.712345
O O4 0.334057 0.000000 0.698876
O O5 0.408544 0.831948 0.792625
O O6 0.315236 0.818691 0.741556
O O7 0.342944 0.849201 0.000000
O O8 0.624441 0.412518 0.500000
O O9 0.599147 0.352708 0.285311
O O10 0.672941 0.411360 0.266643
O O11 0.582673 0.450246 0.269395
O O12 0.595179 0.712214 0.500000
O O13 0.566136 0.736642 0.750912
O O14 0.660756 0.723947 0.703235
O O15 0.305459 0.500000 0.174658
O O16 0.299169 0.577257 0.000000
O O17 0.000000 0.000000 0.233855
O O18 0.054089 0.000000 0.000000
O O19 0.057978 0.725750 0.500000
O O20 0.000000 0.693999 0.290043
O O21 0.710053 0.773783 0.500000
O O22 0.750000 0.750000 0.250000
#
# Coordination Sequence:
#
# PCOD8288834 Si02
#       8
#    16  16  16  16  16   8  16  16
#     4   9  19  35  53  77 110 145 177 211 255 308
#     4  10  20  34  54  80 107 137 176 218 261 313
#     4  10  19  32  50  72  98 130 170 216 260 306
#     4   9  20  34  49  74 103 131 171 220 261 306
#     4   9  18  32  49  70  98 134 172 206 247 301
#     4   9  18  32  49  69  95 129 167 209 262 313
#     4   9  19  37  58  78 102 133 171 215 264 317
#     4  10  20  34  49  71 106 142 176 216 264 315
#
# _framework density 17.719854999999999
#
# number of rings (size 3 to 8) (size 9 to 14) (size 15 to 20)
#    0.000    2.600    0.667    1.600    1.867    3.200 
#    0.000    2.667    0.000    1.200    0.000    2.800 
#    0.000    0.000    0.000    0.000    0.000    0.000 
#
# Total GULP energy -743992.825793 kJ/mol
# GULP energy per Si atom -12399.880430 kJ/mol
# Density = 1.767952 g / cm^3
# Si number density = 17.719855 Si / 1000 Ang^3
#
#
#
# Elastic Constant Matrix: (Units=GPa)
#
#
# Indices 1 2 3 4 5 6 
#
# 1 102.5085 59.9425 44.3690 0.0000 0.0000 0.0000
# 2 59.9425 120.7849 51.2861 0.0000 0.0000 0.0000
# 3 44.3690 51.2861 59.8794 0.0000 0.0000 0.0000
# 4 0.0000 0.0000 0.0000 27.7262 0.0000 0.0000
# 5 0.0000 0.0000 0.0000 0.0000 23.8470 0.0000
# 6 0.0000 0.0000 0.0000 0.0000 0.0000 19.0764
#
#
#
# Elastic Compliance Matrix: (Units=1/GPa)
#
#
# Indices 1 2 3 4 5 6 
#
# 1 0.015781 -0.004505 -0.007835 0.000000 0.000000 0.000000
# 2 -0.004505 0.014297 -0.008907 0.000000 0.000000 0.000000
# 3 -0.007835 -0.008907 0.030134 0.000000 0.000000 0.000000
# 4 0.000000 0.000000 0.000000 0.036067 0.000000 0.000000
# 5 0.000000 0.000000 0.000000 0.000000 0.041934 0.000000
# 6 0.000000 0.000000 0.000000 0.000000 0.000000 0.052421
#
#
# Mechanical properties :
#
#
# Convention : Reuss Voigt Hill
#
# Bulk Modulus (GPa) = 56.43798 66.04089 61.23944
# Shear Modulus (GPa) = 20.91762 22.63495 21.77628
#
# Velocity S-wave (km/s) = 3.43951 3.57792 3.50940
# Velocity P-wave (km/s) = 6.90601 7.37692 7.14535
#
# Compressibility (1/GPa) = 0.01771856
#
# Stress axis : x y z
#
# Youngs Moduli (GPa) = 63.36882 69.94539 33.18472
#
# Poissons Ratio (x) = 0.31510 0.25999
# Poissons Ratio (y) = 0.28547 0.29558
# Poissons Ratio (z) = 0.49647 0.62301
#
# Static dielectric constant tensor:
#      x y z
#    x 3.292000 0.000000 0.000000 
#    y 0.000000 3.348610 0.000000 
#    z 0.000000 0.000000 3.201870 
# 
# 
# High freq. dielectric constant tensor:
#      x y z
#    x 1.674090 0.000000 0.000000 
#    y 0.000000 1.684500 0.000000 
#    z 0.000000 0.000000 1.679250 
# 
# From -- ./inp_files/15665.got.cif
#   From: 2010.06.25/outbox.cif.g09.slc.cpg/sg71_8_cif.got.tgz:15665.got - 2010.06.28 04:59:45.
