data_PCOD8288055
_publ_section_title
;
Structure prediction by ZEFSAII (Michael W. Deem and Ramdas Pophale) SiO2 
 PCOD8288055
Probable space group: I M M M
;
_chemical_formula_sum "Si O2"
_cell_formula_units_Z 72
_cell_length_a 23.154664
_cell_length_b 15.315637
_cell_length_c 11.491453
_cell_angle_alpha 90.000000
_cell_angle_beta 90.000000
_cell_angle_gamma 90.000000
_cell_volume 4075.195921
_symmetry_space_group_name_H-M "I M M M"
_symmetry_group_IT_number 71
_symmetry_cell_setting 'orthorhombic'
loop_
_space_group_symop_operation_xyz
x,y,z
-x,-y,z
x,-y,-z
-x,y,-z
-x,-y,-z
x,y,-z
-x,y,z
x,-y,z
1/2+x,1/2+y,1/2+z
1/2-x,1/2-y,1/2+z
1/2+x,1/2-y,1/2-z
1/2-x,1/2+y,1/2-z
1/2-x,1/2-y,1/2-z
1/2+x,1/2+y,1/2-z
1/2-x,1/2+y,1/2+z
1/2+x,1/2-y,1/2+z
loop_
_atom_site_type_symbol
_atom_site_label
_atom_site_fract_x
_atom_site_fract_y
_atom_site_fract_z
Si Si1 0.434930 0.500000 0.637122
Si Si2 0.866143 0.668779 0.864097
Si Si3 0.623557 0.655523 0.233827
Si Si4 0.934745 0.500000 0.861757
Si Si5 0.931748 0.899966 0.500000
Si Si6 0.759552 0.100921 0.633241
O O1 0.500000 0.500000 0.689076
O O2 0.436696 0.500000 0.500000
O O3 0.401644 0.585062 0.678381
O O4 0.887317 0.750464 0.789449
O O5 0.901931 0.585967 0.816695
O O6 0.798538 0.653952 0.842496
O O7 0.878772 0.685778 0.000000
O O8 0.691545 0.638302 0.217749
O O9 0.590675 0.651081 0.111942
O O10 0.000000 0.500000 0.813543
O O11 0.933337 0.500000 0.000000
O O12 0.000000 0.900003 0.500000
O O13 0.907902 0.000000 0.500000
O O14 0.780012 0.112509 0.500000
O O15 0.747524 0.000000 0.660787
#
# Coordination Sequence:
#
# PCOD8288055 Si02
#       6
#     8  16  16   8   8  16
#     4  11  24  38  53  79 119 155 183 229 292 348
#     4  10  21  36  58  87 116 146 186 236 290 342
#     4  12  21  36  58  85 114 148 191 237 281 342
#     4   9  18  35  56  79 109 146 186 227 271 331
#     4  11  22  38  58  83 113 153 199 236 271 329
#     4  10  18  34  59  85 111 146 188 236 284 332
#
# _framework density 17.667863000000001
#
# number of rings (size 3 to 8) (size 9 to 14) (size 15 to 20)
#    0.000    1.444    4.444    2.000    0.000    1.778 
#    0.000    2.222    0.000    0.667    0.000    1.556 
#    0.000    0.000    0.000    0.000    0.000    0.000 
#
# Total GULP energy -446537.585173 kJ/mol
# GULP energy per Si atom -12403.821810 kJ/mol
# Density = 1.762765 g / cm^3
# Si number density = 17.667863 Si / 1000 Ang^3
#
#
#
# Elastic Constant Matrix: (Units=GPa)
#
#
# Indices 1 2 3 4 5 6 
#
# 1 105.6228 59.1244 42.0436 0.0000 0.0000 0.0000
# 2 59.1244 161.7642 59.9212 0.0000 0.0000 0.0000
# 3 42.0436 59.9212 74.9374 0.0000 0.0000 0.0000
# 4 0.0000 0.0000 0.0000 65.9232 0.0000 0.0000
# 5 0.0000 0.0000 0.0000 0.0000 20.8475 0.0000
# 6 0.0000 0.0000 0.0000 0.0000 0.0000 -2.2974
#
#
#
# Elastic Compliance Matrix: (Units=1/GPa)
#
#
# Indices 1 2 3 4 5 6 
#
# 1 0.013103 -0.002935 -0.005004 0.000000 0.000000 0.000000
# 2 -0.002935 0.009441 -0.005902 0.000000 0.000000 0.000000
# 3 -0.005004 -0.005902 0.020872 0.000000 0.000000 0.000000
# 4 0.000000 0.000000 0.000000 0.015169 0.000000 0.000000
# 5 0.000000 0.000000 0.000000 0.000000 0.047967 0.000000
# 6 0.000000 0.000000 0.000000 0.000000 0.000000 -0.435266
#
#
# Mechanical properties :
#
#
# Convention : Reuss Voigt Hill
#
# Bulk Modulus (GPa) = 63.56562 73.83365 68.69964
# Shear Modulus (GPa) = -16.90409 28.97700 6.03645
#
# Velocity S-wave (km/s) = -3.09653 4.05420 1.85042
# Velocity P-wave (km/s) = 4.82406 7.98724 6.59801
#
# Compressibility (1/GPa) = 0.01573177
#
# Stress axis : x y z
#
# Youngs Moduli (GPa) = 76.32029 105.92016 47.91197
#
# Poissons Ratio (x) = 0.31092 0.23975
# Poissons Ratio (y) = 0.22403 0.28279
# Poissons Ratio (z) = 0.38191 0.62518
#
# Static dielectric constant tensor:
#      x y z
#    x 3.468440 0.000000 0.000000 
#    y 0.000000 3.240460 0.000000 
#    z 0.000000 0.000000 3.148050 
# 
# 
# High freq. dielectric constant tensor:
#      x y z
#    x 1.700470 0.000000 0.000000 
#    y 0.000000 1.683970 0.000000 
#    z 0.000000 0.000000 1.660610 
# 
# From -- ./inp_files/27044.got.cif
#   From: 2010.06.25/outbox.cif.g09.slc.cpg/sg71_14_cif.got.tgz:27044.got - 2010.06.28 04:59:45.
