data_PCOD8288779
_publ_section_title
;
Structure prediction by ZEFSAII (Michael W. Deem and Ramdas Pophale) SiO2 
 PCOD8288779
Probable space group: I M M M
;
_chemical_formula_sum "Si O2"
_cell_formula_units_Z 128
_cell_length_a 9.658125
_cell_length_b 28.894289
_cell_length_c 25.966499
_cell_angle_alpha 90.000000
_cell_angle_beta 90.000000
_cell_angle_gamma 90.000000
_cell_volume 7246.332084
_symmetry_space_group_name_H-M "I M M M"
_symmetry_group_IT_number 71
_symmetry_cell_setting 'orthorhombic'
loop_
_space_group_symop_operation_xyz
x,y,z
-x,-y,z
x,-y,-z
-x,y,-z
-x,-y,-z
x,y,-z
-x,y,z
x,-y,z
1/2+x,1/2+y,1/2+z
1/2-x,1/2-y,1/2+z
1/2+x,1/2-y,1/2-z
1/2-x,1/2+y,1/2-z
1/2-x,1/2-y,1/2-z
1/2+x,1/2+y,1/2-z
1/2-x,1/2+y,1/2+z
1/2+x,1/2-y,1/2+z
loop_
_atom_site_type_symbol
_atom_site_label
_atom_site_fract_x
_atom_site_fract_y
_atom_site_fract_z
Si Si1 0.157462 0.212196 0.392328
Si Si2 0.658436 0.288071 0.559220
Si Si3 0.164721 0.107421 0.943569
Si Si4 0.334710 0.552056 0.346669
Si Si5 0.657772 0.708679 0.228759
Si Si6 0.334794 0.552428 0.147665
Si Si7 0.835206 0.893548 0.747582
Si Si8 0.335230 0.382310 0.942196
O O1 0.248767 0.256311 0.405123
O O2 0.166960 0.203361 0.332111
O O3 0.217292 0.167390 0.421919
O O4 0.000000 0.222025 0.409528
O O5 0.674149 0.273120 0.500000
O O6 0.500000 0.283276 0.577324
O O7 0.712319 0.340227 0.567435
O O8 0.224920 0.074189 0.899326
O O9 0.000000 0.106092 0.943883
O O10 0.219252 0.091245 0.000000
O O11 0.500000 0.552912 0.347048
O O12 0.278426 0.500000 0.342648
O O13 0.277576 0.580617 0.298059
O O14 0.500000 0.718003 0.246248
O O15 0.750000 0.750000 0.250000
O O16 0.713622 0.659796 0.250948
O O17 0.500000 0.552290 0.148838
O O18 0.277516 0.500000 0.148669
O O19 0.276537 0.580273 0.197108
O O20 0.280220 0.577338 0.095640
O O21 0.000000 0.895058 0.745267
O O22 0.500000 0.382348 0.941565
O O23 0.278450 0.391121 0.000000
#
# Coordination Sequence:
#
# PCOD8288779 Si02
#       8
#    16  16  16  16  16  16  16  16
#     4  10  19  32  48  68  94 126 162 197 236 284
#     4   9  18  31  47  69  96 127 162 195 231 280
#     4   8  15  27  40  58  88 121 150 185 231 278
#     4   9  16  24  38  61  85 115 155 190 226 279
#     4  10  21  34  49  70  97 127 160 196 239 287
#     4   9  15  24  39  58  85 120 152 186 229 276
#     4   9  16  28  42  60  88 119 151 190 234 279
#     4   9  16  26  40  60  88 121 154 188 231 280
#
# _framework density 17.664109
#
# number of rings (size 3 to 8) (size 9 to 14) (size 15 to 20)
#    0.000    2.875    1.250    1.500    1.750    3.250 
#    0.000    2.500    0.000    0.000    0.000    0.000 
#    0.000    5.000    0.000    5.375    0.000    5.250 
#
# Total GULP energy -793380.562311 kJ/mol
# GULP energy per Si atom -12396.571286 kJ/mol
# Density = 1.762390 g / cm^3
# Si number density = 17.664109 Si / 1000 Ang^3
#
#
#
# Elastic Constant Matrix: (Units=GPa)
#
#
# Indices 1 2 3 4 5 6 
#
# 1 22.0775 27.1772 17.4882 0.0000 0.0000 0.0000
# 2 27.1772 159.6219 86.5339 0.0000 0.0000 0.0000
# 3 17.4882 86.5339 135.1347 0.0001 0.0000 0.0000
# 4 0.0000 0.0000 0.0001 36.6598 0.0000 0.0000
# 5 0.0000 0.0000 0.0000 0.0000 13.4751 0.0000
# 6 0.0000 0.0000 0.0000 0.0000 0.0000 16.9345
#
#
#
# Elastic Compliance Matrix: (Units=1/GPa)
#
#
# Indices 1 2 3 4 5 6 
#
# 1 0.057589 -0.008830 -0.001798 0.000000 0.000000 0.000000
# 2 -0.008830 0.010950 -0.005869 0.000000 0.000000 0.000000
# 3 -0.001798 -0.005869 0.011391 0.000000 0.000000 0.000000
# 4 0.000000 0.000000 0.000000 0.027278 0.000000 0.000000
# 5 0.000000 0.000000 0.000000 0.000000 0.074211 0.000000
# 6 0.000000 0.000000 0.000000 0.000000 0.000000 0.059051
#
#
# Mechanical properties :
#
#
# Convention : Reuss Voigt Hill
#
# Bulk Modulus (GPa) = 21.30606 64.35920 42.83263
# Shear Modulus (GPa) = 17.29442 25.78954 21.54198
#
# Velocity S-wave (km/s) = 3.13241 3.82514 3.49597
# Velocity P-wave (km/s) = 5.01703 7.48485 6.37156
#
# Compressibility (1/GPa) = 0.04693500
#
# Stress axis : x y z
#
# Youngs Moduli (GPa) = 17.36433 91.32421 87.78819
#
# Poissons Ratio (x) = 0.80642 0.15787
# Poissons Ratio (y) = 0.15333 0.51524
# Poissons Ratio (z) = 0.03123 0.53599
#
# Static dielectric constant tensor:
#      x y z
#    x 2.608560 0.000000 0.000000 
#    y 0.000000 3.451720 0.000000 
#    z 0.000000 0.000000 3.549250 
# 
# 
# High freq. dielectric constant tensor:
#      x y z
#    x 1.598320 0.000000 0.000000 
#    y 0.000000 1.694830 0.000000 
#    z 0.000000 0.000000 1.698730 
# 
# From -- ./inp_files/59292.got.cif
#   From: 2010.06.25/outbox.cif.g09.slc.cpg/sg71_30_cif.got.tgz:59292.got - 2010.06.28 04:59:45.
