data_PCOD8288860
_publ_section_title
;
Structure prediction by ZEFSAII (Michael W. Deem and Ramdas Pophale) SiO2 
 PCOD8288860
Probable space group: I M M M
;
_chemical_formula_sum "Si O2"
_cell_formula_units_Z 128
_cell_length_a 24.806155
_cell_length_b 29.281689
_cell_length_c 9.701862
_cell_angle_alpha 90.000000
_cell_angle_beta 90.000000
_cell_angle_gamma 90.000000
_cell_volume 7047.103819
_symmetry_space_group_name_H-M "I M M M"
_symmetry_group_IT_number 71
_symmetry_cell_setting 'orthorhombic'
loop_
_space_group_symop_operation_xyz
x,y,z
-x,-y,z
x,-y,-z
-x,y,-z
-x,-y,-z
x,y,-z
-x,y,z
x,-y,z
1/2+x,1/2+y,1/2+z
1/2-x,1/2-y,1/2+z
1/2+x,1/2-y,1/2-z
1/2-x,1/2+y,1/2-z
1/2-x,1/2-y,1/2-z
1/2+x,1/2+y,1/2-z
1/2-x,1/2+y,1/2+z
1/2+x,1/2-y,1/2+z
loop_
_atom_site_type_symbol
_atom_site_label
_atom_site_fract_x
_atom_site_fract_y
_atom_site_fract_z
Si Si1 0.091500 0.782057 0.842523
Si Si2 0.283699 0.283765 0.657154
Si Si3 0.747271 0.616935 0.336693
Si Si4 0.939422 0.117391 0.163712
Si Si5 0.630552 0.115780 0.163234
Si Si6 0.154235 0.051697 0.164601
Si Si7 0.439732 0.200894 0.156349
Si Si8 0.939150 0.446233 0.846048
O O1 0.154259 0.770835 0.832116
O O2 0.078265 0.832477 0.784387
O O3 0.060665 0.745524 0.750576
O O4 0.071238 0.777729 0.000000
O O5 0.262700 0.279956 0.500000
O O6 0.250000 0.250000 0.750000
O O7 0.276436 0.334947 0.713959
O O8 0.746688 0.615187 0.500000
O O9 0.808220 0.612816 0.282219
O O10 0.708792 0.576372 0.280342
O O11 0.898045 0.079202 0.221156
O O12 0.000000 0.106022 0.215541
O O13 0.936627 0.117053 0.000000
O O14 0.603312 0.163510 0.209187
O O15 0.600064 0.074309 0.233214
O O16 0.626393 0.109595 0.000000
O O17 0.152748 0.000000 0.222403
O O18 0.153708 0.051458 0.000000
O O19 0.500000 0.179826 0.164007
O O20 0.425483 0.215257 0.000000
O O21 0.933704 0.500000 0.836006
O O22 0.000000 0.430833 0.812950
O O23 0.923325 0.429657 0.000000
#
# Coordination Sequence:
#
# PCOD8288860 Si02
#       8
#    16  16  16  16  16  16  16  16
#     4  10  19  32  51  74 100 133 175 216 255 303
#     4  10  19  32  51  72  99 134 170 209 254 302
#     4   9  17  31  47  68 100 132 163 207 257 301
#     4   9  16  27  44  68  99 131 165 208 253 298
#     4  10  20  33  52  75 101 133 170 213 258 303
#     4   9  16  27  44  67  98 135 169 202 249 307
#     4  10  21  35  49  71 105 139 171 212 263 312
#     4   9  19  36  55  74  99 132 168 209 259 309
#
# _framework density 18.163488999999998
#
# number of rings (size 3 to 8) (size 9 to 14) (size 15 to 20)
#    0.000    2.500    1.250    1.875    0.000    4.500 
#    0.000    3.750    0.000    0.000    0.000    0.000 
#    0.000    1.500    0.000    2.625    0.000    2.500 
#
# Total GULP energy -793474.750215 kJ/mol
# GULP energy per Si atom -12398.042972 kJ/mol
# Density = 1.812215 g / cm^3
# Si number density = 18.163489 Si / 1000 Ang^3
#
#
#
# Elastic Constant Matrix: (Units=GPa)
#
#
# Indices 1 2 3 4 5 6 
#
# 1 130.4252 65.1675 25.7404 0.0000 0.0000 0.0000
# 2 65.1675 112.9984 28.5328 0.0000 0.0000 0.0000
# 3 25.7404 28.5328 32.0362 0.0000 0.0000 0.0000
# 4 0.0000 0.0000 0.0000 23.2862 0.0000 0.0000
# 5 0.0000 0.0000 0.0000 0.0000 17.2310 0.0000
# 6 0.0000 0.0000 0.0000 0.0000 0.0000 35.0584
#
#
#
# Elastic Compliance Matrix: (Units=1/GPa)
#
#
# Indices 1 2 3 4 5 6 
#
# 1 0.011189 -0.005397 -0.004184 0.000000 0.000000 0.000000
# 2 -0.005397 0.014020 -0.008151 0.000000 0.000000 0.000000
# 3 -0.004184 -0.008151 0.041836 0.000000 0.000000 0.000000
# 4 0.000000 0.000000 0.000000 0.042944 0.000000 0.000000
# 5 0.000000 0.000000 0.000000 0.000000 0.058035 0.000000
# 6 0.000000 0.000000 0.000000 0.000000 0.000000 0.028524
#
#
# Mechanical properties :
#
#
# Convention : Reuss Voigt Hill
#
# Bulk Modulus (GPa) = 31.66305 57.14902 44.40603
# Shear Modulus (GPa) = 20.61527 25.51639 23.06583
#
# Velocity S-wave (km/s) = 3.37261 3.75216 3.56743
# Velocity P-wave (km/s) = 5.71280 7.09250 6.43971
#
# Compressibility (1/GPa) = 0.03158256
#
# Stress axis : x y z
#
# Youngs Moduli (GPa) = 89.37033 71.32621 23.90286
#
# Poissons Ratio (x) = 0.38492 0.10001
# Poissons Ratio (y) = 0.48229 0.19483
# Poissons Ratio (z) = 0.37393 0.58137
#
# Static dielectric constant tensor:
#      x y z
#    x 3.606030 0.000000 0.000000 
#    y 0.000000 3.382050 0.000000 
#    z 0.000000 0.000000 2.976640 
# 
# 
# High freq. dielectric constant tensor:
#      x y z
#    x 1.719680 0.000000 0.000000 
#    y 0.000000 1.704890 0.000000 
#    z 0.000000 0.000000 1.651670 
# 
# From -- ./inp_files/27868.got.cif
#   From: 2010.06.25/outbox.cif.g09.slc.cpg/sg71_14_cif.got.tgz:27868.got - 2010.06.28 04:59:45.
