data_PCOD8288930
_publ_section_title
;
Structure prediction by ZEFSAII (Michael W. Deem and Ramdas Pophale) SiO2 
 PCOD8288930
Probable space group: I M M M
;
_chemical_formula_sum "Si O2"
_cell_formula_units_Z 88
_cell_length_a 9.482332
_cell_length_b 19.069036
_cell_length_c 25.063984
_cell_angle_alpha 90.000000
_cell_angle_beta 90.000000
_cell_angle_gamma 90.000000
_cell_volume 4532.042775
_symmetry_space_group_name_H-M "I M M M"
_symmetry_group_IT_number 71
_symmetry_cell_setting 'orthorhombic'
loop_
_space_group_symop_operation_xyz
x,y,z
-x,-y,z
x,-y,-z
-x,y,-z
-x,-y,-z
x,y,-z
-x,y,z
x,-y,z
1/2+x,1/2+y,1/2+z
1/2-x,1/2-y,1/2+z
1/2+x,1/2-y,1/2-z
1/2-x,1/2+y,1/2-z
1/2-x,1/2-y,1/2-z
1/2+x,1/2+y,1/2-z
1/2-x,1/2+y,1/2+z
1/2+x,1/2-y,1/2+z
loop_
_atom_site_type_symbol
_atom_site_label
_atom_site_fract_x
_atom_site_fract_y
_atom_site_fract_z
Si Si1 0.842366 0.000000 0.063327
Si Si2 0.837488 0.294351 0.663516
Si Si3 0.835524 0.658325 0.161571
Si Si4 0.164449 0.422570 0.733429
Si Si5 0.832618 0.421424 0.059009
Si Si6 0.339763 0.129506 0.060001
O O1 0.759841 0.068494 0.082802
O O2 0.000000 0.000000 0.087306
O O3 0.845558 0.000000 0.000000
O O4 0.747123 0.227347 0.679943
O O5 0.774856 0.362723 0.693992
O O6 0.822732 0.304978 0.599678
O O7 0.000000 0.281415 0.680164
O O8 0.808018 0.598440 0.205288
O O9 0.774688 0.630039 0.105033
O O10 0.000000 0.677775 0.157657
O O11 0.233139 0.500000 0.723281
O O12 0.000000 0.428427 0.721647
O O13 0.772654 0.500000 0.067629
O O14 0.000000 0.424359 0.063560
O O15 0.787444 0.393908 0.000000
O O16 0.500000 0.101093 0.060947
O O17 0.297123 0.153093 0.000000
#
# Coordination Sequence:
#
# PCOD8288930 Si02
#       6
#     8  16  16  16  16  16
#     4   9  17  29  47  71  97 125 159 205 256 293
#     4  10  21  34  51  73 100 134 168 205 247 296
#     4  10  19  32  52  76 102 130 161 203 253 299
#     4   9  18  33  54  76  95 123 168 213 249 293
#     4   8  14  26  47  76 105 131 164 204 243 289
#     4   9  18  32  49  69  95 131 172 205 237 286
#
# _framework density 19.417292
#
# number of rings (size 3 to 8) (size 9 to 14) (size 15 to 20)
#    0.000    2.818    0.000    1.909    1.273    4.727 
#    0.000    0.000    0.000    3.273    0.000    1.273 
#    0.000    0.000    0.000    0.000    0.000    0.000 
#
# Total GULP energy -545377.189771 kJ/mol
# GULP energy per Si atom -12394.936131 kJ/mol
# Density = 1.937310 g / cm^3
# Si number density = 19.417292 Si / 1000 Ang^3
#
#
#
# Elastic Constant Matrix: (Units=GPa)
#
#
# Indices 1 2 3 4 5 6 
#
# 1 44.0703 27.7872 9.1895 0.0000 0.0000 0.0000
# 2 27.7872 126.3349 45.2373 0.0000 0.0000 0.0000
# 3 9.1895 45.2373 98.6981 0.0000 0.0000 0.0000
# 4 0.0000 0.0000 0.0000 19.7275 0.0000 0.0000
# 5 0.0000 0.0000 0.0000 0.0000 12.5603 0.0000
# 6 0.0000 0.0000 0.0000 0.0000 0.0000 21.1136
#
#
#
# Elastic Compliance Matrix: (Units=1/GPa)
#
#
# Indices 1 2 3 4 5 6 
#
# 1 0.026349 -0.005882 0.000243 0.000000 0.000000 0.000000
# 2 -0.005882 0.010783 -0.004395 0.000000 0.000000 0.000000
# 3 0.000243 -0.004395 0.012123 0.000000 0.000000 0.000000
# 4 0.000000 0.000000 0.000000 0.050691 0.000000 0.000000
# 5 0.000000 0.000000 0.000000 0.000000 0.079616 0.000000
# 6 0.000000 0.000000 0.000000 0.000000 0.000000 0.047363
#
#
# Mechanical properties :
#
#
# Convention : Reuss Voigt Hill
#
# Bulk Modulus (GPa) = 34.26130 48.17015 41.21572
# Shear Modulus (GPa) = 19.47625 23.13956 21.30790
#
# Velocity S-wave (km/s) = 3.17051 3.45584 3.31625
# Velocity P-wave (km/s) = 5.57547 6.38635 5.99464
#
# Compressibility (1/GPa) = 0.02918745
#
# Stress axis : x y z
#
# Youngs Moduli (GPa) = 37.95157 92.73963 82.48456
#
# Poissons Ratio (x) = 0.54554 -0.02003
# Poissons Ratio (y) = 0.22325 0.36248
# Poissons Ratio (z) = -0.00922 0.40755
#
# Static dielectric constant tensor:
#      x y z
#    x 3.157510 0.000000 0.000000 
#    y 0.000000 3.509340 0.000000 
#    z 0.000000 0.000000 3.733870 
# 
# 
# High freq. dielectric constant tensor:
#      x y z
#    x 1.701930 0.000000 0.000000 
#    y 0.000000 1.747370 0.000000 
#    z 0.000000 0.000000 1.768710 
# 
# From -- ./inp_files/12495.got.cif
#   From: 2010.06.25/outbox.cif.g09.slc.cpg/sg71_7_cif.got.tgz:12495.got - 2010.06.28 04:59:45.
