data_PCOD8288939
_publ_section_title
;
Structure prediction by ZEFSAII (Michael W. Deem and Ramdas Pophale) SiO2 
 PCOD8288939
Probable space group: I M M M
;
_chemical_formula_sum "Si O2"
_cell_formula_units_Z 104
_cell_length_a 19.688287
_cell_length_b 30.005571
_cell_length_c 9.060394
_cell_angle_alpha 90.000000
_cell_angle_beta 90.000000
_cell_angle_gamma 90.000000
_cell_volume 5352.502897
_symmetry_space_group_name_H-M "I M M M"
_symmetry_group_IT_number 71
_symmetry_cell_setting 'orthorhombic'
loop_
_space_group_symop_operation_xyz
x,y,z
-x,-y,z
x,-y,-z
-x,y,-z
-x,-y,-z
x,y,-z
-x,y,z
x,-y,z
1/2+x,1/2+y,1/2+z
1/2-x,1/2-y,1/2+z
1/2+x,1/2-y,1/2-z
1/2-x,1/2+y,1/2-z
1/2-x,1/2-y,1/2-z
1/2+x,1/2+y,1/2-z
1/2-x,1/2+y,1/2+z
1/2+x,1/2-y,1/2+z
loop_
_atom_site_type_symbol
_atom_site_label
_atom_site_fract_x
_atom_site_fract_y
_atom_site_fract_z
Si Si1 0.743133 0.448423 0.325856
Si Si2 0.622128 0.086955 0.325481
Si Si3 0.759553 0.205006 0.163566
Si Si4 0.000000 0.253198 0.671501
Si Si5 0.608353 0.825241 0.836063
Si Si6 0.144698 0.128321 0.174787
Si Si7 0.500000 0.341228 0.324892
Si Si8 0.500000 0.950409 0.159017
O O1 0.757171 0.444644 0.500000
O O2 0.731379 0.500000 0.279509
O O3 0.805902 0.426679 0.241922
O O4 0.676787 0.419379 0.278489
O O5 0.626398 0.082549 0.500000
O O6 0.595991 0.136123 0.281853
O O7 0.566082 0.055022 0.259022
O O8 0.750000 0.250000 0.250000
O O9 0.687935 0.181315 0.157323
O O10 0.812314 0.170351 0.240027
O O11 0.785223 0.217467 0.000000
O O12 0.932738 0.281332 0.714403
O O13 0.000000 0.239961 0.500000
O O14 0.000000 0.208684 0.765698
O O15 0.582392 0.839096 0.000000
O O16 0.066893 0.132067 0.231336
O O17 0.148532 0.132333 0.000000
O O18 0.500000 0.338232 0.500000
O O19 0.500000 0.000000 0.106127
O O20 0.500000 0.923386 0.000000
#
# Coordination Sequence:
#
# PCOD8288939 Si02
#       8
#    16  16  16   8  16  16   8   8
#     4  10  20  38  63  84 110 154 201 241 292 362
#     4  12  24  37  57  87 120 150 188 244 295 336
#     4  10  19  32  52  76 109 146 186 235 279 339
#     4  10  21  35  54  82 113 149 195 240 278 335
#     4  10  20  36  55  76 110 155 194 230 277 339
#     4   9  18  35  56  82 113 147 191 240 293 350
#     4  10  20  35  58  82 114 154 185 236 305 360
#     4  11  24  41  60  80 108 153 198 229 272 341
#
# _framework density 19.430161999999999
#
# number of rings (size 3 to 8) (size 9 to 14) (size 15 to 20)
#    0.000    1.769    1.538    3.462    0.000    4.615 
#    0.000    1.154    0.000    2.308    0.000    0.000 
#    0.000    1.846    0.000    0.000    0.000    0.000 
#
# Total GULP energy -644519.108134 kJ/mol
# GULP energy per Si atom -12394.598233 kJ/mol
# Density = 1.938594 g / cm^3
# Si number density = 19.430162 Si / 1000 Ang^3
#
#
#
# Elastic Constant Matrix: (Units=GPa)
#
#
# Indices 1 2 3 4 5 6 
#
# 1 146.0637 51.8165 33.3923 0.0000 0.0000 0.0000
# 2 51.8165 116.0780 38.8924 0.0000 0.0000 0.0000
# 3 33.3923 38.8924 69.9690 -0.0001 -0.0005 0.0006
# 4 0.0000 0.0000 -0.0001 23.6918 -0.0001 0.0001
# 5 0.0000 0.0000 -0.0005 -0.0001 12.6095 0.0000
# 6 0.0000 0.0000 0.0006 0.0001 0.0000 -14.3368
#
#
#
# Elastic Compliance Matrix: (Units=1/GPa)
#
#
# Indices 1 2 3 4 5 6 
#
# 1 0.008445 -0.002973 -0.002378 0.000000 0.000000 0.000000
# 2 -0.002973 0.011633 -0.005048 0.000000 0.000000 0.000000
# 3 -0.002378 -0.005048 0.018232 0.000000 0.000001 0.000001
# 4 0.000000 0.000000 0.000000 0.042209 0.000000 0.000000
# 5 0.000000 0.000000 0.000001 0.000000 0.079305 0.000000
# 6 0.000000 0.000000 0.000001 0.000000 0.000000 -0.069750
#
#
# Mechanical properties :
#
#
# Convention : Reuss Voigt Hill
#
# Bulk Modulus (GPa) = 57.09706 64.47922 60.78814
# Shear Modulus (GPa) = 42.84209 18.26020 30.55114
#
# Velocity S-wave (km/s) = 4.70076 3.06892 3.96960
# Velocity P-wave (km/s) = 7.67544 6.76867 7.23627
#
# Compressibility (1/GPa) = 0.01751404
#
# Stress axis : x y z
#
# Youngs Moduli (GPa) = 118.41963 85.96084 54.84739
#
# Poissons Ratio (x) = 0.25556 0.13040
# Poissons Ratio (y) = 0.35206 0.27684
# Poissons Ratio (z) = 0.28155 0.43389
#
# Static dielectric constant tensor:
#      x y z
#    x 4.333410 0.000000 0.000000 
#    y 0.000000 3.887100 0.000000 
#    z 0.000000 0.000000 3.223320 
# 
# 
# High freq. dielectric constant tensor:
#      x y z
#    x 1.763530 0.000000 0.000000 
#    y 0.000000 1.756900 0.000000 
#    z 0.000000 0.000000 1.730540 
# 
# From -- ./inp_files/11191.got.cif
#   From: 2010.06.25/outbox.cif.g09.slc.cpg/sg71_6_cif.got.tgz:11191.got - 2010.06.28 04:59:45.
