data_PCOD8288256
_publ_section_title
;
Structure prediction by ZEFSAII (Michael W. Deem and Ramdas Pophale) SiO2 
 PCOD8288256
Probable space group: I M M M
;
_chemical_formula_sum "Si O2"
_cell_formula_units_Z 96
_cell_length_a 13.833473
_cell_length_b 33.500315
_cell_length_c 14.219420
_cell_angle_alpha 90.000000
_cell_angle_beta 90.000000
_cell_angle_gamma 90.000000
_cell_volume 6589.644710
_symmetry_space_group_name_H-M "I M M M"
_symmetry_group_IT_number 71
_symmetry_cell_setting 'orthorhombic'
loop_
_space_group_symop_operation_xyz
x,y,z
-x,-y,z
x,-y,-z
-x,y,-z
-x,-y,-z
x,y,-z
-x,y,z
x,-y,z
1/2+x,1/2+y,1/2+z
1/2-x,1/2-y,1/2+z
1/2+x,1/2-y,1/2-z
1/2-x,1/2+y,1/2-z
1/2-x,1/2-y,1/2-z
1/2+x,1/2+y,1/2-z
1/2-x,1/2+y,1/2+z
1/2+x,1/2-y,1/2+z
loop_
_atom_site_type_symbol
_atom_site_label
_atom_site_fract_x
_atom_site_fract_y
_atom_site_fract_z
Si Si1 0.000000 0.756759 0.101907
Si Si2 0.287768 0.809045 0.109517
Si Si3 0.888035 0.000000 0.608673
Si Si4 0.192882 0.840315 0.715798
Si Si5 0.000000 0.204693 0.714250
Si Si6 0.705400 0.224201 0.605756
Si Si7 0.500000 0.212569 0.892596
Si Si8 0.885553 0.913211 0.611559
O O1 0.908667 0.728571 0.115106
O O2 0.000000 0.793438 0.172992
O O3 0.000000 0.777527 0.000000
O O4 0.224497 0.839869 0.173600
O O5 0.258878 0.764241 0.142498
O O6 0.403494 0.813916 0.125596
O O7 0.259759 0.816350 0.000000
O O8 0.848975 0.042629 0.646625
O O9 0.865824 0.000000 0.500000
O O10 0.000000 0.000000 0.629287
O O11 0.275809 0.815089 0.665649
O O12 0.182142 0.884712 0.674908
O O13 0.094092 0.819075 0.684567
O O14 0.000000 0.248877 0.672756
O O15 0.740363 0.216365 0.500000
O O16 0.500000 0.228099 0.000000
O O17 0.866887 0.906670 0.500000
O O18 0.000000 0.907196 0.632383
#
# Coordination Sequence:
#
# PCOD8288256 Si02
#       8
#     8  16   8  16   8  16   8  16
#     4  10  20  32  42  52  75 114 153 180 210 253
#     4  10  20  32  44  57  80 114 149 184 219 252
#     4   7  12  26  44  62  87 116 137 156 199 258
#     4  12  20  28  41  64  87 108 144 185 215 245
#     4  12  20  26  40  59  81 109 144 184 218 241
#     4  10  19  30  42  57  79 110 143 180 219 253
#     4  10  20  32  44  58  77 111 152 185 218 256
#     4   9  17  28  44  66  91 115 138 168 205 249
#
# _framework density 14.568312000000001
#
# number of rings (size 3 to 8) (size 9 to 14) (size 15 to 20)
#    0.000    1.917    4.167    3.000    0.000    0.667 
#    0.000    0.000    0.000    0.000    0.000    0.583 
#    0.000    4.667    0.000   18.333    0.000    0.000 
#
# Total GULP energy -594713.819727 kJ/mol
# GULP energy per Si atom -12389.871244 kJ/mol
# Density = 1.453515 g / cm^3
# Si number density = 14.568312 Si / 1000 Ang^3
#
#
#
# Elastic Constant Matrix: (Units=GPa)
#
#
# Indices 1 2 3 4 5 6 
#
# 1 63.9309 18.2331 17.3610 -0.0001 0.0000 0.0000
# 2 18.2331 90.1080 40.0931 -0.0003 0.0001 0.0001
# 3 17.3610 40.0931 61.1302 -0.0019 0.0006 0.0002
# 4 -0.0001 -0.0003 -0.0019 17.3620 0.0002 0.0001
# 5 0.0000 0.0001 0.0006 0.0002 20.5990 0.0000
# 6 0.0000 0.0001 0.0002 0.0001 0.0000 14.5628
#
#
#
# Elastic Compliance Matrix: (Units=1/GPa)
#
#
# Indices 1 2 3 4 5 6 
#
# 1 0.017163 -0.001841 -0.003666 0.000000 0.000000 0.000000
# 2 -0.001841 0.015868 -0.009885 -0.000001 0.000000 0.000000
# 3 -0.003666 -0.009885 0.023883 0.000002 -0.000001 0.000000
# 4 0.000000 -0.000001 0.000002 0.057597 0.000000 0.000000
# 5 0.000000 0.000000 -0.000001 0.000000 0.048546 0.000000
# 6 0.000000 0.000000 0.000000 0.000000 0.000000 0.068668
#
#
# Mechanical properties :
#
#
# Convention : Reuss Voigt Hill
#
# Bulk Modulus (GPa) = 38.27176 40.72706 39.49941
# Shear Modulus (GPa) = 18.43525 19.80358 19.11941
#
# Velocity S-wave (km/s) = 3.56115 3.69095 3.62663
# Velocity P-wave (km/s) = 6.57546 6.79564 6.68646
#
# Compressibility (1/GPa) = 0.02612892
#
# Stress axis : x y z
#
# Youngs Moduli (GPa) = 58.26573 63.01794 41.87121
#
# Poissons Ratio (x) = 0.11604 0.15352
# Poissons Ratio (y) = 0.10729 0.41388
# Poissons Ratio (z) = 0.21363 0.62291
#
# Static dielectric constant tensor:
#      x y z
#    x 2.879810 0.000000 0.000000 
#    y 0.000000 2.722540 0.000000 
#    z 0.000000 0.000000 2.960680 
# 
# 
# High freq. dielectric constant tensor:
#      x y z
#    x 1.552980 0.000000 0.000000 
#    y 0.000000 1.509850 0.000000 
#    z 0.000000 0.000000 1.558060 
# 
# From -- ./inp_files/35318.got.cif
#   From: 2010.06.25/outbox.cif.g09.slc.cpg/sg71_18_cif.got.tgz:35318.got - 2010.06.28 04:59:45.
