data_PCOD8288427
_publ_section_title
;
Structure prediction by ZEFSAII (Michael W. Deem and Ramdas Pophale) SiO2 
 PCOD8288427
Probable space group: I M M M
;
_chemical_formula_sum "Si O2"
_cell_formula_units_Z 88
_cell_length_a 22.715596
_cell_length_b 9.376012
_cell_length_c 22.898629
_cell_angle_alpha 90.000000
_cell_angle_beta 90.000000
_cell_angle_gamma 90.000000
_cell_volume 4876.988948
_symmetry_space_group_name_H-M "I M M M"
_symmetry_group_IT_number 71
_symmetry_cell_setting 'orthorhombic'
loop_
_space_group_symop_operation_xyz
x,y,z
-x,-y,z
x,-y,-z
-x,y,-z
-x,-y,-z
x,y,-z
-x,y,z
x,-y,z
1/2+x,1/2+y,1/2+z
1/2-x,1/2-y,1/2+z
1/2+x,1/2-y,1/2-z
1/2-x,1/2+y,1/2-z
1/2-x,1/2-y,1/2-z
1/2+x,1/2+y,1/2-z
1/2-x,1/2+y,1/2+z
1/2+x,1/2-y,1/2+z
loop_
_atom_site_type_symbol
_atom_site_label
_atom_site_fract_x
_atom_site_fract_y
_atom_site_fract_z
Si Si1 0.864010 0.836903 0.331481
Si Si2 0.566168 0.669882 0.063091
Si Si3 0.933598 0.163195 0.777477
Si Si4 0.067942 0.331137 0.000000
Si Si5 0.735003 0.162334 0.692097
Si Si6 0.380979 0.830993 0.623733
O O1 0.894303 0.759553 0.386431
O O2 0.887462 0.771117 0.270152
O O3 0.795002 0.826292 0.344414
O O4 0.885677 0.000000 0.328302
O O5 0.500000 0.719902 0.074484
O O6 0.570767 0.500000 0.063757
O O7 0.587950 0.726421 0.000000
O O8 0.929622 0.257557 0.835659
O O9 0.000000 0.174380 0.752771
O O10 0.917680 0.000000 0.793437
O O11 0.105138 0.280113 0.057236
O O12 0.064178 0.500000 0.000000
O O13 0.000000 0.271628 0.000000
O O14 0.750000 0.250000 0.750000
O O15 0.683108 0.219298 0.649238
O O16 0.721492 0.000000 0.711069
O O17 0.387222 0.000000 0.627859
#
# Coordination Sequence:
#
# PCOD8288427 Si02
#       6
#    16  16  16   8  16  16
#     4   9  16  27  42  63  93 126 156 190 237 287
#     4   8  13  22  37  59  89 123 155 186 226 280
#     4  10  19  30  48  73  99 127 159 199 247 296
#     4   9  18  34  53  71  97 133 168 208 257 300
#     4  10  19  32  50  71  96 126 159 196 240 289
#     4  10  20  34  52  73  97 130 168 204 247 301
#
# _framework density 18.04392
#
# number of rings (size 3 to 8) (size 9 to 14) (size 15 to 20)
#    0.000    2.636    1.818    1.636    0.000    3.273 
#    1.636    0.455    0.000    1.636    0.000    0.000 
#    0.000    2.182    0.000   10.000    0.000    9.091 
#
# Total GULP energy -545111.243005 kJ/mol
# GULP energy per Si atom -12388.891886 kJ/mol
# Density = 1.800285 g / cm^3
# Si number density = 18.043920 Si / 1000 Ang^3
#
#
#
# Elastic Constant Matrix: (Units=GPa)
#
#
# Indices 1 2 3 4 5 6 
#
# 1 102.0347 17.9003 64.6862 0.0000 0.0000 0.0000
# 2 17.9003 17.8344 22.8096 0.0000 0.0000 0.0000
# 3 64.6862 22.8096 151.3493 0.0000 0.0000 0.0000
# 4 0.0000 0.0000 0.0000 17.0666 0.0000 0.0000
# 5 0.0000 0.0000 0.0000 0.0000 33.3914 0.0000
# 6 0.0000 0.0000 0.0000 0.0000 0.0000 15.9687
#
#
#
# Elastic Compliance Matrix: (Units=1/GPa)
#
#
# Indices 1 2 3 4 5 6 
#
# 1 0.014332 -0.008115 -0.004903 0.000000 0.000000 0.000000
# 2 -0.008115 0.074055 -0.007692 0.000000 0.000000 0.000000
# 3 -0.004903 -0.007692 0.009862 0.000000 0.000000 0.000000
# 4 0.000000 0.000000 0.000000 0.058594 0.000000 0.000000
# 5 0.000000 0.000000 0.000000 0.000000 0.029948 0.000000
# 6 0.000000 0.000000 0.000000 0.000000 0.000000 0.062622
#
#
# Mechanical properties :
#
#
# Convention : Reuss Voigt Hill
#
# Bulk Modulus (GPa) = 17.59663 53.55673 35.57668
# Shear Modulus (GPa) = 16.14069 24.34017 20.24043
#
# Velocity S-wave (km/s) = 2.99410 3.67678 3.35286
# Velocity P-wave (km/s) = 4.66113 6.91163 5.89478
#
# Compressibility (1/GPa) = 0.05682905
#
# Stress axis : x y z
#
# Youngs Moduli (GPa) = 69.77249 13.50351 101.40074
#
# Poissons Ratio (x) = 0.10958 0.49712
# Poissons Ratio (y) = 0.56621 0.78001
# Poissons Ratio (z) = 0.34206 0.10387
#
# Static dielectric constant tensor:
#      x y z
#    x 3.532450 0.000000 0.000000 
#    y 0.000000 2.853870 0.000000 
#    z 0.000000 0.000000 3.711070 
# 
# 
# High freq. dielectric constant tensor:
#      x y z
#    x 1.707230 0.000000 0.000000 
#    y 0.000000 1.638940 0.000000 
#    z 0.000000 0.000000 1.703370 
# 
# From -- ./inp_files/55578.got.cif
#   From: 2010.06.25/outbox.cif.g09.slc.cpg/sg71_28_cif.got.tgz:55578.got - 2010.06.28 04:59:45.
