data_PCOD8288056
_publ_section_title
;
Structure prediction by ZEFSAII (Michael W. Deem and Ramdas Pophale) SiO2 
 PCOD8288056
Probable space group: I M M M
;
_chemical_formula_sum "Si O2"
_cell_formula_units_Z 88
_cell_length_a 9.149366
_cell_length_b 27.413094
_cell_length_c 19.546321
_cell_angle_alpha 90.000000
_cell_angle_beta 90.000000
_cell_angle_gamma 90.000000
_cell_volume 4902.460271
_symmetry_space_group_name_H-M "I M M M"
_symmetry_group_IT_number 71
_symmetry_cell_setting 'orthorhombic'
loop_
_space_group_symop_operation_xyz
x,y,z
-x,-y,z
x,-y,-z
-x,y,-z
-x,-y,-z
x,y,-z
-x,y,z
x,-y,z
1/2+x,1/2+y,1/2+z
1/2-x,1/2-y,1/2+z
1/2+x,1/2-y,1/2-z
1/2-x,1/2+y,1/2-z
1/2-x,1/2-y,1/2-z
1/2+x,1/2+y,1/2-z
1/2-x,1/2+y,1/2+z
1/2+x,1/2-y,1/2+z
loop_
_atom_site_type_symbol
_atom_site_label
_atom_site_fract_x
_atom_site_fract_y
_atom_site_fract_z
Si Si1 0.670077 0.079421 0.332986
Si Si2 0.828830 0.365204 0.422309
Si Si3 0.673401 0.053744 0.180828
Si Si4 0.332178 0.185195 0.297018
Si Si5 0.828336 0.000000 0.579878
Si Si6 0.669914 0.291327 0.338643
O O1 0.500000 0.065983 0.342164
O O2 0.726107 0.066129 0.257166
O O3 0.698351 0.137410 0.343424
O O4 0.761069 0.049016 0.387942
O O5 0.793459 0.379531 0.500000
O O6 0.763894 0.407878 0.373995
O O7 0.748766 0.314660 0.404093
O O8 0.000000 0.357502 0.410531
O O9 0.500000 0.055541 0.178117
O O10 0.731103 0.000000 0.160859
O O11 0.500000 0.184599 0.271238
O O12 0.299210 0.233314 0.341517
O O13 0.232409 0.184410 0.230072
O O14 0.790816 0.000000 0.500000
O O15 0.000000 0.000000 0.593698
O O16 0.500000 0.303181 0.341688
#
# Coordination Sequence:
#
# PCOD8288056 Si02
#       6
#    16  16  16  16   8  16
#     4  10  18  34  60  83 104 136 180 226 264 311
#     4  10  20  34  52  74 107 149 184 221 270 320
#     4   9  16  29  52  80 104 130 173 226 265 300
#     4   9  18  33  54  80 108 136 174 225 269 313
#     4  11  25  41  55  79 116 145 168 212 274 336
#     4  10  19  31  51  79 109 141 176 221 274 321
#
# _framework density 17.95017
#
# number of rings (size 3 to 8) (size 9 to 14) (size 15 to 20)
#    0.000    2.273    2.727    0.818    0.000    2.909 
#    0.000    2.727    0.000    5.455    0.000    1.273 
#    0.000    0.000    0.000    0.000    0.000    0.000 
#
# Total GULP energy -545570.358832 kJ/mol
# GULP energy per Si atom -12399.326337 kJ/mol
# Density = 1.790931 g / cm^3
# Si number density = 17.950170 Si / 1000 Ang^3
#
#
#
# Elastic Constant Matrix: (Units=GPa)
#
#
# Indices 1 2 3 4 5 6 
#
# 1 59.9633 46.7756 51.4539 0.0000 0.0000 0.0000
# 2 46.7756 146.6036 71.3150 0.0000 0.0000 0.0000
# 3 51.4539 71.3150 118.2251 0.0003 0.0000 0.0000
# 4 0.0000 0.0000 0.0003 28.7838 0.0000 0.0000
# 5 0.0000 0.0000 0.0000 0.0000 24.9706 0.0000
# 6 0.0000 0.0000 0.0000 0.0000 0.0000 25.7758
#
#
#
# Elastic Compliance Matrix: (Units=1/GPa)
#
#
# Indices 1 2 3 4 5 6 
#
# 1 0.028426 -0.004319 -0.009767 0.000000 0.000000 0.000000
# 2 -0.004319 0.010310 -0.004340 0.000000 0.000000 0.000000
# 3 -0.009767 -0.004340 0.015327 0.000000 0.000000 0.000000
# 4 0.000000 0.000000 0.000000 0.034742 0.000000 0.000000
# 5 0.000000 0.000000 0.000000 0.000000 0.040047 0.000000
# 6 0.000000 0.000000 0.000000 0.000000 0.000000 0.038796
#
#
# Mechanical properties :
#
#
# Convention : Reuss Voigt Hill
#
# Bulk Modulus (GPa) = 58.09445 73.76453 65.92949
# Shear Modulus (GPa) = 23.78282 26.25588 25.01935
#
# Velocity S-wave (km/s) = 3.64392 3.82869 3.73744
# Velocity P-wave (km/s) = 7.08087 7.79284 7.44537
#
# Compressibility (1/GPa) = 0.01721335
#
# Stress axis : x y z
#
# Youngs Moduli (GPa) = 35.17845 96.99276 65.24567
#
# Poissons Ratio (x) = 0.41890 0.63723
# Poissons Ratio (y) = 0.15193 0.28313
# Poissons Ratio (z) = 0.34357 0.42090
#
# Static dielectric constant tensor:
#      x y z
#    x 3.126990 0.000000 0.000000 
#    y 0.000000 3.682530 0.000000 
#    z 0.000000 0.000000 3.136120 
# 
# 
# High freq. dielectric constant tensor:
#      x y z
#    x 1.673040 0.000000 0.000000 
#    y 0.000000 1.712470 0.000000 
#    z 0.000000 0.000000 1.670360 
# 
# From -- ./inp_files/8800.got.cif
#   From: 2010.06.25/outbox.cif.g09.slc.cpg/sg71_5_cif.got.tgz:8800.got - 2010.06.28 04:59:45.
