data_PCOD8288643
_publ_section_title
;
Structure prediction by ZEFSAII (Michael W. Deem and Ramdas Pophale) SiO2 
 PCOD8288643
Probable space group: I M M M
;
_chemical_formula_sum "Si O2"
_cell_formula_units_Z 64
_cell_length_a 8.525144
_cell_length_b 17.796618
_cell_length_c 22.307908
_cell_angle_alpha 90.000000
_cell_angle_beta 90.000000
_cell_angle_gamma 90.000000
_cell_volume 3384.527497
_symmetry_space_group_name_H-M "I M M M"
_symmetry_group_IT_number 71
_symmetry_cell_setting 'orthorhombic'
loop_
_space_group_symop_operation_xyz
x,y,z
-x,-y,z
x,-y,-z
-x,y,-z
-x,-y,-z
x,y,-z
-x,y,z
x,-y,z
1/2+x,1/2+y,1/2+z
1/2-x,1/2-y,1/2+z
1/2+x,1/2-y,1/2-z
1/2-x,1/2+y,1/2-z
1/2-x,1/2-y,1/2-z
1/2+x,1/2+y,1/2-z
1/2-x,1/2+y,1/2+z
1/2+x,1/2-y,1/2+z
loop_
_atom_site_type_symbol
_atom_site_label
_atom_site_fract_x
_atom_site_fract_y
_atom_site_fract_z
Si Si1 0.312774 0.585347 0.000000
Si Si2 0.814409 0.414911 0.764431
Si Si3 0.673784 0.818846 0.156328
Si Si4 0.500000 0.911752 0.069045
Si Si5 0.814363 0.159645 0.378820
O O1 0.246214 0.628384 0.058547
O O2 0.249007 0.500000 0.000000
O O3 0.500000 0.584624 0.000000
O O4 0.774215 0.500000 0.746144
O O5 0.742977 0.360636 0.712317
O O6 0.730668 0.397797 0.826792
O O7 0.000000 0.404120 0.771018
O O8 0.500000 0.795465 0.178857
O O9 0.655928 0.876458 0.100003
O O10 0.760770 0.742113 0.135902
O O11 0.500000 0.000000 0.079749
O O12 0.500000 0.889132 0.000000
O O13 0.000000 0.166038 0.385230
#
# Coordination Sequence:
#
# PCOD8288643 Si02
#       5
#     8  16  16   8  16
#     4   9  18  30  45  67  95 123 155 196 246 286
#     4  10  19  32  48  67  97 131 160 195 245 293
#     4   8  17  28  46  67  96 124 156 190 243 284
#     4   9  16  26  46  74 102 129 159 195 238 292
#     4  10  19  31  50  71  94 125 163 205 240 286
#
# _framework density 18.909580999999999
#
# number of rings (size 3 to 8) (size 9 to 14) (size 15 to 20)
#    0.750    2.000    0.000    2.250    1.750    1.500 
#    0.000    0.625    0.000    2.250    0.000    0.000 
#    0.000    0.000    0.000    8.000    0.000    0.000 
#
# Total GULP energy -396500.570889 kJ/mol
# GULP energy per Si atom -12390.642840 kJ/mol
# Density = 1.886654 g / cm^3
# Si number density = 18.909581 Si / 1000 Ang^3
#
#
#
# Elastic Constant Matrix: (Units=GPa)
#
#
# Indices 1 2 3 4 5 6 
#
# 1 3.4019 11.4359 8.9921 0.0000 0.0000 0.0000
# 2 11.4359 139.9177 82.7288 0.0000 0.0000 0.0000
# 3 8.9921 82.7288 174.9974 0.0000 0.0000 0.0000
# 4 0.0000 0.0000 0.0000 39.5191 0.0000 0.0000
# 5 0.0000 0.0000 0.0000 0.0000 15.3148 0.0000
# 6 0.0000 0.0000 0.0000 0.0000 0.0000 15.1921
#
#
#
# Elastic Compliance Matrix: (Units=1/GPa)
#
#
# Indices 1 2 3 4 5 6 
#
# 1 0.411903 -0.029358 -0.007287 0.000000 0.000000 0.000000
# 2 -0.029358 0.012012 -0.004170 0.000000 0.000000 0.000000
# 3 -0.007287 -0.004170 0.008060 0.000000 0.000000 0.000000
# 4 0.000000 0.000000 0.000000 0.025304 0.000000 0.000000
# 5 0.000000 0.000000 0.000000 0.000000 0.065296 0.000000
# 6 0.000000 0.000000 0.000000 0.000000 0.000000 0.065824
#
#
# Mechanical properties :
#
#
# Convention : Reuss Voigt Hill
#
# Bulk Modulus (GPa) = 2.85432 58.29228 30.57330
# Shear Modulus (GPa) = 6.35477 28.34924 17.35201
#
# Velocity S-wave (km/s) = 1.83519 3.87615 3.03253
# Velocity P-wave (km/s) = 2.45016 7.13628 5.33525
#
# Compressibility (1/GPa) = 0.35034647
#
# Stress axis : x y z
#
# Youngs Moduli (GPa) = 2.42776 83.24845 124.06621
#
# Poissons Ratio (x) = 2.44398 0.90402
# Poissons Ratio (y) = 0.07127 0.51738
# Poissons Ratio (z) = 0.01769 0.34716
#
# Static dielectric constant tensor:
#      x y z
#    x 2.756540 0.000000 0.000000 
#    y 0.000000 3.730290 0.000000 
#    z 0.000000 0.000000 3.607000 
# 
# 
# High freq. dielectric constant tensor:
#      x y z
#    x 1.654890 0.000000 0.000000 
#    y 0.000000 1.755780 0.000000 
#    z 0.000000 0.000000 1.745960 
# 
# From -- ./inp_files/50162.got.cif
#   From: 2010.06.25/outbox.cif.g09.slc.cpg/sg71_26_cif.got.tgz:50162.got - 2010.06.28 04:59:45.
