data_PCOD8288599
_publ_section_title
;
Structure prediction by ZEFSAII (Michael W. Deem and Ramdas Pophale) SiO2 
 PCOD8288599
Probable space group: I M M M
;
_chemical_formula_sum "Si O2"
_cell_formula_units_Z 96
_cell_length_a 9.134359
_cell_length_b 23.168544
_cell_length_c 26.675347
_cell_angle_alpha 90.000000
_cell_angle_beta 90.000000
_cell_angle_gamma 90.000000
_cell_volume 5645.298308
_symmetry_space_group_name_H-M "I M M M"
_symmetry_group_IT_number 71
_symmetry_cell_setting 'orthorhombic'
loop_
_space_group_symop_operation_xyz
x,y,z
-x,-y,z
x,-y,-z
-x,y,-z
-x,-y,-z
x,y,-z
-x,y,z
x,-y,z
1/2+x,1/2+y,1/2+z
1/2-x,1/2-y,1/2+z
1/2+x,1/2-y,1/2-z
1/2-x,1/2+y,1/2-z
1/2-x,1/2-y,1/2-z
1/2+x,1/2+y,1/2-z
1/2-x,1/2+y,1/2+z
1/2+x,1/2-y,1/2+z
loop_
_atom_site_type_symbol
_atom_site_label
_atom_site_fract_x
_atom_site_fract_y
_atom_site_fract_z
Si Si1 0.664882 0.890857 0.888460
Si Si2 0.329405 0.887139 0.297506
Si Si3 0.674254 0.500000 0.345413
Si Si4 0.831113 0.722055 0.852230
Si Si5 0.828941 0.202705 0.943629
Si Si6 0.826926 0.000000 0.270979
Si Si7 0.662692 0.810285 0.793055
O O1 0.500000 0.910062 0.903595
O O2 0.741166 0.856612 0.934119
O O3 0.659693 0.847885 0.842577
O O4 0.762386 0.945296 0.874148
O O5 0.500000 0.903693 0.290958
O O6 0.303708 0.847040 0.347032
O O7 0.235023 0.944898 0.300730
O O8 0.270656 0.849969 0.250544
O O9 0.500000 0.500000 0.349271
O O10 0.724820 0.500000 0.287088
O O11 0.775317 0.746077 0.905935
O O12 0.757621 0.753427 0.804268
O O13 0.000000 0.736468 0.846391
O O14 0.000000 0.189477 0.935911
O O15 0.795955 0.223990 0.000000
O O16 0.000000 0.000000 0.275199
O O17 0.500000 0.790227 0.777676
#
# Coordination Sequence:
#
# PCOD8288599 Si02
#       7
#    16  16   8  16  16   8  16
#     4  10  19  31  49  71  96 127 165 203 238 283
#     4  10  19  32  47  67  98 131 163 196 233 281
#     4  11  21  33  48  68  95 130 170 202 235 282
#     4   9  18  30  48  72  95 125 161 195 237 288
#     4   9  18  34  53  73  99 126 155 199 251 294
#     4  11  23  33  47  70  97 134 171 200 231 278
#     4   9  17  28  44  67  96 128 156 191 238 280
#
# _framework density 17.005300999999999
#
# number of rings (size 3 to 8) (size 9 to 14) (size 15 to 20)
#    0.000    2.333    1.667    1.500    0.000    3.000 
#    0.000    0.417    0.000    2.500    0.000    0.583 
#    0.000    4.667    0.000    0.000    0.000    0.000 
#
# Total GULP energy -595014.674298 kJ/mol
# GULP energy per Si atom -12396.139048 kJ/mol
# Density = 1.696660 g / cm^3
# Si number density = 17.005301 Si / 1000 Ang^3
#
#
#
# Elastic Constant Matrix: (Units=GPa)
#
#
# Indices 1 2 3 4 5 6 
#
# 1 64.9055 47.6818 23.5821 0.0000 0.0000 0.0000
# 2 47.6818 117.1331 38.2109 0.0000 0.0000 0.0000
# 3 23.5821 38.2109 53.6118 0.0000 0.0000 0.0000
# 4 0.0000 0.0000 0.0000 5.7528 0.0000 0.0000
# 5 0.0000 0.0000 0.0000 0.0000 17.4298 0.0000
# 6 0.0000 0.0000 0.0000 0.0000 0.0000 28.4518
#
#
#
# Elastic Compliance Matrix: (Units=1/GPa)
#
#
# Indices 1 2 3 4 5 6 
#
# 1 0.022764 -0.007818 -0.004441 0.000000 0.000000 0.000000
# 2 -0.007818 0.013808 -0.006403 0.000000 0.000000 0.000000
# 3 -0.004441 -0.006403 0.025170 0.000000 0.000000 0.000000
# 4 0.000000 0.000000 0.000000 0.173829 0.000000 0.000000
# 5 0.000000 0.000000 0.000000 0.000000 0.057373 0.000000
# 6 0.000000 0.000000 0.000000 0.000000 0.000000 0.035147
#
#
# Mechanical properties :
#
#
# Convention : Reuss Voigt Hill
#
# Bulk Modulus (GPa) = 40.95286 50.51113 45.73199
# Shear Modulus (GPa) = 13.38493 18.73858 16.06175
#
# Velocity S-wave (km/s) = 2.80858 3.32313 3.07663
# Velocity P-wave (km/s) = 5.88661 6.67022 6.29063
#
# Compressibility (1/GPa) = 0.02441832
#
# Stress axis : x y z
#
# Youngs Moduli (GPa) = 43.92942 72.41936 39.73034
#
# Poissons Ratio (x) = 0.56616 0.17645
# Poissons Ratio (y) = 0.34343 0.25439
# Poissons Ratio (z) = 0.19509 0.46370
#
# Static dielectric constant tensor:
#      x y z
#    x 3.348740 0.000000 0.000000 
#    y 0.000000 3.251020 0.000000 
#    z 0.000000 0.000000 3.122850 
# 
# 
# High freq. dielectric constant tensor:
#      x y z
#    x 1.657450 0.000000 0.000000 
#    y 0.000000 1.648990 0.000000 
#    z 0.000000 0.000000 1.628640 
# 
# From -- ./inp_files/63481.got.cif
#   From: 2010.06.25/outbox.cif.g09.slc.cpg/sg71_32_cif.got.tgz:63481.got - 2010.06.28 04:59:45.
