data_PCOD8288986
_publ_section_title
;
Structure prediction by ZEFSAII (Michael W. Deem and Ramdas Pophale) SiO2 
 PCOD8288986
Probable space group: I M M M
;
_chemical_formula_sum "Si O2"
_cell_formula_units_Z 72
_cell_length_a 19.088305
_cell_length_b 22.561606
_cell_length_c 9.434513
_cell_angle_alpha 90.000000
_cell_angle_beta 90.000000
_cell_angle_gamma 90.000000
_cell_volume 4063.093942
_symmetry_space_group_name_H-M "I M M M"
_symmetry_group_IT_number 71
_symmetry_cell_setting 'orthorhombic'
loop_
_space_group_symop_operation_xyz
x,y,z
-x,-y,z
x,-y,-z
-x,y,-z
-x,-y,-z
x,y,-z
-x,y,z
x,-y,z
1/2+x,1/2+y,1/2+z
1/2-x,1/2-y,1/2+z
1/2+x,1/2-y,1/2-z
1/2-x,1/2+y,1/2-z
1/2-x,1/2-y,1/2-z
1/2+x,1/2+y,1/2-z
1/2-x,1/2+y,1/2+z
1/2+x,1/2-y,1/2+z
loop_
_atom_site_type_symbol
_atom_site_label
_atom_site_fract_x
_atom_site_fract_y
_atom_site_fract_z
Si Si1 0.921429 0.000000 0.669429
Si Si2 0.170486 0.430803 0.835330
Si Si3 0.580567 0.158398 0.834879
Si Si4 0.323117 0.397138 0.833629
Si Si5 0.819317 0.235817 0.334891
O O1 0.881118 0.058057 0.728861
O O2 0.923901 0.000000 0.500000
O O3 0.000000 0.000000 0.731562
O O4 0.158755 0.500000 0.810752
O O5 0.110154 0.396858 0.751570
O O6 0.246002 0.411558 0.772064
O O7 0.164612 0.413669 0.000000
O O8 0.500000 0.167446 0.794203
O O9 0.619845 0.218877 0.791473
O O10 0.590427 0.144496 0.000000
O O11 0.345615 0.330237 0.795738
O O12 0.318941 0.408422 0.000000
O O13 0.800488 0.239994 0.500000
O O14 0.750000 0.250000 0.250000
#
# Coordination Sequence:
#
# PCOD8288986 Si02
#       5
#     8  16  16  16  16
#     4   9  16  26  44  74 108 135 160 200 259 313
#     4  10  19  33  55  78 102 133 173 216 256 302
#     4  10  22  37  51  74 108 138 168 212 262 309
#     4   9  16  28  47  73 102 131 165 208 251 296
#     4  10  19  32  53  76 101 134 172 210 251 300
#
# _framework density 17.720486999999999
#
# number of rings (size 3 to 8) (size 9 to 14) (size 15 to 20)
#    0.000    2.333    3.333    0.000    0.000    2.222 
#    0.000    6.667    0.000    0.000    0.000    0.000 
#    0.000    4.444    0.000    0.000    0.000    0.000 
#
# Total GULP energy -446400.535209 kJ/mol
# GULP energy per Si atom -12400.014867 kJ/mol
# Density = 1.768015 g / cm^3
# Si number density = 17.720487 Si / 1000 Ang^3
#
#
#
# Elastic Constant Matrix: (Units=GPa)
#
#
# Indices 1 2 3 4 5 6 
#
# 1 158.4043 81.1215 42.4820 0.0000 0.0000 0.0000
# 2 81.1215 140.4402 40.2917 0.0000 0.0000 0.0000
# 3 42.4820 40.2917 29.9279 0.0000 0.0000 0.0000
# 4 0.0000 0.0000 0.0000 23.1901 0.0000 0.0000
# 5 0.0000 0.0000 0.0000 0.0000 21.9106 0.0000
# 6 0.0000 0.0000 0.0000 0.0000 0.0000 35.7251
#
#
#
# Elastic Compliance Matrix: (Units=1/GPa)
#
#
# Indices 1 2 3 4 5 6 
#
# 1 0.010934 -0.003035 -0.011434 0.000000 0.000000 0.000000
# 2 -0.003035 0.012444 -0.012445 0.000000 0.000000 0.000000
# 3 -0.011434 -0.012445 0.066398 0.000000 0.000000 0.000000
# 4 0.000000 0.000000 0.000000 0.043122 0.000000 0.000000
# 5 0.000000 0.000000 0.000000 0.000000 0.045640 0.000000
# 6 0.000000 0.000000 0.000000 0.000000 0.000000 0.027992
#
#
# Mechanical properties :
#
#
# Convention : Reuss Voigt Hill
#
# Bulk Modulus (GPa) = 27.81798 72.95144 50.38471
# Shear Modulus (GPa) = 18.35939 27.15697 22.75818
#
# Velocity S-wave (km/s) = 3.22227 3.91899 3.58758
# Velocity P-wave (km/s) = 5.43841 7.85717 6.75690
#
# Compressibility (1/GPa) = 0.03594797
#
# Stress axis : x y z
#
# Youngs Moduli (GPa) = 91.45949 80.35933 15.06065
#
# Poissons Ratio (x) = 0.24391 0.17220
# Poissons Ratio (y) = 0.27761 0.18743
# Poissons Ratio (z) = 1.04574 1.00006
#
# Static dielectric constant tensor:
#      x y z
#    x 3.445060 0.000000 0.000000 
#    y 0.000000 3.578350 0.000000 
#    z 0.000000 0.000000 2.921380 
# 
# 
# High freq. dielectric constant tensor:
#      x y z
#    x 1.686250 0.000000 0.000000 
#    y 0.000000 1.703130 0.000000 
#    z 0.000000 0.000000 1.640980 
# 
# From -- ./inp_files/7924.got.cif
#   From: 2010.06.25/outbox.cif.g09.slc.cpg/sg71_4_cif.got.tgz:7924.got - 2010.06.28 04:59:45.
