data_PCOD8288543
_publ_section_title
;
Structure prediction by ZEFSAII (Michael W. Deem and Ramdas Pophale) SiO2 
 PCOD8288543
Probable space group: I M M M
;
_chemical_formula_sum "Si O2"
_cell_formula_units_Z 120
_cell_length_a 9.142733
_cell_length_b 29.005537
_cell_length_c 27.067255
_cell_angle_alpha 90.000000
_cell_angle_beta 90.000000
_cell_angle_gamma 90.000000
_cell_volume 7177.962114
_symmetry_space_group_name_H-M "I M M M"
_symmetry_group_IT_number 71
_symmetry_cell_setting 'orthorhombic'
loop_
_space_group_symop_operation_xyz
x,y,z
-x,-y,z
x,-y,-z
-x,y,-z
-x,-y,-z
x,y,-z
-x,y,z
x,-y,z
1/2+x,1/2+y,1/2+z
1/2-x,1/2-y,1/2+z
1/2+x,1/2-y,1/2-z
1/2-x,1/2+y,1/2-z
1/2-x,1/2-y,1/2-z
1/2+x,1/2+y,1/2-z
1/2-x,1/2+y,1/2+z
1/2+x,1/2-y,1/2+z
loop_
_atom_site_type_symbol
_atom_site_label
_atom_site_fract_x
_atom_site_fract_y
_atom_site_fract_z
Si Si1 0.669084 0.794656 0.843148
Si Si2 0.664357 0.000000 0.558154
Si Si3 0.830180 0.257327 0.446034
Si Si4 0.663628 0.173118 0.411549
Si Si5 0.162095 0.712482 0.196824
Si Si6 0.326637 0.581209 0.109548
Si Si7 0.170341 0.367053 0.267885
Si Si8 0.672266 0.447315 0.219459
O O1 0.500000 0.782451 0.840269
O O2 0.723022 0.790051 0.900330
O O3 0.742328 0.759049 0.804182
O O4 0.698205 0.846666 0.823251
O O5 0.752844 0.044128 0.574985
O O6 0.500000 0.000000 0.580592
O O7 0.655839 0.000000 0.500000
O O8 0.806242 0.281506 0.500000
O O9 0.737533 0.210392 0.447414
O O10 0.000000 0.244701 0.438648
O O11 0.500000 0.160334 0.430621
O O12 0.652936 0.194712 0.358206
O O13 0.768287 0.129435 0.409931
O O14 0.231103 0.671696 0.229940
O O15 0.000000 0.724579 0.216925
O O16 0.500000 0.578711 0.103595
O O17 0.279926 0.571651 0.166035
O O18 0.254946 0.415157 0.261293
O O19 0.000000 0.376669 0.257922
O O20 0.500000 0.444786 0.226392
O O21 0.727165 0.500000 0.225725
#
# Coordination Sequence:
#
# PCOD8288543 Si02
#       8
#    16   8  16  16  16  16  16  16
#     4   9  18  30  46  69  97 127 161 198 234 280
#     4  11  25  41  55  71  89 113 151 203 258 301
#     4   9  18  33  50  68  94 130 167 200 237 279
#     4  10  19  31  48  71  96 122 157 199 238 280
#     4   9  17  28  43  67  97 125 155 189 231 282
#     4  11  21  36  55  72  92 120 157 200 244 294
#     4  10  19  31  47  71  99 126 157 193 238 290
#     4  10  21  36  52  73  97 124 160 197 239 294
#
# _framework density 16.717838
#
# number of rings (size 3 to 8) (size 9 to 14) (size 15 to 20)
#    0.000    2.200    2.000    1.400    0.000    3.733 
#    0.000    0.000    0.000    0.000    0.000    0.000 
#    0.000    0.533    0.000    6.667    0.000    1.067 
#
# Total GULP energy -743703.046785 kJ/mol
# GULP energy per Si atom -12395.050780 kJ/mol
# Density = 1.667979 g / cm^3
# Si number density = 16.717838 Si / 1000 Ang^3
#
#
#
# Elastic Constant Matrix: (Units=GPa)
#
#
# Indices 1 2 3 4 5 6 
#
# 1 60.3116 34.8640 23.3634 0.0000 0.0000 0.0000
# 2 34.8640 69.4770 49.0950 0.0000 0.0000 0.0000
# 3 23.3634 49.0950 75.8404 0.0000 0.0000 0.0000
# 4 0.0000 0.0000 0.0000 12.0344 0.0000 0.0000
# 5 0.0000 0.0000 0.0000 0.0000 17.9718 0.0000
# 6 0.0000 0.0000 0.0000 0.0000 0.0000 27.6366
#
#
#
# Elastic Compliance Matrix: (Units=1/GPa)
#
#
# Indices 1 2 3 4 5 6 
#
# 1 0.023377 -0.012242 0.000723 0.000000 0.000000 0.000000
# 2 -0.012242 0.032939 -0.017552 0.000000 0.000000 0.000000
# 3 0.000723 -0.017552 0.024325 0.000000 0.000000 0.000000
# 4 0.000000 0.000000 0.000000 0.083095 0.000000 0.000000
# 5 0.000000 0.000000 0.000000 0.000000 0.055643 0.000000
# 6 0.000000 0.000000 0.000000 0.000000 0.000000 0.036184
#
#
# Mechanical properties :
#
#
# Convention : Reuss Voigt Hill
#
# Bulk Modulus (GPa) = 44.44417 46.69708 45.57063
# Shear Modulus (GPa) = 15.56648 18.08233 16.82441
#
# Velocity S-wave (km/s) = 3.05475 3.29237 3.17578
# Velocity P-wave (km/s) = 6.25177 6.51506 6.38477
#
# Compressibility (1/GPa) = 0.02250014
#
# Stress axis : x y z
#
# Youngs Moduli (GPa) = 42.77729 30.35933 41.11030
#
# Poissons Ratio (x) = 0.37165 -0.02973
# Poissons Ratio (y) = 0.52366 0.72155
# Poissons Ratio (z) = -0.03093 0.53286
#
# Static dielectric constant tensor:
#      x y z
#    x 3.337500 0.000000 0.000000 
#    y 0.000000 3.086420 0.000000 
#    z 0.000000 0.000000 3.214600 
# 
# 
# High freq. dielectric constant tensor:
#      x y z
#    x 1.648300 0.000000 0.000000 
#    y 0.000000 1.619340 0.000000 
#    z 0.000000 0.000000 1.632500 
# 
# From -- ./inp_files/63806.got.cif
#   From: 2010.06.25/outbox.cif.g09.slc.cpg/sg71_32_cif.got.tgz:63806.got - 2010.06.28 04:59:45.
