data_PCOD8288898
_publ_section_title
;
Structure prediction by ZEFSAII (Michael W. Deem and Ramdas Pophale) SiO2 
 PCOD8288898
Probable space group: I M M M
;
_chemical_formula_sum "Si O2"
_cell_formula_units_Z 88
_cell_length_a 28.077509
_cell_length_b 9.411560
_cell_length_c 17.634334
_cell_angle_alpha 90.000000
_cell_angle_beta 90.000000
_cell_angle_gamma 90.000000
_cell_volume 4659.928495
_symmetry_space_group_name_H-M "I M M M"
_symmetry_group_IT_number 71
_symmetry_cell_setting 'orthorhombic'
loop_
_space_group_symop_operation_xyz
x,y,z
-x,-y,z
x,-y,-z
-x,y,-z
-x,-y,-z
x,y,-z
-x,y,z
x,-y,z
1/2+x,1/2+y,1/2+z
1/2-x,1/2-y,1/2+z
1/2+x,1/2-y,1/2-z
1/2-x,1/2+y,1/2-z
1/2-x,1/2-y,1/2-z
1/2+x,1/2+y,1/2-z
1/2-x,1/2+y,1/2+z
1/2+x,1/2-y,1/2+z
loop_
_atom_site_type_symbol
_atom_site_label
_atom_site_fract_x
_atom_site_fract_y
_atom_site_fract_z
Si Si1 0.849956 0.168952 0.655702
Si Si2 0.552486 0.668446 0.914477
Si Si3 0.500000 0.840556 0.590414
Si Si4 0.268730 0.163846 0.086206
Si Si5 0.411624 0.338135 0.589435
Si Si6 0.821193 0.168426 0.822163
O O1 0.904569 0.219703 0.640556
O O2 0.816227 0.243127 0.594230
O O3 0.831790 0.223198 0.737551
O O4 0.845486 0.000000 0.647425
O O5 0.500000 0.722766 0.886238
O O6 0.552025 0.500000 0.915690
O O7 0.561828 0.724702 0.000000
O O8 0.500000 0.840048 0.500000
O O9 0.545935 0.758232 0.621419
O O10 0.500000 0.000000 0.622713
O O11 0.228573 0.225804 0.143814
O O12 0.280373 0.000000 0.105164
O O13 0.250006 0.178138 0.000000
O O14 0.407116 0.328415 0.500000
O O15 0.421378 0.500000 0.615509
O O16 0.363466 0.275808 0.624545
O O17 0.820015 0.000000 0.825108
#
# Coordination Sequence:
#
# PCOD8288898 Si02
#       6
#    16  16   8  16  16  16
#     4  10  19  32  51  76 102 126 160 208 256 296
#     4   8  14  26  45  69  96 124 154 192 241 292
#     4   9  17  29  45  67  95 125 160 207 258 299
#     4  10  20  34  52  72  98 134 169 200 243 302
#     4   9  16  29  49  69  91 125 170 211 246 293
#     4   9  18  32  49  73 100 128 164 207 252 294
#
# _framework density 18.884409999999999
#
# number of rings (size 3 to 8) (size 9 to 14) (size 15 to 20)
#    0.000    2.818    0.000    2.455    0.000    4.364 
#    1.636    1.818    0.000    2.727    0.000    2.545 
#    0.000    0.000    0.000    0.000    0.000    0.000 
#
# Total GULP energy -545392.338876 kJ/mol
# GULP energy per Si atom -12395.280429 kJ/mol
# Density = 1.884143 g / cm^3
# Si number density = 18.884410 Si / 1000 Ang^3
#
#
#
# Elastic Constant Matrix: (Units=GPa)
#
#
# Indices 1 2 3 4 5 6 
#
# 1 168.1941 37.9293 58.2122 0.0000 0.0000 0.0000
# 2 37.9293 44.7235 19.7564 0.0000 0.0000 0.0000
# 3 58.2122 19.7564 73.5770 0.0000 0.0000 0.0000
# 4 0.0000 0.0000 0.0000 14.9339 0.0000 0.0000
# 5 0.0000 0.0000 0.0000 0.0000 18.1853 0.0000
# 6 0.0000 0.0000 0.0000 0.0000 0.0000 20.1245
#
#
#
# Elastic Compliance Matrix: (Units=1/GPa)
#
#
# Indices 1 2 3 4 5 6 
#
# 1 0.009130 -0.005165 -0.005837 0.000000 0.000000 0.000000
# 2 -0.005165 0.028290 -0.003510 0.000000 0.000000 0.000000
# 3 -0.005837 -0.003510 0.019152 0.000000 0.000000 0.000000
# 4 0.000000 0.000000 0.000000 0.066962 0.000000 0.000000
# 5 0.000000 0.000000 0.000000 0.000000 0.054990 0.000000
# 6 0.000000 0.000000 0.000000 0.000000 0.000000 0.049691
#
#
# Mechanical properties :
#
#
# Convention : Reuss Voigt Hill
#
# Bulk Modulus (GPa) = 36.29910 57.58781 46.94345
# Shear Modulus (GPa) = 18.76730 22.02185 20.39457
#
# Velocity S-wave (km/s) = 3.15588 3.41858 3.28985
# Velocity P-wave (km/s) = 5.70464 6.79289 6.27241
#
# Compressibility (1/GPa) = 0.02754890
#
# Stress axis : x y z
#
# Youngs Moduli (GPa) = 109.52416 35.34762 52.21475
#
# Poissons Ratio (x) = 0.18257 0.30477
# Poissons Ratio (y) = 0.56569 0.18327
# Poissons Ratio (z) = 0.63928 0.12407
#
# Static dielectric constant tensor:
#      x y z
#    x 3.815550 0.000000 0.000000 
#    y 0.000000 3.053200 0.000000 
#    z 0.000000 0.000000 3.396770 
# 
# 
# High freq. dielectric constant tensor:
#      x y z
#    x 1.750100 0.000000 0.000000 
#    y 0.000000 1.684060 0.000000 
#    z 0.000000 0.000000 1.721720 
# 
# From -- ./inp_files/49255.got.cif
#   From: 2010.06.25/outbox.cif.g09.slc.cpg/sg71_25_cif.got.tgz:49255.got - 2010.06.28 04:59:45.
