data_PCOD8288417
_publ_section_title
;
Structure prediction by ZEFSAII (Michael W. Deem and Ramdas Pophale) SiO2 
 PCOD8288417
Probable space group: I M M M
;
_chemical_formula_sum "Si O2"
_cell_formula_units_Z 96
_cell_length_a 9.894233
_cell_length_b 30.399244
_cell_length_c 18.304017
_cell_angle_alpha 90.000000
_cell_angle_beta 90.000000
_cell_angle_gamma 90.000000
_cell_volume 5505.431040
_symmetry_space_group_name_H-M "I M M M"
_symmetry_group_IT_number 71
_symmetry_cell_setting 'orthorhombic'
loop_
_space_group_symop_operation_xyz
x,y,z
-x,-y,z
x,-y,-z
-x,y,-z
-x,-y,-z
x,y,-z
-x,y,z
x,-y,z
1/2+x,1/2+y,1/2+z
1/2-x,1/2-y,1/2+z
1/2+x,1/2-y,1/2-z
1/2-x,1/2+y,1/2-z
1/2-x,1/2-y,1/2-z
1/2+x,1/2+y,1/2-z
1/2-x,1/2+y,1/2+z
1/2+x,1/2-y,1/2+z
loop_
_atom_site_type_symbol
_atom_site_label
_atom_site_fract_x
_atom_site_fract_y
_atom_site_fract_z
Si Si1 0.152325 0.117291 0.082961
Si Si2 0.148628 0.223472 0.340986
Si Si3 0.851177 0.607189 0.786097
Si Si4 0.838972 0.449186 0.340823
Si Si5 0.754445 0.684682 0.696659
Si Si6 0.340133 0.840247 0.582960
O O1 0.258346 0.078035 0.098415
O O2 0.169805 0.159524 0.134748
O O3 0.000000 0.099142 0.093758
O O4 0.176244 0.132859 0.000000
O O5 0.162798 0.276104 0.340661
O O6 0.156679 0.204560 0.258746
O O7 0.261695 0.204095 0.395499
O O8 0.000000 0.211832 0.371533
O O9 0.784425 0.567502 0.739342
O O10 0.856501 0.650468 0.734856
O O11 0.783626 0.620292 0.864113
O O12 0.000000 0.591233 0.805491
O O13 0.803211 0.500000 0.349900
O O14 0.000000 0.440414 0.348959
O O15 0.309045 0.853646 0.500000
O O16 0.500000 0.831996 0.595757
#
# Coordination Sequence:
#
# PCOD8288417 Si02
#       6
#    16  16  16  16  16  16
#     4  10  21  35  50  69  94 125 158 191 230 276
#     4  10  19  30  48  71  93 122 162 204 240 275
#     4   8  14  28  49  68  88 118 154 188 225 273
#     4   9  18  33  53  75  96 119 150 189 232 278
#     4   9  18  31  47  66  93 123 157 198 238 275
#     4   9  18  31  46  66  94 127 159 192 234 281
#
# _framework density 17.437327
#
# number of rings (size 3 to 8) (size 9 to 14) (size 15 to 20)
#    0.000    2.833    0.000    1.000    0.000    7.333 
#    0.000    3.333    0.000    0.500    0.000    3.500 
#    0.000    0.000    0.000   12.167    0.000    6.833 
#
# Total GULP energy -594692.707013 kJ/mol
# GULP energy per Si atom -12389.431396 kJ/mol
# Density = 1.739764 g / cm^3
# Si number density = 17.437327 Si / 1000 Ang^3
#
#
#
# Elastic Constant Matrix: (Units=GPa)
#
#
# Indices 1 2 3 4 5 6 
#
# 1 72.6360 28.2037 33.7405 0.0001 0.0000 0.0000
# 2 28.2037 86.0373 38.5163 0.0000 0.0000 0.0000
# 3 33.7405 38.5163 117.5567 0.0012 0.0001 0.0000
# 4 0.0001 0.0000 0.0012 15.0941 0.0001 0.0000
# 5 0.0000 0.0000 0.0001 0.0001 18.1807 0.0001
# 6 0.0000 0.0000 0.0000 0.0000 0.0001 16.6571
#
#
#
# Elastic Compliance Matrix: (Units=1/GPa)
#
#
# Indices 1 2 3 4 5 6 
#
# 1 0.016965 -0.003963 -0.003571 0.000000 0.000000 0.000000
# 2 -0.003963 0.014546 -0.003629 0.000000 0.000000 0.000000
# 3 -0.003571 -0.003629 0.010720 -0.000001 0.000000 0.000000
# 4 0.000000 0.000000 -0.000001 0.066251 0.000000 0.000000
# 5 0.000000 0.000000 0.000000 0.000000 0.055003 0.000000
# 6 0.000000 0.000000 0.000000 0.000000 0.000000 0.060035
#
#
# Mechanical properties :
#
#
# Convention : Reuss Voigt Hill
#
# Bulk Modulus (GPa) = 50.23320 53.01676 51.62498
# Shear Modulus (GPa) = 19.80357 21.70435 20.75396
#
# Velocity S-wave (km/s) = 3.37367 3.53187 3.45367
# Velocity P-wave (km/s) = 6.63671 6.86311 6.75086
#
# Compressibility (1/GPa) = 0.01990715
#
# Stress axis : x y z
#
# Youngs Moduli (GPa) = 58.94637 68.74619 93.28121
#
# Poissons Ratio (x) = 0.27241 0.33309
# Poissons Ratio (y) = 0.23358 0.33848
# Poissons Ratio (z) = 0.21048 0.24945
#
# Static dielectric constant tensor:
#      x y z
#    x 3.099060 0.000000 0.000000 
#    y 0.000000 3.162990 0.000000 
#    z 0.000000 0.000000 3.335000 
# 
# 
# High freq. dielectric constant tensor:
#      x y z
#    x 1.659100 0.000000 0.000000 
#    y 0.000000 1.654610 0.000000 
#    z 0.000000 0.000000 1.670560 
# 
# From -- ./inp_files/43718.got.cif
#   From: 2010.06.25/outbox.cif.g09.slc.cpg/sg71_22_cif.got.tgz:43718.got - 2010.06.28 04:59:45.
