data_PCOD8288475
_publ_section_title
;
Structure prediction by ZEFSAII (Michael W. Deem and Ramdas Pophale) SiO2 
 PCOD8288475
Probable space group: I M M M
;
_chemical_formula_sum "Si O2"
_cell_formula_units_Z 76
_cell_length_a 23.138713
_cell_length_b 15.669530
_cell_length_c 11.615258
_cell_angle_alpha 90.000000
_cell_angle_beta 90.000000
_cell_angle_gamma 90.000000
_cell_volume 4211.376122
_symmetry_space_group_name_H-M "I M M M"
_symmetry_group_IT_number 71
_symmetry_cell_setting 'orthorhombic'
loop_
_space_group_symop_operation_xyz
x,y,z
-x,-y,z
x,-y,-z
-x,y,-z
-x,-y,-z
x,y,-z
-x,y,z
x,-y,z
1/2+x,1/2+y,1/2+z
1/2-x,1/2-y,1/2+z
1/2+x,1/2-y,1/2-z
1/2-x,1/2+y,1/2-z
1/2-x,1/2-y,1/2-z
1/2+x,1/2+y,1/2-z
1/2-x,1/2+y,1/2+z
1/2+x,1/2-y,1/2+z
loop_
_atom_site_type_symbol
_atom_site_label
_atom_site_fract_x
_atom_site_fract_y
_atom_site_fract_z
Si Si1 0.122321 0.838677 0.863960
Si Si2 0.613359 0.169400 0.247807
Si Si3 0.500000 0.595206 0.363252
Si Si4 0.436084 0.820105 0.000000
Si Si5 0.802344 0.000000 0.863972
Si Si6 0.907709 0.500000 0.500000
Si Si7 0.173572 0.500000 0.715432
Si Si8 0.500000 0.900516 0.363498
O O1 0.143678 0.751298 0.805813
O O2 0.056955 0.855824 0.820424
O O3 0.162761 0.916466 0.824142
O O4 0.124817 0.828456 0.000000
O O5 0.602072 0.197116 0.114464
O O6 0.655876 0.089508 0.275135
O O7 0.554020 0.147490 0.310389
O O8 0.500000 0.500000 0.310953
O O9 0.500000 0.588521 0.500000
O O10 0.450276 0.920469 0.000000
O O11 0.500000 0.774699 0.000000
O O12 0.741715 0.000000 0.800137
O O13 0.792505 0.000000 0.000000
O O14 0.863749 0.500000 0.602848
O O15 0.500000 0.888928 0.500000
O O16 0.500000 0.000000 0.327626
#
# Coordination Sequence:
#
# PCOD8288475 Si02
#       8
#    16  16   8   8   8   4   8   8
#     4  10  20  34  56  83 112 140 175 230 287 338
#     4  11  21  35  53  82 111 148 183 220 275 325
#     4   9  15  29  52  81 108 133 166 216 279 327
#     4  10  19  30  50  77 110 139 184 217 250 323
#     4  10  20  37  58  81 103 136 191 242 285 315
#     4   8  17  30  50  70  96 141 174 230 262 282
#     4  10  20  34  53  75 106 143 186 227 263 324
#     4  11  21  34  53  83 120 152 174 215 276 346
#
# _framework density 18.046358000000001
#
# number of rings (size 3 to 8) (size 9 to 14) (size 15 to 20)
#    0.000    1.895    3.684    1.421    0.000    1.684 
#    0.000    0.000    0.000    0.632    5.474    1.474 
#    0.000    0.000    0.000    0.000    0.000    0.000 
#
# Total GULP energy -470919.636947 kJ/mol
# GULP energy per Si atom -12392.622025 kJ/mol
# Density = 1.800528 g / cm^3
# Si number density = 18.046358 Si / 1000 Ang^3
#
#
#
# Elastic Constant Matrix: (Units=GPa)
#
#
# Indices 1 2 3 4 5 6 
#
# 1 121.8830 58.1850 24.4178 0.0000 0.0000 0.0000
# 2 58.1850 157.2577 38.0176 0.0000 0.0000 0.0000
# 3 24.4178 38.0176 54.8285 0.0000 0.0000 0.0000
# 4 0.0000 0.0000 0.0000 26.1024 0.0000 0.0000
# 5 0.0000 0.0000 0.0000 0.0000 3.0439 0.0000
# 6 0.0000 0.0000 0.0000 0.0000 0.0000 12.3504
#
#
#
# Elastic Compliance Matrix: (Units=1/GPa)
#
#
# Indices 1 2 3 4 5 6 
#
# 1 0.010203 -0.003216 -0.002314 0.000000 0.000000 0.000000
# 2 -0.003216 0.008653 -0.004568 0.000000 0.000000 0.000000
# 3 -0.002314 -0.004568 0.022437 0.000000 0.000000 0.000000
# 4 0.000000 0.000000 0.000000 0.038311 0.000000 0.000000
# 5 0.000000 0.000000 0.000000 0.000000 0.328523 0.000000
# 6 0.000000 0.000000 0.000000 0.000000 0.000000 0.080969
#
#
# Mechanical properties :
#
#
# Convention : Reuss Voigt Hill
#
# Bulk Modulus (GPa) = 47.39928 63.91222 55.65575
# Shear Modulus (GPa) = 9.68384 22.52260 16.10322
#
# Velocity S-wave (km/s) = 2.31900 3.53660 2.99042
# Velocity P-wave (km/s) = 5.78728 7.22282 6.54453
#
# Compressibility (1/GPa) = 0.02109736
#
# Stress axis : x y z
#
# Youngs Moduli (GPa) = 98.00681 115.56553 44.56985
#
# Poissons Ratio (x) = 0.37163 0.10315
# Poissons Ratio (y) = 0.31516 0.20359
# Poissons Ratio (z) = 0.22682 0.52789
#
# Static dielectric constant tensor:
#      x y z
#    x 3.188450 0.000000 0.000000 
#    y 0.000000 3.587810 0.000000 
#    z 0.000000 0.000000 3.166330 
# 
# 
# High freq. dielectric constant tensor:
#      x y z
#    x 1.686770 0.000000 0.000000 
#    y 0.000000 1.706330 0.000000 
#    z 0.000000 0.000000 1.669160 
# 
# From -- ./inp_files/27196.got.cif
#   From: 2010.06.25/outbox.cif.g09.slc.cpg/sg71_14_cif.got.tgz:27196.got - 2010.06.28 04:59:45.
