data_PCOD8288731
_publ_section_title
;
Structure prediction by ZEFSAII (Michael W. Deem and Ramdas Pophale) SiO2 
 PCOD8288731
Probable space group: I M M M
;
_chemical_formula_sum "Si O2"
_cell_formula_units_Z 96
_cell_length_a 18.314881
_cell_length_b 12.679333
_cell_length_c 21.983011
_cell_angle_alpha 90.000000
_cell_angle_beta 90.000000
_cell_angle_gamma 90.000000
_cell_volume 5104.905258
_symmetry_space_group_name_H-M "I M M M"
_symmetry_group_IT_number 71
_symmetry_cell_setting 'orthorhombic'
loop_
_space_group_symop_operation_xyz
x,y,z
-x,-y,z
x,-y,-z
-x,y,-z
-x,-y,-z
x,y,-z
-x,y,z
x,-y,z
1/2+x,1/2+y,1/2+z
1/2-x,1/2-y,1/2+z
1/2+x,1/2-y,1/2-z
1/2-x,1/2+y,1/2-z
1/2-x,1/2-y,1/2-z
1/2+x,1/2+y,1/2-z
1/2-x,1/2+y,1/2+z
1/2+x,1/2-y,1/2+z
loop_
_atom_site_type_symbol
_atom_site_label
_atom_site_fract_x
_atom_site_fract_y
_atom_site_fract_z
Si Si1 0.417038 0.879629 0.752495
Si Si2 0.841898 0.621112 0.624042
Si Si3 0.659268 0.000000 0.571480
Si Si4 0.186106 0.878448 0.070315
Si Si5 0.585127 0.204905 0.376254
Si Si6 0.822664 0.000000 0.427236
Si Si7 0.419702 0.689087 0.070876
O O1 0.500000 0.863260 0.776310
O O2 0.359928 0.852426 0.805752
O O3 0.400606 0.802913 0.696035
O O4 0.406678 0.000000 0.730021
O O5 0.861300 0.500000 0.608776
O O6 0.757693 0.645441 0.610213
O O7 0.891754 0.692907 0.581514
O O8 0.617045 0.103562 0.590924
O O9 0.740940 0.000000 0.599751
O O10 0.666090 0.000000 0.500000
O O11 0.120819 0.810407 0.097619
O O12 0.162795 0.000000 0.075654
O O13 0.201550 0.847899 0.000000
O O14 0.500000 0.210397 0.391109
O O15 0.864186 0.896866 0.401113
O O16 0.821184 0.000000 0.500000
O O17 0.500000 0.674733 0.100532
O O18 0.425869 0.668490 0.000000
#
# Coordination Sequence:
#
# PCOD8288731 Si02
#       7
#    16  16   8  16  16   8  16
#     4   9  18  35  57  82 114 148 181 225 284 339
#     4  10  20  35  57  82 109 148 190 232 276 333
#     4  11  21  33  55  85 111 137 178 233 290 341
#     4  10  22  39  57  80 114 153 189 229 283 341
#     4  11  22  37  58  83 111 145 186 236 289 343
#     4   9  19  35  51  71 107 151 183 216 274 341
#     4  10  19  31  51  79 111 147 188 232 277 330
#
# _framework density 18.805440999999998
#
# number of rings (size 3 to 8) (size 9 to 14) (size 15 to 20)
#    0.000    2.000    0.833    3.000    0.000    7.000 
#    0.000    1.667    1.833    0.000    0.000    0.000 
#    0.000    0.000    0.000    0.000    0.000    0.000 
#
# Total GULP energy -595238.773217 kJ/mol
# GULP energy per Si atom -12400.807775 kJ/mol
# Density = 1.876264 g / cm^3
# Si number density = 18.805441 Si / 1000 Ang^3
#
#
#
# Elastic Constant Matrix: (Units=GPa)
#
#
# Indices 1 2 3 4 5 6 
#
# 1 160.5214 76.6528 63.4471 0.0000 0.0000 0.0000
# 2 76.6528 104.7679 46.0119 0.0000 0.0000 0.0000
# 3 63.4471 46.0119 69.3025 0.0000 0.0000 0.0000
# 4 0.0000 0.0000 0.0000 22.1191 0.0000 0.0000
# 5 0.0000 0.0000 0.0000 0.0000 31.0097 0.0000
# 6 0.0000 0.0000 0.0000 0.0000 0.0000 37.1104
#
#
#
# Elastic Compliance Matrix: (Units=1/GPa)
#
#
# Indices 1 2 3 4 5 6 
#
# 1 0.011578 -0.005386 -0.007024 0.000000 0.000000 0.000000
# 2 -0.005386 0.015979 -0.005678 0.000000 0.000000 0.000000
# 3 -0.007024 -0.005678 0.024629 0.000000 0.000000 0.000000
# 4 0.000000 0.000000 0.000000 0.045210 0.000000 0.000000
# 5 0.000000 0.000000 0.000000 0.000000 0.032248 0.000000
# 6 0.000000 0.000000 0.000000 0.000000 0.000000 0.026947
#
#
# Mechanical properties :
#
#
# Convention : Reuss Voigt Hill
#
# Bulk Modulus (GPa) = 62.45691 78.53505 70.49598
# Shear Modulus (GPa) = 25.23931 27.94651 26.59291
#
# Velocity S-wave (km/s) = 3.66748 3.85916 3.76454
# Velocity P-wave (km/s) = 7.15668 7.85557 7.51426
#
# Compressibility (1/GPa) = 0.01601104
#
# Stress axis : x y z
#
# Youngs Moduli (GPa) = 86.37152 62.58061 40.60191
#
# Poissons Ratio (x) = 0.33708 0.28517
# Poissons Ratio (y) = 0.46522 0.23054
# Poissons Ratio (z) = 0.60664 0.35533
#
# Static dielectric constant tensor:
#      x y z
#    x 3.626640 0.000000 0.000000 
#    y 0.000000 3.448320 0.000000 
#    z 0.000000 0.000000 3.300700 
# 
# 
# High freq. dielectric constant tensor:
#      x y z
#    x 1.738040 0.000000 0.000000 
#    y 0.000000 1.731480 0.000000 
#    z 0.000000 0.000000 1.711060 
# 
# From -- ./inp_files/60566.got.cif
#   From: 2010.06.25/outbox.cif.g09.slc.cpg/sg71_31_cif.got.tgz:60566.got - 2010.06.28 04:59:45.
