data_PCOD8288464
_publ_section_title
;
Structure prediction by ZEFSAII (Michael W. Deem and Ramdas Pophale) SiO2 
 PCOD8288464
Probable space group: I M M M
;
_chemical_formula_sum "Si O2"
_cell_formula_units_Z 88
_cell_length_a 24.535806
_cell_length_b 23.429095
_cell_length_c 7.538365
_cell_angle_alpha 90.000000
_cell_angle_beta 90.000000
_cell_angle_gamma 90.000000
_cell_volume 4333.442159
_symmetry_space_group_name_H-M "I M M M"
_symmetry_group_IT_number 71
_symmetry_cell_setting 'orthorhombic'
loop_
_space_group_symop_operation_xyz
x,y,z
-x,-y,z
x,-y,-z
-x,y,-z
-x,-y,-z
x,y,-z
-x,y,z
x,-y,z
1/2+x,1/2+y,1/2+z
1/2-x,1/2-y,1/2+z
1/2+x,1/2-y,1/2-z
1/2-x,1/2+y,1/2-z
1/2-x,1/2-y,1/2-z
1/2+x,1/2+y,1/2-z
1/2-x,1/2+y,1/2+z
1/2+x,1/2-y,1/2+z
loop_
_atom_site_type_symbol
_atom_site_label
_atom_site_fract_x
_atom_site_fract_y
_atom_site_fract_z
Si Si1 0.746839 0.563775 0.706022
Si Si2 0.939889 0.936666 0.289055
Si Si3 0.187249 0.259855 0.291698
Si Si4 0.140390 0.620064 0.708751
Si Si5 0.064509 0.432251 0.000000
Si Si6 0.151450 0.142209 0.700518
O O1 0.733506 0.569244 0.500000
O O2 0.734821 0.500000 0.776637
O O3 0.809832 0.577087 0.742464
O O4 0.708691 0.608833 0.804275
O O5 0.934082 0.938734 0.500000
O O6 0.895439 0.894454 0.201526
O O7 0.000000 0.915368 0.233813
O O8 0.929450 0.000000 0.212766
O O9 0.180500 0.261995 0.500000
O O10 0.250000 0.250000 0.250000
O O11 0.160322 0.317913 0.217895
O O12 0.156727 0.204466 0.208467
O O13 0.123916 0.621532 0.500000
O O14 0.089742 0.597106 0.823679
O O15 0.076246 0.500000 0.000000
O O16 0.000000 0.420079 0.000000
O O17 0.132896 0.152450 0.500000
#
# Coordination Sequence:
#
# PCOD8288464 Si02
#       6
#    16  16  16  16   8  16
#     4  10  20  32  48  76 114 152 189 236 301 367
#     4   8  14  26  44  67  99 137 176 225 282 332
#     4  10  20  33  53  83 117 156 195 237 298 362
#     4  10  22  41  62  90 127 164 200 249 315 381
#     4  11  26  46  70  98 122 158 214 268 322 381
#     4  10  19  30  49  80 107 140 193 242 286 345
#
# _framework density 20.307182000000001
#
# number of rings (size 3 to 8) (size 9 to 14) (size 15 to 20)
#    0.000    2.273    1.818    1.636    2.545    2.545 
#    0.000    1.818    0.000    3.818    0.000    2.545 
#    0.000    0.000    0.000    0.000    0.000    0.000 
#
# Total GULP energy -545275.150967 kJ/mol
# GULP energy per Si atom -12392.617067 kJ/mol
# Density = 2.026096 g / cm^3
# Si number density = 20.307182 Si / 1000 Ang^3
#
#
#
# Elastic Constant Matrix: (Units=GPa)
#
#
# Indices 1 2 3 4 5 6 
#
# 1 132.3042 68.9320 29.6318 0.0000 0.0000 0.0000
# 2 68.9320 164.8400 25.6118 0.0000 0.0000 0.0000
# 3 29.6318 25.6118 50.2967 0.0000 0.0000 0.0000
# 4 0.0000 0.0000 0.0000 16.9472 0.0000 0.0000
# 5 0.0000 0.0000 0.0000 0.0000 15.3875 0.0000
# 6 0.0000 0.0000 0.0000 0.0000 0.0000 31.3826
#
#
#
# Elastic Compliance Matrix: (Units=1/GPa)
#
#
# Indices 1 2 3 4 5 6 
#
# 1 0.010444 -0.003705 -0.004267 0.000000 0.000000 0.000000
# 2 -0.003705 0.007902 -0.001841 0.000000 0.000000 0.000000
# 3 -0.004267 -0.001841 0.023333 0.000000 0.000000 0.000000
# 4 0.000000 0.000000 0.000000 0.059007 0.000000 0.000000
# 5 0.000000 0.000000 0.000000 0.000000 0.064988 0.000000
# 6 0.000000 0.000000 0.000000 0.000000 0.000000 0.031865
#
#
# Mechanical properties :
#
#
# Convention : Reuss Voigt Hill
#
# Bulk Modulus (GPa) = 45.34257 66.19912 55.77085
# Shear Modulus (GPa) = 22.27028 27.62780 24.94904
#
# Velocity S-wave (km/s) = 3.31519 3.69249 3.50892
# Velocity P-wave (km/s) = 6.08530 7.13084 6.62872
#
# Compressibility (1/GPa) = 0.02205433
#
# Stress axis : x y z
#
# Youngs Moduli (GPa) = 95.74866 126.55514 42.85738
#
# Poissons Ratio (x) = 0.46882 0.18286
# Poissons Ratio (y) = 0.35470 0.07891
# Poissons Ratio (z) = 0.40852 0.23301
#
# Static dielectric constant tensor:
#      x y z
#    x 3.636380 0.000000 0.000000 
#    y 0.000000 4.312900 0.000000 
#    z 0.000000 0.000000 3.524560 
# 
# 
# High freq. dielectric constant tensor:
#      x y z
#    x 1.774270 0.000000 0.000000 
#    y 0.000000 1.806220 0.000000 
#    z 0.000000 0.000000 1.775790 
# 
# From -- ./inp_files/12539.got.cif
#   From: 2010.06.25/outbox.cif.g09.slc.cpg/sg71_7_cif.got.tgz:12539.got - 2010.06.28 04:59:45.
