data_PCOD8288897
_publ_section_title
;
Structure prediction by ZEFSAII (Michael W. Deem and Ramdas Pophale) SiO2 
 PCOD8288897
Probable space group: I M M M
;
_chemical_formula_sum "Si O2"
_cell_formula_units_Z 104
_cell_length_a 22.328282
_cell_length_b 12.653401
_cell_length_c 22.131182
_cell_angle_alpha 90.000000
_cell_angle_beta 90.000000
_cell_angle_gamma 90.000000
_cell_volume 6252.694208
_symmetry_space_group_name_H-M "I M M M"
_symmetry_group_IT_number 71
_symmetry_cell_setting 'orthorhombic'
loop_
_space_group_symop_operation_xyz
x,y,z
-x,-y,z
x,-y,-z
-x,y,-z
-x,-y,-z
x,y,-z
-x,y,z
x,-y,z
1/2+x,1/2+y,1/2+z
1/2-x,1/2-y,1/2+z
1/2+x,1/2-y,1/2-z
1/2-x,1/2+y,1/2-z
1/2-x,1/2-y,1/2-z
1/2+x,1/2+y,1/2-z
1/2-x,1/2+y,1/2+z
1/2+x,1/2-y,1/2+z
loop_
_atom_site_type_symbol
_atom_site_label
_atom_site_fract_x
_atom_site_fract_y
_atom_site_fract_z
Si Si1 0.845415 0.242593 0.252654
Si Si2 0.876164 0.125706 0.373728
Si Si3 0.000000 0.125160 0.568019
Si Si4 0.069266 0.622592 0.176946
Si Si5 0.730073 0.252635 0.930796
Si Si6 0.751207 0.876029 0.181374
Si Si7 0.348805 0.877573 0.567169
O O1 0.865667 0.165209 0.305973
O O2 0.903415 0.303777 0.228693
O O3 0.815458 0.173075 0.199567
O O4 0.798720 0.331267 0.273615
O O5 0.941335 0.164177 0.396137
O O6 0.827928 0.175954 0.418899
O O7 0.869688 0.000000 0.375693
O O8 0.000000 0.172553 0.500000
O O9 0.000000 0.000000 0.564136
O O10 0.080150 0.500000 0.193445
O O11 0.098402 0.652327 0.112740
O O12 0.000000 0.649810 0.171594
O O13 0.732692 0.150673 0.887493
O O14 0.787976 0.320743 0.914072
O O15 0.729671 0.214099 0.000000
O O16 0.754524 0.000000 0.189438
O O17 0.369887 0.844049 0.500000
O O18 0.333321 0.000000 0.570106
#
# Coordination Sequence:
#
# PCOD8288897 Si02
#       7
#    16  16   8  16  16  16  16
#     4  10  20  34  51  74 101 135 167 209 250 307
#     4  10  20  32  50  75 102 135 170 208 253 304
#     4   9  18  32  48  70 101 133 164 203 251 301
#     4  10  20  33  51  74 102 136 171 209 251 301
#     4  10  19  32  51  76 100 129 167 207 256 305
#     4  10  20  34  52  74 100 131 165 208 259 302
#     4   9  17  30  49  74 102 128 161 208 257 303
#
# _framework density 16.632830999999999
#
# number of rings (size 3 to 8) (size 9 to 14) (size 15 to 20)
#    0.000    2.231    1.538    1.846    1.077    2.154 
#    0.000    1.538    0.000    0.000    0.000    0.000 
#    0.000    8.923    0.000    0.000    0.000    0.000 
#
# Total GULP energy -644834.138047 kJ/mol
# GULP energy per Si atom -12400.656501 kJ/mol
# Density = 1.659497 g / cm^3
# Si number density = 16.632831 Si / 1000 Ang^3
#
#
#
# Elastic Constant Matrix: (Units=GPa)
#
#
# Indices 1 2 3 4 5 6 
#
# 1 117.7139 41.9595 42.9401 0.0000 0.0000 0.0000
# 2 41.9595 74.8186 41.1046 0.0000 0.0000 0.0000
# 3 42.9401 41.1046 89.9691 0.0000 0.0000 0.0000
# 4 0.0000 0.0000 0.0000 16.2948 0.0000 0.0000
# 5 0.0000 0.0000 0.0000 0.0000 24.2216 0.0000
# 6 0.0000 0.0000 0.0000 0.0000 0.0000 22.8761
#
#
#
# Elastic Compliance Matrix: (Units=1/GPa)
#
#
# Indices 1 2 3 4 5 6 
#
# 1 0.011323 -0.004514 -0.003342 0.000000 0.000000 0.000000
# 2 -0.004514 0.019644 -0.006820 0.000000 0.000000 0.000000
# 3 -0.003342 -0.006820 0.015826 0.000000 0.000000 0.000000
# 4 0.000000 0.000000 0.000000 0.061369 0.000000 0.000000
# 5 0.000000 0.000000 0.000000 0.000000 0.041286 0.000000
# 6 0.000000 0.000000 0.000000 0.000000 0.000000 0.043714
#
#
# Mechanical properties :
#
#
# Convention : Reuss Voigt Hill
#
# Bulk Modulus (GPa) = 57.33784 59.38998 58.36391
# Shear Modulus (GPa) = 21.89821 23.11166 22.50494
#
# Velocity S-wave (km/s) = 3.63239 3.73167 3.68236
# Velocity P-wave (km/s) = 7.22079 7.37232 7.29695
#
# Compressibility (1/GPa) = 0.01744049
#
# Stress axis : x y z
#
# Youngs Moduli (GPa) = 88.31280 50.90486 63.18697
#
# Poissons Ratio (x) = 0.22980 0.21116
# Poissons Ratio (y) = 0.39867 0.43097
# Poissons Ratio (z) = 0.29513 0.34720
#
# Static dielectric constant tensor:
#      x y z
#    x 3.218470 0.000000 0.000000 
#    y 0.000000 2.875550 0.000000 
#    z 0.000000 0.000000 3.226930 
# 
# 
# High freq. dielectric constant tensor:
#      x y z
#    x 1.643290 0.000000 0.000000 
#    y 0.000000 1.618390 0.000000 
#    z 0.000000 0.000000 1.650990 
# 
# From -- ./inp_files/59043.got.cif
#   From: 2010.06.25/outbox.cif.g09.slc.cpg/sg71_30_cif.got.tgz:59043.got - 2010.06.28 04:59:45.
