data_PCOD8288933
_publ_section_title
;
Structure prediction by ZEFSAII (Michael W. Deem and Ramdas Pophale) SiO2 
 PCOD8288933
Probable space group: I M M M
;
_chemical_formula_sum "Si O2"
_cell_formula_units_Z 96
_cell_length_a 28.500542
_cell_length_b 19.990856
_cell_length_c 9.122946
_cell_angle_alpha 90.000000
_cell_angle_beta 90.000000
_cell_angle_gamma 90.000000
_cell_volume 5197.800591
_symmetry_space_group_name_H-M "I M M M"
_symmetry_group_IT_number 71
_symmetry_cell_setting 'orthorhombic'
loop_
_space_group_symop_operation_xyz
x,y,z
-x,-y,z
x,-y,-z
-x,y,-z
-x,-y,-z
x,y,-z
-x,y,z
x,-y,z
1/2+x,1/2+y,1/2+z
1/2-x,1/2-y,1/2+z
1/2+x,1/2-y,1/2-z
1/2-x,1/2+y,1/2-z
1/2-x,1/2-y,1/2-z
1/2+x,1/2+y,1/2-z
1/2-x,1/2+y,1/2+z
1/2+x,1/2-y,1/2+z
loop_
_atom_site_type_symbol
_atom_site_label
_atom_site_fract_x
_atom_site_fract_y
_atom_site_fract_z
Si Si1 0.193158 0.201131 0.838464
Si Si2 0.727553 0.849159 0.661817
Si Si3 0.946367 0.327431 0.170787
Si Si4 0.098618 0.206068 0.674184
Si Si5 0.447641 0.427413 0.826113
Si Si6 0.135461 0.424586 0.174221
O O1 0.227350 0.144304 0.768528
O O2 0.219205 0.270900 0.857365
O O3 0.150482 0.217384 0.731721
O O4 0.177122 0.175965 0.000000
O O5 0.739117 0.879214 0.500000
O O6 0.682632 0.887598 0.731075
O O7 0.937198 0.260035 0.260534
O O8 0.911006 0.385192 0.228123
O O9 0.000000 0.350948 0.197304
O O10 0.936979 0.312440 0.000000
O O11 0.097588 0.212188 0.500000
O O12 0.084012 0.132783 0.733082
O O13 0.500000 0.418889 0.762746
O O14 0.427187 0.500000 0.776490
O O15 0.449639 0.423919 0.000000
O O16 0.133757 0.500000 0.237539
O O17 0.136061 0.425406 0.000000
#
# Coordination Sequence:
#
# PCOD8288933 Si02
#       6
#    16  16  16  16  16  16
#     4  10  19  32  52  76 104 132 164 208 257 307
#     4   9  17  32  52  75 100 129 169 211 252 301
#     4  10  20  34  52  77 109 141 176 221 270 315
#     4  11  20  31  52  80 106 135 173 215 261 311
#     4   8  15  29  48  70  97 129 167 211 253 294
#     4   9  17  32  54  78 105 138 178 223 265 308
#
# _framework density 18.469349000000001
#
# number of rings (size 3 to 8) (size 9 to 14) (size 15 to 20)
#    0.000    2.500    1.667    2.000    0.000    2.000 
#    0.000    2.500    0.000    9.000    0.000    7.000 
#    0.000    0.000    0.000    0.000    0.000    0.000 
#
# Total GULP energy -594911.688544 kJ/mol
# GULP energy per Si atom -12393.993511 kJ/mol
# Density = 1.842731 g / cm^3
# Si number density = 18.469349 Si / 1000 Ang^3
#
#
#
# Elastic Constant Matrix: (Units=GPa)
#
#
# Indices 1 2 3 4 5 6 
#
# 1 83.5672 29.0475 30.3482 0.0000 0.0000 0.0000
# 2 29.0475 89.5743 28.9950 0.0000 0.0000 0.0000
# 3 30.3482 28.9950 58.1532 0.0000 0.0000 0.0000
# 4 0.0000 0.0000 0.0000 15.5617 0.0000 0.0000
# 5 0.0000 0.0000 0.0000 0.0000 21.9237 0.0000
# 6 0.0000 0.0000 0.0000 0.0000 0.0000 21.5033
#
#
#
# Elastic Compliance Matrix: (Units=1/GPa)
#
#
# Indices 1 2 3 4 5 6 
#
# 1 0.015349 -0.002843 -0.006592 0.000000 0.000000 0.000000
# 2 -0.002843 0.013839 -0.005416 0.000000 0.000000 0.000000
# 3 -0.006592 -0.005416 0.023337 0.000000 0.000000 0.000000
# 4 0.000000 0.000000 0.000000 0.064260 0.000000 0.000000
# 5 0.000000 0.000000 0.000000 0.000000 0.045613 0.000000
# 6 0.000000 0.000000 0.000000 0.000000 0.000000 0.046505
#
#
# Mechanical properties :
#
#
# Convention : Reuss Voigt Hill
#
# Bulk Modulus (GPa) = 43.81975 45.34181 44.58078
# Shear Modulus (GPa) = 20.30755 21.32464 20.81610
#
# Velocity S-wave (km/s) = 3.31951 3.40162 3.36082
# Velocity P-wave (km/s) = 6.20237 6.32701 6.26500
#
# Compressibility (1/GPa) = 0.02282076
#
# Stress axis : x y z
#
# Youngs Moduli (GPa) = 65.15141 72.25825 42.85075
#
# Poissons Ratio (x) = 0.20546 0.28249
# Poissons Ratio (y) = 0.18526 0.23209
# Poissons Ratio (z) = 0.42950 0.39137
#
# Static dielectric constant tensor:
#      x y z
#    x 3.438200 0.000000 0.000000 
#    y 0.000000 3.528530 0.000000 
#    z 0.000000 0.000000 3.294400 
# 
# 
# High freq. dielectric constant tensor:
#      x y z
#    x 1.718170 0.000000 0.000000 
#    y 0.000000 1.701500 0.000000 
#    z 0.000000 0.000000 1.685540 
# 
# From -- ./inp_files/10898.got.cif
#   From: 2010.06.25/outbox.cif.g09.slc.cpg/sg71_6_cif.got.tgz:10898.got - 2010.06.28 04:59:45.
