data_PCOD8288640
_publ_section_title
;
Structure prediction by ZEFSAII (Michael W. Deem and Ramdas Pophale) SiO2 
 PCOD8288640
Probable space group: I M M M
;
_chemical_formula_sum "Si O2"
_cell_formula_units_Z 104
_cell_length_a 30.305139
_cell_length_b 8.771796
_cell_length_c 20.555377
_cell_angle_alpha 90.000000
_cell_angle_beta 90.000000
_cell_angle_gamma 90.000000
_cell_volume 5464.246085
_symmetry_space_group_name_H-M "I M M M"
_symmetry_group_IT_number 71
_symmetry_cell_setting 'orthorhombic'
loop_
_space_group_symop_operation_xyz
x,y,z
-x,-y,z
x,-y,-z
-x,y,-z
-x,-y,-z
x,y,-z
-x,y,z
x,-y,z
1/2+x,1/2+y,1/2+z
1/2-x,1/2-y,1/2+z
1/2+x,1/2-y,1/2-z
1/2-x,1/2+y,1/2-z
1/2-x,1/2-y,1/2-z
1/2+x,1/2+y,1/2-z
1/2-x,1/2+y,1/2+z
1/2+x,1/2-y,1/2+z
loop_
_atom_site_type_symbol
_atom_site_label
_atom_site_fract_x
_atom_site_fract_y
_atom_site_fract_z
Si Si1 0.173535 0.175167 0.000000
Si Si2 0.500000 0.829119 0.077688
Si Si3 0.086032 0.831114 0.576912
Si Si4 0.828844 0.677720 0.380878
Si Si5 0.050414 0.820147 0.924771
Si Si6 0.723152 0.173944 0.000000
Si Si7 0.798866 0.318571 0.244063
Si Si8 0.635882 0.180597 0.627969
O O1 0.157967 0.263904 0.062485
O O2 0.225405 0.184049 0.000000
O O3 0.156467 0.000000 0.000000
O O4 0.458892 0.735810 0.105575
O O5 0.500000 0.000000 0.106106
O O6 0.500000 0.835018 0.000000
O O7 0.083682 0.839376 0.500000
O O8 0.121855 0.710455 0.598567
O O9 0.094872 0.000000 0.605532
O O10 0.819628 0.500000 0.377220
O O11 0.796145 0.753507 0.434725
O O12 0.821309 0.744698 0.309563
O O13 0.085353 0.744964 0.873788
O O14 0.000000 0.766025 0.909260
O O15 0.053648 0.000000 0.916026
O O16 0.062334 0.776321 0.000000
O O17 0.706080 0.000000 0.000000
O O18 0.794555 0.500000 0.239332
O O19 0.750000 0.250000 0.250000
O O20 0.831606 0.259811 0.186110
O O21 0.632539 0.000000 0.631227
#
# Coordination Sequence:
#
# PCOD8288640 Si02
#       8
#     8   8  16  16  16   8  16  16
#     4  11  21  35  56  82 110 146 189 230 274 330
#     4   9  17  29  49  75 103 139 177 212 259 320
#     4  10  19  31  49  78 110 136 167 217 274 321
#     4  10  19  35  56  77 103 141 186 228 272 330
#     4   9  18  34  58  88 118 149 189 234 281 342
#     4   9  18  31  53  79 101 133 185 237 269 314
#     4  10  23  40  58  81 114 152 193 237 285 343
#     4  11  22  36  55  85 119 150 186 236 291 342
#
# _framework density 19.032819
#
# number of rings (size 3 to 8) (size 9 to 14) (size 15 to 20)
#    0.000    2.077    1.538    2.769    0.000    4.923 
#    0.000    2.308    1.692    0.000    0.000    0.000 
#    0.000    0.000    0.000    0.000    0.000    0.000 
#
# Total GULP energy -644327.853034 kJ/mol
# GULP energy per Si atom -12390.920251 kJ/mol
# Density = 1.898950 g / cm^3
# Si number density = 19.032819 Si / 1000 Ang^3
#
#
#
# Elastic Constant Matrix: (Units=GPa)
#
#
# Indices 1 2 3 4 5 6 
#
# 1 117.6135 23.3051 47.3925 0.0000 0.0000 0.0000
# 2 23.3051 38.0382 27.4894 0.0000 0.0000 0.0000
# 3 47.3925 27.4894 99.7942 0.0000 0.0000 0.0000
# 4 0.0000 0.0000 0.0000 -45.6425 0.0000 0.0000
# 5 0.0000 0.0000 0.0000 0.0000 38.3078 0.0000
# 6 0.0000 0.0000 0.0000 0.0000 0.0000 49.6510
#
#
#
# Elastic Compliance Matrix: (Units=1/GPa)
#
#
# Indices 1 2 3 4 5 6 
#
# 1 0.010910 -0.003671 -0.004170 0.000000 0.000000 0.000000
# 2 -0.003671 0.034059 -0.007639 0.000000 0.000000 0.000000
# 3 -0.004170 -0.007639 0.014105 0.000000 0.000000 0.000000
# 4 0.000000 0.000000 0.000000 -0.021909 0.000000 0.000000
# 5 0.000000 0.000000 0.000000 0.000000 0.026104 0.000000
# 6 0.000000 0.000000 0.000000 0.000000 0.000000 0.020141
#
#
# Mechanical properties :
#
#
# Convention : Reuss Voigt Hill
#
# Bulk Modulus (GPa) = 35.56817 50.20222 42.88520
# Shear Modulus (GPa) = 40.40734 18.94717 29.67726
#
# Velocity S-wave (km/s) = 4.61264 3.15858 3.95304
# Velocity P-wave (km/s) = 6.86272 6.30366 6.58912
#
# Compressibility (1/GPa) = 0.02811502
#
# Stress axis : x y z
#
# Youngs Moduli (GPa) = 91.65790 29.36119 70.89615
#
# Poissons Ratio (x) = 0.10778 0.29564
# Poissons Ratio (y) = 0.33645 0.54154
# Poissons Ratio (z) = 0.38222 0.22428
#
# Static dielectric constant tensor:
#      x y z
#    x 3.761300 0.000000 0.000000 
#    y 0.000000 3.422000 0.000000 
#    z 0.000000 0.000000 3.710010 
# 
# 
# High freq. dielectric constant tensor:
#      x y z
#    x 1.758980 0.000000 0.000000 
#    y 0.000000 1.727070 0.000000 
#    z 0.000000 0.000000 1.715640 
# 
# From -- ./inp_files/56754.got.cif
#   From: 2010.06.25/outbox.cif.g09.slc.cpg/sg71_29_cif.got.tgz:56754.got - 2010.06.28 04:59:45.
