data_PCOD8288852
_publ_section_title
;
Structure prediction by ZEFSAII (Michael W. Deem and Ramdas Pophale) SiO2 
 PCOD8288852
Probable space group: I M M M
;
_chemical_formula_sum "Si O2"
_cell_formula_units_Z 104
_cell_length_a 27.484940
_cell_length_b 22.335559
_cell_length_c 9.089610
_cell_angle_alpha 90.000000
_cell_angle_beta 90.000000
_cell_angle_gamma 90.000000
_cell_volume 5580.034308
_symmetry_space_group_name_H-M "I M M M"
_symmetry_group_IT_number 71
_symmetry_cell_setting 'orthorhombic'
loop_
_space_group_symop_operation_xyz
x,y,z
-x,-y,z
x,-y,-z
-x,y,-z
-x,-y,-z
x,y,-z
-x,y,z
x,-y,z
1/2+x,1/2+y,1/2+z
1/2-x,1/2-y,1/2+z
1/2+x,1/2-y,1/2-z
1/2-x,1/2+y,1/2-z
1/2-x,1/2-y,1/2-z
1/2+x,1/2+y,1/2-z
1/2-x,1/2+y,1/2+z
1/2+x,1/2-y,1/2+z
loop_
_atom_site_type_symbol
_atom_site_label
_atom_site_fract_x
_atom_site_fract_y
_atom_site_fract_z
Si Si1 0.000000 0.929104 0.825015
Si Si2 0.726384 0.500000 0.821688
Si Si3 0.576746 0.344484 0.175458
Si Si4 0.663550 0.000000 0.674726
Si Si5 0.055727 0.289845 0.668792
Si Si6 0.178520 0.114205 0.662267
Si Si7 0.229087 0.303936 0.838743
Si Si8 0.633768 0.129937 0.675289
O O1 0.953219 0.896601 0.755505
O O2 0.000000 0.000000 0.784486
O O3 0.000000 0.920324 0.000000
O O4 0.781528 0.500000 0.761446
O O5 0.695508 0.445264 0.753700
O O6 0.728224 0.500000 0.000000
O O7 0.561360 0.278110 0.228279
O O8 0.632467 0.352062 0.233146
O O9 0.568863 0.349594 0.000000
O O10 0.635848 0.060375 0.728806
O O11 0.666396 0.000000 0.500000
O O12 0.073172 0.292525 0.500000
O O13 0.086738 0.337448 0.760519
O O14 0.000000 0.309673 0.685685
O O15 0.160110 0.096372 0.500000
O O16 0.226926 0.151414 0.649932
O O17 0.250000 0.250000 0.750000
O O18 0.182133 0.335766 0.766020
O O19 0.213966 0.280783 0.000000
O O20 0.631677 0.132020 0.500000
#
# Coordination Sequence:
#
# PCOD8288852 Si02
#       8
#     8   8  16   8  16  16  16  16
#     4  11  25  41  55  77 113 152 185 226 285 339
#     4   9  14  26  48  77 109 139 173 217 266 313
#     4  10  20  37  60  84 107 140 191 239 274 320
#     4   9  16  32  54  80 116 149 182 227 276 333
#     4  10  21  39  59  81 111 145 184 237 294 338
#     4   9  17  28  49  81 108 132 170 221 266 308
#     4  10  19  32  50  77 111 143 176 215 268 327
#     4  10  20  34  57  85 111 146 189 232 281 339
#
# _framework density 18.637878000000001
#
# number of rings (size 3 to 8) (size 9 to 14) (size 15 to 20)
#    0.000    2.231    2.308    1.154    1.077    3.385 
#    0.000    1.538    0.000    2.308    0.000    0.000 
#    0.000    0.000    0.000    0.000    0.000    0.000 
#
# Total GULP energy -644314.945853 kJ/mol
# GULP energy per Si atom -12390.672036 kJ/mol
# Density = 1.859546 g / cm^3
# Si number density = 18.637878 Si / 1000 Ang^3
#
#
#
# Elastic Constant Matrix: (Units=GPa)
#
#
# Indices 1 2 3 4 5 6 
#
# 1 117.3810 54.3479 21.5889 0.0000 0.0000 0.0000
# 2 54.3479 150.1316 35.7227 0.0000 0.0000 0.0000
# 3 21.5889 35.7227 31.9968 0.0000 0.0000 0.0000
# 4 0.0000 0.0000 0.0000 25.1143 0.0000 0.0000
# 5 0.0000 0.0000 0.0000 0.0000 24.4392 0.0000
# 6 0.0000 0.0000 0.0000 0.0000 0.0000 36.9448
#
#
#
# Elastic Compliance Matrix: (Units=1/GPa)
#
#
# Indices 1 2 3 4 5 6 
#
# 1 0.010580 -0.002902 -0.003898 0.000000 0.000000 0.000000
# 2 -0.002902 0.009867 -0.009057 0.000000 0.000000 0.000000
# 3 -0.003898 -0.009057 0.043995 0.000000 0.000000 0.000000
# 4 0.000000 0.000000 0.000000 0.039818 0.000000 0.000000
# 5 0.000000 0.000000 0.000000 0.000000 0.040918 0.000000
# 6 0.000000 0.000000 0.000000 0.000000 0.000000 0.027067
#
#
# Mechanical properties :
#
#
# Convention : Reuss Voigt Hill
#
# Bulk Modulus (GPa) = 30.55650 58.09201 44.32426
# Shear Modulus (GPa) = 23.26996 29.82299 26.54647
#
# Velocity S-wave (km/s) = 3.53729 4.00450 3.77812
# Velocity P-wave (km/s) = 5.75445 7.25381 6.54719
#
# Compressibility (1/GPa) = 0.03272626
#
# Stress axis : x y z
#
# Youngs Moduli (GPa) = 94.51732 101.35191 22.72978
#
# Poissons Ratio (x) = 0.29417 0.08860
# Poissons Ratio (y) = 0.27433 0.20587
# Poissons Ratio (z) = 0.36844 0.91796
#
# Static dielectric constant tensor:
#      x y z
#    x 3.483410 0.000000 0.000000 
#    y 0.000000 3.526930 0.000000 
#    z 0.000000 0.000000 3.033320 
# 
# 
# High freq. dielectric constant tensor:
#      x y z
#    x 1.732230 0.000000 0.000000 
#    y 0.000000 1.733930 0.000000 
#    z 0.000000 0.000000 1.675900 
# 
# From -- ./inp_files/15078.got.cif
#   From: 2010.06.25/outbox.cif.g09.slc.cpg/sg71_8_cif.got.tgz:15078.got - 2010.06.28 04:59:45.
