data_PCOD8288826
_publ_section_title
;
Structure prediction by ZEFSAII (Michael W. Deem and Ramdas Pophale) SiO2 
 PCOD8288826
Probable space group: I M M M
;
_chemical_formula_sum "Si O2"
_cell_formula_units_Z 88
_cell_length_a 21.617050
_cell_length_b 12.827971
_cell_length_c 20.441255
_cell_angle_alpha 90.000000
_cell_angle_beta 90.000000
_cell_angle_gamma 90.000000
_cell_volume 5668.419097
_symmetry_space_group_name_H-M "I M M M"
_symmetry_group_IT_number 71
_symmetry_cell_setting 'orthorhombic'
loop_
_space_group_symop_operation_xyz
x,y,z
-x,-y,z
x,-y,-z
-x,y,-z
-x,-y,-z
x,y,-z
-x,y,z
x,-y,z
1/2+x,1/2+y,1/2+z
1/2-x,1/2-y,1/2+z
1/2+x,1/2-y,1/2-z
1/2-x,1/2+y,1/2-z
1/2-x,1/2-y,1/2-z
1/2+x,1/2+y,1/2-z
1/2-x,1/2+y,1/2+z
1/2+x,1/2-y,1/2+z
loop_
_atom_site_type_symbol
_atom_site_label
_atom_site_fract_x
_atom_site_fract_y
_atom_site_fract_z
Si Si1 0.138344 0.122309 0.124874
Si Si2 0.727379 0.121468 0.922723
Si Si3 0.000000 0.379790 0.577044
Si Si4 0.570353 0.622271 0.000000
Si Si5 0.387620 0.747317 0.118640
Si Si6 0.430559 0.624675 0.500000
Si Si7 0.573151 0.377154 0.756478
O O1 0.210343 0.149472 0.116608
O O2 0.108109 0.164024 0.191699
O O3 0.127757 0.000000 0.122805
O O4 0.102101 0.172465 0.063882
O O5 0.677292 0.194303 0.888147
O O6 0.709823 0.000000 0.913890
O O7 0.734112 0.146406 0.000000
O O8 0.060171 0.333654 0.610705
O O9 0.000000 0.500000 0.593126
O O10 0.000000 0.357582 0.500000
O O11 0.606550 0.659806 0.063407
O O12 0.569151 0.500000 0.000000
O O13 0.500000 0.666408 0.000000
O O14 0.394286 0.688805 0.187015
O O15 0.426083 0.500000 0.500000
O O16 0.500000 0.664989 0.500000
O O17 0.500000 0.353220 0.751987
O O18 0.583916 0.500000 0.768796
#
# Coordination Sequence:
#
# PCOD8288826 Si02
#       7
#    16  16   8   8  16   8  16
#     4   9  17  30  47  70  97 128 160 194 241 295
#     4  10  19  32  50  71  98 128 161 203 247 292
#     4  11  20  32  48  70  94 121 166 217 247 276
#     4  11  20  31  46  66  92 127 171 208 235 273
#     4  12  19  32  47  68  96 131 166 199 243 287
#     4   9  14  23  44  70  94 120 155 194 237 288
#     4  10  20  33  49  70 101 133 162 198 242 289
#
# _framework density 15.524609999999999
#
# number of rings (size 3 to 8) (size 9 to 14) (size 15 to 20)
#    0.000    1.727    4.545    1.636    0.000    5.818 
#    0.000    0.000    0.000    0.000    0.000    0.000 
#    0.000    0.000    0.000    0.818    0.000    2.636 
#
# Total GULP energy -545506.258210 kJ/mol
# GULP energy per Si atom -12397.869505 kJ/mol
# Density = 1.548928 g / cm^3
# Si number density = 15.524610 Si / 1000 Ang^3
#
#
#
# Elastic Constant Matrix: (Units=GPa)
#
#
# Indices 1 2 3 4 5 6 
#
# 1 105.6562 37.1172 72.5085 0.0000 0.0000 0.0000
# 2 37.1172 55.5795 43.2216 0.0000 0.0000 0.0000
# 3 72.5085 43.2216 146.3023 0.0000 0.0000 0.0000
# 4 0.0000 0.0000 0.0000 62.4843 0.0000 0.0000
# 5 0.0000 0.0000 0.0000 0.0000 29.1891 0.0000
# 6 0.0000 0.0000 0.0000 0.0000 0.0000 20.7588
#
#
#
# Elastic Compliance Matrix: (Units=1/GPa)
#
#
# Indices 1 2 3 4 5 6 
#
# 1 0.015633 -0.005732 -0.006055 0.000000 0.000000 0.000000
# 2 -0.005732 0.025460 -0.004681 0.000000 0.000000 0.000000
# 3 -0.006055 -0.004681 0.011219 0.000000 0.000000 0.000000
# 4 0.000000 0.000000 0.000000 0.016004 0.000000 0.000000
# 5 0.000000 0.000000 0.000000 0.000000 0.034259 0.000000
# 6 0.000000 0.000000 0.000000 0.000000 0.000000 0.048172
#
#
# Mechanical properties :
#
#
# Convention : Reuss Voigt Hill
#
# Bulk Modulus (GPa) = 51.60619 68.13696 59.87157
# Shear Modulus (GPa) = 26.29612 32.79916 29.54764
#
# Velocity S-wave (km/s) = 4.12009 4.60142 4.36739
# Velocity P-wave (km/s) = 7.47979 8.49798 8.00509
#
# Compressibility (1/GPa) = 0.01937752
#
# Stress axis : x y z
#
# Youngs Moduli (GPa) = 63.96551 39.27704 89.13637
#
# Poissons Ratio (x) = 0.22513 0.53969
# Poissons Ratio (y) = 0.36664 0.41723
# Poissons Ratio (z) = 0.38729 0.18385
#
# Static dielectric constant tensor:
#      x y z
#    x 3.083810 0.000000 0.000000 
#    y 0.000000 2.692170 0.000000 
#    z 0.000000 0.000000 3.183430 
# 
# 
# High freq. dielectric constant tensor:
#      x y z
#    x 1.602590 0.000000 0.000000 
#    y 0.000000 1.560750 0.000000 
#    z 0.000000 0.000000 1.599550 
# 
# From -- ./inp_files/47282.got.cif
#   From: 2010.06.25/outbox.cif.g09.slc.cpg/sg71_24_cif.got.tgz:47282.got - 2010.06.28 04:59:45.
