data_PCOD8288303
_publ_section_title
;
Structure prediction by ZEFSAII (Michael W. Deem and Ramdas Pophale) SiO2 
 PCOD8288303
Probable space group: I M M M
;
_chemical_formula_sum "Si O2"
_cell_formula_units_Z 112
_cell_length_a 9.225021
_cell_length_b 24.969687
_cell_length_c 30.624784
_cell_angle_alpha 90.000000
_cell_angle_beta 90.000000
_cell_angle_gamma 90.000000
_cell_volume 7054.293033
_symmetry_space_group_name_H-M "I M M M"
_symmetry_group_IT_number 71
_symmetry_cell_setting 'orthorhombic'
loop_
_space_group_symop_operation_xyz
x,y,z
-x,-y,z
x,-y,-z
-x,y,-z
-x,-y,-z
x,y,-z
-x,y,z
x,-y,z
1/2+x,1/2+y,1/2+z
1/2-x,1/2-y,1/2+z
1/2+x,1/2-y,1/2-z
1/2-x,1/2+y,1/2-z
1/2-x,1/2-y,1/2-z
1/2+x,1/2+y,1/2-z
1/2-x,1/2+y,1/2+z
1/2+x,1/2-y,1/2+z
loop_
_atom_site_type_symbol
_atom_site_label
_atom_site_fract_x
_atom_site_fract_y
_atom_site_fract_z
Si Si1 0.165375 0.315230 0.859484
Si Si2 0.668689 0.197027 0.952218
Si Si3 0.168625 0.103647 0.800060
Si Si4 0.335785 0.000000 0.301946
Si Si5 0.832306 0.809586 0.869094
Si Si6 0.669973 0.395122 0.800785
Si Si7 0.336067 0.805040 0.546509
Si Si8 0.663205 0.000000 0.801835
O O1 0.204297 0.252260 0.859274
O O2 0.275311 0.343688 0.827007
O O3 0.189040 0.338984 0.909009
O O4 0.000000 0.324786 0.843853
O O5 0.500000 0.196586 0.941457
O O6 0.750242 0.167986 0.912196
O O7 0.721312 0.257835 0.954358
O O8 0.699072 0.169999 0.000000
O O9 0.216329 0.155717 0.827354
O O10 0.207053 0.115283 0.749772
O O11 0.255808 0.052896 0.818866
O O12 0.000000 0.090210 0.805268
O O13 0.252561 0.947429 0.319039
O O14 0.333558 0.000000 0.250118
O O15 0.500000 0.000000 0.320143
O O16 0.000000 0.817668 0.878704
O O17 0.500000 0.403273 0.808429
O O18 0.320498 0.837484 0.500000
O O19 0.500000 0.780986 0.549860
O O20 0.500000 0.000000 0.820051
#
# Coordination Sequence:
#
# PCOD8288303 Si02
#       8
#    16  16  16   8  16  16  16   8
#     4   9  17  28  42  63  91 119 148 180 212 253
#     4   9  16  25  39  61  87 112 140 178 221 259
#     4   9  18  32  47  63  86 117 150 183 216 252
#     4   9  17  31  49  65  82 107 144 187 223 254
#     4   9  18  31  45  62  87 120 154 181 209 253
#     4  10  19  30  45  65  89 116 146 180 219 260
#     4   8  14  26  43  60  81 113 149 181 213 252
#     4   9  17  29  47  69  86 105 140 185 227 262
#
# _framework density 15.876856
#
# number of rings (size 3 to 8) (size 9 to 14) (size 15 to 20)
#    0.000    3.000    0.000    2.143    0.000    6.571 
#    0.000    0.000    0.000    0.000    0.000    1.000 
#    0.000    8.000    0.000    0.000    0.000    0.000 
#
# Total GULP energy -693872.581917 kJ/mol
# GULP energy per Si atom -12390.581820 kJ/mol
# Density = 1.584072 g / cm^3
# Si number density = 15.876856 Si / 1000 Ang^3
#
#
#
# Elastic Constant Matrix: (Units=GPa)
#
#
# Indices 1 2 3 4 5 6 
#
# 1 78.1964 42.6262 51.4500 0.0000 0.0000 0.0000
# 2 42.6262 70.1411 50.0304 0.0000 0.0000 0.0000
# 3 51.4500 50.0304 100.1632 0.0000 0.0000 0.0000
# 4 0.0000 0.0000 0.0000 2.3722 0.0000 0.0000
# 5 0.0000 0.0000 0.0000 0.0000 24.6675 0.0000
# 6 0.0000 0.0000 0.0000 0.0000 0.0000 22.6669
#
#
#
# Elastic Compliance Matrix: (Units=1/GPa)
#
#
# Indices 1 2 3 4 5 6 
#
# 1 0.022016 -0.008254 -0.007186 0.000000 0.000000 0.000000
# 2 -0.008254 0.025242 -0.008368 0.000000 0.000000 0.000000
# 3 -0.007186 -0.008368 0.017855 0.000000 0.000000 0.000000
# 4 0.000000 0.000000 0.000000 0.421548 0.000000 0.000000
# 5 0.000000 0.000000 0.000000 0.000000 0.040539 0.000000
# 6 0.000000 0.000000 0.000000 0.000000 0.000000 0.044117
#
#
# Mechanical properties :
#
#
# Convention : Reuss Voigt Hill
#
# Bulk Modulus (GPa) = 57.15545 59.63489 58.39517
# Shear Modulus (GPa) = 8.00301 16.90092 12.45197
#
# Velocity S-wave (km/s) = 2.24758 3.26621 2.80355
# Velocity P-wave (km/s) = 6.54315 7.20185 6.88039
#
# Compressibility (1/GPa) = 0.01749614
#
# Stress axis : x y z
#
# Youngs Moduli (GPa) = 45.42234 39.61643 56.00734
#
# Poissons Ratio (x) = 0.32698 0.40246
# Poissons Ratio (y) = 0.37490 0.46870
# Poissons Ratio (z) = 0.32640 0.33153
#
# Static dielectric constant tensor:
#      x y z
#    x 3.076770 0.000000 0.000000 
#    y 0.000000 2.753540 0.000000 
#    z 0.000000 0.000000 3.292690 
# 
# 
# High freq. dielectric constant tensor:
#      x y z
#    x 1.618510 0.000000 0.000000 
#    y 0.000000 1.564840 0.000000 
#    z 0.000000 0.000000 1.607330 
# 
# From -- ./inp_files/68697.got.cif
#   From: 2010.06.25/outbox.cif.g09.slc.cpg/sg71_35_cif.got.tgz:68697.got - 2010.06.28 04:59:45.
