data_PCOD8288562
_publ_section_title
;
Structure prediction by ZEFSAII (Michael W. Deem and Ramdas Pophale) SiO2 
 PCOD8288562
Probable space group: I M M M
;
_chemical_formula_sum "Si O2"
_cell_formula_units_Z 120
_cell_length_a 8.375397
_cell_length_b 28.985527
_cell_length_c 27.974231
_cell_angle_alpha 90.000000
_cell_angle_beta 90.000000
_cell_angle_gamma 90.000000
_cell_volume 6791.172466
_symmetry_space_group_name_H-M "I M M M"
_symmetry_group_IT_number 71
_symmetry_cell_setting 'orthorhombic'
loop_
_space_group_symop_operation_xyz
x,y,z
-x,-y,z
x,-y,-z
-x,y,-z
-x,-y,-z
x,y,-z
-x,y,z
x,-y,z
1/2+x,1/2+y,1/2+z
1/2-x,1/2-y,1/2+z
1/2+x,1/2-y,1/2-z
1/2-x,1/2+y,1/2-z
1/2-x,1/2-y,1/2-z
1/2+x,1/2+y,1/2-z
1/2-x,1/2+y,1/2+z
1/2+x,1/2-y,1/2+z
loop_
_atom_site_type_symbol
_atom_site_label
_atom_site_fract_x
_atom_site_fract_y
_atom_site_fract_z
Si Si1 0.000000 0.947380 0.443425
Si Si2 0.317621 0.192052 0.605384
Si Si3 0.311591 0.551813 0.553450
Si Si4 0.812797 0.308589 0.299235
Si Si5 0.684589 0.135080 0.111424
Si Si6 0.822546 0.401206 0.944051
Si Si7 0.685897 0.283625 0.554858
Si Si8 0.684841 0.704286 0.798209
O O1 0.166655 0.926848 0.421803
O O2 0.000000 0.939381 0.500000
O O3 0.000000 0.000000 0.428421
O O4 0.500000 0.198643 0.620622
O O5 0.298336 0.152772 0.565733
O O6 0.249595 0.239458 0.583738
O O7 0.219028 0.177522 0.652562
O O8 0.248497 0.565884 0.500000
O O9 0.500000 0.552435 0.552116
O O10 0.250611 0.500000 0.565802
O O11 0.257887 0.586402 0.595314
O O12 0.739813 0.343936 0.338972
O O13 0.769156 0.323584 0.245195
O O14 0.744647 0.256340 0.304997
O O15 0.000000 0.307967 0.307478
O O16 0.500000 0.125841 0.118909
O O17 0.713487 0.171959 0.069726
O O18 0.000000 0.417067 0.923820
O O19 0.824909 0.410149 0.000000
O O20 0.718397 0.273116 0.500000
O O21 0.500000 0.293255 0.564708
O O22 0.500000 0.705679 0.786012
#
# Coordination Sequence:
#
# PCOD8288562 Si02
#       8
#     8  16  16  16  16  16  16  16
#     4   9  18  32  50  74 100 130 170 214 259 299
#     4  10  19  31  48  69  98 136 171 205 246 298
#     4   9  19  36  55  74  99 133 172 213 257 308
#     4   9  19  34  47  66  98 129 162 206 251 295
#     4  11  21  33  49  73 102 130 165 211 259 306
#     4   9  18  32  49  72 103 138 174 212 254 305
#     4  10  20  32  46  66  96 137 177 206 237 288
#     4  10  19  31  49  70  95 129 169 207 247 293
#
# _framework density 17.669996999999999
#
# number of rings (size 3 to 8) (size 9 to 14) (size 15 to 20)
#    0.000    2.333    1.333    2.000    0.933    5.867 
#    0.000    2.000    0.000    0.000    0.000    0.933 
#    0.000    4.267    0.000    0.000    0.000    0.000 
#
# Total GULP energy -743558.774974 kJ/mol
# GULP energy per Si atom -12392.646250 kJ/mol
# Density = 1.762978 g / cm^3
# Si number density = 17.669997 Si / 1000 Ang^3
#
#
#
# Elastic Constant Matrix: (Units=GPa)
#
#
# Indices 1 2 3 4 5 6 
#
# 1 60.1075 35.9683 20.4975 0.0000 0.0000 0.0000
# 2 35.9683 94.6507 37.9827 0.0000 0.0000 0.0000
# 3 20.4975 37.9827 89.7756 0.0000 0.0000 0.0000
# 4 0.0000 0.0000 0.0000 22.2464 0.0000 0.0000
# 5 0.0000 0.0000 0.0000 0.0000 23.1902 0.0000
# 6 0.0000 0.0000 0.0000 0.0000 0.0000 24.6623
#
#
#
# Elastic Compliance Matrix: (Units=1/GPa)
#
#
# Indices 1 2 3 4 5 6 
#
# 1 0.021765 -0.007560 -0.001771 0.000000 0.000000 0.000000
# 2 -0.007560 0.015352 -0.004769 0.000000 0.000000 0.000000
# 3 -0.001771 -0.004769 0.013561 0.000000 0.000000 0.000000
# 4 0.000000 0.000000 0.000000 0.044951 0.000000 0.000000
# 5 0.000000 0.000000 0.000000 0.000000 0.043122 0.000000
# 6 0.000000 0.000000 0.000000 0.000000 0.000000 0.040548
#
#
# Mechanical properties :
#
#
# Convention : Reuss Voigt Hill
#
# Bulk Modulus (GPa) = 44.48872 48.15898 46.32385
# Shear Modulus (GPa) = 23.25683 24.02546 23.64115
#
# Velocity S-wave (km/s) = 3.63185 3.69138 3.66174
# Velocity P-wave (km/s) = 6.54365 6.74405 6.64460
#
# Compressibility (1/GPa) = 0.02247761
#
# Stress axis : x y z
#
# Youngs Moduli (GPa) = 45.94580 65.13845 73.74166
#
# Poissons Ratio (x) = 0.49247 0.13057
# Poissons Ratio (y) = 0.34736 0.35167
# Poissons Ratio (z) = 0.08136 0.31065
#
# Static dielectric constant tensor:
#      x y z
#    x 3.379210 0.000000 0.000000 
#    y 0.000000 3.199450 0.000000 
#    z 0.000000 0.000000 3.303950 
# 
# 
# High freq. dielectric constant tensor:
#      x y z
#    x 1.684730 0.000000 0.000000 
#    y 0.000000 1.653640 0.000000 
#    z 0.000000 0.000000 1.667360 
# 
# From -- ./inp_files/63826.got.cif
#   From: 2010.06.25/outbox.cif.g09.slc.cpg/sg71_32_cif.got.tgz:63826.got - 2010.06.28 04:59:45.
