data_PCOD8288042
_publ_section_title
;
Structure prediction by ZEFSAII (Michael W. Deem and Ramdas Pophale) SiO2 
 PCOD8288042
Probable space group: I M M M
;
_chemical_formula_sum "Si O2"
_cell_formula_units_Z 120
_cell_length_a 25.011030
_cell_length_b 17.087607
_cell_length_c 17.426028
_cell_angle_alpha 90.000000
_cell_angle_beta 90.000000
_cell_angle_gamma 90.000000
_cell_volume 7447.512344
_symmetry_space_group_name_H-M "I M M M"
_symmetry_group_IT_number 71
_symmetry_cell_setting 'orthorhombic'
loop_
_space_group_symop_operation_xyz
x,y,z
-x,-y,z
x,-y,-z
-x,y,-z
-x,-y,-z
x,y,-z
-x,y,z
x,-y,z
1/2+x,1/2+y,1/2+z
1/2-x,1/2-y,1/2+z
1/2+x,1/2-y,1/2-z
1/2-x,1/2+y,1/2-z
1/2-x,1/2-y,1/2-z
1/2+x,1/2+y,1/2-z
1/2-x,1/2+y,1/2+z
1/2+x,1/2-y,1/2+z
loop_
_atom_site_type_symbol
_atom_site_label
_atom_site_fract_x
_atom_site_fract_y
_atom_site_fract_z
Si Si1 0.845036 0.698751 0.911286
Si Si2 0.440307 0.801462 0.206635
Si Si3 0.755722 0.676153 0.804760
Si Si4 0.500000 0.592304 0.413975
Si Si5 0.646190 0.408574 0.192376
Si Si6 0.358148 0.091838 0.279838
Si Si7 0.438355 0.327558 0.910827
Si Si8 0.406799 0.325276 0.327606
O O1 0.783001 0.703786 0.884774
O O2 0.873861 0.628580 0.863169
O O3 0.871981 0.781623 0.891972
O O4 0.849993 0.678709 0.000000
O O5 0.500000 0.837420 0.208866
O O6 0.397136 0.870482 0.215863
O O7 0.429496 0.758449 0.125586
O O8 0.435868 0.737069 0.273355
O O9 0.750000 0.750000 0.750000
O O10 0.700248 0.637202 0.828471
O O11 0.796241 0.614868 0.762121
O O12 0.500000 0.500000 0.414887
O O13 0.500000 0.626576 0.500000
O O14 0.551846 0.620472 0.370209
O O15 0.658068 0.500000 0.190782
O O16 0.600025 0.390007 0.130589
O O17 0.630298 0.382223 0.277572
O O18 0.366675 0.000000 0.280154
O O19 0.500000 0.354406 0.898731
O O20 0.423323 0.323191 0.000000
#
# Coordination Sequence:
#
# PCOD8288042 Si02
#       8
#    16  16  16   8  16  16  16  16
#     4   9  19  33  53  74  96 135 172 207 255 302
#     4   9  16  31  55  76  98 133 177 208 243 301
#     4  10  18  35  52  72  99 130 175 215 249 305
#     4  11  22  32  48  76 106 134 168 219 272 304
#     4  11  21  32  51  78 103 135 171 212 263 309
#     4   9  19  32  51  78 105 132 162 208 262 306
#     4   9  19  35  52  74 105 139 174 211 253 305
#     4  10  18  34  51  71 100 133 176 212 241 307
#
# _framework density 16.112762
#
# number of rings (size 3 to 8) (size 9 to 14) (size 15 to 20)
#    0.800    1.533    2.000    2.000    0.933    1.600 
#    0.000    0.667    0.000    0.400    0.000    3.733 
#    0.000    0.000    0.000    0.000    0.000    0.000 
#
# Total GULP energy -743636.800188 kJ/mol
# GULP energy per Si atom -12393.946670 kJ/mol
# Density = 1.607609 g / cm^3
# Si number density = 16.112762 Si / 1000 Ang^3
#
#
#
# Elastic Constant Matrix: (Units=GPa)
#
#
# Indices 1 2 3 4 5 6 
#
# 1 94.4644 36.8634 17.2613 0.0000 0.0000 0.0000
# 2 36.8634 95.0036 36.1665 0.0000 0.0000 0.0000
# 3 17.2613 36.1665 41.3546 0.0000 0.0000 0.0000
# 4 0.0000 0.0000 0.0000 13.1389 0.0000 0.0000
# 5 0.0000 0.0000 0.0000 0.0000 21.5844 0.0000
# 6 0.0000 0.0000 0.0000 0.0000 0.0000 25.0308
#
#
#
# Elastic Compliance Matrix: (Units=1/GPa)
#
#
# Indices 1 2 3 4 5 6 
#
# 1 0.012534 -0.004305 -0.001467 0.000000 0.000000 0.000000
# 2 -0.004305 0.017258 -0.013296 0.000000 0.000000 0.000000
# 3 -0.001467 -0.013296 0.036421 0.000000 0.000000 0.000000
# 4 0.000000 0.000000 0.000000 0.076110 0.000000 0.000000
# 5 0.000000 0.000000 0.000000 0.000000 0.046330 0.000000
# 6 0.000000 0.000000 0.000000 0.000000 0.000000 0.039951
#
#
# Mechanical properties :
#
#
# Convention : Reuss Voigt Hill
#
# Bulk Modulus (GPa) = 35.61536 45.71166 40.66351
# Shear Modulus (GPa) = 18.10950 21.31957 19.71453
#
# Velocity S-wave (km/s) = 3.35613 3.64146 3.50170
# Velocity P-wave (km/s) = 6.09672 6.79056 6.45297
#
# Compressibility (1/GPa) = 0.02807777
#
# Stress axis : x y z
#
# Youngs Moduli (GPa) = 79.78286 57.94424 27.45653
#
# Poissons Ratio (x) = 0.24946 0.04027
# Poissons Ratio (y) = 0.34348 0.36506
# Poissons Ratio (z) = 0.11701 0.77042
#
# Static dielectric constant tensor:
#      x y z
#    x 3.032250 0.000000 0.000000 
#    y 0.000000 2.881840 0.000000 
#    z 0.000000 0.000000 2.948050 
# 
# 
# High freq. dielectric constant tensor:
#      x y z
#    x 1.626930 0.000000 0.000000 
#    y 0.000000 1.607340 0.000000 
#    z 0.000000 0.000000 1.604770 
# 
# From -- ./inp_files/48449.got.cif
#   From: 2010.06.25/outbox.cif.g09.slc.cpg/sg71_25_cif.got.tgz:48449.got - 2010.06.28 04:59:45.
