data_PCOD8288059
_publ_section_title
;
Structure prediction by ZEFSAII (Michael W. Deem and Ramdas Pophale) SiO2 
 PCOD8288059
Probable space group: I M M M
;
_chemical_formula_sum "Si O2"
_cell_formula_units_Z 88
_cell_length_a 15.789381
_cell_length_b 18.150006
_cell_length_c 15.511441
_cell_angle_alpha 90.000000
_cell_angle_beta 90.000000
_cell_angle_gamma 90.000000
_cell_volume 4445.227810
_symmetry_space_group_name_H-M "I M M M"
_symmetry_group_IT_number 71
_symmetry_cell_setting 'orthorhombic'
loop_
_space_group_symop_operation_xyz
x,y,z
-x,-y,z
x,-y,-z
-x,y,-z
-x,-y,-z
x,y,-z
-x,y,z
x,-y,z
1/2+x,1/2+y,1/2+z
1/2-x,1/2-y,1/2+z
1/2+x,1/2-y,1/2-z
1/2-x,1/2+y,1/2-z
1/2-x,1/2-y,1/2-z
1/2+x,1/2+y,1/2-z
1/2-x,1/2+y,1/2+z
1/2+x,1/2-y,1/2+z
loop_
_atom_site_type_symbol
_atom_site_label
_atom_site_fract_x
_atom_site_fract_y
_atom_site_fract_z
Si Si1 0.785966 0.581372 0.254652
Si Si2 0.403865 0.886391 0.094953
Si Si3 0.500000 0.416958 0.600281
Si Si4 0.593803 0.719586 0.856606
Si Si5 0.274827 0.173008 0.403292
Si Si6 0.143457 0.814496 0.826852
O O1 0.748541 0.500000 0.237644
O O2 0.858504 0.573184 0.326256
O O3 0.817351 0.615020 0.163130
O O4 0.718058 0.636852 0.290595
O O5 0.500000 0.912630 0.099721
O O6 0.396094 0.799136 0.102789
O O7 0.366476 0.908207 0.000000
O O8 0.500000 0.500000 0.642881
O O9 0.500000 0.428997 0.500000
O O10 0.418012 0.369887 0.624172
O O11 0.500000 0.686934 0.881338
O O12 0.672060 0.671356 0.892222
O O13 0.597374 0.725741 0.752701
O O14 0.296831 0.147714 0.500000
O O15 0.315599 0.253675 0.389263
#
# Coordination Sequence:
#
# PCOD8288059 Si02
#       6
#    16  16   8  16  16  16
#     4  11  23  39  59  85 120 160 198 243 302 362
#     4  10  20  35  58  89 120 148 188 241 300 361
#     4  11  24  38  56  86 122 158 197 246 302 356
#     4  10  18  34  61  89 115 146 191 245 297 349
#     4  11  22  38  62  89 119 155 202 252 293 350
#     4  11  20  39  59  86 113 153 205 244 294 347
#
# _framework density 19.796510999999999
#
# number of rings (size 3 to 8) (size 9 to 14) (size 15 to 20)
#    0.000    1.364    4.545    2.727    0.000    2.909 
#    0.000    0.909    0.000    0.000    0.000    3.818 
#    0.000    0.000    0.000    0.000    0.000    0.000 
#
# Total GULP energy -545308.442102 kJ/mol
# GULP energy per Si atom -12393.373684 kJ/mol
# Density = 1.975145 g / cm^3
# Si number density = 19.796511 Si / 1000 Ang^3
#
#
#
# Elastic Constant Matrix: (Units=GPa)
#
#
# Indices 1 2 3 4 5 6 
#
# 1 59.0273 1.6913 33.9023 0.0000 0.0000 0.0000
# 2 1.6913 50.2842 38.1962 0.0000 0.0000 0.0000
# 3 33.9023 38.1962 153.1128 0.0000 0.0000 0.0000
# 4 0.0000 0.0000 0.0000 13.5746 0.0000 0.0000
# 5 0.0000 0.0000 0.0000 0.0000 -98.1456 0.0000
# 6 0.0000 0.0000 0.0000 0.0000 0.0000 159.8296
#
#
#
# Elastic Compliance Matrix: (Units=1/GPa)
#
#
# Indices 1 2 3 4 5 6 
#
# 1 0.019842 0.003294 -0.005215 0.000000 0.000000 0.000000
# 2 0.003294 0.025083 -0.006987 0.000000 0.000000 0.000000
# 3 -0.005215 -0.006987 0.009429 0.000000 0.000000 0.000000
# 4 0.000000 0.000000 0.000000 0.073667 0.000000 0.000000
# 5 0.000000 0.000000 0.000000 0.000000 -0.010189 0.000000
# 6 0.000000 0.000000 0.000000 0.000000 0.000000 0.006257
#
#
# Mechanical properties :
#
#
# Convention : Reuss Voigt Hill
#
# Bulk Modulus (GPa) = 27.36822 45.55600 36.46211
# Shear Modulus (GPa) = 32.44968 27.62735 30.03851
#
# Velocity S-wave (km/s) = 4.05305 3.73978 3.89956
# Velocity P-wave (km/s) = 5.97978 6.45833 6.22365
#
# Compressibility (1/GPa) = 0.03653873
#
# Stress axis : x y z
#
# Youngs Moduli (GPa) = 50.39735 39.86700 106.05725
#
# Poissons Ratio (x) = -0.13133 0.55312
# Poissons Ratio (y) = -0.16602 0.74100
# Poissons Ratio (z) = 0.26284 0.27854
#
# Static dielectric constant tensor:
#      x y z
#    x 12.050100 0.000000 0.000000 
#    y 0.000000 3.511940 0.000000 
#    z 0.000000 0.000000 4.046480 
# 
# 
# High freq. dielectric constant tensor:
#      x y z
#    x 1.764170 0.000000 0.000000 
#    y 0.000000 1.754640 0.000000 
#    z 0.000000 0.000000 1.779740 
# 
# From -- ./inp_files/36392.got.cif
#   From: 2010.06.25/outbox.cif.g09.slc.cpg/sg71_19_cif.got.tgz:36392.got - 2010.06.28 04:59:45.
