data_PCOD8288168
_publ_section_title
;
Structure prediction by ZEFSAII (Michael W. Deem and Ramdas Pophale) SiO2 
 PCOD8288168
Probable space group: I M M M
;
_chemical_formula_sum "Si O2"
_cell_formula_units_Z 80
_cell_length_a 13.812336
_cell_length_b 26.896544
_cell_length_c 14.031733
_cell_angle_alpha 90.000000
_cell_angle_beta 90.000000
_cell_angle_gamma 90.000000
_cell_volume 5212.846381
_symmetry_space_group_name_H-M "I M M M"
_symmetry_group_IT_number 71
_symmetry_cell_setting 'orthorhombic'
loop_
_space_group_symop_operation_xyz
x,y,z
-x,-y,z
x,-y,-z
-x,y,-z
-x,-y,-z
x,y,-z
-x,y,z
x,-y,z
1/2+x,1/2+y,1/2+z
1/2-x,1/2-y,1/2+z
1/2+x,1/2-y,1/2-z
1/2-x,1/2+y,1/2-z
1/2-x,1/2-y,1/2-z
1/2+x,1/2+y,1/2-z
1/2-x,1/2+y,1/2+z
1/2+x,1/2-y,1/2+z
loop_
_atom_site_type_symbol
_atom_site_label
_atom_site_fract_x
_atom_site_fract_y
_atom_site_fract_z
Si Si1 0.279487 0.702146 0.887696
Si Si2 0.394429 0.608306 0.888080
Si Si3 0.204823 0.443707 0.111378
Si Si4 0.110547 0.648592 0.204861
Si Si5 0.610347 0.800434 0.892851
O O1 0.352817 0.660243 0.847240
O O2 0.173393 0.691712 0.845138
O O3 0.318766 0.756161 0.859189
O O4 0.270799 0.696746 0.000000
O O5 0.500000 0.596952 0.841699
O O6 0.318416 0.564425 0.864338
O O7 0.407647 0.613392 0.000000
O O8 0.176331 0.500000 0.137258
O O9 0.140010 0.406909 0.174242
O O10 0.185592 0.432272 0.000000
O O11 0.123640 0.653874 0.319574
O O12 0.000000 0.657899 0.174697
O O13 0.500000 0.780315 0.890283
O O14 0.636437 0.818565 0.000000
#
# Coordination Sequence:
#
# PCOD8288168 Si02
#       5
#    16  16  16  16  16
#     4   9  16  26  41  62  88 113 134 159 195 240
#     4   8  13  22  38  60  85 110 132 156 190 234
#     4   9  18  30  42  59  83 109 137 169 206 248
#     4  10  19  29  42  60  83 111 141 171 200 235
#     4   9  17  29  45  63  82 106 136 169 206 245
#
# _framework density 15.346700999999999
#
# number of rings (size 3 to 8) (size 9 to 14) (size 15 to 20)
#    0.000    3.000    0.000    3.000    0.000    4.800 
#    0.000    3.000    0.000    0.600    0.000    2.800 
#    0.000    0.000    0.000    7.200    0.000    0.800 
#
# Total GULP energy -495699.355128 kJ/mol
# GULP energy per Si atom -12392.483878 kJ/mol
# Density = 1.531177 g / cm^3
# Si number density = 15.346701 Si / 1000 Ang^3
#
#
#
# Elastic Constant Matrix: (Units=GPa)
#
#
# Indices 1 2 3 4 5 6 
#
# 1 104.0933 44.0125 35.4708 0.0000 0.0000 0.0000
# 2 44.0125 93.5789 51.9264 -0.0001 0.0000 0.0000
# 3 35.4708 51.9264 51.4044 0.0002 0.0002 0.0000
# 4 0.0000 -0.0001 0.0002 21.4714 0.0000 0.0000
# 5 0.0000 0.0000 0.0002 0.0000 16.0900 0.0000
# 6 0.0000 0.0000 0.0000 0.0000 0.0000 15.8610
#
#
#
# Elastic Compliance Matrix: (Units=1/GPa)
#
#
# Indices 1 2 3 4 5 6 
#
# 1 0.012822 -0.002551 -0.006271 0.000000 0.000000 0.000000
# 2 -0.002551 0.024823 -0.023315 0.000000 0.000000 0.000000
# 3 -0.006271 -0.023315 0.047333 -0.000001 0.000000 0.000000
# 4 0.000000 0.000000 -0.000001 0.046574 0.000000 0.000000
# 5 0.000000 0.000000 0.000000 0.000000 0.062151 0.000000
# 6 0.000000 0.000000 0.000000 0.000000 0.000000 0.063048
#
#
# Mechanical properties :
#
#
# Convention : Reuss Voigt Hill
#
# Bulk Modulus (GPa) = 48.29948 56.87732 52.58840
# Shear Modulus (GPa) = 15.24731 18.52892 16.88811
#
# Velocity S-wave (km/s) = 3.15544 3.47847 3.32089
# Velocity P-wave (km/s) = 6.69450 7.29898 7.00326
#
# Compressibility (1/GPa) = 0.02070416
#
# Stress axis : x y z
#
# Youngs Moduli (GPa) = 77.98954 40.28442 21.12692
#
# Poissons Ratio (x) = 0.10276 0.13249
# Poissons Ratio (y) = 0.19894 0.49258
# Poissons Ratio (z) = 0.48907 0.93925
#
# Static dielectric constant tensor:
#      x y z
#    x 3.136250 0.000000 0.000000 
#    y 0.000000 2.815850 0.000000 
#    z 0.000000 0.000000 2.750260 
# 
# 
# High freq. dielectric constant tensor:
#      x y z
#    x 1.597120 0.000000 0.000000 
#    y 0.000000 1.570310 0.000000 
#    z 0.000000 0.000000 1.553230 
# 
# From -- ./inp_files/22136.got.cif
#   From: 2010.06.25/outbox.cif.g09.slc.cpg/sg71_12_cif.got.tgz:22136.got - 2010.06.28 04:59:45.
