data_PCOD8288690
_publ_section_title
;
Structure prediction by ZEFSAII (Michael W. Deem and Ramdas Pophale) SiO2 
 PCOD8288690
Probable space group: I M M M
;
_chemical_formula_sum "Si O2"
_cell_formula_units_Z 88
_cell_length_a 18.505207
_cell_length_b 19.111858
_cell_length_c 13.225898
_cell_angle_alpha 90.000000
_cell_angle_beta 90.000000
_cell_angle_gamma 90.000000
_cell_volume 4677.588644
_symmetry_space_group_name_H-M "I M M M"
_symmetry_group_IT_number 71
_symmetry_cell_setting 'orthorhombic'
loop_
_space_group_symop_operation_xyz
x,y,z
-x,-y,z
x,-y,-z
-x,y,-z
-x,-y,-z
x,y,-z
-x,y,z
x,-y,z
1/2+x,1/2+y,1/2+z
1/2-x,1/2-y,1/2+z
1/2+x,1/2-y,1/2-z
1/2-x,1/2+y,1/2-z
1/2-x,1/2-y,1/2-z
1/2+x,1/2+y,1/2-z
1/2-x,1/2+y,1/2+z
1/2+x,1/2-y,1/2+z
loop_
_atom_site_type_symbol
_atom_site_label
_atom_site_fract_x
_atom_site_fract_y
_atom_site_fract_z
Si Si1 0.584472 0.807985 0.198948
Si Si2 0.212989 0.918988 0.299792
Si Si3 0.310667 0.920746 0.114111
Si Si4 0.917427 0.843870 0.382968
Si Si5 0.419708 0.000000 0.620149
Si Si6 0.346160 0.858341 0.614838
O O1 0.500000 0.824935 0.208976
O O2 0.622794 0.869976 0.137921
O O3 0.598815 0.736999 0.138918
O O4 0.620310 0.799709 0.311261
O O5 0.241323 0.906614 0.185740
O O6 0.130910 0.893293 0.311457
O O7 0.260245 0.869490 0.374988
O O8 0.218390 0.000000 0.332367
O O9 0.338914 0.000000 0.128623
O O10 0.283697 0.907670 0.000000
O O11 0.900723 0.859341 0.500000
O O12 0.000000 0.862008 0.356334
O O13 0.379116 0.068932 0.658144
O O14 0.500000 0.000000 0.665223
O O15 0.420624 0.000000 0.500000
O O16 0.367752 0.840164 0.500000
#
# Coordination Sequence:
#
# PCOD8288690 Si02
#       6
#    16  16  16  16   8  16
#     4  10  21  35  51  73 108 148 184 220 259 311
#     4  10  20  36  58  81 106 134 173 224 270 324
#     4   9  19  35  55  80 108 139 176 216 260 308
#     4  10  22  39  57  78 105 138 174 218 275 323
#     4   9  16  26  42  68 104 142 174 205 248 300
#     4  10  19  31  50  78 109 144 180 216 263 312
#
# _framework density 18.813112
#
# number of rings (size 3 to 8) (size 9 to 14) (size 15 to 20)
#    0.000    2.273    0.909    1.636    1.273    6.909 
#    0.000    4.545    0.000    1.636    0.000    2.545 
#    0.000    0.000    0.000    0.000    0.000    0.000 
#
# Total GULP energy -545575.242667 kJ/mol
# GULP energy per Si atom -12399.437333 kJ/mol
# Density = 1.877029 g / cm^3
# Si number density = 18.813112 Si / 1000 Ang^3
#
#
#
# Elastic Constant Matrix: (Units=GPa)
#
#
# Indices 1 2 3 4 5 6 
#
# 1 118.7679 46.4533 41.8825 0.0000 0.0000 0.0000
# 2 46.4533 48.3889 29.4145 0.0000 0.0000 0.0000
# 3 41.8825 29.4145 95.5042 0.0000 0.0000 0.0000
# 4 0.0000 0.0000 0.0000 26.4446 0.0000 0.0000
# 5 0.0000 0.0000 0.0000 0.0000 21.1759 0.0000
# 6 0.0000 0.0000 0.0000 0.0000 0.0000 33.4827
#
#
#
# Elastic Compliance Matrix: (Units=1/GPa)
#
#
# Indices 1 2 3 4 5 6 
#
# 1 0.013933 -0.011887 -0.002449 0.000000 0.000000 0.000000
# 2 -0.011887 0.035567 -0.005742 0.000000 0.000000 0.000000
# 3 -0.002449 -0.005742 0.013313 0.000000 0.000000 0.000000
# 4 0.000000 0.000000 0.000000 0.037815 0.000000 0.000000
# 5 0.000000 0.000000 0.000000 0.000000 0.047224 0.000000
# 6 0.000000 0.000000 0.000000 0.000000 0.000000 0.029866
#
#
# Mechanical properties :
#
#
# Convention : Reuss Voigt Hill
#
# Bulk Modulus (GPa) = 44.13379 55.35132 49.74256
# Shear Modulus (GPa) = 22.18034 25.88134 24.03084
#
# Velocity S-wave (km/s) = 3.43736 3.71308 3.57787
# Velocity P-wave (km/s) = 6.26609 6.91868 6.60046
#
# Compressibility (1/GPa) = 0.02265837
#
# Stress axis : x y z
#
# Youngs Moduli (GPa) = 71.77429 28.11582 75.11373
#
# Poissons Ratio (x) = 0.33420 0.18396
# Poissons Ratio (y) = 0.85315 0.43128
# Poissons Ratio (z) = 0.17578 0.16143
#
# Static dielectric constant tensor:
#      x y z
#    x 3.429430 0.000000 0.000000 
#    y 0.000000 3.285880 0.000000 
#    z 0.000000 0.000000 3.492800 
# 
# 
# High freq. dielectric constant tensor:
#      x y z
#    x 1.724970 0.000000 0.000000 
#    y 0.000000 1.711940 0.000000 
#    z 0.000000 0.000000 1.733190 
# 
# From -- ./inp_files/36369.got.cif
#   From: 2010.06.25/outbox.cif.g09.slc.cpg/sg71_19_cif.got.tgz:36369.got - 2010.06.28 04:59:45.
