data_PCOD8288148
_publ_section_title
;
Structure prediction by ZEFSAII (Michael W. Deem and Ramdas Pophale) SiO2 
 PCOD8288148
Probable space group: I M M M
;
_chemical_formula_sum "Si O2"
_cell_formula_units_Z 96
_cell_length_a 29.307422
_cell_length_b 9.140420
_cell_length_c 27.801965
_cell_angle_alpha 90.000000
_cell_angle_beta 90.000000
_cell_angle_gamma 90.000000
_cell_volume 7447.650053
_symmetry_space_group_name_H-M "I M M M"
_symmetry_group_IT_number 71
_symmetry_cell_setting 'orthorhombic'
loop_
_space_group_symop_operation_xyz
x,y,z
-x,-y,z
x,-y,-z
-x,y,-z
-x,-y,-z
x,y,-z
-x,y,z
x,-y,z
1/2+x,1/2+y,1/2+z
1/2-x,1/2-y,1/2+z
1/2+x,1/2-y,1/2-z
1/2-x,1/2+y,1/2-z
1/2-x,1/2-y,1/2-z
1/2+x,1/2+y,1/2-z
1/2-x,1/2+y,1/2+z
1/2+x,1/2-y,1/2+z
loop_
_atom_site_type_symbol
_atom_site_label
_atom_site_fract_x
_atom_site_fract_y
_atom_site_fract_z
Si Si1 0.407583 0.326497 0.000000
Si Si2 0.285916 0.834287 0.093134
Si Si3 0.447328 0.328456 0.099860
Si Si4 0.696016 0.672588 0.000000
Si Si5 0.320611 0.332893 0.767317
Si Si6 0.873093 0.670641 0.341402
Si Si7 0.240072 0.166700 0.186151
O O1 0.433218 0.267311 0.952695
O O2 0.355841 0.268258 0.000000
O O3 0.408765 0.500000 0.000000
O O4 0.278861 0.730185 0.047586
O O5 0.331702 0.791458 0.122470
O O6 0.241798 0.813877 0.128171
O O7 0.289746 0.000000 0.074425
O O8 0.500000 0.293300 0.108772
O O9 0.436807 0.500000 0.103353
O O10 0.419061 0.246350 0.140692
O O11 0.698433 0.500000 0.000000
O O12 0.332363 0.500000 0.780018
O O13 0.361355 0.232987 0.788062
O O14 0.273087 0.288595 0.791924
O O15 0.310743 0.313304 0.709510
O O16 0.881989 0.500000 0.336740
O O17 0.257767 0.000000 0.197685
#
# Coordination Sequence:
#
# PCOD8288148 Si02
#       7
#     8  16  16   8  16  16  16
#     4   9  17  29  42  55  69  85 115 157 197 232
#     4   9  17  28  39  51  71  95 117 143 180 218
#     4  10  19  31  45  57  69  88 117 154 195 234
#     4  11  19  26  39  55  70  92 124 155 184 220
#     4   9  15  24  40  57  73  90 112 139 172 214
#     4  10  19  29  40  54  73  93 115 144 182 225
#     4   8  15  26  38  55  74  92 112 139 174 213
#
# _framework density 12.889972
#
# number of rings (size 3 to 8) (size 9 to 14) (size 15 to 20)
#    0.000    2.667    1.667    2.500    0.000    4.667 
#    0.000    0.417    0.000    1.000    0.000    0.000 
#    0.000    0.000    0.000    0.000    0.000    0.000 
#
# Total GULP energy -594808.966293 kJ/mol
# GULP energy per Si atom -12391.853464 kJ/mol
# Density = 1.286063 g / cm^3
# Si number density = 12.889972 Si / 1000 Ang^3
#
#
#
# Elastic Constant Matrix: (Units=GPa)
#
#
# Indices 1 2 3 4 5 6 
#
# 1 50.9743 28.6903 50.3057 0.0000 0.0000 0.0000
# 2 28.6903 54.3939 42.7200 0.0000 0.0000 0.0000
# 3 50.3057 42.7200 85.7621 0.0000 0.0000 0.0000
# 4 0.0000 0.0000 0.0000 18.3906 0.0000 0.0000
# 5 0.0000 0.0000 0.0000 0.0000 19.6606 0.0000
# 6 0.0000 0.0000 0.0000 0.0000 0.0000 14.9558
#
#
#
# Elastic Compliance Matrix: (Units=1/GPa)
#
#
# Indices 1 2 3 4 5 6 
#
# 1 0.047466 -0.005206 -0.025249 0.000000 0.000000 0.000000
# 2 -0.005206 0.030770 -0.012273 0.000000 0.000000 0.000000
# 3 -0.025249 -0.012273 0.032584 0.000000 0.000000 0.000000
# 4 0.000000 0.000000 0.000000 0.054375 0.000000 0.000000
# 5 0.000000 0.000000 0.000000 0.000000 0.050863 0.000000
# 6 0.000000 0.000000 0.000000 0.000000 0.000000 0.066864
#
#
# Mechanical properties :
#
#
# Convention : Reuss Voigt Hill
#
# Bulk Modulus (GPa) = 39.42753 48.28469 43.85611
# Shear Modulus (GPa) = 13.26852 15.22903 14.24878
#
# Velocity S-wave (km/s) = 3.21186 3.44097 3.32839
# Velocity P-wave (km/s) = 6.66400 7.30257 6.99058
#
# Compressibility (1/GPa) = 0.02536299
#
# Stress axis : x y z
#
# Youngs Moduli (GPa) = 21.06792 32.49964 30.68987
#
# Poissons Ratio (x) = 0.16919 0.77488
# Poissons Ratio (y) = 0.10968 0.37667
# Poissons Ratio (z) = 0.53194 0.39888
#
# Static dielectric constant tensor:
#      x y z
#    x 2.388740 0.000000 0.000000 
#    y 0.000000 2.614940 0.000000 
#    z 0.000000 0.000000 2.742480 
# 
# 
# High freq. dielectric constant tensor:
#      x y z
#    x 1.440200 0.000000 0.000000 
#    y 0.000000 1.498010 0.000000 
#    z 0.000000 0.000000 1.478690 
# 
# From -- ./inp_files/17569.got.cif
#   From: 2010.06.25/outbox.cif.g09.slc.cpg/sg71_9_cif.got.tgz:17569.got - 2010.06.28 04:59:45.
