data_PCOD8288744
_publ_section_title
;
Structure prediction by ZEFSAII (Michael W. Deem and Ramdas Pophale) SiO2 
 PCOD8288744
Probable space group: I M M M
;
_chemical_formula_sum "Si O2"
_cell_formula_units_Z 104
_cell_length_a 26.151834
_cell_length_b 9.587702
_cell_length_c 23.069716
_cell_angle_alpha 90.000000
_cell_angle_beta 90.000000
_cell_angle_gamma 90.000000
_cell_volume 5784.408107
_symmetry_space_group_name_H-M "I M M M"
_symmetry_group_IT_number 71
_symmetry_cell_setting 'orthorhombic'
loop_
_space_group_symop_operation_xyz
x,y,z
-x,-y,z
x,-y,-z
-x,y,-z
-x,-y,-z
x,y,-z
-x,y,z
x,-y,z
1/2+x,1/2+y,1/2+z
1/2-x,1/2-y,1/2+z
1/2+x,1/2-y,1/2-z
1/2-x,1/2+y,1/2-z
1/2-x,1/2-y,1/2-z
1/2+x,1/2+y,1/2-z
1/2-x,1/2+y,1/2+z
1/2+x,1/2-y,1/2+z
loop_
_atom_site_type_symbol
_atom_site_label
_atom_site_fract_x
_atom_site_fract_y
_atom_site_fract_z
Si Si1 0.441867 0.834683 0.565296
Si Si2 0.694449 0.842404 0.934741
Si Si3 0.653496 0.344393 0.228843
Si Si4 0.500000 0.334937 0.935858
Si Si5 0.106527 0.158110 0.395137
Si Si6 0.247115 0.159388 0.655415
Si Si7 0.132265 0.659730 0.831624
O O1 0.428161 0.779265 0.500000
O O2 0.500000 0.786930 0.581738
O O3 0.400336 0.780717 0.613177
O O4 0.439348 0.000000 0.563917
O O5 0.641217 0.760780 0.932627
O O6 0.736189 0.762113 0.897230
O O7 0.687381 0.000000 0.911158
O O8 0.715071 0.844741 0.000000
O O9 0.655332 0.500000 0.255092
O O10 0.619782 0.336414 0.171858
O O11 0.711985 0.297695 0.211458
O O12 0.622399 0.248808 0.274097
O O13 0.500000 0.500000 0.939676
O O14 0.450539 0.283343 0.901255
O O15 0.500000 0.269441 0.000000
O O16 0.112174 0.000000 0.419298
O O17 0.307044 0.174092 0.662838
O O18 0.231711 0.000000 0.639117
O O19 0.116158 0.500000 0.820926
#
# Coordination Sequence:
#
# PCOD8288744 Si02
#       7
#    16  16  16   8  16  16  16
#     4   8  15  30  51  74 101 129 157 198 251 300
#     4  10  20  32  47  70 100 132 164 201 252 306
#     4   9  18  32  47  68 101 135 163 196 247 299
#     4   9  16  28  51  77  95 121 168 217 250 278
#     4   9  18  33  51  71  96 130 172 211 246 288
#     4   9  19  33  49  71  98 130 169 209 245 290
#     4  10  19  31  52  79  98 122 166 208 243 291
#
# _framework density 17.979367
#
# number of rings (size 3 to 8) (size 9 to 14) (size 15 to 20)
#    0.000    2.846    0.000    2.769    0.000    5.538 
#    1.385    1.923    0.000    1.846    0.000    1.077 
#    0.000    0.000    0.000    0.000    0.000    0.000 
#
# Total GULP energy -644263.015731 kJ/mol
# GULP energy per Si atom -12389.673379 kJ/mol
# Density = 1.793845 g / cm^3
# Si number density = 17.979367 Si / 1000 Ang^3
#
#
#
# Elastic Constant Matrix: (Units=GPa)
#
#
# Indices 1 2 3 4 5 6 
#
# 1 84.2963 9.0136 39.5870 0.0000 0.0000 0.0000
# 2 9.0136 58.4590 32.7847 0.0000 0.0000 0.0000
# 3 39.5870 32.7847 97.5510 0.0000 0.0000 0.0000
# 4 0.0000 0.0000 0.0000 28.6201 0.0000 0.0000
# 5 0.0000 0.0000 0.0000 0.0000 23.8065 0.0000
# 6 0.0000 0.0000 0.0000 0.0000 0.0000 8.7184
#
#
#
# Elastic Compliance Matrix: (Units=1/GPa)
#
#
# Indices 1 2 3 4 5 6 
#
# 1 0.014740 0.001333 -0.006430 0.000000 0.000000 0.000000
# 2 0.001333 0.021199 -0.007666 0.000000 0.000000 0.000000
# 3 -0.006430 -0.007666 0.015436 0.000000 0.000000 0.000000
# 4 0.000000 0.000000 0.000000 0.034941 0.000000 0.000000
# 5 0.000000 0.000000 0.000000 0.000000 0.042005 0.000000
# 6 0.000000 0.000000 0.000000 0.000000 0.000000 0.114700
#
#
# Mechanical properties :
#
#
# Convention : Reuss Voigt Hill
#
# Bulk Modulus (GPa) = 38.68241 44.78633 41.73437
# Shear Modulus (GPa) = 18.03993 22.82372 20.43182
#
# Velocity S-wave (km/s) = 3.17104 3.56678 3.37472
# Velocity P-wave (km/s) = 5.91345 6.47507 6.20062
#
# Compressibility (1/GPa) = 0.02585155
#
# Stress axis : x y z
#
# Youngs Moduli (GPa) = 67.84346 47.17096 64.78161
#
# Poissons Ratio (x) = -0.06288 0.41652
# Poissons Ratio (y) = -0.09044 0.49659
# Poissons Ratio (z) = 0.43620 0.36160
#
# Static dielectric constant tensor:
#      x y z
#    x 3.444900 0.000000 0.000000 
#    y 0.000000 3.233080 0.000000 
#    z 0.000000 0.000000 3.382260 
# 
# 
# High freq. dielectric constant tensor:
#      x y z
#    x 1.692760 0.000000 0.000000 
#    y 0.000000 1.670940 0.000000 
#    z 0.000000 0.000000 1.692530 
# 
# From -- ./inp_files/61958.got.cif
#   From: 2010.06.25/outbox.cif.g09.slc.cpg/sg71_31_cif.got.tgz:61958.got - 2010.06.28 04:59:45.
