data_PCOD8288521
_publ_section_title
;
Structure prediction by ZEFSAII (Michael W. Deem and Ramdas Pophale) SiO2 
 PCOD8288521
Probable space group: I M M M
;
_chemical_formula_sum "Si O2"
_cell_formula_units_Z 80
_cell_length_a 12.289561
_cell_length_b 21.695402
_cell_length_c 19.063960
_cell_angle_alpha 90.000000
_cell_angle_beta 90.000000
_cell_angle_gamma 90.000000
_cell_volume 5082.965820
_symmetry_space_group_name_H-M "I M M M"
_symmetry_group_IT_number 71
_symmetry_cell_setting 'orthorhombic'
loop_
_space_group_symop_operation_xyz
x,y,z
-x,-y,z
x,-y,-z
-x,y,-z
-x,-y,-z
x,y,-z
-x,y,z
x,-y,z
1/2+x,1/2+y,1/2+z
1/2-x,1/2-y,1/2+z
1/2+x,1/2-y,1/2-z
1/2-x,1/2+y,1/2-z
1/2-x,1/2-y,1/2-z
1/2+x,1/2+y,1/2-z
1/2-x,1/2+y,1/2+z
1/2+x,1/2-y,1/2+z
loop_
_atom_site_type_symbol
_atom_site_label
_atom_site_fract_x
_atom_site_fract_y
_atom_site_fract_z
Si Si1 0.370963 0.384982 0.664427
Si Si2 0.626152 0.732836 0.580244
Si Si3 0.630068 0.500000 0.421492
Si Si4 0.371414 0.571564 0.184733
Si Si5 0.500000 0.930512 0.416577
Si Si6 0.714466 0.135383 0.581658
O O1 0.500000 0.387731 0.660516
O O2 0.330911 0.319927 0.632957
O O3 0.322908 0.439903 0.617217
O O4 0.331461 0.395093 0.743965
O O5 0.638663 0.709783 0.500000
O O6 0.500000 0.750239 0.594269
O O7 0.702028 0.791722 0.594202
O O8 0.500000 0.500000 0.420289
O O9 0.675628 0.500000 0.500000
O O10 0.500000 0.576613 0.176007
O O11 0.335321 0.500000 0.185146
O O12 0.319004 0.608571 0.120712
O O13 0.500000 0.925827 0.500000
O O14 0.607338 0.897499 0.387240
O O15 0.500000 0.000000 0.389125
O O16 0.729908 0.120147 0.500000
#
# Coordination Sequence:
#
# PCOD8288521 Si02
#       6
#    16  16   8  16   8  16
#     4   9  16  27  43  64  92 124 152 181 226 276
#     4   9  16  28  46  69  95 118 145 187 236 282
#     4   9  14  22  40  66  91 118 153 186 219 268
#     4  10  20  33  46  63  93 129 158 188 224 265
#     4   9  16  28  46  66  86 109 147 195 239 271
#     4  10  19  31  47  67  90 120 157 194 231 272
#
# _framework density 15.738844
#
# number of rings (size 3 to 8) (size 9 to 14) (size 15 to 20)
#    0.000    2.600    2.000    1.200    0.000    4.800 
#    0.000    1.000    0.000    0.000    0.000    0.000 
#    0.000    0.000    0.000    1.000    0.000    2.200 
#
# Total GULP energy -495918.456782 kJ/mol
# GULP energy per Si atom -12397.961420 kJ/mol
# Density = 1.570302 g / cm^3
# Si number density = 15.738844 Si / 1000 Ang^3
#
#
#
# Elastic Constant Matrix: (Units=GPa)
#
#
# Indices 1 2 3 4 5 6 
#
# 1 31.4175 31.0365 32.6839 0.0000 0.0000 0.0000
# 2 31.0365 116.0793 62.7294 0.0000 0.0000 0.0000
# 3 32.6839 62.7294 95.7856 0.0000 0.0000 0.0000
# 4 0.0000 0.0000 0.0000 30.0737 0.0000 0.0000
# 5 0.0000 0.0000 0.0000 0.0000 15.5410 0.0000
# 6 0.0000 0.0000 0.0000 0.0000 0.0000 17.2325
#
#
#
# Elastic Compliance Matrix: (Units=1/GPa)
#
#
# Indices 1 2 3 4 5 6 
#
# 1 0.052554 -0.006749 -0.013512 0.000000 0.000000 0.000000
# 2 -0.006749 0.014200 -0.006997 0.000000 0.000000 0.000000
# 3 -0.013512 -0.006997 0.019633 0.000000 0.000000 0.000000
# 4 0.000000 0.000000 0.000000 0.033252 0.000000 0.000000
# 5 0.000000 0.000000 0.000000 0.000000 0.064346 0.000000
# 6 0.000000 0.000000 0.000000 0.000000 0.000000 0.058030
#
#
# Mechanical properties :
#
#
# Convention : Reuss Voigt Hill
#
# Bulk Modulus (GPa) = 31.37729 55.13131 43.25430
# Shear Modulus (GPa) = 16.27846 20.35829 18.31838
#
# Velocity S-wave (km/s) = 3.21952 3.60044 3.41529
# Velocity P-wave (km/s) = 5.81377 7.23803 6.56464
#
# Compressibility (1/GPa) = 0.03187018
#
# Stress axis : x y z
#
# Youngs Moduli (GPa) = 19.02815 70.42017 50.93538
#
# Poissons Ratio (x) = 0.47530 0.68825
# Poissons Ratio (y) = 0.12843 0.35638
# Poissons Ratio (z) = 0.25711 0.49271
#
# Static dielectric constant tensor:
#      x y z
#    x 2.553110 0.000000 0.000000 
#    y 0.000000 3.149460 0.000000 
#    z 0.000000 0.000000 2.966610 
# 
# 
# High freq. dielectric constant tensor:
#      x y z
#    x 1.550230 0.000000 0.000000 
#    y 0.000000 1.619280 0.000000 
#    z 0.000000 0.000000 1.597720 
# 
# From -- ./inp_files/36514.got.cif
#   From: 2010.06.25/outbox.cif.g09.slc.cpg/sg71_19_cif.got.tgz:36514.got - 2010.06.28 04:59:45.
