data_PCOD8288947
_publ_section_title
;
Structure prediction by ZEFSAII (Michael W. Deem and Ramdas Pophale) SiO2 
 PCOD8288947
Probable space group: I M M M
;
_chemical_formula_sum "Si O2"
_cell_formula_units_Z 72
_cell_length_a 24.543495
_cell_length_b 9.526565
_cell_length_c 16.328913
_cell_angle_alpha 90.000000
_cell_angle_beta 90.000000
_cell_angle_gamma 90.000000
_cell_volume 3817.948066
_symmetry_space_group_name_H-M "I M M M"
_symmetry_group_IT_number 71
_symmetry_cell_setting 'orthorhombic'
loop_
_space_group_symop_operation_xyz
x,y,z
-x,-y,z
x,-y,-z
-x,y,-z
-x,-y,-z
x,y,-z
-x,y,z
x,-y,z
1/2+x,1/2+y,1/2+z
1/2-x,1/2-y,1/2+z
1/2+x,1/2-y,1/2-z
1/2-x,1/2+y,1/2-z
1/2-x,1/2-y,1/2-z
1/2+x,1/2+y,1/2-z
1/2-x,1/2+y,1/2+z
1/2+x,1/2-y,1/2+z
loop_
_atom_site_type_symbol
_atom_site_label
_atom_site_fract_x
_atom_site_fract_y
_atom_site_fract_z
Si Si1 0.720566 0.666792 0.500000
Si Si2 0.500000 0.166717 0.090805
Si Si3 0.896138 0.338818 0.692373
Si Si4 0.598814 0.666040 0.500000
Si Si5 0.271799 0.836217 0.170979
Si Si6 0.938713 0.161734 0.828397
O O1 0.724254 0.500000 0.500000
O O2 0.659619 0.727384 0.500000
O O3 0.747192 0.721399 0.414831
O O4 0.555814 0.219540 0.133610
O O5 0.500000 0.000000 0.086898
O O6 0.500000 0.231452 0.000000
O O7 0.907865 0.500000 0.713681
O O8 0.836366 0.317551 0.655488
O O9 0.896870 0.250985 0.775622
O O10 0.602466 0.500000 0.500000
O O11 0.565838 0.717447 0.579017
O O12 0.250000 0.750000 0.250000
O O13 0.257181 0.000000 0.185997
O O14 0.000000 0.185374 0.797038
O O15 0.921149 0.000000 0.822009
#
# Coordination Sequence:
#
# PCOD8288947 Si02
#       6
#     8   8  16   8  16  16
#     4   9  18  33  53  77 104 136 177 220 261 310
#     4   9  18  32  53  78 103 134 170 211 257 307
#     4  10  20  34  54  79 107 136 171 214 260 309
#     4   9  17  30  50  74 101 136 174 212 251 300
#     4  10  21  36  56  81 108 140 178 220 265 314
#     4  10  19  32  52  77 105 137 173 211 254 304
#
# _framework density 18.858297
#
# number of rings (size 3 to 8) (size 9 to 14) (size 15 to 20)
#    0.000    2.333    1.111    1.667    1.556    4.000 
#    0.000    1.111    0.000    6.667    0.000    0.000 
#    0.000    0.000    0.000    0.000    0.000    0.000 
#
# Total GULP energy -446221.515408 kJ/mol
# GULP energy per Si atom -12395.042095 kJ/mol
# Density = 1.881537 g / cm^3
# Si number density = 18.858297 Si / 1000 Ang^3
#
#
#
# Elastic Constant Matrix: (Units=GPa)
#
#
# Indices 1 2 3 4 5 6 
#
# 1 92.5284 23.6396 33.9499 0.0000 0.0000 0.0000
# 2 23.6396 36.1529 36.2937 0.0000 0.0000 0.0000
# 3 33.9499 36.2937 128.2199 0.0000 0.0000 0.0000
# 4 0.0000 0.0000 0.0000 26.4701 0.0000 0.0000
# 5 0.0000 0.0000 0.0000 0.0000 30.6082 0.0000
# 6 0.0000 0.0000 0.0000 0.0000 0.0000 22.2201
#
#
#
# Elastic Compliance Matrix: (Units=1/GPa)
#
#
# Indices 1 2 3 4 5 6 
#
# 1 0.013169 -0.007139 -0.001466 0.000000 0.000000 0.000000
# 2 -0.007139 0.042511 -0.010143 0.000000 0.000000 0.000000
# 3 -0.001466 -0.010143 0.011058 0.000000 0.000000 0.000000
# 4 0.000000 0.000000 0.000000 0.037779 0.000000 0.000000
# 5 0.000000 0.000000 0.000000 0.000000 0.032671 0.000000
# 6 0.000000 0.000000 0.000000 0.000000 0.000000 0.045004
#
#
# Mechanical properties :
#
#
# Convention : Reuss Voigt Hill
#
# Bulk Modulus (GPa) = 34.19725 49.40752 41.80238
# Shear Modulus (GPa) = 21.79258 26.72754 24.26006
#
# Velocity S-wave (km/s) = 3.40309 3.76877 3.59059
# Velocity P-wave (km/s) = 5.79781 6.72267 6.27730
#
# Compressibility (1/GPa) = 0.02924212
#
# Stress axis : x y z
#
# Youngs Moduli (GPa) = 75.93347 23.52349 90.43005
#
# Poissons Ratio (x) = 0.16794 0.13258
# Poissons Ratio (y) = 0.54211 0.91720
# Poissons Ratio (z) = 0.11133 0.23859
#
# Static dielectric constant tensor:
#      x y z
#    x 3.574590 0.000000 0.000000 
#    y 0.000000 3.067180 0.000000 
#    z 0.000000 0.000000 3.691990 
# 
# 
# High freq. dielectric constant tensor:
#      x y z
#    x 1.748100 0.000000 0.000000 
#    y 0.000000 1.684440 0.000000 
#    z 0.000000 0.000000 1.741110 
# 
# From -- ./inp_files/39979.got.cif
#   From: 2010.06.25/outbox.cif.g09.slc.cpg/sg71_20_cif.got.tgz:39979.got - 2010.06.28 04:59:45.
