data_PCOD8288180
_publ_section_title
;
Structure prediction by ZEFSAII (Michael W. Deem and Ramdas Pophale) SiO2 
 PCOD8288180
Probable space group: I M M M
;
_chemical_formula_sum "Si O2"
_cell_formula_units_Z 96
_cell_length_a 22.814564
_cell_length_b 9.054440
_cell_length_c 26.871756
_cell_angle_alpha 90.000000
_cell_angle_beta 90.000000
_cell_angle_gamma 90.000000
_cell_volume 5550.981963
_symmetry_space_group_name_H-M "I M M M"
_symmetry_group_IT_number 71
_symmetry_cell_setting 'orthorhombic'
loop_
_space_group_symop_operation_xyz
x,y,z
-x,-y,z
x,-y,-z
-x,y,-z
-x,-y,-z
x,y,-z
-x,y,z
x,-y,z
1/2+x,1/2+y,1/2+z
1/2-x,1/2-y,1/2+z
1/2+x,1/2-y,1/2-z
1/2-x,1/2+y,1/2-z
1/2-x,1/2-y,1/2-z
1/2+x,1/2+y,1/2-z
1/2-x,1/2+y,1/2+z
1/2+x,1/2-y,1/2+z
loop_
_atom_site_type_symbol
_atom_site_label
_atom_site_fract_x
_atom_site_fract_y
_atom_site_fract_z
Si Si1 0.066868 0.826802 0.801188
Si Si2 0.848681 0.838267 0.631306
Si Si3 0.568506 0.828671 0.800326
Si Si4 0.754411 0.662866 0.200498
Si Si5 0.166235 0.826902 0.874300
Si Si6 0.749261 0.826758 0.442596
O O1 0.090495 0.745610 0.751420
O O2 0.102774 0.781650 0.851334
O O3 0.000000 0.781635 0.812116
O O4 0.074012 0.000000 0.790776
O O5 0.901561 0.733133 0.649042
O O6 0.810359 0.860655 0.680339
O O7 0.807427 0.770071 0.587123
O O8 0.873269 0.000000 0.614702
O O9 0.500000 0.797525 0.806837
O O10 0.583683 0.000000 0.796336
O O11 0.784518 0.500000 0.205861
O O12 0.750000 0.750000 0.250000
O O13 0.787696 0.775901 0.165881
O O14 0.187393 0.746746 0.925181
O O15 0.169496 0.000000 0.884137
O O16 0.758983 0.789153 0.500000
O O17 0.742574 0.000000 0.431684
#
# Coordination Sequence:
#
# PCOD8288180 Si02
#       6
#    16  16  16  16  16  16
#     4   9  18  32  48  67  96 133 166 194 226 268
#     4   9  18  31  47  67  90 120 156 190 230 282
#     4  10  20  31  45  69  99 129 161 195 229 269
#     4  10  19  29  42  64  95 126 155 190 233 280
#     4  10  19  30  47  71  95 121 157 196 235 284
#     4   9  19  36  55  73  94 120 152 196 248 293
#
# _framework density 17.294236999999999
#
# number of rings (size 3 to 8) (size 9 to 14) (size 15 to 20)
#    0.000    2.500    0.000    3.500    0.000   10.000 
#    0.000    0.000    0.000    1.000    0.000    7.000 
#    0.000    0.000    0.000    0.000    0.000    0.000 
#
# Total GULP energy -594639.840365 kJ/mol
# GULP energy per Si atom -12388.330008 kJ/mol
# Density = 1.725487 g / cm^3
# Si number density = 17.294237 Si / 1000 Ang^3
#
#
#
# Elastic Constant Matrix: (Units=GPa)
#
#
# Indices 1 2 3 4 5 6 
#
# 1 71.6191 36.9714 43.3424 0.0000 0.0000 0.0000
# 2 36.9714 58.7661 44.3528 0.0000 0.0000 0.0000
# 3 43.3424 44.3528 110.9317 0.0000 0.0000 0.0000
# 4 0.0000 0.0000 0.0000 24.3723 0.0000 0.0000
# 5 0.0000 0.0000 0.0000 0.0000 26.4118 0.0000
# 6 0.0000 0.0000 0.0000 0.0000 0.0000 24.9710
#
#
#
# Elastic Compliance Matrix: (Units=1/GPa)
#
#
# Indices 1 2 3 4 5 6 
#
# 1 0.022084 -0.010571 -0.004402 0.000000 0.000000 0.000000
# 2 -0.010571 0.029431 -0.007637 0.000000 0.000000 0.000000
# 3 -0.004402 -0.007637 0.013788 0.000000 0.000000 0.000000
# 4 0.000000 0.000000 0.000000 0.041030 0.000000 0.000000
# 5 0.000000 0.000000 0.000000 0.000000 0.037862 0.000000
# 6 0.000000 0.000000 0.000000 0.000000 0.000000 0.040046
#
#
# Mechanical properties :
#
#
# Convention : Reuss Voigt Hill
#
# Bulk Modulus (GPa) = 49.79392 54.51665 52.15529
# Shear Modulus (GPa) = 21.17251 22.92772 22.05011
#
# Velocity S-wave (km/s) = 3.50273 3.64503 3.57458
# Velocity P-wave (km/s) = 6.72410 7.02185 6.87459
#
# Compressibility (1/GPa) = 0.02008277
#
# Stress axis : x y z
#
# Youngs Moduli (GPa) = 45.28202 33.97760 72.52830
#
# Poissons Ratio (x) = 0.35919 0.31925
# Poissons Ratio (y) = 0.47870 0.55388
# Poissons Ratio (z) = 0.19932 0.25948
#
# Static dielectric constant tensor:
#      x y z
#    x 3.283340 0.000000 0.000000 
#    y 0.000000 3.390170 0.000000 
#    z 0.000000 0.000000 2.916760 
# 
# 
# High freq. dielectric constant tensor:
#      x y z
#    x 1.655500 0.000000 0.000000 
#    y 0.000000 1.673000 0.000000 
#    z 0.000000 0.000000 1.645260 
# 
# From -- ./inp_files/10831.got.cif
#   From: 2010.06.25/outbox.cif.g09.slc.cpg/sg71_6_cif.got.tgz:10831.got - 2010.06.28 04:59:45.
