data_PCOD8288767
_publ_section_title
;
Structure prediction by ZEFSAII (Michael W. Deem and Ramdas Pophale) SiO2 
 PCOD8288767
Probable space group: I M M M
;
_chemical_formula_sum "Si O2"
_cell_formula_units_Z 88
_cell_length_a 13.958765
_cell_length_b 13.838890
_cell_length_c 26.177782
_cell_angle_alpha 90.000000
_cell_angle_beta 90.000000
_cell_angle_gamma 90.000000
_cell_volume 5056.861975
_symmetry_space_group_name_H-M "I M M M"
_symmetry_group_IT_number 71
_symmetry_cell_setting 'orthorhombic'
loop_
_space_group_symop_operation_xyz
x,y,z
-x,-y,z
x,-y,-z
-x,y,-z
-x,-y,-z
x,y,-z
-x,y,z
x,-y,z
1/2+x,1/2+y,1/2+z
1/2-x,1/2-y,1/2+z
1/2+x,1/2-y,1/2-z
1/2-x,1/2+y,1/2-z
1/2-x,1/2-y,1/2-z
1/2+x,1/2+y,1/2-z
1/2-x,1/2+y,1/2+z
1/2+x,1/2-y,1/2+z
loop_
_atom_site_type_symbol
_atom_site_label
_atom_site_fract_x
_atom_site_fract_y
_atom_site_fract_z
Si Si1 0.386729 0.893150 0.194583
Si Si2 0.886401 0.271069 0.401988
Si Si3 0.109894 0.107375 0.748054
Si Si4 0.113580 0.609117 0.500000
Si Si5 0.388099 0.202639 0.300210
Si Si6 0.775429 0.888513 0.644352
O O1 0.500000 0.898969 0.191931
O O2 0.350558 0.827336 0.148318
O O3 0.353437 0.850705 0.248563
O O4 0.341860 0.000000 0.189161
O O5 0.851027 0.332804 0.450378
O O6 0.831959 0.167831 0.400684
O O7 0.000000 0.253406 0.403692
O O8 0.136799 0.183714 0.792467
O O9 0.167824 0.125199 0.696805
O O10 0.000000 0.124554 0.731898
O O11 0.127108 0.000000 0.770215
O O12 0.156340 0.500000 0.500000
O O13 0.000000 0.601668 0.500000
O O14 0.500000 0.185353 0.311319
O O15 0.329982 0.157945 0.347648
O O16 0.766294 0.000000 0.627933
#
# Coordination Sequence:
#
# PCOD8288767 Si02
#       6
#    16  16  16   8  16  16
#     4   9  16  26  42  65  94 128 163 196 230 273
#     4  10  19  32  49  71  98 127 159 196 239 293
#     4   9  17  29  44  63  91 128 166 201 236 278
#     4   9  18  34  55  77 102 129 155 193 247 297
#     4  10  19  32  46  65  97 133 170 207 239 275
#     4  11  21  31  46  68  96 132 169 202 240 285
#
# _framework density 17.402096
#
# number of rings (size 3 to 8) (size 9 to 14) (size 15 to 20)
#    0.000    2.273    1.818    2.182    0.000    4.364 
#    0.000    1.364    0.000    1.636    0.000    0.636 
#    0.000    2.182    0.000    0.000    0.000    0.000 
#
# Total GULP energy -545532.676082 kJ/mol
# GULP energy per Si atom -12398.469911 kJ/mol
# Density = 1.736249 g / cm^3
# Si number density = 17.402096 Si / 1000 Ang^3
#
#
#
# Elastic Constant Matrix: (Units=GPa)
#
#
# Indices 1 2 3 4 5 6 
#
# 1 45.8276 39.8389 26.9636 0.0000 0.0000 0.0000
# 2 39.8389 159.6164 42.2651 0.0000 0.0000 0.0000
# 3 26.9636 42.2651 54.1920 0.0000 0.0000 0.0000
# 4 0.0000 0.0000 0.0000 25.6071 0.0000 0.0000
# 5 0.0000 0.0000 0.0000 0.0000 15.8943 0.0000
# 6 0.0000 0.0000 0.0000 0.0000 0.0000 21.1446
#
#
#
# Elastic Compliance Matrix: (Units=1/GPa)
#
#
# Indices 1 2 3 4 5 6 
#
# 1 0.033763 -0.005014 -0.012888 0.000000 0.000000 0.000000
# 2 -0.005014 0.008640 -0.004244 0.000000 0.000000 0.000000
# 3 -0.012888 -0.004244 0.028175 0.000000 0.000000 0.000000
# 4 0.000000 0.000000 0.000000 0.039052 0.000000 0.000000
# 5 0.000000 0.000000 0.000000 0.000000 0.062916 0.000000
# 6 0.000000 0.000000 0.000000 0.000000 0.000000 0.047293
#
#
# Mechanical properties :
#
#
# Convention : Reuss Voigt Hill
#
# Bulk Modulus (GPa) = 38.04321 53.08569 45.56445
# Shear Modulus (GPa) = 18.32210 22.56708 20.44459
#
# Velocity S-wave (km/s) = 3.24831 3.60502 3.43130
# Velocity P-wave (km/s) = 5.99812 6.92097 6.47600
#
# Compressibility (1/GPa) = 0.02628590
#
# Stress axis : x y z
#
# Youngs Moduli (GPa) = 29.61815 115.73741 35.49193
#
# Poissons Ratio (x) = 0.58033 0.45743
# Poissons Ratio (y) = 0.14851 0.15062
# Poissons Ratio (z) = 0.38173 0.49116
#
# Static dielectric constant tensor:
#      x y z
#    x 3.083590 0.000000 0.000000 
#    y 0.000000 3.648610 0.000000 
#    z 0.000000 0.000000 2.851110 
# 
# 
# High freq. dielectric constant tensor:
#      x y z
#    x 1.655950 0.000000 0.000000 
#    y 0.000000 1.696010 0.000000 
#    z 0.000000 0.000000 1.610190 
# 
# From -- ./inp_files/39131.got.cif
#   From: 2010.06.25/outbox.cif.g09.slc.cpg/sg71_20_cif.got.tgz:39131.got - 2010.06.28 04:59:45.
