data_PCOD8288029
_publ_section_title
;
Structure prediction by ZEFSAII (Michael W. Deem and Ramdas Pophale) SiO2 
 PCOD8288029
Probable space group: I M M M
;
_chemical_formula_sum "Si O2"
_cell_formula_units_Z 88
_cell_length_a 9.399734
_cell_length_b 27.363190
_cell_length_c 19.338499
_cell_angle_alpha 90.000000
_cell_angle_beta 90.000000
_cell_angle_gamma 90.000000
_cell_volume 4973.991654
_symmetry_space_group_name_H-M "I M M M"
_symmetry_group_IT_number 71
_symmetry_cell_setting 'orthorhombic'
loop_
_space_group_symop_operation_xyz
x,y,z
-x,-y,z
x,-y,-z
-x,y,-z
-x,-y,-z
x,y,-z
-x,y,z
x,-y,z
1/2+x,1/2+y,1/2+z
1/2-x,1/2-y,1/2+z
1/2+x,1/2-y,1/2-z
1/2-x,1/2+y,1/2-z
1/2-x,1/2-y,1/2-z
1/2+x,1/2+y,1/2-z
1/2-x,1/2+y,1/2+z
1/2+x,1/2-y,1/2+z
loop_
_atom_site_type_symbol
_atom_site_label
_atom_site_fract_x
_atom_site_fract_y
_atom_site_fract_z
Si Si1 0.163546 0.306961 0.186297
Si Si2 0.168083 0.500000 0.923199
Si Si3 0.835958 0.282605 0.658511
Si Si4 0.336023 0.878189 0.919325
Si Si5 0.833307 0.583026 0.180246
Si Si6 0.163351 0.056943 0.183021
O O1 0.206548 0.304817 0.267004
O O2 0.251285 0.267220 0.142656
O O3 0.197753 0.361146 0.158326
O O4 0.000000 0.293674 0.175947
O O5 0.217613 0.548484 0.882435
O O6 0.000000 0.500000 0.929910
O O7 0.236930 0.500000 0.000000
O O8 0.795406 0.322871 0.601589
O O9 0.000000 0.268464 0.655458
O O10 0.500000 0.888481 0.898569
O O11 0.234928 0.916065 0.881195
O O12 0.310133 0.884713 0.000000
O O13 0.744951 0.569277 0.247193
O O14 0.000000 0.575610 0.197561
O O15 0.000000 0.073902 0.190393
O O16 0.173954 0.000000 0.167006
#
# Coordination Sequence:
#
# PCOD8288029 Si02
#       6
#    16   8  16  16  16  16
#     4   9  17  29  49  78 105 133 172 218 263 307
#     4   9  18  32  55  85 110 137 174 219 269 314
#     4   9  17  31  50  75 105 134 171 218 263 311
#     4  10  21  38  58  78 105 144 187 226 267 321
#     4  10  18  33  57  80 107 142 182 224 263 316
#     4  11  23  36  53  80 111 140 178 225 274 326
#
# _framework density 17.692028000000001
#
# number of rings (size 3 to 8) (size 9 to 14) (size 15 to 20)
#    0.000    2.273    2.727    0.545    0.000    3.273 
#    0.000    2.727    0.000    2.182    0.000    0.000 
#    0.000    0.000    0.000    0.000    0.000    0.000 
#
# Total GULP energy -545639.753414 kJ/mol
# GULP energy per Si atom -12400.903487 kJ/mol
# Density = 1.765176 g / cm^3
# Si number density = 17.692028 Si / 1000 Ang^3
#
#
#
# Elastic Constant Matrix: (Units=GPa)
#
#
# Indices 1 2 3 4 5 6 
#
# 1 78.6445 64.1991 50.0004 0.0001 0.0000 0.0000
# 2 64.1991 138.5847 55.9911 0.0001 0.0000 0.0000
# 3 50.0004 55.9911 92.9792 0.0004 0.0002 0.0000
# 4 0.0001 0.0001 0.0004 27.4977 0.0001 0.0000
# 5 0.0000 0.0000 0.0002 0.0001 12.3031 0.0000
# 6 0.0000 0.0000 0.0000 0.0000 0.0000 32.4941
#
#
#
# Elastic Compliance Matrix: (Units=1/GPa)
#
#
# Indices 1 2 3 4 5 6 
#
# 1 0.024585 -0.007992 -0.008408 0.000000 0.000000 0.000000
# 2 -0.007992 0.012134 -0.003009 0.000000 0.000000 0.000000
# 3 -0.008408 -0.003009 0.017089 0.000000 0.000000 0.000000
# 4 0.000000 0.000000 0.000000 0.036367 0.000000 0.000000
# 5 0.000000 0.000000 0.000000 0.000000 0.081280 0.000000
# 6 0.000000 0.000000 0.000000 0.000000 0.000000 0.030775
#
#
# Mechanical properties :
#
#
# Convention : Reuss Voigt Hill
#
# Bulk Modulus (GPa) = 66.71485 72.28773 69.50129
# Shear Modulus (GPa) = 20.32154 23.79351 22.05752
#
# Velocity S-wave (km/s) = 3.39282 3.67123 3.53476
# Velocity P-wave (km/s) = 7.28966 7.67582 7.48523
#
# Compressibility (1/GPa) = 0.01498917
#
# Stress axis : x y z
#
# Youngs Moduli (GPa) = 40.67484 82.41440 58.51803
#
# Poissons Ratio (x) = 0.65865 0.49203
# Poissons Ratio (y) = 0.32507 0.17609
# Poissons Ratio (z) = 0.34200 0.24799
#
# Static dielectric constant tensor:
#      x y z
#    x 3.255010 0.000000 0.000000 
#    y 0.000000 3.546900 0.000000 
#    z 0.000000 0.000000 3.183700 
# 
# 
# High freq. dielectric constant tensor:
#      x y z
#    x 1.673160 0.000000 0.000000 
#    y 0.000000 1.697580 0.000000 
#    z 0.000000 0.000000 1.661420 
# 
# From -- ./inp_files/16874.got.cif
#   From: 2010.06.25/outbox.cif.g09.slc.cpg/sg71_9_cif.got.tgz:16874.got - 2010.06.28 04:59:45.
