data_PCOD8288390
_publ_section_title
;
Structure prediction by ZEFSAII (Michael W. Deem and Ramdas Pophale) SiO2 
 PCOD8288390
Probable space group: I M M M
;
_chemical_formula_sum "Si O2"
_cell_formula_units_Z 104
_cell_length_a 22.855610
_cell_length_b 27.758265
_cell_length_c 9.174248
_cell_angle_alpha 90.000000
_cell_angle_beta 90.000000
_cell_angle_gamma 90.000000
_cell_volume 5820.437233
_symmetry_space_group_name_H-M "I M M M"
_symmetry_group_IT_number 71
_symmetry_cell_setting 'orthorhombic'
loop_
_space_group_symop_operation_xyz
x,y,z
-x,-y,z
x,-y,-z
-x,y,-z
-x,-y,-z
x,y,-z
-x,y,z
x,-y,z
1/2+x,1/2+y,1/2+z
1/2-x,1/2-y,1/2+z
1/2+x,1/2-y,1/2-z
1/2-x,1/2+y,1/2-z
1/2-x,1/2-y,1/2-z
1/2+x,1/2+y,1/2-z
1/2-x,1/2+y,1/2+z
1/2+x,1/2-y,1/2+z
loop_
_atom_site_type_symbol
_atom_site_label
_atom_site_fract_x
_atom_site_fract_y
_atom_site_fract_z
Si Si1 0.866114 0.644108 0.332802
Si Si2 0.933290 0.738659 0.666765
Si Si3 0.625130 0.320900 0.333180
Si Si4 0.066012 0.553697 0.326456
Si Si5 0.569456 0.592362 0.164665
Si Si6 0.244827 0.300178 0.667789
Si Si7 0.569739 0.500000 0.663974
O O1 0.851774 0.633192 0.500000
O O2 0.918112 0.682626 0.315492
O O3 0.889372 0.594052 0.260404
O O4 0.806122 0.665717 0.262960
O O5 0.923374 0.755422 0.500000
O O6 0.891130 0.768418 0.772554
O O7 0.000000 0.746830 0.714203
O O8 0.604351 0.325195 0.500000
O O9 0.591784 0.359427 0.237281
O O10 0.694491 0.329008 0.319840
O O11 0.064942 0.558190 0.500000
O O12 0.087148 0.500000 0.279782
O O13 0.000000 0.562664 0.267870
O O14 0.500000 0.593072 0.167202
O O15 0.594106 0.546842 0.253616
O O16 0.592906 0.588917 0.000000
O O17 0.229296 0.287982 0.500000
O O18 0.250000 0.250000 0.750000
O O19 0.500000 0.500000 0.663933
O O20 0.594492 0.500000 0.500000
#
# Coordination Sequence:
#
# PCOD8288390 Si02
#       7
#    16  16  16  16  16  16   8
#     4   9  16  28  46  66  94 129 164 202 243 295
#     4  10  19  30  47  71  97 127 162 199 246 304
#     4  11  22  33  47  69  98 131 168 209 255 303
#     4   8  13  22  40  69 101 128 155 193 246 303
#     4  10  20  34  53  76 101 132 170 207 248 304
#     4  10  20  34  51  69  93 129 172 209 247 298
#     4   9  17  31  53  79 105 131 159 199 252 301
#
# _framework density 17.868072999999999
#
# number of rings (size 3 to 8) (size 9 to 14) (size 15 to 20)
#    0.000    2.385    1.538    2.538    0.000    6.462 
#    0.000    0.000    1.692    0.000    0.000    0.000 
#    0.000    1.846    0.000    8.462    0.000    7.692 
#
# Total GULP energy -644620.083387 kJ/mol
# GULP energy per Si atom -12396.540065 kJ/mol
# Density = 1.782740 g / cm^3
# Si number density = 17.868073 Si / 1000 Ang^3
#
#
#
# Elastic Constant Matrix: (Units=GPa)
#
#
# Indices 1 2 3 4 5 6 
#
# 1 81.3006 41.3547 21.5060 0.0000 0.0000 0.0000
# 2 41.3547 128.0279 38.5124 0.0000 0.0000 0.0000
# 3 21.5060 38.5124 79.7180 0.0000 0.0000 0.0000
# 4 0.0000 0.0000 0.0000 16.5044 0.0000 0.0000
# 5 0.0000 0.0000 0.0000 0.0000 15.8018 0.0000
# 6 0.0000 0.0000 0.0000 0.0000 0.0000 23.7118
#
#
#
# Elastic Compliance Matrix: (Units=1/GPa)
#
#
# Indices 1 2 3 4 5 6 
#
# 1 0.014984 -0.004240 -0.001994 0.000000 0.000000 0.000000
# 2 -0.004240 0.010339 -0.003851 0.000000 0.000000 0.000000
# 3 -0.001994 -0.003851 0.014942 0.000000 0.000000 0.000000
# 4 0.000000 0.000000 0.000000 0.060590 0.000000 0.000000
# 5 0.000000 0.000000 0.000000 0.000000 0.063284 0.000000
# 6 0.000000 0.000000 0.000000 0.000000 0.000000 0.042173
#
#
# Mechanical properties :
#
#
# Convention : Reuss Voigt Hill
#
# Bulk Modulus (GPa) = 49.76220 54.64365 52.20293
# Shear Modulus (GPa) = 21.44252 23.71515 22.57883
#
# Velocity S-wave (km/s) = 3.46793 3.64708 3.55863
# Velocity P-wave (km/s) = 6.62915 6.95579 6.79443
#
# Compressibility (1/GPa) = 0.02009558
#
# Stress axis : x y z
#
# Youngs Moduli (GPa) = 66.73608 96.72225 66.92326
#
# Poissons Ratio (x) = 0.41014 0.13344
# Poissons Ratio (y) = 0.28299 0.25771
# Poissons Ratio (z) = 0.13306 0.37246
#
# Static dielectric constant tensor:
#      x y z
#    x 3.376800 0.000000 0.000000 
#    y 0.000000 3.443620 0.000000 
#    z 0.000000 0.000000 3.136270 
# 
# 
# High freq. dielectric constant tensor:
#      x y z
#    x 1.678760 0.000000 0.000000 
#    y 0.000000 1.694820 0.000000 
#    z 0.000000 0.000000 1.660130 
# 
# From -- ./inp_files/13348.got.cif
#   From: 2010.06.25/outbox.cif.g09.slc.cpg/sg71_7_cif.got.tgz:13348.got - 2010.06.28 04:59:45.
