data_PCOD8288943
_publ_section_title
;
Structure prediction by ZEFSAII (Michael W. Deem and Ramdas Pophale) SiO2 
 PCOD8288943
Probable space group: I M M M
;
_chemical_formula_sum "Si O2"
_cell_formula_units_Z 104
_cell_length_a 9.065146
_cell_length_b 29.045525
_cell_length_c 21.134424
_cell_angle_alpha 90.000000
_cell_angle_beta 90.000000
_cell_angle_gamma 90.000000
_cell_volume 5564.734518
_symmetry_space_group_name_H-M "I M M M"
_symmetry_group_IT_number 71
_symmetry_cell_setting 'orthorhombic'
loop_
_space_group_symop_operation_xyz
x,y,z
-x,-y,z
x,-y,-z
-x,y,-z
-x,-y,-z
x,y,-z
-x,y,z
x,-y,z
1/2+x,1/2+y,1/2+z
1/2-x,1/2-y,1/2+z
1/2+x,1/2-y,1/2-z
1/2-x,1/2+y,1/2-z
1/2-x,1/2-y,1/2-z
1/2+x,1/2+y,1/2-z
1/2-x,1/2+y,1/2+z
1/2+x,1/2-y,1/2+z
loop_
_atom_site_type_symbol
_atom_site_label
_atom_site_fract_x
_atom_site_fract_y
_atom_site_fract_z
Si Si1 0.675266 0.859169 0.069013
Si Si2 0.326896 0.195943 0.679438
Si Si3 0.674205 0.389477 0.122040
Si Si4 0.826510 0.292034 0.322447
Si Si5 0.333098 0.446950 0.242596
Si Si6 0.174283 0.550620 0.368790
Si Si7 0.324677 0.446847 0.000000
O O1 0.500000 0.857352 0.070352
O O2 0.735599 0.826691 0.124394
O O3 0.728199 0.911790 0.080499
O O4 0.734913 0.843649 0.000000
O O5 0.500000 0.196306 0.666130
O O6 0.253348 0.159612 0.631275
O O7 0.261179 0.245617 0.664203
O O8 0.292107 0.185741 0.753624
O O9 0.500000 0.380906 0.117403
O O10 0.720986 0.419313 0.182066
O O11 0.731009 0.417761 0.060805
O O12 0.000000 0.281834 0.329071
O O13 0.500000 0.434172 0.261237
O O14 0.318799 0.500000 0.224211
O O15 0.228979 0.433378 0.300314
O O16 0.238100 0.500000 0.386889
O O17 0.000000 0.548713 0.365489
O O18 0.263434 0.500000 0.000000
O O19 0.500000 0.449764 0.000000
#
# Coordination Sequence:
#
# PCOD8288943 Si02
#       7
#    16  16  16  16  16  16   8
#     4   9  17  30  49  73  99 129 165 204 243 283
#     4  10  20  34  54  77 102 130 161 207 262 308
#     4  10  19  32  52  77 101 131 170 211 254 303
#     4   9  18  34  54  75  99 130 170 211 251 300
#     4   9  17  29  47  72 100 129 163 204 247 288
#     4   9  17  29  47  73 103 132 163 200 242 290
#     4   9  18  34  55  77 103 137 179 221 256 301
#
# _framework density 18.689121
#
# number of rings (size 3 to 8) (size 9 to 14) (size 15 to 20)
#    0.000    2.692    0.000    1.846    0.000    4.615 
#    1.385    2.692    0.000    3.231    0.000    2.154 
#    0.000    0.000    0.000    0.000    0.000    0.000 
#
# Total GULP energy -644557.419954 kJ/mol
# GULP energy per Si atom -12395.334999 kJ/mol
# Density = 1.864658 g / cm^3
# Si number density = 18.689121 Si / 1000 Ang^3
#
#
#
# Elastic Constant Matrix: (Units=GPa)
#
#
# Indices 1 2 3 4 5 6 
#
# 1 26.6464 32.8406 19.9841 0.0000 0.0000 0.0000
# 2 32.8406 121.9390 81.6229 0.0001 0.0000 0.0000
# 3 19.9841 81.6229 117.5807 0.0001 0.0000 0.0000
# 4 0.0000 0.0001 0.0001 32.5633 0.0000 0.0000
# 5 0.0000 0.0000 0.0000 0.0000 19.4673 0.0000
# 6 0.0000 0.0000 0.0000 0.0000 0.0000 21.2438
#
#
#
# Elastic Compliance Matrix: (Units=1/GPa)
#
#
# Indices 1 2 3 4 5 6 
#
# 1 0.056375 -0.016381 0.001790 0.000000 0.000000 0.000000
# 2 -0.016381 0.020079 -0.011154 0.000000 0.000000 0.000000
# 3 0.001790 -0.011154 0.015944 0.000000 0.000000 0.000000
# 4 0.000000 0.000000 0.000000 0.030709 0.000000 0.000000
# 5 0.000000 0.000000 0.000000 0.000000 0.051368 0.000000
# 6 0.000000 0.000000 0.000000 0.000000 0.000000 0.047073
#
#
# Mechanical properties :
#
#
# Convention : Reuss Voigt Hill
#
# Bulk Modulus (GPa) = 24.44578 59.45126 41.94852
# Shear Modulus (GPa) = 17.44134 23.43611 20.43872
#
# Velocity S-wave (km/s) = 3.05820 3.54502 3.31057
# Velocity P-wave (km/s) = 5.05754 6.97395 6.09158
#
# Compressibility (1/GPa) = 0.04090686
#
# Stress axis : x y z
#
# Youngs Moduli (GPa) = 17.73831 49.80301 62.72003
#
# Poissons Ratio (x) = 0.81583 -0.11227
# Poissons Ratio (y) = 0.29057 0.69961
# Poissons Ratio (z) = -0.03175 0.55553
#
# Static dielectric constant tensor:
#      x y z
#    x 3.117770 0.000000 0.000000 
#    y 0.000000 3.617970 0.000000 
#    z 0.000000 0.000000 3.575270 
# 
# 
# High freq. dielectric constant tensor:
#      x y z
#    x 1.691570 0.000000 0.000000 
#    y 0.000000 1.735550 0.000000 
#    z 0.000000 0.000000 1.720740 
# 
# From -- ./inp_files/16981.got.cif
#   From: 2010.06.25/outbox.cif.g09.slc.cpg/sg71_9_cif.got.tgz:16981.got - 2010.06.28 04:59:45.
