data_PCOD8288840
_publ_section_title
;
Structure prediction by ZEFSAII (Michael W. Deem and Ramdas Pophale) SiO2 
 PCOD8288840
Probable space group: I M M M
;
_chemical_formula_sum "Si O2"
_cell_formula_units_Z 48
_cell_length_a 17.180485
_cell_length_b 13.620910
_cell_length_c 12.361632
_cell_angle_alpha 90.000000
_cell_angle_beta 90.000000
_cell_angle_gamma 90.000000
_cell_volume 2892.792972
_symmetry_space_group_name_H-M "I M M M"
_symmetry_group_IT_number 71
_symmetry_cell_setting 'orthorhombic'
loop_
_space_group_symop_operation_xyz
x,y,z
-x,-y,z
x,-y,-z
-x,y,-z
-x,-y,-z
x,y,-z
-x,y,z
x,-y,z
1/2+x,1/2+y,1/2+z
1/2-x,1/2-y,1/2+z
1/2+x,1/2-y,1/2-z
1/2-x,1/2+y,1/2-z
1/2-x,1/2-y,1/2-z
1/2+x,1/2+y,1/2-z
1/2-x,1/2+y,1/2+z
1/2+x,1/2-y,1/2+z
loop_
_atom_site_type_symbol
_atom_site_label
_atom_site_fract_x
_atom_site_fract_y
_atom_site_fract_z
Si Si1 0.162263 0.299364 0.126288
Si Si2 0.798496 0.107406 0.760674
Si Si3 0.588137 0.500000 0.127401
Si Si4 0.000000 0.389639 0.872231
O O1 0.176555 0.184035 0.147309
O O2 0.221456 0.362003 0.197101
O O3 0.076219 0.330146 0.165676
O O4 0.175082 0.321960 0.000000
O O5 0.783508 0.000000 0.815087
O O6 0.868873 0.097325 0.673657
O O7 0.500000 0.500000 0.168789
O O8 0.593618 0.500000 0.000000
O O9 0.000000 0.500000 0.822710
O O10 0.000000 0.397582 0.000000
#
# Coordination Sequence:
#
# PCOD8288840 Si02
#       4
#    16  16   8   8
#     4  10  19  32  50  74 101 131 165 204 250 299
#     4   9  20  32  49  72  99 131 166 206 248 291
#     4   9  18  32  51  70  94 130 166 204 245 287
#     4   9  18  30  49  73  97 128 163 199 246 296
#
# _framework density 16.592960999999999
#
# number of rings (size 3 to 8) (size 9 to 14) (size 15 to 20)
#    1.000    1.667    0.000    2.000    2.333    2.000 
#    0.000    0.000    0.000    4.000    0.000    0.000 
#    0.000   14.000    0.000    0.000    0.000    0.000 
#
# Total GULP energy -297411.068857 kJ/mol
# GULP energy per Si atom -12392.127869 kJ/mol
# Density = 1.655519 g / cm^3
# Si number density = 16.592961 Si / 1000 Ang^3
#
#
#
# Elastic Constant Matrix: (Units=GPa)
#
#
# Indices 1 2 3 4 5 6 
#
# 1 133.1223 42.5980 22.3402 0.0000 0.0000 0.0000
# 2 42.5980 123.8984 11.3580 0.0000 0.0000 0.0000
# 3 22.3402 11.3580 27.2805 0.0000 0.0000 0.0000
# 4 0.0000 0.0000 0.0000 14.9107 0.0000 0.0000
# 5 0.0000 0.0000 0.0000 0.0000 15.2822 0.0000
# 6 0.0000 0.0000 0.0000 0.0000 0.0000 21.1078
#
#
#
# Elastic Compliance Matrix: (Units=1/GPa)
#
#
# Indices 1 2 3 4 5 6 
#
# 1 0.009476 -0.002648 -0.006658 0.000000 0.000000 0.000000
# 2 -0.002648 0.009131 -0.001633 0.000000 0.000000 0.000000
# 3 -0.006658 -0.001633 0.042789 0.000000 0.000000 0.000000
# 4 0.000000 0.000000 0.000000 0.067066 0.000000 0.000000
# 5 0.000000 0.000000 0.000000 0.000000 0.065436 0.000000
# 6 0.000000 0.000000 0.000000 0.000000 0.000000 0.047376
#
#
# Mechanical properties :
#
#
# Convention : Reuss Voigt Hill
#
# Bulk Modulus (GPa) = 25.30497 48.54372 36.92435
# Shear Modulus (GPa) = 18.09466 24.12714 21.11090
#
# Velocity S-wave (km/s) = 3.30586 3.81735 3.57077
# Velocity P-wave (km/s) = 5.46398 6.98202 6.26912
#
# Compressibility (1/GPa) = 0.03951793
#
# Stress axis : x y z
#
# Youngs Moduli (GPa) = 105.52435 109.51443 23.37074
#
# Poissons Ratio (x) = 0.28997 0.15560
# Poissons Ratio (y) = 0.27941 0.03817
# Poissons Ratio (z) = 0.70258 0.17888
#
# Static dielectric constant tensor:
#      x y z
#    x 3.305120 0.000000 0.000000 
#    y 0.000000 3.185680 0.000000 
#    z 0.000000 0.000000 2.728400 
# 
# 
# High freq. dielectric constant tensor:
#      x y z
#    x 1.654160 0.000000 0.000000 
#    y 0.000000 1.641840 0.000000 
#    z 0.000000 0.000000 1.603990 
# 
# From -- ./inp_files/33615.got.cif
#   From: 2010.06.25/outbox.cif.g09.slc.cpg/sg71_17_cif.got.tgz:33615.got - 2010.06.28 04:59:45.
