data_PCOD8288738
_publ_section_title
;
Structure prediction by ZEFSAII (Michael W. Deem and Ramdas Pophale) SiO2 
 PCOD8288738
Probable space group: I M M M
;
_chemical_formula_sum "Si O2"
_cell_formula_units_Z 104
_cell_length_a 20.648890
_cell_length_b 14.567182
_cell_length_c 17.990090
_cell_angle_alpha 90.000000
_cell_angle_beta 90.000000
_cell_angle_gamma 90.000000
_cell_volume 5411.349607
_symmetry_space_group_name_H-M "I M M M"
_symmetry_group_IT_number 71
_symmetry_cell_setting 'orthorhombic'
loop_
_space_group_symop_operation_xyz
x,y,z
-x,-y,z
x,-y,-z
-x,y,-z
-x,-y,-z
x,y,-z
-x,y,z
x,-y,z
1/2+x,1/2+y,1/2+z
1/2-x,1/2-y,1/2+z
1/2+x,1/2-y,1/2-z
1/2-x,1/2+y,1/2-z
1/2-x,1/2-y,1/2-z
1/2+x,1/2+y,1/2-z
1/2-x,1/2+y,1/2+z
1/2+x,1/2-y,1/2+z
loop_
_atom_site_type_symbol
_atom_site_label
_atom_site_fract_x
_atom_site_fract_y
_atom_site_fract_z
Si Si1 0.354259 0.603728 0.323001
Si Si2 0.924163 0.713057 0.178036
Si Si3 0.739085 0.103693 0.919194
Si Si4 0.875603 0.676752 0.662369
Si Si5 0.000000 0.604654 0.587482
Si Si6 0.827136 0.393406 0.085519
Si Si7 0.717309 0.675942 0.194612
O O1 0.378912 0.500000 0.341656
O O2 0.413079 0.676420 0.320763
O O3 0.303225 0.647741 0.382426
O O4 0.316341 0.597575 0.244405
O O5 0.893598 0.665277 0.251123
O O6 0.890492 0.665019 0.107870
O O7 0.000000 0.693882 0.174661
O O8 0.677500 0.103107 0.864356
O O9 0.758896 0.000000 0.931678
O O10 0.724574 0.149912 0.000000
O O11 0.938843 0.663699 0.612992
O O12 0.840599 0.774708 0.648222
O O13 0.000000 0.500000 0.620372
O O14 0.000000 0.598144 0.500000
O O15 0.843428 0.500000 0.096877
O O16 0.766408 0.366928 0.136479
O O17 0.810082 0.371798 0.000000
O O18 0.750000 0.750000 0.250000
#
# Coordination Sequence:
#
# PCOD8288738 Si02
#       7
#    16  16  16  16   8  16  16
#     4  10  20  36  60  87 116 150 193 248 304 355
#     4  11  23  41  58  82 117 156 208 249 290 349
#     4  10  19  31  51  82 116 145 180 230 290 355
#     4  11  20  35  55  80 111 157 196 233 294 353
#     4  11  24  38  52  82 124 160 198 241 292 362
#     4  11  24  41  63  92 124 158 199 250 305 359
#     4  11  19  38  60  89 116 149 194 248 303 357
#
# _framework density 19.218865999999998
#
# number of rings (size 3 to 8) (size 9 to 14) (size 15 to 20)
#    0.000    1.308    5.385    1.385    0.000    7.692 
#    0.000    0.769    0.000    0.000    0.000    3.231 
#    0.000    4.923    0.000    0.000    0.000    0.000 
#
# Total GULP energy -644411.307736 kJ/mol
# GULP energy per Si atom -12392.525149 kJ/mol
# Density = 1.917512 g / cm^3
# Si number density = 19.218866 Si / 1000 Ang^3
#
#
#
# Elastic Constant Matrix: (Units=GPa)
#
#
# Indices 1 2 3 4 5 6 
#
# 1 102.0403 30.0220 38.7636 0.0000 0.0000 0.0000
# 2 30.0220 76.4464 42.0453 0.0000 0.0000 0.0000
# 3 38.7636 42.0453 98.5175 0.0000 0.0000 0.0000
# 4 0.0000 0.0000 0.0000 27.3695 0.0000 0.0000
# 5 0.0000 0.0000 0.0000 0.0000 26.0789 0.0000
# 6 0.0000 0.0000 0.0000 0.0000 0.0000 42.9221
#
#
#
# Elastic Compliance Matrix: (Units=1/GPa)
#
#
# Indices 1 2 3 4 5 6 
#
# 1 0.011950 -0.002753 -0.003527 0.000000 0.000000 0.000000
# 2 -0.002753 0.017728 -0.006483 0.000000 0.000000 0.000000
# 3 -0.003527 -0.006483 0.014305 0.000000 0.000000 0.000000
# 4 0.000000 0.000000 0.000000 0.036537 0.000000 0.000000
# 5 0.000000 0.000000 0.000000 0.000000 0.038345 0.000000
# 6 0.000000 0.000000 0.000000 0.000000 0.000000 0.023298
#
#
# Mechanical properties :
#
#
# Convention : Reuss Voigt Hill
#
# Bulk Modulus (GPa) = 54.17949 55.40732 54.79340
# Shear Modulus (GPa) = 28.76205 30.35232 29.55719
#
# Velocity S-wave (km/s) = 3.87273 3.97835 3.92589
# Velocity P-wave (km/s) = 6.94617 7.07073 7.00873
#
# Compressibility (1/GPa) = 0.01845717
#
# Stress axis : x y z
#
# Youngs Moduli (GPa) = 83.68270 56.40908 69.90651
#
# Poissons Ratio (x) = 0.15530 0.24655
# Poissons Ratio (y) = 0.23039 0.45317
# Poissons Ratio (z) = 0.29514 0.36567
#
# Static dielectric constant tensor:
#      x y z
#    x 3.551820 0.000000 0.000000 
#    y 0.000000 3.495290 0.000000 
#    z 0.000000 0.000000 3.902340 
# 
# 
# High freq. dielectric constant tensor:
#      x y z
#    x 1.737950 0.000000 0.000000 
#    y 0.000000 1.738730 0.000000 
#    z 0.000000 0.000000 1.750600 
# 
# From -- ./inp_files/47334.got.cif
#   From: 2010.06.25/outbox.cif.g09.slc.cpg/sg71_24_cif.got.tgz:47334.got - 2010.06.28 04:59:45.
