data_PCOD8288876
_publ_section_title
;
Structure prediction by ZEFSAII (Michael W. Deem and Ramdas Pophale) SiO2 
 PCOD8288876
Probable space group: I M M M
;
_chemical_formula_sum "Si O2"
_cell_formula_units_Z 104
_cell_length_a 23.151784
_cell_length_b 28.215327
_cell_length_c 8.659404
_cell_angle_alpha 90.000000
_cell_angle_beta 90.000000
_cell_angle_gamma 90.000000
_cell_volume 5656.627124
_symmetry_space_group_name_H-M "I M M M"
_symmetry_group_IT_number 71
_symmetry_cell_setting 'orthorhombic'
loop_
_space_group_symop_operation_xyz
x,y,z
-x,-y,z
x,-y,-z
-x,y,-z
-x,-y,-z
x,y,-z
-x,y,z
x,-y,z
1/2+x,1/2+y,1/2+z
1/2-x,1/2-y,1/2+z
1/2+x,1/2-y,1/2-z
1/2-x,1/2+y,1/2-z
1/2-x,1/2-y,1/2-z
1/2+x,1/2+y,1/2-z
1/2-x,1/2+y,1/2+z
1/2+x,1/2-y,1/2+z
loop_
_atom_site_type_symbol
_atom_site_label
_atom_site_fract_x
_atom_site_fract_y
_atom_site_fract_z
Si Si1 0.931130 0.500000 0.669209
Si Si2 0.356843 0.817195 0.817609
Si Si3 0.370455 0.353623 0.318912
Si Si4 0.934651 0.053145 0.183394
Si Si5 0.259635 0.301947 0.180321
Si Si6 0.936191 0.599818 0.314906
Si Si7 0.934719 0.228493 0.320776
O O1 0.902349 0.500000 0.500000
O O2 0.912850 0.450859 0.752884
O O3 0.000000 0.500000 0.651863
O O4 0.299018 0.828402 0.723663
O O5 0.397169 0.858379 0.753863
O O6 0.387487 0.767811 0.773575
O O7 0.345117 0.819889 0.000000
O O8 0.359329 0.355337 0.500000
O O9 0.389994 0.406042 0.256874
O O10 0.312490 0.333548 0.241254
O O11 0.422849 0.318035 0.280269
O O12 0.000000 0.062860 0.245093
O O13 0.914677 0.000000 0.236902
O O14 0.935953 0.055315 0.000000
O O15 0.250000 0.250000 0.250000
O O16 0.269091 0.295641 0.000000
O O17 0.936805 0.597583 0.500000
O O18 0.000000 0.610220 0.251993
O O19 0.927369 0.215633 0.500000
O O20 0.000000 0.246604 0.287928
#
# Coordination Sequence:
#
# PCOD8288876 Si02
#       7
#     8  16  16  16  16  16  16
#     4   7  10  18  36  66 101 131 159 197 242 287
#     4  10  19  32  51  74 102 137 174 213 257 309
#     4  11  21  34  56  82 107 139 179 222 265 313
#     4   8  15  30  54  85 117 143 170 213 270 325
#     4  12  24  39  56  74  99 136 179 222 264 312
#     4   8  13  23  43  72 104 134 164 202 252 302
#     4  10  20  32  48  74 109 143 172 208 258 314
#
# _framework density 18.385515999999999
#
# number of rings (size 3 to 8) (size 9 to 14) (size 15 to 20)
#    0.000    2.385    1.538    4.154    0.000    2.769 
#    0.000    0.000    1.692    3.231    0.000    5.385 
#    0.000    1.846    0.000    0.000    0.000    0.000 
#
# Total GULP energy -644202.126765 kJ/mol
# GULP energy per Si atom -12388.502438 kJ/mol
# Density = 1.834367 g / cm^3
# Si number density = 18.385516 Si / 1000 Ang^3
#
#
#
# Elastic Constant Matrix: (Units=GPa)
#
#
# Indices 1 2 3 4 5 6 
#
# 1 117.1387 66.8647 30.5041 0.0000 0.0000 0.0000
# 2 66.8647 160.8816 33.0938 0.0000 0.0000 0.0000
# 3 30.5041 33.0938 51.1044 0.0000 0.0000 0.0000
# 4 0.0000 0.0000 0.0000 15.9997 0.0000 0.0000
# 5 0.0000 0.0000 0.0000 0.0000 22.6556 0.0000
# 6 0.0000 0.0000 0.0000 0.0000 0.0000 18.7051
#
#
#
# Elastic Compliance Matrix: (Units=1/GPa)
#
#
# Indices 1 2 3 4 5 6 
#
# 1 0.012046 -0.004070 -0.004555 0.000000 0.000000 0.000000
# 2 -0.004070 0.008546 -0.003105 0.000000 0.000000 0.000000
# 3 -0.004555 -0.003105 0.024297 0.000000 0.000000 0.000000
# 4 0.000000 0.000000 0.000000 0.062501 0.000000 0.000000
# 5 0.000000 0.000000 0.000000 0.000000 0.044139 0.000000
# 6 0.000000 0.000000 0.000000 0.000000 0.000000 0.053461
#
#
# Mechanical properties :
#
#
# Convention : Reuss Voigt Hill
#
# Bulk Modulus (GPa) = 46.66285 65.56110 56.11197
# Shear Modulus (GPa) = 21.22302 24.71621 22.96961
#
# Velocity S-wave (km/s) = 3.40123 3.67049 3.53842
# Velocity P-wave (km/s) = 6.39217 7.32802 6.87603
#
# Compressibility (1/GPa) = 0.02143033
#
# Stress axis : x y z
#
# Youngs Moduli (GPa) = 83.01521 117.01664 41.15686
#
# Poissons Ratio (x) = 0.47620 0.18747
# Poissons Ratio (y) = 0.33783 0.12779
# Poissons Ratio (z) = 0.37813 0.36333
#
# Static dielectric constant tensor:
#      x y z
#    x 3.638420 0.000000 0.000000 
#    y 0.000000 3.878000 0.000000 
#    z 0.000000 0.000000 3.036230 
# 
# 
# High freq. dielectric constant tensor:
#      x y z
#    x 1.704290 0.000000 0.000000 
#    y 0.000000 1.723260 0.000000 
#    z 0.000000 0.000000 1.670410 
# 
# From -- ./inp_files/13326.got.cif
#   From: 2010.06.25/outbox.cif.g09.slc.cpg/sg71_7_cif.got.tgz:13326.got - 2010.06.28 04:59:45.
