data_PCOD8288429
_publ_section_title
;
Structure prediction by ZEFSAII (Michael W. Deem and Ramdas Pophale) SiO2 
 PCOD8288429
Probable space group: I M M M
;
_chemical_formula_sum "Si O2"
_cell_formula_units_Z 80
_cell_length_a 33.288945
_cell_length_b 14.455376
_cell_length_c 9.456064
_cell_angle_alpha 90.000000
_cell_angle_beta 90.000000
_cell_angle_gamma 90.000000
_cell_volume 4550.297869
_symmetry_space_group_name_H-M "I M M M"
_symmetry_group_IT_number 71
_symmetry_cell_setting 'orthorhombic'
loop_
_space_group_symop_operation_xyz
x,y,z
-x,-y,z
x,-y,-z
-x,y,-z
-x,-y,-z
x,y,-z
-x,y,z
x,-y,z
1/2+x,1/2+y,1/2+z
1/2-x,1/2-y,1/2+z
1/2+x,1/2-y,1/2-z
1/2-x,1/2+y,1/2-z
1/2-x,1/2-y,1/2-z
1/2+x,1/2+y,1/2-z
1/2-x,1/2+y,1/2+z
1/2+x,1/2-y,1/2+z
loop_
_atom_site_type_symbol
_atom_site_label
_atom_site_fract_x
_atom_site_fract_y
_atom_site_fract_z
Si Si1 0.751759 0.893464 0.335312
Si Si2 0.044915 0.890994 0.659181
Si Si3 0.044704 0.602031 0.168038
Si Si4 0.808486 0.766705 0.164851
Si Si5 0.599644 0.735223 0.332610
O O1 0.762744 0.887598 0.500000
O O2 0.789019 0.852000 0.248850
O O3 0.712511 0.831688 0.300603
O O4 0.743660 0.000000 0.290201
O O5 0.052853 0.855129 0.500000
O O6 0.078521 0.852905 0.764185
O O7 0.000000 0.861021 0.707879
O O8 0.048776 0.000000 0.664000
O O9 0.055748 0.500000 0.225680
O O10 0.077218 0.673839 0.227297
O O11 0.000000 0.630242 0.219750
O O12 0.045802 0.601251 0.000000
O O13 0.854288 0.758371 0.214754
O O14 0.804922 0.790465 0.000000
O O15 0.595583 0.726232 0.500000
#
# Coordination Sequence:
#
# PCOD8288429 Si02
#       5
#    16  16  16  16  16
#     4   9  18  34  54  71  91 125 163 194 230 282
#     4   9  19  35  51  67  92 129 168 200 233 276
#     4   8  14  25  42  66  95 124 153 185 224 273
#     4   9  19  33  48  72 101 123 151 195 242 285
#     4  10  19  30  48  74 100 124 153 195 243 284
#
# _framework density 17.581265999999999
#
# number of rings (size 3 to 8) (size 9 to 14) (size 15 to 20)
#    0.000    3.000    0.000    1.800    0.000    4.400 
#    0.000    9.000    0.000    0.600    0.000    5.600 
#    0.000    0.000    0.000    0.000    0.000    0.000 
#
# Total GULP energy -495876.140535 kJ/mol
# GULP energy per Si atom -12396.903513 kJ/mol
# Density = 1.754125 g / cm^3
# Si number density = 17.581266 Si / 1000 Ang^3
#
#
#
# Elastic Constant Matrix: (Units=GPa)
#
#
# Indices 1 2 3 4 5 6 
#
# 1 154.6904 66.3758 45.6571 0.0000 0.0000 0.0000
# 2 66.3758 106.2657 35.6479 0.0000 0.0000 0.0000
# 3 45.6571 35.6479 33.7257 0.0000 0.0000 0.0000
# 4 0.0000 0.0000 0.0000 19.7481 0.0000 0.0000
# 5 0.0000 0.0000 0.0000 0.0000 23.0983 0.0000
# 6 0.0000 0.0000 0.0000 0.0000 0.0000 14.1362
#
#
#
# Elastic Compliance Matrix: (Units=1/GPa)
#
#
# Indices 1 2 3 4 5 6 
#
# 1 0.011351 -0.002998 -0.012198 0.000000 0.000000 0.000000
# 2 -0.002998 0.015372 -0.012189 0.000000 0.000000 0.000000
# 3 -0.012198 -0.012189 0.059048 0.000000 0.000000 0.000000
# 4 0.000000 0.000000 0.000000 0.050638 0.000000 0.000000
# 5 0.000000 0.000000 0.000000 0.000000 0.043293 0.000000
# 6 0.000000 0.000000 0.000000 0.000000 0.000000 0.070741
#
#
# Mechanical properties :
#
#
# Convention : Reuss Voigt Hill
#
# Bulk Modulus (GPa) = 32.25727 65.56038 48.90882
# Shear Modulus (GPa) = 15.84543 21.19656 18.52099
#
# Velocity S-wave (km/s) = 3.00537 3.47599 3.24921
# Velocity P-wave (km/s) = 5.51637 7.31306 6.47731
#
# Compressibility (1/GPa) = 0.03100076
#
# Stress axis : x y z
#
# Youngs Moduli (GPa) = 88.09544 65.05231 16.93525
#
# Poissons Ratio (x) = 0.19505 0.20658
# Poissons Ratio (y) = 0.26414 0.20643
# Poissons Ratio (z) = 1.07458 0.79294
#
# Static dielectric constant tensor:
#      x y z
#    x 3.365400 0.000000 0.000000 
#    y 0.000000 3.383150 0.000000 
#    z 0.000000 0.000000 3.038020 
# 
# 
# High freq. dielectric constant tensor:
#      x y z
#    x 1.680380 0.000000 0.000000 
#    y 0.000000 1.684020 0.000000 
#    z 0.000000 0.000000 1.652870 
# 
# From -- ./inp_files/22133.got.cif
#   From: 2010.06.25/outbox.cif.g09.slc.cpg/sg71_12_cif.got.tgz:22133.got - 2010.06.28 04:59:45.
