data_PCOD8288592
_publ_section_title
;
Structure prediction by ZEFSAII (Michael W. Deem and Ramdas Pophale) SiO2 
 PCOD8288592
Probable space group: I M M M
;
_chemical_formula_sum "Si O2"
_cell_formula_units_Z 88
_cell_length_a 18.684519
_cell_length_b 12.668988
_cell_length_c 21.549419
_cell_angle_alpha 90.000000
_cell_angle_beta 90.000000
_cell_angle_gamma 90.000000
_cell_volume 5101.048027
_symmetry_space_group_name_H-M "I M M M"
_symmetry_group_IT_number 71
_symmetry_cell_setting 'orthorhombic'
loop_
_space_group_symop_operation_xyz
x,y,z
-x,-y,z
x,-y,-z
-x,y,-z
-x,-y,-z
x,y,-z
-x,y,z
x,-y,z
1/2+x,1/2+y,1/2+z
1/2-x,1/2-y,1/2+z
1/2+x,1/2-y,1/2-z
1/2-x,1/2+y,1/2-z
1/2-x,1/2-y,1/2-z
1/2+x,1/2+y,1/2-z
1/2-x,1/2+y,1/2+z
1/2+x,1/2-y,1/2+z
loop_
_atom_site_type_symbol
_atom_site_label
_atom_site_fract_x
_atom_site_fract_y
_atom_site_fract_z
Si Si1 0.724304 0.000000 0.929753
Si Si2 0.418893 0.826277 0.771173
Si Si3 0.649460 0.617954 0.752801
Si Si4 0.703887 0.882852 0.679393
Si Si5 0.420535 0.000000 0.872525
Si Si6 0.177259 0.177142 0.884041
Si Si7 0.083366 0.875126 0.000000
O O1 0.754419 0.104700 0.897645
O O2 0.638346 0.000000 0.926486
O O3 0.750418 0.000000 0.000000
O O4 0.500000 0.833808 0.747039
O O5 0.399576 0.704405 0.787473
O O6 0.369471 0.871449 0.716960
O O7 0.408546 0.895254 0.832331
O O8 0.623144 0.500000 0.770129
O O9 0.731558 0.636014 0.772483
O O10 0.641331 0.635678 0.679189
O O11 0.705484 0.797262 0.624052
O O12 0.708433 0.000000 0.649975
O O13 0.500000 0.000000 0.902156
O O14 0.118944 0.173720 0.938571
O O15 0.000000 0.844888 0.000000
O O16 0.095353 0.000000 0.000000
#
# Coordination Sequence:
#
# PCOD8288592 Si02
#       7
#     8  16  16  16   8  16   8
#     4  12  20  33  56  74  96 130 169 213 259 301
#     4  10  19  31  48  73 105 137 162 194 249 309
#     4  10  19  32  53  77 105 131 171 214 258 301
#     4  10  20  33  53  77 102 137 170 212 253 308
#     4  10  20  33  50  74 106 133 160 200 250 314
#     4  11  19  34  51  77 100 131 176 212 258 293
#     4  11  22  38  53  73 105 141 180 216 254 300
#
# _framework density 17.251356999999999
#
# number of rings (size 3 to 8) (size 9 to 14) (size 15 to 20)
#    0.000    1.545    3.636    4.364    0.000    3.455 
#    0.000    0.455    0.000    0.545    0.000    0.000 
#    0.000    0.000    0.000   15.636    0.000    0.000 
#
# Total GULP energy -545555.339335 kJ/mol
# GULP energy per Si atom -12398.984985 kJ/mol
# Density = 1.721209 g / cm^3
# Si number density = 17.251357 Si / 1000 Ang^3
#
#
#
# Elastic Constant Matrix: (Units=GPa)
#
#
# Indices 1 2 3 4 5 6 
#
# 1 94.6332 22.9955 28.5102 0.0000 0.0000 0.0000
# 2 22.9955 133.4799 30.0301 0.0000 0.0000 0.0000
# 3 28.5102 30.0301 55.8071 0.0000 0.0000 0.0000
# 4 0.0000 0.0000 0.0000 16.7392 0.0000 0.0000
# 5 0.0000 0.0000 0.0000 0.0000 25.7406 0.0000
# 6 0.0000 0.0000 0.0000 0.0000 0.0000 28.1911
#
#
#
# Elastic Compliance Matrix: (Units=1/GPa)
#
#
# Indices 1 2 3 4 5 6 
#
# 1 0.012568 -0.000820 -0.005979 0.000000 0.000000 0.000000
# 2 -0.000820 0.008577 -0.004197 0.000000 0.000000 0.000000
# 3 -0.005979 -0.004197 0.023232 0.000000 0.000000 0.000000
# 4 0.000000 0.000000 0.000000 0.059740 0.000000 0.000000
# 5 0.000000 0.000000 0.000000 0.000000 0.038849 0.000000
# 6 0.000000 0.000000 0.000000 0.000000 0.000000 0.035472
#
#
# Mechanical properties :
#
#
# Convention : Reuss Voigt Hill
#
# Bulk Modulus (GPa) = 44.67258 49.66576 47.16917
# Shear Modulus (GPa) = 24.05107 27.62648 25.83877
#
# Velocity S-wave (km/s) = 3.73789 4.00610 3.87432
# Velocity P-wave (km/s) = 6.67686 7.08876 6.88589
#
# Compressibility (1/GPa) = 0.02238510
#
# Stress axis : x y z
#
# Youngs Moduli (GPa) = 79.56888 116.58887 43.04467
#
# Poissons Ratio (x) = 0.09559 0.25738
# Poissons Ratio (y) = 0.06524 0.18064
# Poissons Ratio (z) = 0.47576 0.48927
#
# Static dielectric constant tensor:
#      x y z
#    x 3.248050 0.000000 0.000000 
#    y 0.000000 3.715510 0.000000 
#    z 0.000000 0.000000 2.900310 
# 
# 
# High freq. dielectric constant tensor:
#      x y z
#    x 1.669180 0.000000 0.000000 
#    y 0.000000 1.680760 0.000000 
#    z 0.000000 0.000000 1.627840 
# 
# From -- ./inp_files/44921.got.cif
#   From: 2010.06.25/outbox.cif.g09.slc.cpg/sg71_23_cif.got.tgz:44921.got - 2010.06.28 04:59:45.
