data_PCOD8288742
_publ_section_title
;
Structure prediction by ZEFSAII (Michael W. Deem and Ramdas Pophale) SiO2 
 PCOD8288742
Probable space group: I M M M
;
_chemical_formula_sum "Si O2"
_cell_formula_units_Z 104
_cell_length_a 16.824209
_cell_length_b 11.285371
_cell_length_c 29.580455
_cell_angle_alpha 90.000000
_cell_angle_beta 90.000000
_cell_angle_gamma 90.000000
_cell_volume 5616.365275
_symmetry_space_group_name_H-M "I M M M"
_symmetry_group_IT_number 71
_symmetry_cell_setting 'orthorhombic'
loop_
_space_group_symop_operation_xyz
x,y,z
-x,-y,z
x,-y,-z
-x,y,-z
-x,-y,-z
x,y,-z
-x,y,z
x,-y,z
1/2+x,1/2+y,1/2+z
1/2-x,1/2-y,1/2+z
1/2+x,1/2-y,1/2-z
1/2-x,1/2+y,1/2-z
1/2-x,1/2-y,1/2-z
1/2+x,1/2+y,1/2-z
1/2-x,1/2+y,1/2+z
1/2+x,1/2-y,1/2+z
loop_
_atom_site_type_symbol
_atom_site_label
_atom_site_fract_x
_atom_site_fract_y
_atom_site_fract_z
Si Si1 0.595320 0.000000 0.155521
Si Si2 0.588871 0.000000 0.744779
Si Si3 0.689058 0.638547 0.203391
Si Si4 0.639798 0.641083 0.380765
Si Si5 0.588084 0.632438 0.947276
Si Si6 0.642456 0.755740 0.711282
Si Si7 0.500000 0.359751 0.448058
Si Si8 0.818691 0.274783 0.381853
O O1 0.633338 0.000000 0.206651
O O2 0.630725 0.888379 0.130405
O O3 0.500000 0.000000 0.152507
O O4 0.603569 0.115431 0.714763
O O5 0.500000 0.000000 0.761232
O O6 0.711193 0.500000 0.207851
O O7 0.627994 0.675897 0.243546
O O8 0.763946 0.725947 0.206417
O O9 0.656713 0.670831 0.153954
O O10 0.647025 0.500000 0.378599
O O11 0.607030 0.687959 0.332293
O O12 0.578889 0.681611 0.420475
O O13 0.725613 0.698801 0.389001
O O14 0.500000 0.653880 0.926685
O O15 0.617067 0.500000 0.935519
O O16 0.651137 0.726883 0.929380
O O17 0.584129 0.652109 0.000000
O O18 0.500000 0.500000 0.450490
O O19 0.500000 0.308937 0.500000
#
# Coordination Sequence:
#
# PCOD8288742 Si02
#       8
#     8   8  16  16  16  16   8  16
#     4  11  22  36  53  77 119 162 188 223 273 339
#     4  11  22  36  52  75 113 159 198 223 274 343
#     4  10  19  31  52  77 109 144 185 234 276 328
#     4  10  21  36  58  86 114 147 188 240 291 344
#     4   9  19  37  59  81 109 146 189 241 291 333
#     4  10  20  33  53  77 109 147 189 231 279 333
#     4   9  20  40  62  83 111 145 185 238 306 355
#     4  11  20  34  56  83 114 149 194 229 284 344
#
# _framework density 18.517313000000001
#
# number of rings (size 3 to 8) (size 9 to 14) (size 15 to 20)
#    0.000    1.923    3.077    1.846    1.077    0.615 
#    0.000    0.385    0.000    2.308    0.000    0.538 
#    0.000    0.000    0.000    0.000    0.000    0.000 
#
# Total GULP energy -644460.147473 kJ/mol
# GULP energy per Si atom -12393.464374 kJ/mol
# Density = 1.847517 g / cm^3
# Si number density = 18.517313 Si / 1000 Ang^3
#
#
#
# Elastic Constant Matrix: (Units=GPa)
#
#
# Indices 1 2 3 4 5 6 
#
# 1 85.3583 28.2371 54.4473 0.0000 0.0000 0.0000
# 2 28.2371 85.2497 53.9035 0.0000 0.0000 0.0000
# 3 54.4473 53.9035 110.5985 0.0000 0.0000 0.0000
# 4 0.0000 0.0000 0.0000 34.0246 0.0000 0.0000
# 5 0.0000 0.0000 0.0000 0.0000 26.5987 0.0000
# 6 0.0000 0.0000 0.0000 0.0000 0.0000 10.2307
#
#
#
# Elastic Compliance Matrix: (Units=1/GPa)
#
#
# Indices 1 2 3 4 5 6 
#
# 1 0.017093 -0.000493 -0.008174 0.000000 0.000000 0.000000
# 2 -0.000493 0.016970 -0.008028 0.000000 0.000000 0.000000
# 3 -0.008174 -0.008028 0.016979 0.000000 0.000000 0.000000
# 4 0.000000 0.000000 0.000000 0.029391 0.000000 0.000000
# 5 0.000000 0.000000 0.000000 0.000000 0.037596 0.000000
# 6 0.000000 0.000000 0.000000 0.000000 0.000000 0.097745
#
#
# Mechanical properties :
#
#
# Convention : Reuss Voigt Hill
#
# Bulk Modulus (GPa) = 56.65639 61.59804 59.12721
# Shear Modulus (GPa) = 19.60426 23.81202 21.70814
#
# Velocity S-wave (km/s) = 3.25730 3.58988 3.42762
# Velocity P-wave (km/s) = 6.69399 7.10776 6.90398
#
# Compressibility (1/GPa) = 0.01765026
#
# Stress axis : x y z
#
# Youngs Moduli (GPa) = 58.50505 58.92881 58.89749
#
# Poissons Ratio (x) = 0.02904 0.48145
# Poissons Ratio (y) = 0.02883 0.47283
# Poissons Ratio (z) = 0.47824 0.47308
#
# Static dielectric constant tensor:
#      x y z
#    x 3.408810 0.000000 0.000000 
#    y 0.000000 3.291900 0.000000 
#    z 0.000000 0.000000 3.590700 
# 
# 
# High freq. dielectric constant tensor:
#      x y z
#    x 1.704730 0.000000 0.000000 
#    y 0.000000 1.714040 0.000000 
#    z 0.000000 0.000000 1.718700 
# 
# From -- ./inp_files/66077.got.cif
#   From: 2010.06.25/outbox.cif.g09.slc.cpg/sg71_34_cif.got.tgz:66077.got - 2010.06.28 04:59:45.
