data_PCOD8288797
_publ_section_title
;
Structure prediction by ZEFSAII (Michael W. Deem and Ramdas Pophale) SiO2 
 PCOD8288797
Probable space group: I M M M
;
_chemical_formula_sum "Si O2"
_cell_formula_units_Z 88
_cell_length_a 26.961012
_cell_length_b 8.965979
_cell_length_c 19.909128
_cell_angle_alpha 90.000000
_cell_angle_beta 90.000000
_cell_angle_gamma 90.000000
_cell_volume 4812.670690
_symmetry_space_group_name_H-M "I M M M"
_symmetry_group_IT_number 71
_symmetry_cell_setting 'orthorhombic'
loop_
_space_group_symop_operation_xyz
x,y,z
-x,-y,z
x,-y,-z
-x,y,-z
-x,-y,-z
x,y,-z
-x,y,z
x,-y,z
1/2+x,1/2+y,1/2+z
1/2-x,1/2-y,1/2+z
1/2+x,1/2-y,1/2-z
1/2-x,1/2+y,1/2-z
1/2-x,1/2-y,1/2-z
1/2+x,1/2+y,1/2-z
1/2-x,1/2+y,1/2+z
1/2+x,1/2-y,1/2+z
loop_
_atom_site_type_symbol
_atom_site_label
_atom_site_fract_x
_atom_site_fract_y
_atom_site_fract_z
Si Si1 0.834917 0.833130 0.500000
Si Si2 0.329888 0.828872 0.130863
Si Si3 0.441187 0.168077 0.500000
Si Si4 0.783005 0.669905 0.000000
Si Si5 0.863389 0.325795 0.776356
Si Si6 0.442059 0.325627 0.635155
Si Si7 0.716604 0.323428 0.634651
O O1 0.854639 0.756818 0.431843
O O2 0.775962 0.822617 0.500000
O O3 0.855116 0.000000 0.500000
O O4 0.363305 0.800606 0.196262
O O5 0.273656 0.776269 0.145966
O O6 0.328511 0.000000 0.109511
O O7 0.500000 0.166029 0.500000
O O8 0.422279 0.254346 0.565841
O O9 0.419734 0.000000 0.500000
O O10 0.803857 0.755218 0.065011
O O11 0.802310 0.500000 0.000000
O O12 0.862332 0.500000 0.794617
O O13 0.913389 0.250850 0.803602
O O14 0.814578 0.247883 0.805436
O O15 0.500000 0.294445 0.646137
O O16 0.430017 0.500000 0.633048
O O17 0.708835 0.500000 0.634150
#
# Coordination Sequence:
#
# PCOD8288797 Si02
#       7
#     8  16   8   8  16  16  16
#     4   9  17  29  50  74  96 127 166 205 241 285
#     4   9  19  34  51  72 101 134 165 200 243 292
#     4   9  17  32  55  78  99 127 164 206 249 292
#     4   9  17  30  46  67  96 131 171 210 245 283
#     4  11  22  34  50  74 101 131 166 203 247 295
#     4  10  21  37  55  75 100 130 165 206 250 294
#     4  10  19  32  49  70  99 134 169 205 245 288
#
# _framework density 18.285066
#
# number of rings (size 3 to 8) (size 9 to 14) (size 15 to 20)
#    0.000    2.273    0.000    3.000    0.000    7.273 
#    0.000    3.636    0.000    0.000    0.000    0.636 
#    0.000    5.091    0.000    0.000    0.000    0.000 
#
# Total GULP energy -545665.220520 kJ/mol
# GULP energy per Si atom -12401.482285 kJ/mol
# Density = 1.824345 g / cm^3
# Si number density = 18.285066 Si / 1000 Ang^3
#
#
#
# Elastic Constant Matrix: (Units=GPa)
#
#
# Indices 1 2 3 4 5 6 
#
# 1 50.2708 34.9020 39.6571 0.0000 0.0000 0.0000
# 2 34.9020 130.9805 71.8042 0.0000 0.0000 0.0000
# 3 39.6571 71.8042 130.3601 0.0000 0.0000 0.0000
# 4 0.0000 0.0000 0.0000 32.7099 0.0000 0.0000
# 5 0.0000 0.0000 0.0000 0.0000 11.6657 0.0000
# 6 0.0000 0.0000 0.0000 0.0000 0.0000 22.8751
#
#
#
# Elastic Compliance Matrix: (Units=1/GPa)
#
#
# Indices 1 2 3 4 5 6 
#
# 1 0.027517 -0.003930 -0.006206 0.000000 0.000000 0.000000
# 2 -0.003930 0.011499 -0.005138 0.000000 0.000000 0.000000
# 3 -0.006206 -0.005138 0.012389 0.000000 0.000000 0.000000
# 4 0.000000 0.000000 0.000000 0.030572 0.000000 0.000000
# 5 0.000000 0.000000 0.000000 0.000000 0.085721 0.000000
# 6 0.000000 0.000000 0.000000 0.000000 0.000000 0.043716
#
#
# Mechanical properties :
#
#
# Convention : Reuss Voigt Hill
#
# Bulk Modulus (GPa) = 47.94795 67.14867 57.54831
# Shear Modulus (GPa) = 20.08728 24.46668 22.27698
#
# Velocity S-wave (km/s) = 3.31805 3.66193 3.49422
# Velocity P-wave (km/s) = 6.39990 7.39477 6.91525
#
# Compressibility (1/GPa) = 0.02085595
#
# Stress axis : x y z
#
# Youngs Moduli (GPa) = 36.34165 86.96658 80.71561
#
# Poissons Ratio (x) = 0.34178 0.50093
# Poissons Ratio (y) = 0.14282 0.41472
# Poissons Ratio (z) = 0.22554 0.44684
#
# Static dielectric constant tensor:
#      x y z
#    x 2.988690 0.000000 0.000000 
#    y 0.000000 3.518370 0.000000 
#    z 0.000000 0.000000 3.449980 
# 
# 
# High freq. dielectric constant tensor:
#      x y z
#    x 1.665830 0.000000 0.000000 
#    y 0.000000 1.724190 0.000000 
#    z 0.000000 0.000000 1.712200 
# 
# From -- ./inp_files/42536.got.cif
#   From: 2010.06.25/outbox.cif.g09.slc.cpg/sg71_22_cif.got.tgz:42536.got - 2010.06.28 04:59:45.
