data_PCOD8288657
_publ_section_title
;
Structure prediction by ZEFSAII (Michael W. Deem and Ramdas Pophale) SiO2 
 PCOD8288657
Probable space group: I M M M
;
_chemical_formula_sum "Si O2"
_cell_formula_units_Z 88
_cell_length_a 25.134998
_cell_length_b 24.583933
_cell_length_c 8.721862
_cell_angle_alpha 90.000000
_cell_angle_beta 90.000000
_cell_angle_gamma 90.000000
_cell_volume 5389.387733
_symmetry_space_group_name_H-M "I M M M"
_symmetry_group_IT_number 71
_symmetry_cell_setting 'orthorhombic'
loop_
_space_group_symop_operation_xyz
x,y,z
-x,-y,z
x,-y,-z
-x,y,-z
-x,-y,-z
x,y,-z
-x,y,z
x,-y,z
1/2+x,1/2+y,1/2+z
1/2-x,1/2-y,1/2+z
1/2+x,1/2-y,1/2-z
1/2-x,1/2+y,1/2-z
1/2-x,1/2-y,1/2-z
1/2+x,1/2+y,1/2-z
1/2-x,1/2+y,1/2+z
1/2+x,1/2-y,1/2+z
loop_
_atom_site_type_symbol
_atom_site_label
_atom_site_fract_x
_atom_site_fract_y
_atom_site_fract_z
Si Si1 0.500000 0.060176 0.334798
Si Si2 0.798326 0.438131 0.819287
Si Si3 0.243950 0.336976 0.319728
Si Si4 0.059486 0.282085 0.823474
Si Si5 0.096011 0.391661 0.678450
Si Si6 0.828421 0.249196 0.177640
O O1 0.500000 0.093871 0.500000
O O2 0.449480 0.067507 0.227456
O O3 0.500000 0.000000 0.392775
O O4 0.792900 0.500000 0.753020
O O5 0.752985 0.397284 0.754619
O O6 0.852770 0.409322 0.772839
O O7 0.793918 0.440644 0.000000
O O8 0.240705 0.344718 0.500000
O O9 0.191812 0.302690 0.268069
O O10 0.296984 0.304517 0.266939
O O11 0.072987 0.332656 0.717351
O O12 0.108047 0.239361 0.794663
O O13 0.000000 0.258995 0.782219
O O14 0.060584 0.300593 0.000000
O O15 0.109583 0.395787 0.500000
O O16 0.815673 0.260230 0.000000
#
# Coordination Sequence:
#
# PCOD8288657 Si02
#       6
#     8  16  16  16  16  16
#     4  11  23  37  49  59  79 119 165 203 244 289
#     4  11  23  37  51  67  92 127 164 201 245 297
#     4  10  19  31  50  74  97 123 158 201 245 288
#     4  10  19  32  51  70  95 130 163 194 234 286
#     4  12  23  33  47  68  92 119 159 207 247 280
#     4   9  18  32  50  72  98 127 159 195 240 294
#
# _framework density 16.328385000000001
#
# number of rings (size 3 to 8) (size 9 to 14) (size 15 to 20)
#    0.000    1.545    2.727    3.545    0.000    5.091 
#    0.000    0.000    0.000    0.000    0.000    0.000 
#    0.000    0.727    0.000    9.091    0.000    1.455 
#
# Total GULP energy -545174.558226 kJ/mol
# GULP energy per Si atom -12390.330869 kJ/mol
# Density = 1.629122 g / cm^3
# Si number density = 16.328385 Si / 1000 Ang^3
#
#
#
# Elastic Constant Matrix: (Units=GPa)
#
#
# Indices 1 2 3 4 5 6 
#
# 1 111.7823 53.1485 17.2720 0.0000 0.0000 0.0000
# 2 53.1485 80.7266 24.7615 0.0000 0.0000 0.0000
# 3 17.2720 24.7615 49.6826 0.0000 0.0000 0.0000
# 4 0.0000 0.0000 0.0000 20.9336 0.0000 0.0000
# 5 0.0000 0.0000 0.0000 0.0000 20.5251 0.0000
# 6 0.0000 0.0000 0.0000 0.0000 0.0000 26.4892
#
#
#
# Elastic Compliance Matrix: (Units=1/GPa)
#
#
# Indices 1 2 3 4 5 6 
#
# 1 0.013026 -0.008484 -0.000300 0.000000 0.000000 0.000000
# 2 -0.008484 0.020149 -0.007093 0.000000 0.000000 0.000000
# 3 -0.000300 -0.007093 0.023767 0.000000 0.000000 0.000000
# 4 0.000000 0.000000 0.000000 0.047770 0.000000 0.000000
# 5 0.000000 0.000000 0.000000 0.000000 0.048721 0.000000
# 6 0.000000 0.000000 0.000000 0.000000 0.000000 0.037751
#
#
# Mechanical properties :
#
#
# Convention : Reuss Voigt Hill
#
# Bulk Modulus (GPa) = 39.70072 48.06173 43.88123
# Shear Modulus (GPa) = 21.61380 23.39022 22.50201
#
# Velocity S-wave (km/s) = 3.64221 3.78893 3.71629
# Velocity P-wave (km/s) = 6.48493 6.97421 6.73402
#
# Compressibility (1/GPa) = 0.02518846
#
# Stress axis : x y z
#
# Youngs Moduli (GPa) = 76.76822 49.63089 42.07521
#
# Poissons Ratio (x) = 0.42107 0.01263
# Poissons Ratio (y) = 0.65131 0.29842
# Poissons Ratio (z) = 0.02304 0.35201
#
# Static dielectric constant tensor:
#      x y z
#    x 3.392530 0.000000 0.000000 
#    y 0.000000 3.132980 0.000000 
#    z 0.000000 0.000000 3.132980 
# 
# 
# High freq. dielectric constant tensor:
#      x y z
#    x 1.617500 0.000000 0.000000 
#    y 0.000000 1.596640 0.000000 
#    z 0.000000 0.000000 1.637990 
# 
# From -- ./inp_files/10974.got.cif
#   From: 2010.06.25/outbox.cif.g09.slc.cpg/sg71_6_cif.got.tgz:10974.got - 2010.06.28 04:59:45.
