data_PCOD8288154
_publ_section_title
;
Structure prediction by ZEFSAII (Michael W. Deem and Ramdas Pophale) SiO2 
 PCOD8288154
Probable space group: I M M M
;
_chemical_formula_sum "Si O2"
_cell_formula_units_Z 112
_cell_length_a 31.845480
_cell_length_b 32.032099
_cell_length_c 8.899419
_cell_angle_alpha 90.000000
_cell_angle_beta 90.000000
_cell_angle_gamma 90.000000
_cell_volume 9078.097691
_symmetry_space_group_name_H-M "I M M M"
_symmetry_group_IT_number 71
_symmetry_cell_setting 'orthorhombic'
loop_
_space_group_symop_operation_xyz
x,y,z
-x,-y,z
x,-y,-z
-x,y,-z
-x,-y,-z
x,y,-z
-x,y,z
x,-y,z
1/2+x,1/2+y,1/2+z
1/2-x,1/2-y,1/2+z
1/2+x,1/2-y,1/2-z
1/2-x,1/2+y,1/2-z
1/2-x,1/2-y,1/2-z
1/2+x,1/2+y,1/2-z
1/2-x,1/2+y,1/2+z
1/2+x,1/2-y,1/2+z
loop_
_atom_site_type_symbol
_atom_site_label
_atom_site_fract_x
_atom_site_fract_y
_atom_site_fract_z
Si Si1 0.137915 0.385723 0.825304
Si Si2 0.727505 0.288879 0.823775
Si Si3 0.000000 0.419324 0.821565
Si Si4 0.418034 0.195356 0.327477
Si Si5 0.208597 0.339595 0.330306
Si Si6 0.000000 0.328918 0.676701
Si Si7 0.917538 0.451841 0.327786
Si Si8 0.650020 0.758975 0.832929
O O1 0.105551 0.348076 0.796786
O O2 0.183888 0.375253 0.760767
O O3 0.121142 0.425963 0.738372
O O4 0.142119 0.396071 0.000000
O O5 0.750000 0.250000 0.750000
O O6 0.746028 0.330962 0.747836
O O7 0.677189 0.282909 0.795529
O O8 0.737762 0.289544 0.000000
O O9 0.040620 0.443901 0.766569
O O10 0.000000 0.372546 0.762153
O O11 0.000000 0.417512 0.000000
O O12 0.431096 0.200115 0.500000
O O13 0.459180 0.197277 0.224517
O O14 0.387941 0.234196 0.283410
O O15 0.216180 0.354948 0.500000
O O16 0.181703 0.297622 0.325502
O O17 0.000000 0.336696 0.500000
O O18 0.925684 0.438591 0.500000
O O19 0.904993 0.500000 0.315036
O O20 0.630756 0.755717 0.000000
#
# Coordination Sequence:
#
# PCOD8288154 Si02
#       8
#    16  16   8  16  16   8  16  16
#     4  10  19  30  44  58  73  90 110 137 168 205
#     4   9  15  23  35  52  73  93 114 135 158 190
#     4  12  23  35  48  61  72  84 108 140 176 216
#     4  10  19  29  41  56  71  87 111 141 170 206
#     4   9  16  25  38  54  73  93 113 134 159 194
#     4  12  22  31  45  56  70  91 112 142 178 216
#     4  11  23  36  48  60  73  89 109 136 175 220
#     4   8  15  25  36  51  71  93 113 133 160 195
#
# _framework density 12.337386
#
# number of rings (size 3 to 8) (size 9 to 14) (size 15 to 20)
#    0.000    2.143    1.429    4.500    0.000    7.143 
#    0.000    0.000    0.000    0.000    0.000    0.000 
#    0.000    0.000    0.000    0.000    0.000    0.000 
#
# Total GULP energy -694233.679343 kJ/mol
# GULP energy per Si atom -12397.029988 kJ/mol
# Density = 1.230931 g / cm^3
# Si number density = 12.337386 Si / 1000 Ang^3
#
#
#
# Elastic Constant Matrix: (Units=GPa)
#
#
# Indices 1 2 3 4 5 6 
#
# 1 59.9951 38.4491 43.5464 0.0000 0.0000 0.0000
# 2 38.4491 35.4978 30.2236 0.0000 0.0000 0.0000
# 3 43.5464 30.2236 102.8539 0.0000 0.0000 0.0000
# 4 0.0000 0.0000 0.0000 14.9290 0.0000 0.0000
# 5 0.0000 0.0000 0.0000 0.0000 22.4795 0.0000
# 6 0.0000 0.0000 0.0000 0.0000 0.0000 4.8413
#
#
#
# Elastic Compliance Matrix: (Units=1/GPa)
#
#
# Indices 1 2 3 4 5 6 
#
# 1 0.059403 -0.057253 -0.008327 0.000000 0.000000 0.000000
# 2 -0.057253 0.092751 -0.003015 0.000000 0.000000 0.000000
# 3 -0.008327 -0.003015 0.014134 0.000000 0.000000 0.000000
# 4 0.000000 0.000000 0.000000 0.066984 0.000000 0.000000
# 5 0.000000 0.000000 0.000000 0.000000 0.044485 0.000000
# 6 0.000000 0.000000 0.000000 0.000000 0.000000 0.206558
#
#
# Mechanical properties :
#
#
# Convention : Reuss Voigt Hill
#
# Bulk Modulus (GPa) = 34.36528 46.97612 40.67070
# Shear Modulus (GPa) = 7.92138 14.19180 11.05659
#
# Velocity S-wave (km/s) = 2.53664 3.39530 2.99688
# Velocity P-wave (km/s) = 6.04107 7.31640 6.70910
#
# Compressibility (1/GPa) = 0.02909914
#
# Stress axis : x y z
#
# Youngs Moduli (GPa) = 16.83404 10.78157 70.75244
#
# Poissons Ratio (x) = 0.61728 0.58912
# Poissons Ratio (y) = 0.96380 0.21332
# Poissons Ratio (z) = 0.14017 0.03251
#
# Static dielectric constant tensor:
#      x y z
#    x 2.638910 0.000000 0.000000 
#    y 0.000000 2.287680 0.000000 
#    z 0.000000 0.000000 2.731050 
# 
# 
# High freq. dielectric constant tensor:
#      x y z
#    x 1.452110 0.000000 0.000000 
#    y 0.000000 1.412930 0.000000 
#    z 0.000000 0.000000 1.490350 
# 
# From -- ./inp_files/17621.got.cif
#   From: 2010.06.25/outbox.cif.g09.slc.cpg/sg71_9_cif.got.tgz:17621.got - 2010.06.28 04:59:45.
