data_PCOD8288926
_publ_section_title
;
Structure prediction by ZEFSAII (Michael W. Deem and Ramdas Pophale) SiO2 
 PCOD8288926
Probable space group: I M M M
;
_chemical_formula_sum "Si O2"
_cell_formula_units_Z 120
_cell_length_a 17.056495
_cell_length_b 20.225414
_cell_length_c 20.541716
_cell_angle_alpha 90.000000
_cell_angle_beta 90.000000
_cell_angle_gamma 90.000000
_cell_volume 7086.371755
_symmetry_space_group_name_H-M "I M M M"
_symmetry_group_IT_number 71
_symmetry_cell_setting 'orthorhombic'
loop_
_space_group_symop_operation_xyz
x,y,z
-x,-y,z
x,-y,-z
-x,y,-z
-x,-y,-z
x,y,-z
-x,y,z
x,-y,z
1/2+x,1/2+y,1/2+z
1/2-x,1/2-y,1/2+z
1/2+x,1/2-y,1/2-z
1/2-x,1/2+y,1/2-z
1/2-x,1/2-y,1/2-z
1/2+x,1/2+y,1/2-z
1/2-x,1/2+y,1/2+z
1/2+x,1/2-y,1/2+z
loop_
_atom_site_type_symbol
_atom_site_label
_atom_site_fract_x
_atom_site_fract_y
_atom_site_fract_z
Si Si1 0.410639 0.675347 0.203060
Si Si2 0.717149 0.425941 0.222494
Si Si3 0.192228 0.645616 0.112367
Si Si4 0.409682 0.146029 0.073306
Si Si5 0.912949 0.304943 0.779044
Si Si6 0.365729 0.925477 0.802696
Si Si7 0.345840 0.711906 0.928143
Si Si8 0.092552 0.421583 0.000000
O O1 0.500000 0.657881 0.218831
O O2 0.356505 0.620844 0.236997
O O3 0.385356 0.747071 0.230203
O O4 0.396797 0.673273 0.125391
O O5 0.685280 0.500000 0.215018
O O6 0.762904 0.408356 0.156050
O O7 0.774235 0.418842 0.284494
O O8 0.143372 0.694222 0.159004
O O9 0.254382 0.692075 0.075587
O O10 0.133618 0.608540 0.063662
O O11 0.500000 0.164998 0.089597
O O12 0.378219 0.089370 0.121177
O O13 0.355280 0.209994 0.082875
O O14 0.402865 0.118304 0.000000
O O15 0.914829 0.374354 0.740755
O O16 0.000000 0.290210 0.804613
O O17 0.395468 0.000000 0.788082
O O18 0.377551 0.692579 0.000000
O O19 0.105021 0.500000 0.000000
O O20 0.000000 0.403818 0.000000
#
# Coordination Sequence:
#
# PCOD8288926 Si02
#       8
#    16  16  16  16  16  16  16   8
#     4  10  20  33  54  78 102 135 169 213 267 308
#     4   9  20  35  52  75 102 132 172 217 259 310
#     4  10  20  34  53  74 101 134 172 213 256 306
#     4  10  20  32  48  73 106 135 168 210 251 301
#     4  10  20  33  50  76 105 131 168 212 255 307
#     4  10  20  33  51  73 102 139 172 205 250 305
#     4  10  19  32  52  76 100 133 170 209 251 304
#     4  11  22  36  54  76 105 141 176 213 261 313
#
# _framework density 16.933913
#
# number of rings (size 3 to 8) (size 9 to 14) (size 15 to 20)
#    0.000    2.067    2.000    1.600    1.867    4.533 
#    0.000    0.667    0.000    0.000    0.000    1.867 
#    0.000    0.000    0.000    2.933    0.000    0.000 
#
# Total GULP energy -743942.141041 kJ/mol
# GULP energy per Si atom -12399.035684 kJ/mol
# Density = 1.689537 g / cm^3
# Si number density = 16.933913 Si / 1000 Ang^3
#
#
#
# Elastic Constant Matrix: (Units=GPa)
#
#
# Indices 1 2 3 4 5 6 
#
# 1 98.4357 58.4134 42.6747 0.0000 0.0000 0.0000
# 2 58.4134 102.6669 35.7551 0.0000 0.0000 0.0000
# 3 42.6747 35.7551 84.9394 0.0000 0.0000 0.0000
# 4 0.0000 0.0000 0.0000 20.5921 0.0000 0.0000
# 5 0.0000 0.0000 0.0000 0.0000 23.4003 0.0000
# 6 0.0000 0.0000 0.0000 0.0000 0.0000 18.2236
#
#
#
# Elastic Compliance Matrix: (Units=1/GPa)
#
#
# Indices 1 2 3 4 5 6 
#
# 1 0.017146 -0.007916 -0.005282 0.000000 0.000000 0.000000
# 2 -0.007916 0.015068 -0.002366 0.000000 0.000000 0.000000
# 3 -0.005282 -0.002366 0.015423 0.000000 0.000000 0.000000
# 4 0.000000 0.000000 0.000000 0.048562 0.000000 0.000000
# 5 0.000000 0.000000 0.000000 0.000000 0.042735 0.000000
# 6 0.000000 0.000000 0.000000 0.000000 0.000000 0.054874
#
#
# Mechanical properties :
#
#
# Convention : Reuss Voigt Hill
#
# Bulk Modulus (GPa) = 60.57261 62.19204 61.38232
# Shear Modulus (GPa) = 21.69767 22.38978 22.04373
#
# Velocity S-wave (km/s) = 3.58343 3.64013 3.61189
# Velocity P-wave (km/s) = 7.27798 7.38061 7.32948
#
# Compressibility (1/GPa) = 0.01650911
#
# Stress axis : x y z
#
# Youngs Moduli (GPa) = 58.32112 66.36571 64.83864
#
# Poissons Ratio (x) = 0.52535 0.34250
# Poissons Ratio (y) = 0.46167 0.15339
# Poissons Ratio (z) = 0.30807 0.15701
#
# Static dielectric constant tensor:
#      x y z
#    x 3.176360 0.000000 0.000000 
#    y 0.000000 3.105610 0.000000 
#    z 0.000000 0.000000 3.233090 
# 
# 
# High freq. dielectric constant tensor:
#      x y z
#    x 1.650550 0.000000 0.000000 
#    y 0.000000 1.642490 0.000000 
#    z 0.000000 0.000000 1.652450 
# 
# From -- ./inp_files/53435.got.cif
#   From: 2010.06.25/outbox.cif.g09.slc.cpg/sg71_27_cif.got.tgz:53435.got - 2010.06.28 04:59:45.
