data_PCOD8288463
_publ_section_title
;
Structure prediction by ZEFSAII (Michael W. Deem and Ramdas Pophale) SiO2 
 PCOD8288463
Probable space group: I M M M
;
_chemical_formula_sum "Si O2"
_cell_formula_units_Z 104
_cell_length_a 9.242849
_cell_length_b 26.087830
_cell_length_c 22.320758
_cell_angle_alpha 90.000000
_cell_angle_beta 90.000000
_cell_angle_gamma 90.000000
_cell_volume 5382.112268
_symmetry_space_group_name_H-M "I M M M"
_symmetry_group_IT_number 71
_symmetry_cell_setting 'orthorhombic'
loop_
_space_group_symop_operation_xyz
x,y,z
-x,-y,z
x,-y,-z
-x,y,-z
-x,-y,-z
x,y,-z
-x,y,z
x,-y,z
1/2+x,1/2+y,1/2+z
1/2-x,1/2-y,1/2+z
1/2+x,1/2-y,1/2-z
1/2-x,1/2+y,1/2-z
1/2-x,1/2-y,1/2-z
1/2+x,1/2+y,1/2-z
1/2-x,1/2+y,1/2+z
1/2+x,1/2-y,1/2+z
loop_
_atom_site_type_symbol
_atom_site_label
_atom_site_fract_x
_atom_site_fract_y
_atom_site_fract_z
Si Si1 0.339769 0.192053 0.609023
Si Si2 0.334442 0.558903 0.257372
Si Si3 0.328729 0.876787 0.157333
Si Si4 0.167151 0.804724 0.929571
Si Si5 0.670853 0.594918 0.873518
Si Si6 0.844214 0.701364 0.245934
Si Si7 0.165358 0.500000 0.070864
O O1 0.500000 0.185193 0.578553
O O2 0.277678 0.248584 0.592613
O O3 0.226736 0.147113 0.593123
O O4 0.360039 0.183400 0.678875
O O5 0.500000 0.568524 0.275357
O O6 0.306290 0.500000 0.239799
O O7 0.240532 0.570395 0.318065
O O8 0.295025 0.592379 0.197995
O O9 0.500000 0.883411 0.147705
O O10 0.259069 0.851709 0.098069
O O11 0.276806 0.841700 0.212419
O O12 0.000000 0.811423 0.910809
O O13 0.189550 0.808331 0.000000
O O14 0.500000 0.590259 0.884713
O O15 0.752898 0.549605 0.905986
O O16 0.750000 0.750000 0.250000
O O17 0.000000 0.715397 0.273414
O O18 0.000000 0.500000 0.094593
O O19 0.168847 0.500000 0.000000
#
# Coordination Sequence:
#
# PCOD8288463 Si02
#       7
#    16  16  16  16  16  16   8
#     4  10  20  35  54  82 118 154 193 235 282 339
#     4  10  21  38  59  86 119 152 188 234 293 355
#     4  11  22  35  56  87 117 149 189 237 296 352
#     4  10  22  40  60  81 112 158 203 240 283 345
#     4  11  22  37  59  88 119 152 194 245 296 342
#     4  10  19  30  49  79 112 145 183 226 275 329
#     4  11  25  43  61  79 107 155 206 247 290 343
#
# _framework density 19.323267999999999
#
# number of rings (size 3 to 8) (size 9 to 14) (size 15 to 20)
#    0.000    1.615    3.846    1.154    0.000    4.308 
#    0.000    1.538    0.000    0.462    0.000    3.231 
#    0.000    0.000    0.000    0.000    0.000    0.000 
#
# Total GULP energy -644363.508767 kJ/mol
# GULP energy per Si atom -12391.605938 kJ/mol
# Density = 1.927929 g / cm^3
# Si number density = 19.323268 Si / 1000 Ang^3
#
#
#
# Elastic Constant Matrix: (Units=GPa)
#
#
# Indices 1 2 3 4 5 6 
#
# 1 102.4646 41.2238 32.7267 0.0000 0.0000 0.0000
# 2 41.2238 60.5210 18.0290 0.0000 0.0000 0.0000
# 3 32.7267 18.0290 70.3014 0.0000 0.0000 0.0001
# 4 0.0000 0.0000 0.0000 20.1129 0.0000 0.0000
# 5 0.0000 0.0000 0.0000 0.0000 27.0894 0.0000
# 6 0.0000 0.0000 0.0001 0.0000 0.0000 -11.6717
#
#
#
# Elastic Compliance Matrix: (Units=1/GPa)
#
#
# Indices 1 2 3 4 5 6 
#
# 1 0.014717 -0.008644 -0.004634 0.000000 0.000000 0.000000
# 2 -0.008644 0.022967 -0.001866 0.000000 0.000000 0.000000
# 3 -0.004634 -0.001866 0.016860 0.000000 0.000000 0.000000
# 4 0.000000 0.000000 0.000000 0.049719 0.000000 0.000000
# 5 0.000000 0.000000 0.000000 0.000000 0.036915 0.000000
# 6 0.000000 0.000000 0.000000 0.000000 0.000000 -0.085677
#
#
# Mechanical properties :
#
#
# Convention : Reuss Voigt Hill
#
# Bulk Modulus (GPa) = 41.22728 46.36066 43.79397
# Shear Modulus (GPa) = 53.26191 16.52664 34.89428
#
# Velocity S-wave (km/s) = 5.25580 2.92768 4.25410
# Velocity P-wave (km/s) = 7.62975 5.95589 6.84419
#
# Compressibility (1/GPa) = 0.02425578
#
# Stress axis : x y z
#
# Youngs Moduli (GPa) = 67.94672 43.54072 59.31056
#
# Poissons Ratio (x) = 0.37637 0.27487
# Poissons Ratio (y) = 0.58734 0.11067
# Poissons Ratio (z) = 0.31489 0.08124
#
# Static dielectric constant tensor:
#      x y z
#    x 3.671460 0.000000 0.000000 
#    y 0.000000 3.546670 0.000000 
#    z 0.000000 0.000000 3.328930 
# 
# 
# High freq. dielectric constant tensor:
#      x y z
#    x 1.756110 0.000000 0.000000 
#    y 0.000000 1.746440 0.000000 
#    z 0.000000 0.000000 1.732730 
# 
# From -- ./inp_files/11041.got.cif
#   From: 2010.06.25/outbox.cif.g09.slc.cpg/sg71_6_cif.got.tgz:11041.got - 2010.06.28 04:59:45.
