data_PCOD8288243
_publ_section_title
;
Structure prediction by ZEFSAII (Michael W. Deem and Ramdas Pophale) SiO2 
 PCOD8288243
Probable space group: I M M M
;
_chemical_formula_sum "Si O2"
_cell_formula_units_Z 120
_cell_length_a 22.312414
_cell_length_b 21.116543
_cell_length_c 15.063745
_cell_angle_alpha 90.000000
_cell_angle_beta 90.000000
_cell_angle_gamma 90.000000
_cell_volume 7097.449906
_symmetry_space_group_name_H-M "I M M M"
_symmetry_group_IT_number 71
_symmetry_cell_setting 'orthorhombic'
loop_
_space_group_symop_operation_xyz
x,y,z
-x,-y,z
x,-y,-z
-x,y,-z
-x,-y,-z
x,y,-z
-x,y,z
x,-y,z
1/2+x,1/2+y,1/2+z
1/2-x,1/2-y,1/2+z
1/2+x,1/2-y,1/2-z
1/2-x,1/2+y,1/2-z
1/2-x,1/2-y,1/2-z
1/2+x,1/2+y,1/2-z
1/2-x,1/2+y,1/2+z
1/2+x,1/2-y,1/2+z
loop_
_atom_site_type_symbol
_atom_site_label
_atom_site_fract_x
_atom_site_fract_y
_atom_site_fract_z
Si Si1 0.310028 0.570751 0.664510
Si Si2 0.568121 0.573797 0.000000
Si Si3 0.391045 0.187359 0.099028
Si Si4 0.841375 0.793002 0.897383
Si Si5 0.181032 0.570490 0.398651
Si Si6 0.567022 0.728810 0.252761
Si Si7 0.639173 0.378035 0.168483
Si Si8 0.222225 0.774625 0.401778
O O1 0.323932 0.500000 0.623316
O O2 0.340313 0.630321 0.613864
O O3 0.238484 0.581665 0.664236
O O4 0.336380 0.568729 0.764558
O O5 0.609106 0.592715 0.917586
O O6 0.558539 0.500000 0.000000
O O7 0.500000 0.604221 0.000000
O O8 0.375209 0.115184 0.125146
O O9 0.431341 0.216826 0.176723
O O10 0.327961 0.221773 0.094723
O O11 0.421579 0.191990 0.000000
O O12 0.892183 0.758594 0.838962
O O13 0.780772 0.759468 0.861274
O O14 0.853521 0.778022 0.000000
O O15 0.202621 0.583161 0.500000
O O16 0.155812 0.500000 0.386599
O O17 0.500000 0.723794 0.288362
O O18 0.585903 0.662378 0.210907
O O19 0.697812 0.334181 0.153218
O O20 0.237481 0.799496 0.500000
#
# Coordination Sequence:
#
# PCOD8288243 Si02
#       8
#    16   8  16  16  16  16  16  16
#     4  10  19  29  47  74 103 131 162 199 244 297
#     4  11  22  36  52  68  96 142 180 206 244 293
#     4   9  17  29  48  73 103 131 160 200 245 301
#     4  10  20  33  52  73  99 130 166 207 256 302
#     4   9  16  27  45  72 105 135 160 189 236 304
#     4  10  22  34  49  72  97 129 169 211 252 297
#     4  10  20  33  50  70  99 128 168 211 248 294
#     4   9  16  29  48  73  95 124 160 203 255 302
#
# _framework density 16.907481000000001
#
# number of rings (size 3 to 8) (size 9 to 14) (size 15 to 20)
#    0.000    2.333    2.000    1.200    2.800    2.933 
#    0.000    0.000    0.000    4.000    0.000    5.600 
#    0.000    0.000    0.000    1.200    0.000    0.000 
#
# Total GULP energy -743384.003323 kJ/mol
# GULP energy per Si atom -12389.733389 kJ/mol
# Density = 1.686900 g / cm^3
# Si number density = 16.907481 Si / 1000 Ang^3
#
#
#
# Elastic Constant Matrix: (Units=GPa)
#
#
# Indices 1 2 3 4 5 6 
#
# 1 80.4565 26.0297 32.2059 0.0000 0.0000 0.0000
# 2 26.0297 72.4386 20.7096 0.0000 0.0000 0.0000
# 3 32.2059 20.7096 66.5321 0.0000 0.0000 0.0000
# 4 0.0000 0.0000 0.0000 19.2034 0.0000 0.0000
# 5 0.0000 0.0000 0.0000 0.0000 19.7623 0.0000
# 6 0.0000 0.0000 0.0000 0.0000 0.0000 12.0163
#
#
#
# Elastic Compliance Matrix: (Units=1/GPa)
#
#
# Indices 1 2 3 4 5 6 
#
# 1 0.016397 -0.003977 -0.006700 0.000000 0.000000 0.000000
# 2 -0.003977 0.016118 -0.003092 0.000000 0.000000 0.000000
# 3 -0.006700 -0.003092 0.019236 0.000000 0.000000 0.000000
# 4 0.000000 0.000000 0.000000 0.052074 0.000000 0.000000
# 5 0.000000 0.000000 0.000000 0.000000 0.050601 0.000000
# 6 0.000000 0.000000 0.000000 0.000000 0.000000 0.083220
#
#
# Mechanical properties :
#
#
# Convention : Reuss Voigt Hill
#
# Bulk Modulus (GPa) = 41.29790 41.92419 41.61104
# Shear Modulus (GPa) = 18.29794 19.56187 18.92990
#
# Velocity S-wave (km/s) = 3.29331 3.40515 3.34970
# Velocity P-wave (km/s) = 6.24019 6.34903 6.29485
#
# Compressibility (1/GPa) = 0.02421431
#
# Stress axis : x y z
#
# Youngs Moduli (GPa) = 60.98512 62.04331 51.98638
#
# Poissons Ratio (x) = 0.24674 0.34829
# Poissons Ratio (y) = 0.24253 0.16074
# Poissons Ratio (z) = 0.40857 0.19184
#
# Static dielectric constant tensor:
#      x y z
#    x 2.963820 0.000000 0.000000 
#    y 0.000000 3.313060 0.000000 
#    z 0.000000 0.000000 3.268090 
# 
# 
# High freq. dielectric constant tensor:
#      x y z
#    x 1.626410 0.000000 0.000000 
#    y 0.000000 1.646190 0.000000 
#    z 0.000000 0.000000 1.647700 
# 
# From -- ./inp_files/38404.got.cif
#   From: 2010.06.25/outbox.cif.g09.slc.cpg/sg71_20_cif.got.tgz:38404.got - 2010.06.28 04:59:45.
