data_PCOD8288728
_publ_section_title
;
Structure prediction by ZEFSAII (Michael W. Deem and Ramdas Pophale) SiO2 
 PCOD8288728
Probable space group: I M M M
;
_chemical_formula_sum "Si O2"
_cell_formula_units_Z 104
_cell_length_a 21.209071
_cell_length_b 14.535876
_cell_length_c 18.444398
_cell_angle_alpha 90.000000
_cell_angle_beta 90.000000
_cell_angle_gamma 90.000000
_cell_volume 5686.268208
_symmetry_space_group_name_H-M "I M M M"
_symmetry_group_IT_number 71
_symmetry_cell_setting 'orthorhombic'
loop_
_space_group_symop_operation_xyz
x,y,z
-x,-y,z
x,-y,-z
-x,y,-z
-x,-y,-z
x,y,-z
-x,y,z
x,-y,z
1/2+x,1/2+y,1/2+z
1/2-x,1/2-y,1/2+z
1/2+x,1/2-y,1/2-z
1/2-x,1/2+y,1/2-z
1/2-x,1/2-y,1/2-z
1/2+x,1/2+y,1/2-z
1/2-x,1/2+y,1/2+z
1/2+x,1/2-y,1/2+z
loop_
_atom_site_type_symbol
_atom_site_label
_atom_site_fract_x
_atom_site_fract_y
_atom_site_fract_z
Si Si1 0.620578 0.500000 0.915032
Si Si2 0.427212 0.695950 0.916989
Si Si3 0.429678 0.606033 0.294997
Si Si4 0.265687 0.000000 0.586408
Si Si5 0.500000 0.895675 0.414747
Si Si6 0.656989 0.264447 0.202847
Si Si7 0.903175 0.240563 0.084598
Si Si8 0.705142 0.179650 0.661264
O O1 0.585548 0.408030 0.887321
O O2 0.692814 0.500000 0.889909
O O3 0.615202 0.500000 0.000000
O O4 0.500000 0.720758 0.910595
O O5 0.388012 0.765232 0.864636
O O6 0.403817 0.707089 0.000000
O O7 0.500000 0.615562 0.260551
O O8 0.410371 0.500000 0.304166
O O9 0.377150 0.652683 0.244828
O O10 0.432150 0.653468 0.373936
O O11 0.302659 0.083266 0.622186
O O12 0.274224 0.000000 0.500000
O O13 0.500000 0.908127 0.500000
O O14 0.561274 0.835512 0.391698
O O15 0.500000 0.000000 0.380071
O O16 0.671363 0.181550 0.259122
O O17 0.721840 0.296703 0.167294
O O18 0.829936 0.248680 0.108060
O O19 0.910566 0.220843 0.000000
#
# Coordination Sequence:
#
# PCOD8288728 Si02
#       8
#     8  16  16   8   8  16  16  16
#     4   9  17  28  45  76 115 141 168 213 260 313
#     4  10  19  31  51  79 109 142 177 216 266 322
#     4  10  21  35  54  79 108 148 187 220 268 328
#     4  11  20  33  56  84 111 143 183 225 271 327
#     4   9  18  32  51  75 103 135 169 218 282 330
#     4  10  21  37  50  73 110 148 181 222 269 319
#     4  10  20  36  55  77 106 137 180 233 278 330
#     4  10  22  35  52  76 105 142 184 223 272 326
#
# _framework density 18.289674999999999
#
# number of rings (size 3 to 8) (size 9 to 14) (size 15 to 20)
#    0.000    2.077    2.308    1.154    3.231    1.846 
#    0.000    0.769    0.000    0.000    0.000    0.538 
#    0.000    1.231    0.000    0.000    0.000    0.000 
#
# Total GULP energy -644386.067169 kJ/mol
# GULP energy per Si atom -12392.039753 kJ/mol
# Density = 1.824805 g / cm^3
# Si number density = 18.289675 Si / 1000 Ang^3
#
#
#
# Elastic Constant Matrix: (Units=GPa)
#
#
# Indices 1 2 3 4 5 6 
#
# 1 106.9761 35.7349 50.5569 0.0000 0.0000 0.0000
# 2 35.7349 66.5761 30.4291 0.0000 0.0000 0.0000
# 3 50.5569 30.4291 100.4314 0.0000 0.0000 0.0000
# 4 0.0000 0.0000 0.0000 28.6219 0.0000 0.0000
# 5 0.0000 0.0000 0.0000 0.0000 33.5717 0.0000
# 6 0.0000 0.0000 0.0000 0.0000 0.0000 21.3894
#
#
#
# Elastic Compliance Matrix: (Units=1/GPa)
#
#
# Indices 1 2 3 4 5 6 
#
# 1 0.013467 -0.004794 -0.005327 0.000000 0.000000 0.000000
# 2 -0.004794 0.019141 -0.003386 0.000000 0.000000 0.000000
# 3 -0.005327 -0.003386 0.013664 0.000000 0.000000 0.000000
# 4 0.000000 0.000000 0.000000 0.034938 0.000000 0.000000
# 5 0.000000 0.000000 0.000000 0.000000 0.029787 0.000000
# 6 0.000000 0.000000 0.000000 0.000000 0.000000 0.046752
#
#
# Mechanical properties :
#
#
# Convention : Reuss Voigt Hill
#
# Bulk Modulus (GPa) = 51.92399 56.38061 54.15230
# Shear Modulus (GPa) = 26.15304 27.20079 26.67692
#
# Velocity S-wave (km/s) = 3.78555 3.86063 3.82328
# Velocity P-wave (km/s) = 6.89627 7.12503 7.01159
#
# Compressibility (1/GPa) = 0.01925892
#
# Stress axis : x y z
#
# Youngs Moduli (GPa) = 74.25815 52.24343 73.18247
#
# Poissons Ratio (x) = 0.25044 0.38982
# Poissons Ratio (y) = 0.35597 0.24782
# Poissons Ratio (z) = 0.39555 0.17692
#
# Static dielectric constant tensor:
#      x y z
#    x 3.530420 0.000000 0.000000 
#    y 0.000000 3.286970 0.000000 
#    z 0.000000 0.000000 3.552390 
# 
# 
# High freq. dielectric constant tensor:
#      x y z
#    x 1.724400 0.000000 0.000000 
#    y 0.000000 1.665310 0.000000 
#    z 0.000000 0.000000 1.714260 
# 
# From -- ./inp_files/55091.got.cif
#   From: 2010.06.25/outbox.cif.g09.slc.cpg/sg71_28_cif.got.tgz:55091.got - 2010.06.28 04:59:45.
