data_PCOD8288571
_publ_section_title
;
Structure prediction by ZEFSAII (Michael W. Deem and Ramdas Pophale) SiO2 
 PCOD8288571
Probable space group: I M M M
;
_chemical_formula_sum "Si O2"
_cell_formula_units_Z 80
_cell_length_a 14.205494
_cell_length_b 20.540057
_cell_length_c 15.076866
_cell_angle_alpha 90.000000
_cell_angle_beta 90.000000
_cell_angle_gamma 90.000000
_cell_volume 4399.152936
_symmetry_space_group_name_H-M "I M M M"
_symmetry_group_IT_number 71
_symmetry_cell_setting 'orthorhombic'
loop_
_space_group_symop_operation_xyz
x,y,z
-x,-y,z
x,-y,-z
-x,y,-z
-x,-y,-z
x,y,-z
-x,y,z
x,-y,z
1/2+x,1/2+y,1/2+z
1/2-x,1/2-y,1/2+z
1/2+x,1/2-y,1/2-z
1/2-x,1/2+y,1/2-z
1/2-x,1/2-y,1/2-z
1/2+x,1/2+y,1/2-z
1/2-x,1/2+y,1/2+z
1/2+x,1/2-y,1/2+z
loop_
_atom_site_type_symbol
_atom_site_label
_atom_site_fract_x
_atom_site_fract_y
_atom_site_fract_z
Si Si1 0.605296 0.138106 0.721658
Si Si2 0.296252 0.239005 0.600897
Si Si3 0.282953 0.500000 0.394588
Si Si4 0.104172 0.296701 0.597864
Si Si5 0.106417 0.127613 0.105238
Si Si6 0.392138 0.000000 0.773145
O O1 0.500000 0.157362 0.691878
O O2 0.675655 0.179556 0.662802
O O3 0.618966 0.149186 0.827160
O O4 0.625083 0.061771 0.708756
O O5 0.329205 0.225672 0.500000
O O6 0.183023 0.241209 0.608304
O O7 0.340881 0.306580 0.636840
O O8 0.275114 0.500000 0.500000
O O9 0.338695 0.563951 0.359610
O O10 0.178238 0.500000 0.355866
O O11 0.116640 0.329786 0.500000
O O12 0.000000 0.264718 0.606068
O O13 0.000000 0.127590 0.143302
O O14 0.104266 0.125494 0.000000
O O15 0.500000 0.000000 0.809689
#
# Coordination Sequence:
#
# PCOD8288571 Si02
#       6
#    16  16   8  16  16   8
#     4  10  20  34  51  71  99 132 165 207 253 294
#     4  10  19  32  53  78 101 129 167 209 250 293
#     4  10  19  31  48  70  98 132 164 196 240 294
#     4   9  18  32  50  75 105 133 162 197 241 297
#     4   9  17  29  46  71 102 131 159 194 240 296
#     4  10  22  36  48  66  94 129 167 207 251 295
#
# _framework density 18.185319
#
# number of rings (size 3 to 8) (size 9 to 14) (size 15 to 20)
#    0.000    2.400    0.000    2.700    0.000    5.000 
#    0.000    2.500    0.000    3.000    0.000    0.000 
#    0.000    3.200    0.000    0.000    0.000    1.400 
#
# Total GULP energy -495827.045427 kJ/mol
# GULP energy per Si atom -12395.676136 kJ/mol
# Density = 1.814393 g / cm^3
# Si number density = 18.185319 Si / 1000 Ang^3
#
#
#
# Elastic Constant Matrix: (Units=GPa)
#
#
# Indices 1 2 3 4 5 6 
#
# 1 131.5848 67.6166 38.6507 -0.0004 0.0000 0.0000
# 2 67.6166 133.4138 55.2644 0.0002 0.0000 0.0000
# 3 38.6507 55.2644 61.0924 -0.0009 0.0001 0.0001
# 4 -0.0004 0.0002 -0.0009 15.1730 0.0000 0.0000
# 5 0.0000 0.0000 0.0001 0.0000 23.7380 0.0000
# 6 0.0000 0.0000 0.0001 0.0000 0.0000 17.9224
#
#
#
# Elastic Compliance Matrix: (Units=1/GPa)
#
#
# Indices 1 2 3 4 5 6 
#
# 1 0.010599 -0.004149 -0.002953 0.000000 0.000000 0.000000
# 2 -0.004149 0.013611 -0.009688 -0.000001 0.000000 0.000000
# 3 -0.002953 -0.009688 0.027000 0.000002 0.000000 0.000000
# 4 0.000000 -0.000001 0.000002 0.065907 0.000000 0.000000
# 5 0.000000 0.000000 0.000000 0.000000 0.042127 0.000000
# 6 0.000000 0.000000 0.000000 0.000000 0.000000 0.055796
#
#
# Mechanical properties :
#
#
# Convention : Reuss Voigt Hill
#
# Bulk Modulus (GPa) = 56.71527 72.12827 64.42177
# Shear Modulus (GPa) = 19.64674 22.33731 20.99202
#
# Velocity S-wave (km/s) = 3.29045 3.50854 3.40124
# Velocity P-wave (km/s) = 6.75953 7.49414 7.13629
#
# Compressibility (1/GPa) = 0.01763193
#
# Stress axis : x y z
#
# Youngs Moduli (GPa) = 94.35094 73.46915 37.03638
#
# Poissons Ratio (x) = 0.30479 0.10935
# Poissons Ratio (y) = 0.39142 0.35881
# Poissons Ratio (z) = 0.27858 0.71177
#
# Static dielectric constant tensor:
#      x y z
#    x 3.670010 0.000000 0.000000 
#    y 0.000000 3.248790 0.000000 
#    z 0.000000 0.000000 3.047700 
# 
# 
# High freq. dielectric constant tensor:
#      x y z
#    x 1.724650 0.000000 0.000000 
#    y 0.000000 1.685630 0.000000 
#    z 0.000000 0.000000 1.667290 
# 
# From -- ./inp_files/44626.got.cif
#   From: 2010.06.25/outbox.cif.g09.slc.cpg/sg71_23_cif.got.tgz:44626.got - 2010.06.28 04:59:45.
