data_PCOD8288532
_publ_section_title
;
Structure prediction by ZEFSAII (Michael W. Deem and Ramdas Pophale) SiO2 
 PCOD8288532
Probable space group: I M M M
;
_chemical_formula_sum "Si O2"
_cell_formula_units_Z 88
_cell_length_a 24.903186
_cell_length_b 15.437800
_cell_length_c 13.757506
_cell_angle_alpha 90.000000
_cell_angle_beta 90.000000
_cell_angle_gamma 90.000000
_cell_volume 5289.078751
_symmetry_space_group_name_H-M "I M M M"
_symmetry_group_IT_number 71
_symmetry_cell_setting 'orthorhombic'
loop_
_space_group_symop_operation_xyz
x,y,z
-x,-y,z
x,-y,-z
-x,y,-z
-x,-y,-z
x,y,-z
-x,y,z
x,-y,z
1/2+x,1/2+y,1/2+z
1/2-x,1/2-y,1/2+z
1/2+x,1/2-y,1/2-z
1/2-x,1/2+y,1/2-z
1/2-x,1/2-y,1/2-z
1/2+x,1/2+y,1/2-z
1/2-x,1/2+y,1/2+z
1/2+x,1/2-y,1/2+z
loop_
_atom_site_type_symbol
_atom_site_label
_atom_site_fract_x
_atom_site_fract_y
_atom_site_fract_z
Si Si1 0.391483 0.900478 0.213093
Si Si2 0.716011 0.596061 0.192819
Si Si3 0.206278 0.168221 0.895235
Si Si4 0.500000 0.102240 0.889077
Si Si5 0.831454 0.650024 0.887238
Si Si6 0.676769 0.238719 0.894541
O O1 0.448815 0.866886 0.173820
O O2 0.382760 0.891161 0.329605
O O3 0.346962 0.838163 0.168414
O O4 0.382216 0.000000 0.180341
O O5 0.699246 0.500000 0.158495
O O6 0.709768 0.598411 0.310030
O O7 0.776989 0.613101 0.160741
O O8 0.672958 0.665050 0.151123
O O9 0.163711 0.245650 0.875154
O O10 0.260770 0.221692 0.904154
O O11 0.194173 0.122574 0.000000
O O12 0.500000 0.000000 0.897027
O O13 0.500000 0.140587 0.000000
O O14 0.834532 0.621750 0.000000
O O15 0.648466 0.239461 0.000000
#
# Coordination Sequence:
#
# PCOD8288532 Si02
#       6
#    16  16  16   8  16  16
#     4  11  20  33  52  72  95 124 161 202 244 289
#     4  11  19  30  46  69 103 134 163 196 233 278
#     4   9  17  30  46  67  98 129 162 203 235 271
#     4   9  20  36  51  71  96 120 152 201 255 295
#     4  10  19  32  49  68  97 134 165 194 235 285
#     4  10  19  31  47  68  95 127 164 197 231 282
#
# _framework density 16.638058000000001
#
# number of rings (size 3 to 8) (size 9 to 14) (size 15 to 20)
#    0.000    1.909    3.636    3.818    0.000    4.000 
#    0.000    2.273    0.000    1.636    0.000    0.636 
#    0.000    2.182    0.000    4.000    0.000    0.000 
#
# Total GULP energy -545113.372110 kJ/mol
# GULP energy per Si atom -12388.940275 kJ/mol
# Density = 1.660019 g / cm^3
# Si number density = 16.638058 Si / 1000 Ang^3
#
#
#
# Elastic Constant Matrix: (Units=GPa)
#
#
# Indices 1 2 3 4 5 6 
#
# 1 51.0179 22.6973 32.8706 0.0000 0.0000 0.0000
# 2 22.6973 76.6243 33.2405 0.0000 0.0000 0.0000
# 3 32.8706 33.2405 126.7237 0.0000 0.0000 0.0000
# 4 0.0000 0.0000 0.0000 16.9354 0.0000 0.0000
# 5 0.0000 0.0000 0.0000 0.0000 14.9317 0.0000
# 6 0.0000 0.0000 0.0000 0.0000 0.0000 12.5317
#
#
#
# Elastic Compliance Matrix: (Units=1/GPa)
#
#
# Indices 1 2 3 4 5 6 
#
# 1 0.025269 -0.005238 -0.005181 0.000000 0.000000 0.000000
# 2 -0.005238 0.015812 -0.002789 0.000000 0.000000 0.000000
# 3 -0.005181 -0.002789 0.009967 0.000000 0.000000 0.000000
# 4 0.000000 0.000000 0.000000 0.059048 0.000000 0.000000
# 5 0.000000 0.000000 0.000000 0.000000 0.066972 0.000000
# 6 0.000000 0.000000 0.000000 0.000000 0.000000 0.079798
#
#
# Mechanical properties :
#
#
# Convention : Reuss Voigt Hill
#
# Bulk Modulus (GPa) = 40.59593 47.99811 44.29702
# Shear Modulus (GPa) = 17.15324 19.91694 18.53509
#
# Velocity S-wave (km/s) = 3.21435 3.46363 3.34131
# Velocity P-wave (km/s) = 6.18292 6.70124 6.44729
#
# Compressibility (1/GPa) = 0.02463301
#
# Stress axis : x y z
#
# Youngs Moduli (GPa) = 39.57424 63.24282 100.33564
#
# Poissons Ratio (x) = 0.33124 0.51980
# Poissons Ratio (y) = 0.20728 0.27984
# Poissons Ratio (z) = 0.20502 0.17639
#
# Static dielectric constant tensor:
#      x y z
#    x 2.796910 0.000000 0.000000 
#    y 0.000000 3.003890 0.000000 
#    z 0.000000 0.000000 3.641690 
# 
# 
# High freq. dielectric constant tensor:
#      x y z
#    x 1.574030 0.000000 0.000000 
#    y 0.000000 1.628510 0.000000 
#    z 0.000000 0.000000 1.664930 
# 
# From -- ./inp_files/39118.got.cif
#   From: 2010.06.25/outbox.cif.g09.slc.cpg/sg71_20_cif.got.tgz:39118.got - 2010.06.28 04:59:45.
