data_PCOD8288649
_publ_section_title
;
Structure prediction by ZEFSAII (Michael W. Deem and Ramdas Pophale) SiO2 
 PCOD8288649
Probable space group: I M M M
;
_chemical_formula_sum "Si O2"
_cell_formula_units_Z 88
_cell_length_a 24.238897
_cell_length_b 24.720348
_cell_length_c 9.323563
_cell_angle_alpha 90.000000
_cell_angle_beta 90.000000
_cell_angle_gamma 90.000000
_cell_volume 5586.622719
_symmetry_space_group_name_H-M "I M M M"
_symmetry_group_IT_number 71
_symmetry_cell_setting 'orthorhombic'
loop_
_space_group_symop_operation_xyz
x,y,z
-x,-y,z
x,-y,-z
-x,y,-z
-x,-y,-z
x,y,-z
-x,y,z
x,-y,z
1/2+x,1/2+y,1/2+z
1/2-x,1/2-y,1/2+z
1/2+x,1/2-y,1/2-z
1/2-x,1/2+y,1/2-z
1/2-x,1/2-y,1/2-z
1/2+x,1/2+y,1/2-z
1/2-x,1/2+y,1/2+z
1/2+x,1/2-y,1/2+z
loop_
_atom_site_type_symbol
_atom_site_label
_atom_site_fract_x
_atom_site_fract_y
_atom_site_fract_z
Si Si1 0.217998 0.061415 0.837177
Si Si2 0.837130 0.249507 0.167308
Si Si3 0.388697 0.588923 0.165053
Si Si4 0.936205 0.207369 0.334633
Si Si5 0.938692 0.000000 0.152503
Si Si6 0.762734 0.673080 0.663014
O O1 0.171774 0.077487 0.724410
O O2 0.264529 0.107787 0.817295
O O3 0.239999 0.000000 0.806933
O O4 0.195208 0.065313 0.000000
O O5 0.897338 0.246040 0.240342
O O6 0.807445 0.302597 0.229643
O O7 0.798499 0.197029 0.198614
O O8 0.846876 0.258103 0.000000
O O9 0.410429 0.648758 0.187342
O O10 0.429886 0.552548 0.253637
O O11 0.389258 0.571861 0.000000
O O12 0.932826 0.225251 0.500000
O O13 0.000000 0.209551 0.281959
O O14 0.000000 0.000000 0.101577
O O15 0.904197 0.000000 0.000000
O O16 0.778112 0.689475 0.500000
#
# Coordination Sequence:
#
# PCOD8288649 Si02
#       6
#    16  16  16  16   8  16
#     4  10  19  32  50  70  96 127 161 199 240 285
#     4  10  19  31  50  73  94 122 161 202 243 288
#     4  11  21  32  47  66  89 120 160 202 243 283
#     4  10  21  35  49  67  95 128 160 199 246 292
#     4  11  23  35  45  57  79 117 163 207 246 281
#     4   9  18  32  49  70  96 126 159 197 243 290
#
# _framework density 15.751915
#
# number of rings (size 3 to 8) (size 9 to 14) (size 15 to 20)
#    0.000    1.909    2.727    1.909    0.000    4.000 
#    0.000    0.000    0.000    0.000    0.000    0.000 
#    0.000    0.727    0.000    8.364    0.000    2.364 
#
# Total GULP energy -545260.519617 kJ/mol
# GULP energy per Si atom -12392.284537 kJ/mol
# Density = 1.571606 g / cm^3
# Si number density = 15.751915 Si / 1000 Ang^3
#
#
#
# Elastic Constant Matrix: (Units=GPa)
#
#
# Indices 1 2 3 4 5 6 
#
# 1 66.8412 46.2660 51.0054 0.0000 0.0000 0.0000
# 2 46.2660 92.2333 48.3790 0.0000 0.0000 0.0000
# 3 51.0054 48.3790 94.2159 0.0000 0.0000 0.0000
# 4 0.0000 0.0000 0.0000 18.9951 0.0000 0.0000
# 5 0.0000 0.0000 0.0000 0.0000 26.5456 0.0000
# 6 0.0000 0.0000 0.0000 0.0000 0.0000 23.6483
#
#
#
# Elastic Compliance Matrix: (Units=1/GPa)
#
#
# Indices 1 2 3 4 5 6 
#
# 1 0.030077 -0.008960 -0.011682 0.000000 0.000000 0.000000
# 2 -0.008960 0.017508 -0.004140 0.000000 0.000000 0.000000
# 3 -0.011682 -0.004140 0.019064 0.000000 0.000000 0.000000
# 4 0.000000 0.000000 0.000000 0.052645 0.000000 0.000000
# 5 0.000000 0.000000 0.000000 0.000000 0.037671 0.000000
# 6 0.000000 0.000000 0.000000 0.000000 0.000000 0.042286
#
#
# Mechanical properties :
#
#
# Convention : Reuss Voigt Hill
#
# Bulk Modulus (GPa) = 58.52738 60.51013 59.51876
# Shear Modulus (GPa) = 19.64573 21.01380 20.32977
#
# Velocity S-wave (km/s) = 3.53540 3.65642 3.59642
# Velocity P-wave (km/s) = 7.34178 7.50492 7.42380
#
# Compressibility (1/GPa) = 0.01708602
#
# Stress axis : x y z
#
# Youngs Moduli (GPa) = 33.24831 57.11756 52.45555
#
# Poissons Ratio (x) = 0.51175 0.61278
# Poissons Ratio (y) = 0.29789 0.21715
# Poissons Ratio (z) = 0.38840 0.23645
#
# Static dielectric constant tensor:
#      x y z
#    x 2.789770 0.000000 0.000000 
#    y 0.000000 3.013200 0.000000 
#    z 0.000000 0.000000 3.123440 
# 
# 
# High freq. dielectric constant tensor:
#      x y z
#    x 1.570530 0.000000 0.000000 
#    y 0.000000 1.589910 0.000000 
#    z 0.000000 0.000000 1.620710 
# 
# From -- ./inp_files/10445.got.cif
#   From: 2010.06.25/outbox.cif.g09.slc.cpg/sg71_6_cif.got.tgz:10445.got - 2010.06.28 04:59:45.
