data_PCOD8288688
_publ_section_title
;
Structure prediction by ZEFSAII (Michael W. Deem and Ramdas Pophale) SiO2 
 PCOD8288688
Probable space group: I M M M
;
_chemical_formula_sum "Si O2"
_cell_formula_units_Z 104
_cell_length_a 9.035924
_cell_length_b 26.493644
_cell_length_c 22.437787
_cell_angle_alpha 90.000000
_cell_angle_beta 90.000000
_cell_angle_gamma 90.000000
_cell_volume 5371.484004
_symmetry_space_group_name_H-M "I M M M"
_symmetry_group_IT_number 71
_symmetry_cell_setting 'orthorhombic'
loop_
_space_group_symop_operation_xyz
x,y,z
-x,-y,z
x,-y,-z
-x,y,-z
-x,-y,-z
x,y,-z
-x,y,z
x,-y,z
1/2+x,1/2+y,1/2+z
1/2-x,1/2-y,1/2+z
1/2+x,1/2-y,1/2-z
1/2-x,1/2+y,1/2-z
1/2-x,1/2-y,1/2-z
1/2+x,1/2+y,1/2-z
1/2-x,1/2+y,1/2+z
1/2+x,1/2-y,1/2+z
loop_
_atom_site_type_symbol
_atom_site_label
_atom_site_fract_x
_atom_site_fract_y
_atom_site_fract_z
Si Si1 0.171472 0.686169 0.191721
Si Si2 0.337102 0.941822 0.230358
Si Si3 0.328375 0.208929 0.823561
Si Si4 0.330967 0.856267 0.934856
Si Si5 0.827604 0.942085 0.885376
Si Si6 0.324261 0.500000 0.067426
Si Si7 0.675512 0.588756 0.846167
O O1 0.233081 0.740727 0.176646
O O2 0.198593 0.675976 0.262895
O O3 0.251680 0.644271 0.150492
O O4 0.000000 0.685067 0.175268
O O5 0.500000 0.916006 0.240979
O O6 0.258895 0.919807 0.171963
O O7 0.227941 0.936218 0.285333
O O8 0.362615 0.000000 0.218347
O O9 0.500000 0.224239 0.827813
O O10 0.273653 0.180065 0.882465
O O11 0.500000 0.871903 0.922028
O O12 0.230917 0.906805 0.938391
O O13 0.316423 0.829854 0.000000
O O14 0.000000 0.934873 0.874032
O O15 0.790403 0.000000 0.900473
O O16 0.500000 0.500000 0.066901
O O17 0.270326 0.551302 0.100724
O O18 0.260580 0.500000 0.000000
O O19 0.500000 0.594561 0.846739
#
# Coordination Sequence:
#
# PCOD8288688 Si02
#       7
#    16  16  16  16  16   8  16
#     4  10  20  34  57  86 113 140 177 228 288 343
#     4  10  19  31  50  77 110 143 176 220 273 324
#     4   9  19  37  57  80 110 142 180 227 280 337
#     4  10  21  37  57  79 106 145 189 229 274 331
#     4  10  21  35  52  77 110 146 187 230 271 319
#     4   9  20  38  57  79 111 153 198 239 278 331
#     4  11  20  33  56  83 111 145 187 231 278 335
#
# _framework density 19.361502000000002
#
# number of rings (size 3 to 8) (size 9 to 14) (size 15 to 20)
#    0.000    2.077    0.769    2.769    0.000    4.615 
#    0.000    2.308    0.000    8.308    0.000    0.000 
#    0.000    0.000    0.000    0.000    0.000    0.000 
#
# Total GULP energy -644583.959208 kJ/mol
# GULP energy per Si atom -12395.845369 kJ/mol
# Density = 1.931743 g / cm^3
# Si number density = 19.361502 Si / 1000 Ang^3
#
#
#
# Elastic Constant Matrix: (Units=GPa)
#
#
# Indices 1 2 3 4 5 6 
#
# 1 83.2343 49.3421 32.6669 0.0000 0.0000 0.0000
# 2 49.3421 89.7894 57.1164 0.0000 0.0000 0.0000
# 3 32.6669 57.1164 113.1506 0.0002 0.0000 0.0000
# 4 0.0000 0.0000 0.0002 25.2325 0.0000 0.0000
# 5 0.0000 0.0000 0.0000 0.0000 21.6762 0.0000
# 6 0.0000 0.0000 0.0000 0.0000 0.0000 33.2648
#
#
#
# Elastic Compliance Matrix: (Units=1/GPa)
#
#
# Indices 1 2 3 4 5 6 
#
# 1 0.017826 -0.009607 -0.000297 0.000000 0.000000 0.000000
# 2 -0.009607 0.021582 -0.008121 0.000000 0.000000 0.000000
# 3 -0.000297 -0.008121 0.013023 0.000000 0.000000 0.000000
# 4 0.000000 0.000000 0.000000 0.039631 0.000000 0.000000
# 5 0.000000 0.000000 0.000000 0.000000 0.046134 0.000000
# 6 0.000000 0.000000 0.000000 0.000000 0.000000 0.030062
#
#
# Mechanical properties :
#
#
# Convention : Reuss Voigt Hill
#
# Bulk Modulus (GPa) = 61.04459 62.71390 61.87924
# Shear Modulus (GPa) = 23.83588 25.83795 24.83691
#
# Velocity S-wave (km/s) = 3.51251 3.65705 3.58550
# Velocity P-wave (km/s) = 6.93163 7.09178 7.01216
#
# Compressibility (1/GPa) = 0.01638147
#
# Stress axis : x y z
#
# Youngs Moduli (GPa) = 56.09797 46.33436 76.78887
#
# Poissons Ratio (x) = 0.44514 0.02280
# Poissons Ratio (y) = 0.53893 0.62358
# Poissons Ratio (z) = 0.01666 0.37627
#
# Static dielectric constant tensor:
#      x y z
#    x 3.547310 0.000000 0.000000 
#    y 0.000000 3.538220 0.000000 
#    z 0.000000 0.000000 3.557110 
# 
# 
# High freq. dielectric constant tensor:
#      x y z
#    x 1.753080 0.000000 0.000000 
#    y 0.000000 1.755800 0.000000 
#    z 0.000000 0.000000 1.736420 
# 
# From -- ./inp_files/50936.got.cif
#   From: 2010.06.25/outbox.cif.g09.slc.cpg/sg71_26_cif.got.tgz:50936.got - 2010.06.28 04:59:45.
