data_PCOD8288545
_publ_section_title
;
Structure prediction by ZEFSAII (Michael W. Deem and Ramdas Pophale) SiO2 
 PCOD8288545
Probable space group: I M M M
;
_chemical_formula_sum "Si O2"
_cell_formula_units_Z 88
_cell_length_a 31.203088
_cell_length_b 8.004509
_cell_length_c 18.629669
_cell_angle_alpha 90.000000
_cell_angle_beta 90.000000
_cell_angle_gamma 90.000000
_cell_volume 4653.046706
_symmetry_space_group_name_H-M "I M M M"
_symmetry_group_IT_number 71
_symmetry_cell_setting 'orthorhombic'
loop_
_space_group_symop_operation_xyz
x,y,z
-x,-y,z
x,-y,-z
-x,y,-z
-x,-y,-z
x,y,-z
-x,y,z
x,-y,z
1/2+x,1/2+y,1/2+z
1/2-x,1/2-y,1/2+z
1/2+x,1/2-y,1/2-z
1/2-x,1/2+y,1/2-z
1/2-x,1/2-y,1/2-z
1/2+x,1/2+y,1/2-z
1/2-x,1/2+y,1/2+z
1/2+x,1/2-y,1/2+z
loop_
_atom_site_type_symbol
_atom_site_label
_atom_site_fract_x
_atom_site_fract_y
_atom_site_fract_z
Si Si1 0.804482 0.500000 0.414781
Si Si2 0.953315 0.686397 0.691174
Si Si3 0.500000 0.692128 0.415337
Si Si4 0.162658 0.190875 0.919562
Si Si5 0.903008 0.500000 0.415476
Si Si6 0.747356 0.684131 0.914676
Si Si7 0.417419 0.807065 0.335796
O O1 0.800512 0.500000 0.500000
O O2 0.853876 0.500000 0.391610
O O3 0.782599 0.668210 0.382595
O O4 0.962292 0.500000 0.720817
O O5 0.925353 0.668281 0.617694
O O6 0.927620 0.772932 0.756653
O O7 0.000000 0.772774 0.676254
O O8 0.500000 0.500000 0.390367
O O9 0.500000 0.708126 0.500000
O O10 0.458308 0.784443 0.386131
O O11 0.203423 0.293410 0.889837
O O12 0.122633 0.207531 0.867104
O O13 0.177573 0.000000 0.922228
O O14 0.149831 0.251513 0.000000
O O15 0.910105 0.500000 0.500000
O O16 0.731507 0.500000 0.888623
O O17 0.745484 0.695622 0.000000
O O18 0.403952 0.000000 0.332378
#
# Coordination Sequence:
#
# PCOD8288545 Si02
#       7
#     8  16   8  16   8  16  16
#     4   9  16  29  50  83 114 137 174 223 284 342
#     4   8  16  31  50  76 105 137 169 213 265 336
#     4  11  23  35  47  69 103 144 190 238 275 307
#     4  10  19  31  47  73 108 145 194 242 267 303
#     4   9  17  30  57  88 108 132 165 218 281 337
#     4   9  16  28  48  75 109 147 183 224 277 328
#     4  11  20  32  50  71 101 143 180 226 274 319
#
# _framework density 18.912338999999999
#
# number of rings (size 3 to 8) (size 9 to 14) (size 15 to 20)
#    0.545    1.909    1.818    1.909    0.000    4.727 
#    0.000    0.000    0.000    3.273    0.000    0.000 
#    0.000    0.727    0.000    0.364    0.000    0.000 
#
# Total GULP energy -545153.187983 kJ/mol
# GULP energy per Si atom -12389.845181 kJ/mol
# Density = 1.886929 g / cm^3
# Si number density = 18.912339 Si / 1000 Ang^3
#
#
#
# Elastic Constant Matrix: (Units=GPa)
#
#
# Indices 1 2 3 4 5 6 
#
# 1 134.8817 38.5749 51.7353 0.0000 0.0000 0.0000
# 2 38.5749 77.7777 13.8510 0.0000 0.0000 0.0000
# 3 51.7353 13.8510 83.2120 0.0000 0.0000 0.0000
# 4 0.0000 0.0000 0.0000 7.8310 0.0000 0.0000
# 5 0.0000 0.0000 0.0000 0.0000 -9.5035 0.0000
# 6 0.0000 0.0000 0.0000 0.0000 0.0000 -28.2163
#
#
#
# Elastic Compliance Matrix: (Units=1/GPa)
#
#
# Indices 1 2 3 4 5 6 
#
# 1 0.011011 -0.004371 -0.006118 0.000000 0.000000 0.000000
# 2 -0.004371 0.014985 0.000223 0.000000 0.000000 0.000000
# 3 -0.006118 0.000223 0.015784 0.000000 0.000000 0.000000
# 4 0.000000 0.000000 0.000000 0.127697 0.000000 0.000000
# 5 0.000000 0.000000 0.000000 0.000000 -0.105224 0.000000
# 6 0.000000 0.000000 0.000000 0.000000 0.000000 -0.035441
#
#
# Mechanical properties :
#
#
# Convention : Reuss Voigt Hill
#
# Bulk Modulus (GPa) = 47.06280 56.02152 51.54216
# Shear Modulus (GPa) = 88.60906 6.80292 47.70599
#
# Velocity S-wave (km/s) = 6.85232 1.89866 5.02788
# Velocity P-wave (km/s) = 9.35651 5.87303 7.81143
#
# Compressibility (1/GPa) = 0.02124821
#
# Stress axis : x y z
#
# Youngs Moduli (GPa) = 90.82063 66.73157 63.35501
#
# Poissons Ratio (x) = 0.29171 0.38761
# Poissons Ratio (y) = 0.39701 -0.01416
# Poissons Ratio (z) = 0.55564 -0.01491
#
# Static dielectric constant tensor:
#      x y z
#    x 3.482490 0.000000 0.000000 
#    y 0.000000 3.366350 0.000000 
#    z 0.000000 0.000000 3.103090 
# 
# 
# High freq. dielectric constant tensor:
#      x y z
#    x 1.740760 0.000000 0.000000 
#    y 0.000000 1.713080 0.000000 
#    z 0.000000 0.000000 1.695180 
# 
# From -- ./inp_files/56608.got.cif
#   From: 2010.06.25/outbox.cif.g09.slc.cpg/sg71_29_cif.got.tgz:56608.got - 2010.06.28 04:59:45.
