data_PCOD8288936
_publ_section_title
;
Structure prediction by ZEFSAII (Michael W. Deem and Ramdas Pophale) SiO2 
 PCOD8288936
Probable space group: I M M M
;
_chemical_formula_sum "Si O2"
_cell_formula_units_Z 104
_cell_length_a 27.687649
_cell_length_b 8.161534
_cell_length_c 22.861185
_cell_angle_alpha 90.000000
_cell_angle_beta 90.000000
_cell_angle_gamma 90.000000
_cell_volume 5166.026302
_symmetry_space_group_name_H-M "I M M M"
_symmetry_group_IT_number 71
_symmetry_cell_setting 'orthorhombic'
loop_
_space_group_symop_operation_xyz
x,y,z
-x,-y,z
x,-y,-z
-x,y,-z
-x,-y,-z
x,y,-z
-x,y,z
x,-y,z
1/2+x,1/2+y,1/2+z
1/2-x,1/2-y,1/2+z
1/2+x,1/2-y,1/2-z
1/2-x,1/2+y,1/2-z
1/2-x,1/2-y,1/2-z
1/2+x,1/2+y,1/2-z
1/2-x,1/2+y,1/2+z
1/2+x,1/2-y,1/2+z
loop_
_atom_site_type_symbol
_atom_site_label
_atom_site_fract_x
_atom_site_fract_y
_atom_site_fract_z
Si Si1 0.445597 0.500000 0.430284
Si Si2 0.702116 0.808239 0.855121
Si Si3 0.446016 0.307109 0.171699
Si Si4 0.606637 0.819889 0.568203
Si Si5 0.114338 0.692350 0.565834
Si Si6 0.811492 0.804842 0.134856
Si Si7 0.140955 0.189039 0.746974
O O1 0.500000 0.500000 0.409165
O O2 0.439726 0.500000 0.500000
O O3 0.422780 0.667018 0.403349
O O4 0.668073 0.766193 0.910428
O O5 0.756252 0.746570 0.866848
O O6 0.684093 0.711058 0.798769
O O7 0.700851 0.000000 0.840492
O O8 0.500000 0.232033 0.179682
O O9 0.448254 0.500000 0.179910
O O10 0.426638 0.271329 0.106578
O O11 0.408677 0.231240 0.220275
O O12 0.596786 0.822661 0.500000
O O13 0.662975 0.782580 0.579981
O O14 0.591572 0.000000 0.593486
O O15 0.109862 0.763230 0.500000
O O16 0.105547 0.500000 0.565940
O O17 0.840702 0.736132 0.191723
O O18 0.814440 0.000000 0.129498
O O19 0.131083 0.000000 0.757269
#
# Coordination Sequence:
#
# PCOD8288936 Si02
#       7
#     8  16  16  16  16  16  16
#     4   9  18  36  60  80 104 140 176 216 266 316
#     4   9  18  31  49  73 100 138 178 218 266 321
#     4   9  18  33  51  70  96 132 170 212 266 318
#     4  10  21  36  55  82 113 143 180 224 270 325
#     4   9  18  32  48  70 100 131 171 217 261 313
#     4  10  19  32  52  76 107 142 180 217 268 327
#     4   9  18  32  50  72 101 132 176 225 266 320
#
# _framework density 20.131526999999998
#
# number of rings (size 3 to 8) (size 9 to 14) (size 15 to 20)
#    0.000    2.692    0.769    0.462    0.000    3.077 
#    0.000    5.385    0.000    0.000    0.000    0.000 
#    0.000    0.000    0.000    0.000    0.000    0.000 
#
# Total GULP energy -644393.555302 kJ/mol
# GULP energy per Si atom -12392.183756 kJ/mol
# Density = 2.008571 g / cm^3
# Si number density = 20.131527 Si / 1000 Ang^3
#
#
#
# Elastic Constant Matrix: (Units=GPa)
#
#
# Indices 1 2 3 4 5 6 
#
# 1 156.4804 43.9951 17.4738 0.0000 0.0000 0.0000
# 2 43.9951 63.9758 11.6474 0.0000 0.0000 0.0000
# 3 17.4738 11.6474 22.5382 0.0000 0.0000 0.0000
# 4 0.0000 0.0000 0.0000 19.6738 0.0000 0.0000
# 5 0.0000 0.0000 0.0000 0.0000 18.2429 0.0000
# 6 0.0000 0.0000 0.0000 0.0000 0.0000 20.3811
#
#
#
# Elastic Compliance Matrix: (Units=1/GPa)
#
#
# Indices 1 2 3 4 5 6 
#
# 1 0.008208 -0.004952 -0.003804 0.000000 0.000000 0.000000
# 2 -0.004952 0.020242 -0.006622 0.000000 0.000000 0.000000
# 3 -0.003804 -0.006622 0.050741 0.000000 0.000000 0.000000
# 4 0.000000 0.000000 0.000000 0.050829 0.000000 0.000000
# 5 0.000000 0.000000 0.000000 0.000000 0.054816 0.000000
# 6 0.000000 0.000000 0.000000 0.000000 0.000000 0.049065
#
#
# Mechanical properties :
#
#
# Convention : Reuss Voigt Hill
#
# Bulk Modulus (GPa) = 20.64637 43.24744 31.94690
# Shear Modulus (GPa) = 17.80628 22.98476 20.39552
#
# Velocity S-wave (km/s) = 2.97728 3.38261 3.18640
# Velocity P-wave (km/s) = 4.70073 6.06508 5.42596
#
# Compressibility (1/GPa) = 0.04843467
#
# Stress axis : x y z
#
# Youngs Moduli (GPa) = 121.83886 49.40333 19.70805
#
# Poissons Ratio (x) = 0.24462 0.07498
# Poissons Ratio (y) = 0.60330 0.13050
# Poissons Ratio (z) = 0.46352 0.32713
#
# Static dielectric constant tensor:
#      x y z
#    x 3.915140 0.000000 0.000000 
#    y 0.000000 3.662220 0.000000 
#    z 0.000000 0.000000 3.631230 
# 
# 
# High freq. dielectric constant tensor:
#      x y z
#    x 1.787210 0.000000 0.000000 
#    y 0.000000 1.772240 0.000000 
#    z 0.000000 0.000000 1.768060 
# 
# From -- ./inp_files/61978.got.cif
#   From: 2010.06.25/outbox.cif.g09.slc.cpg/sg71_31_cif.got.tgz:61978.got - 2010.06.28 04:59:45.
