data_PCOD8288354
_publ_section_title
;
Structure prediction by ZEFSAII (Michael W. Deem and Ramdas Pophale) SiO2 
 PCOD8288354
Probable space group: I M M M
;
_chemical_formula_sum "Si O2"
_cell_formula_units_Z 120
_cell_length_a 21.514350
_cell_length_b 24.554276
_cell_length_c 14.117492
_cell_angle_alpha 90.000000
_cell_angle_beta 90.000000
_cell_angle_gamma 90.000000
_cell_volume 7457.837445
_symmetry_space_group_name_H-M "I M M M"
_symmetry_group_IT_number 71
_symmetry_cell_setting 'orthorhombic'
loop_
_space_group_symop_operation_xyz
x,y,z
-x,-y,z
x,-y,-z
-x,y,-z
-x,-y,-z
x,y,-z
-x,y,z
x,-y,z
1/2+x,1/2+y,1/2+z
1/2-x,1/2-y,1/2+z
1/2+x,1/2-y,1/2-z
1/2-x,1/2+y,1/2-z
1/2-x,1/2-y,1/2-z
1/2+x,1/2+y,1/2-z
1/2-x,1/2+y,1/2+z
1/2+x,1/2-y,1/2+z
loop_
_atom_site_type_symbol
_atom_site_label
_atom_site_fract_x
_atom_site_fract_y
_atom_site_fract_z
Si Si1 0.216878 0.560332 0.107647
Si Si2 0.431312 0.205452 0.725126
Si Si3 0.778448 0.333409 0.394732
Si Si4 0.073398 0.500000 0.612004
Si Si5 0.181211 0.252179 0.888012
Si Si6 0.616679 0.741644 0.895434
Si Si7 0.717425 0.334545 0.889147
Si Si8 0.363026 0.096286 0.226924
O O1 0.244882 0.500000 0.118219
O O2 0.272757 0.601818 0.133402
O O3 0.158031 0.566971 0.176478
O O4 0.193378 0.571152 0.000000
O O5 0.500000 0.203971 0.679766
O O6 0.386093 0.240103 0.657877
O O7 0.436332 0.238020 0.824645
O O8 0.410020 0.143933 0.744260
O O9 0.769897 0.358206 0.500000
O O10 0.713141 0.305934 0.360367
O O11 0.829135 0.286197 0.398339
O O12 0.800862 0.381221 0.325109
O O13 0.087964 0.500000 0.500000
O O14 0.102419 0.445911 0.658229
O O15 0.000000 0.500000 0.631131
O O16 0.224068 0.301111 0.845847
O O17 0.173122 0.256444 0.000000
O O18 0.649999 0.686683 0.853984
O O19 0.587372 0.733279 0.000000
O O20 0.717760 0.321055 0.000000
#
# Coordination Sequence:
#
# PCOD8288354 Si02
#       8
#    16  16  16   8  16  16  16  16
#     4  10  19  30  46  70  97 121 148 189 238 279
#     4  11  22  30  43  66  92 125 161 192 226 276
#     4   8  16  29  48  71  89 110 149 198 246 287
#     4  11  24  40  53  65  89 129 171 207 239 276
#     4   9  17  30  46  66  92 119 150 191 236 284
#     4   8  16  29  45  65  88 112 145 186 231 284
#     4   8  14  27  47  67  86 114 147 183 231 281
#     4  11  20  33  51  68  90 122 164 205 239 272
#
# _framework density 16.090454999999999
#
# number of rings (size 3 to 8) (size 9 to 14) (size 15 to 20)
#    0.000    2.600    2.000    2.400    1.867    2.667 
#    0.000    0.000    0.000    1.600    0.000    0.000 
#    0.000    0.533    0.400    5.267    0.667   11.733 
#
# Total GULP energy -743521.100762 kJ/mol
# GULP energy per Si atom -12392.018346 kJ/mol
# Density = 1.605383 g / cm^3
# Si number density = 16.090455 Si / 1000 Ang^3
#
#
#
# Elastic Constant Matrix: (Units=GPa)
#
#
# Indices 1 2 3 4 5 6 
#
# 1 55.4237 39.2048 17.8151 0.0000 0.0000 0.0000
# 2 39.2048 87.8532 34.8670 0.0000 0.0000 0.0000
# 3 17.8151 34.8670 55.2426 0.0000 0.0000 0.0000
# 4 0.0000 0.0000 0.0000 21.6433 0.0000 0.0000
# 5 0.0000 0.0000 0.0000 0.0000 17.4961 0.0000
# 6 0.0000 0.0000 0.0000 0.0000 0.0000 17.3791
#
#
#
# Elastic Compliance Matrix: (Units=1/GPa)
#
#
# Indices 1 2 3 4 5 6 
#
# 1 0.026451 -0.011232 -0.001441 0.000000 0.000000 0.000000
# 2 -0.011232 0.019956 -0.008973 0.000000 0.000000 0.000000
# 3 -0.001441 -0.008973 0.024230 0.000000 0.000000 0.000000
# 4 0.000000 0.000000 0.000000 0.046204 0.000000 0.000000
# 5 0.000000 0.000000 0.000000 0.000000 0.057156 0.000000
# 6 0.000000 0.000000 0.000000 0.000000 0.000000 0.057540
#
#
# Mechanical properties :
#
#
# Convention : Reuss Voigt Hill
#
# Bulk Modulus (GPa) = 36.56987 42.47703 39.52345
# Shear Modulus (GPa) = 17.60901 18.41253 18.01077
#
# Velocity S-wave (km/s) = 3.31172 3.38644 3.34929
# Velocity P-wave (km/s) = 6.11558 6.46118 6.29076
#
# Compressibility (1/GPa) = 0.02734492
#
# Stress axis : x y z
#
# Youngs Moduli (GPa) = 37.80549 50.10941 41.27055
#
# Poissons Ratio (x) = 0.56283 0.05947
# Poissons Ratio (y) = 0.42463 0.37034
# Poissons Ratio (z) = 0.05448 0.44965
#
# Static dielectric constant tensor:
#      x y z
#    x 2.786910 0.000000 0.000000 
#    y 0.000000 3.059230 0.000000 
#    z 0.000000 0.000000 3.249580 
# 
# 
# High freq. dielectric constant tensor:
#      x y z
#    x 1.578490 0.000000 0.000000 
#    y 0.000000 1.601610 0.000000 
#    z 0.000000 0.000000 1.631390 
# 
# From -- ./inp_files/38535.got.cif
#   From: 2010.06.25/outbox.cif.g09.slc.cpg/sg71_20_cif.got.tgz:38535.got - 2010.06.28 04:59:45.
