data_PCOD8288558
_publ_section_title
;
Structure prediction by ZEFSAII (Michael W. Deem and Ramdas Pophale) SiO2 
 PCOD8288558
Probable space group: I M M M
;
_chemical_formula_sum "Si O2"
_cell_formula_units_Z 120
_cell_length_a 25.431441
_cell_length_b 27.732257
_cell_length_c 9.624353
_cell_angle_alpha 90.000000
_cell_angle_beta 90.000000
_cell_angle_gamma 90.000000
_cell_volume 6787.779545
_symmetry_space_group_name_H-M "I M M M"
_symmetry_group_IT_number 71
_symmetry_cell_setting 'orthorhombic'
loop_
_space_group_symop_operation_xyz
x,y,z
-x,-y,z
x,-y,-z
-x,y,-z
-x,-y,-z
x,y,-z
-x,y,z
x,-y,z
1/2+x,1/2+y,1/2+z
1/2-x,1/2-y,1/2+z
1/2+x,1/2-y,1/2-z
1/2-x,1/2+y,1/2-z
1/2-x,1/2-y,1/2-z
1/2+x,1/2+y,1/2-z
1/2-x,1/2+y,1/2+z
1/2+x,1/2-y,1/2+z
loop_
_atom_site_type_symbol
_atom_site_label
_atom_site_fract_x
_atom_site_fract_y
_atom_site_fract_z
Si Si1 0.940814 0.363317 0.157682
Si Si2 0.500000 0.557041 0.335869
Si Si3 0.646065 0.788284 0.339595
Si Si4 0.097592 0.095343 0.662183
Si Si5 0.850920 0.195638 0.343463
Si Si6 0.562550 0.947251 0.844088
Si Si7 0.260336 0.852387 0.340217
Si Si8 0.291334 0.553520 0.834637
O O1 0.909396 0.314365 0.178202
O O2 0.913743 0.406348 0.244699
O O3 0.000000 0.352648 0.208269
O O4 0.939499 0.381187 0.000000
O O5 0.500000 0.500000 0.311938
O O6 0.500000 0.569736 0.500000
O O7 0.550791 0.579760 0.262600
O O8 0.659451 0.777083 0.500000
O O9 0.638595 0.738371 0.262008
O O10 0.691488 0.822599 0.271632
O O11 0.083673 0.085268 0.500000
O O12 0.108752 0.152049 0.685217
O O13 0.148916 0.065265 0.709289
O O14 0.858643 0.214717 0.500000
O O15 0.791622 0.178743 0.321437
O O16 0.500000 0.947423 0.832574
O O17 0.583932 0.000000 0.799223
O O18 0.580590 0.935452 0.000000
O O19 0.275464 0.860029 0.500000
O O20 0.249240 0.905886 0.274338
O O21 0.275921 0.500000 0.780197
O O22 0.289098 0.556459 0.000000
#
# Coordination Sequence:
#
# PCOD8288558 Si02
#       8
#    16   8  16  16  16  16  16  16
#     4   9  18  31  44  62  92 126 159 192 228 279
#     4  11  23  35  49  75 109 139 167 201 240 285
#     4  10  19  31  48  69  95 128 163 199 246 297
#     4   9  18  33  52  73  97 128 168 209 245 290
#     4   9  18  33  52  73  95 119 157 208 253 290
#     4   8  14  26  45  66  85 109 146 190 231 270
#     4   8  15  28  46  70  97 121 152 200 247 291
#     4   8  13  24  46  73  97 123 157 199 249 297
#
# _framework density 17.678830999999999
#
# number of rings (size 3 to 8) (size 9 to 14) (size 15 to 20)
#    0.000    3.133    0.000    3.000    0.000    2.400 
#    1.200    2.000    0.000    3.200    0.000    0.000 
#    0.000    2.133    0.000    0.000    0.000    0.000 
#
# Total GULP energy -743550.980056 kJ/mol
# GULP energy per Si atom -12392.516334 kJ/mol
# Density = 1.763859 g / cm^3
# Si number density = 17.678831 Si / 1000 Ang^3
#
#
#
# Elastic Constant Matrix: (Units=GPa)
#
#
# Indices 1 2 3 4 5 6 
#
# 1 66.5399 42.1335 33.4847 0.0000 0.0000 0.0000
# 2 42.1335 135.1015 57.3748 0.0000 0.0000 0.0000
# 3 33.4847 57.3748 60.9971 0.0000 0.0000 0.0000
# 4 0.0000 0.0000 0.0000 29.4475 0.0000 0.0000
# 5 0.0000 0.0000 0.0000 0.0000 14.5953 0.0000
# 6 0.0000 0.0000 0.0000 0.0000 0.0000 11.2510
#
#
#
# Elastic Compliance Matrix: (Units=1/GPa)
#
#
# Indices 1 2 3 4 5 6 
#
# 1 0.021384 -0.002804 -0.009102 0.000000 0.000000 0.000000
# 2 -0.002804 0.012693 -0.010400 0.000000 0.000000 0.000000
# 3 -0.009102 -0.010400 0.031173 0.000000 0.000000 0.000000
# 4 0.000000 0.000000 0.000000 0.033959 0.000000 0.000000
# 5 0.000000 0.000000 0.000000 0.000000 0.068515 0.000000
# 6 0.000000 0.000000 0.000000 0.000000 0.000000 0.088881
#
#
# Mechanical properties :
#
#
# Convention : Reuss Voigt Hill
#
# Bulk Modulus (GPa) = 48.45148 58.73606 53.59377
# Shear Modulus (GPa) = 16.22871 19.70178 17.96525
#
# Velocity S-wave (km/s) = 3.03310 3.34193 3.19125
# Velocity P-wave (km/s) = 6.30335 6.94171 6.63022
#
# Compressibility (1/GPa) = 0.02063920
#
# Stress axis : x y z
#
# Youngs Moduli (GPa) = 46.76362 78.78430 32.07886
#
# Poissons Ratio (x) = 0.22088 0.29198
# Poissons Ratio (y) = 0.13111 0.33362
# Poissons Ratio (z) = 0.42563 0.81936
#
# Static dielectric constant tensor:
#      x y z
#    x 3.280930 0.000000 0.000000 
#    y 0.000000 3.499190 0.000000 
#    z 0.000000 0.000000 3.046890 
# 
# 
# High freq. dielectric constant tensor:
#      x y z
#    x 1.668140 0.000000 0.000000 
#    y 0.000000 1.693110 0.000000 
#    z 0.000000 0.000000 1.650330 
# 
# From -- ./inp_files/15613.got.cif
#   From: 2010.06.25/outbox.cif.g09.slc.cpg/sg71_8_cif.got.tgz:15613.got - 2010.06.28 04:59:45.
