data_PCOD8288372
_publ_section_title
;
Structure prediction by ZEFSAII (Michael W. Deem and Ramdas Pophale) SiO2 
 PCOD8288372
Probable space group: I M M M
;
_chemical_formula_sum "Si O2"
_cell_formula_units_Z 88
_cell_length_a 31.267435
_cell_length_b 16.162353
_cell_length_c 10.043501
_cell_angle_alpha 90.000000
_cell_angle_beta 90.000000
_cell_angle_gamma 90.000000
_cell_volume 5075.536681
_symmetry_space_group_name_H-M "I M M M"
_symmetry_group_IT_number 71
_symmetry_cell_setting 'orthorhombic'
loop_
_space_group_symop_operation_xyz
x,y,z
-x,-y,z
x,-y,-z
-x,y,-z
-x,-y,-z
x,y,-z
-x,y,z
x,-y,z
1/2+x,1/2+y,1/2+z
1/2-x,1/2-y,1/2+z
1/2+x,1/2-y,1/2-z
1/2-x,1/2+y,1/2-z
1/2-x,1/2-y,1/2-z
1/2+x,1/2+y,1/2-z
1/2-x,1/2+y,1/2+z
1/2+x,1/2-y,1/2+z
loop_
_atom_site_type_symbol
_atom_site_label
_atom_site_fract_x
_atom_site_fract_y
_atom_site_fract_z
Si Si1 0.095457 0.663595 0.156606
Si Si2 0.188909 0.705972 0.847208
Si Si3 0.589042 0.500000 0.341873
Si Si4 0.165598 0.000000 0.354594
Si Si5 0.782052 0.837978 0.647480
Si Si6 0.548035 0.326922 0.658008
Si Si7 0.951064 0.500000 0.158734
O O1 0.145842 0.656390 0.191871
O O2 0.076291 0.750201 0.214759
O O3 0.071881 0.582654 0.216754
O O4 0.087523 0.663902 0.000000
O O5 0.192456 0.785626 0.755262
O O6 0.231338 0.651513 0.821934
O O7 0.185148 0.735950 0.000000
O O8 0.596833 0.500000 0.500000
O O9 0.633858 0.500000 0.267930
O O10 0.564602 0.583058 0.294534
O O11 0.198038 0.926196 0.343312
O O12 0.142080 0.000000 0.500000
O O13 0.787757 0.798259 0.500000
O O14 0.548680 0.325467 0.500000
O O15 0.500000 0.315420 0.712336
O O16 0.000000 0.500000 0.207498
O O17 0.948259 0.500000 0.000000
#
# Coordination Sequence:
#
# PCOD8288372 Si02
#       7
#    16  16   8   8  16  16   8
#     4   9  16  25  40  62  88 118 150 183 221 267
#     4   9  17  30  47  67  90 116 148 186 224 262
#     4  10  19  30  47  69  91 118 154 191 223 261
#     4  10  20  32  45  64  91 123 153 182 223 270
#     4   9  18  31  46  64  90 122 152 183 222 268
#     4   9  16  26  41  63  90 117 146 183 226 269
#     4   9  16  25  37  58  91 124 147 175 224 277
#
# _framework density 17.338068
#
# number of rings (size 3 to 8) (size 9 to 14) (size 15 to 20)
#    0.000    2.818    0.000    1.909    0.000    6.182 
#    0.000    3.636    0.000    1.091    0.000    1.909 
#    0.000    2.909    0.000    0.000    0.000    0.182 
#
# Total GULP energy -545248.239530 kJ/mol
# GULP energy per Si atom -12392.005444 kJ/mol
# Density = 1.729861 g / cm^3
# Si number density = 17.338068 Si / 1000 Ang^3
#
#
#
# Elastic Constant Matrix: (Units=GPa)
#
#
# Indices 1 2 3 4 5 6 
#
# 1 121.9871 69.0736 32.8704 0.0000 0.0000 0.0000
# 2 69.0736 123.5041 22.7183 0.0000 0.0000 0.0000
# 3 32.8704 22.7183 34.0279 0.0000 0.0000 0.0000
# 4 0.0000 0.0000 0.0000 12.4226 0.0000 0.0000
# 5 0.0000 0.0000 0.0000 0.0000 15.7294 0.0000
# 6 0.0000 0.0000 0.0000 0.0000 0.0000 -19.3576
#
#
#
# Elastic Compliance Matrix: (Units=1/GPa)
#
#
# Indices 1 2 3 4 5 6 
#
# 1 0.014340 -0.006238 -0.009688 0.000000 0.000000 0.000000
# 2 -0.006238 0.011944 -0.001948 0.000000 0.000000 0.000000
# 3 -0.009688 -0.001948 0.040046 0.000000 0.000000 0.000000
# 4 0.000000 0.000000 0.000000 0.080498 0.000000 0.000000
# 5 0.000000 0.000000 0.000000 0.000000 0.063575 0.000000
# 6 0.000000 0.000000 0.000000 0.000000 0.000000 -0.051659
#
#
# Mechanical properties :
#
#
# Convention : Reuss Voigt Hill
#
# Bulk Modulus (GPa) = 32.69835 58.76042 45.72938
# Shear Modulus (GPa) = 24.42746 12.08269 18.25507
#
# Velocity S-wave (km/s) = 3.75759 2.64273 3.24835
# Velocity P-wave (km/s) = 6.14217 6.57849 6.36407
#
# Compressibility (1/GPa) = 0.03058258
#
# Stress axis : x y z
#
# Youngs Moduli (GPa) = 69.73337 83.72233 24.97098
#
# Poissons Ratio (x) = 0.52228 0.24191
# Poissons Ratio (y) = 0.43502 0.04865
# Poissons Ratio (z) = 0.67555 0.16312
#
# Static dielectric constant tensor:
#      x y z
#    x 3.413540 0.000000 0.000000 
#    y 0.000000 3.393140 0.000000 
#    z 0.000000 0.000000 2.947700 
# 
# 
# High freq. dielectric constant tensor:
#      x y z
#    x 1.685030 0.000000 0.000000 
#    y 0.000000 1.670880 0.000000 
#    z 0.000000 0.000000 1.613440 
# 
# From -- ./inp_files/16759.got.cif
#   From: 2010.06.25/outbox.cif.g09.slc.cpg/sg71_9_cif.got.tgz:16759.got - 2010.06.28 04:59:45.
