data_PCOD8288718
_publ_section_title
;
Structure prediction by ZEFSAII (Michael W. Deem and Ramdas Pophale) SiO2 
 PCOD8288718
Probable space group: I M M M
;
_chemical_formula_sum "Si O2"
_cell_formula_units_Z 104
_cell_length_a 17.951975
_cell_length_b 9.322814
_cell_length_c 33.945545
_cell_angle_alpha 90.000000
_cell_angle_beta 90.000000
_cell_angle_gamma 90.000000
_cell_volume 5681.225663
_symmetry_space_group_name_H-M "I M M M"
_symmetry_group_IT_number 71
_symmetry_cell_setting 'orthorhombic'
loop_
_space_group_symop_operation_xyz
x,y,z
-x,-y,z
x,-y,-z
-x,y,-z
-x,-y,-z
x,y,-z
-x,y,z
x,-y,z
1/2+x,1/2+y,1/2+z
1/2-x,1/2-y,1/2+z
1/2+x,1/2-y,1/2-z
1/2-x,1/2+y,1/2-z
1/2-x,1/2-y,1/2-z
1/2+x,1/2+y,1/2-z
1/2-x,1/2+y,1/2+z
1/2+x,1/2-y,1/2+z
loop_
_atom_site_type_symbol
_atom_site_label
_atom_site_fract_x
_atom_site_fract_y
_atom_site_fract_z
Si Si1 0.416986 0.829587 0.255464
Si Si2 0.684570 0.832177 0.673398
Si Si3 0.000000 0.328835 0.044874
Si Si4 0.585640 0.832480 0.905296
Si Si5 0.146858 0.667604 0.913892
Si Si6 0.161643 0.668380 0.676186
Si Si7 0.296058 0.332597 0.953966
O O1 0.500000 0.765361 0.259510
O O2 0.367500 0.772840 0.291712
O O3 0.382147 0.776060 0.214523
O O4 0.420674 0.000000 0.256390
O O5 0.642634 0.800554 0.632491
O O6 0.761176 0.749241 0.674025
O O7 0.701754 0.000000 0.678371
O O8 0.926517 0.264460 0.066026
O O9 0.000000 0.500000 0.047986
O O10 0.000000 0.276557 0.000000
O O11 0.500000 0.786573 0.909325
O O12 0.612484 0.791598 0.861583
O O13 0.631501 0.747403 0.937995
O O14 0.596559 0.000000 0.913280
O O15 0.147653 0.500000 0.923224
O O16 0.222506 0.731991 0.932667
O O17 0.177831 0.500000 0.678734
O O18 0.305696 0.500000 0.944487
O O19 0.288081 0.302858 0.000000
#
# Coordination Sequence:
#
# PCOD8288718 Si02
#       7
#    16  16   8  16  16  16  16
#     4   9  18  31  50  77 105 132 166 209 254 300
#     4  10  19  31  51  77 104 132 165 209 256 301
#     4   9  16  26  44  72 105 139 173 209 251 301
#     4  10  21  36  54  75 100 133 175 218 256 300
#     4   9  17  29  47  74 106 136 167 207 253 301
#     4  10  19  34  54  74  99 135 173 208 250 303
#     4  10  20  35  54  76 105 137 167 206 261 317
#
# _framework density 18.305910000000001
#
# number of rings (size 3 to 8) (size 9 to 14) (size 15 to 20)
#    0.000    2.385    1.538    1.385    1.077    4.615 
#    0.000    1.538    0.000    2.769    0.000    1.615 
#    0.000    3.692    0.000    0.000    0.000    0.000 
#
# Total GULP energy -644856.294841 kJ/mol
# GULP energy per Si atom -12401.082593 kJ/mol
# Density = 1.826425 g / cm^3
# Si number density = 18.305910 Si / 1000 Ang^3
#
#
#
# Elastic Constant Matrix: (Units=GPa)
#
#
# Indices 1 2 3 4 5 6 
#
# 1 144.3673 29.4487 41.7676 0.0000 0.0000 0.0000
# 2 29.4487 20.4910 21.4088 0.0000 0.0000 0.0000
# 3 41.7676 21.4088 85.9254 0.0000 0.0000 0.0000
# 4 0.0000 0.0000 0.0000 19.6763 0.0000 0.0000
# 5 0.0000 0.0000 0.0000 0.0000 38.9290 0.0000
# 6 0.0000 0.0000 0.0000 0.0000 0.0000 20.7760
#
#
#
# Elastic Compliance Matrix: (Units=1/GPa)
#
#
# Indices 1 2 3 4 5 6 
#
# 1 0.009986 -0.012546 -0.001728 0.000000 0.000000 0.000000
# 2 -0.012546 0.081738 -0.014267 0.000000 0.000000 0.000000
# 3 -0.001728 -0.014267 0.016033 0.000000 0.000000 0.000000
# 4 0.000000 0.000000 0.000000 0.050822 0.000000 0.000000
# 5 0.000000 0.000000 0.000000 0.000000 0.025688 0.000000
# 6 0.000000 0.000000 0.000000 0.000000 0.000000 0.048133
#
#
# Mechanical properties :
#
#
# Convention : Reuss Voigt Hill
#
# Bulk Modulus (GPa) = 19.73373 48.44821 34.09097
# Shear Modulus (GPa) = 16.31999 26.42018 21.37008
#
# Velocity S-wave (km/s) = 2.98906 3.80315 3.42041
# Velocity P-wave (km/s) = 4.76614 6.76820 5.85340
#
# Compressibility (1/GPa) = 0.05067467
#
# Stress axis : x y z
#
# Youngs Moduli (GPa) = 100.14140 12.23423 62.37196
#
# Poissons Ratio (x) = 0.15348 0.10780
# Poissons Ratio (y) = 1.25633 0.88987
# Poissons Ratio (z) = 0.17307 0.17455
#
# Static dielectric constant tensor:
#      x y z
#    x 3.695860 0.000000 0.000000 
#    y 0.000000 2.919490 0.000000 
#    z 0.000000 0.000000 3.686830 
# 
# 
# High freq. dielectric constant tensor:
#      x y z
#    x 1.724240 0.000000 0.000000 
#    y 0.000000 1.656140 0.000000 
#    z 0.000000 0.000000 1.727190 
# 
# From -- ./inp_files/70497.got.cif
#   From: 2010.06.25/outbox.cif.g09.slc.cpg/sg71_36_cif.got.tgz:70497.got - 2010.06.28 04:59:45.
