data_PCOD8288609
_publ_section_title
;
Structure prediction by ZEFSAII (Michael W. Deem and Ramdas Pophale) SiO2 
 PCOD8288609
Probable space group: I M M M
;
_chemical_formula_sum "Si O2"
_cell_formula_units_Z 104
_cell_length_a 20.617908
_cell_length_b 31.988726
_cell_length_c 9.027552
_cell_angle_alpha 90.000000
_cell_angle_beta 90.000000
_cell_angle_gamma 90.000000
_cell_volume 5954.037150
_symmetry_space_group_name_H-M "I M M M"
_symmetry_group_IT_number 71
_symmetry_cell_setting 'orthorhombic'
loop_
_space_group_symop_operation_xyz
x,y,z
-x,-y,z
x,-y,-z
-x,y,-z
-x,-y,-z
x,y,-z
-x,y,z
x,-y,z
1/2+x,1/2+y,1/2+z
1/2-x,1/2-y,1/2+z
1/2+x,1/2-y,1/2-z
1/2-x,1/2+y,1/2-z
1/2-x,1/2-y,1/2-z
1/2+x,1/2+y,1/2-z
1/2-x,1/2+y,1/2+z
1/2+x,1/2-y,1/2+z
loop_
_atom_site_type_symbol
_atom_site_label
_atom_site_fract_x
_atom_site_fract_y
_atom_site_fract_z
Si Si1 0.741932 0.451972 0.325695
Si Si2 0.730395 0.812539 0.166602
Si Si3 0.349573 0.750420 0.665873
Si Si4 0.573745 0.683732 0.171423
Si Si5 0.500000 0.950055 0.832488
Si Si6 0.873533 0.450510 0.166265
Si Si7 0.186308 0.122173 0.674589
O O1 0.744240 0.444762 0.500000
O O2 0.726158 0.500000 0.286202
O O3 0.810337 0.437416 0.257944
O O4 0.686132 0.423306 0.252263
O O5 0.666543 0.792098 0.240566
O O6 0.787074 0.778784 0.163427
O O7 0.752434 0.851908 0.264040
O O8 0.713553 0.827262 0.000000
O O9 0.369414 0.763577 0.500000
O O10 0.409184 0.725586 0.738962
O O11 0.500000 0.670693 0.205335
O O12 0.619096 0.644871 0.218599
O O13 0.585227 0.694311 0.000000
O O14 0.436727 0.932285 0.748666
O O15 0.500000 0.000000 0.832952
O O16 0.500000 0.932961 0.000000
O O17 0.879300 0.500000 0.159344
O O18 0.869342 0.432010 0.000000
O O19 0.193703 0.116805 0.500000
#
# Coordination Sequence:
#
# PCOD8288609 Si02
#       7
#    16  16  16  16   8  16  16
#     4  10  20  33  48  67  93 125 163 209 261 312
#     4   9  16  27  44  67  96 126 154 187 230 280
#     4   9  16  26  43  69  98 125 155 190 228 274
#     4   9  18  32  49  71 100 132 165 202 247 298
#     4   9  15  23  37  59  87 115 141 173 219 273
#     4   9  16  26  41  62  87 114 147 188 233 281
#     4  10  19  31  49  72  97 126 163 208 254 298
#
# _framework density 17.467141000000002
#
# number of rings (size 3 to 8) (size 9 to 14) (size 15 to 20)
#    0.000    2.692    0.000    2.538    0.000    8.308 
#    0.000    0.000    0.000    0.462    2.000    3.231 
#    0.000    0.000    0.000    0.000    0.000    0.000 
#
# Total GULP energy -644740.878350 kJ/mol
# GULP energy per Si atom -12398.863045 kJ/mol
# Density = 1.742739 g / cm^3
# Si number density = 17.467141 Si / 1000 Ang^3
#
#
#
# Elastic Constant Matrix: (Units=GPa)
#
#
# Indices 1 2 3 4 5 6 
#
# 1 88.0922 44.6023 48.5320 0.0000 0.0001 0.0000
# 2 44.6023 70.4812 44.9578 0.0000 -0.0001 0.0000
# 3 48.5320 44.9578 122.7731 -0.0011 -0.0001 0.0002
# 4 0.0000 0.0000 -0.0011 27.6465 -0.0002 -0.0001
# 5 0.0001 -0.0001 -0.0001 -0.0002 24.5740 0.0000
# 6 0.0000 0.0000 0.0002 -0.0001 0.0000 17.6595
#
#
#
# Elastic Compliance Matrix: (Units=1/GPa)
#
#
# Indices 1 2 3 4 5 6 
#
# 1 0.017992 -0.008936 -0.003840 0.000000 0.000000 0.000000
# 2 -0.008936 0.022951 -0.004872 0.000000 0.000000 0.000000
# 3 -0.003840 -0.004872 0.011447 0.000000 0.000000 0.000000
# 4 0.000000 0.000000 0.000000 0.036171 0.000000 0.000000
# 5 0.000000 0.000000 0.000000 0.000000 0.040693 0.000000
# 6 0.000000 0.000000 0.000000 0.000000 0.000000 0.056627
#
#
# Mechanical properties :
#
#
# Convention : Reuss Voigt Hill
#
# Bulk Modulus (GPa) = 58.50071 61.94786 60.22428
# Shear Modulus (GPa) = 22.03863 23.52630 22.78246
#
# Velocity S-wave (km/s) = 3.55592 3.67398 3.61543
# Velocity P-wave (km/s) = 7.10099 7.31709 7.20985
#
# Compressibility (1/GPa) = 0.01709381
#
# Stress axis : x y z
#
# Youngs Moduli (GPa) = 55.58098 43.57127 87.35978
#
# Poissons Ratio (x) = 0.38937 0.33544
# Poissons Ratio (y) = 0.49669 0.42560
# Poissons Ratio (z) = 0.21342 0.21227
#
# Static dielectric constant tensor:
#      x y z
#    x 3.073800 0.000000 0.000000 
#    y 0.000000 3.030300 0.000000 
#    z 0.000000 0.000000 3.461350 
# 
# 
# High freq. dielectric constant tensor:
#      x y z
#    x 1.645850 0.000000 0.000000 
#    y 0.000000 1.642370 0.000000 
#    z 0.000000 0.000000 1.693870 
# 
# From -- ./inp_files/11501.got.cif
#   From: 2010.06.25/outbox.cif.g09.slc.cpg/sg71_6_cif.got.tgz:11501.got - 2010.06.28 04:59:45.
