data_PCOD8288265
_publ_section_title
;
Structure prediction by ZEFSAII (Michael W. Deem and Ramdas Pophale) SiO2 
 PCOD8288265
Probable space group: I M M M
;
_chemical_formula_sum "Si O2"
_cell_formula_units_Z 120
_cell_length_a 21.184740
_cell_length_b 30.585184
_cell_length_c 12.442646
_cell_angle_alpha 90.000000
_cell_angle_beta 90.000000
_cell_angle_gamma 90.000000
_cell_volume 8062.077733
_symmetry_space_group_name_H-M "I M M M"
_symmetry_group_IT_number 71
_symmetry_cell_setting 'orthorhombic'
loop_
_space_group_symop_operation_xyz
x,y,z
-x,-y,z
x,-y,-z
-x,y,-z
-x,-y,-z
x,y,-z
-x,y,z
x,-y,z
1/2+x,1/2+y,1/2+z
1/2-x,1/2-y,1/2+z
1/2+x,1/2-y,1/2-z
1/2-x,1/2+y,1/2-z
1/2-x,1/2-y,1/2-z
1/2+x,1/2+y,1/2-z
1/2-x,1/2+y,1/2+z
1/2+x,1/2-y,1/2+z
loop_
_atom_site_type_symbol
_atom_site_label
_atom_site_fract_x
_atom_site_fract_y
_atom_site_fract_z
Si Si1 0.824291 0.048841 0.877116
Si Si2 0.182876 0.694638 0.240095
Si Si3 0.574543 0.549522 0.000000
Si Si4 0.572071 0.236916 0.624133
Si Si5 0.572874 0.584959 0.228118
Si Si6 0.202120 0.222939 0.622689
Si Si7 0.750377 0.131758 0.123162
Si Si8 0.373576 0.675349 0.707966
O O1 0.886656 0.054272 0.805932
O O2 0.768469 0.082158 0.843588
O O3 0.797573 0.000000 0.862359
O O4 0.844253 0.058303 0.000000
O O5 0.112250 0.703307 0.198082
O O6 0.204129 0.728173 0.332368
O O7 0.229548 0.700503 0.138688
O O8 0.193731 0.647422 0.297095
O O9 0.596745 0.576137 0.105998
O O10 0.602781 0.500000 0.000000
O O11 0.500000 0.546368 0.000000
O O12 0.582898 0.225110 0.500000
O O13 0.500000 0.229673 0.658394
O O14 0.589794 0.287627 0.641403
O O15 0.500000 0.571634 0.241010
O O16 0.580925 0.635193 0.263616
O O17 0.183794 0.224885 0.500000
O O18 0.147808 0.195044 0.678930
O O19 0.812899 0.161287 0.138476
O O20 0.727553 0.134675 0.000000
#
# Coordination Sequence:
#
# PCOD8288265 Si02
#       8
#    16  16   8  16  16  16  16  16
#     4   9  18  31  46  66  89 110 137 178 227 272
#     4   9  17  27  41  62  82 106 142 174 203 252
#     4   9  18  30  42  54  70 104 152 194 229 265
#     4  10  19  30  44  61  87 119 144 173 212 253
#     4  10  19  30  43  59  82 115 155 192 223 260
#     4   9  16  25  40  58  79 106 135 175 218 246
#     4   9  16  28  46  64  84 111 141 177 218 254
#     4   9  18  28  41  61  84 109 147 185 215 251
#
# _framework density 14.884499999999999
#
# number of rings (size 3 to 8) (size 9 to 14) (size 15 to 20)
#    0.000    2.733    0.000    2.800    0.933    1.600 
#    0.000    0.667    0.000    7.200    0.000    0.000 
#    0.000    0.533    0.000    4.800    0.000    0.000 
#
# Total GULP energy -743793.351918 kJ/mol
# GULP energy per Si atom -12396.555865 kJ/mol
# Density = 1.485062 g / cm^3
# Si number density = 14.884500 Si / 1000 Ang^3
#
#
#
# Elastic Constant Matrix: (Units=GPa)
#
#
# Indices 1 2 3 4 5 6 
#
# 1 67.8217 37.4619 30.4091 0.0000 0.0000 0.0000
# 2 37.4619 83.7230 34.4681 0.0000 0.0000 0.0000
# 3 30.4091 34.4681 72.8306 0.0000 0.0000 0.0000
# 4 0.0000 0.0000 0.0000 19.7466 0.0000 0.0000
# 5 0.0000 0.0000 0.0000 0.0000 19.5965 0.0000
# 6 0.0000 0.0000 0.0000 0.0000 0.0000 15.8002
#
#
#
# Elastic Compliance Matrix: (Units=1/GPa)
#
#
# Indices 1 2 3 4 5 6 
#
# 1 0.021173 -0.007246 -0.005411 0.000000 0.000000 0.000000
# 2 -0.007246 0.017314 -0.005169 0.000000 0.000000 0.000000
# 3 -0.005411 -0.005169 0.018436 0.000000 0.000000 0.000000
# 4 0.000000 0.000000 0.000000 0.050642 0.000000 0.000000
# 5 0.000000 0.000000 0.000000 0.000000 0.051030 0.000000
# 6 0.000000 0.000000 0.000000 0.000000 0.000000 0.063291
#
#
# Mechanical properties :
#
#
# Convention : Reuss Voigt Hill
#
# Bulk Modulus (GPa) = 47.01146 47.67261 47.34204
# Shear Modulus (GPa) = 18.89444 19.16439 19.02942
#
# Velocity S-wave (km/s) = 3.56673 3.59212 3.57945
# Velocity P-wave (km/s) = 6.97244 7.02156 6.99704
#
# Compressibility (1/GPa) = 0.02127141
#
# Stress axis : x y z
#
# Youngs Moduli (GPa) = 47.22940 57.75539 54.24178
#
# Poissons Ratio (x) = 0.41851 0.29351
# Poissons Ratio (y) = 0.34224 0.28036
# Poissons Ratio (z) = 0.25556 0.29852
#
# Static dielectric constant tensor:
#      x y z
#    x 2.657500 0.000000 0.000000 
#    y 0.000000 2.973160 0.000000 
#    z 0.000000 0.000000 2.914510 
# 
# 
# High freq. dielectric constant tensor:
#      x y z
#    x 1.533880 0.000000 0.000000 
#    y 0.000000 1.556890 0.000000 
#    z 0.000000 0.000000 1.577300 
# 
# From -- ./inp_files/28087.got.cif
#   From: 2010.06.25/outbox.cif.g09.slc.cpg/sg71_15_cif.got.tgz:28087.got - 2010.06.28 04:59:45.
