data_PCOD8288188
_publ_section_title
;
Structure prediction by ZEFSAII (Michael W. Deem and Ramdas Pophale) SiO2 
 PCOD8288188
Probable space group: I M M M
;
_chemical_formula_sum "Si O2"
_cell_formula_units_Z 56
_cell_length_a 13.688827
_cell_length_b 29.269210
_cell_length_c 9.064632
_cell_angle_alpha 90.000000
_cell_angle_beta 90.000000
_cell_angle_gamma 90.000000
_cell_volume 3631.845901
_symmetry_space_group_name_H-M "I M M M"
_symmetry_group_IT_number 71
_symmetry_cell_setting 'orthorhombic'
loop_
_space_group_symop_operation_xyz
x,y,z
-x,-y,z
x,-y,-z
-x,y,-z
-x,-y,-z
x,y,-z
-x,y,z
x,-y,z
1/2+x,1/2+y,1/2+z
1/2-x,1/2-y,1/2+z
1/2+x,1/2-y,1/2-z
1/2-x,1/2+y,1/2-z
1/2-x,1/2-y,1/2-z
1/2+x,1/2+y,1/2-z
1/2-x,1/2+y,1/2+z
1/2+x,1/2-y,1/2+z
loop_
_atom_site_type_symbol
_atom_site_label
_atom_site_fract_x
_atom_site_fract_y
_atom_site_fract_z
Si Si1 0.387641 0.228150 0.671437
Si Si2 0.384696 0.500000 0.839486
Si Si3 0.111306 0.098708 0.323772
Si Si4 0.720333 0.320321 0.327614
O O1 0.369539 0.217683 0.500000
O O2 0.500000 0.223109 0.716148
O O3 0.354186 0.279458 0.709818
O O4 0.327492 0.191818 0.767050
O O5 0.500000 0.500000 0.862182
O O6 0.356943 0.451839 0.761010
O O7 0.334044 0.500000 0.000000
O O8 0.120841 0.099885 0.500000
O O9 0.183950 0.134480 0.252132
O O10 0.000000 0.109952 0.276547
O O11 0.727475 0.329948 0.500000
#
# Coordination Sequence:
#
# PCOD8288188 Si02
#       4
#    16   8  16  16
#     4   9  18  32  46  60  83 115 148 179 208 244
#     4   7  12  24  41  61  84 111 144 177 205 240
#     4   9  16  27  44  64  87 116 147 176 207 247
#     4  10  19  29  43  65  90 113 140 175 215 256
#
# _framework density 15.419155999999999
#
# number of rings (size 3 to 8) (size 9 to 14) (size 15 to 20)
#    0.000    3.000    0.000    3.429    0.000    3.429 
#    0.000    0.714    0.000    2.571    0.000    1.000 
#    0.000    8.000    0.000    0.000    0.000    0.000 
#
# Total GULP energy -347003.577473 kJ/mol
# GULP energy per Si atom -12392.984910 kJ/mol
# Density = 1.538406 g / cm^3
# Si number density = 15.419156 Si / 1000 Ang^3
#
#
#
# Elastic Constant Matrix: (Units=GPa)
#
#
# Indices 1 2 3 4 5 6 
#
# 1 91.0174 58.8585 33.8002 0.0002 0.0005 -0.0001
# 2 58.8585 132.9418 43.5712 0.0004 -0.0001 0.0000
# 3 33.8002 43.5712 42.6116 0.0027 -0.0034 0.0003
# 4 0.0002 0.0004 0.0027 16.4853 0.0000 0.0001
# 5 0.0005 -0.0001 -0.0034 0.0000 19.4043 0.0000
# 6 -0.0001 0.0000 0.0003 0.0001 0.0000 23.4787
#
#
#
# Elastic Compliance Matrix: (Units=1/GPa)
#
#
# Indices 1 2 3 4 5 6 
#
# 1 0.017383 -0.004778 -0.008902 0.000001 -0.000002 0.000000
# 2 -0.004778 0.012627 -0.009121 0.000001 -0.000001 0.000000
# 3 -0.008902 -0.009121 0.039856 -0.000006 0.000007 0.000000
# 4 0.000001 0.000001 -0.000006 0.060660 0.000000 0.000000
# 5 -0.000002 -0.000001 0.000007 0.000000 0.051535 0.000000
# 6 0.000000 0.000000 0.000000 0.000000 0.000000 0.042592
#
#
# Mechanical properties :
#
#
# Convention : Reuss Voigt Hill
#
# Bulk Modulus (GPa) = 41.21672 59.89231 50.55451
# Shear Modulus (GPa) = 17.96337 20.56306 19.26322
#
# Velocity S-wave (km/s) = 3.41692 3.65582 3.53838
# Velocity P-wave (km/s) = 6.50815 7.53307 7.03929
#
# Compressibility (1/GPa) = 0.02426200
#
# Stress axis : x y z
#
# Youngs Moduli (GPa) = 57.52761 79.19475 25.09032
#
# Poissons Ratio (x) = 0.37842 0.22337
# Poissons Ratio (y) = 0.27489 0.22885
# Poissons Ratio (z) = 0.51214 0.72235
#
# Static dielectric constant tensor:
#      x y z
#    x 2.772610 0.000000 0.000000 
#    y 0.000000 3.155040 0.000000 
#    z 0.000000 0.000000 2.799490 
# 
# 
# High freq. dielectric constant tensor:
#      x y z
#    x 1.563230 0.000000 0.000000 
#    y 0.000000 1.593550 0.000000 
#    z 0.000000 0.000000 1.579510 
# 
# From -- ./inp_files/3292.got.cif
#   From: 2010.06.25/outbox.cif.g09.slc.cpg/sg71_2_cif.got.tgz:3292.got - 2010.06.28 04:59:45.
