data_PCOD8288353
_publ_section_title
;
Structure prediction by ZEFSAII (Michael W. Deem and Ramdas Pophale) SiO2 
 PCOD8288353
Probable space group: I M M M
;
_chemical_formula_sum "Si O2"
_cell_formula_units_Z 112
_cell_length_a 22.390968
_cell_length_b 9.803596
_cell_length_c 29.239140
_cell_angle_alpha 90.000000
_cell_angle_beta 90.000000
_cell_angle_gamma 90.000000
_cell_volume 6418.342226
_symmetry_space_group_name_H-M "I M M M"
_symmetry_group_IT_number 71
_symmetry_cell_setting 'orthorhombic'
loop_
_space_group_symop_operation_xyz
x,y,z
-x,-y,z
x,-y,-z
-x,y,-z
-x,-y,-z
x,y,-z
-x,y,z
x,-y,z
1/2+x,1/2+y,1/2+z
1/2-x,1/2-y,1/2+z
1/2+x,1/2-y,1/2-z
1/2-x,1/2+y,1/2-z
1/2-x,1/2-y,1/2-z
1/2+x,1/2+y,1/2-z
1/2-x,1/2+y,1/2+z
1/2+x,1/2-y,1/2+z
loop_
_atom_site_type_symbol
_atom_site_label
_atom_site_fract_x
_atom_site_fract_y
_atom_site_fract_z
Si Si1 0.377661 0.157423 0.948578
Si Si2 0.733454 0.654536 0.052407
Si Si3 0.934498 0.659872 0.644873
Si Si4 0.570246 0.347164 0.551038
Si Si5 0.291226 0.154623 0.303152
Si Si6 0.849931 0.345083 0.105216
Si Si7 0.319834 0.839903 0.799006
O O1 0.320676 0.246682 0.936187
O O2 0.425843 0.191083 0.909330
O O3 0.358120 0.000000 0.945936
O O4 0.402246 0.191469 0.000000
O O5 0.714691 0.500000 0.065229
O O6 0.788831 0.704902 0.082119
O O7 0.752816 0.665483 0.000000
O O8 0.936297 0.500000 0.653401
O O9 0.880226 0.717112 0.676383
O O10 0.000000 0.721581 0.658423
O O11 0.588861 0.299280 0.500000
O O12 0.500000 0.343680 0.556370
O O13 0.594144 0.500000 0.559620
O O14 0.596138 0.247833 0.589061
O O15 0.343425 0.170449 0.340359
O O16 0.323418 0.188516 0.255244
O O17 0.237228 0.255465 0.316686
O O18 0.265625 0.000000 0.303044
O O19 0.864095 0.500000 0.090817
O O20 0.310231 0.000000 0.810092
#
# Coordination Sequence:
#
# PCOD8288353 Si02
#       7
#    16  16  16  16  16  16  16
#     4   9  17  28  43  65  90 115 148 188 225 263
#     4   9  17  28  42  62  90 121 147 175 218 268
#     4   9  17  29  46  67  90 118 152 188 224 264
#     4   9  19  35  51  67  91 124 159 193 230 276
#     4   9  18  31  48  72  98 120 148 193 241 278
#     4  10  19  30  46  70  96 120 151 191 234 280
#     4   9  17  31  50  70  92 122 159 191 227 281
#
# _framework density 17.449988000000001
#
# number of rings (size 3 to 8) (size 9 to 14) (size 15 to 20)
#    0.000    2.857    0.000    1.714    0.000    2.571 
#    0.000    4.286    0.000    4.286    0.000    2.000 
#    0.000    0.000    0.000    0.000    0.000    0.000 
#
# Total GULP energy -694118.150261 kJ/mol
# GULP energy per Si atom -12394.966969 kJ/mol
# Density = 1.741027 g / cm^3
# Si number density = 17.449988 Si / 1000 Ang^3
#
#
#
# Elastic Constant Matrix: (Units=GPa)
#
#
# Indices 1 2 3 4 5 6 
#
# 1 77.9996 37.9286 49.8503 0.0000 0.0000 0.0000
# 2 37.9286 54.1315 30.6892 0.0000 0.0000 0.0000
# 3 49.8503 30.6892 84.0621 0.0000 0.0000 0.0000
# 4 0.0000 0.0000 0.0000 20.8079 0.0000 0.0000
# 5 0.0000 0.0000 0.0000 0.0000 24.3331 0.0000
# 6 0.0000 0.0000 0.0000 0.0000 0.0000 21.3920
#
#
#
# Elastic Compliance Matrix: (Units=1/GPa)
#
#
# Indices 1 2 3 4 5 6 
#
# 1 0.025400 -0.011674 -0.010801 0.000000 0.000000 0.000000
# 2 -0.011674 0.028660 -0.003540 0.000000 0.000000 0.000000
# 3 -0.010801 -0.003540 0.019594 0.000000 0.000000 0.000000
# 4 0.000000 0.000000 0.000000 0.048059 0.000000 0.000000
# 5 0.000000 0.000000 0.000000 0.000000 0.041096 0.000000
# 6 0.000000 0.000000 0.000000 0.000000 0.000000 0.046746
#
#
# Mechanical properties :
#
#
# Convention : Reuss Voigt Hill
#
# Bulk Modulus (GPa) = 46.24544 50.34771 48.29657
# Shear Modulus (GPa) = 18.60162 19.82159 19.21161
#
# Velocity S-wave (km/s) = 3.26850 3.37398 3.32166
# Velocity P-wave (km/s) = 6.38775 6.64030 6.51525
#
# Compressibility (1/GPa) = 0.02162376
#
# Stress axis : x y z
#
# Youngs Moduli (GPa) = 39.36992 34.89144 51.03703
#
# Poissons Ratio (x) = 0.40732 0.55124
# Poissons Ratio (y) = 0.45960 0.18069
# Poissons Ratio (z) = 0.42523 0.12353
#
# Static dielectric constant tensor:
#      x y z
#    x 3.132090 0.000000 0.000000 
#    y 0.000000 3.233130 0.000000 
#    z 0.000000 0.000000 3.454740 
# 
# 
# High freq. dielectric constant tensor:
#      x y z
#    x 1.653000 0.000000 0.000000 
#    y 0.000000 1.658770 0.000000 
#    z 0.000000 0.000000 1.682360 
# 
# From -- ./inp_files/66568.got.cif
#   From: 2010.06.25/outbox.cif.g09.slc.cpg/sg71_34_cif.got.tgz:66568.got - 2010.06.28 04:59:45.
