data_PCOD8288951
_publ_section_title
;
Structure prediction by ZEFSAII (Michael W. Deem and Ramdas Pophale) SiO2 
 PCOD8288951
Probable space group: I M M M
;
_chemical_formula_sum "Si O2"
_cell_formula_units_Z 104
_cell_length_a 18.050047
_cell_length_b 18.460619
_cell_length_c 18.260145
_cell_angle_alpha 90.000000
_cell_angle_beta 90.000000
_cell_angle_gamma 90.000000
_cell_volume 6084.554958
_symmetry_space_group_name_H-M "I M M M"
_symmetry_group_IT_number 71
_symmetry_cell_setting 'orthorhombic'
loop_
_space_group_symop_operation_xyz
x,y,z
-x,-y,z
x,-y,-z
-x,y,-z
-x,-y,-z
x,y,-z
-x,y,z
x,-y,z
1/2+x,1/2+y,1/2+z
1/2-x,1/2-y,1/2+z
1/2+x,1/2-y,1/2-z
1/2-x,1/2+y,1/2-z
1/2-x,1/2-y,1/2-z
1/2+x,1/2+y,1/2-z
1/2-x,1/2+y,1/2+z
1/2+x,1/2-y,1/2+z
loop_
_atom_site_type_symbol
_atom_site_label
_atom_site_fract_x
_atom_site_fract_y
_atom_site_fract_z
Si Si1 0.585468 0.579957 0.838120
Si Si2 0.861733 0.082647 0.825317
Si Si3 0.798291 0.829333 0.585880
Si Si4 0.084634 0.719615 0.084935
Si Si5 0.500000 0.585950 0.582218
Si Si6 0.779599 0.220524 0.827640
Si Si7 0.339618 0.079126 0.584637
O O1 0.500000 0.590699 0.853990
O O2 0.611339 0.500000 0.864791
O O3 0.600178 0.588059 0.752834
O O4 0.624584 0.642836 0.883315
O O5 0.787829 0.132943 0.827048
O O6 0.923782 0.113744 0.881474
O O7 0.838221 0.000000 0.844227
O O8 0.802155 0.827121 0.500000
O O9 0.781032 0.747734 0.613631
O O10 0.733699 0.881947 0.617431
O O11 0.138527 0.753344 0.146359
O O12 0.090037 0.632079 0.095617
O O13 0.000000 0.744892 0.099271
O O14 0.108294 0.737851 0.000000
O O15 0.500000 0.500000 0.588033
O O16 0.500000 0.615773 0.500000
O O17 0.750000 0.250000 0.750000
O O18 0.323673 0.066412 0.500000
O O19 0.352703 0.000000 0.622126
#
# Coordination Sequence:
#
# PCOD8288951 Si02
#       7
#    16  16  16  16   8  16  16
#     4  10  19  32  52  77 107 143 178 215 259 312
#     4  10  20  35  53  75 105 137 174 217 262 317
#     4  10  20  34  50  72 103 137 177 219 257 308
#     4   9  19  33  49  72 100 131 169 214 263 311
#     4   9  18  32  52  80 109 137 172 216 268 319
#     4  11  21  35  52  74 100 137 177 210 260 321
#     4   8  14  26  45  68  96 130 165 202 246 296
#
# _framework density 17.092457
#
# number of rings (size 3 to 8) (size 9 to 14) (size 15 to 20)
#    0.000    2.385    2.308    1.846    1.077    2.769 
#    0.000    2.308    0.000    0.000    0.000    0.000 
#    0.000    0.615    0.000    1.385    0.000    0.000 
#
# Total GULP energy -644290.414162 kJ/mol
# GULP energy per Si atom -12390.200272 kJ/mol
# Density = 1.705355 g / cm^3
# Si number density = 17.092457 Si / 1000 Ang^3
#
#
#
# Elastic Constant Matrix: (Units=GPa)
#
#
# Indices 1 2 3 4 5 6 
#
# 1 79.0929 42.6955 46.0098 0.0000 0.0000 0.0000
# 2 42.6955 83.2704 31.3761 0.0000 0.0000 0.0000
# 3 46.0098 31.3761 82.4384 0.0000 0.0000 0.0000
# 4 0.0000 0.0000 0.0000 18.5987 0.0000 0.0000
# 5 0.0000 0.0000 0.0000 0.0000 29.3831 0.0000
# 6 0.0000 0.0000 0.0000 0.0000 0.0000 29.0765
#
#
#
# Elastic Compliance Matrix: (Units=1/GPa)
#
#
# Indices 1 2 3 4 5 6 
#
# 1 0.022461 -0.007930 -0.009517 0.000000 0.000000 0.000000
# 2 -0.007930 0.016820 -0.001976 0.000000 0.000000 0.000000
# 3 -0.009517 -0.001976 0.018194 0.000000 0.000000 0.000000
# 4 0.000000 0.000000 0.000000 0.053767 0.000000 0.000000
# 5 0.000000 0.000000 0.000000 0.000000 0.034033 0.000000
# 6 0.000000 0.000000 0.000000 0.000000 0.000000 0.034392
#
#
# Mechanical properties :
#
#
# Convention : Reuss Voigt Hill
#
# Bulk Modulus (GPa) = 53.68297 53.88495 53.78396
# Shear Modulus (GPa) = 22.24975 23.72635 22.98805
#
# Velocity S-wave (km/s) = 3.61186 3.72979 3.67130
# Velocity P-wave (km/s) = 6.99068 7.08113 7.03605
#
# Compressibility (1/GPa) = 0.01862788
#
# Stress axis : x y z
#
# Youngs Moduli (GPa) = 44.52252 59.45466 54.96356
#
# Poissons Ratio (x) = 0.47149 0.52310
# Poissons Ratio (y) = 0.35307 0.10859
# Poissons Ratio (z) = 0.42373 0.11746
#
# Static dielectric constant tensor:
#      x y z
#    x 2.944910 0.000000 0.000000 
#    y 0.000000 3.379680 0.000000 
#    z 0.000000 0.000000 3.080990 
# 
# 
# High freq. dielectric constant tensor:
#      x y z
#    x 1.637250 0.000000 0.000000 
#    y 0.000000 1.665450 0.000000 
#    z 0.000000 0.000000 1.643770 
# 
# From -- ./inp_files/46138.got.cif
#   From: 2010.06.25/outbox.cif.g09.slc.cpg/sg71_24_cif.got.tgz:46138.got - 2010.06.28 04:59:45.
