data_PCOD8288389
_publ_section_title
;
Structure prediction by ZEFSAII (Michael W. Deem and Ramdas Pophale) SiO2 
 PCOD8288389
Probable space group: I M M M
;
_chemical_formula_sum "Si O2"
_cell_formula_units_Z 120
_cell_length_a 20.280794
_cell_length_b 12.335669
_cell_length_c 29.082704
_cell_angle_alpha 90.000000
_cell_angle_beta 90.000000
_cell_angle_gamma 90.000000
_cell_volume 7275.828345
_symmetry_space_group_name_H-M "I M M M"
_symmetry_group_IT_number 71
_symmetry_cell_setting 'orthorhombic'
loop_
_space_group_symop_operation_xyz
x,y,z
-x,-y,z
x,-y,-z
-x,y,-z
-x,-y,-z
x,y,-z
-x,y,z
x,-y,z
1/2+x,1/2+y,1/2+z
1/2-x,1/2-y,1/2+z
1/2+x,1/2-y,1/2-z
1/2-x,1/2+y,1/2-z
1/2-x,1/2-y,1/2-z
1/2+x,1/2+y,1/2-z
1/2-x,1/2+y,1/2+z
1/2+x,1/2-y,1/2+z
loop_
_atom_site_type_symbol
_atom_site_label
_atom_site_fract_x
_atom_site_fract_y
_atom_site_fract_z
Si Si1 0.811588 0.377284 0.950387
Si Si2 0.924294 0.376215 0.798340
Si Si3 0.161766 0.332918 0.281246
Si Si4 0.274151 0.381860 0.210457
Si Si5 0.165785 0.194408 0.552301
Si Si6 0.207406 0.622019 0.377785
Si Si7 0.318562 0.222522 0.358603
Si Si8 0.575201 0.500000 0.054685
O O1 0.835564 0.500000 0.946432
O O2 0.732993 0.372867 0.946713
O O3 0.844135 0.310724 0.909071
O O4 0.834369 0.329212 0.000000
O O5 0.910214 0.500000 0.815426
O O6 0.905103 0.367791 0.744486
O O7 0.882600 0.284780 0.825964
O O8 0.000000 0.345915 0.804495
O O9 0.224422 0.378256 0.253358
O O10 0.166584 0.202371 0.282896
O O11 0.161565 0.380928 0.332464
O O12 0.306539 0.500000 0.207271
O O13 0.235701 0.359186 0.162680
O O14 0.149123 0.232129 0.500000
O O15 0.173260 0.301031 0.584179
O O16 0.110406 0.111267 0.571938
O O17 0.213070 0.500000 0.397659
O O18 0.281487 0.661589 0.362917
O O19 0.500000 0.500000 0.072625
O O20 0.579477 0.500000 0.000000
#
# Coordination Sequence:
#
# PCOD8288389 Si02
#       8
#    16  16  16  16  16  16  16   8
#     4   9  14  22  40  65  95 120 142 185 240 285
#     4  10  19  31  48  66  89 122 158 199 240 288
#     4   9  17  28  42  65  87 112 151 192 234 289
#     4   9  15  25  44  65  87 111 141 193 245 279
#     4   9  17  29  45  70  99 128 162 198 238 281
#     4  10  19  30  47  71  97 126 157 200 248 289
#     4   9  17  28  44  68  91 118 156 196 232 289
#     4   9  16  30  52  72  94 126 165 203 235 277
#
# _framework density 16.492968000000001
#
# number of rings (size 3 to 8) (size 9 to 14) (size 15 to 20)
#    0.000    2.733    0.667    4.000    0.000    0.267 
#    1.200    0.667    0.000    3.200    0.000    3.733 
#    0.000    0.000    0.000    6.667    0.000    0.267 
#
# Total GULP energy -743408.381285 kJ/mol
# GULP energy per Si atom -12390.139688 kJ/mol
# Density = 1.645543 g / cm^3
# Si number density = 16.492968 Si / 1000 Ang^3
#
#
#
# Elastic Constant Matrix: (Units=GPa)
#
#
# Indices 1 2 3 4 5 6 
#
# 1 69.3235 33.1309 19.6819 0.0000 0.0000 0.0000
# 2 33.1309 119.2463 30.5037 0.0000 0.0000 0.0000
# 3 19.6819 30.5037 99.1068 0.0000 0.0000 0.0000
# 4 0.0000 0.0000 0.0000 18.7870 0.0000 0.0000
# 5 0.0000 0.0000 0.0000 0.0000 12.5295 0.0000
# 6 0.0000 0.0000 0.0000 0.0000 0.0000 15.2833
#
#
#
# Elastic Compliance Matrix: (Units=1/GPa)
#
#
# Indices 1 2 3 4 5 6 
#
# 1 0.017023 -0.004195 -0.002089 0.000000 0.000000 0.000000
# 2 -0.004195 0.010137 -0.002287 0.000000 0.000000 0.000000
# 3 -0.002089 -0.002287 0.011209 0.000000 0.000000 0.000000
# 4 0.000000 0.000000 0.000000 0.053228 0.000000 0.000000
# 5 0.000000 0.000000 0.000000 0.000000 0.079812 0.000000
# 6 0.000000 0.000000 0.000000 0.000000 0.000000 0.065431
#
#
# Mechanical properties :
#
#
# Convention : Reuss Voigt Hill
#
# Bulk Modulus (GPa) = 47.11225 50.47886 48.79555
# Shear Modulus (GPa) = 19.15283 22.94395 21.04839
#
# Velocity S-wave (km/s) = 3.41144 3.73384 3.57628
# Velocity P-wave (km/s) = 6.64412 7.01865 6.83395
#
# Compressibility (1/GPa) = 0.02122590
#
# Stress axis : x y z
#
# Youngs Moduli (GPa) = 58.74296 98.65292 89.21467
#
# Poissons Ratio (x) = 0.41387 0.18641
# Poissons Ratio (y) = 0.24644 0.20401
# Poissons Ratio (z) = 0.12274 0.22560
#
# Static dielectric constant tensor:
#      x y z
#    x 2.724320 0.000000 0.000000 
#    y 0.000000 3.060930 0.000000 
#    z 0.000000 0.000000 3.369170 
# 
# 
# High freq. dielectric constant tensor:
#      x y z
#    x 1.580270 0.000000 0.000000 
#    y 0.000000 1.622870 0.000000 
#    z 0.000000 0.000000 1.641160 
# 
# From -- ./inp_files/70887.got.cif
#   From: 2010.06.25/outbox.cif.g09.slc.cpg/sg71_36_cif.got.tgz:70887.got - 2010.06.28 04:59:45.
