data_PCOD8288383
_publ_section_title
;
Structure prediction by ZEFSAII (Michael W. Deem and Ramdas Pophale) SiO2 
 PCOD8288383
Probable space group: I M M M
;
_chemical_formula_sum "Si O2"
_cell_formula_units_Z 88
_cell_length_a 19.968175
_cell_length_b 28.346102
_cell_length_c 9.196096
_cell_angle_alpha 90.000000
_cell_angle_beta 90.000000
_cell_angle_gamma 90.000000
_cell_volume 5205.173571
_symmetry_space_group_name_H-M "I M M M"
_symmetry_group_IT_number 71
_symmetry_cell_setting 'orthorhombic'
loop_
_space_group_symop_operation_xyz
x,y,z
-x,-y,z
x,-y,-z
-x,y,-z
-x,-y,-z
x,y,-z
-x,y,z
x,-y,z
1/2+x,1/2+y,1/2+z
1/2-x,1/2-y,1/2+z
1/2+x,1/2-y,1/2-z
1/2-x,1/2+y,1/2-z
1/2-x,1/2-y,1/2-z
1/2+x,1/2+y,1/2-z
1/2-x,1/2+y,1/2+z
1/2+x,1/2-y,1/2+z
loop_
_atom_site_type_symbol
_atom_site_label
_atom_site_fract_x
_atom_site_fract_y
_atom_site_fract_z
Si Si1 0.073872 0.104301 0.336360
Si Si2 0.203882 0.108457 0.168764
Si Si3 0.078519 0.500000 0.327331
Si Si4 0.197356 0.780471 0.834247
Si Si5 0.184368 0.448091 0.834733
Si Si6 0.426759 0.283771 0.161219
O O1 0.088712 0.086107 0.500000
O O2 0.133850 0.087288 0.230985
O O3 0.071479 0.160220 0.335088
O O4 0.000000 0.085526 0.285118
O O5 0.208366 0.164300 0.192984
O O6 0.266873 0.087659 0.253581
O O7 0.207868 0.094560 0.000000
O O8 0.090776 0.500000 0.500000
O O9 0.113874 0.546468 0.254655
O O10 0.000000 0.500000 0.289363
O O11 0.250000 0.750000 0.750000
O O12 0.124658 0.764026 0.778856
O O13 0.203053 0.766461 0.000000
O O14 0.218890 0.500000 0.838595
O O15 0.170535 0.430372 0.000000
O O16 0.500000 0.263596 0.200532
O O17 0.405300 0.266833 0.000000
#
# Coordination Sequence:
#
# PCOD8288383 Si02
#       6
#    16  16   8  16  16  16
#     4   8  14  25  42  64  90 121 157 194 232 276
#     4  10  19  30  47  70  97 127 160 201 246 287
#     4   9  17  31  53  79 104 127 154 193 239 287
#     4  10  20  31  45  68  95 127 163 199 241 288
#     4   9  19  32  50  75  99 127 160 193 236 287
#     4   8  14  26  44  64  86 115 151 192 236 278
#
# _framework density 16.906255999999999
#
# number of rings (size 3 to 8) (size 9 to 14) (size 15 to 20)
#    0.545    2.455    0.000    2.727    0.000    3.636 
#    0.000    3.636    0.000    1.636    0.000   11.455 
#    0.000    0.000    0.000    0.000    0.000    0.000 
#
# Total GULP energy -545134.579602 kJ/mol
# GULP energy per Si atom -12389.422264 kJ/mol
# Density = 1.686778 g / cm^3
# Si number density = 16.906256 Si / 1000 Ang^3
#
#
#
# Elastic Constant Matrix: (Units=GPa)
#
#
# Indices 1 2 3 4 5 6 
#
# 1 151.5855 31.9715 95.1084 0.0000 0.0000 0.0000
# 2 31.9715 20.6012 35.4115 0.0000 0.0000 0.0000
# 3 95.1084 35.4115 147.4836 0.0000 0.0000 0.0000
# 4 0.0000 0.0000 0.0000 21.9698 0.0000 0.0000
# 5 0.0000 0.0000 0.0000 0.0000 37.0432 0.0000
# 6 0.0000 0.0000 0.0000 0.0000 0.0000 22.3444
#
#
#
# Elastic Compliance Matrix: (Units=1/GPa)
#
#
# Indices 1 2 3 4 5 6 
#
# 1 0.011997 -0.009059 -0.005562 0.000000 0.000000 0.000000
# 2 -0.009059 0.089494 -0.015646 0.000000 0.000000 0.000000
# 3 -0.005562 -0.015646 0.014124 0.000000 0.000000 0.000000
# 4 0.000000 0.000000 0.000000 0.045517 0.000000 0.000000
# 5 0.000000 0.000000 0.000000 0.000000 0.026996 0.000000
# 6 0.000000 0.000000 0.000000 0.000000 0.000000 0.044754
#
#
# Mechanical properties :
#
#
# Convention : Reuss Voigt Hill
#
# Bulk Modulus (GPa) = 18.15491 71.62812 44.89151
# Shear Modulus (GPa) = 16.03727 26.75006 21.39366
#
# Velocity S-wave (km/s) = 3.08328 3.98208 3.56115
# Velocity P-wave (km/s) = 4.84121 7.97511 6.59696
#
# Compressibility (1/GPa) = 0.05508152
#
# Stress axis : x y z
#
# Youngs Moduli (GPa) = 83.35446 11.17399 70.80339
#
# Poissons Ratio (x) = 0.10122 0.39377
# Poissons Ratio (y) = 0.75508 1.10780
# Poissons Ratio (z) = 0.46358 0.17483
#
# Static dielectric constant tensor:
#      x y z
#    x 3.727750 0.000000 0.000000 
#    y 0.000000 2.719900 0.000000 
#    z 0.000000 0.000000 3.372210 
# 
# 
# High freq. dielectric constant tensor:
#      x y z
#    x 1.658110 0.000000 0.000000 
#    y 0.000000 1.594510 0.000000 
#    z 0.000000 0.000000 1.664410 
# 
# From -- ./inp_files/11385.got.cif
#   From: 2010.06.25/outbox.cif.g09.slc.cpg/sg71_6_cif.got.tgz:11385.got - 2010.06.28 04:59:45.
