data_PCOD8288719
_publ_section_title
;
Structure prediction by ZEFSAII (Michael W. Deem and Ramdas Pophale) SiO2 
 PCOD8288719
Probable space group: I M M M
;
_chemical_formula_sum "Si O2"
_cell_formula_units_Z 96
_cell_length_a 7.825267
_cell_length_b 27.939451
_cell_length_c 23.739547
_cell_angle_alpha 90.000000
_cell_angle_beta 90.000000
_cell_angle_gamma 90.000000
_cell_volume 5190.264140
_symmetry_space_group_name_H-M "I M M M"
_symmetry_group_IT_number 71
_symmetry_cell_setting 'orthorhombic'
loop_
_space_group_symop_operation_xyz
x,y,z
-x,-y,z
x,-y,-z
-x,y,-z
-x,-y,-z
x,y,-z
-x,y,z
x,-y,z
1/2+x,1/2+y,1/2+z
1/2-x,1/2-y,1/2+z
1/2+x,1/2-y,1/2-z
1/2-x,1/2+y,1/2-z
1/2-x,1/2-y,1/2-z
1/2+x,1/2+y,1/2-z
1/2-x,1/2+y,1/2+z
1/2+x,1/2-y,1/2+z
loop_
_atom_site_type_symbol
_atom_site_label
_atom_site_fract_x
_atom_site_fract_y
_atom_site_fract_z
Si Si1 0.700633 0.641438 0.246589
Si Si2 0.000000 0.705129 0.063027
Si Si3 0.695667 0.552599 0.179388
Si Si4 0.807563 0.443121 0.939557
Si Si5 0.500000 0.681110 0.437193
Si Si6 0.804503 0.793240 0.358077
Si Si7 0.190201 0.318062 0.361212
O O1 0.500000 0.638913 0.259432
O O2 0.774073 0.590839 0.222893
O O3 0.739571 0.682098 0.200844
O O4 0.800114 0.652507 0.303494
O O5 0.172636 0.687536 0.094519
O O6 0.000000 0.762065 0.059761
O O7 0.000000 0.683320 0.000000
O O8 0.500000 0.546529 0.194605
O O9 0.786005 0.500000 0.184627
O O10 0.706616 0.574348 0.115772
O O11 0.805568 0.500000 0.939786
O O12 0.000000 0.423586 0.934373
O O13 0.729116 0.425277 0.000000
O O14 0.500000 0.659192 0.500000
O O15 0.670230 0.662533 0.405488
O O16 0.774246 0.737238 0.347598
O O17 0.000000 0.804202 0.377260
O O18 0.000000 0.325024 0.386810
#
# Coordination Sequence:
#
# PCOD8288719 Si02
#       7
#    16   8  16  16   8  16  16
#     4  10  19  32  48  68 100 133 163 205 256 300
#     4   9  18  32  50  70  97 137 176 208 252 301
#     4   9  18  31  47  67  91 123 162 204 252 301
#     4   8  14  26  43  60  80 110 151 201 252 294
#     4   9  18  34  52  74 107 137 164 201 240 286
#     4   9  19  32  48  72  99 130 168 211 252 293
#     4  10  19  31  51  78 102 131 167 201 242 295
#
# _framework density 18.496168999999998
#
# number of rings (size 3 to 8) (size 9 to 14) (size 15 to 20)
#    0.000    2.833    0.833    1.000    1.167    1.667 
#    0.000    5.833    0.000    3.000    0.000    0.000 
#    0.000    1.333    0.000    1.500    0.000    0.167 
#
# Total GULP energy -594834.778356 kJ/mol
# GULP energy per Si atom -12392.391216 kJ/mol
# Density = 1.845407 g / cm^3
# Si number density = 18.496169 Si / 1000 Ang^3
#
#
#
# Elastic Constant Matrix: (Units=GPa)
#
#
# Indices 1 2 3 4 5 6 
#
# 1 90.3296 23.3196 60.7634 0.0000 0.0000 0.0000
# 2 23.3196 46.0908 35.8834 0.0000 0.0000 0.0000
# 3 60.7634 35.8834 131.1854 0.0000 0.0000 0.0000
# 4 0.0000 0.0000 0.0000 11.6512 0.0000 0.0000
# 5 0.0000 0.0000 0.0000 0.0000 26.4545 0.0000
# 6 0.0000 0.0000 0.0000 0.0000 0.0000 11.1028
#
#
#
# Elastic Compliance Matrix: (Units=1/GPa)
#
#
# Indices 1 2 3 4 5 6 
#
# 1 0.016408 -0.003030 -0.006771 0.000000 0.000000 0.000000
# 2 -0.003030 0.028126 -0.006290 0.000000 0.000000 0.000000
# 3 -0.006771 -0.006290 0.012480 0.000000 0.000000 0.000000
# 4 0.000000 0.000000 0.000000 0.085828 0.000000 0.000000
# 5 0.000000 0.000000 0.000000 0.000000 0.037801 0.000000
# 6 0.000000 0.000000 0.000000 0.000000 0.000000 0.090068
#
#
# Mechanical properties :
#
#
# Convention : Reuss Voigt Hill
#
# Bulk Modulus (GPa) = 40.27136 56.39317 48.33226
# Shear Modulus (GPa) = 16.06845 19.68433 17.87639
#
# Velocity S-wave (km/s) = 2.95065 3.26581 3.11222
# Velocity P-wave (km/s) = 5.78174 6.69148 6.25318
#
# Compressibility (1/GPa) = 0.02483154
#
# Stress axis : x y z
#
# Youngs Moduli (GPa) = 60.94773 35.55395 80.13114
#
# Poissons Ratio (x) = 0.10773 0.54257
# Poissons Ratio (y) = 0.18467 0.50403
# Poissons Ratio (z) = 0.41268 0.22363
#
# Static dielectric constant tensor:
#      x y z
#    x 3.439310 0.000000 0.000000 
#    y 0.000000 3.301270 0.000000 
#    z 0.000000 0.000000 3.606740 
# 
# 
# High freq. dielectric constant tensor:
#      x y z
#    x 1.716160 0.000000 0.000000 
#    y 0.000000 1.678820 0.000000 
#    z 0.000000 0.000000 1.702980 
# 
# From -- ./inp_files/57904.got.cif
#   From: 2010.06.25/outbox.cif.g09.slc.cpg/sg71_29_cif.got.tgz:57904.got - 2010.06.28 04:59:45.
