data_PCOD8288569
_publ_section_title
;
Structure prediction by ZEFSAII (Michael W. Deem and Ramdas Pophale) SiO2 
 PCOD8288569
Probable space group: I M M M
;
_chemical_formula_sum "Si O2"
_cell_formula_units_Z 96
_cell_length_a 8.628391
_cell_length_b 27.990659
_cell_length_c 20.738854
_cell_angle_alpha 90.000000
_cell_angle_beta 90.000000
_cell_angle_gamma 90.000000
_cell_volume 5008.730848
_symmetry_space_group_name_H-M "I M M M"
_symmetry_group_IT_number 71
_symmetry_cell_setting 'orthorhombic'
loop_
_space_group_symop_operation_xyz
x,y,z
-x,-y,z
x,-y,-z
-x,y,-z
-x,-y,-z
x,y,-z
-x,y,z
x,-y,z
1/2+x,1/2+y,1/2+z
1/2-x,1/2-y,1/2+z
1/2+x,1/2-y,1/2-z
1/2-x,1/2+y,1/2-z
1/2-x,1/2-y,1/2-z
1/2+x,1/2+y,1/2-z
1/2-x,1/2+y,1/2+z
1/2+x,1/2-y,1/2+z
loop_
_atom_site_type_symbol
_atom_site_label
_atom_site_fract_x
_atom_site_fract_y
_atom_site_fract_z
Si Si1 0.315766 0.224869 0.071143
Si Si2 0.815727 0.617747 0.428398
Si Si3 0.184374 0.553576 0.313463
Si Si4 0.316074 0.114041 0.309247
Si Si5 0.684061 0.053450 0.571562
Si Si6 0.683431 0.281616 0.806870
O O1 0.500000 0.224452 0.071782
O O2 0.255281 0.171312 0.086335
O O3 0.251668 0.261016 0.125162
O O4 0.256712 0.241045 0.000000
O O5 0.761576 0.601665 0.500000
O O6 0.746580 0.581584 0.375362
O O7 0.000000 0.617380 0.424609
O O8 0.252451 0.500000 0.313380
O O9 0.237954 0.579948 0.248666
O O10 0.000000 0.552057 0.316825
O O11 0.500000 0.120846 0.310073
O O12 0.252491 0.090515 0.375487
O O13 0.237383 0.164574 0.298901
O O14 0.737959 0.069932 0.500000
O O15 0.500000 0.052044 0.575433
O O16 0.747283 0.000000 0.585915
O O17 0.500000 0.278678 0.804470
O O18 0.750000 0.250000 0.750000
#
# Coordination Sequence:
#
# PCOD8288569 Si02
#       6
#    16  16  16  16  16  16
#     4   8  15  29  48  69  94 125 158 192 236 289
#     4   8  13  22  37  58  86 117 146 181 227 274
#     4   9  16  25  40  64  92 122 156 191 227 271
#     4  10  19  31  48  70  96 126 161 202 244 285
#     4   8  14  26  46  72 100 130 165 204 245 291
#     4  11  22  35  52  73  98 129 164 203 246 294
#
# _framework density 19.166532
#
# number of rings (size 3 to 8) (size 9 to 14) (size 15 to 20)
#    0.000    3.000    0.000    3.500    0.000    5.667 
#    0.000    1.667    0.000    3.500    0.000    1.167 
#    0.000    0.000    0.000    6.000    0.000    5.333 
#
# Total GULP energy -594948.935387 kJ/mol
# GULP energy per Si atom -12394.769487 kJ/mol
# Density = 1.912291 g / cm^3
# Si number density = 19.166532 Si / 1000 Ang^3
#
#
#
# Elastic Constant Matrix: (Units=GPa)
#
#
# Indices 1 2 3 4 5 6 
#
# 1 17.8476 18.4063 20.4465 0.0000 0.0000 0.0000
# 2 18.4063 132.9449 81.0088 0.0001 0.0000 0.0000
# 3 20.4465 81.0088 158.8674 0.0002 0.0000 0.0000
# 4 0.0000 0.0001 0.0002 45.7935 0.0000 0.0000
# 5 0.0000 0.0000 0.0000 0.0000 10.3576 0.0000
# 6 0.0000 0.0000 0.0000 0.0000 0.0000 19.4414
#
#
#
# Elastic Compliance Matrix: (Units=1/GPa)
#
#
# Indices 1 2 3 4 5 6 
#
# 1 0.068865 -0.005997 -0.005805 0.000000 0.000000 0.000000
# 2 -0.005997 0.011435 -0.005059 0.000000 0.000000 0.000000
# 3 -0.005805 -0.005059 0.009621 0.000000 0.000000 0.000000
# 4 0.000000 0.000000 0.000000 0.021837 0.000000 0.000000
# 5 0.000000 0.000000 0.000000 0.000000 0.096548 0.000000
# 6 0.000000 0.000000 0.000000 0.000000 0.000000 0.051437
#
#
# Mechanical properties :
#
#
# Convention : Reuss Voigt Hill
#
# Bulk Modulus (GPa) = 17.79390 61.04256 39.41823
# Shear Modulus (GPa) = 16.01547 27.77173 21.89360
#
# Velocity S-wave (km/s) = 2.89380 3.81066 3.38343
# Velocity P-wave (km/s) = 4.52432 7.16095 5.98952
#
# Compressibility (1/GPa) = 0.05619903
#
# Stress axis : x y z
#
# Youngs Moduli (GPa) = 14.52113 87.45193 103.93610
#
# Poissons Ratio (x) = 0.52447 0.60335
# Poissons Ratio (y) = 0.08709 0.52581
# Poissons Ratio (z) = 0.08429 0.44241
#
# Static dielectric constant tensor:
#      x y z
#    x 2.803830 0.000000 0.000000 
#    y 0.000000 3.699290 0.000000 
#    z 0.000000 0.000000 3.993970 
# 
# 
# High freq. dielectric constant tensor:
#      x y z
#    x 1.671780 0.000000 0.000000 
#    y 0.000000 1.749230 0.000000 
#    z 0.000000 0.000000 1.766750 
# 
# From -- ./inp_files/10851.got.cif
#   From: 2010.06.25/outbox.cif.g09.slc.cpg/sg71_6_cif.got.tgz:10851.got - 2010.06.28 04:59:45.
