data_PCOD8288786
_publ_section_title
;
Structure prediction by ZEFSAII (Michael W. Deem and Ramdas Pophale) SiO2 
 PCOD8288786
Probable space group: I M M M
;
_chemical_formula_sum "Si O2"
_cell_formula_units_Z 104
_cell_length_a 25.572195
_cell_length_b 22.244882
_cell_length_c 11.176137
_cell_angle_alpha 90.000000
_cell_angle_beta 90.000000
_cell_angle_gamma 90.000000
_cell_volume 6357.550676
_symmetry_space_group_name_H-M "I M M M"
_symmetry_group_IT_number 71
_symmetry_cell_setting 'orthorhombic'
loop_
_space_group_symop_operation_xyz
x,y,z
-x,-y,z
x,-y,-z
-x,y,-z
-x,-y,-z
x,y,-z
-x,y,z
x,-y,z
1/2+x,1/2+y,1/2+z
1/2-x,1/2-y,1/2+z
1/2+x,1/2-y,1/2-z
1/2-x,1/2+y,1/2-z
1/2-x,1/2-y,1/2-z
1/2+x,1/2+y,1/2-z
1/2-x,1/2+y,1/2+z
1/2+x,1/2-y,1/2+z
loop_
_atom_site_type_symbol
_atom_site_label
_atom_site_fract_x
_atom_site_fract_y
_atom_site_fract_z
Si Si1 0.557533 0.289160 0.859584
Si Si2 0.439236 0.846098 0.210071
Si Si3 0.749346 0.204662 0.361462
Si Si4 0.347128 0.119270 0.364662
Si Si5 0.938142 0.432663 0.500000
Si Si6 0.148229 0.871983 0.639396
Si Si7 0.296894 0.000000 0.643714
Si Si8 0.821212 0.000000 0.643135
O O1 0.500000 0.303462 0.804453
O O2 0.572794 0.220257 0.837775
O O3 0.601124 0.333169 0.800513
O O4 0.555609 0.299532 0.000000
O O5 0.500000 0.853970 0.244002
O O6 0.403633 0.858198 0.323775
O O7 0.419929 0.895217 0.114636
O O8 0.754306 0.231110 0.500000
O O9 0.750000 0.250000 0.250000
O O10 0.694441 0.171894 0.348387
O O11 0.796052 0.158418 0.337569
O O12 0.355342 0.101520 0.500000
O O13 0.326343 0.058317 0.302112
O O14 0.913796 0.500000 0.500000
O O15 0.000000 0.436783 0.500000
O O16 0.136700 0.875436 0.500000
O O17 0.149367 0.940019 0.691542
O O18 0.294713 0.000000 0.500000
O O19 0.237736 0.000000 0.692783
O O20 0.820153 0.000000 0.500000
#
# Coordination Sequence:
#
# PCOD8288786 Si02
#       8
#    16  16  16  16   8  16   8   8
#     4   9  16  28  44  65  92 122 154 190 238 287
#     4  10  19  32  49  66  91 126 163 202 242 292
#     4  10  19  32  49  71  97 125 161 204 243 287
#     4  10  20  32  47  68  93 122 157 199 245 286
#     4   9  18  32  48  66  88 121 167 209 242 283
#     4   9  16  26  45  68  91 120 158 198 235 285
#     4   9  16  30  47  62  87 123 160 193 230 290
#     4   9  14  26  45  65  87 120 159 192 234 288
#
# _framework density 16.358499999999999
#
# number of rings (size 3 to 8) (size 9 to 14) (size 15 to 20)
#    0.000    2.538    2.308    0.923    1.077    0.308 
#    1.385    0.385    0.000    3.692    0.000    1.615 
#    0.000    0.000    0.000    0.000    0.000   25.692 
#
# Total GULP energy -644241.911059 kJ/mol
# GULP energy per Si atom -12389.267520 kJ/mol
# Density = 1.632127 g / cm^3
# Si number density = 16.358500 Si / 1000 Ang^3
#
#
#
# Elastic Constant Matrix: (Units=GPa)
#
#
# Indices 1 2 3 4 5 6 
#
# 1 102.0815 60.6844 24.0826 0.0000 0.0000 0.0000
# 2 60.6844 126.8985 34.7237 0.0000 0.0000 0.0000
# 3 24.0826 34.7237 41.4536 0.0000 0.0000 0.0000
# 4 0.0000 0.0000 0.0000 6.8892 0.0000 0.0000
# 5 0.0000 0.0000 0.0000 0.0000 18.5932 0.0000
# 6 0.0000 0.0000 0.0000 0.0000 0.0000 23.1439
#
#
#
# Elastic Compliance Matrix: (Units=1/GPa)
#
#
# Indices 1 2 3 4 5 6 
#
# 1 0.014023 -0.005808 -0.003282 0.000000 0.000000 0.000000
# 2 -0.005808 0.012629 -0.007205 0.000000 0.000000 0.000000
# 3 -0.003282 -0.007205 0.032065 0.000000 0.000000 0.000000
# 4 0.000000 0.000000 0.000000 0.145155 0.000000 0.000000
# 5 0.000000 0.000000 0.000000 0.000000 0.053783 0.000000
# 6 0.000000 0.000000 0.000000 0.000000 0.000000 0.043208
#
#
# Mechanical properties :
#
#
# Convention : Reuss Voigt Hill
#
# Bulk Modulus (GPa) = 38.27249 56.60167 47.43708
# Shear Modulus (GPa) = 14.61298 19.78811 17.20055
#
# Velocity S-wave (km/s) = 2.99205 3.48178 3.24616
# Velocity P-wave (km/s) = 5.94839 7.13019 6.56593
#
# Compressibility (1/GPa) = 0.02612843
#
# Stress axis : x y z
#
# Youngs Moduli (GPa) = 71.31173 79.18147 31.18673
#
# Poissons Ratio (x) = 0.45988 0.10234
# Poissons Ratio (y) = 0.41418 0.22469
# Poissons Ratio (z) = 0.23402 0.57048
#
# Static dielectric constant tensor:
#      x y z
#    x 3.248920 0.000000 0.000000 
#    y 0.000000 3.395130 0.000000 
#    z 0.000000 0.000000 2.711590 
# 
# 
# High freq. dielectric constant tensor:
#      x y z
#    x 1.633200 0.000000 0.000000 
#    y 0.000000 1.638000 0.000000 
#    z 0.000000 0.000000 1.573790 
# 
# From -- ./inp_files/28952.got.cif
#   From: 2010.06.25/outbox.cif.g09.slc.cpg/sg71_15_cif.got.tgz:28952.got - 2010.06.28 04:59:45.
