data_PCOD8288126
_publ_section_title
;
Structure prediction by ZEFSAII (Michael W. Deem and Ramdas Pophale) SiO2 
 PCOD8288126
Probable space group: I M M M
;
_chemical_formula_sum "Si O2"
_cell_formula_units_Z 88
_cell_length_a 14.011185
_cell_length_b 19.320819
_cell_length_c 19.981254
_cell_angle_alpha 90.000000
_cell_angle_beta 90.000000
_cell_angle_gamma 90.000000
_cell_volume 5409.076703
_symmetry_space_group_name_H-M "I M M M"
_symmetry_group_IT_number 71
_symmetry_cell_setting 'orthorhombic'
loop_
_space_group_symop_operation_xyz
x,y,z
-x,-y,z
x,-y,-z
-x,y,-z
-x,-y,-z
x,y,-z
-x,y,z
x,-y,z
1/2+x,1/2+y,1/2+z
1/2-x,1/2-y,1/2+z
1/2+x,1/2-y,1/2-z
1/2-x,1/2+y,1/2-z
1/2-x,1/2-y,1/2-z
1/2+x,1/2+y,1/2-z
1/2-x,1/2+y,1/2+z
1/2+x,1/2-y,1/2+z
loop_
_atom_site_type_symbol
_atom_site_label
_atom_site_fract_x
_atom_site_fract_y
_atom_site_fract_z
Si Si1 0.389626 0.079265 0.824848
Si Si2 0.112679 0.923598 0.500000
Si Si3 0.106341 0.581695 0.926264
Si Si4 0.612607 0.195896 0.925403
Si Si5 0.112294 0.840838 0.369127
Si Si6 0.766982 0.418563 0.195197
O O1 0.500000 0.093148 0.805458
O O2 0.356541 0.126266 0.887038
O O3 0.324870 0.098818 0.761901
O O4 0.374631 0.000000 0.846690
O O5 0.145229 0.883938 0.433986
O O6 0.000000 0.929786 0.500000
O O7 0.160274 0.000000 0.500000
O O8 0.098960 0.500000 0.918126
O O9 0.172523 0.610707 0.867530
O O10 0.000000 0.613243 0.918664
O O11 0.148110 0.601052 0.000000
O O12 0.500000 0.199866 0.934010
O O13 0.645136 0.261970 0.881819
O O14 0.658740 0.196015 0.000000
O O15 0.168487 0.874488 0.306127
O O16 0.000000 0.846738 0.354219
O O17 0.744158 0.500000 0.190011
#
# Coordination Sequence:
#
# PCOD8288126 Si02
#       6
#    16   8  16  16  16  16
#     4   9  18  32  49  69  91 115 146 187 234 278
#     4   9  16  26  40  58  82 114 150 184 214 243
#     4   8  14  24  37  54  78 110 148 186 220 255
#     4   9  17  31  49  67  90 118 148 185 229 277
#     4  10  19  30  43  62  90 123 154 184 219 262
#     4  10  19  28  42  63  90 121 153 187 222 264
#
# _framework density 16.26895
#
# number of rings (size 3 to 8) (size 9 to 14) (size 15 to 20)
#    0.000    2.818    0.909    1.636    1.273    4.364 
#    0.000    1.818    0.000    0.000    0.000    0.000 
#    0.000    2.182    0.000    4.000    0.000    0.182 
#
# Total GULP energy -545402.275862 kJ/mol
# GULP energy per Si atom -12395.506270 kJ/mol
# Density = 1.623192 g / cm^3
# Si number density = 16.268950 Si / 1000 Ang^3
#
#
#
# Elastic Constant Matrix: (Units=GPa)
#
#
# Indices 1 2 3 4 5 6 
#
# 1 52.0543 33.7129 38.9070 0.0000 0.0000 0.0000
# 2 33.7129 92.2736 49.2282 0.0000 0.0000 0.0000
# 3 38.9070 49.2282 79.0163 0.0000 0.0000 0.0000
# 4 0.0000 0.0000 0.0000 18.1447 0.0000 0.0000
# 5 0.0000 0.0000 0.0000 0.0000 15.3360 0.0000
# 6 0.0000 0.0000 0.0000 0.0000 0.0000 15.0526
#
#
#
# Elastic Compliance Matrix: (Units=1/GPa)
#
#
# Indices 1 2 3 4 5 6 
#
# 1 0.031807 -0.004891 -0.012614 0.000000 0.000000 0.000000
# 2 -0.004891 0.016985 -0.008173 0.000000 0.000000 0.000000
# 3 -0.012614 -0.008173 0.023959 0.000000 0.000000 0.000000
# 4 0.000000 0.000000 0.000000 0.055113 0.000000 0.000000
# 5 0.000000 0.000000 0.000000 0.000000 0.065206 0.000000
# 6 0.000000 0.000000 0.000000 0.000000 0.000000 0.066434
#
#
# Mechanical properties :
#
#
# Convention : Reuss Voigt Hill
#
# Bulk Modulus (GPa) = 46.74427 51.89339 49.31883
# Shear Modulus (GPa) = 15.72374 16.47308 16.09841
#
# Velocity S-wave (km/s) = 3.11221 3.18551 3.14907
# Velocity P-wave (km/s) = 6.45825 6.74510 6.60324
#
# Compressibility (1/GPa) = 0.02139300
#
# Stress axis : x y z
#
# Youngs Moduli (GPa) = 31.44004 58.87581 41.73832
#
# Poissons Ratio (x) = 0.28797 0.52649
# Poissons Ratio (y) = 0.15378 0.34114
# Poissons Ratio (z) = 0.39659 0.48122
#
# Static dielectric constant tensor:
#      x y z
#    x 2.990580 0.000000 0.000000 
#    y 0.000000 2.995640 0.000000 
#    z 0.000000 0.000000 3.075500 
# 
# 
# High freq. dielectric constant tensor:
#      x y z
#    x 1.605190 0.000000 0.000000 
#    y 0.000000 1.605760 0.000000 
#    z 0.000000 0.000000 1.612170 
# 
# From -- ./inp_files/38001.got.cif
#   From: 2010.06.25/outbox.cif.g09.slc.cpg/sg71_20_cif.got.tgz:38001.got - 2010.06.28 04:59:45.
