data_PCOD8288350
_publ_section_title
;
Structure prediction by ZEFSAII (Michael W. Deem and Ramdas Pophale) SiO2 
 PCOD8288350
Probable space group: I M M M
;
_chemical_formula_sum "Si O2"
_cell_formula_units_Z 96
_cell_length_a 19.653640
_cell_length_b 18.937782
_cell_length_c 14.412181
_cell_angle_alpha 90.000000
_cell_angle_beta 90.000000
_cell_angle_gamma 90.000000
_cell_volume 5364.161161
_symmetry_space_group_name_H-M "I M M M"
_symmetry_group_IT_number 71
_symmetry_cell_setting 'orthorhombic'
loop_
_space_group_symop_operation_xyz
x,y,z
-x,-y,z
x,-y,-z
-x,y,-z
-x,-y,-z
x,y,-z
-x,y,z
x,-y,z
1/2+x,1/2+y,1/2+z
1/2-x,1/2-y,1/2+z
1/2+x,1/2-y,1/2-z
1/2-x,1/2+y,1/2-z
1/2-x,1/2-y,1/2-z
1/2+x,1/2+y,1/2-z
1/2-x,1/2+y,1/2+z
1/2+x,1/2-y,1/2+z
loop_
_atom_site_type_symbol
_atom_site_label
_atom_site_fract_x
_atom_site_fract_y
_atom_site_fract_z
Si Si1 0.265701 0.080469 0.103680
Si Si2 0.575438 0.581524 0.226618
Si Si3 0.078434 0.687428 0.105656
Si Si4 0.872311 0.840387 0.894995
Si Si5 0.301918 0.583762 0.896464
Si Si6 0.333233 0.081656 0.710371
O O1 0.204444 0.134099 0.122514
O O2 0.324464 0.094837 0.179225
O O3 0.238392 0.000000 0.116227
O O4 0.295805 0.091360 0.000000
O O5 0.500000 0.591877 0.183854
O O6 0.591677 0.500000 0.245047
O O7 0.577473 0.620133 0.325373
O O8 0.631122 0.613581 0.155750
O O9 0.123576 0.756853 0.123268
O O10 0.103050 0.626146 0.174481
O O11 0.000000 0.704644 0.127689
O O12 0.087118 0.660895 0.000000
O O13 0.895739 0.857975 0.000000
O O14 0.306182 0.500000 0.901670
O O15 0.234909 0.607753 0.841640
O O16 0.299782 0.616190 0.000000
O O17 0.348231 0.000000 0.688549
#
# Coordination Sequence:
#
# PCOD8288350 Si02
#       6
#    16  16  16  16  16  16
#     4   9  17  31  54  83 111 135 165 209 256 304
#     4  10  19  30  46  70 100 135 174 213 253 299
#     4  10  22  37  52  75 106 138 173 215 264 312
#     4  10  19  33  52  73 103 139 170 205 253 305
#     4   9  17  30  47  69  97 129 168 212 255 300
#     4  10  19  34  57  79 100 131 170 214 265 312
#
# _framework density 17.896553999999998
#
# number of rings (size 3 to 8) (size 9 to 14) (size 15 to 20)
#    0.000    2.333    1.667    1.500    0.000    4.333 
#    0.000    3.333    0.000    0.500    0.000    2.333 
#    0.000    0.000    0.000    0.000    0.000    0.000 
#
# Total GULP energy -595172.172650 kJ/mol
# GULP energy per Si atom -12399.420264 kJ/mol
# Density = 1.785582 g / cm^3
# Si number density = 17.896554 Si / 1000 Ang^3
#
#
#
# Elastic Constant Matrix: (Units=GPa)
#
#
# Indices 1 2 3 4 5 6 
#
# 1 56.9200 35.1309 36.6990 0.0000 0.0000 0.0000
# 2 35.1309 68.4772 39.8080 0.0000 0.0000 0.0000
# 3 36.6990 39.8080 113.7352 0.0000 0.0000 0.0000
# 4 0.0000 0.0000 0.0000 19.5959 0.0000 0.0000
# 5 0.0000 0.0000 0.0000 0.0000 27.3523 0.0000
# 6 0.0000 0.0000 0.0000 0.0000 0.0000 22.9802
#
#
#
# Elastic Compliance Matrix: (Units=1/GPa)
#
#
# Indices 1 2 3 4 5 6 
#
# 1 0.027799 -0.011358 -0.004994 0.000000 0.000000 0.000000
# 2 -0.011358 0.022975 -0.004376 0.000000 0.000000 0.000000
# 3 -0.004994 -0.004376 0.011936 0.000000 0.000000 0.000000
# 4 0.000000 0.000000 0.000000 0.051031 0.000000 0.000000
# 5 0.000000 0.000000 0.000000 0.000000 0.036560 0.000000
# 6 0.000000 0.000000 0.000000 0.000000 0.000000 0.043516
#
#
# Mechanical properties :
#
#
# Convention : Reuss Voigt Hill
#
# Bulk Modulus (GPa) = 47.05613 51.37869 49.21741
# Shear Modulus (GPa) = 20.63064 22.48530 21.55797
#
# Velocity S-wave (km/s) = 3.39893 3.54842 3.47448
# Velocity P-wave (km/s) = 6.46174 6.74977 6.60733
#
# Compressibility (1/GPa) = 0.02125122
#
# Stress axis : x y z
#
# Youngs Moduli (GPa) = 35.97252 43.52621 83.78273
#
# Poissons Ratio (x) = 0.49439 0.41845
# Poissons Ratio (y) = 0.40859 0.36666
# Poissons Ratio (z) = 0.17966 0.19048
#
# Static dielectric constant tensor:
#      x y z
#    x 3.085250 0.000000 0.000000 
#    y 0.000000 3.066020 0.000000 
#    z 0.000000 0.000000 3.548990 
# 
# 
# High freq. dielectric constant tensor:
#      x y z
#    x 1.671510 0.000000 0.000000 
#    y 0.000000 1.666630 0.000000 
#    z 0.000000 0.000000 1.699440 
# 
# From -- ./inp_files/34505.got.cif
#   From: 2010.06.25/outbox.cif.g09.slc.cpg/sg71_18_cif.got.tgz:34505.got - 2010.06.28 04:59:45.
