data_PCOD8288378
_publ_section_title
;
Structure prediction by ZEFSAII (Michael W. Deem and Ramdas Pophale) SiO2 
 PCOD8288378
Probable space group: I M M M
;
_chemical_formula_sum "Si O2"
_cell_formula_units_Z 80
_cell_length_a 8.852013
_cell_length_b 25.993585
_cell_length_c 18.492768
_cell_angle_alpha 90.000000
_cell_angle_beta 90.000000
_cell_angle_gamma 90.000000
_cell_volume 4255.103667
_symmetry_space_group_name_H-M "I M M M"
_symmetry_group_IT_number 71
_symmetry_cell_setting 'orthorhombic'
loop_
_space_group_symop_operation_xyz
x,y,z
-x,-y,z
x,-y,-z
-x,y,-z
-x,-y,-z
x,y,-z
-x,y,z
x,-y,z
1/2+x,1/2+y,1/2+z
1/2-x,1/2-y,1/2+z
1/2+x,1/2-y,1/2-z
1/2-x,1/2+y,1/2-z
1/2-x,1/2-y,1/2-z
1/2+x,1/2+y,1/2-z
1/2-x,1/2+y,1/2+z
1/2+x,1/2-y,1/2+z
loop_
_atom_site_type_symbol
_atom_site_label
_atom_site_fract_x
_atom_site_fract_y
_atom_site_fract_z
Si Si1 0.679725 0.556941 0.418694
Si Si2 0.320282 0.653739 0.167411
Si Si3 0.320227 0.347117 0.330291
Si Si4 0.179556 0.943282 0.418980
Si Si5 0.822274 0.747389 0.916294
O O1 0.738330 0.567715 0.500000
O O2 0.500000 0.559422 0.418423
O O3 0.732989 0.500000 0.393053
O O4 0.746122 0.600416 0.365279
O O5 0.500000 0.655208 0.166152
O O6 0.257740 0.658676 0.248928
O O7 0.257379 0.600013 0.135119
O O8 0.260726 0.699499 0.118634
O O9 0.500000 0.349513 0.330068
O O10 0.263552 0.298895 0.377124
O O11 0.239304 0.931861 0.500000
O O12 0.000000 0.942016 0.419201
O O13 0.235238 0.000000 0.393648
O O14 0.000000 0.740352 0.905767
O O15 0.777474 0.751281 0.000000
#
# Coordination Sequence:
#
# PCOD8288378 Si02
#       5
#    16  16  16  16  16
#     4   8  13  22  38  61  90 123 155 185 218 261
#     4  10  19  30  47  70  93 116 146 188 230 265
#     4   9  17  28  42  63  91 120 149 183 226 271
#     4   8  14  25  41  62  88 115 141 172 215 264
#     4  10  20  33  48  64  87 122 156 183 218 268
#
# _framework density 18.800951000000001
#
# number of rings (size 3 to 8) (size 9 to 14) (size 15 to 20)
#    0.000    3.000    0.000    3.000    0.000    4.400 
#    0.000    4.000    0.000    0.600    0.000    2.800 
#    0.000    2.400    0.000   11.000    0.000   10.000 
#
# Total GULP energy -495816.210333 kJ/mol
# GULP energy per Si atom -12395.405258 kJ/mol
# Density = 1.875816 g / cm^3
# Si number density = 18.800951 Si / 1000 Ang^3
#
#
#
# Elastic Constant Matrix: (Units=GPa)
#
#
# Indices 1 2 3 4 5 6 
#
# 1 6.7331 16.8332 16.6291 0.0000 0.0000 0.0000
# 2 16.8332 186.9106 104.3174 0.0001 0.0000 0.0000
# 3 16.6291 104.3174 158.5493 0.0004 0.0000 0.0000
# 4 0.0000 0.0001 0.0004 29.8665 0.0000 0.0000
# 5 0.0000 0.0000 0.0000 0.0000 14.9133 0.0000
# 6 0.0000 0.0000 0.0000 0.0000 0.0000 19.2487
#
#
#
# Elastic Compliance Matrix: (Units=1/GPa)
#
#
# Indices 1 2 3 4 5 6 
#
# 1 0.212972 -0.010610 -0.015356 0.000000 0.000000 0.000000
# 2 -0.010610 0.008983 -0.004798 0.000000 0.000000 0.000000
# 3 -0.015356 -0.004798 0.011075 0.000000 0.000000 0.000000
# 4 0.000000 0.000000 0.000000 0.033482 0.000000 0.000000
# 5 0.000000 0.000000 0.000000 0.000000 0.067054 0.000000
# 6 0.000000 0.000000 0.000000 0.000000 0.000000 0.051951
#
#
# Mechanical properties :
#
#
# Convention : Reuss Voigt Hill
#
# Bulk Modulus (GPa) = 5.83084 69.75026 37.79055
# Shear Modulus (GPa) = 9.91644 27.09991 18.50817
#
# Velocity S-wave (km/s) = 2.29910 3.80071 3.14096
# Velocity P-wave (km/s) = 3.18684 7.51268 5.77046
#
# Compressibility (1/GPa) = 0.17150201
#
# Stress axis : x y z
#
# Youngs Moduli (GPa) = 4.69545 111.31617 90.29709
#
# Poissons Ratio (x) = 1.18103 1.38664
# Poissons Ratio (y) = 0.04982 0.43323
# Poissons Ratio (z) = 0.07211 0.53408
#
# Static dielectric constant tensor:
#      x y z
#    x 2.750560 0.000000 0.000000 
#    y 0.000000 3.851570 0.000000 
#    z 0.000000 0.000000 3.734980 
# 
# 
# High freq. dielectric constant tensor:
#      x y z
#    x 1.653580 0.000000 0.000000 
#    y 0.000000 1.751080 0.000000 
#    z 0.000000 0.000000 1.738330 
# 
# From -- ./inp_files/8348.got.cif
#   From: 2010.06.25/outbox.cif.g09.slc.cpg/sg71_5_cif.got.tgz:8348.got - 2010.06.28 04:59:45.
