data_PCOD8288837
_publ_section_title
;
Structure prediction by ZEFSAII (Michael W. Deem and Ramdas Pophale) SiO2 
 PCOD8288837
Probable space group: I M M M
;
_chemical_formula_sum "Si O2"
_cell_formula_units_Z 120
_cell_length_a 8.714488
_cell_length_b 29.179839
_cell_length_c 26.764068
_cell_angle_alpha 90.000000
_cell_angle_beta 90.000000
_cell_angle_gamma 90.000000
_cell_volume 6805.764109
_symmetry_space_group_name_H-M "I M M M"
_symmetry_group_IT_number 71
_symmetry_cell_setting 'orthorhombic'
loop_
_space_group_symop_operation_xyz
x,y,z
-x,-y,z
x,-y,-z
-x,y,-z
-x,-y,-z
x,y,-z
-x,y,z
x,-y,z
1/2+x,1/2+y,1/2+z
1/2-x,1/2-y,1/2+z
1/2+x,1/2-y,1/2-z
1/2-x,1/2+y,1/2-z
1/2-x,1/2-y,1/2-z
1/2+x,1/2+y,1/2-z
1/2-x,1/2+y,1/2+z
1/2+x,1/2-y,1/2+z
loop_
_atom_site_type_symbol
_atom_site_label
_atom_site_fract_x
_atom_site_fract_y
_atom_site_fract_z
Si Si1 0.172803 0.500000 0.941229
Si Si2 0.178867 0.921892 0.618393
Si Si3 0.818875 0.862999 0.227085
Si Si4 0.180951 0.296604 0.342506
Si Si5 0.169676 0.669572 0.093143
Si Si6 0.319192 0.052516 0.276571
Si Si7 0.671720 0.789283 0.298605
Si Si8 0.177738 0.745925 0.445202
O O1 0.266600 0.456041 0.924173
O O2 0.000000 0.500000 0.918505
O O3 0.164616 0.500000 0.000000
O O4 0.212019 0.871888 0.596945
O O5 0.271851 0.931538 0.668566
O O6 0.000000 0.927692 0.629962
O O7 0.756998 0.844801 0.173598
O O8 0.759277 0.914652 0.235687
O O9 0.759877 0.829411 0.270303
O O10 0.000000 0.863571 0.227398
O O11 0.235583 0.259079 0.300480
O O12 0.235849 0.286054 0.399344
O O13 0.000000 0.300847 0.339428
O O14 0.158861 0.695663 0.144831
O O15 0.233178 0.705925 0.053243
O O16 0.000000 0.652286 0.076804
O O17 0.500000 0.057994 0.271626
O O18 0.267458 0.000000 0.267101
O O19 0.500000 0.782109 0.276307
O O20 0.203284 0.722457 0.500000
O O21 0.000000 0.756888 0.435847
#
# Coordination Sequence:
#
# PCOD8288837 Si02
#       8
#     8  16  16  16  16  16  16  16
#     4  11  25  43  59  73  93 125 169 223 278 325
#     4  12  23  36  57  78 101 130 168 218 271 326
#     4  12  23  34  52  77 108 140 176 214 259 315
#     4  10  20  34  52  75 107 140 176 217 264 315
#     4  10  20  33  52  75 102 135 173 214 258 311
#     4  11  23  39  59  80 106 138 175 217 267 325
#     4  10  19  32  50  73 104 138 175 214 257 308
#     4   9  19  36  56  77 103 137 178 222 264 308
#
# _framework density 17.632111999999999
#
# number of rings (size 3 to 8) (size 9 to 14) (size 15 to 20)
#    0.000    1.400    2.000    4.600    0.000    3.733 
#    0.000    0.000    0.000    0.000    0.000    0.000 
#    0.000    0.533    0.000    6.133    0.000    1.733 
#
# Total GULP energy -743977.276802 kJ/mol
# GULP energy per Si atom -12399.621280 kJ/mol
# Density = 1.759198 g / cm^3
# Si number density = 17.632112 Si / 1000 Ang^3
#
#
#
# Elastic Constant Matrix: (Units=GPa)
#
#
# Indices 1 2 3 4 5 6 
#
# 1 91.6602 30.0615 29.4066 0.0000 0.0000 0.0000
# 2 30.0615 81.8426 50.7386 0.0000 0.0000 0.0000
# 3 29.4066 50.7386 76.1092 0.0001 0.0000 0.0000
# 4 0.0000 0.0000 0.0001 13.9219 0.0000 0.0000
# 5 0.0000 0.0000 0.0000 0.0000 18.5429 0.0000
# 6 0.0000 0.0000 0.0000 0.0000 0.0000 29.6452
#
#
#
# Elastic Compliance Matrix: (Units=1/GPa)
#
#
# Indices 1 2 3 4 5 6 
#
# 1 0.012817 -0.002791 -0.003091 0.000000 0.000000 0.000000
# 2 -0.002791 0.021434 -0.013210 0.000000 0.000000 0.000000
# 3 -0.003091 -0.013210 0.023140 0.000000 0.000000 0.000000
# 4 0.000000 0.000000 0.000000 0.071829 0.000000 0.000000
# 5 0.000000 0.000000 0.000000 0.000000 0.053929 0.000000
# 6 0.000000 0.000000 0.000000 0.000000 0.000000 0.033732
#
#
# Mechanical properties :
#
#
# Convention : Reuss Voigt Hill
#
# Bulk Modulus (GPa) = 52.07013 52.22505 52.14759
# Shear Modulus (GPa) = 19.12272 21.71569 20.41920
#
# Velocity S-wave (km/s) = 3.29681 3.51322 3.40673
# Velocity P-wave (km/s) = 6.63984 6.79268 6.71670
#
# Compressibility (1/GPa) = 0.01920487
#
# Stress axis : x y z
#
# Youngs Moduli (GPa) = 78.02084 46.65557 43.21488
#
# Poissons Ratio (x) = 0.13023 0.13359
# Poissons Ratio (y) = 0.21778 0.57088
# Poissons Ratio (z) = 0.24119 0.61634
#
# Static dielectric constant tensor:
#      x y z
#    x 3.535120 0.000000 0.000000 
#    y 0.000000 3.410180 0.000000 
#    z 0.000000 0.000000 3.274010 
# 
# 
# High freq. dielectric constant tensor:
#      x y z
#    x 1.699230 0.000000 0.000000 
#    y 0.000000 1.662260 0.000000 
#    z 0.000000 0.000000 1.665010 
# 
# From -- ./inp_files/63842.got.cif
#   From: 2010.06.25/outbox.cif.g09.slc.cpg/sg71_32_cif.got.tgz:63842.got - 2010.06.28 04:59:45.
