data_PCOD8288147
_publ_section_title
;
Structure prediction by ZEFSAII (Michael W. Deem and Ramdas Pophale) SiO2 
 PCOD8288147
Probable space group: I M M M
;
_chemical_formula_sum "Si O2"
_cell_formula_units_Z 104
_cell_length_a 28.657096
_cell_length_b 9.061118
_cell_length_c 31.594504
_cell_angle_alpha 90.000000
_cell_angle_beta 90.000000
_cell_angle_gamma 90.000000
_cell_volume 8203.997257
_symmetry_space_group_name_H-M "I M M M"
_symmetry_group_IT_number 71
_symmetry_cell_setting 'orthorhombic'
loop_
_space_group_symop_operation_xyz
x,y,z
-x,-y,z
x,-y,-z
-x,y,-z
-x,-y,-z
x,y,-z
-x,y,z
x,-y,z
1/2+x,1/2+y,1/2+z
1/2-x,1/2-y,1/2+z
1/2+x,1/2-y,1/2-z
1/2-x,1/2+y,1/2-z
1/2-x,1/2-y,1/2-z
1/2+x,1/2+y,1/2-z
1/2-x,1/2+y,1/2+z
1/2+x,1/2-y,1/2+z
loop_
_atom_site_type_symbol
_atom_site_label
_atom_site_fract_x
_atom_site_fract_y
_atom_site_fract_z
Si Si1 0.233392 0.834344 0.617695
Si Si2 0.137188 0.837074 0.332172
Si Si3 0.407915 0.675533 0.083207
Si Si4 0.318322 0.169554 0.951257
Si Si5 0.820347 0.334900 0.738229
Si Si6 0.722878 0.333694 0.310587
Si Si7 0.500000 0.171770 0.049954
O O1 0.186588 0.840167 0.644697
O O2 0.223994 0.741535 0.575165
O O3 0.273518 0.755801 0.645458
O O4 0.249677 0.000000 0.605994
O O5 0.099129 0.786781 0.366950
O O6 0.138756 0.728515 0.291983
O O7 0.125312 0.000000 0.314949
O O8 0.408711 0.500000 0.075654
O O9 0.366405 0.743307 0.055447
O O10 0.455498 0.748984 0.069265
O O11 0.325330 0.000000 0.936861
O O12 0.303858 0.179703 0.000000
O O13 0.834306 0.500000 0.751033
O O14 0.771889 0.331823 0.713422
O O15 0.816469 0.239904 0.781004
O O16 0.707303 0.500000 0.320776
O O17 0.500000 0.000000 0.062385
O O18 0.500000 0.193429 0.000000
#
# Coordination Sequence:
#
# PCOD8288147 Si02
#       7
#    16  16  16  16  16  16   8
#     4   9  16  25  36  49  65  84 107 132 156 186
#     4   8  15  26  37  50  66  82 100 123 152 186
#     4  10  20  32  45  57  68  83 104 131 163 202
#     4  10  19  29  40  53  68  85 106 133 166 203
#     4   9  15  21  32  49  66  85 106 124 144 176
#     4   9  15  22  32  46  66  88 106 126 151 178
#     4  11  23  35  45  57  71  85 103 131 169 211
#
# _framework density 12.676747000000001
#
# number of rings (size 3 to 8) (size 9 to 14) (size 15 to 20)
#    0.000    2.692    0.000    3.923    0.000   11.692 
#    0.000    0.000    0.000    0.000    0.000    0.000 
#    0.000    0.000    0.000    0.000    0.000    0.000 
#
# Total GULP energy -644624.981141 kJ/mol
# GULP energy per Si atom -12396.634253 kJ/mol
# Density = 1.264789 g / cm^3
# Si number density = 12.676747 Si / 1000 Ang^3
#
#
#
# Elastic Constant Matrix: (Units=GPa)
#
#
# Indices 1 2 3 4 5 6 
#
# 1 21.1704 28.8005 33.7600 0.0000 0.0000 0.0000
# 2 28.8005 119.5012 57.2580 0.0000 0.0000 0.0000
# 3 33.7600 57.2580 78.1964 0.0000 0.0000 0.0000
# 4 0.0000 0.0000 0.0000 23.5683 0.0000 0.0000
# 5 0.0000 0.0000 0.0000 0.0000 19.6656 0.0000
# 6 0.0000 0.0000 0.0000 0.0000 0.0000 17.3025
#
#
#
# Elastic Compliance Matrix: (Units=1/GPa)
#
#
# Indices 1 2 3 4 5 6 
#
# 1 0.156728 -0.008244 -0.061629 0.000000 0.000000 0.000000
# 2 -0.008244 0.013324 -0.006198 0.000000 0.000000 0.000000
# 3 -0.061629 -0.006198 0.043934 0.000000 0.000000 0.000000
# 4 0.000000 0.000000 0.000000 0.042430 0.000000 0.000000
# 5 0.000000 0.000000 0.000000 0.000000 0.050850 0.000000
# 6 0.000000 0.000000 0.000000 0.000000 0.000000 0.057795
#
#
# Mechanical properties :
#
#
# Convention : Reuss Voigt Hill
#
# Bulk Modulus (GPa) = 16.16901 50.94498 33.55700
# Shear Modulus (GPa) = 9.29684 18.71058 14.00371
#
# Velocity S-wave (km/s) = 2.71103 3.84601 3.32727
# Velocity P-wave (km/s) = 4.75207 7.74580 6.42571
#
# Compressibility (1/GPa) = 0.06184671
#
# Stress axis : x y z
#
# Youngs Moduli (GPa) = 6.38046 75.05067 22.76163
#
# Poissons Ratio (x) = 0.61868 1.40277
# Poissons Ratio (y) = 0.05260 0.14107
# Poissons Ratio (z) = 0.39322 0.46513
#
# Static dielectric constant tensor:
#      x y z
#    x 2.242110 0.000000 0.000000 
#    y 0.000000 2.851110 0.000000 
#    z 0.000000 0.000000 2.630260 
# 
# 
# High freq. dielectric constant tensor:
#      x y z
#    x 1.410280 0.000000 0.000000 
#    y 0.000000 1.505370 0.000000 
#    z 0.000000 0.000000 1.472990 
# 
# From -- ./inp_files/67292.got.cif
#   From: 2010.06.25/outbox.cif.g09.slc.cpg/sg71_34_cif.got.tgz:67292.got - 2010.06.28 04:59:45.
