data_PCOD8288666
_publ_section_title
;
Structure prediction by ZEFSAII (Michael W. Deem and Ramdas Pophale) SiO2 
 PCOD8288666
Probable space group: I M M M
;
_chemical_formula_sum "Si O2"
_cell_formula_units_Z 104
_cell_length_a 9.205607
_cell_length_b 27.836443
_cell_length_c 22.581954
_cell_angle_alpha 90.000000
_cell_angle_beta 90.000000
_cell_angle_gamma 90.000000
_cell_volume 5786.656301
_symmetry_space_group_name_H-M "I M M M"
_symmetry_group_IT_number 71
_symmetry_cell_setting 'orthorhombic'
loop_
_space_group_symop_operation_xyz
x,y,z
-x,-y,z
x,-y,-z
-x,y,-z
-x,-y,-z
x,y,-z
-x,y,z
x,-y,z
1/2+x,1/2+y,1/2+z
1/2-x,1/2-y,1/2+z
1/2+x,1/2-y,1/2-z
1/2-x,1/2+y,1/2-z
1/2-x,1/2-y,1/2-z
1/2+x,1/2+y,1/2-z
1/2-x,1/2+y,1/2+z
1/2+x,1/2-y,1/2+z
loop_
_atom_site_type_symbol
_atom_site_label
_atom_site_fract_x
_atom_site_fract_y
_atom_site_fract_z
Si Si1 0.665540 0.409353 0.569883
Si Si2 0.165926 0.200808 0.260704
Si Si3 0.672785 0.642093 0.875305
Si Si4 0.333420 0.683283 0.369899
Si Si5 0.833736 0.276142 0.067280
Si Si6 0.337849 0.000000 0.070665
Si Si7 0.669979 0.055410 0.568338
O O1 0.674811 0.407147 0.500000
O O2 0.500000 0.415464 0.591632
O O3 0.739080 0.361153 0.595758
O O4 0.756069 0.453582 0.595723
O O5 0.250000 0.250000 0.250000
O O6 0.224847 0.165703 0.312568
O O7 0.182006 0.172041 0.199407
O O8 0.000000 0.214669 0.274327
O O9 0.500000 0.637672 0.878724
O O10 0.733996 0.676968 0.926147
O O11 0.740451 0.589385 0.886564
O O12 0.500000 0.686486 0.390687
O O13 0.266150 0.734420 0.390303
O O14 0.000000 0.289194 0.084604
O O15 0.824885 0.257943 0.000000
O O16 0.500000 0.000000 0.095916
O O17 0.336000 0.000000 0.000000
O O18 0.712918 0.066136 0.500000
O O19 0.500000 0.065410 0.577540
O O20 0.706879 0.000000 0.583678
#
# Coordination Sequence:
#
# PCOD8288666 Si02
#       7
#    16  16  16  16  16   8  16
#     4   9  16  28  49  74  95 119 159 207 249 290
#     4  10  20  35  53  73  99 136 177 210 244 293
#     4  11  22  33  50  78 109 139 172 210 258 313
#     4   9  17  31  51  72  96 127 167 213 251 285
#     4  10  19  31  50  75 102 135 172 207 248 301
#     4   9  17  29  45  67  97 129 155 185 236 299
#     4   9  19  37  60  83 105 134 176 220 262 315
#
# _framework density 17.972382
#
# number of rings (size 3 to 8) (size 9 to 14) (size 15 to 20)
#    0.000    2.385    1.538    2.077    0.000    6.154 
#    0.000    2.308    1.692    1.846    0.000    0.000 
#    0.000    0.000    0.000    0.000    0.000    0.000 
#
# Total GULP energy -644601.530920 kJ/mol
# GULP energy per Si atom -12396.183287 kJ/mol
# Density = 1.793148 g / cm^3
# Si number density = 17.972382 Si / 1000 Ang^3
#
#
#
# Elastic Constant Matrix: (Units=GPa)
#
#
# Indices 1 2 3 4 5 6 
#
# 1 67.8025 54.6802 30.3354 0.0000 0.0000 0.0000
# 2 54.6802 145.6660 44.0831 0.0000 0.0000 0.0000
# 3 30.3354 44.0831 71.5490 -0.0001 0.0000 0.0000
# 4 0.0000 0.0000 -0.0001 25.7739 0.0000 0.0000
# 5 0.0000 0.0000 0.0000 0.0000 19.7738 0.0000
# 6 0.0000 0.0000 0.0000 0.0000 0.0000 21.1976
#
#
#
# Elastic Compliance Matrix: (Units=1/GPa)
#
#
# Indices 1 2 3 4 5 6 
#
# 1 0.022722 -0.006901 -0.005382 0.000000 0.000000 0.000000
# 2 -0.006901 0.010534 -0.003565 0.000000 0.000000 0.000000
# 3 -0.005382 -0.003565 0.018455 0.000000 0.000000 0.000000
# 4 0.000000 0.000000 0.000000 0.038799 0.000000 0.000000
# 5 0.000000 0.000000 0.000000 0.000000 0.050572 0.000000
# 6 0.000000 0.000000 0.000000 0.000000 0.000000 0.047175
#
#
# Mechanical properties :
#
#
# Convention : Reuss Voigt Hill
#
# Bulk Modulus (GPa) = 49.95987 60.35723 55.15855
# Shear Modulus (GPa) = 22.06311 23.74364 22.90338
#
# Velocity S-wave (km/s) = 3.50753 3.63866 3.57370
# Velocity P-wave (km/s) = 6.65298 7.16306 6.91273
#
# Compressibility (1/GPa) = 0.02001607
#
# Stress axis : x y z
#
# Youngs Moduli (GPa) = 44.01084 94.92964 54.18715
#
# Poissons Ratio (x) = 0.65506 0.29163
# Poissons Ratio (y) = 0.30370 0.19316
# Poissons Ratio (z) = 0.23687 0.33839
#
# Static dielectric constant tensor:
#      x y z
#    x 3.188270 0.000000 0.000000 
#    y 0.000000 3.460810 0.000000 
#    z 0.000000 0.000000 3.260740 
# 
# 
# High freq. dielectric constant tensor:
#      x y z
#    x 1.675070 0.000000 0.000000 
#    y 0.000000 1.700470 0.000000 
#    z 0.000000 0.000000 1.679200 
# 
# From -- ./inp_files/57973.got.cif
#   From: 2010.06.25/outbox.cif.g09.slc.cpg/sg71_29_cif.got.tgz:57973.got - 2010.06.28 04:59:45.
