data_PCOD8288634
_publ_section_title
;
Structure prediction by ZEFSAII (Michael W. Deem and Ramdas Pophale) SiO2 
 PCOD8288634
Probable space group: I M M M
;
_chemical_formula_sum "Si O2"
_cell_formula_units_Z 128
_cell_length_a 23.136162
_cell_length_b 12.966287
_cell_length_c 24.120048
_cell_angle_alpha 90.000000
_cell_angle_beta 90.000000
_cell_angle_gamma 90.000000
_cell_volume 7235.776011
_symmetry_space_group_name_H-M "I M M M"
_symmetry_group_IT_number 71
_symmetry_cell_setting 'orthorhombic'
loop_
_space_group_symop_operation_xyz
x,y,z
-x,-y,z
x,-y,-z
-x,y,-z
-x,-y,-z
x,y,-z
-x,y,z
x,-y,z
1/2+x,1/2+y,1/2+z
1/2-x,1/2-y,1/2+z
1/2+x,1/2-y,1/2-z
1/2-x,1/2+y,1/2-z
1/2-x,1/2-y,1/2-z
1/2+x,1/2+y,1/2-z
1/2-x,1/2+y,1/2+z
1/2+x,1/2-y,1/2+z
loop_
_atom_site_type_symbol
_atom_site_label
_atom_site_fract_x
_atom_site_fract_y
_atom_site_fract_z
Si Si1 0.564265 0.230185 0.272783
Si Si2 0.658700 0.615202 0.694475
Si Si3 0.673134 0.883771 0.563955
Si Si4 0.747240 0.773951 0.118374
Si Si5 0.568210 0.251114 0.150053
Si Si6 0.668698 0.386456 0.822901
Si Si7 0.640899 0.120973 0.064661
Si Si8 0.562017 0.881788 0.622633
O O1 0.500000 0.276991 0.270697
O O2 0.601539 0.315805 0.304883
O O3 0.581532 0.197733 0.210074
O O4 0.568967 0.128549 0.310773
O O5 0.644260 0.500000 0.672847
O O6 0.707483 0.661801 0.654457
O O7 0.679369 0.609654 0.757559
O O8 0.660782 0.892127 0.500000
O O9 0.724424 0.804257 0.574641
O O10 0.616279 0.831999 0.591468
O O11 0.686563 0.000000 0.587373
O O12 0.711456 0.702358 0.159048
O O13 0.705325 0.850629 0.084848
O O14 0.500000 0.271444 0.139857
O O15 0.603566 0.358774 0.155611
O O16 0.592336 0.180709 0.100341
O O17 0.682500 0.500000 0.847749
O O18 0.631030 0.000000 0.073504
O O19 0.633614 0.151241 0.000000
O O20 0.500000 0.831641 0.604531
O O21 0.561050 0.000000 0.606131
#
# Coordination Sequence:
#
# PCOD8288634 Si02
#       8
#    16  16  16  16  16  16  16  16
#     4   9  17  32  51  76 106 134 165 206 257 312
#     4  10  19  31  49  75 103 135 173 211 250 301
#     4  10  20  32  49  74  99 129 172 214 254 303
#     4  11  19  34  52  72 101 135 174 214 258 298
#     4   9  19  34  55  79 103 130 165 208 254 307
#     4   9  19  33  51  76 106 135 163 200 253 311
#     4  10  22  38  54  74 102 138 178 218 260 303
#     4   9  17  30  48  71 100 131 162 203 255 308
#
# _framework density 17.689879999999999
#
# number of rings (size 3 to 8) (size 9 to 14) (size 15 to 20)
#    0.000    2.375    1.250    1.500    0.000    1.750 
#    0.000    5.625    0.000    3.375    0.000    3.500 
#    0.000    2.000    0.000    0.000    0.000    0.000 
#
# Total GULP energy -792889.485903 kJ/mol
# GULP energy per Si atom -12388.898217 kJ/mol
# Density = 1.764962 g / cm^3
# Si number density = 17.689880 Si / 1000 Ang^3
#
#
#
# Elastic Constant Matrix: (Units=GPa)
#
#
# Indices 1 2 3 4 5 6 
#
# 1 89.8012 24.9679 42.7808 0.0000 0.0000 0.0000
# 2 24.9679 65.6468 34.7885 0.0000 0.0000 0.0000
# 3 42.7808 34.7885 81.5280 0.0000 0.0000 0.0000
# 4 0.0000 0.0000 0.0000 21.6315 0.0000 0.0000
# 5 0.0000 0.0000 0.0000 0.0000 24.0838 0.0000
# 6 0.0000 0.0000 0.0000 0.0000 0.0000 16.5447
#
#
#
# Elastic Compliance Matrix: (Units=1/GPa)
#
#
# Indices 1 2 3 4 5 6 
#
# 1 0.015045 -0.001988 -0.007047 0.000000 0.000000 0.000000
# 2 -0.001988 0.019947 -0.007468 0.000000 0.000000 0.000000
# 3 -0.007047 -0.007468 0.019150 0.000000 0.000000 0.000000
# 4 0.000000 0.000000 0.000000 0.046229 0.000000 0.000000
# 5 0.000000 0.000000 0.000000 0.000000 0.041522 0.000000
# 6 0.000000 0.000000 0.000000 0.000000 0.000000 0.060442
#
#
# Mechanical properties :
#
#
# Convention : Reuss Voigt Hill
#
# Bulk Modulus (GPa) = 47.31137 49.11669 48.21403
# Shear Modulus (GPa) = 20.62823 21.41460 21.02142
#
# Velocity S-wave (km/s) = 3.41853 3.48308 3.45096
# Velocity P-wave (km/s) = 6.51036 6.63336 6.57215
#
# Compressibility (1/GPa) = 0.02113657
#
# Stress axis : x y z
#
# Youngs Moduli (GPa) = 66.46545 50.13324 52.21919
#
# Poissons Ratio (x) = 0.09967 0.36797
# Poissons Ratio (y) = 0.13214 0.38998
# Poissons Ratio (z) = 0.46835 0.37441
#
# Static dielectric constant tensor:
#      x y z
#    x 3.537050 0.000000 0.000000 
#    y 0.000000 3.307210 0.000000 
#    z 0.000000 0.000000 3.232430 
# 
# 
# High freq. dielectric constant tensor:
#      x y z
#    x 1.692760 0.000000 0.000000 
#    y 0.000000 1.670980 0.000000 
#    z 0.000000 0.000000 1.679000 
# 
# From -- ./inp_files/27899.got.cif
#   From: 2010.06.25/outbox.cif.g09.slc.cpg/sg71_14_cif.got.tgz:27899.got - 2010.06.28 04:59:45.
