data_PCOD8288787
_publ_section_title
;
Structure prediction by ZEFSAII (Michael W. Deem and Ramdas Pophale) SiO2 
 PCOD8288787
Probable space group: I M M M
;
_chemical_formula_sum "Si O2"
_cell_formula_units_Z 80
_cell_length_a 20.539473
_cell_length_b 23.464813
_cell_length_c 9.853410
_cell_angle_alpha 90.000000
_cell_angle_beta 90.000000
_cell_angle_gamma 90.000000
_cell_volume 4748.899163
_symmetry_space_group_name_H-M "I M M M"
_symmetry_group_IT_number 71
_symmetry_cell_setting 'orthorhombic'
loop_
_space_group_symop_operation_xyz
x,y,z
-x,-y,z
x,-y,-z
-x,y,-z
-x,-y,-z
x,y,-z
-x,y,z
x,-y,z
1/2+x,1/2+y,1/2+z
1/2-x,1/2-y,1/2+z
1/2+x,1/2-y,1/2-z
1/2-x,1/2+y,1/2-z
1/2-x,1/2-y,1/2-z
1/2+x,1/2+y,1/2-z
1/2-x,1/2+y,1/2+z
1/2+x,1/2-y,1/2+z
loop_
_atom_site_type_symbol
_atom_site_label
_atom_site_fract_x
_atom_site_fract_y
_atom_site_fract_z
Si Si1 0.301117 0.282604 0.657694
Si Si2 0.597633 0.121613 0.148356
Si Si3 0.070814 0.719591 0.153776
Si Si4 0.784048 0.500000 0.153400
Si Si5 0.572299 0.000000 0.259655
Si Si6 0.244370 0.399757 0.651363
O O1 0.286753 0.268384 0.500000
O O2 0.250000 0.250000 0.750000
O O3 0.373658 0.263400 0.702010
O O4 0.297113 0.350570 0.682583
O O5 0.566569 0.161768 0.260595
O O6 0.674679 0.130473 0.155480
O O7 0.577187 0.056027 0.167589
O O8 0.572151 0.140120 0.000000
O O9 0.000000 0.749954 0.165752
O O10 0.084763 0.700132 0.000000
O O11 0.863393 0.500000 0.144557
O O12 0.753244 0.446500 0.231291
O O13 0.757817 0.500000 0.000000
O O14 0.500000 0.000000 0.332402
O O15 0.255889 0.426254 0.500000
#
# Coordination Sequence:
#
# PCOD8288787 Si02
#       6
#    16  16  16   8   8  16
#     4  10  19  33  53  74  98 130 168 204 243 291
#     4  10  19  32  49  67  90 126 172 212 242 279
#     4  10  21  34  48  71 103 132 158 199 252 297
#     4  10  21  34  50  72  95 121 157 205 250 288
#     4  10  21  33  43  61  93 130 169 205 242 285
#     4   9  18  33  51  71  95 126 162 202 244 285
#
# _framework density 16.846008000000001
#
# number of rings (size 3 to 8) (size 9 to 14) (size 15 to 20)
#    0.000    2.200    2.000    1.200    0.000    8.600 
#    0.000    0.000    0.000    0.000    0.000    0.700 
#    0.000    5.600    0.000    0.000    0.000    0.000 
#
# Total GULP energy -495692.774678 kJ/mol
# GULP energy per Si atom -12392.319367 kJ/mol
# Density = 1.680767 g / cm^3
# Si number density = 16.846008 Si / 1000 Ang^3
#
#
#
# Elastic Constant Matrix: (Units=GPa)
#
#
# Indices 1 2 3 4 5 6 
#
# 1 96.4958 60.0410 40.0452 0.0000 0.0000 0.0000
# 2 60.0410 96.7269 55.9698 0.0000 0.0000 0.0000
# 3 40.0452 55.9698 107.7106 0.0000 0.0000 0.0000
# 4 0.0000 0.0000 0.0000 20.7359 0.0000 0.0000
# 5 0.0000 0.0000 0.0000 0.0000 11.6379 0.0000
# 6 0.0000 0.0000 0.0000 0.0000 0.0000 12.5787
#
#
#
# Elastic Compliance Matrix: (Units=1/GPa)
#
#
# Indices 1 2 3 4 5 6 
#
# 1 0.016991 -0.009855 -0.001196 0.000000 0.000000 0.000000
# 2 -0.009855 0.020499 -0.006988 0.000000 0.000000 0.000000
# 3 -0.001196 -0.006988 0.013360 0.000000 0.000000 0.000000
# 4 0.000000 0.000000 0.000000 0.048226 0.000000 0.000000
# 5 0.000000 0.000000 0.000000 0.000000 0.085926 0.000000
# 6 0.000000 0.000000 0.000000 0.000000 0.000000 0.079500
#
#
# Mechanical properties :
#
#
# Convention : Reuss Voigt Hill
#
# Bulk Modulus (GPa) = 67.69448 68.11613 67.90531
# Shear Modulus (GPa) = 16.36635 18.64896 17.50766
#
# Velocity S-wave (km/s) = 3.12031 3.33081 3.22728
# Velocity P-wave (km/s) = 7.29749 7.43739 7.36777
#
# Compressibility (1/GPa) = 0.01477225
#
# Stress axis : x y z
#
# Youngs Moduli (GPa) = 58.85334 48.78254 74.84945
#
# Poissons Ratio (x) = 0.48074 0.08954
# Poissons Ratio (y) = 0.57999 0.52306
# Poissons Ratio (z) = 0.07040 0.34090
#
# Static dielectric constant tensor:
#      x y z
#    x 3.256100 0.000000 0.000000 
#    y 0.000000 3.014550 0.000000 
#    z 0.000000 0.000000 3.158100 
# 
# 
# High freq. dielectric constant tensor:
#      x y z
#    x 1.631630 0.000000 0.000000 
#    y 0.000000 1.632380 0.000000 
#    z 0.000000 0.000000 1.651440 
# 
# From -- ./inp_files/8463.got.cif
#   From: 2010.06.25/outbox.cif.g09.slc.cpg/sg71_5_cif.got.tgz:8463.got - 2010.06.28 04:59:45.
