data_PCOD8288745
_publ_section_title
;
Structure prediction by ZEFSAII (Michael W. Deem and Ramdas Pophale) SiO2 
 PCOD8288745
Probable space group: I M M M
;
_chemical_formula_sum "Si O2"
_cell_formula_units_Z 96
_cell_length_a 28.805526
_cell_length_b 8.640666
_cell_length_c 20.470288
_cell_angle_alpha 90.000000
_cell_angle_beta 90.000000
_cell_angle_gamma 90.000000
_cell_volume 5095.032762
_symmetry_space_group_name_H-M "I M M M"
_symmetry_group_IT_number 71
_symmetry_cell_setting 'orthorhombic'
loop_
_space_group_symop_operation_xyz
x,y,z
-x,-y,z
x,-y,-z
-x,y,-z
-x,-y,-z
x,y,-z
-x,y,z
x,-y,z
1/2+x,1/2+y,1/2+z
1/2-x,1/2-y,1/2+z
1/2+x,1/2-y,1/2-z
1/2-x,1/2+y,1/2-z
1/2-x,1/2-y,1/2-z
1/2+x,1/2+y,1/2-z
1/2-x,1/2+y,1/2+z
1/2+x,1/2-y,1/2+z
loop_
_atom_site_type_symbol
_atom_site_label
_atom_site_fract_x
_atom_site_fract_y
_atom_site_fract_z
Si Si1 0.210165 0.821950 0.332436
Si Si2 0.126921 0.182103 0.574418
Si Si3 0.053335 0.317183 0.672038
Si Si4 0.596836 0.679431 0.302027
Si Si5 0.690317 0.826359 0.699375
Si Si6 0.052263 0.183608 0.930614
O O1 0.176331 0.774256 0.392011
O O2 0.265238 0.807403 0.349265
O O3 0.203473 0.700464 0.274630
O O4 0.199294 0.000000 0.310980
O O5 0.128349 0.243966 0.500000
O O6 0.082915 0.256169 0.610868
O O7 0.119376 0.000000 0.576078
O O8 0.053296 0.500000 0.669489
O O9 0.078318 0.265029 0.738304
O O10 0.000000 0.254914 0.668827
O O11 0.584847 0.500000 0.293145
O O12 0.651228 0.700710 0.315883
O O13 0.574652 0.757219 0.366374
O O14 0.670337 0.000000 0.693106
O O15 0.000000 0.241869 0.931966
O O16 0.055262 0.000000 0.924610
O O17 0.075832 0.235252 0.000000
#
# Coordination Sequence:
#
# PCOD8288745 Si02
#       6
#    16  16  16  16  16  16
#     4   9  18  34  54  78 105 138 177 217 262 316
#     4  10  21  38  60  83 108 142 187 235 280 330
#     4  11  24  39  55  79 111 145 184 232 284 336
#     4  11  20  32  54  83 111 142 181 226 273 321
#     4  10  19  31  52  80 110 140 173 215 264 317
#     4   8  15  29  49  73 101 135 176 220 265 313
#
# _framework density 18.841881000000001
#
# number of rings (size 3 to 8) (size 9 to 14) (size 15 to 20)
#    0.000    2.167    1.667    2.500    0.000    3.333 
#    0.000    2.500    0.000    3.000    0.000    5.833 
#    0.000    0.000    0.000    0.000    0.000    0.000 
#
# Total GULP energy -594717.608299 kJ/mol
# GULP energy per Si atom -12389.950173 kJ/mol
# Density = 1.879900 g / cm^3
# Si number density = 18.841881 Si / 1000 Ang^3
#
#
#
# Elastic Constant Matrix: (Units=GPa)
#
#
# Indices 1 2 3 4 5 6 
#
# 1 129.5601 21.3841 69.2748 0.0000 0.0000 0.0000
# 2 21.3841 31.4488 20.1527 0.0000 0.0000 0.0000
# 3 69.2748 20.1527 136.4020 0.0000 0.0000 0.0000
# 4 0.0000 0.0000 0.0000 8.6074 0.0000 0.0000
# 5 0.0000 0.0000 0.0000 0.0000 29.5108 0.0000
# 6 0.0000 0.0000 0.0000 0.0000 0.0000 23.3492
#
#
#
# Elastic Compliance Matrix: (Units=1/GPa)
#
#
# Indices 1 2 3 4 5 6 
#
# 1 0.011110 -0.004350 -0.005000 0.000000 0.000000 0.000000
# 2 -0.004350 0.036827 -0.003231 0.000000 0.000000 0.000000
# 3 -0.005000 -0.003231 0.010348 0.000000 0.000000 0.000000
# 4 0.000000 0.000000 0.000000 0.116178 0.000000 0.000000
# 5 0.000000 0.000000 0.000000 0.000000 0.033886 0.000000
# 6 0.000000 0.000000 0.000000 0.000000 0.000000 0.042828
#
#
# Mechanical properties :
#
#
# Convention : Reuss Voigt Hill
#
# Bulk Modulus (GPa) = 30.19216 57.67048 43.93132
# Shear Modulus (GPa) = 17.39857 24.73344 21.06600
#
# Velocity S-wave (km/s) = 3.04204 3.62703 3.34734
# Velocity P-wave (km/s) = 5.32893 6.94367 6.18918
#
# Compressibility (1/GPa) = 0.03312118
#
# Stress axis : x y z
#
# Youngs Moduli (GPa) = 90.01146 27.15428 96.63852
#
# Poissons Ratio (x) = 0.11813 0.48315
# Poissons Ratio (y) = 0.39159 0.31229
# Poissons Ratio (z) = 0.45002 0.08775
#
# Static dielectric constant tensor:
#      x y z
#    x 3.802630 0.000000 0.000000 
#    y 0.000000 3.242060 0.000000 
#    z 0.000000 0.000000 3.860330 
# 
# 
# High freq. dielectric constant tensor:
#      x y z
#    x 1.738920 0.000000 0.000000 
#    y 0.000000 1.715840 0.000000 
#    z 0.000000 0.000000 1.719820 
# 
# From -- ./inp_files/10810.got.cif
#   From: 2010.06.25/outbox.cif.g09.slc.cpg/sg71_6_cif.got.tgz:10810.got - 2010.06.28 04:59:45.
