data_PCOD8288402
_publ_section_title
;
Structure prediction by ZEFSAII (Michael W. Deem and Ramdas Pophale) SiO2 
 PCOD8288402
Probable space group: I M M M
;
_chemical_formula_sum "Si O2"
_cell_formula_units_Z 104
_cell_length_a 22.149859
_cell_length_b 30.033586
_cell_length_c 9.166212
_cell_angle_alpha 90.000000
_cell_angle_beta 90.000000
_cell_angle_gamma 90.000000
_cell_volume 6097.728077
_symmetry_space_group_name_H-M "I M M M"
_symmetry_group_IT_number 71
_symmetry_cell_setting 'orthorhombic'
loop_
_space_group_symop_operation_xyz
x,y,z
-x,-y,z
x,-y,-z
-x,y,-z
-x,-y,-z
x,y,-z
-x,y,z
x,-y,z
1/2+x,1/2+y,1/2+z
1/2-x,1/2-y,1/2+z
1/2+x,1/2-y,1/2-z
1/2-x,1/2+y,1/2-z
1/2-x,1/2-y,1/2-z
1/2+x,1/2+y,1/2-z
1/2-x,1/2+y,1/2+z
1/2+x,1/2-y,1/2+z
loop_
_atom_site_type_symbol
_atom_site_label
_atom_site_fract_x
_atom_site_fract_y
_atom_site_fract_z
Si Si1 0.886299 0.950011 0.332862
Si Si2 0.000000 0.053138 0.835462
Si Si3 0.150967 0.376241 0.172672
Si Si4 0.688365 0.703648 0.335240
Si Si5 0.831843 0.712096 0.665977
Si Si6 0.711252 0.620047 0.833380
Si Si7 0.929654 0.448816 0.669041
O O1 0.906818 0.948090 0.500000
O O2 0.940134 0.927512 0.240963
O O3 0.823075 0.925844 0.307178
O O4 0.874590 0.000000 0.279475
O O5 0.000000 0.000000 0.819980
O O6 0.000000 0.069870 0.000000
O O7 0.136382 0.329180 0.250870
O O8 0.219801 0.388553 0.213134
O O9 0.108727 0.415488 0.231639
O O10 0.140807 0.371103 0.000000
O O11 0.664171 0.703591 0.500000
O O12 0.760021 0.709355 0.330055
O O13 0.651997 0.742196 0.249498
O O14 0.675369 0.656498 0.260544
O O15 0.856017 0.713393 0.500000
O O16 0.709077 0.636576 0.000000
O O17 0.914510 0.439822 0.500000
O O18 0.913638 0.500000 0.709397
O O19 0.000000 0.439880 0.699701
#
# Coordination Sequence:
#
# PCOD8288402 Si02
#       7
#    16   8  16  16  16  16  16
#     4   9  17  30  47  65  88 122 161 194 226 272
#     4   9  17  29  45  65  87 111 147 195 235 263
#     4  10  19  30  47  73 101 125 155 197 242 285
#     4   9  16  26  42  65  93 123 156 193 231 273
#     4   9  16  27  44  65  92 125 157 189 228 277
#     4   9  18  30  44  67  99 130 158 191 236 290
#     4   9  19  36  54  70  92 126 167 206 244 292
#
# _framework density 17.055533
#
# number of rings (size 3 to 8) (size 9 to 14) (size 15 to 20)
#    0.000    2.846    0.000    2.077    0.000    7.077 
#    0.000    2.308    0.000    1.846    2.000    0.000 
#    0.000    0.000    0.000    0.000    0.000    0.000 
#
# Total GULP energy -644642.830491 kJ/mol
# GULP energy per Si atom -12396.977509 kJ/mol
# Density = 1.701671 g / cm^3
# Si number density = 17.055533 Si / 1000 Ang^3
#
#
#
# Elastic Constant Matrix: (Units=GPa)
#
#
# Indices 1 2 3 4 5 6 
#
# 1 57.1315 44.5312 39.7468 0.0000 0.0000 0.0000
# 2 44.5312 109.3680 65.6137 0.0000 0.0000 0.0000
# 3 39.7468 65.6137 115.0298 0.0000 0.0000 0.0000
# 4 0.0000 0.0000 0.0000 32.2904 0.0000 0.0000
# 5 0.0000 0.0000 0.0000 0.0000 20.8191 0.0000
# 6 0.0000 0.0000 0.0000 0.0000 0.0000 12.5298
#
#
#
# Elastic Compliance Matrix: (Units=1/GPa)
#
#
# Indices 1 2 3 4 5 6 
#
# 1 0.027207 -0.008267 -0.004685 0.000000 0.000000 0.000000
# 2 -0.008267 0.016412 -0.006505 0.000000 0.000000 0.000000
# 3 -0.004685 -0.006505 0.014023 0.000000 0.000000 0.000000
# 4 0.000000 0.000000 0.000000 0.030969 0.000000 0.000000
# 5 0.000000 0.000000 0.000000 0.000000 0.048033 0.000000
# 6 0.000000 0.000000 0.000000 0.000000 0.000000 0.079810
#
#
# Mechanical properties :
#
#
# Convention : Reuss Voigt Hill
#
# Bulk Modulus (GPa) = 53.39855 64.59028 58.99442
# Shear Modulus (GPa) = 19.11243 21.90370 20.50806
#
# Velocity S-wave (km/s) = 3.35117 3.58754 3.47137
# Velocity P-wave (km/s) = 6.80811 7.42384 7.12263
#
# Compressibility (1/GPa) = 0.01872710
#
# Stress axis : x y z
#
# Youngs Moduli (GPa) = 36.75570 60.93094 71.31182
#
# Poissons Ratio (x) = 0.50370 0.33413
# Poissons Ratio (y) = 0.30385 0.46389
# Poissons Ratio (z) = 0.17222 0.39636
#
# Static dielectric constant tensor:
#      x y z
#    x 2.856050 0.000000 0.000000 
#    y 0.000000 3.201510 0.000000 
#    z 0.000000 0.000000 3.299570 
# 
# 
# High freq. dielectric constant tensor:
#      x y z
#    x 1.617120 0.000000 0.000000 
#    y 0.000000 1.654280 0.000000 
#    z 0.000000 0.000000 1.667940 
# 
# From -- ./inp_files/13642.got.cif
#   From: 2010.06.25/outbox.cif.g09.slc.cpg/sg71_7_cif.got.tgz:13642.got - 2010.06.28 04:59:45.
