data_PCOD8288789
_publ_section_title
;
Structure prediction by ZEFSAII (Michael W. Deem and Ramdas Pophale) SiO2 
 PCOD8288789
Probable space group: I M M M
;
_chemical_formula_sum "Si O2"
_cell_formula_units_Z 104
_cell_length_a 27.311755
_cell_length_b 9.013074
_cell_length_c 24.423660
_cell_angle_alpha 90.000000
_cell_angle_beta 90.000000
_cell_angle_gamma 90.000000
_cell_volume 6012.198214
_symmetry_space_group_name_H-M "I M M M"
_symmetry_group_IT_number 71
_symmetry_cell_setting 'orthorhombic'
loop_
_space_group_symop_operation_xyz
x,y,z
-x,-y,z
x,-y,-z
-x,y,-z
-x,-y,-z
x,y,-z
-x,y,z
x,-y,z
1/2+x,1/2+y,1/2+z
1/2-x,1/2-y,1/2+z
1/2+x,1/2-y,1/2-z
1/2-x,1/2+y,1/2-z
1/2-x,1/2-y,1/2-z
1/2+x,1/2+y,1/2-z
1/2-x,1/2+y,1/2+z
1/2+x,1/2-y,1/2+z
loop_
_atom_site_type_symbol
_atom_site_label
_atom_site_fract_x
_atom_site_fract_y
_atom_site_fract_z
Si Si1 0.901775 0.175933 0.937555
Si Si2 0.270973 0.825010 0.803715
Si Si3 0.058086 0.833911 0.440006
Si Si4 0.500000 0.166990 0.435051
Si Si5 0.171345 0.826523 0.846990
Si Si6 0.057377 0.329081 0.666422
Si Si7 0.362267 0.675829 0.228576
O O1 0.857361 0.238013 0.899691
O O2 0.951631 0.248083 0.914480
O O3 0.907937 0.000000 0.933967
O O4 0.890752 0.225296 0.000000
O O5 0.250000 0.750000 0.750000
O O6 0.229962 0.793042 0.850943
O O7 0.323447 0.748533 0.814784
O O8 0.277714 0.000000 0.794915
O O9 0.077925 0.783837 0.500000
O O10 0.076554 0.721453 0.393490
O O11 0.000000 0.833697 0.441539
O O12 0.076919 0.000000 0.426328
O O13 0.500000 0.166492 0.500000
O O14 0.500000 0.000000 0.411446
O O15 0.149085 0.765096 0.789872
O O16 0.162067 0.000000 0.846340
O O17 0.070861 0.500000 0.673997
O O18 0.083928 0.232302 0.712797
O O19 0.000000 0.299003 0.673341
O O20 0.358771 0.500000 0.223897
#
# Coordination Sequence:
#
# PCOD8288789 Si02
#       7
#    16  16  16   8  16  16  16
#     4   9  16  29  50  71  92 122 160 199 238 286
#     4   9  16  29  49  70  93 117 148 193 237 283
#     4   8  14  26  45  67  89 116 152 189 223 266
#     4   9  17  29  43  63  93 125 157 193 234 277
#     4   8  16  30  48  72  94 115 152 197 240 287
#     4  10  20  32  46  67  97 128 158 196 238 283
#     4  10  19  32  49  68  93 126 162 198 240 290
#
# _framework density 17.298165999999998
#
# number of rings (size 3 to 8) (size 9 to 14) (size 15 to 20)
#    0.000    3.000    0.000    3.000    0.000    2.154 
#    1.385    6.154    0.000    0.923    0.000    2.154 
#    0.000    0.000    0.000    0.000    0.000    0.000 
#
# Total GULP energy -644329.351690 kJ/mol
# GULP energy per Si atom -12390.949071 kJ/mol
# Density = 1.725879 g / cm^3
# Si number density = 17.298166 Si / 1000 Ang^3
#
#
#
# Elastic Constant Matrix: (Units=GPa)
#
#
# Indices 1 2 3 4 5 6 
#
# 1 90.9850 40.2161 49.3071 0.0000 0.0000 0.0000
# 2 40.2161 74.0063 28.7790 0.0000 0.0000 0.0000
# 3 49.3071 28.7790 75.3174 0.0000 0.0000 0.0000
# 4 0.0000 0.0000 0.0000 18.2739 0.0000 0.0000
# 5 0.0000 0.0000 0.0000 0.0000 26.9805 0.0000
# 6 0.0000 0.0000 0.0000 0.0000 0.0000 27.3353
#
#
#
# Elastic Compliance Matrix: (Units=1/GPa)
#
#
# Indices 1 2 3 4 5 6 
#
# 1 0.019435 -0.006593 -0.010204 0.000000 0.000000 0.000000
# 2 -0.006593 0.018107 -0.002603 0.000000 0.000000 0.000000
# 3 -0.010204 -0.002603 0.020952 0.000000 0.000000 0.000000
# 4 0.000000 0.000000 0.000000 0.054723 0.000000 0.000000
# 5 0.000000 0.000000 0.000000 0.000000 0.037064 0.000000
# 6 0.000000 0.000000 0.000000 0.000000 0.000000 0.036583
#
#
# Mechanical properties :
#
#
# Convention : Reuss Voigt Hill
#
# Bulk Modulus (GPa) = 50.77562 52.99033 51.88298
# Shear Modulus (GPa) = 21.53065 22.65170 22.09117
#
# Velocity S-wave (km/s) = 3.53183 3.62261 3.57751
# Velocity P-wave (km/s) = 6.78591 6.94246 6.86463
#
# Compressibility (1/GPa) = 0.01969449
#
# Stress axis : x y z
#
# Youngs Moduli (GPa) = 51.45422 55.22653 47.72902
#
# Poissons Ratio (x) = 0.36412 0.48702
# Poissons Ratio (y) = 0.33924 0.12422
# Poissons Ratio (z) = 0.52503 0.14373
#
# Static dielectric constant tensor:
#      x y z
#    x 3.401570 0.000000 0.000000 
#    y 0.000000 3.231510 0.000000 
#    z 0.000000 0.000000 3.283450 
# 
# 
# High freq. dielectric constant tensor:
#      x y z
#    x 1.657720 0.000000 0.000000 
#    y 0.000000 1.661870 0.000000 
#    z 0.000000 0.000000 1.641790 
# 
# From -- ./inp_files/17272.got.cif
#   From: 2010.06.25/outbox.cif.g09.slc.cpg/sg71_9_cif.got.tgz:17272.got - 2010.06.28 04:59:45.
