data_PCOD8288836
_publ_section_title
;
Structure prediction by ZEFSAII (Michael W. Deem and Ramdas Pophale) SiO2 
 PCOD8288836
Probable space group: I M M M
;
_chemical_formula_sum "Si O2"
_cell_formula_units_Z 96
_cell_length_a 32.472438
_cell_length_b 13.364368
_cell_length_c 12.593537
_cell_angle_alpha 90.000000
_cell_angle_beta 90.000000
_cell_angle_gamma 90.000000
_cell_volume 5465.262731
_symmetry_space_group_name_H-M "I M M M"
_symmetry_group_IT_number 71
_symmetry_cell_setting 'orthorhombic'
loop_
_space_group_symop_operation_xyz
x,y,z
-x,-y,z
x,-y,-z
-x,y,-z
-x,-y,-z
x,y,-z
-x,y,z
x,-y,z
1/2+x,1/2+y,1/2+z
1/2-x,1/2-y,1/2+z
1/2+x,1/2-y,1/2-z
1/2-x,1/2+y,1/2-z
1/2-x,1/2-y,1/2-z
1/2+x,1/2+y,1/2-z
1/2-x,1/2+y,1/2+z
1/2+x,1/2-y,1/2+z
loop_
_atom_site_type_symbol
_atom_site_label
_atom_site_fract_x
_atom_site_fract_y
_atom_site_fract_z
Si Si1 0.754835 0.110961 0.125138
Si Si2 0.917862 0.777078 0.875581
Si Si3 0.841293 0.117180 0.218992
Si Si4 0.173569 0.715783 0.374559
Si Si5 0.596131 0.884282 0.203312
Si Si6 0.046377 0.380977 0.500000
Si Si7 0.500000 0.388591 0.374329
O O1 0.799830 0.148791 0.157889
O O2 0.719509 0.187007 0.165038
O O3 0.746801 0.000000 0.172962
O O4 0.752947 0.105035 0.000000
O O5 0.879735 0.850788 0.853169
O O6 0.914060 0.674097 0.811230
O O7 0.959360 0.830890 0.835917
O O8 0.919298 0.750879 0.000000
O O9 0.840616 0.176631 0.330018
O O10 0.843994 0.000000 0.243403
O O11 0.170517 0.721451 0.500000
O O12 0.143597 0.629880 0.329596
O O13 0.587076 0.000000 0.225935
O O14 0.568581 0.841396 0.106336
O O15 0.048137 0.500000 0.500000
O O16 0.000000 0.339884 0.500000
O O17 0.500000 0.500000 0.324432
O O18 0.500000 0.396804 0.500000
#
# Coordination Sequence:
#
# PCOD8288836 Si02
#       7
#    16  16  16  16  16   8   8
#     4   9  17  29  49  74  98 126 164 210 256 304
#     4  10  21  35  53  78 105 134 171 212 259 309
#     4  10  20  33  50  73 100 133 171 213 258 302
#     4  10  19  32  50  73 101 134 171 211 253 303
#     4  10  20  34  54  78 106 138 171 210 255 304
#     4   9  18  32  52  76 100 134 174 208 244 291
#     4   9  18  34  55  76  99 132 173 214 251 296
#
# _framework density 17.565486
#
# number of rings (size 3 to 8) (size 9 to 14) (size 15 to 20)
#    0.000    2.333    0.833    2.000    1.167    3.000 
#    0.000    0.000    0.000    1.500    0.000    5.250 
#    0.000    0.000    0.000    0.000    0.000    0.000 
#
# Total GULP energy -595160.189594 kJ/mol
# GULP energy per Si atom -12399.170617 kJ/mol
# Density = 1.752551 g / cm^3
# Si number density = 17.565486 Si / 1000 Ang^3
#
#
#
# Elastic Constant Matrix: (Units=GPa)
#
#
# Indices 1 2 3 4 5 6 
#
# 1 143.7515 49.6772 46.8026 0.0000 0.0000 0.0000
# 2 49.6772 85.9262 41.4897 0.0000 0.0000 0.0000
# 3 46.8026 41.4897 77.5045 0.0000 0.0000 0.0000
# 4 0.0000 0.0000 0.0000 13.9777 0.0000 0.0000
# 5 0.0000 0.0000 0.0000 0.0000 23.5133 0.0000
# 6 0.0000 0.0000 0.0000 0.0000 0.0000 16.3121
#
#
#
# Elastic Compliance Matrix: (Units=1/GPa)
#
#
# Indices 1 2 3 4 5 6 
#
# 1 0.009436 -0.003647 -0.003746 0.000000 0.000000 0.000000
# 2 -0.003647 0.017104 -0.006954 0.000000 0.000000 0.000000
# 3 -0.003746 -0.006954 0.018887 0.000000 0.000000 0.000000
# 4 0.000000 0.000000 0.000000 0.071543 0.000000 0.000000
# 5 0.000000 0.000000 0.000000 0.000000 0.042529 0.000000
# 6 0.000000 0.000000 0.000000 0.000000 0.000000 0.061304
#
#
# Mechanical properties :
#
#
# Convention : Reuss Voigt Hill
#
# Bulk Modulus (GPa) = 59.75885 64.79124 62.27505
# Shear Modulus (GPa) = 19.60208 22.04147 20.82178
#
# Velocity S-wave (km/s) = 3.34420 3.54618 3.44667
# Velocity P-wave (km/s) = 7.00043 7.33027 7.16725
#
# Compressibility (1/GPa) = 0.01673392
#
# Stress axis : x y z
#
# Youngs Moduli (GPa) = 105.97342 58.46620 52.94572
#
# Poissons Ratio (x) = 0.21321 0.19834
# Poissons Ratio (y) = 0.38645 0.36818
# Poissons Ratio (z) = 0.39700 0.40657
#
# Static dielectric constant tensor:
#      x y z
#    x 3.556110 0.000000 0.000000 
#    y 0.000000 3.165710 0.000000 
#    z 0.000000 0.000000 3.062270 
# 
# 
# High freq. dielectric constant tensor:
#      x y z
#    x 1.697720 0.000000 0.000000 
#    y 0.000000 1.667620 0.000000 
#    z 0.000000 0.000000 1.663580 
# 
# From -- ./inp_files/29988.got.cif
#   From: 2010.06.25/outbox.cif.g09.slc.cpg/sg71_15_cif.got.tgz:29988.got - 2010.06.28 04:59:45.
