data_PCOD8288954
_publ_section_title
;
Structure prediction by ZEFSAII (Michael W. Deem and Ramdas Pophale) SiO2 
 PCOD8288954
Probable space group: I M M M
;
_chemical_formula_sum "Si O2"
_cell_formula_units_Z 104
_cell_length_a 26.215955
_cell_length_b 23.967728
_cell_length_c 9.036775
_cell_angle_alpha 90.000000
_cell_angle_beta 90.000000
_cell_angle_gamma 90.000000
_cell_volume 5678.138997
_symmetry_space_group_name_H-M "I M M M"
_symmetry_group_IT_number 71
_symmetry_cell_setting 'orthorhombic'
loop_
_space_group_symop_operation_xyz
x,y,z
-x,-y,z
x,-y,-z
-x,y,-z
-x,-y,-z
x,y,-z
-x,y,z
x,-y,z
1/2+x,1/2+y,1/2+z
1/2-x,1/2-y,1/2+z
1/2+x,1/2-y,1/2-z
1/2-x,1/2+y,1/2-z
1/2-x,1/2-y,1/2-z
1/2+x,1/2+y,1/2-z
1/2-x,1/2+y,1/2+z
1/2+x,1/2-y,1/2+z
loop_
_atom_site_type_symbol
_atom_site_label
_atom_site_fract_x
_atom_site_fract_y
_atom_site_fract_z
Si Si1 0.000000 0.433543 0.333963
Si Si2 0.714492 0.647166 0.171168
Si Si3 0.630407 0.736297 0.172890
Si Si4 0.440117 0.349652 0.326816
Si Si5 0.673067 0.840898 0.327752
Si Si6 0.630063 0.564445 0.175685
Si Si7 0.098234 0.437462 0.830224
O O1 0.050849 0.410264 0.256941
O O2 0.000000 0.500000 0.321717
O O3 0.000000 0.411373 0.500000
O O4 0.682552 0.702788 0.201809
O O5 0.770252 0.654595 0.244331
O O6 0.682581 0.593814 0.231371
O O7 0.724602 0.636607 0.000000
O O8 0.583652 0.705532 0.253029
O O9 0.638338 0.797166 0.240135
O O10 0.617508 0.740318 0.000000
O O11 0.427330 0.349400 0.500000
O O12 0.500000 0.349130 0.296002
O O13 0.417543 0.405880 0.254411
O O14 0.674310 0.823191 0.500000
O O15 0.648583 0.901411 0.304227
O O16 0.631473 0.500000 0.222189
O O17 0.623549 0.572576 0.000000
O O18 0.110746 0.500000 0.774176
O O19 0.081621 0.437997 0.000000
#
# Coordination Sequence:
#
# PCOD8288954 Si02
#       7
#     8  16  16  16  16  16  16
#     4   9  17  31  51  69  89 123 161 197 240 289
#     4   8  16  31  51  75 104 138 173 209 252 301
#     4  10  20  35  54  76 103 135 173 216 262 314
#     4  10  21  37  56  77 104 139 178 223 271 316
#     4  10  19  32  52  78 105 135 172 213 256 305
#     4   9  18  33  54  81 112 145 180 217 259 311
#     4   9  18  32  50  73 100 130 164 203 248 298
#
# _framework density 18.315861000000002
#
# number of rings (size 3 to 8) (size 9 to 14) (size 15 to 20)
#    0.000    2.692    0.000    2.538    0.000    4.000 
#    1.385    7.692    0.000    0.000    0.000    4.308 
#    0.000    0.000    0.000    0.000    0.000    0.000 
#
# Total GULP energy -644733.867892 kJ/mol
# GULP energy per Si atom -12398.728229 kJ/mol
# Density = 1.827417 g / cm^3
# Si number density = 18.315861 Si / 1000 Ang^3
#
#
#
# Elastic Constant Matrix: (Units=GPa)
#
#
# Indices 1 2 3 4 5 6 
#
# 1 99.0875 51.2524 43.8500 0.0000 0.0000 0.0000
# 2 51.2524 109.9156 42.8708 0.0000 0.0000 0.0000
# 3 43.8500 42.8708 70.4350 0.0000 0.0000 0.0000
# 4 0.0000 0.0000 0.0000 26.4902 0.0000 0.0000
# 5 0.0000 0.0000 0.0000 0.0000 20.9569 0.0000
# 6 0.0000 0.0000 0.0000 0.0000 0.0000 17.4682
#
#
#
# Elastic Compliance Matrix: (Units=1/GPa)
#
#
# Indices 1 2 3 4 5 6 
#
# 1 0.015482 -0.004537 -0.006877 0.000000 0.000000 0.000000
# 2 -0.004537 0.013259 -0.005246 0.000000 0.000000 0.000000
# 3 -0.006877 -0.005246 0.021672 0.000000 0.000000 0.000000
# 4 0.000000 0.000000 0.000000 0.037750 0.000000 0.000000
# 5 0.000000 0.000000 0.000000 0.000000 0.047717 0.000000
# 6 0.000000 0.000000 0.000000 0.000000 0.000000 0.057247
#
#
# Mechanical properties :
#
#
# Convention : Reuss Voigt Hill
#
# Bulk Modulus (GPa) = 58.50170 61.70938 60.10554
# Shear Modulus (GPa) = 21.53825 22.41407 21.97616
#
# Velocity S-wave (km/s) = 3.43291 3.50201 3.46763
# Velocity P-wave (km/s) = 6.90818 7.07934 6.99428
#
# Compressibility (1/GPa) = 0.01709352
#
# Stress axis : x y z
#
# Youngs Moduli (GPa) = 64.59057 75.41766 46.14250
#
# Poissons Ratio (x) = 0.34216 0.31733
# Poissons Ratio (y) = 0.29304 0.24207
# Poissons Ratio (z) = 0.44420 0.39565
#
# Static dielectric constant tensor:
#      x y z
#    x 3.458060 0.000000 0.000000 
#    y 0.000000 3.328890 0.000000 
#    z 0.000000 0.000000 3.263980 
# 
# 
# High freq. dielectric constant tensor:
#      x y z
#    x 1.713800 0.000000 0.000000 
#    y 0.000000 1.703220 0.000000 
#    z 0.000000 0.000000 1.695330 
# 
# From -- ./inp_files/15001.got.cif
#   From: 2010.06.25/outbox.cif.g09.slc.cpg/sg71_8_cif.got.tgz:15001.got - 2010.06.28 04:59:45.
