data_PCOD8288689
_publ_section_title
;
Structure prediction by ZEFSAII (Michael W. Deem and Ramdas Pophale) SiO2 
 PCOD8288689
Probable space group: I M M M
;
_chemical_formula_sum "Si O2"
_cell_formula_units_Z 104
_cell_length_a 29.731726
_cell_length_b 9.408429
_cell_length_c 20.142641
_cell_angle_alpha 90.000000
_cell_angle_beta 90.000000
_cell_angle_gamma 90.000000
_cell_volume 5634.477463
_symmetry_space_group_name_H-M "I M M M"
_symmetry_group_IT_number 71
_symmetry_cell_setting 'orthorhombic'
loop_
_space_group_symop_operation_xyz
x,y,z
-x,-y,z
x,-y,-z
-x,y,-z
-x,-y,-z
x,y,-z
-x,y,z
x,-y,z
1/2+x,1/2+y,1/2+z
1/2-x,1/2-y,1/2+z
1/2+x,1/2-y,1/2-z
1/2-x,1/2+y,1/2-z
1/2-x,1/2-y,1/2-z
1/2+x,1/2+y,1/2-z
1/2-x,1/2+y,1/2+z
1/2+x,1/2-y,1/2+z
loop_
_atom_site_type_symbol
_atom_site_label
_atom_site_fract_x
_atom_site_fract_y
_atom_site_fract_z
Si Si1 0.183579 0.342634 0.000000
Si Si2 0.500000 0.840844 0.078954
Si Si3 0.083777 0.837069 0.578301
Si Si4 0.835298 0.658346 0.384016
Si Si5 0.051891 0.833177 0.923234
Si Si6 0.728913 0.165048 0.000000
Si Si7 0.794975 0.340914 0.240153
Si Si8 0.631461 0.163949 0.634214
O O1 0.222977 0.232348 0.000000
O O2 0.153275 0.316722 0.936814
O O3 0.204561 0.500000 0.000000
O O4 0.457411 0.755025 0.105372
O O5 0.500000 0.000000 0.108542
O O6 0.500000 0.845304 0.000000
O O7 0.090293 0.819183 0.500000
O O8 0.126385 0.775678 0.615711
O O9 0.076079 0.000000 0.598183
O O10 0.852201 0.500000 0.406404
O O11 0.797206 0.713422 0.434136
O O12 0.817583 0.650437 0.310781
O O13 0.084647 0.751755 0.870800
O O14 0.000000 0.796384 0.905278
O O15 0.060770 0.000000 0.914648
O O16 0.061210 0.788408 0.000000
O O17 0.737726 0.000000 0.000000
O O18 0.781415 0.500000 0.215963
O O19 0.750000 0.250000 0.250000
O O20 0.832185 0.277035 0.188628
O O21 0.619888 0.000000 0.650933
#
# Coordination Sequence:
#
# PCOD8288689 Si02
#       8
#     8   8  16  16  16   8  16  16
#     4  10  20  32  49  75 107 136 168 212 262 313
#     4   9  17  29  49  75 105 139 169 204 257 314
#     4  10  19  31  50  78 106 132 167 214 262 309
#     4  10  20  35  53  74 102 137 177 221 266 317
#     4   9  18  33  55  85 116 144 179 225 274 326
#     4  10  20  32  50  74 100 132 176 223 263 311
#     4  10  22  38  56  78 108 144 184 226 271 327
#     4  10  20  35  54  80 111 144 181 222 269 326
#
# _framework density 18.457789999999999
#
# number of rings (size 3 to 8) (size 9 to 14) (size 15 to 20)
#    0.000    2.231    1.538    2.077    0.000    4.308 
#    0.000    0.769    1.692    0.000    0.000    0.000 
#    0.000    0.000    0.000    0.000    0.000    0.000 
#
# Total GULP energy -644587.716013 kJ/mol
# GULP energy per Si atom -12395.917616 kJ/mol
# Density = 1.841578 g / cm^3
# Si number density = 18.457790 Si / 1000 Ang^3
#
#
#
# Elastic Constant Matrix: (Units=GPa)
#
#
# Indices 1 2 3 4 5 6 
#
# 1 130.0912 69.1319 30.2182 0.0000 0.0000 0.0000
# 2 69.1319 95.6966 18.6122 0.0000 0.0000 0.0000
# 3 30.2182 18.6122 72.9650 0.0000 0.0000 0.0000
# 4 0.0000 0.0000 0.0000 25.2560 0.0000 0.0000
# 5 0.0000 0.0000 0.0000 0.0000 31.3987 0.0000
# 6 0.0000 0.0000 0.0000 0.0000 0.0000 66.4128
#
#
#
# Elastic Compliance Matrix: (Units=1/GPa)
#
#
# Indices 1 2 3 4 5 6 
#
# 1 0.013142 -0.008876 -0.003179 0.000000 0.000000 0.000000
# 2 -0.008876 0.016989 -0.000658 0.000000 0.000000 0.000000
# 3 -0.003179 -0.000658 0.015189 0.000000 0.000000 0.000000
# 4 0.000000 0.000000 0.000000 0.039595 0.000000 0.000000
# 5 0.000000 0.000000 0.000000 0.000000 0.031848 0.000000
# 6 0.000000 0.000000 0.000000 0.000000 0.000000 0.015057
#
#
# Mechanical properties :
#
#
# Convention : Reuss Voigt Hill
#
# Bulk Modulus (GPa) = 50.26024 59.40860 54.83442
# Shear Modulus (GPa) = 30.51060 36.66618 33.58839
#
# Velocity S-wave (km/s) = 4.07011 4.46184 4.27047
# Velocity P-wave (km/s) = 7.02686 7.66812 7.35448
#
# Compressibility (1/GPa) = 0.01989644
#
# Stress axis : x y z
#
# Youngs Moduli (GPa) = 76.09290 58.86017 65.83519
#
# Poissons Ratio (x) = 0.52242 0.20927
# Poissons Ratio (y) = 0.67537 0.04332
# Poissons Ratio (z) = 0.24187 0.03873
#
# Static dielectric constant tensor:
#      x y z
#    x 3.446530 0.000000 0.000000 
#    y 0.000000 3.589040 0.000000 
#    z 0.000000 0.000000 3.221220 
# 
# 
# High freq. dielectric constant tensor:
#      x y z
#    x 1.721030 0.000000 0.000000 
#    y 0.000000 1.715640 0.000000 
#    z 0.000000 0.000000 1.693910 
# 
# From -- ./inp_files/56753.got.cif
#   From: 2010.06.25/outbox.cif.g09.slc.cpg/sg71_29_cif.got.tgz:56753.got - 2010.06.28 04:59:45.
