data_PCOD8288507
_publ_section_title
;
Structure prediction by ZEFSAII (Michael W. Deem and Ramdas Pophale) SiO2 
 PCOD8288507
Probable space group: I M M M
;
_chemical_formula_sum "Si O2"
_cell_formula_units_Z 88
_cell_length_a 30.120675
_cell_length_b 9.125269
_cell_length_c 19.995179
_cell_angle_alpha 90.000000
_cell_angle_beta 90.000000
_cell_angle_gamma 90.000000
_cell_volume 5495.860140
_symmetry_space_group_name_H-M "I M M M"
_symmetry_group_IT_number 71
_symmetry_cell_setting 'orthorhombic'
loop_
_space_group_symop_operation_xyz
x,y,z
-x,-y,z
x,-y,-z
-x,y,-z
-x,-y,-z
x,y,-z
-x,y,z
x,-y,z
1/2+x,1/2+y,1/2+z
1/2-x,1/2-y,1/2+z
1/2+x,1/2-y,1/2-z
1/2-x,1/2+y,1/2-z
1/2-x,1/2-y,1/2-z
1/2+x,1/2+y,1/2-z
1/2-x,1/2+y,1/2+z
1/2+x,1/2-y,1/2+z
loop_
_atom_site_type_symbol
_atom_site_label
_atom_site_fract_x
_atom_site_fract_y
_atom_site_fract_z
Si Si1 0.052449 0.835512 0.000000
Si Si2 0.231639 0.172295 0.427261
Si Si3 0.948494 0.329357 0.134702
Si Si4 0.679962 0.662758 0.573489
Si Si5 0.623688 0.667203 0.299447
Si Si6 0.292415 0.325846 0.215941
O O1 0.067045 0.749275 0.066519
O O2 0.000000 0.848664 0.000000
O O3 0.073494 0.000000 0.000000
O O4 0.214581 0.235367 0.500000
O O5 0.281490 0.221990 0.413078
O O6 0.202942 0.219852 0.362527
O O7 0.232084 0.000000 0.431962
O O8 0.938165 0.500000 0.126705
O O9 0.920973 0.265035 0.198701
O O10 0.000000 0.300413 0.150411
O O11 0.658702 0.686273 0.500000
O O12 0.700934 0.500000 0.580217
O O13 0.641342 0.684352 0.625714
O O14 0.611390 0.500000 0.281346
O O15 0.661416 0.727404 0.248955
O O16 0.286461 0.500000 0.225801
O O17 0.250000 0.250000 0.250000
#
# Coordination Sequence:
#
# PCOD8288507 Si02
#       6
#     8  16  16  16  16  16
#     4   9  17  31  51  69  87 117 153 191 235 275
#     4   9  17  29  45  64  88 120 154 187 224 266
#     4  10  21  35  48  65  89 116 151 194 236 277
#     4   9  17  28  41  60  87 117 150 187 222 261
#     4  10  20  31  45  65  87 118 156 191 231 276
#     4  10  19  31  46  66  93 122 154 190 227 273
#
# _framework density 16.012052000000001
#
# number of rings (size 3 to 8) (size 9 to 14) (size 15 to 20)
#    0.000    2.455    1.818    0.818    1.273    3.636 
#    0.000    0.000    0.000    0.000    0.000    0.000 
#    0.000    0.727    0.000    9.091    0.000    1.455 
#
# Total GULP energy -545200.851502 kJ/mol
# GULP energy per Si atom -12390.928443 kJ/mol
# Density = 1.597561 g / cm^3
# Si number density = 16.012052 Si / 1000 Ang^3
#
#
#
# Elastic Constant Matrix: (Units=GPa)
#
#
# Indices 1 2 3 4 5 6 
#
# 1 70.2792 33.9076 43.1758 0.0000 0.0000 0.0000
# 2 33.9076 46.8871 35.5366 0.0000 0.0000 0.0000
# 3 43.1758 35.5366 82.9165 0.0000 0.0000 0.0000
# 4 0.0000 0.0000 0.0000 16.6302 0.0000 0.0000
# 5 0.0000 0.0000 0.0000 0.0000 28.3588 0.0000
# 6 0.0000 0.0000 0.0000 0.0000 0.0000 24.2204
#
#
#
# Elastic Compliance Matrix: (Units=1/GPa)
#
#
# Indices 1 2 3 4 5 6 
#
# 1 0.024813 -0.012073 -0.007746 0.000000 0.000000 0.000000
# 2 -0.012073 0.037463 -0.009770 0.000000 0.000000 0.000000
# 3 -0.007746 -0.009770 0.020281 0.000000 0.000000 0.000000
# 4 0.000000 0.000000 0.000000 0.060131 0.000000 0.000000
# 5 0.000000 0.000000 0.000000 0.000000 0.035262 0.000000
# 6 0.000000 0.000000 0.000000 0.000000 0.000000 0.041287
#
#
# Mechanical properties :
#
#
# Convention : Reuss Voigt Hill
#
# Bulk Modulus (GPa) = 42.77228 47.25806 45.01517
# Shear Modulus (GPa) = 17.46981 19.67274 18.57128
#
# Velocity S-wave (km/s) = 3.30668 3.50897 3.40932
# Velocity P-wave (km/s) = 6.43035 6.78198 6.60850
#
# Compressibility (1/GPa) = 0.02337963
#
# Stress axis : x y z
#
# Youngs Moduli (GPa) = 40.30225 26.69283 49.30778
#
# Poissons Ratio (x) = 0.32226 0.38193
# Poissons Ratio (y) = 0.48657 0.48171
# Poissons Ratio (z) = 0.31218 0.26078
#
# Static dielectric constant tensor:
#      x y z
#    x 2.859770 0.000000 0.000000 
#    y 0.000000 3.102720 0.000000 
#    z 0.000000 0.000000 3.422930 
# 
# 
# High freq. dielectric constant tensor:
#      x y z
#    x 1.589020 0.000000 0.000000 
#    y 0.000000 1.616120 0.000000 
#    z 0.000000 0.000000 1.600680 
# 
# From -- ./inp_files/10927.got.cif
#   From: 2010.06.25/outbox.cif.g09.slc.cpg/sg71_6_cif.got.tgz:10927.got - 2010.06.28 04:59:45.
