data_PCOD8288546
_publ_section_title
;
Structure prediction by ZEFSAII (Michael W. Deem and Ramdas Pophale) SiO2 
 PCOD8288546
Probable space group: I M M M
;
_chemical_formula_sum "Si O2"
_cell_formula_units_Z 88
_cell_length_a 29.631129
_cell_length_b 13.971260
_cell_length_c 12.720069
_cell_angle_alpha 90.000000
_cell_angle_beta 90.000000
_cell_angle_gamma 90.000000
_cell_volume 5265.907682
_symmetry_space_group_name_H-M "I M M M"
_symmetry_group_IT_number 71
_symmetry_cell_setting 'orthorhombic'
loop_
_space_group_symop_operation_xyz
x,y,z
-x,-y,z
x,-y,-z
-x,y,-z
-x,-y,-z
x,y,-z
-x,y,z
x,-y,z
1/2+x,1/2+y,1/2+z
1/2-x,1/2-y,1/2+z
1/2+x,1/2-y,1/2-z
1/2-x,1/2+y,1/2-z
1/2-x,1/2-y,1/2-z
1/2+x,1/2+y,1/2-z
1/2-x,1/2+y,1/2+z
1/2+x,1/2-y,1/2+z
loop_
_atom_site_type_symbol
_atom_site_label
_atom_site_fract_x
_atom_site_fract_y
_atom_site_fract_z
Si Si1 0.896170 0.782666 0.183260
Si Si2 0.633902 0.610579 0.881424
Si Si3 0.233992 0.889239 0.689094
Si Si4 0.552108 0.612948 0.500000
Si Si5 0.551973 0.108061 0.621502
Si Si6 0.793833 0.223699 0.882448
O O1 0.895339 0.827814 0.299709
O O2 0.924951 0.848750 0.105710
O O3 0.918824 0.678427 0.193805
O O4 0.846607 0.769763 0.138073
O O5 0.623923 0.500000 0.857269
O O6 0.687080 0.630753 0.870029
O O7 0.619358 0.638010 0.000000
O O8 0.229918 0.855263 0.809581
O O9 0.273116 0.829264 0.632950
O O10 0.247826 0.000000 0.685372
O O11 0.557475 0.500000 0.500000
O O12 0.500000 0.645415 0.500000
O O13 0.558358 0.138345 0.500000
O O14 0.500000 0.116528 0.654108
O O15 0.569128 0.000000 0.639423
O O16 0.785100 0.188045 0.000000
#
# Coordination Sequence:
#
# PCOD8288546 Si02
#       6
#    16  16  16   8  16  16
#     4  11  19  32  51  77 104 132 166 213 260 305
#     4   9  18  33  52  73  98 135 177 210 247 302
#     4   9  19  33  49  69  98 137 172 206 250 296
#     4  11  22  34  51  77 107 135 162 202 263 325
#     4   9  17  30  49  72  99 131 164 198 246 309
#     4  10  19  31  47  74 103 129 168 212 254 301
#
# _framework density 16.711269000000001
#
# number of rings (size 3 to 8) (size 9 to 14) (size 15 to 20)
#    0.000    2.273    1.818    2.182    0.000    2.909 
#    0.000    0.000    0.000    2.727    0.000    7.636 
#    0.000    0.000    0.000    0.000    0.000    0.000 
#
# Total GULP energy -545645.978871 kJ/mol
# GULP energy per Si atom -12401.044974 kJ/mol
# Density = 1.667323 g / cm^3
# Si number density = 16.711269 Si / 1000 Ang^3
#
#
#
# Elastic Constant Matrix: (Units=GPa)
#
#
# Indices 1 2 3 4 5 6 
#
# 1 73.3650 40.1878 40.9687 0.0000 0.0000 0.0000
# 2 40.1878 86.9287 46.0930 0.0000 0.0000 0.0000
# 3 40.9687 46.0930 122.7700 0.0000 0.0000 0.0000
# 4 0.0000 0.0000 0.0000 22.7972 0.0000 0.0000
# 5 0.0000 0.0000 0.0000 0.0000 22.7269 0.0000
# 6 0.0000 0.0000 0.0000 0.0000 0.0000 32.7975
#
#
#
# Elastic Compliance Matrix: (Units=1/GPa)
#
#
# Indices 1 2 3 4 5 6 
#
# 1 0.019664 -0.007006 -0.003931 0.000000 0.000000 0.000000
# 2 -0.007006 0.016859 -0.003992 0.000000 0.000000 0.000000
# 3 -0.003931 -0.003992 0.010956 0.000000 0.000000 0.000000
# 4 0.000000 0.000000 0.000000 0.043865 0.000000 0.000000
# 5 0.000000 0.000000 0.000000 0.000000 0.044001 0.000000
# 6 0.000000 0.000000 0.000000 0.000000 0.000000 0.030490
#
#
# Mechanical properties :
#
#
# Convention : Reuss Voigt Hill
#
# Bulk Modulus (GPa) = 56.75264 59.72920 58.24092
# Shear Modulus (GPa) = 24.80571 26.05194 25.42882
#
# Velocity S-wave (km/s) = 3.85693 3.95263 3.90507
# Velocity P-wave (km/s) = 7.33955 7.52665 7.43369
#
# Compressibility (1/GPa) = 0.01762033
#
# Stress axis : x y z
#
# Youngs Moduli (GPa) = 50.85526 59.31484 91.27502
#
# Poissons Ratio (x) = 0.41556 0.35884
# Poissons Ratio (y) = 0.35629 0.36434
# Poissons Ratio (z) = 0.19994 0.23677
#
# Static dielectric constant tensor:
#      x y z
#    x 3.066750 0.000000 0.000000 
#    y 0.000000 3.194200 0.000000 
#    z 0.000000 0.000000 3.129360 
# 
# 
# High freq. dielectric constant tensor:
#      x y z
#    x 1.635130 0.000000 0.000000 
#    y 0.000000 1.649750 0.000000 
#    z 0.000000 0.000000 1.633020 
# 
# From -- ./inp_files/28593.got.cif
#   From: 2010.06.25/outbox.cif.g09.slc.cpg/sg71_15_cif.got.tgz:28593.got - 2010.06.28 04:59:45.
