data_PCOD8288194
_publ_section_title
;
Structure prediction by ZEFSAII (Michael W. Deem and Ramdas Pophale) SiO2 
 PCOD8288194
Probable space group: I M M M
;
_chemical_formula_sum "Si O2"
_cell_formula_units_Z 88
_cell_length_a 14.242596
_cell_length_b 19.407258
_cell_length_c 17.960869
_cell_angle_alpha 90.000000
_cell_angle_beta 90.000000
_cell_angle_gamma 90.000000
_cell_volume 4964.559044
_symmetry_space_group_name_H-M "I M M M"
_symmetry_group_IT_number 71
_symmetry_cell_setting 'orthorhombic'
loop_
_space_group_symop_operation_xyz
x,y,z
-x,-y,z
x,-y,-z
-x,y,-z
-x,-y,-z
x,y,-z
-x,y,z
x,-y,z
1/2+x,1/2+y,1/2+z
1/2-x,1/2-y,1/2+z
1/2+x,1/2-y,1/2-z
1/2-x,1/2+y,1/2-z
1/2-x,1/2-y,1/2-z
1/2+x,1/2+y,1/2-z
1/2-x,1/2+y,1/2+z
1/2+x,1/2-y,1/2+z
loop_
_atom_site_type_symbol
_atom_site_label
_atom_site_fract_x
_atom_site_fract_y
_atom_site_fract_z
Si Si1 0.394950 0.082307 0.841291
Si Si2 0.607088 0.829616 0.586825
Si Si3 0.888895 0.826846 0.918211
Si Si4 0.387844 0.924043 0.000000
Si Si5 0.393787 0.420669 0.284645
Si Si6 0.717022 0.920131 0.699018
O O1 0.500000 0.108579 0.824758
O O2 0.358520 0.113065 0.921693
O O3 0.331109 0.108702 0.774116
O O4 0.392856 0.000000 0.847023
O O5 0.615242 0.846490 0.500000
O O6 0.500000 0.843397 0.613761
O O7 0.637485 0.751294 0.603218
O O8 0.680442 0.878408 0.628640
O O9 0.852058 0.878028 0.854424
O O10 0.000000 0.833296 0.923965
O O11 0.846279 0.846076 0.000000
O O12 0.500000 0.930379 0.000000
O O13 0.342648 0.000000 0.000000
O O14 0.500000 0.398450 0.263750
O O15 0.389121 0.500000 0.309635
O O16 0.328772 0.408852 0.211752
O O17 0.692392 0.000000 0.685479
#
# Coordination Sequence:
#
# PCOD8288194 Si02
#       6
#    16  16  16   8  16  16
#     4   8  13  22  36  55  82 116 150 183 220 268
#     4   9  18  32  50  72  97 124 154 193 242 292
#     4   8  15  30  50  70  94 124 158 195 236 285
#     4   7  10  18  32  48  71 109 149 177 209 255
#     4   9  18  32  48  68  95 125 158 198 242 281
#     4  10  19  29  43  68  97 125 159 196 234 279
#
# _framework density 17.725643000000002
#
# number of rings (size 3 to 8) (size 9 to 14) (size 15 to 20)
#    0.000    3.364    0.000    2.727    0.000    2.545 
#    1.636    2.727    0.000    0.545    0.000    2.545 
#    0.000    1.455    0.000    0.000    0.000    0.000 
#
# Total GULP energy -545153.839087 kJ/mol
# GULP energy per Si atom -12389.859979 kJ/mol
# Density = 1.768530 g / cm^3
# Si number density = 17.725643 Si / 1000 Ang^3
#
#
#
# Elastic Constant Matrix: (Units=GPa)
#
#
# Indices 1 2 3 4 5 6 
#
# 1 63.4113 28.8049 40.9953 0.0000 0.0000 0.0000
# 2 28.8049 60.9015 44.8386 0.0000 0.0000 0.0000
# 3 40.9953 44.8386 86.5533 0.0000 0.0000 0.0000
# 4 0.0000 0.0000 0.0000 23.7238 0.0000 0.0000
# 5 0.0000 0.0000 0.0000 0.0000 26.6696 0.0000
# 6 0.0000 0.0000 0.0000 0.0000 0.0000 12.9229
#
#
#
# Elastic Compliance Matrix: (Units=1/GPa)
#
#
# Indices 1 2 3 4 5 6 
#
# 1 0.023544 -0.004729 -0.008701 0.000000 0.000000 0.000000
# 2 -0.004729 0.027494 -0.012003 0.000000 0.000000 0.000000
# 3 -0.008701 -0.012003 0.021893 0.000000 0.000000 0.000000
# 4 0.000000 0.000000 0.000000 0.042152 0.000000 0.000000
# 5 0.000000 0.000000 0.000000 0.000000 0.037496 0.000000
# 6 0.000000 0.000000 0.000000 0.000000 0.000000 0.077382
#
#
# Mechanical properties :
#
#
# Convention : Reuss Voigt Hill
#
# Bulk Modulus (GPa) = 45.32412 48.90486 47.11449
# Shear Modulus (GPa) = 17.35009 19.07841 18.21425
#
# Velocity S-wave (km/s) = 3.13199 3.28429 3.20904
# Velocity P-wave (km/s) = 6.22129 6.48320 6.35359
#
# Compressibility (1/GPa) = 0.02206331
#
# Stress axis : x y z
#
# Youngs Moduli (GPa) = 42.47409 36.37136 45.67640
#
# Poissons Ratio (x) = 0.17201 0.39745
# Poissons Ratio (y) = 0.20087 0.54827
# Poissons Ratio (z) = 0.36958 0.43658
#
# Static dielectric constant tensor:
#      x y z
#    x 3.224230 0.000000 0.000000 
#    y 0.000000 2.993340 0.000000 
#    z 0.000000 0.000000 3.429560 
# 
# 
# High freq. dielectric constant tensor:
#      x y z
#    x 1.674370 0.000000 0.000000 
#    y 0.000000 1.645730 0.000000 
#    z 0.000000 0.000000 1.679620 
# 
# From -- ./inp_files/34421.got.cif
#   From: 2010.06.25/outbox.cif.g09.slc.cpg/sg71_18_cif.got.tgz:34421.got - 2010.06.28 04:59:45.
