data_PCOD8288820
_publ_section_title
;
Structure prediction by ZEFSAII (Michael W. Deem and Ramdas Pophale) SiO2 
 PCOD8288820
Probable space group: I M M M
;
_chemical_formula_sum "Si O2"
_cell_formula_units_Z 120
_cell_length_a 22.345577
_cell_length_b 13.183310
_cell_length_c 22.746830
_cell_angle_alpha 90.000000
_cell_angle_beta 90.000000
_cell_angle_gamma 90.000000
_cell_volume 6700.958367
_symmetry_space_group_name_H-M "I M M M"
_symmetry_group_IT_number 71
_symmetry_cell_setting 'orthorhombic'
loop_
_space_group_symop_operation_xyz
x,y,z
-x,-y,z
x,-y,-z
-x,y,-z
-x,-y,-z
x,y,-z
-x,y,z
x,-y,z
1/2+x,1/2+y,1/2+z
1/2-x,1/2-y,1/2+z
1/2+x,1/2-y,1/2-z
1/2-x,1/2+y,1/2-z
1/2-x,1/2-y,1/2-z
1/2+x,1/2+y,1/2-z
1/2-x,1/2+y,1/2+z
1/2+x,1/2-y,1/2+z
loop_
_atom_site_type_symbol
_atom_site_label
_atom_site_fract_x
_atom_site_fract_y
_atom_site_fract_z
Si Si1 0.838305 0.388489 0.324887
Si Si2 0.564655 0.620124 0.500000
Si Si3 0.069738 0.771561 0.342094
Si Si4 0.848129 0.882030 0.432846
Si Si5 0.857416 0.883851 0.893150
Si Si6 0.930581 0.206407 0.205456
Si Si7 0.851817 0.389307 0.810984
Si Si8 0.245350 0.261363 0.875595
O O1 0.829429 0.500000 0.355104
O O2 0.900101 0.339298 0.349083
O O3 0.839425 0.406192 0.256524
O O4 0.785239 0.309204 0.334132
O O5 0.559789 0.500000 0.500000
O O6 0.500000 0.671941 0.500000
O O7 0.596430 0.656950 0.441159
O O8 0.099472 0.849492 0.387944
O O9 0.080075 0.810111 0.275100
O O10 0.000000 0.761753 0.356900
O O11 0.868868 0.861540 0.500000
O O12 0.787004 0.819861 0.422031
O O13 0.834748 0.000000 0.422433
O O14 0.888184 0.873133 0.828858
O O15 0.799748 0.815902 0.906665
O O16 0.838564 0.000000 0.902261
O O17 0.909953 0.317460 0.182587
O O18 0.000000 0.190183 0.189457
O O19 0.865068 0.500000 0.839787
O O20 0.791858 0.342838 0.838601
#
# Coordination Sequence:
#
# PCOD8288820 Si02
#       8
#    16   8  16  16  16  16  16  16
#     4   9  17  30  49  74 104 135 164 201 252 307
#     4   9  18  32  48  68  97 133 170 203 239 289
#     4   9  19  35  54  77 104 132 168 212 256 307
#     4  10  22  38  55  75  99 131 171 214 261 307
#     4  10  20  32  50  76 104 135 170 207 250 301
#     4   9  18  32  50  76 106 136 170 209 255 304
#     4   9  17  29  47  72 101 135 171 207 251 301
#     4  10  19  32  50  71 101 129 169 209 256 297
#
# _framework density 17.907886000000001
#
# number of rings (size 3 to 8) (size 9 to 14) (size 15 to 20)
#    0.000    2.600    0.000    1.600    0.933    3.467 
#    0.000    4.667    0.000    3.600    0.000    3.733 
#    0.000    5.600    0.000    0.000    0.000    0.000 
#
# Total GULP energy -743593.777723 kJ/mol
# GULP energy per Si atom -12393.229629 kJ/mol
# Density = 1.786713 g / cm^3
# Si number density = 17.907886 Si / 1000 Ang^3
#
#
#
# Elastic Constant Matrix: (Units=GPa)
#
#
# Indices 1 2 3 4 5 6 
#
# 1 114.9438 37.0576 37.6430 0.0000 0.0000 0.0000
# 2 37.0576 101.6125 32.2758 0.0000 0.0000 0.0000
# 3 37.6430 32.2758 62.0092 0.0000 0.0000 0.0000
# 4 0.0000 0.0000 0.0000 19.7500 0.0000 0.0000
# 5 0.0000 0.0000 0.0000 0.0000 38.4462 0.0000
# 6 0.0000 0.0000 0.0000 0.0000 0.0000 21.8553
#
#
#
# Elastic Compliance Matrix: (Units=1/GPa)
#
#
# Indices 1 2 3 4 5 6 
#
# 1 0.011300 -0.002327 -0.005649 0.000000 0.000000 0.000000
# 2 -0.002327 0.012270 -0.004974 0.000000 0.000000 0.000000
# 3 -0.005649 -0.004974 0.022145 0.000000 0.000000 0.000000
# 4 0.000000 0.000000 0.000000 0.050633 0.000000 0.000000
# 5 0.000000 0.000000 0.000000 0.000000 0.026010 0.000000
# 6 0.000000 0.000000 0.000000 0.000000 0.000000 0.045756
#
#
# Mechanical properties :
#
#
# Convention : Reuss Voigt Hill
#
# Bulk Modulus (GPa) = 50.46518 54.72426 52.59472
# Shear Modulus (GPa) = 24.92312 27.44957 26.18635
#
# Velocity S-wave (km/s) = 3.73465 3.91937 3.82813
# Velocity P-wave (km/s) = 6.84386 7.14892 6.99805
#
# Compressibility (1/GPa) = 0.01981564
#
# Stress axis : x y z
#
# Youngs Moduli (GPa) = 88.49617 81.50099 45.15786
#
# Poissons Ratio (x) = 0.18964 0.25508
# Poissons Ratio (y) = 0.20592 0.22461
# Poissons Ratio (z) = 0.49988 0.40538
#
# Static dielectric constant tensor:
#      x y z
#    x 3.450320 0.000000 0.000000 
#    y 0.000000 3.508560 0.000000 
#    z 0.000000 0.000000 3.189920 
# 
# 
# High freq. dielectric constant tensor:
#      x y z
#    x 1.697730 0.000000 0.000000 
#    y 0.000000 1.693660 0.000000 
#    z 0.000000 0.000000 1.675940 
# 
# From -- ./inp_files/27711.got.cif
#   From: 2010.06.25/outbox.cif.g09.slc.cpg/sg71_14_cif.got.tgz:27711.got - 2010.06.28 04:59:45.
