data_PCOD8288704
_publ_section_title
;
Structure prediction by ZEFSAII (Michael W. Deem and Ramdas Pophale) SiO2 
 PCOD8288704
Probable space group: I M M M
;
_chemical_formula_sum "Si O2"
_cell_formula_units_Z 120
_cell_length_a 32.136993
_cell_length_b 14.297284
_cell_length_c 14.750998
_cell_angle_alpha 90.000000
_cell_angle_beta 90.000000
_cell_angle_gamma 90.000000
_cell_volume 6777.666361
_symmetry_space_group_name_H-M "I M M M"
_symmetry_group_IT_number 71
_symmetry_cell_setting 'orthorhombic'
loop_
_space_group_symop_operation_xyz
x,y,z
-x,-y,z
x,-y,-z
-x,y,-z
-x,-y,-z
x,y,-z
-x,y,z
x,-y,z
1/2+x,1/2+y,1/2+z
1/2-x,1/2-y,1/2+z
1/2+x,1/2-y,1/2-z
1/2-x,1/2+y,1/2-z
1/2-x,1/2-y,1/2-z
1/2+x,1/2+y,1/2-z
1/2-x,1/2+y,1/2+z
1/2+x,1/2-y,1/2+z
loop_
_atom_site_type_symbol
_atom_site_label
_atom_site_fract_x
_atom_site_fract_y
_atom_site_fract_z
Si Si1 0.429366 0.744342 0.605313
Si Si2 0.500000 0.604325 0.607331
Si Si3 0.726867 0.390479 0.278395
Si Si4 0.832708 0.226867 0.895920
Si Si5 0.301183 0.888926 0.100532
Si Si6 0.272038 0.106867 0.398171
Si Si7 0.393381 0.888629 0.899496
Si Si8 0.452520 0.893276 0.255024
O O1 0.436726 0.762388 0.500000
O O2 0.458133 0.658178 0.639525
O O3 0.381301 0.725892 0.627125
O O4 0.444259 0.838406 0.653108
O O5 0.500000 0.500000 0.650247
O O6 0.500000 0.596275 0.500000
O O7 0.721057 0.500000 0.294798
O O8 0.686769 0.342018 0.321342
O O9 0.767400 0.348982 0.329898
O O10 0.734760 0.367305 0.172012
O O11 0.812988 0.329962 0.883551
O O12 0.825307 0.192084 0.000000
O O13 0.347150 0.853654 0.127950
O O14 0.300709 0.000000 0.102207
O O15 0.289457 0.852792 0.000000
O O16 0.254140 0.119116 0.500000
O O17 0.286614 0.000000 0.380287
O O18 0.425654 0.848190 0.826619
O O19 0.395216 0.000000 0.900721
O O20 0.404736 0.850987 0.000000
O O21 0.500000 0.885600 0.224217
O O22 0.439470 0.000000 0.273686
#
# Coordination Sequence:
#
# PCOD8288704 Si02
#       8
#    16   8  16  16  16  16  16  16
#     4  10  21  36  52  74 105 132 162 208 252 301
#     4   9  18  36  59  75  92 127 167 203 257 316
#     4  10  19  31  51  75 101 132 165 210 258 296
#     4  10  21  34  50  74 102 131 165 211 259 300
#     4   8  14  25  42  66  96 129 163 199 241 290
#     4   9  19  35  51  69  98 140 182 208 237 290
#     4   8  15  28  45  68 100 136 174 210 242 284
#     4  10  20  32  50  75 103 138 172 203 247 299
#
# _framework density 17.705210000000001
#
# number of rings (size 3 to 8) (size 9 to 14) (size 15 to 20)
#    0.000    2.733    0.667    1.600    1.867    2.400 
#    0.000    4.667    0.000    0.000    0.000    0.000 
#    0.000    1.067    0.000    0.000    0.000    0.267 
#
# Total GULP energy -743739.963561 kJ/mol
# GULP energy per Si atom -12395.666059 kJ/mol
# Density = 1.766491 g / cm^3
# Si number density = 17.705210 Si / 1000 Ang^3
#
#
#
# Elastic Constant Matrix: (Units=GPa)
#
#
# Indices 1 2 3 4 5 6 
#
# 1 105.4131 41.2087 50.6163 0.0000 0.0000 0.0000
# 2 41.2087 66.0854 37.7655 0.0000 0.0000 0.0000
# 3 50.6163 37.7655 88.5720 0.0000 0.0000 0.0000
# 4 0.0000 0.0000 0.0000 16.4347 0.0000 0.0000
# 5 0.0000 0.0000 0.0000 0.0000 26.7591 0.0000
# 6 0.0000 0.0000 0.0000 0.0000 0.0000 21.3005
#
#
#
# Elastic Compliance Matrix: (Units=1/GPa)
#
#
# Indices 1 2 3 4 5 6 
#
# 1 0.014539 -0.005709 -0.005874 0.000000 0.000000 0.000000
# 2 -0.005709 0.022249 -0.006224 0.000000 0.000000 0.000000
# 3 -0.005874 -0.006224 0.017301 0.000000 0.000000 0.000000
# 4 0.000000 0.000000 0.000000 0.060847 0.000000 0.000000
# 5 0.000000 0.000000 0.000000 0.000000 0.037370 0.000000
# 6 0.000000 0.000000 0.000000 0.000000 0.000000 0.046947
#
#
# Mechanical properties :
#
#
# Convention : Reuss Voigt Hill
#
# Bulk Modulus (GPa) = 54.12988 57.69461 55.91225
# Shear Modulus (GPa) = 20.74467 21.59754 21.17111
#
# Velocity S-wave (km/s) = 3.42668 3.49641 3.46172
# Velocity P-wave (km/s) = 6.80407 6.99692 6.90117
#
# Compressibility (1/GPa) = 0.01847408
#
# Stress axis : x y z
#
# Youngs Moduli (GPa) = 68.78054 44.94660 57.80009
#
# Poissons Ratio (x) = 0.25660 0.33954
# Poissons Ratio (y) = 0.39267 0.35974
# Poissons Ratio (z) = 0.40404 0.27974
#
# Static dielectric constant tensor:
#      x y z
#    x 3.388880 0.000000 0.000000 
#    y 0.000000 3.100970 0.000000 
#    z 0.000000 0.000000 3.455250 
# 
# 
# High freq. dielectric constant tensor:
#      x y z
#    x 1.678950 0.000000 0.000000 
#    y 0.000000 1.656210 0.000000 
#    z 0.000000 0.000000 1.684250 
# 
# From -- ./inp_files/41162.got.cif
#   From: 2010.06.25/outbox.cif.g09.slc.cpg/sg71_21_cif.got.tgz:41162.got - 2010.06.28 04:59:45.
