data_PCOD8288369
_publ_section_title
;
Structure prediction by ZEFSAII (Michael W. Deem and Ramdas Pophale) SiO2 
 PCOD8288369
Probable space group: I M M M
;
_chemical_formula_sum "Si O2"
_cell_formula_units_Z 104
_cell_length_a 9.566935
_cell_length_b 28.051540
_cell_length_c 25.636069
_cell_angle_alpha 90.000000
_cell_angle_beta 90.000000
_cell_angle_gamma 90.000000
_cell_volume 6879.881590
_symmetry_space_group_name_H-M "I M M M"
_symmetry_group_IT_number 71
_symmetry_cell_setting 'orthorhombic'
loop_
_space_group_symop_operation_xyz
x,y,z
-x,-y,z
x,-y,-z
-x,y,-z
-x,-y,-z
x,y,-z
-x,y,z
x,-y,z
1/2+x,1/2+y,1/2+z
1/2-x,1/2-y,1/2+z
1/2+x,1/2-y,1/2-z
1/2-x,1/2+y,1/2-z
1/2-x,1/2-y,1/2-z
1/2+x,1/2+y,1/2-z
1/2-x,1/2+y,1/2+z
1/2+x,1/2-y,1/2+z
loop_
_atom_site_type_symbol
_atom_site_label
_atom_site_fract_x
_atom_site_fract_y
_atom_site_fract_z
Si Si1 0.658988 0.946087 0.773586
Si Si2 0.156523 0.191161 0.144804
Si Si3 0.334978 0.360041 0.246160
Si Si4 0.500000 0.555730 0.441997
Si Si5 0.836520 0.279412 0.791890
Si Si6 0.652191 0.148113 0.057673
Si Si7 0.711336 0.946064 0.104379
O O1 0.500000 0.930392 0.760443
O O2 0.771484 0.913162 0.744174
O O3 0.680516 0.942607 0.835099
O O4 0.686151 0.000000 0.754604
O O5 0.194808 0.161767 0.196864
O O6 0.170026 0.248154 0.155158
O O7 0.255882 0.177165 0.098063
O O8 0.000000 0.178447 0.127580
O O9 0.500000 0.360256 0.232407
O O10 0.246091 0.329654 0.203296
O O11 0.500000 0.500000 0.450622
O O12 0.500000 0.579747 0.500000
O O13 0.369353 0.570896 0.406979
O O14 0.750000 0.250000 0.750000
O O15 0.000000 0.286563 0.775303
O O16 0.500000 0.172528 0.057095
O O17 0.623148 0.092865 0.073252
O O18 0.720315 0.150721 0.000000
O O19 0.680047 0.000000 0.084184
#
# Coordination Sequence:
#
# PCOD8288369 Si02
#       7
#    16  16  16   8  16  16  16
#     4  10  20  31  44  62  85 115 146 177 218 259
#     4   9  19  33  47  63  81 106 137 171 213 262
#     4  10  19  30  47  69  87 107 138 172 216 264
#     4   9  18  30  42  56  70  90 128 178 226 264
#     4   9  17  30  48  68  87 104 131 169 213 262
#     4  11  23  33  43  61  82 107 139 179 227 267
#     4  10  20  32  45  57  74 104 144 185 225 266
#
# _framework density 15.116539
#
# number of rings (size 3 to 8) (size 9 to 14) (size 15 to 20)
#    0.000    2.231    1.538    2.769    2.154    5.538 
#    0.000    0.769    0.000    0.000    0.000    0.000 
#    0.000    0.000    0.000    0.000    0.000    0.769 
#
# Total GULP energy -644300.685079 kJ/mol
# GULP energy per Si atom -12390.397790 kJ/mol
# Density = 1.508213 g / cm^3
# Si number density = 15.116539 Si / 1000 Ang^3
#
#
#
# Elastic Constant Matrix: (Units=GPa)
#
#
# Indices 1 2 3 4 5 6 
#
# 1 110.1949 50.6964 24.8379 0.0000 0.0000 0.0000
# 2 50.6964 83.6256 31.4937 0.0000 0.0000 0.0000
# 3 24.8379 31.4937 34.1776 0.0000 0.0000 0.0000
# 4 0.0000 0.0000 0.0000 -14.8373 0.0000 0.0000
# 5 0.0000 0.0000 0.0000 0.0000 26.2581 0.0000
# 6 0.0000 0.0000 0.0000 0.0000 0.0000 26.0913
#
#
#
# Elastic Compliance Matrix: (Units=1/GPa)
#
#
# Indices 1 2 3 4 5 6 
#
# 1 0.012823 -0.006531 -0.003301 0.000000 0.000000 0.000000
# 2 -0.006531 0.021639 -0.015194 0.000000 0.000000 0.000000
# 3 -0.003301 -0.015194 0.045659 0.000000 0.000000 0.000000
# 4 0.000000 0.000000 0.000000 -0.067398 0.000000 0.000000
# 5 0.000000 0.000000 0.000000 0.000000 0.038083 0.000000
# 6 0.000000 0.000000 0.000000 0.000000 0.000000 0.038327
#
#
# Mechanical properties :
#
#
# Convention : Reuss Voigt Hill
#
# Bulk Modulus (GPa) = 33.25605 49.11709 41.18657
# Shear Modulus (GPa) = 33.50994 15.56709 24.53852
#
# Velocity S-wave (km/s) = 4.71337 3.21254 4.03338
# Velocity P-wave (km/s) = 7.18809 6.80613 6.99972
#
# Compressibility (1/GPa) = 0.03006971
#
# Stress axis : x y z
#
# Youngs Moduli (GPa) = 77.98202 46.21233 21.90152
#
# Poissons Ratio (x) = 0.30180 0.07231
# Poissons Ratio (y) = 0.50927 0.33277
# Poissons Ratio (z) = 0.25745 0.70215
#
# Static dielectric constant tensor:
#      x y z
#    x 3.550560 0.000000 0.000000 
#    y 0.000000 3.182190 0.000000 
#    z 0.000000 0.000000 2.521800 
# 
# 
# High freq. dielectric constant tensor:
#      x y z
#    x 1.602340 0.000000 0.000000 
#    y 0.000000 1.567660 0.000000 
#    z 0.000000 0.000000 1.517340 
# 
# From -- ./inp_files/58186.got.cif
#   From: 2010.06.25/outbox.cif.g09.slc.cpg/sg71_30_cif.got.tgz:58186.got - 2010.06.28 04:59:45.
