data_PCOD8288032
_publ_section_title
;
Structure prediction by ZEFSAII (Michael W. Deem and Ramdas Pophale) SiO2 
 PCOD8288032
Probable space group: I M M M
;
_chemical_formula_sum "Si O2"
_cell_formula_units_Z 88
_cell_length_a 15.023361
_cell_length_b 11.661057
_cell_length_c 28.138623
_cell_angle_alpha 90.000000
_cell_angle_beta 90.000000
_cell_angle_gamma 90.000000
_cell_volume 4929.556654
_symmetry_space_group_name_H-M "I M M M"
_symmetry_group_IT_number 71
_symmetry_cell_setting 'orthorhombic'
loop_
_space_group_symop_operation_xyz
x,y,z
-x,-y,z
x,-y,-z
-x,y,-z
-x,-y,-z
x,y,-z
-x,y,z
x,-y,z
1/2+x,1/2+y,1/2+z
1/2-x,1/2-y,1/2+z
1/2+x,1/2-y,1/2-z
1/2-x,1/2+y,1/2-z
1/2-x,1/2-y,1/2-z
1/2+x,1/2+y,1/2-z
1/2-x,1/2+y,1/2+z
1/2+x,1/2-y,1/2+z
loop_
_atom_site_type_symbol
_atom_site_label
_atom_site_fract_x
_atom_site_fract_y
_atom_site_fract_z
Si Si1 0.500000 0.870720 0.444044
Si Si2 0.103429 0.500000 0.370383
Si Si3 0.756064 0.000000 0.945989
Si Si4 0.602033 0.775826 0.189013
Si Si5 0.399251 0.867347 0.708960
Si Si6 0.819932 0.753026 0.944981
Si Si7 0.255690 0.366142 0.860841
O O1 0.500000 0.884361 0.500000
O O2 0.586029 0.799157 0.428017
O O3 0.500000 0.000000 0.421187
O O4 0.165439 0.500000 0.416352
O O5 0.127409 0.609458 0.338894
O O6 0.000000 0.500000 0.386173
O O7 0.818116 0.889586 0.935900
O O8 0.722604 0.000000 0.000000
O O9 0.500000 0.743173 0.180622
O O10 0.622021 0.792431 0.244618
O O11 0.659235 0.670610 0.169569
O O12 0.500000 0.845531 0.691123
O O13 0.333330 0.829164 0.667292
O O14 0.385690 0.000000 0.722795
O O15 0.744322 0.694795 0.912345
O O16 0.799845 0.723574 0.000000
O O17 0.260631 0.500000 0.869777
#
# Coordination Sequence:
#
# PCOD8288032 Si02
#       7
#     8   8   8  16  16  16  16
#     4   9  18  33  53  75 103 144 183 211 253 319
#     4  10  18  33  59  81 100 138 178 219 276 326
#     4  10  20  36  56  82 109 135 176 235 283 315
#     4  10  19  35  57  78 105 140 180 222 269 325
#     4   9  18  33  54  81 108 135 174 224 269 316
#     4  10  21  36  55  79 109 142 181 226 272 320
#     4  11  22  33  52  81 110 145 181 219 268 321
#
# _framework density 17.851503999999998
#
# number of rings (size 3 to 8) (size 9 to 14) (size 15 to 20)
#    0.000    2.091    2.727    1.091    1.273    2.000 
#    0.000    1.818    0.000    0.545    0.000    1.273 
#    0.000    0.000    0.000    0.000    0.000    0.000 
#
# Total GULP energy -545633.978322 kJ/mol
# GULP energy per Si atom -12400.772235 kJ/mol
# Density = 1.781087 g / cm^3
# Si number density = 17.851504 Si / 1000 Ang^3
#
#
#
# Elastic Constant Matrix: (Units=GPa)
#
#
# Indices 1 2 3 4 5 6 
#
# 1 72.3355 45.4169 41.5787 0.0000 0.0000 0.0000
# 2 45.4169 104.5955 47.8274 0.0000 0.0000 0.0000
# 3 41.5787 47.8274 84.1031 0.0000 0.0000 0.0000
# 4 0.0000 0.0000 0.0000 22.3033 0.0000 0.0000
# 5 0.0000 0.0000 0.0000 0.0000 28.5017 0.0000
# 6 0.0000 0.0000 0.0000 0.0000 0.0000 33.5895
#
#
#
# Elastic Compliance Matrix: (Units=1/GPa)
#
#
# Indices 1 2 3 4 5 6 
#
# 1 0.021903 -0.006161 -0.007325 0.000000 0.000000 0.000000
# 2 -0.006161 0.014654 -0.005287 0.000000 0.000000 0.000000
# 3 -0.007325 -0.005287 0.018518 0.000000 0.000000 0.000000
# 4 0.000000 0.000000 0.000000 0.044836 0.000000 0.000000
# 5 0.000000 0.000000 0.000000 0.000000 0.035086 0.000000
# 6 0.000000 0.000000 0.000000 0.000000 0.000000 0.029771
#
#
# Mechanical properties :
#
#
# Convention : Reuss Voigt Hill
#
# Bulk Modulus (GPa) = 57.04991 58.96445 58.00718
# Shear Modulus (GPa) = 24.02032 25.29297 24.65664
#
# Velocity S-wave (km/s) = 3.67217 3.76820 3.72049
# Velocity P-wave (km/s) = 7.07158 7.21350 7.14289
#
# Compressibility (1/GPa) = 0.01752851
#
# Stress axis : x y z
#
# Youngs Moduli (GPa) = 45.65537 68.24263 54.00172
#
# Poissons Ratio (x) = 0.42047 0.39554
# Poissons Ratio (y) = 0.28130 0.28551
# Poissons Ratio (z) = 0.33441 0.36080
#
# Static dielectric constant tensor:
#      x y z
#    x 3.245850 0.000000 0.000000 
#    y 0.000000 3.253000 0.000000 
#    z 0.000000 0.000000 3.330020 
# 
# 
# High freq. dielectric constant tensor:
#      x y z
#    x 1.680470 0.000000 0.000000 
#    y 0.000000 1.684870 0.000000 
#    z 0.000000 0.000000 1.697360 
# 
# From -- ./inp_files/28665.got.cif
#   From: 2010.06.25/outbox.cif.g09.slc.cpg/sg71_15_cif.got.tgz:28665.got - 2010.06.28 04:59:45.
