data_PCOD8288903
_publ_section_title
;
Structure prediction by ZEFSAII (Michael W. Deem and Ramdas Pophale) SiO2 
 PCOD8288903
Probable space group: I M M M
;
_chemical_formula_sum "Si O2"
_cell_formula_units_Z 80
_cell_length_a 17.188098
_cell_length_b 26.699964
_cell_length_c 9.186520
_cell_angle_alpha 90.000000
_cell_angle_beta 90.000000
_cell_angle_gamma 90.000000
_cell_volume 4215.892437
_symmetry_space_group_name_H-M "I M M M"
_symmetry_group_IT_number 71
_symmetry_cell_setting 'orthorhombic'
loop_
_space_group_symop_operation_xyz
x,y,z
-x,-y,z
x,-y,-z
-x,y,-z
-x,-y,-z
x,y,-z
-x,y,z
x,-y,z
1/2+x,1/2+y,1/2+z
1/2-x,1/2-y,1/2+z
1/2+x,1/2-y,1/2-z
1/2-x,1/2+y,1/2-z
1/2-x,1/2-y,1/2-z
1/2+x,1/2+y,1/2-z
1/2-x,1/2+y,1/2+z
1/2+x,1/2-y,1/2+z
loop_
_atom_site_type_symbol
_atom_site_label
_atom_site_fract_x
_atom_site_fract_y
_atom_site_fract_z
Si Si1 0.655171 0.112689 0.327153
Si Si2 0.586943 0.500000 0.672111
Si Si3 0.500000 0.943026 0.672890
Si Si4 0.084608 0.819647 0.830261
Si Si5 0.690838 0.592384 0.327235
Si Si6 0.178413 0.725755 0.831638
O O1 0.662964 0.107973 0.500000
O O2 0.576319 0.086348 0.270833
O O3 0.727091 0.084538 0.252084
O O4 0.655342 0.170654 0.275447
O O5 0.500000 0.500000 0.740343
O O6 0.579923 0.500000 0.500000
O O7 0.633488 0.451385 0.724514
O O8 0.500000 0.943682 0.500000
O O9 0.500000 0.000000 0.733464
O O10 0.151495 0.856190 0.768138
O O11 0.104772 0.761637 0.803119
O O12 0.000000 0.830147 0.758380
O O13 0.078817 0.831887 0.000000
O O14 0.705203 0.592217 0.500000
O O15 0.250000 0.750000 0.750000
O O16 0.201384 0.723862 0.000000
#
# Coordination Sequence:
#
# PCOD8288903 Si02
#       6
#    16   8   8  16  16  16
#     4  10  21  35  54  78 104 136 176 219 262 310
#     4   9  18  32  53  80 107 132 168 215 255 299
#     4   9  20  38  57  77 103 139 183 228 270 313
#     4   9  17  29  49  75 102 134 172 208 246 301
#     4  10  19  33  54  78 104 136 170 210 260 311
#     4  10  19  32  51  76 105 135 169 213 260 309
#
# _framework density 18.975815999999998
#
# number of rings (size 3 to 8) (size 9 to 14) (size 15 to 20)
#    0.000    2.400    2.000    0.600    2.800    2.400 
#    0.000    0.500    0.000    5.400    0.000    0.000 
#    0.000    0.000    0.000    0.000    0.000    0.000 
#
# Total GULP energy -495891.386998 kJ/mol
# GULP energy per Si atom -12397.284675 kJ/mol
# Density = 1.893263 g / cm^3
# Si number density = 18.975816 Si / 1000 Ang^3
#
#
#
# Elastic Constant Matrix: (Units=GPa)
#
#
# Indices 1 2 3 4 5 6 
#
# 1 184.6632 78.9961 30.0333 0.0000 0.0000 0.0000
# 2 78.9961 146.2542 21.6307 0.0001 0.0000 -0.0001
# 3 30.0333 21.6307 18.8776 0.0000 -0.0002 -0.0001
# 4 0.0000 0.0001 0.0000 16.2460 0.0000 -0.0001
# 5 0.0000 0.0000 -0.0002 0.0000 26.0020 -0.0001
# 6 0.0000 -0.0001 -0.0001 -0.0001 -0.0001 28.2827
#
#
#
# Elastic Compliance Matrix: (Units=1/GPa)
#
#
# Indices 1 2 3 4 5 6 
#
# 1 0.008297 -0.003045 -0.009711 0.000000 0.000000 0.000000
# 2 -0.003045 0.009350 -0.005869 0.000000 0.000000 0.000000
# 3 -0.009711 -0.005869 0.075148 0.000000 0.000000 0.000000
# 4 0.000000 0.000000 0.000000 0.061554 0.000000 0.000000
# 5 0.000000 0.000000 0.000000 0.000000 0.038459 0.000000
# 6 0.000000 0.000000 0.000000 0.000000 0.000000 0.035357
#
#
# Mechanical properties :
#
#
# Convention : Reuss Voigt Hill
#
# Bulk Modulus (GPa) = 18.00356 67.90168 42.95262
# Shear Modulus (GPa) = 17.60988 28.71512 23.16250
#
# Velocity S-wave (km/s) = 3.04964 3.89427 3.49755
# Velocity P-wave (km/s) = 4.68067 7.48875 6.24460
#
# Compressibility (1/GPa) = 0.05554457
#
# Stress axis : x y z
#
# Youngs Moduli (GPa) = 120.51856 106.94812 13.30707
#
# Poissons Ratio (x) = 0.32570 0.12923
# Poissons Ratio (y) = 0.36703 0.07810
# Poissons Ratio (z) = 1.17039 0.62767
#
# Static dielectric constant tensor:
#      x y z
#    x 4.441920 -0.000010 0.000000 
#    y -0.000010 3.781810 0.000000 
#    z 0.000000 0.000000 2.970580 
# 
# 
# High freq. dielectric constant tensor:
#      x y z
#    x 1.749610 0.000000 0.000000 
#    y 0.000000 1.751790 0.000000 
#    z 0.000000 0.000000 1.679390 
# 
# From -- ./inp_files/8392.got.cif
#   From: 2010.06.25/outbox.cif.g09.slc.cpg/sg71_5_cif.got.tgz:8392.got - 2010.06.28 04:59:45.
