data_PCOD8288218
_publ_section_title
;
Structure prediction by ZEFSAII (Michael W. Deem and Ramdas Pophale) SiO2 
 PCOD8288218
Probable space group: I M M M
;
_chemical_formula_sum "Si O2"
_cell_formula_units_Z 104
_cell_length_a 22.691341
_cell_length_b 8.280435
_cell_length_c 28.655715
_cell_angle_alpha 90.000000
_cell_angle_beta 90.000000
_cell_angle_gamma 90.000000
_cell_volume 5384.241906
_symmetry_space_group_name_H-M "I M M M"
_symmetry_group_IT_number 71
_symmetry_cell_setting 'orthorhombic'
loop_
_space_group_symop_operation_xyz
x,y,z
-x,-y,z
x,-y,-z
-x,y,-z
-x,-y,-z
x,y,-z
-x,y,z
x,-y,z
1/2+x,1/2+y,1/2+z
1/2-x,1/2-y,1/2+z
1/2+x,1/2-y,1/2-z
1/2-x,1/2+y,1/2-z
1/2-x,1/2-y,1/2-z
1/2+x,1/2+y,1/2-z
1/2-x,1/2+y,1/2+z
1/2+x,1/2-y,1/2+z
loop_
_atom_site_type_symbol
_atom_site_label
_atom_site_fract_x
_atom_site_fract_y
_atom_site_fract_z
Si Si1 0.430769 0.176689 0.099549
Si Si2 0.363636 0.186197 0.360015
Si Si3 0.934139 0.313988 0.229536
Si Si4 0.123639 0.817707 0.684212
Si Si5 0.930152 0.000000 0.447020
Si Si6 0.566716 0.807717 0.552351
Si Si7 0.244950 0.314301 0.197768
O O1 0.500000 0.178383 0.092218
O O2 0.415167 0.194272 0.153981
O O3 0.402663 0.333234 0.073696
O O4 0.407137 0.000000 0.081863
O O5 0.417300 0.209536 0.324203
O O6 0.386655 0.263570 0.409186
O O7 0.304872 0.266964 0.336207
O O8 0.349110 0.000000 0.369608
O O9 0.929383 0.500000 0.244011
O O10 0.889193 0.213357 0.261442
O O11 0.000000 0.247675 0.236777
O O12 0.192299 0.789596 0.672947
O O13 0.105189 0.000000 0.671389
O O14 0.911339 0.000000 0.500000
O O15 0.000000 0.000000 0.439268
O O16 0.586538 0.754691 0.500000
O O17 0.500000 0.744394 0.562027
O O18 0.566071 0.000000 0.556320
O O19 0.227247 0.500000 0.203520
O O20 0.250000 0.250000 0.250000
#
# Coordination Sequence:
#
# PCOD8288218 Si02
#       7
#    16  16  16  16   8  16  16
#     4  10  20  34  54  80 108 141 180 218 269 333
#     4   9  16  28  44  64  95 132 166 211 256 309
#     4  10  19  29  45  69  95 127 167 207 256 316
#     4  11  21  32  47  68  99 138 178 219 264 318
#     4   9  18  34  56  82 112 140 170 218 270 316
#     4   8  13  22  40  68  99 129 161 202 259 320
#     4  10  20  33  49  68  94 134 178 217 257 313
#
# _framework density 19.315625000000001
#
# number of rings (size 3 to 8) (size 9 to 14) (size 15 to 20)
#    0.000    2.385    2.308    1.846    0.000    4.923 
#    0.000    1.538    0.000    0.923    0.000    0.000 
#    0.000    2.462    0.000    8.462    0.000    7.692 
#
# Total GULP energy -644254.738759 kJ/mol
# GULP energy per Si atom -12389.514207 kJ/mol
# Density = 1.927166 g / cm^3
# Si number density = 19.315625 Si / 1000 Ang^3
#
#
#
# Elastic Constant Matrix: (Units=GPa)
#
#
# Indices 1 2 3 4 5 6 
#
# 1 88.2241 19.3926 44.7186 0.0000 0.0000 0.0000
# 2 19.3926 84.3553 35.8851 0.0000 0.0000 0.0000
# 3 44.7186 35.8851 127.9546 0.0000 0.0000 0.0000
# 4 0.0000 0.0000 0.0000 17.0771 0.0000 0.0000
# 5 0.0000 0.0000 0.0000 0.0000 28.4422 0.0000
# 6 0.0000 0.0000 0.0000 0.0000 0.0000 13.2978
#
#
#
# Elastic Compliance Matrix: (Units=1/GPa)
#
#
# Indices 1 2 3 4 5 6 
#
# 1 0.013896 -0.001281 -0.004497 0.000000 0.000000 0.000000
# 2 -0.001281 0.013579 -0.003360 0.000000 0.000000 0.000000
# 3 -0.004497 -0.003360 0.010329 0.000000 0.000000 0.000000
# 4 0.000000 0.000000 0.000000 0.058558 0.000000 0.000000
# 5 0.000000 0.000000 0.000000 0.000000 0.035159 0.000000
# 6 0.000000 0.000000 0.000000 0.000000 0.000000 0.075201
#
#
# Mechanical properties :
#
#
# Convention : Reuss Voigt Hill
#
# Bulk Modulus (GPa) = 51.21311 55.61406 53.41359
# Shear Modulus (GPa) = 21.59755 25.13261 23.36508
#
# Velocity S-wave (km/s) = 3.34749 3.61107 3.48177
# Velocity P-wave (km/s) = 6.44300 6.80009 6.62395
#
# Compressibility (1/GPa) = 0.01952625
#
# Stress axis : x y z
#
# Youngs Moduli (GPa) = 71.96365 73.64469 96.81153
#
# Poissons Ratio (x) = 0.09437 0.43537
# Poissons Ratio (y) = 0.09222 0.32532
# Poissons Ratio (z) = 0.32362 0.24747
#
# Static dielectric constant tensor:
#      x y z
#    x 3.598740 0.000000 0.000000 
#    y 0.000000 3.452730 0.000000 
#    z 0.000000 0.000000 3.576720 
# 
# 
# High freq. dielectric constant tensor:
#      x y z
#    x 1.731890 0.000000 0.000000 
#    y 0.000000 1.723740 0.000000 
#    z 0.000000 0.000000 1.743530 
# 
# From -- ./inp_files/66821.got.cif
#   From: 2010.06.25/outbox.cif.g09.slc.cpg/sg71_34_cif.got.tgz:66821.got - 2010.06.28 04:59:45.
