data_PCOD8288540
_publ_section_title
;
Structure prediction by ZEFSAII (Michael W. Deem and Ramdas Pophale) SiO2 
 PCOD8288540
Probable space group: I M M M
;
_chemical_formula_sum "Si O2"
_cell_formula_units_Z 120
_cell_length_a 15.325330
_cell_length_b 32.003080
_cell_length_c 14.119673
_cell_angle_alpha 90.000000
_cell_angle_beta 90.000000
_cell_angle_gamma 90.000000
_cell_volume 6925.103220
_symmetry_space_group_name_H-M "I M M M"
_symmetry_group_IT_number 71
_symmetry_cell_setting 'orthorhombic'
loop_
_space_group_symop_operation_xyz
x,y,z
-x,-y,z
x,-y,-z
-x,y,-z
-x,-y,-z
x,y,-z
-x,y,z
x,-y,z
1/2+x,1/2+y,1/2+z
1/2-x,1/2-y,1/2+z
1/2+x,1/2-y,1/2-z
1/2-x,1/2+y,1/2-z
1/2-x,1/2-y,1/2-z
1/2+x,1/2+y,1/2-z
1/2-x,1/2+y,1/2+z
1/2+x,1/2-y,1/2+z
loop_
_atom_site_type_symbol
_atom_site_label
_atom_site_fract_x
_atom_site_fract_y
_atom_site_fract_z
Si Si1 0.403434 0.321566 0.612101
Si Si2 0.405357 0.919464 0.606052
Si Si3 0.238991 0.374512 0.611904
Si Si4 0.899143 0.343162 0.244694
Si Si5 0.500000 0.549143 0.603993
Si Si6 0.275376 0.546989 0.101189
Si Si7 0.897579 0.727747 0.105784
Si Si8 0.820728 0.049952 0.802745
O O1 0.408432 0.322580 0.500000
O O2 0.500000 0.334184 0.652386
O O3 0.328509 0.352794 0.648168
O O4 0.378266 0.274499 0.642990
O O5 0.404207 0.900630 0.500000
O O6 0.500000 0.940559 0.626550
O O7 0.387764 0.882280 0.676993
O O8 0.329062 0.953286 0.618407
O O9 0.224495 0.370478 0.500000
O O10 0.157517 0.351601 0.661349
O O11 0.247191 0.423719 0.640466
O O12 0.860656 0.303788 0.185658
O O13 0.000000 0.336456 0.275341
O O14 0.500000 0.500000 0.592455
O O15 0.500000 0.570436 0.500000
O O16 0.585681 0.563539 0.658243
O O17 0.307460 0.500000 0.091935
O O18 0.322161 0.565860 0.193402
O O19 0.298572 0.569820 0.000000
O O20 0.000000 0.719834 0.097086
O O21 0.856600 0.720359 0.000000
O O22 0.801402 0.000000 0.812723
#
# Coordination Sequence:
#
# PCOD8288540 Si02
#       8
#    16  16  16  16   8  16  16  16
#     4   8  16  31  50  74 101 124 151 196 254 308
#     4   9  16  27  45  69  94 118 151 196 242 287
#     4  11  22  33  48  70  97 133 171 208 251 294
#     4  10  19  31  47  70  97 129 168 204 237 281
#     4   9  18  32  51  73  93 117 160 214 255 289
#     4   9  17  30  48  70  97 125 153 192 245 304
#     4   8  14  28  51  76 101 126 153 194 249 303
#     4  10  20  35  52  73  98 127 164 208 256 305
#
# _framework density 17.328261000000001
#
# number of rings (size 3 to 8) (size 9 to 14) (size 15 to 20)
#    0.000    2.733    1.333    1.600    0.933    3.467 
#    0.000    1.667    0.000    2.400    0.000    0.933 
#    0.000    1.067    0.000    0.000    0.000    0.000 
#
# Total GULP energy -743302.085289 kJ/mol
# GULP energy per Si atom -12388.368088 kJ/mol
# Density = 1.728882 g / cm^3
# Si number density = 17.328261 Si / 1000 Ang^3
#
#
#
# Elastic Constant Matrix: (Units=GPa)
#
#
# Indices 1 2 3 4 5 6 
#
# 1 73.6145 24.7032 53.0676 -0.0001 0.0000 0.0000
# 2 24.7032 56.9125 31.6853 -0.0003 0.0001 0.0000
# 3 53.0676 31.6853 119.0406 -0.0027 0.0006 0.0001
# 4 -0.0001 -0.0003 -0.0027 15.0171 0.0001 0.0000
# 5 0.0000 0.0001 0.0006 0.0001 27.0204 -0.0001
# 6 0.0000 0.0000 0.0001 0.0000 -0.0001 17.8317
#
#
#
# Elastic Compliance Matrix: (Units=1/GPa)
#
#
# Indices 1 2 3 4 5 6 
#
# 1 0.020987 -0.004579 -0.008137 -0.000001 0.000000 0.000000
# 2 -0.004579 0.021627 -0.003715 0.000000 0.000000 0.000000
# 3 -0.008137 -0.003715 0.013017 0.000002 0.000000 0.000000
# 4 -0.000001 0.000000 0.000002 0.066591 0.000000 0.000000
# 5 0.000000 0.000000 0.000000 0.000000 0.037009 0.000000
# 6 0.000000 0.000000 0.000000 0.000000 0.000000 0.056080
#
#
# Mechanical properties :
#
#
# Convention : Reuss Voigt Hill
#
# Bulk Modulus (GPa) = 43.92163 52.05332 47.98748
# Shear Modulus (GPa) = 19.54942 21.31458 20.43200
#
# Velocity S-wave (km/s) = 3.36248 3.51101 3.43755
# Velocity P-wave (km/s) = 6.36215 6.82210 6.59613
#
# Compressibility (1/GPa) = 0.02276782
#
# Stress axis : x y z
#
# Youngs Moduli (GPa) = 47.64910 46.23888 76.82430
#
# Poissons Ratio (x) = 0.21174 0.62511
# Poissons Ratio (y) = 0.21820 0.28540
# Poissons Ratio (z) = 0.38772 0.17178
#
# Static dielectric constant tensor:
#      x y z
#    x 3.247310 0.000000 0.000000 
#    y 0.000000 3.253270 0.000000 
#    z 0.000000 0.000000 3.381820 
# 
# 
# High freq. dielectric constant tensor:
#      x y z
#    x 1.645820 0.000000 0.000000 
#    y 0.000000 1.660070 0.000000 
#    z 0.000000 0.000000 1.659660 
# 
# From -- ./inp_files/35446.got.cif
#   From: 2010.06.25/outbox.cif.g09.slc.cpg/sg71_18_cif.got.tgz:35446.got - 2010.06.28 04:59:45.
