data_PCOD8288334
_publ_section_title
;
Structure prediction by ZEFSAII (Michael W. Deem and Ramdas Pophale) SiO2 
 PCOD8288334
Probable space group: I M M M
;
_chemical_formula_sum "Si O2"
_cell_formula_units_Z 88
_cell_length_a 19.289841
_cell_length_b 9.277489
_cell_length_c 27.616202
_cell_angle_alpha 90.000000
_cell_angle_beta 90.000000
_cell_angle_gamma 90.000000
_cell_volume 4942.231071
_symmetry_space_group_name_H-M "I M M M"
_symmetry_group_IT_number 71
_symmetry_cell_setting 'orthorhombic'
loop_
_space_group_symop_operation_xyz
x,y,z
-x,-y,z
x,-y,-z
-x,y,-z
-x,-y,-z
x,y,-z
-x,y,z
x,-y,z
1/2+x,1/2+y,1/2+z
1/2-x,1/2-y,1/2+z
1/2+x,1/2-y,1/2-z
1/2-x,1/2+y,1/2-z
1/2-x,1/2-y,1/2-z
1/2+x,1/2+y,1/2-z
1/2-x,1/2+y,1/2+z
1/2+x,1/2-y,1/2+z
loop_
_atom_site_type_symbol
_atom_site_label
_atom_site_fract_x
_atom_site_fract_y
_atom_site_fract_z
Si Si1 0.840407 0.334951 0.072019
Si Si2 0.325633 0.167411 0.842000
Si Si3 0.577481 0.170196 0.241691
Si Si4 0.187741 0.665706 0.819180
Si Si5 0.295757 0.834516 0.947363
Si Si6 0.420074 0.657662 0.500000
O O1 0.843291 0.500000 0.055416
O O2 0.849047 0.319427 0.129204
O O3 0.769502 0.269305 0.052197
O O4 0.902281 0.247060 0.048013
O O5 0.394232 0.210372 0.811937
O O6 0.259821 0.248805 0.819202
O O7 0.340474 0.204327 0.899046
O O8 0.308814 0.000000 0.835072
O O9 0.500000 0.237357 0.247918
O O10 0.632611 0.231331 0.280847
O O11 0.572175 0.000000 0.248699
O O12 0.205427 0.500000 0.806917
O O13 0.271139 0.000000 0.942902
O O14 0.334514 0.812482 0.000000
O O15 0.382900 0.500000 0.500000
O O16 0.500000 0.630725 0.500000
#
# Coordination Sequence:
#
# PCOD8288334 Si02
#       6
#    16  16  16  16  16   8
#     4  10  19  30  46  68  90 113 151 197 234 274
#     4   9  17  29  48  72  94 123 162 199 235 281
#     4   9  17  30  48  69  95 127 161 196 239 289
#     4   9  18  31  49  72  95 121 154 198 244 283
#     4   9  16  27  45  67  93 121 149 187 235 281
#     4  11  23  35  45  59  87 127 160 187 228 279
#
# _framework density 17.805724000000001
#
# number of rings (size 3 to 8) (size 9 to 14) (size 15 to 20)
#    0.000    2.636    0.909    1.364    0.000    2.182 
#    0.000    1.818    0.000    2.727    0.000    3.818 
#    0.000    0.000    0.000    9.091    0.000    9.455 
#
# Total GULP energy -545163.800488 kJ/mol
# GULP energy per Si atom -12390.086375 kJ/mol
# Density = 1.776520 g / cm^3
# Si number density = 17.805724 Si / 1000 Ang^3
#
#
#
# Elastic Constant Matrix: (Units=GPa)
#
#
# Indices 1 2 3 4 5 6 
#
# 1 71.8534 19.3139 45.1555 0.0000 0.0000 0.0000
# 2 19.3139 63.8457 20.8160 0.0000 0.0000 0.0000
# 3 45.1555 20.8160 132.1259 0.0000 0.0000 0.0000
# 4 0.0000 0.0000 0.0000 20.4993 0.0000 0.0000
# 5 0.0000 0.0000 0.0000 0.0000 23.2008 0.0000
# 6 0.0000 0.0000 0.0000 0.0000 0.0000 14.0900
#
#
#
# Elastic Compliance Matrix: (Units=1/GPa)
#
#
# Indices 1 2 3 4 5 6 
#
# 1 0.018531 -0.003733 -0.005745 0.000000 0.000000 0.000000
# 2 -0.003733 0.017263 -0.001444 0.000000 0.000000 0.000000
# 3 -0.005745 -0.001444 0.009759 0.000000 0.000000 0.000000
# 4 0.000000 0.000000 0.000000 0.048782 0.000000 0.000000
# 5 0.000000 0.000000 0.000000 0.000000 0.043102 0.000000
# 6 0.000000 0.000000 0.000000 0.000000 0.000000 0.070972
#
#
# Mechanical properties :
#
#
# Convention : Reuss Voigt Hill
#
# Bulk Modulus (GPa) = 42.17693 48.71064 45.44379
# Shear Modulus (GPa) = 20.99459 23.72732 22.36096
#
# Velocity S-wave (km/s) = 3.43752 3.65439 3.54761
# Velocity P-wave (km/s) = 6.28443 6.72475 6.50831
#
# Compressibility (1/GPa) = 0.02370964
#
# Stress axis : x y z
#
# Youngs Moduli (GPa) = 53.96367 57.92827 102.46438
#
# Poissons Ratio (x) = 0.21623 0.58867
# Poissons Ratio (y) = 0.20143 0.14796
# Poissons Ratio (z) = 0.31003 0.08365
#
# Static dielectric constant tensor:
#      x y z
#    x 3.069710 0.000000 0.000000 
#    y 0.000000 3.295530 0.000000 
#    z 0.000000 0.000000 3.911130 
# 
# 
# High freq. dielectric constant tensor:
#      x y z
#    x 1.646270 0.000000 0.000000 
#    y 0.000000 1.673300 0.000000 
#    z 0.000000 0.000000 1.712190 
# 
# From -- ./inp_files/51056.got.cif
#   From: 2010.06.25/outbox.cif.g09.slc.cpg/sg71_26_cif.got.tgz:51056.got - 2010.06.28 04:59:45.
