data_PCOD8288661
_publ_section_title
;
Structure prediction by ZEFSAII (Michael W. Deem and Ramdas Pophale) SiO2 
 PCOD8288661
Probable space group: I M M M
;
_chemical_formula_sum "Si O2"
_cell_formula_units_Z 88
_cell_length_a 28.955184
_cell_length_b 18.524255
_cell_length_c 8.794178
_cell_angle_alpha 90.000000
_cell_angle_beta 90.000000
_cell_angle_gamma 90.000000
_cell_volume 4716.961501
_symmetry_space_group_name_H-M "I M M M"
_symmetry_group_IT_number 71
_symmetry_cell_setting 'orthorhombic'
loop_
_space_group_symop_operation_xyz
x,y,z
-x,-y,z
x,-y,-z
-x,y,-z
-x,-y,-z
x,y,-z
-x,y,z
x,-y,z
1/2+x,1/2+y,1/2+z
1/2-x,1/2-y,1/2+z
1/2+x,1/2-y,1/2-z
1/2-x,1/2+y,1/2-z
1/2-x,1/2-y,1/2-z
1/2+x,1/2+y,1/2-z
1/2-x,1/2+y,1/2+z
1/2+x,1/2-y,1/2+z
loop_
_atom_site_type_symbol
_atom_site_label
_atom_site_fract_x
_atom_site_fract_y
_atom_site_fract_z
Si Si1 0.051788 0.419881 0.319319
Si Si2 0.217078 0.308541 0.178250
Si Si3 0.052439 0.000000 0.681448
Si Si4 0.709124 0.421070 0.821144
Si Si5 0.117517 0.294536 0.680718
Si Si6 0.887467 0.134146 0.319575
O O1 0.051800 0.415575 0.500000
O O2 0.068959 0.500000 0.267920
O O3 0.084230 0.356843 0.251995
O O4 0.000000 0.406814 0.257957
O O5 0.250000 0.250000 0.250000
O O6 0.242252 0.383899 0.215505
O O7 0.167857 0.309503 0.255782
O O8 0.211746 0.294293 0.000000
O O9 0.077905 0.927586 0.744263
O O10 0.053179 0.000000 0.500000
O O11 0.000000 0.000000 0.742866
O O12 0.710618 0.500000 0.745913
O O13 0.664423 0.378815 0.755662
O O14 0.701813 0.426988 0.000000
O O15 0.120443 0.298348 0.500000
O O16 0.098454 0.215446 0.732117
O O17 0.888257 0.129534 0.500000
#
# Coordination Sequence:
#
# PCOD8288661 Si02
#       6
#    16  16   8  16  16  16
#     4   8  15  29  49  73 102 135 167 203 252 306
#     4  11  21  33  50  73 100 132 168 207 248 296
#     4   9  16  24  38  66 101 127 153 201 252 287
#     4   9  16  28  46  65  88 125 166 196 233 291
#     4  10  19  31  50  75 101 130 165 208 251 295
#     4   9  15  25  41  62  90 125 159 191 238 292
#
# _framework density 18.656078000000001
#
# number of rings (size 3 to 8) (size 9 to 14) (size 15 to 20)
#    0.000    2.636    2.727    1.091    0.000    1.455 
#    0.000    3.636    0.000    2.182    0.000    1.273 
#    0.000    0.727    0.000    0.000    0.000    0.000 
#
# Total GULP energy -545243.566241 kJ/mol
# GULP energy per Si atom -12391.899233 kJ/mol
# Density = 1.861362 g / cm^3
# Si number density = 18.656078 Si / 1000 Ang^3
#
#
#
# Elastic Constant Matrix: (Units=GPa)
#
#
# Indices 1 2 3 4 5 6 
#
# 1 140.3853 96.5343 11.1836 0.0000 0.0000 0.0000
# 2 96.5343 194.1454 16.9816 0.0000 0.0000 0.0000
# 3 11.1836 16.9816 10.7435 0.0000 0.0000 0.0000
# 4 0.0000 0.0000 0.0000 9.5130 0.0000 0.0000
# 5 0.0000 0.0000 0.0000 0.0000 20.0276 0.0000
# 6 0.0000 0.0000 0.0000 0.0000 0.0000 34.7321
#
#
#
# Elastic Compliance Matrix: (Units=1/GPa)
#
#
# Indices 1 2 3 4 5 6 
#
# 1 0.010920 -0.005147 -0.003232 0.000000 0.000000 0.000000
# 2 -0.005147 0.008403 -0.007925 0.000000 0.000000 0.000000
# 3 -0.003232 -0.007925 0.108970 0.000000 0.000000 0.000000
# 4 0.000000 0.000000 0.000000 0.105119 0.000000 0.000000
# 5 0.000000 0.000000 0.000000 0.000000 0.049931 0.000000
# 6 0.000000 0.000000 0.000000 0.000000 0.000000 0.028792
#
#
# Mechanical properties :
#
#
# Convention : Reuss Voigt Hill
#
# Bulk Modulus (GPa) = 10.45079 66.07481 38.26280
# Shear Modulus (GPa) = 13.27537 27.55953 20.41745
#
# Velocity S-wave (km/s) = 2.67045 3.84766 3.31178
# Velocity P-wave (km/s) = 3.88875 7.43192 5.93110
#
# Compressibility (1/GPa) = 0.09568655
#
# Stress axis : x y z
#
# Youngs Moduli (GPa) = 91.57498 119.00248 9.17684
#
# Poissons Ratio (x) = 0.61251 0.02966
# Poissons Ratio (y) = 0.47134 0.07272
# Poissons Ratio (z) = 0.29594 0.94304
#
# Static dielectric constant tensor:
#      x y z
#    x 3.244830 0.000000 0.000000 
#    y 0.000000 3.708450 0.000000 
#    z 0.000000 0.000000 2.827510 
# 
# 
# High freq. dielectric constant tensor:
#      x y z
#    x 1.724420 0.000000 0.000000 
#    y 0.000000 1.744200 0.000000 
#    z 0.000000 0.000000 1.654270 
# 
# From -- ./inp_files/16637.got.cif
#   From: 2010.06.25/outbox.cif.g09.slc.cpg/sg71_9_cif.got.tgz:16637.got - 2010.06.28 04:59:45.
