data_PCOD8288902
_publ_section_title
;
Structure prediction by ZEFSAII (Michael W. Deem and Ramdas Pophale) SiO2 
 PCOD8288902
Probable space group: I M M M
;
_chemical_formula_sum "Si O2"
_cell_formula_units_Z 80
_cell_length_a 18.463383
_cell_length_b 27.139827
_cell_length_c 8.763935
_cell_angle_alpha 90.000000
_cell_angle_beta 90.000000
_cell_angle_gamma 90.000000
_cell_volume 4391.546660
_symmetry_space_group_name_H-M "I M M M"
_symmetry_group_IT_number 71
_symmetry_cell_setting 'orthorhombic'
loop_
_space_group_symop_operation_xyz
x,y,z
-x,-y,z
x,-y,-z
-x,y,-z
-x,-y,-z
x,y,-z
-x,y,z
x,-y,z
1/2+x,1/2+y,1/2+z
1/2-x,1/2-y,1/2+z
1/2+x,1/2-y,1/2-z
1/2-x,1/2+y,1/2-z
1/2-x,1/2-y,1/2-z
1/2+x,1/2+y,1/2-z
1/2-x,1/2+y,1/2+z
1/2+x,1/2-y,1/2+z
loop_
_atom_site_type_symbol
_atom_site_label
_atom_site_fract_x
_atom_site_fract_y
_atom_site_fract_z
Si Si1 0.850442 0.446338 0.177619
Si Si2 0.917253 0.056366 0.824912
Si Si3 0.290689 0.389685 0.824168
Si Si4 0.582035 0.153018 0.680803
Si Si5 0.782799 0.701205 0.320504
O O1 0.866905 0.500000 0.254361
O O2 0.766472 0.433378 0.207080
O O3 0.900682 0.402330 0.243482
O O4 0.866747 0.450963 0.000000
O O5 0.869944 0.091414 0.718422
O O6 0.000000 0.072989 0.804035
O O7 0.907636 0.000000 0.772715
O O8 0.893025 0.062443 0.000000
O O9 0.270747 0.343120 0.721391
O O10 0.288890 0.373093 0.000000
O O11 0.594915 0.154636 0.500000
O O12 0.500000 0.167002 0.724993
O O13 0.636178 0.192080 0.756575
O O14 0.787827 0.707171 0.500000
O O15 0.750000 0.750000 0.250000
#
# Coordination Sequence:
#
# PCOD8288902 Si02
#       5
#    16  16  16  16  16
#     4   8  14  25  44  73 106 138 171 205 241 283
#     4   9  18  32  49  72 106 145 179 213 260 315
#     4  10  19  32  51  76 104 134 174 220 262 308
#     4   9  18  33  53  79 111 142 172 209 252 298
#     4  11  22  38  59  79 101 131 170 216 266 318
#
# _framework density 18.216815
#
# number of rings (size 3 to 8) (size 9 to 14) (size 15 to 20)
#    0.000    2.600    0.000    4.800    0.000    2.400 
#    0.000    4.000    0.000   11.400    0.000    5.600 
#    0.000    0.000    0.000    0.000    0.000    0.000 
#
# Total GULP energy -495887.416353 kJ/mol
# GULP energy per Si atom -12397.185409 kJ/mol
# Density = 1.817535 g / cm^3
# Si number density = 18.216815 Si / 1000 Ang^3
#
#
#
# Elastic Constant Matrix: (Units=GPa)
#
#
# Indices 1 2 3 4 5 6 
#
# 1 127.1697 61.0626 48.0959 0.0000 0.0000 0.0000
# 2 61.0626 112.0347 40.7202 0.0000 0.0000 0.0000
# 3 48.0959 40.7202 73.8786 0.0000 0.0000 0.0000
# 4 0.0000 0.0000 0.0000 24.3200 0.0000 0.0000
# 5 0.0000 0.0000 0.0000 0.0000 28.9945 0.0000
# 6 0.0000 0.0000 0.0000 0.0000 0.0000 19.3097
#
#
#
# Elastic Compliance Matrix: (Units=1/GPa)
#
#
# Indices 1 2 3 4 5 6 
#
# 1 0.012116 -0.004673 -0.005312 0.000000 0.000000 0.000000
# 2 -0.004673 0.012964 -0.004103 0.000000 0.000000 0.000000
# 3 -0.005312 -0.004103 0.019256 0.000000 0.000000 0.000000
# 4 0.000000 0.000000 0.000000 0.041118 0.000000 0.000000
# 5 0.000000 0.000000 0.000000 0.000000 0.034489 0.000000
# 6 0.000000 0.000000 0.000000 0.000000 0.000000 0.051787
#
#
# Mechanical properties :
#
#
# Convention : Reuss Voigt Hill
#
# Bulk Modulus (GPa) = 61.88491 68.09337 64.98914
# Shear Modulus (GPa) = 24.35516 25.40512 24.88014
#
# Velocity S-wave (km/s) = 3.66041 3.73848 3.69965
# Velocity P-wave (km/s) = 7.20485 7.48970 7.34865
#
# Compressibility (1/GPa) = 0.01615903
#
# Stress axis : x y z
#
# Youngs Moduli (GPa) = 82.53217 77.13558 51.93253
#
# Poissons Ratio (x) = 0.36046 0.27588
# Poissons Ratio (y) = 0.38568 0.21310
# Poissons Ratio (z) = 0.43844 0.31651
#
# Static dielectric constant tensor:
#      x y z
#    x 3.338050 0.000000 0.000000 
#    y 0.000000 3.484440 0.000000 
#    z 0.000000 0.000000 3.155240 
# 
# 
# High freq. dielectric constant tensor:
#      x y z
#    x 1.705380 0.000000 0.000000 
#    y 0.000000 1.697880 0.000000 
#    z 0.000000 0.000000 1.686170 
# 
# From -- ./inp_files/8260.got.cif
#   From: 2010.06.25/outbox.cif.g09.slc.cpg/sg71_5_cif.got.tgz:8260.got - 2010.06.28 04:59:45.
