data_PCOD8288047
_publ_section_title
;
Structure prediction by ZEFSAII (Michael W. Deem and Ramdas Pophale) SiO2 
 PCOD8288047
Probable space group: I M M M
;
_chemical_formula_sum "Si O2"
_cell_formula_units_Z 88
_cell_length_a 15.316274
_cell_length_b 16.737427
_cell_length_c 17.992200
_cell_angle_alpha 90.000000
_cell_angle_beta 90.000000
_cell_angle_gamma 90.000000
_cell_volume 4612.390755
_symmetry_space_group_name_H-M "I M M M"
_symmetry_group_IT_number 71
_symmetry_cell_setting 'orthorhombic'
loop_
_space_group_symop_operation_xyz
x,y,z
-x,-y,z
x,-y,-z
-x,y,-z
-x,-y,-z
x,y,-z
-x,y,z
x,-y,z
1/2+x,1/2+y,1/2+z
1/2-x,1/2-y,1/2+z
1/2+x,1/2-y,1/2-z
1/2-x,1/2+y,1/2-z
1/2-x,1/2-y,1/2-z
1/2+x,1/2+y,1/2-z
1/2-x,1/2+y,1/2+z
1/2+x,1/2-y,1/2+z
loop_
_atom_site_type_symbol
_atom_site_label
_atom_site_fract_x
_atom_site_fract_y
_atom_site_fract_z
Si Si1 0.599681 0.166472 0.129796
Si Si2 0.654419 0.330403 0.086628
Si Si3 0.900866 0.412887 0.221714
Si Si4 0.715258 0.093798 0.000000
Si Si5 0.897352 0.000000 0.415788
Si Si6 0.146338 0.683611 0.919130
Si Si7 0.097592 0.830038 0.000000
O O1 0.500000 0.136919 0.114376
O O2 0.597658 0.263037 0.127859
O O3 0.637242 0.138614 0.209991
O O4 0.667998 0.132035 0.070734
O O5 0.637522 0.418369 0.122475
O O6 0.753168 0.306011 0.100877
O O7 0.627678 0.330646 0.000000
O O8 0.853671 0.500000 0.215478
O O9 0.899471 0.366991 0.143928
O O10 0.000000 0.428284 0.241922
O O11 0.820459 0.109031 0.000000
O O12 0.699534 0.000000 0.000000
O O13 0.862258 0.000000 0.500000
O O14 0.000000 0.000000 0.411607
O O15 0.136914 0.639442 0.000000
O O16 0.105129 0.772630 0.926891
O O17 0.000000 0.870949 0.000000
#
# Coordination Sequence:
#
# PCOD8288047 Si02
#       7
#    16  16  16   8   8  16   8
#     4  11  21  37  59  84 119 159 192 236 287 342
#     4  10  18  34  54  84 116 149 197 236 280 346
#     4  10  22  36  52  84 120 149 191 243 296 345
#     4  12  23  39  60  89 117 152 201 231 274 347
#     4   9  18  28  48  82 118 152 185 237 288 337
#     4   9  19  36  60  82 106 147 194 238 292 352
#     4  10  20  40  62  86 112 141 191 249 294 338
#
# _framework density 19.079042000000001
#
# number of rings (size 3 to 8) (size 9 to 14) (size 15 to 20)
#    0.545    1.364    2.727    1.909    1.273    3.455 
#    0.000    0.909    0.000    0.000    0.000    0.000 
#    0.000    0.000    0.000    0.000    0.000    0.000 
#
# Total GULP energy -545094.552639 kJ/mol
# GULP energy per Si atom -12388.512560 kJ/mol
# Density = 1.903562 g / cm^3
# Si number density = 19.079042 Si / 1000 Ang^3
#
#
#
# Elastic Constant Matrix: (Units=GPa)
#
#
# Indices 1 2 3 4 5 6 
#
# 1 89.4229 19.6479 21.9799 0.0000 0.0000 0.0000
# 2 19.6479 124.3821 37.9714 0.0000 0.0000 0.0000
# 3 21.9799 37.9714 89.2026 0.0000 0.0000 0.0000
# 4 0.0000 0.0000 0.0000 14.0794 0.0000 0.0000
# 5 0.0000 0.0000 0.0000 0.0000 2.3047 0.0000
# 6 0.0000 0.0000 0.0000 0.0000 0.0000 23.4303
#
#
#
# Elastic Compliance Matrix: (Units=1/GPa)
#
#
# Indices 1 2 3 4 5 6 
#
# 1 0.012044 -0.001145 -0.002480 0.000000 0.000000 0.000000
# 2 -0.001145 0.009349 -0.003698 0.000000 0.000000 0.000000
# 3 -0.002480 -0.003698 0.013396 0.000000 0.000000 0.000000
# 4 0.000000 0.000000 0.000000 0.071026 0.000000 0.000000
# 5 0.000000 0.000000 0.000000 0.000000 0.433898 0.000000
# 6 0.000000 0.000000 0.000000 0.000000 0.000000 0.042680
#
#
# Mechanical properties :
#
#
# Convention : Reuss Voigt Hill
#
# Bulk Modulus (GPa) = 49.64554 51.35623 50.50089
# Shear Modulus (GPa) = 8.28153 22.85677 15.56915
#
# Velocity S-wave (km/s) = 2.08568 3.46497 2.85973
# Velocity P-wave (km/s) = 5.64602 6.55623 6.11807
#
# Compressibility (1/GPa) = 0.02014279
#
# Stress axis : x y z
#
# Youngs Moduli (GPa) = 83.02816 106.95780 74.65168
#
# Poissons Ratio (x) = 0.12251 0.18515
# Poissons Ratio (y) = 0.09510 0.27603
# Poissons Ratio (z) = 0.20592 0.39549
#
# Static dielectric constant tensor:
#      x y z
#    x 3.395940 0.000000 0.000000 
#    y 0.000000 3.746380 0.000000 
#    z 0.000000 0.000000 3.257940 
# 
# 
# High freq. dielectric constant tensor:
#      x y z
#    x 1.737150 0.000000 0.000000 
#    y 0.000000 1.740920 0.000000 
#    z 0.000000 0.000000 1.707450 
# 
# From -- ./inp_files/44734.got.cif
#   From: 2010.06.25/outbox.cif.g09.slc.cpg/sg71_23_cif.got.tgz:44734.got - 2010.06.28 04:59:45.
