data_PCOD8288977
_publ_section_title
;
Structure prediction by ZEFSAII (Michael W. Deem and Ramdas Pophale) SiO2 
 PCOD8288977
Probable space group: I M M M
;
_chemical_formula_sum "Si O2"
_cell_formula_units_Z 104
_cell_length_a 20.233098
_cell_length_b 19.608789
_cell_length_c 13.616432
_cell_angle_alpha 90.000000
_cell_angle_beta 90.000000
_cell_angle_gamma 90.000000
_cell_volume 5402.272412
_symmetry_space_group_name_H-M "I M M M"
_symmetry_group_IT_number 71
_symmetry_cell_setting 'orthorhombic'
loop_
_space_group_symop_operation_xyz
x,y,z
-x,-y,z
x,-y,-z
-x,y,-z
-x,-y,-z
x,y,-z
-x,y,z
x,-y,z
1/2+x,1/2+y,1/2+z
1/2-x,1/2-y,1/2+z
1/2+x,1/2-y,1/2-z
1/2-x,1/2+y,1/2-z
1/2-x,1/2-y,1/2-z
1/2+x,1/2+y,1/2-z
1/2-x,1/2+y,1/2+z
1/2+x,1/2-y,1/2+z
loop_
_atom_site_type_symbol
_atom_site_label
_atom_site_fract_x
_atom_site_fract_y
_atom_site_fract_z
Si Si1 0.693806 0.821343 0.605507
Si Si2 0.578052 0.000000 0.886200
Si Si3 0.073885 0.237235 0.689160
Si Si4 0.202418 0.923001 0.811003
Si Si5 0.333961 0.372044 0.109530
Si Si6 0.152811 0.372608 0.300191
Si Si7 0.116546 0.190576 0.890688
O O1 0.671374 0.850510 0.500000
O O2 0.772485 0.820669 0.616549
O O3 0.655117 0.869482 0.681824
O O4 0.678145 0.741771 0.615903
O O5 0.606203 0.933406 0.833800
O O6 0.500000 0.000000 0.873264
O O7 0.599018 0.000000 0.000000
O O8 0.100492 0.171862 0.629905
O O9 0.121419 0.301165 0.663503
O O10 0.067825 0.216365 0.804734
O O11 0.000000 0.254565 0.652713
O O12 0.180663 0.926635 0.695676
O O13 0.271743 0.884981 0.834703
O O14 0.144786 0.884806 0.870609
O O15 0.208036 0.000000 0.849838
O O16 0.339247 0.405771 0.000000
O O17 0.083267 0.192032 0.000000
#
# Coordination Sequence:
#
# PCOD8288977 Si02
#       7
#    16   8  16  16  16  16  16
#     4   8  15  31  56  81 101 125 165 221 283 328
#     4  11  24  38  49  67 105 157 199 216 234 290
#     4  10  20  33  53  78 104 139 181 219 257 309
#     4  10  19  32  52  81 109 137 172 213 263 320
#     4   9  18  32  51  76 104 132 169 220 273 316
#     4  10  19  35  53  75 108 144 176 216 261 301
#     4   9  18  32  51  76 104 132 169 222 276 318
#
# _framework density 19.251158
#
# number of rings (size 3 to 8) (size 9 to 14) (size 15 to 20)
#    0.000    2.538    0.769    1.385    0.000    6.154 
#    0.000    0.385    0.000    9.231    0.000    8.615 
#    0.000    0.000    0.000    0.000    0.000    0.000 
#
# Total GULP energy -644193.346395 kJ/mol
# GULP energy per Si atom -12388.333585 kJ/mol
# Density = 1.920734 g / cm^3
# Si number density = 19.251158 Si / 1000 Ang^3
#
#
#
# Elastic Constant Matrix: (Units=GPa)
#
#
# Indices 1 2 3 4 5 6 
#
# 1 70.0318 33.2191 14.6784 0.0000 0.0000 0.0000
# 2 33.2191 86.9574 18.1655 0.0000 0.0000 0.0000
# 3 14.6784 18.1655 80.8419 0.0000 0.0000 0.0000
# 4 0.0000 0.0000 0.0000 18.2127 0.0000 0.0000
# 5 0.0000 0.0000 0.0000 0.0000 15.8310 0.0000
# 6 0.0000 0.0000 0.0000 0.0000 0.0000 23.9048
#
#
#
# Elastic Compliance Matrix: (Units=1/GPa)
#
#
# Indices 1 2 3 4 5 6 
#
# 1 0.017679 -0.006383 -0.001776 0.000000 0.000000 0.000000
# 2 -0.006383 0.014371 -0.002070 0.000000 0.000000 0.000000
# 3 -0.001776 -0.002070 0.013157 0.000000 0.000000 0.000000
# 4 0.000000 0.000000 0.000000 0.054907 0.000000 0.000000
# 5 0.000000 0.000000 0.000000 0.000000 0.063167 0.000000
# 6 0.000000 0.000000 0.000000 0.000000 0.000000 0.041833
#
#
# Mechanical properties :
#
#
# Convention : Reuss Voigt Hill
#
# Bulk Modulus (GPa) = 40.40449 41.10633 40.75541
# Shear Modulus (GPa) = 21.38389 23.04091 22.21240
#
# Velocity S-wave (km/s) = 3.33646 3.46332 3.40048
# Velocity P-wave (km/s) = 5.98968 6.11488 6.05260
#
# Compressibility (1/GPa) = 0.02474972
#
# Stress axis : x y z
#
# Youngs Moduli (GPa) = 56.56431 69.58630 76.00268
#
# Poissons Ratio (x) = 0.44415 0.13496
# Poissons Ratio (y) = 0.36103 0.15734
# Poissons Ratio (z) = 0.10044 0.14406
#
# Static dielectric constant tensor:
#      x y z
#    x 3.232440 0.000000 0.000000 
#    y 0.000000 3.244680 0.000000 
#    z 0.000000 0.000000 3.762210 
# 
# 
# High freq. dielectric constant tensor:
#      x y z
#    x 1.728020 0.000000 0.000000 
#    y 0.000000 1.728350 0.000000 
#    z 0.000000 0.000000 1.753920 
# 
# From -- ./inp_files/38086.got.cif
#   From: 2010.06.25/outbox.cif.g09.slc.cpg/sg71_20_cif.got.tgz:38086.got - 2010.06.28 04:59:45.
