data_PCOD8288608
_publ_section_title
;
Structure prediction by ZEFSAII (Michael W. Deem and Ramdas Pophale) SiO2 
 PCOD8288608
Probable space group: I M M M
;
_chemical_formula_sum "Si O2"
_cell_formula_units_Z 80
_cell_length_a 13.232258
_cell_length_b 25.770429
_cell_length_c 13.568557
_cell_angle_alpha 90.000000
_cell_angle_beta 90.000000
_cell_angle_gamma 90.000000
_cell_volume 4626.891035
_symmetry_space_group_name_H-M "I M M M"
_symmetry_group_IT_number 71
_symmetry_cell_setting 'orthorhombic'
loop_
_space_group_symop_operation_xyz
x,y,z
-x,-y,z
x,-y,-z
-x,y,-z
-x,-y,-z
x,y,-z
-x,y,z
x,-y,z
1/2+x,1/2+y,1/2+z
1/2-x,1/2-y,1/2+z
1/2+x,1/2-y,1/2-z
1/2-x,1/2+y,1/2-z
1/2-x,1/2-y,1/2-z
1/2+x,1/2+y,1/2-z
1/2-x,1/2+y,1/2+z
1/2+x,1/2-y,1/2+z
loop_
_atom_site_type_symbol
_atom_site_label
_atom_site_fract_x
_atom_site_fract_y
_atom_site_fract_z
Si Si1 0.383376 0.335832 0.724007
Si Si2 0.615903 0.214431 0.273226
Si Si3 0.804907 0.639789 0.385535
Si Si4 0.258203 0.864236 0.385757
Si Si5 0.118539 0.440456 0.761020
O O1 0.500000 0.348581 0.703631
O O2 0.360331 0.274899 0.732504
O O3 0.316097 0.358585 0.634398
O O4 0.347721 0.362591 0.826058
O O5 0.500000 0.204125 0.298182
O O6 0.643325 0.188667 0.168429
O O7 0.679663 0.188073 0.360895
O O8 0.829464 0.642646 0.500000
O O9 0.851253 0.586862 0.341717
O O10 0.232938 0.867861 0.500000
O O11 0.323194 0.913984 0.352167
O O12 0.151770 0.500000 0.754237
O O13 0.000000 0.434493 0.780359
#
# Coordination Sequence:
#
# PCOD8288608 Si02
#       5
#    16  16  16  16  16
#     4   9  19  34  48  66  96 131 165 198 232 274
#     4   9  18  31  46  68 100 133 160 190 232 280
#     4  10  19  31  49  72  97 125 159 198 237 277
#     4  10  19  31  49  72  97 125 159 198 237 277
#     4   9  19  35  52  72  99 126 151 185 234 290
#
# _framework density 17.290227000000002
#
# number of rings (size 3 to 8) (size 9 to 14) (size 15 to 20)
#    0.000    3.000    0.000    4.800    0.000    8.000 
#    0.000    6.000    0.000    9.600    0.000   11.200 
#    0.000    0.000    0.000    0.000    0.000    0.000 
#
# Total GULP energy -495849.475433 kJ/mol
# GULP energy per Si atom -12396.236886 kJ/mol
# Density = 1.725087 g / cm^3
# Si number density = 17.290227 Si / 1000 Ang^3
#
#
#
# Elastic Constant Matrix: (Units=GPa)
#
#
# Indices 1 2 3 4 5 6 
#
# 1 52.5423 32.6417 -21.6943 -0.0001 0.0000 0.0000
# 2 32.6417 77.2683 6.9816 -0.0002 0.0000 0.0001
# 3 -21.6943 6.9816 68.0849 -0.0004 0.0000 0.0001
# 4 -0.0001 -0.0002 -0.0004 8.0198 0.0000 0.0000
# 5 0.0000 0.0000 0.0000 0.0000 10.4956 0.0000
# 6 0.0000 0.0001 0.0001 0.0000 0.0000 26.8403
#
#
#
# Elastic Compliance Matrix: (Units=1/GPa)
#
#
# Indices 1 2 3 4 5 6 
#
# 1 0.033614 -0.015310 0.012280 0.000001 0.000000 0.000000
# 2 -0.015310 0.020036 -0.006933 0.000000 0.000000 0.000000
# 3 0.012280 -0.006933 0.019311 0.000001 0.000000 0.000000
# 4 0.000001 0.000000 0.000001 0.124692 0.000000 0.000000
# 5 0.000000 0.000000 0.000000 0.000000 0.095278 0.000000
# 6 0.000000 0.000000 0.000000 0.000000 0.000000 0.037257
#
#
# Mechanical properties :
#
#
# Convention : Reuss Voigt Hill
#
# Bulk Modulus (GPa) = 18.85463 25.97258 22.41361
# Shear Modulus (GPa) = 13.59466 21.06890 17.33178
#
# Velocity S-wave (km/s) = 2.80708 3.49455 3.16951
# Velocity P-wave (km/s) = 4.62976 5.59792 5.13670
#
# Compressibility (1/GPa) = 0.05303737
#
# Stress axis : x y z
#
# Youngs Moduli (GPa) = 29.74963 49.91060 51.78274
#
# Poissons Ratio (x) = 0.76411 -0.63592
# Poissons Ratio (y) = 0.45546 0.35900
# Poissons Ratio (z) = -0.36534 0.34602
#
# Static dielectric constant tensor:
#      x y z
#    x 3.352380 0.000000 0.000000 
#    y 0.000000 3.225740 0.000000 
#    z 0.000000 0.000000 2.935180 
# 
# 
# High freq. dielectric constant tensor:
#      x y z
#    x 1.676230 0.000000 0.000000 
#    y 0.000000 1.658720 0.000000 
#    z 0.000000 0.000000 1.647460 
# 
# From -- ./inp_files/32877.got.cif
#   From: 2010.06.25/outbox.cif.g09.slc.cpg/sg71_17_cif.got.tgz:32877.got - 2010.06.28 04:59:45.
