data_PCOD8288468
_publ_section_title
;
Structure prediction by ZEFSAII (Michael W. Deem and Ramdas Pophale) SiO2 
 PCOD8288468
Probable space group: I M M M
;
_chemical_formula_sum "Si O2"
_cell_formula_units_Z 120
_cell_length_a 13.967243
_cell_length_b 21.989697
_cell_length_c 23.526850
_cell_angle_alpha 90.000000
_cell_angle_beta 90.000000
_cell_angle_gamma 90.000000
_cell_volume 7225.929462
_symmetry_space_group_name_H-M "I M M M"
_symmetry_group_IT_number 71
_symmetry_cell_setting 'orthorhombic'
loop_
_space_group_symop_operation_xyz
x,y,z
-x,-y,z
x,-y,-z
-x,y,-z
-x,-y,-z
x,y,-z
-x,y,z
x,-y,z
1/2+x,1/2+y,1/2+z
1/2-x,1/2-y,1/2+z
1/2+x,1/2-y,1/2-z
1/2-x,1/2+y,1/2-z
1/2-x,1/2-y,1/2-z
1/2+x,1/2+y,1/2-z
1/2-x,1/2+y,1/2+z
1/2+x,1/2-y,1/2+z
loop_
_atom_site_type_symbol
_atom_site_label
_atom_site_fract_x
_atom_site_fract_y
_atom_site_fract_z
Si Si1 0.386746 0.363995 0.436695
Si Si2 0.391507 0.246743 0.621051
Si Si3 0.272348 0.851327 0.254544
Si Si4 0.264121 0.429000 0.353004
Si Si5 0.886770 0.500000 0.936028
Si Si6 0.394068 0.072319 0.937310
Si Si7 0.114768 0.614035 0.860662
Si Si8 0.889836 0.237259 0.746025
O O1 0.349957 0.380103 0.500000
O O2 0.500000 0.361075 0.434990
O O3 0.341545 0.298348 0.417820
O O4 0.357017 0.415455 0.391502
O O5 0.500000 0.243813 0.601370
O O6 0.351427 0.178397 0.611742
O O7 0.381926 0.267210 0.686073
O O8 0.232864 0.896593 0.207248
O O9 0.326567 0.892040 0.301859
O O10 0.178988 0.815427 0.279772
O O11 0.348129 0.803064 0.227854
O O12 0.256608 0.500000 0.341191
O O13 0.175575 0.401986 0.389219
O O14 0.852824 0.439922 0.902452
O O15 0.000000 0.500000 0.940028
O O16 0.843319 0.500000 0.000000
O O17 0.500000 0.095929 0.922702
O O18 0.390908 0.000000 0.937008
O O19 0.363234 0.095702 0.000000
O O20 0.000000 0.612986 0.848097
O O21 0.000000 0.229744 0.725248
#
# Coordination Sequence:
#
# PCOD8288468 Si02
#       8
#    16  16  16  16   8  16  16  16
#     4  10  20  33  49  69  95 130 173 215 250 286
#     4   8  14  28  47  66  90 123 161 201 242 281
#     4  10  19  30  50  73  97 130 161 196 252 300
#     4  11  22  32  45  68  98 130 167 207 247 293
#     4   9  18  32  50  74 107 143 166 187 237 307
#     4   8  15  29  45  58  78 115 161 205 244 281
#     4   9  18  31  49  74 106 135 161 197 241 300
#     4   9  17  32  52  71  94 125 160 200 250 304
#
# _framework density 16.606860000000001
#
# number of rings (size 3 to 8) (size 9 to 14) (size 15 to 20)
#    0.000    2.733    1.333    2.000    0.933    2.667 
#    0.000    3.333    0.000    0.000    0.000    0.000 
#    0.000    1.067    0.000    0.000    0.000    0.000 
#
# Total GULP energy -743431.708855 kJ/mol
# GULP energy per Si atom -12390.528481 kJ/mol
# Density = 1.656906 g / cm^3
# Si number density = 16.606860 Si / 1000 Ang^3
#
#
#
# Elastic Constant Matrix: (Units=GPa)
#
#
# Indices 1 2 3 4 5 6 
#
# 1 60.9912 26.0847 20.8774 0.0000 0.0000 0.0000
# 2 26.0847 71.3880 41.2420 0.0000 0.0000 0.0000
# 3 20.8774 41.2420 78.3381 0.0000 0.0000 0.0000
# 4 0.0000 0.0000 0.0000 18.9640 0.0000 0.0000
# 5 0.0000 0.0000 0.0000 0.0000 20.1680 0.0000
# 6 0.0000 0.0000 0.0000 0.0000 0.0000 18.9531
#
#
#
# Elastic Compliance Matrix: (Units=1/GPa)
#
#
# Indices 1 2 3 4 5 6 
#
# 1 0.019669 -0.005976 -0.002096 0.000000 0.000000 0.000000
# 2 -0.005976 0.021946 -0.009961 0.000000 0.000000 0.000000
# 3 -0.002096 -0.009961 0.018568 0.000000 0.000000 0.000000
# 4 0.000000 0.000000 0.000000 0.052731 0.000000 0.000000
# 5 0.000000 0.000000 0.000000 0.000000 0.049583 0.000000
# 6 0.000000 0.000000 0.000000 0.000000 0.000000 0.052762
#
#
# Mechanical properties :
#
#
# Convention : Reuss Voigt Hill
#
# Bulk Modulus (GPa) = 41.46432 43.01394 42.23913
# Shear Modulus (GPa) = 19.27782 19.78458 19.53120
#
# Velocity S-wave (km/s) = 3.41080 3.45534 3.43314
# Velocity P-wave (km/s) = 6.36662 6.47122 6.41913
#
# Compressibility (1/GPa) = 0.02411712
#
# Stress axis : x y z
#
# Youngs Moduli (GPa) = 50.84121 45.56546 53.85645
#
# Poissons Ratio (x) = 0.27231 0.11286
# Poissons Ratio (y) = 0.30384 0.53648
# Poissons Ratio (z) = 0.10654 0.45389
#
# Static dielectric constant tensor:
#      x y z
#    x 3.114690 0.000000 0.000000 
#    y 0.000000 3.140360 0.000000 
#    z 0.000000 0.000000 3.105880 
# 
# 
# High freq. dielectric constant tensor:
#      x y z
#    x 1.618240 0.000000 0.000000 
#    y 0.000000 1.631530 0.000000 
#    z 0.000000 0.000000 1.620860 
# 
# From -- ./inp_files/60200.got.cif
#   From: 2010.06.25/outbox.cif.g09.slc.cpg/sg71_31_cif.got.tgz:60200.got - 2010.06.28 04:59:45.
