data_PCOD8288228
_publ_section_title
;
Structure prediction by ZEFSAII (Michael W. Deem and Ramdas Pophale) SiO2 
 PCOD8288228
Probable space group: I M M M
;
_chemical_formula_sum "Si O2"
_cell_formula_units_Z 112
_cell_length_a 20.704981
_cell_length_b 17.302722
_cell_length_c 17.265183
_cell_angle_alpha 90.000000
_cell_angle_beta 90.000000
_cell_angle_gamma 90.000000
_cell_volume 6185.295495
_symmetry_space_group_name_H-M "I M M M"
_symmetry_group_IT_number 71
_symmetry_cell_setting 'orthorhombic'
loop_
_space_group_symop_operation_xyz
x,y,z
-x,-y,z
x,-y,-z
-x,y,-z
-x,-y,-z
x,y,-z
-x,y,z
x,-y,z
1/2+x,1/2+y,1/2+z
1/2-x,1/2-y,1/2+z
1/2+x,1/2-y,1/2-z
1/2-x,1/2+y,1/2-z
1/2-x,1/2-y,1/2-z
1/2+x,1/2+y,1/2-z
1/2-x,1/2+y,1/2+z
1/2+x,1/2-y,1/2+z
loop_
_atom_site_type_symbol
_atom_site_label
_atom_site_fract_x
_atom_site_fract_y
_atom_site_fract_z
Si Si1 0.267722 0.694935 0.912680
Si Si2 0.149247 0.705514 0.698822
Si Si3 0.571995 0.128626 0.587959
Si Si4 0.808525 0.413363 0.820246
Si Si5 0.071571 0.216595 0.173211
Si Si6 0.319006 0.912765 0.089732
Si Si7 0.815695 0.840369 0.086263
O O1 0.317174 0.725283 0.847990
O O2 0.242928 0.610364 0.886745
O O3 0.205517 0.750836 0.913609
O O4 0.297746 0.690913 0.000000
O O5 0.195920 0.654727 0.755598
O O6 0.090038 0.743099 0.744967
O O7 0.129151 0.641156 0.634587
O O8 0.595377 0.117465 0.500000
O O9 0.500000 0.094565 0.599713
O O10 0.619522 0.082745 0.644618
O O11 0.570911 0.219815 0.605987
O O12 0.792155 0.500000 0.788837
O O13 0.124167 0.151712 0.146562
O O14 0.000000 0.179548 0.182749
O O15 0.245142 0.892029 0.113902
O O16 0.334258 0.000000 0.112093
O O17 0.327993 0.895208 0.000000
O O18 0.837395 0.866454 0.000000
#
# Coordination Sequence:
#
# PCOD8288228 Si02
#       7
#    16  16  16  16  16  16  16
#     4  10  19  32  50  70  92 125 162 199 244 293
#     4  10  19  33  49  68  96 128 163 199 240 288
#     4   9  17  29  43  60  90 133 170 191 215 266
#     4  11  21  29  43  70 101 128 155 195 243 286
#     4  10  19  29  46  69  94 125 166 206 237 274
#     4   9  18  31  50  76 100 124 157 200 251 303
#     4   9  16  28  48  71  96 125 159 196 237 291
#
# _framework density 18.107462000000002
#
# number of rings (size 3 to 8) (size 9 to 14) (size 15 to 20)
#    0.000    2.286    2.857    3.000    2.000    2.286 
#    0.000    0.714    0.000    3.429    0.000    3.000 
#    0.000    0.000    0.000    1.286    0.000    0.000 
#
# Total GULP energy -693755.178131 kJ/mol
# GULP energy per Si atom -12388.485324 kJ/mol
# Density = 1.806625 g / cm^3
# Si number density = 18.107462 Si / 1000 Ang^3
#
#
#
# Elastic Constant Matrix: (Units=GPa)
#
#
# Indices 1 2 3 4 5 6 
#
# 1 42.9018 -2.6200 33.4260 0.0000 0.0000 0.0000
# 2 -2.6200 24.6318 20.9958 0.0000 0.0000 0.0000
# 3 33.4260 20.9958 90.7309 0.0000 0.0000 0.0000
# 4 0.0000 0.0000 0.0000 19.2762 0.0000 0.0000
# 5 0.0000 0.0000 0.0000 0.0000 19.9329 0.0000
# 6 0.0000 0.0000 0.0000 0.0000 0.0000 13.5743
#
#
#
# Elastic Compliance Matrix: (Units=1/GPa)
#
#
# Indices 1 2 3 4 5 6 
#
# 1 0.039738 0.020811 -0.019456 0.000000 0.000000 0.000000
# 2 0.020811 0.061472 -0.021892 0.000000 0.000000 0.000000
# 3 -0.019456 -0.021892 0.023255 0.000000 0.000000 0.000000
# 4 0.000000 0.000000 0.000000 0.051877 0.000000 0.000000
# 5 0.000000 0.000000 0.000000 0.000000 0.050168 0.000000
# 6 0.000000 0.000000 0.000000 0.000000 0.000000 0.073668
#
#
# Mechanical properties :
#
#
# Convention : Reuss Voigt Hill
#
# Bulk Modulus (GPa) = 11.99161 29.09643 20.54402
# Shear Modulus (GPa) = 13.54829 17.65421 15.60125
#
# Velocity S-wave (km/s) = 2.73832 3.12584 2.93847
# Velocity P-wave (km/s) = 4.07857 5.39735 4.78363
#
# Compressibility (1/GPa) = 0.08339161
#
# Stress axis : x y z
#
# Youngs Moduli (GPa) = 25.16456 16.26765 43.00128
#
# Poissons Ratio (x) = -0.33854 0.83662
# Poissons Ratio (y) = -0.52369 0.94137
# Poissons Ratio (z) = 0.48959 0.35613
#
# Static dielectric constant tensor:
#      x y z
#    x 3.078720 0.000000 0.000000 
#    y 0.000000 3.080180 0.000000 
#    z 0.000000 0.000000 3.612390 
# 
# 
# High freq. dielectric constant tensor:
#      x y z
#    x 1.654680 0.000000 0.000000 
#    y 0.000000 1.668750 0.000000 
#    z 0.000000 0.000000 1.716110 
# 
# From -- ./inp_files/46410.got.cif
#   From: 2010.06.25/outbox.cif.g09.slc.cpg/sg71_24_cif.got.tgz:46410.got - 2010.06.28 04:59:45.
