data_PCOD8288905
_publ_section_title
;
Structure prediction by ZEFSAII (Michael W. Deem and Ramdas Pophale) SiO2 
 PCOD8288905
Probable space group: I M M M
;
_chemical_formula_sum "Si O2"
_cell_formula_units_Z 96
_cell_length_a 14.617676
_cell_length_b 26.322355
_cell_length_c 13.604918
_cell_angle_alpha 90.000000
_cell_angle_beta 90.000000
_cell_angle_gamma 90.000000
_cell_volume 5234.786841
_symmetry_space_group_name_H-M "I M M M"
_symmetry_group_IT_number 71
_symmetry_cell_setting 'orthorhombic'
loop_
_space_group_symop_operation_xyz
x,y,z
-x,-y,z
x,-y,-z
-x,y,-z
-x,-y,-z
x,y,-z
-x,y,z
x,-y,z
1/2+x,1/2+y,1/2+z
1/2-x,1/2-y,1/2+z
1/2+x,1/2-y,1/2-z
1/2-x,1/2+y,1/2-z
1/2-x,1/2-y,1/2-z
1/2+x,1/2+y,1/2-z
1/2-x,1/2+y,1/2+z
1/2+x,1/2-y,1/2+z
loop_
_atom_site_type_symbol
_atom_site_label
_atom_site_fract_x
_atom_site_fract_y
_atom_site_fract_z
Si Si1 0.897562 0.285111 0.887885
Si Si2 0.282742 0.404963 0.386221
Si Si3 0.099535 0.000000 0.116037
Si Si4 0.105950 0.820305 0.213320
Si Si5 0.500000 0.059732 0.390959
Si Si6 0.275752 0.646708 0.886982
Si Si7 0.814217 0.560342 0.789123
O O1 0.882369 0.238137 0.815129
O O2 0.821381 0.326762 0.863432
O O3 0.000000 0.308176 0.871663
O O4 0.887508 0.265784 0.000000
O O5 0.254721 0.407780 0.500000
O O6 0.349318 0.449669 0.349885
O O7 0.333582 0.352397 0.363831
O O8 0.192240 0.414912 0.320445
O O9 0.000000 0.000000 0.165988
O O10 0.090671 0.000000 0.000000
O O11 0.143483 0.827841 0.323707
O O12 0.000000 0.837213 0.207542
O O13 0.500000 0.085421 0.500000
O O14 0.412091 0.076672 0.330368
O O15 0.500000 0.000000 0.405588
O O16 0.263089 0.587486 0.856972
O O17 0.304708 0.651521 0.000000
O O18 0.798373 0.500000 0.789987
#
# Coordination Sequence:
#
# PCOD8288905 Si02
#       7
#    16  16   8  16   8  16  16
#     4   9  18  33  54  80 106 130 165 216 270 318
#     4  10  19  32  51  76 106 136 170 212 259 313
#     4   9  16  26  44  69  95 126 164 205 245 292
#     4  10  20  34  53  77 106 141 177 215 261 313
#     4   9  18  32  51  73  97 129 174 218 253 296
#     4  10  21  34  52  77 105 139 177 219 264 310
#     4  10  20  34  52  77 106 137 173 216 263 313
#
# _framework density 18.338856
#
# number of rings (size 3 to 8) (size 9 to 14) (size 15 to 20)
#    0.000    2.333    0.833    2.000    1.167    3.000 
#    0.000    0.417    0.000    1.500    0.000    2.333 
#    0.000    0.000    0.000    0.000    0.000    0.000 
#
# Total GULP energy -595058.854095 kJ/mol
# GULP energy per Si atom -12397.059460 kJ/mol
# Density = 1.829712 g / cm^3
# Si number density = 18.338856 Si / 1000 Ang^3
#
#
#
# Elastic Constant Matrix: (Units=GPa)
#
#
# Indices 1 2 3 4 5 6 
#
# 1 80.2047 21.3736 53.6102 0.0000 0.0000 0.0000
# 2 21.3736 58.3932 30.4650 0.0001 0.0000 0.0000
# 3 53.6102 30.4650 128.5048 0.0002 0.0000 0.0000
# 4 0.0000 0.0001 0.0002 21.8214 0.0000 0.0000
# 5 0.0000 0.0000 0.0000 0.0000 25.6561 0.0000
# 6 0.0000 0.0000 0.0000 0.0000 0.0000 26.7773
#
#
#
# Elastic Compliance Matrix: (Units=1/GPa)
#
#
# Indices 1 2 3 4 5 6 
#
# 1 0.017739 -0.003004 -0.006688 0.000000 0.000000 0.000000
# 2 -0.003004 0.020051 -0.003500 0.000000 0.000000 0.000000
# 3 -0.006688 -0.003500 0.011402 0.000000 0.000000 0.000000
# 4 0.000000 0.000000 0.000000 0.045827 0.000000 0.000000
# 5 0.000000 0.000000 0.000000 0.000000 0.038977 0.000000
# 6 0.000000 0.000000 0.000000 0.000000 0.000000 0.037345
#
#
# Mechanical properties :
#
#
# Convention : Reuss Voigt Hill
#
# Bulk Modulus (GPa) = 43.84593 53.11114 48.47854
# Shear Modulus (GPa) = 24.35125 25.62788 24.98957
#
# Velocity S-wave (km/s) = 3.64792 3.74232 3.69542
# Velocity P-wave (km/s) = 6.45785 6.90631 6.68584
#
# Compressibility (1/GPa) = 0.02280713
#
# Stress axis : x y z
#
# Youngs Moduli (GPa) = 56.37235 49.87299 87.70385
#
# Poissons Ratio (x) = 0.14980 0.58660
# Poissons Ratio (y) = 0.16932 0.30701
# Poissons Ratio (z) = 0.37704 0.17458
#
# Static dielectric constant tensor:
#      x y z
#    x 3.440060 0.000000 0.000000 
#    y 0.000000 3.325760 0.000000 
#    z 0.000000 0.000000 3.352900 
# 
# 
# High freq. dielectric constant tensor:
#      x y z
#    x 1.698770 0.000000 0.000000 
#    y 0.000000 1.717980 0.000000 
#    z 0.000000 0.000000 1.704740 
# 
# From -- ./inp_files/22591.got.cif
#   From: 2010.06.25/outbox.cif.g09.slc.cpg/sg71_12_cif.got.tgz:22591.got - 2010.06.28 04:59:45.
