data_PCOD8288269
_publ_section_title
;
Structure prediction by ZEFSAII (Michael W. Deem and Ramdas Pophale) SiO2 
 PCOD8288269
Probable space group: I M M M
;
_chemical_formula_sum "Si O2"
_cell_formula_units_Z 72
_cell_length_a 12.383942
_cell_length_b 13.947590
_cell_length_c 22.991751
_cell_angle_alpha 90.000000
_cell_angle_beta 90.000000
_cell_angle_gamma 90.000000
_cell_volume 3971.276531
_symmetry_space_group_name_H-M "I M M M"
_symmetry_group_IT_number 71
_symmetry_cell_setting 'orthorhombic'
loop_
_space_group_symop_operation_xyz
x,y,z
-x,-y,z
x,-y,-z
-x,y,-z
-x,-y,-z
x,y,-z
-x,y,z
x,-y,z
1/2+x,1/2+y,1/2+z
1/2-x,1/2-y,1/2+z
1/2+x,1/2-y,1/2-z
1/2-x,1/2+y,1/2-z
1/2-x,1/2-y,1/2-z
1/2+x,1/2+y,1/2-z
1/2-x,1/2+y,1/2+z
1/2+x,1/2-y,1/2+z
loop_
_atom_site_type_symbol
_atom_site_label
_atom_site_fract_x
_atom_site_fract_y
_atom_site_fract_z
Si Si1 0.500000 0.603196 0.568100
Si Si2 0.694032 0.263793 0.435099
Si Si3 0.628545 0.210182 0.681946
Si Si4 0.244855 0.391650 0.717918
Si Si5 0.623668 0.891625 0.899397
O O1 0.500000 0.500000 0.599573
O O2 0.500000 0.589197 0.500000
O O3 0.606951 0.658161 0.586864
O O4 0.669004 0.221538 0.500000
O O5 0.681352 0.187769 0.382545
O O6 0.808996 0.316585 0.438108
O O7 0.500000 0.198715 0.680236
O O8 0.658730 0.316355 0.706120
O O9 0.682072 0.130263 0.722494
O O10 0.291857 0.500000 0.720989
O O11 0.155609 0.382145 0.667691
O O12 0.500000 0.862026 0.906605
O O13 0.643844 0.000000 0.922077
#
# Coordination Sequence:
#
# PCOD8288269 Si02
#       5
#     8  16  16  16  16
#     4   9  16  26  40  58  85 121 155 189 235 288
#     4  10  19  30  43  65  96 129 161 200 243 286
#     4  10  19  32  51  75  98 128 168 205 244 297
#     4   9  19  34  51  73 101 129 161 205 254 297
#     4   9  17  29  45  66  92 123 158 197 241 294
#
# _framework density 18.130191
#
# number of rings (size 3 to 8) (size 9 to 14) (size 15 to 20)
#    0.000    2.556    1.111    1.333    0.000    4.444 
#    0.000    1.111    0.000    0.667    0.000    1.556 
#    0.000    0.000    0.000   16.222    0.000    0.000 
#
# Total GULP energy -446137.955328 kJ/mol
# GULP energy per Si atom -12392.720981 kJ/mol
# Density = 1.808893 g / cm^3
# Si number density = 18.130191 Si / 1000 Ang^3
#
#
#
# Elastic Constant Matrix: (Units=GPa)
#
#
# Indices 1 2 3 4 5 6 
#
# 1 74.7414 -5.7519 9.5564 0.0000 0.0000 0.0000
# 2 -5.7519 33.6872 11.2665 0.0000 0.0000 0.0000
# 3 9.5564 11.2665 108.8100 0.0000 0.0000 0.0000
# 4 0.0000 0.0000 0.0000 16.5487 0.0000 0.0000
# 5 0.0000 0.0000 0.0000 0.0000 19.4246 0.0000
# 6 0.0000 0.0000 0.0000 0.0000 0.0000 18.3646
#
#
#
# Elastic Compliance Matrix: (Units=1/GPa)
#
#
# Indices 1 2 3 4 5 6 
#
# 1 0.013792 0.002859 -0.001507 0.000000 0.000000 0.000000
# 2 0.002859 0.031342 -0.003496 0.000000 0.000000 0.000000
# 3 -0.001507 -0.003496 0.009685 0.000000 0.000000 0.000000
# 4 0.000000 0.000000 0.000000 0.060428 0.000000 0.000000
# 5 0.000000 0.000000 0.000000 0.000000 0.051481 0.000000
# 6 0.000000 0.000000 0.000000 0.000000 0.000000 0.054453
#
#
# Mechanical properties :
#
#
# Convention : Reuss Voigt Hill
#
# Bulk Modulus (GPa) = 19.79022 27.48673 23.63847
# Shear Modulus (GPa) = 20.63445 24.34543 22.48994
#
# Velocity S-wave (km/s) = 3.37727 3.66841 3.52585
# Velocity P-wave (km/s) = 5.11344 5.75645 5.44444
#
# Compressibility (1/GPa) = 0.05053002
#
# Stress axis : x y z
#
# Youngs Moduli (GPa) = 72.50458 31.90571 103.25514
#
# Poissons Ratio (x) = -0.09122 0.15564
# Poissons Ratio (y) = -0.20730 0.36102
# Poissons Ratio (z) = 0.10929 0.11155
#
# Static dielectric constant tensor:
#      x y z
#    x 3.375690 0.000000 0.000000 
#    y 0.000000 3.175440 0.000000 
#    z 0.000000 0.000000 3.489940 
# 
# 
# High freq. dielectric constant tensor:
#      x y z
#    x 1.702330 0.000000 0.000000 
#    y 0.000000 1.649860 0.000000 
#    z 0.000000 0.000000 1.713590 
# 
# From -- ./inp_files/19863.got.cif
#   From: 2010.06.25/outbox.cif.g09.slc.cpg/sg71_10_cif.got.tgz:19863.got - 2010.06.28 04:59:45.
