data_PCOD8288112
_publ_section_title
;
Structure prediction by ZEFSAII (Michael W. Deem and Ramdas Pophale) SiO2 
 PCOD8288112
Probable space group: I M M M
;
_chemical_formula_sum "Si O2"
_cell_formula_units_Z 80
_cell_length_a 8.944085
_cell_length_b 32.894684
_cell_length_c 19.309952
_cell_angle_alpha 90.000000
_cell_angle_beta 90.000000
_cell_angle_gamma 90.000000
_cell_volume 5681.236006
_symmetry_space_group_name_H-M "I M M M"
_symmetry_group_IT_number 71
_symmetry_cell_setting 'orthorhombic'
loop_
_space_group_symop_operation_xyz
x,y,z
-x,-y,z
x,-y,-z
-x,y,-z
-x,-y,-z
x,y,-z
-x,y,z
x,-y,z
1/2+x,1/2+y,1/2+z
1/2-x,1/2-y,1/2+z
1/2+x,1/2-y,1/2-z
1/2-x,1/2+y,1/2-z
1/2-x,1/2-y,1/2-z
1/2+x,1/2+y,1/2-z
1/2-x,1/2+y,1/2+z
1/2+x,1/2-y,1/2+z
loop_
_atom_site_type_symbol
_atom_site_label
_atom_site_fract_x
_atom_site_fract_y
_atom_site_fract_z
Si Si1 0.323904 0.744121 0.000000
Si Si2 0.323268 0.120676 0.862838
Si Si3 0.675181 0.264362 0.149760
Si Si4 0.677438 0.834585 0.000000
Si Si5 0.675550 0.311894 0.282633
Si Si6 0.325656 0.546350 0.420920
O O1 0.275836 0.721678 0.928330
O O2 0.254987 0.789373 0.000000
O O3 0.500000 0.748347 0.000000
O O4 0.500000 0.120795 0.854586
O O5 0.252538 0.144819 0.797971
O O6 0.265042 0.074450 0.867096
O O7 0.263875 0.142594 0.932099
O O8 0.500000 0.253491 0.153257
O O9 0.714512 0.300428 0.202907
O O10 0.761403 0.223063 0.167548
O O11 0.500000 0.834418 0.000000
O O12 0.500000 0.315625 0.294695
O O13 0.271889 0.553882 0.500000
O O14 0.500000 0.556142 0.414420
O O15 0.292405 0.500000 0.399660
#
# Coordination Sequence:
#
# PCOD8288112 Si02
#       6
#     8  16  16   8  16  16
#     4   9  14  26  44  57  73 100 136 173 205 237
#     4  11  19  29  43  58  78 107 141 172 201 238
#     4   9  17  29  43  57  76 103 135 170 207 247
#     4   9  16  24  37  57  76  99 135 173 201 226
#     4  10  19  28  39  58  81 104 132 168 210 247
#     4   9  18  31  44  60  83 106 129 165 211 247
#
# _framework density 14.081443
#
# number of rings (size 3 to 8) (size 9 to 14) (size 15 to 20)
#    0.000    2.400    3.000    1.800    0.000    1.200 
#    0.000    2.500    0.000    0.000    0.000    0.000 
#    0.000    0.000    0.000    0.900    0.000   20.600 
#
# Total GULP energy -495793.136073 kJ/mol
# GULP energy per Si atom -12394.828402 kJ/mol
# Density = 1.404939 g / cm^3
# Si number density = 14.081443 Si / 1000 Ang^3
#
#
#
# Elastic Constant Matrix: (Units=GPa)
#
#
# Indices 1 2 3 4 5 6 
#
# 1 52.1809 37.6651 29.7256 0.0000 0.0000 0.0000
# 2 37.6651 85.7747 45.9835 0.0000 0.0000 0.0000
# 3 29.7256 45.9835 100.0231 0.0002 0.0000 0.0000
# 4 0.0000 0.0000 0.0002 25.2393 0.0000 0.0000
# 5 0.0000 0.0000 0.0000 0.0000 15.0556 0.0000
# 6 0.0000 0.0000 0.0000 0.0000 0.0000 22.2889
#
#
#
# Elastic Compliance Matrix: (Units=1/GPa)
#
#
# Indices 1 2 3 4 5 6 
#
# 1 0.029040 -0.010783 -0.003673 0.000000 0.000000 0.000000
# 2 -0.010783 0.019475 -0.005749 0.000000 0.000000 0.000000
# 3 -0.003673 -0.005749 0.013732 0.000000 0.000000 0.000000
# 4 0.000000 0.000000 0.000000 0.039621 0.000000 0.000000
# 5 0.000000 0.000000 0.000000 0.000000 0.066421 0.000000
# 6 0.000000 0.000000 0.000000 0.000000 0.000000 0.044865
#
#
# Mechanical properties :
#
#
# Convention : Reuss Voigt Hill
#
# Bulk Modulus (GPa) = 45.79207 51.63633 48.71420
# Shear Modulus (GPa) = 19.16869 20.82374 19.99621
#
# Velocity S-wave (km/s) = 3.69355 3.84970 3.77243
# Velocity P-wave (km/s) = 7.12599 7.51729 7.32425
#
# Compressibility (1/GPa) = 0.02183784
#
# Stress axis : x y z
#
# Youngs Moduli (GPa) = 34.43570 51.34738 72.82153
#
# Poissons Ratio (x) = 0.55366 0.26748
# Poissons Ratio (y) = 0.37131 0.41864
# Poissons Ratio (z) = 0.12649 0.29519
#
# Static dielectric constant tensor:
#      x y z
#    x 2.658740 0.000000 0.000000 
#    y 0.000000 2.649490 0.000000 
#    z 0.000000 0.000000 2.913170 
# 
# 
# High freq. dielectric constant tensor:
#      x y z
#    x 1.533900 0.000000 0.000000 
#    y 0.000000 1.510810 0.000000 
#    z 0.000000 0.000000 1.517190 
# 
# From -- ./inp_files/16799.got.cif
#   From: 2010.06.25/outbox.cif.g09.slc.cpg/sg71_9_cif.got.tgz:16799.got - 2010.06.28 04:59:45.
