data_PCOD8288401
_publ_section_title
;
Structure prediction by ZEFSAII (Michael W. Deem and Ramdas Pophale) SiO2 
 PCOD8288401
Probable space group: I M M M
;
_chemical_formula_sum "Si O2"
_cell_formula_units_Z 88
_cell_length_a 32.305081
_cell_length_b 9.125691
_cell_length_c 17.205802
_cell_angle_alpha 90.000000
_cell_angle_beta 90.000000
_cell_angle_gamma 90.000000
_cell_volume 5072.376881
_symmetry_space_group_name_H-M "I M M M"
_symmetry_group_IT_number 71
_symmetry_cell_setting 'orthorhombic'
loop_
_space_group_symop_operation_xyz
x,y,z
-x,-y,z
x,-y,-z
-x,y,-z
-x,-y,-z
x,y,-z
-x,y,z
x,-y,z
1/2+x,1/2+y,1/2+z
1/2-x,1/2-y,1/2+z
1/2+x,1/2-y,1/2-z
1/2-x,1/2+y,1/2-z
1/2-x,1/2-y,1/2-z
1/2+x,1/2+y,1/2-z
1/2-x,1/2+y,1/2+z
1/2+x,1/2-y,1/2+z
loop_
_atom_site_type_symbol
_atom_site_label
_atom_site_fract_x
_atom_site_fract_y
_atom_site_fract_z
Si Si1 0.951995 0.829544 0.000000
Si Si2 0.693811 0.664524 0.306044
Si Si3 0.382915 0.172962 0.756647
Si Si4 0.342745 0.167290 0.914763
Si Si5 0.733493 0.663694 0.862482
Si Si6 0.951508 0.827412 0.831581
O O1 0.935022 0.769486 0.082986
O O2 0.000000 0.795815 0.000000
O O3 0.943473 0.000000 0.000000
O O4 0.683744 0.500000 0.335318
O O5 0.651564 0.755585 0.298850
O O6 0.717266 0.658536 0.224868
O O7 0.723755 0.745156 0.367696
O O8 0.374462 0.215705 0.846982
O O9 0.427370 0.239100 0.734787
O O10 0.382829 0.000000 0.743592
O O11 0.301023 0.261523 0.915755
O O12 0.329419 0.000000 0.899332
O O13 0.363897 0.185735 0.000000
O O14 0.741903 0.500000 0.893504
O O15 0.000000 0.793865 0.821334
O O16 0.943046 0.000000 0.822316
#
# Coordination Sequence:
#
# PCOD8288401 Si02
#       6
#     8  16  16  16  16  16
#     4   7  12  26  49  73  93 117 149 181 217 273
#     4   9  16  27  44  65  90 121 154 187 230 287
#     4  10  19  30  47  72  99 126 160 204 247 284
#     4   9  18  32  48  66  92 129 170 206 241 286
#     4   9  16  26  43  67  91 115 149 195 242 281
#     4   9  17  31  52  75  98 125 157 192 234 290
#
# _framework density 17.348869000000001
#
# number of rings (size 3 to 8) (size 9 to 14) (size 15 to 20)
#    0.000    3.000    0.000    2.727    0.000    5.818 
#    0.000    0.455    2.000    2.182    0.000    3.818 
#    0.000    0.000    0.000    0.000    0.000    0.000 
#
# Total GULP energy -545217.588192 kJ/mol
# GULP energy per Si atom -12391.308823 kJ/mol
# Density = 1.730938 g / cm^3
# Si number density = 17.348869 Si / 1000 Ang^3
#
#
#
# Elastic Constant Matrix: (Units=GPa)
#
#
# Indices 1 2 3 4 5 6 
#
# 1 88.5621 50.5825 50.0231 0.0000 0.0000 0.0000
# 2 50.5825 98.3426 40.2605 0.0000 0.0000 0.0000
# 3 50.0231 40.2605 89.7682 0.0000 0.0000 0.0000
# 4 0.0000 0.0000 0.0000 18.0337 0.0000 0.0000
# 5 0.0000 0.0000 0.0000 0.0000 19.5034 0.0000
# 6 0.0000 0.0000 0.0000 0.0000 0.0000 31.8063
#
#
#
# Elastic Compliance Matrix: (Units=1/GPa)
#
#
# Indices 1 2 3 4 5 6 
#
# 1 0.019678 -0.006899 -0.007871 0.000000 0.000000 0.000000
# 2 -0.006899 0.014874 -0.002827 0.000000 0.000000 0.000000
# 3 -0.007871 -0.002827 0.016794 0.000000 0.000000 0.000000
# 4 0.000000 0.000000 0.000000 0.055452 0.000000 0.000000
# 5 0.000000 0.000000 0.000000 0.000000 0.051273 0.000000
# 6 0.000000 0.000000 0.000000 0.000000 0.000000 0.031440
#
#
# Mechanical properties :
#
#
# Convention : Reuss Voigt Hill
#
# Bulk Modulus (GPa) = 61.91101 62.04500 61.97800
# Shear Modulus (GPa) = 21.73077 22.92247 22.32662
#
# Velocity S-wave (km/s) = 3.54301 3.63887 3.59126
# Velocity P-wave (km/s) = 7.24573 7.31409 7.27999
#
# Compressibility (1/GPa) = 0.01615222
#
# Stress axis : x y z
#
# Youngs Moduli (GPa) = 50.81864 67.23082 59.54581
#
# Poissons Ratio (x) = 0.46381 0.46870
# Poissons Ratio (y) = 0.35059 0.16831
# Poissons Ratio (z) = 0.40001 0.19003
#
# Static dielectric constant tensor:
#      x y z
#    x 3.005640 0.000000 0.000000 
#    y 0.000000 3.279610 0.000000 
#    z 0.000000 0.000000 3.185700 
# 
# 
# High freq. dielectric constant tensor:
#      x y z
#    x 1.642710 0.000000 0.000000 
#    y 0.000000 1.670440 0.000000 
#    z 0.000000 0.000000 1.650800 
# 
# From -- ./inp_files/16683.got.cif
#   From: 2010.06.25/outbox.cif.g09.slc.cpg/sg71_9_cif.got.tgz:16683.got - 2010.06.28 04:59:45.
