data_PCOD8288536
_publ_section_title
;
Structure prediction by ZEFSAII (Michael W. Deem and Ramdas Pophale) SiO2 
 PCOD8288536
Probable space group: I M M M
;
_chemical_formula_sum "Si O2"
_cell_formula_units_Z 80
_cell_length_a 8.858600
_cell_length_b 25.510039
_cell_length_c 20.398929
_cell_angle_alpha 90.000000
_cell_angle_beta 90.000000
_cell_angle_gamma 90.000000
_cell_volume 4609.815894
_symmetry_space_group_name_H-M "I M M M"
_symmetry_group_IT_number 71
_symmetry_cell_setting 'orthorhombic'
loop_
_space_group_symop_operation_xyz
x,y,z
-x,-y,z
x,-y,-z
-x,y,-z
-x,-y,-z
x,y,-z
-x,y,z
x,-y,z
1/2+x,1/2+y,1/2+z
1/2-x,1/2-y,1/2+z
1/2+x,1/2-y,1/2-z
1/2-x,1/2+y,1/2-z
1/2-x,1/2-y,1/2-z
1/2+x,1/2+y,1/2-z
1/2-x,1/2+y,1/2+z
1/2+x,1/2-y,1/2+z
loop_
_atom_site_type_symbol
_atom_site_label
_atom_site_fract_x
_atom_site_fract_y
_atom_site_fract_z
Si Si1 0.172473 0.560705 0.075605
Si Si2 0.669713 0.663258 0.427274
Si Si3 0.177118 0.137136 0.673338
Si Si4 0.823056 0.651672 0.300923
Si Si5 0.671640 0.247151 0.334492
O O1 0.201154 0.500000 0.091018
O O2 0.286500 0.594057 0.119100
O O3 0.000000 0.575865 0.092281
O O4 0.207438 0.572819 0.000000
O O5 0.741009 0.657525 0.500000
O O6 0.500000 0.640563 0.426857
O O7 0.767949 0.631659 0.372695
O O8 0.668117 0.724411 0.405967
O O9 0.245092 0.117966 0.743342
O O10 0.251735 0.191843 0.652707
O O11 0.000000 0.144374 0.679811
O O12 0.769272 0.712705 0.287505
O O13 0.000000 0.646038 0.295789
O O14 0.500000 0.240714 0.307553
#
# Coordination Sequence:
#
# PCOD8288536 Si02
#       5
#    16  16  16  16  16
#     4   9  20  40  61  77  96 125 161 205 259 310
#     4   8  16  30  45  62  91 130 164 197 238 282
#     4  12  22  32  49  73  98 127 163 203 248 297
#     4  10  19  31  47  69  97 130 167 206 245 290
#     4   9  18  31  46  66  94 129 166 203 245 291
#
# _framework density 17.354272999999999
#
# number of rings (size 3 to 8) (size 9 to 14) (size 15 to 20)
#    1.200    1.200    0.000    4.800    0.000    2.000 
#    0.000    3.000    0.000    0.000    0.000    0.000 
#    0.000    0.800    0.000    8.400    0.000    3.600 
#
# Total GULP energy -495664.927181 kJ/mol
# GULP energy per Si atom -12391.623180 kJ/mol
# Density = 1.731477 g / cm^3
# Si number density = 17.354273 Si / 1000 Ang^3
#
#
#
# Elastic Constant Matrix: (Units=GPa)
#
#
# Indices 1 2 3 4 5 6 
#
# 1 136.2305 26.9476 49.7695 0.0000 0.0000 0.0000
# 2 26.9476 37.2833 28.9481 0.0000 0.0000 0.0000
# 3 49.7695 28.9481 103.3844 -0.0003 0.0000 0.0000
# 4 0.0000 0.0000 -0.0003 21.7081 0.0000 0.0000
# 5 0.0000 0.0000 0.0000 0.0000 30.0933 0.0000
# 6 0.0000 0.0000 0.0000 0.0000 0.0000 20.8101
#
#
#
# Elastic Compliance Matrix: (Units=1/GPa)
#
#
# Indices 1 2 3 4 5 6 
#
# 1 0.009392 -0.004189 -0.003349 0.000000 0.000000 0.000000
# 2 -0.004189 0.036141 -0.008103 0.000000 0.000000 0.000000
# 3 -0.003349 -0.008103 0.013554 0.000000 0.000000 0.000000
# 4 0.000000 0.000000 0.000000 0.046066 0.000000 0.000000
# 5 0.000000 0.000000 0.000000 0.000000 0.033230 0.000000
# 6 0.000000 0.000000 0.000000 0.000000 0.000000 0.048054
#
#
# Mechanical properties :
#
#
# Convention : Reuss Voigt Hill
#
# Bulk Modulus (GPa) = 35.96372 54.24764 45.10568
# Shear Modulus (GPa) = 22.02783 25.93783 23.98283
#
# Velocity S-wave (km/s) = 3.56659 3.87021 3.72150
# Velocity P-wave (km/s) = 6.14240 7.16227 6.67185
#
# Compressibility (1/GPa) = 0.02780580
#
# Stress axis : x y z
#
# Youngs Moduli (GPa) = 106.46866 27.66968 73.78094
#
# Poissons Ratio (x) = 0.11590 0.24707
# Poissons Ratio (y) = 0.44595 0.59786
# Poissons Ratio (z) = 0.35653 0.22421
#
# Static dielectric constant tensor:
#      x y z
#    x 3.189660 0.000000 0.000000 
#    y 0.000000 2.716130 0.000000 
#    z 0.000000 0.000000 3.359820 
# 
# 
# High freq. dielectric constant tensor:
#      x y z
#    x 1.677860 0.000000 0.000000 
#    y 0.000000 1.609600 0.000000 
#    z 0.000000 0.000000 1.680920 
# 
# From -- ./inp_files/51004.got.cif
#   From: 2010.06.25/outbox.cif.g09.slc.cpg/sg71_26_cif.got.tgz:51004.got - 2010.06.28 04:59:45.
