data_PCOD8288007
_publ_section_title
;
Structure prediction by ZEFSAII (Michael W. Deem and Ramdas Pophale) SiO2 
 PCOD8288007
Probable space group: I M M M
;
_chemical_formula_sum "Si O2"
_cell_formula_units_Z 88
_cell_length_a 14.029751
_cell_length_b 19.469587
_cell_length_c 17.017547
_cell_angle_alpha 90.000000
_cell_angle_beta 90.000000
_cell_angle_gamma 90.000000
_cell_volume 4648.401804
_symmetry_space_group_name_H-M "I M M M"
_symmetry_group_IT_number 71
_symmetry_cell_setting 'orthorhombic'
loop_
_space_group_symop_operation_xyz
x,y,z
-x,-y,z
x,-y,-z
-x,y,-z
-x,-y,-z
x,y,-z
-x,y,z
x,-y,z
1/2+x,1/2+y,1/2+z
1/2-x,1/2-y,1/2+z
1/2+x,1/2-y,1/2-z
1/2-x,1/2+y,1/2-z
1/2-x,1/2-y,1/2-z
1/2+x,1/2+y,1/2-z
1/2-x,1/2+y,1/2+z
1/2+x,1/2-y,1/2+z
loop_
_atom_site_type_symbol
_atom_site_label
_atom_site_fract_x
_atom_site_fract_y
_atom_site_fract_z
Si Si1 0.606985 0.832603 0.850027
Si Si2 0.212131 0.204510 0.320595
Si Si3 0.888296 0.920311 0.761786
Si Si4 0.889404 0.500000 0.913630
Si Si5 0.607034 0.140269 0.665664
Si Si6 0.771483 0.078242 0.087242
O O1 0.500000 0.841761 0.881407
O O2 0.635620 0.752383 0.864504
O O3 0.613682 0.856839 0.759747
O O4 0.676179 0.878267 0.901793
O O5 0.250000 0.250000 0.250000
O O6 0.164912 0.131739 0.296897
O O7 0.309603 0.189076 0.370357
O O8 0.853225 0.903383 0.849994
O O9 0.000000 0.904853 0.758473
O O10 0.866950 0.000000 0.738643
O O11 0.862119 0.565175 0.861822
O O12 0.000000 0.500000 0.930097
O O13 0.838475 0.500000 0.000000
O O14 0.500000 0.161319 0.637171
O O15 0.739561 0.000000 0.097121
O O16 0.812990 0.092345 0.000000
#
# Coordination Sequence:
#
# PCOD8288007 Si02
#       6
#    16  16  16   8  16  16
#     4  10  20  34  53  79 107 139 179 220 268 317
#     4  10  18  33  53  79 106 137 174 227 265 314
#     4  10  20  34  55  81 109 140 179 224 271 322
#     4   9  18  32  50  78 110 136 165 206 258 316
#     4   9  18  30  52  78 103 137 170 210 261 313
#     4  10  21  36  53  77 109 144 182 224 268 319
#
# _framework density 18.931238
#
# number of rings (size 3 to 8) (size 9 to 14) (size 15 to 20)
#    0.000    2.273    3.636    0.545    2.545    1.818 
#    0.000    3.636    0.000    0.000    0.000    0.000 
#    0.000    1.455    0.000    0.000    0.000    0.000 
#
# Total GULP energy -545080.860181 kJ/mol
# GULP energy per Si atom -12388.201368 kJ/mol
# Density = 1.888815 g / cm^3
# Si number density = 18.931238 Si / 1000 Ang^3
#
#
#
# Elastic Constant Matrix: (Units=GPa)
#
#
# Indices 1 2 3 4 5 6 
#
# 1 119.0849 55.9366 17.3728 0.0000 0.0000 0.0000
# 2 55.9366 107.7920 25.8678 0.0000 0.0000 0.0000
# 3 17.3728 25.8678 35.2273 0.0000 0.0000 0.0000
# 4 0.0000 0.0000 0.0000 -41.0777 0.0000 0.0000
# 5 0.0000 0.0000 0.0000 0.0000 15.1773 0.0000
# 6 0.0000 0.0000 0.0000 0.0000 0.0000 37.3021
#
#
#
# Elastic Compliance Matrix: (Units=1/GPa)
#
#
# Indices 1 2 3 4 5 6 
#
# 1 0.011171 -0.005432 -0.001520 0.000000 0.000000 0.000000
# 2 -0.005432 0.013903 -0.007530 0.000000 0.000000 0.000000
# 3 -0.001520 -0.007530 0.034666 0.000000 0.000000 0.000000
# 4 0.000000 0.000000 0.000000 -0.024344 0.000000 0.000000
# 5 0.000000 0.000000 0.000000 0.000000 0.065888 0.000000
# 6 0.000000 0.000000 0.000000 0.000000 0.000000 0.026808
#
#
# Mechanical properties :
#
#
# Convention : Reuss Voigt Hill
#
# Bulk Modulus (GPa) = 32.49377 51.16206 41.82792
# Shear Modulus (GPa) = 29.88366 13.14214 21.51290
#
# Velocity S-wave (km/s) = 3.97739 2.63763 3.37467
# Velocity P-wave (km/s) = 6.18823 6.02993 6.10959
#
# Compressibility (1/GPa) = 0.03077513
#
# Stress axis : x y z
#
# Youngs Moduli (GPa) = 89.52021 71.92656 28.84637
#
# Poissons Ratio (x) = 0.39070 0.04385
# Poissons Ratio (y) = 0.48627 0.21722
# Poissons Ratio (z) = 0.13609 0.54163
#
# Static dielectric constant tensor:
#      x y z
#    x 3.941170 0.000000 0.000000 
#    y 0.000000 -14.775940 0.000000 
#    z 0.000000 0.000000 3.185680 
# 
# 
# High freq. dielectric constant tensor:
#      x y z
#    x 1.743650 0.000000 0.000000 
#    y 0.000000 1.744890 0.000000 
#    z 0.000000 0.000000 1.686950 
# 
# From -- ./inp_files/44683.got.cif
#   From: 2010.06.25/outbox.cif.g09.slc.cpg/sg71_23_cif.got.tgz:44683.got - 2010.06.28 04:59:45.
