data_PCOD8288200
_publ_section_title
;
Structure prediction by ZEFSAII (Michael W. Deem and Ramdas Pophale) SiO2 
 PCOD8288200
Probable space group: I M M M
;
_chemical_formula_sum "Si O2"
_cell_formula_units_Z 88
_cell_length_a 20.022456
_cell_length_b 27.631778
_cell_length_c 9.101679
_cell_angle_alpha 90.000000
_cell_angle_beta 90.000000
_cell_angle_gamma 90.000000
_cell_volume 5035.559056
_symmetry_space_group_name_H-M "I M M M"
_symmetry_group_IT_number 71
_symmetry_cell_setting 'orthorhombic'
loop_
_space_group_symop_operation_xyz
x,y,z
-x,-y,z
x,-y,-z
-x,y,-z
-x,-y,-z
x,y,-z
-x,y,z
x,-y,z
1/2+x,1/2+y,1/2+z
1/2-x,1/2-y,1/2+z
1/2+x,1/2-y,1/2-z
1/2-x,1/2+y,1/2-z
1/2-x,1/2-y,1/2-z
1/2+x,1/2+y,1/2-z
1/2-x,1/2+y,1/2+z
1/2+x,1/2-y,1/2+z
loop_
_atom_site_type_symbol
_atom_site_label
_atom_site_fract_x
_atom_site_fract_y
_atom_site_fract_z
Si Si1 0.867361 0.328629 0.326810
Si Si2 0.238322 0.860854 0.672673
Si Si3 0.500000 0.829780 0.666889
Si Si4 0.356734 0.554100 0.175532
Si Si5 0.629920 0.282802 0.170257
Si Si6 0.000000 0.942803 0.659793
Si Si7 0.000000 0.214716 0.835197
O O1 0.873097 0.336432 0.500000
O O2 0.806384 0.359433 0.263306
O O3 0.855597 0.272506 0.285259
O O4 0.934570 0.348849 0.251447
O O5 0.254515 0.862903 0.500000
O O6 0.199597 0.908644 0.728000
O O7 0.194791 0.813684 0.711902
O O8 0.500000 0.849362 0.500000
O O9 0.500000 0.772277 0.670726
O O10 0.337564 0.500000 0.230004
O O11 0.429817 0.570669 0.240943
O O12 0.362850 0.554886 0.000000
O O13 0.566345 0.304634 0.255576
O O14 0.612146 0.287296 0.000000
O O15 0.000000 0.917303 0.500000
O O16 0.000000 0.000000 0.637987
O O17 0.000000 0.194743 0.000000
#
# Coordination Sequence:
#
# PCOD8288200 Si02
#       7
#    16  16   8  16  16   8   8
#     4  10  19  31  46  65  92 123 152 183 223 269
#     4  10  19  29  44  67  92 120 154 189 227 269
#     4   9  17  31  50  68  87 114 151 189 222 264
#     4   8  14  25  42  65  91 117 149 192 235 268
#     4   9  18  30  43  62  91 124 155 189 225 263
#     4   7  10  19  36  58  85 115 145 180 223 262
#     4   9  17  28  44  64  87 120 157 191 226 264
#
# _framework density 17.475715999999998
#
# number of rings (size 3 to 8) (size 9 to 14) (size 15 to 20)
#    0.000    3.000    0.000    2.727    0.000    4.364 
#    0.000    2.727    0.000    0.545    0.000    0.636 
#    0.000    8.000    0.000    0.000    0.000    0.000 
#
# Total GULP energy -545357.368758 kJ/mol
# GULP energy per Si atom -12394.485654 kJ/mol
# Density = 1.743594 g / cm^3
# Si number density = 17.475716 Si / 1000 Ang^3
#
#
#
# Elastic Constant Matrix: (Units=GPa)
#
#
# Indices 1 2 3 4 5 6 
#
# 1 169.4388 54.7292 60.1777 0.0000 0.0000 0.0000
# 2 54.7292 61.1144 21.7578 0.0000 0.0000 0.0000
# 3 60.1777 21.7578 62.6255 0.0000 0.0000 0.0000
# 4 0.0000 0.0000 0.0000 10.1278 0.0000 0.0000
# 5 0.0000 0.0000 0.0000 0.0000 28.9978 0.0000
# 6 0.0000 0.0000 0.0000 0.0000 0.0000 14.7400
#
#
#
# Elastic Compliance Matrix: (Units=1/GPa)
#
#
# Indices 1 2 3 4 5 6 
#
# 1 0.011080 -0.006997 -0.008216 0.000000 0.000000 0.000000
# 2 -0.006997 0.023091 -0.001299 0.000000 0.000000 0.000000
# 3 -0.008216 -0.001299 0.024314 0.000000 0.000000 0.000000
# 4 0.000000 0.000000 0.000000 0.098738 0.000000 0.000000
# 5 0.000000 0.000000 0.000000 0.000000 0.034485 0.000000
# 6 0.000000 0.000000 0.000000 0.000000 0.000000 0.067842
#
#
# Mechanical properties :
#
#
# Convention : Reuss Voigt Hill
#
# Bulk Modulus (GPa) = 39.27515 62.94535 51.11025
# Shear Modulus (GPa) = 16.60790 21.20740 18.90765
#
# Velocity S-wave (km/s) = 3.08611 3.48736 3.29285
# Velocity P-wave (km/s) = 5.93478 7.23274 6.61567
#
# Compressibility (1/GPa) = 0.02546139
#
# Stress axis : x y z
#
# Youngs Moduli (GPa) = 90.25367 43.30624 41.12895
#
# Poissons Ratio (x) = 0.30303 0.33791
# Poissons Ratio (y) = 0.63153 0.05342
# Poissons Ratio (z) = 0.74150 0.05624
#
# Static dielectric constant tensor:
#      x y z
#    x 3.410680 0.000000 0.000000 
#    y 0.000000 3.028690 0.000000 
#    z 0.000000 0.000000 2.987700 
# 
# 
# High freq. dielectric constant tensor:
#      x y z
#    x 1.684720 0.000000 0.000000 
#    y 0.000000 1.634020 0.000000 
#    z 0.000000 0.000000 1.647000 
# 
# From -- ./inp_files/8898.got.cif
#   From: 2010.06.25/outbox.cif.g09.slc.cpg/sg71_5_cif.got.tgz:8898.got - 2010.06.28 04:59:45.
