data_PCOD8288249
_publ_section_title
;
Structure prediction by ZEFSAII (Michael W. Deem and Ramdas Pophale) SiO2 
 PCOD8288249
Probable space group: I M M M
;
_chemical_formula_sum "Si O2"
_cell_formula_units_Z 120
_cell_length_a 19.263428
_cell_length_b 17.965472
_cell_length_c 19.109108
_cell_angle_alpha 90.000000
_cell_angle_beta 90.000000
_cell_angle_gamma 90.000000
_cell_volume 6613.214674
_symmetry_space_group_name_H-M "I M M M"
_symmetry_group_IT_number 71
_symmetry_cell_setting 'orthorhombic'
loop_
_space_group_symop_operation_xyz
x,y,z
-x,-y,z
x,-y,-z
-x,y,-z
-x,-y,-z
x,y,-z
-x,y,z
x,-y,z
1/2+x,1/2+y,1/2+z
1/2-x,1/2-y,1/2+z
1/2+x,1/2-y,1/2-z
1/2-x,1/2+y,1/2-z
1/2-x,1/2-y,1/2-z
1/2+x,1/2+y,1/2-z
1/2-x,1/2+y,1/2+z
1/2+x,1/2-y,1/2+z
loop_
_atom_site_type_symbol
_atom_site_label
_atom_site_fract_x
_atom_site_fract_y
_atom_site_fract_z
Si Si1 0.183005 0.582442 0.327591
Si Si2 0.337605 0.633262 0.846499
Si Si3 0.845333 0.916931 0.192109
Si Si4 0.419567 0.500000 0.082823
Si Si5 0.348573 0.303043 0.420413
Si Si6 0.187321 0.415304 0.824696
Si Si7 0.921799 0.350183 0.919330
Si Si8 0.687193 0.217862 0.081906
O O1 0.151016 0.500000 0.342902
O O2 0.265395 0.575394 0.326572
O O3 0.161889 0.614987 0.251087
O O4 0.157680 0.640073 0.386980
O O5 0.358143 0.626234 0.765024
O O6 0.381332 0.573412 0.889634
O O7 0.255025 0.623944 0.856022
O O8 0.352265 0.715193 0.877803
O O9 0.878048 0.868191 0.129575
O O10 0.878766 0.000000 0.195484
O O11 0.500000 0.500000 0.107207
O O12 0.413837 0.500000 0.000000
O O13 0.355742 0.331163 0.500000
O O14 0.396568 0.232897 0.404835
O O15 0.269646 0.279090 0.404157
O O16 0.209762 0.500000 0.812632
O O17 0.124413 0.409262 0.878235
O O18 0.000000 0.357686 0.892359
O O19 0.915290 0.371278 0.000000
O O20 0.669354 0.222275 0.000000
#
# Coordination Sequence:
#
# PCOD8288249 Si02
#       8
#    16  16  16   8  16  16  16  16
#     4   8  17  31  49  76 108 137 169 217 271 316
#     4  11  19  34  55  80 106 134 178 223 258 312
#     4   9  17  30  51  76 102 137 179 218 265 310
#     4  11  24  40  56  76 110 148 170 208 276 323
#     4   9  18  31  49  75 105 138 177 220 264 310
#     4  10  19  33  54  78 100 136 181 218 257 308
#     4  10  21  35  49  71 107 143 175 217 267 312
#     4  10  19  29  50  82 106 134 178 221 262 314
#
# _framework density 18.145486999999999
#
# number of rings (size 3 to 8) (size 9 to 14) (size 15 to 20)
#    0.000    2.333    2.667    1.200    1.867    3.200 
#    0.000    4.000    0.000    0.000    0.000    1.867 
#    0.000    0.000    0.000    5.733    0.000    2.133 
#
# Total GULP energy -743768.294587 kJ/mol
# GULP energy per Si atom -12396.138243 kJ/mol
# Density = 1.810419 g / cm^3
# Si number density = 18.145487 Si / 1000 Ang^3
#
#
#
# Elastic Constant Matrix: (Units=GPa)
#
#
# Indices 1 2 3 4 5 6 
#
# 1 44.2342 22.4045 27.7458 0.0000 0.0000 0.0000
# 2 22.4045 111.1178 61.7285 0.0000 0.0000 0.0000
# 3 27.7458 61.7285 101.8035 0.0000 0.0000 0.0000
# 4 0.0000 0.0000 0.0000 33.5110 0.0000 0.0000
# 5 0.0000 0.0000 0.0000 0.0000 12.7590 0.0000
# 6 0.0000 0.0000 0.0000 0.0000 0.0000 11.4710
#
#
#
# Elastic Compliance Matrix: (Units=1/GPa)
#
#
# Indices 1 2 3 4 5 6 
#
# 1 0.027586 -0.002089 -0.006252 0.000000 0.000000 0.000000
# 2 -0.002089 0.013729 -0.007755 0.000000 0.000000 0.000000
# 3 -0.006252 -0.007755 0.016229 0.000000 0.000000 0.000000
# 4 0.000000 0.000000 0.000000 0.029841 0.000000 0.000000
# 5 0.000000 0.000000 0.000000 0.000000 0.078376 0.000000
# 6 0.000000 0.000000 0.000000 0.000000 0.000000 0.087176
#
#
# Mechanical properties :
#
#
# Convention : Reuss Voigt Hill
#
# Bulk Modulus (GPa) = 39.44415 53.43477 46.43946
# Shear Modulus (GPa) = 17.03113 21.23333 19.13223
#
# Velocity S-wave (km/s) = 3.06696 3.42449 3.25064
# Velocity P-wave (km/s) = 5.85889 6.71923 6.30375
#
# Compressibility (1/GPa) = 0.02535230
#
# Stress axis : x y z
#
# Youngs Moduli (GPa) = 36.24964 72.83949 61.61832
#
# Poissons Ratio (x) = 0.15218 0.38522
# Poissons Ratio (y) = 0.07574 0.47785
# Poissons Ratio (z) = 0.22662 0.56487
#
# Static dielectric constant tensor:
#      x y z
#    x 2.990920 0.000000 0.000000 
#    y 0.000000 3.539480 0.000000 
#    z 0.000000 0.000000 3.590750 
# 
# 
# High freq. dielectric constant tensor:
#      x y z
#    x 1.647810 0.000000 0.000000 
#    y 0.000000 1.709190 0.000000 
#    z 0.000000 0.000000 1.712230 
# 
# From -- ./inp_files/46507.got.cif
#   From: 2010.06.25/outbox.cif.g09.slc.cpg/sg71_24_cif.got.tgz:46507.got - 2010.06.28 04:59:45.
