data_PCOD8288808
_publ_section_title
;
Structure prediction by ZEFSAII (Michael W. Deem and Ramdas Pophale) SiO2 
 PCOD8288808
Probable space group: I M M M
;
_chemical_formula_sum "Si O2"
_cell_formula_units_Z 104
_cell_length_a 23.219060
_cell_length_b 27.987501
_cell_length_c 9.142719
_cell_angle_alpha 90.000000
_cell_angle_beta 90.000000
_cell_angle_gamma 90.000000
_cell_volume 5941.336194
_symmetry_space_group_name_H-M "I M M M"
_symmetry_group_IT_number 71
_symmetry_cell_setting 'orthorhombic'
loop_
_space_group_symop_operation_xyz
x,y,z
-x,-y,z
x,-y,-z
-x,y,-z
-x,-y,-z
x,y,-z
-x,y,z
x,-y,z
1/2+x,1/2+y,1/2+z
1/2-x,1/2-y,1/2+z
1/2+x,1/2-y,1/2-z
1/2-x,1/2+y,1/2-z
1/2-x,1/2-y,1/2-z
1/2+x,1/2+y,1/2-z
1/2-x,1/2+y,1/2+z
1/2+x,1/2-y,1/2+z
loop_
_atom_site_type_symbol
_atom_site_label
_atom_site_fract_x
_atom_site_fract_y
_atom_site_fract_z
Si Si1 0.868611 0.645050 0.327686
Si Si2 0.936774 0.735735 0.672946
Si Si3 0.642929 0.320009 0.170162
Si Si4 0.065339 0.553510 0.325924
Si Si5 0.565087 0.589828 0.167167
Si Si6 0.246157 0.301831 0.674712
Si Si7 0.568713 0.500000 0.336194
O O1 0.862790 0.640380 0.500000
O O2 0.918293 0.682419 0.283669
O O3 0.889279 0.593328 0.263468
O O4 0.807814 0.666010 0.268839
O O5 0.940151 0.742192 0.500000
O O6 0.889036 0.772722 0.730595
O O7 0.000000 0.745777 0.741017
O O8 0.599988 0.362891 0.196535
O O9 0.697889 0.330383 0.271364
O O10 0.660947 0.314665 0.000000
O O11 0.065473 0.556001 0.500000
O O12 0.084190 0.500000 0.274535
O O13 0.000000 0.564170 0.270802
O O14 0.500000 0.600425 0.217630
O O15 0.593482 0.547124 0.259227
O O16 0.567028 0.573630 0.000000
O O17 0.244187 0.295126 0.500000
O O18 0.250000 0.250000 0.750000
O O19 0.500000 0.500000 0.323413
O O20 0.591506 0.500000 0.500000
#
# Coordination Sequence:
#
# PCOD8288808 Si02
#       7
#    16  16  16  16  16  16   8
#     4   9  16  26  42  65  92 125 163 196 231 283
#     4   9  15  24  42  68  95 120 152 195 238 283
#     4  10  19  32  49  72  97 125 162 203 247 292
#     4   8  13  22  39  66  98 126 151 188 242 293
#     4   9  17  30  50  74  98 125 161 204 248 295
#     4  11  21  34  50  68  93 129 170 205 241 289
#     4   9  17  29  47  71  99 129 159 193 240 297
#
# _framework density 17.504480000000001
#
# number of rings (size 3 to 8) (size 9 to 14) (size 15 to 20)
#    0.000    2.692    1.538    2.077    0.000    5.231 
#    0.000    0.000    1.692    1.385    0.000    0.000 
#    0.000    0.000    0.000    6.769    0.000    6.154 
#
# Total GULP energy -644381.577942 kJ/mol
# GULP energy per Si atom -12391.953422 kJ/mol
# Density = 1.746464 g / cm^3
# Si number density = 17.504480 Si / 1000 Ang^3
#
#
#
# Elastic Constant Matrix: (Units=GPa)
#
#
# Indices 1 2 3 4 5 6 
#
# 1 115.1868 57.4346 22.0835 0.0000 0.0000 0.0000
# 2 57.4346 133.1591 28.2505 0.0000 0.0000 0.0000
# 3 22.0835 28.2505 34.2141 0.0000 0.0000 0.0000
# 4 0.0000 0.0000 0.0000 13.2221 0.0000 0.0000
# 5 0.0000 0.0000 0.0000 0.0000 20.4850 0.0000
# 6 0.0000 0.0000 0.0000 0.0000 0.0000 14.7161
#
#
#
# Elastic Compliance Matrix: (Units=1/GPa)
#
#
# Indices 1 2 3 4 5 6 
#
# 1 0.011502 -0.004105 -0.004034 0.000000 0.000000 0.000000
# 2 -0.004105 0.010570 -0.006078 0.000000 0.000000 0.000000
# 3 -0.004034 -0.006078 0.036850 0.000000 0.000000 0.000000
# 4 0.000000 0.000000 0.000000 0.075631 0.000000 0.000000
# 5 0.000000 0.000000 0.000000 0.000000 0.048816 0.000000
# 6 0.000000 0.000000 0.000000 0.000000 0.000000 0.067953
#
#
# Mechanical properties :
#
#
# Convention : Reuss Voigt Hill
#
# Bulk Modulus (GPa) = 32.80052 55.34415 44.07233
# Shear Modulus (GPa) = 17.24619 21.33740 19.29180
#
# Velocity S-wave (km/s) = 3.14227 3.49516 3.32340
# Velocity P-wave (km/s) = 5.65192 6.92632 6.32132
#
# Compressibility (1/GPa) = 0.03048732
#
# Stress axis : x y z
#
# Youngs Moduli (GPa) = 86.94204 94.60815 27.13689
#
# Poissons Ratio (x) = 0.38838 0.10948
# Poissons Ratio (y) = 0.35691 0.16494
# Poissons Ratio (z) = 0.35075 0.57502
#
# Static dielectric constant tensor:
#      x y z
#    x 3.444610 0.000000 0.000000 
#    y 0.000000 3.505520 0.000000 
#    z 0.000000 0.000000 2.895700 
# 
# 
# High freq. dielectric constant tensor:
#      x y z
#    x 1.668720 0.000000 0.000000 
#    y 0.000000 1.684370 0.000000 
#    z 0.000000 0.000000 1.623430 
# 
# From -- ./inp_files/13349.got.cif
#   From: 2010.06.25/outbox.cif.g09.slc.cpg/sg71_7_cif.got.tgz:13349.got - 2010.06.28 04:59:45.
