data_PCOD8288529
_publ_section_title
;
Structure prediction by ZEFSAII (Michael W. Deem and Ramdas Pophale) SiO2 
 PCOD8288529
Probable space group: I M M M
;
_chemical_formula_sum "Si O2"
_cell_formula_units_Z 96
_cell_length_a 20.910562
_cell_length_b 22.247427
_cell_length_c 12.074880
_cell_angle_alpha 90.000000
_cell_angle_beta 90.000000
_cell_angle_gamma 90.000000
_cell_volume 5617.309060
_symmetry_space_group_name_H-M "I M M M"
_symmetry_group_IT_number 71
_symmetry_cell_setting 'orthorhombic'
loop_
_space_group_symop_operation_xyz
x,y,z
-x,-y,z
x,-y,-z
-x,y,-z
-x,-y,-z
x,y,-z
-x,y,z
x,-y,z
1/2+x,1/2+y,1/2+z
1/2-x,1/2-y,1/2+z
1/2+x,1/2-y,1/2-z
1/2-x,1/2+y,1/2-z
1/2-x,1/2-y,1/2-z
1/2+x,1/2+y,1/2-z
1/2-x,1/2+y,1/2+z
1/2+x,1/2-y,1/2+z
loop_
_atom_site_type_symbol
_atom_site_label
_atom_site_fract_x
_atom_site_fract_y
_atom_site_fract_z
Si Si1 0.734573 0.176836 0.376724
Si Si2 0.070257 0.808186 0.124809
Si Si3 0.678284 0.567892 0.159491
Si Si4 0.654884 0.761433 0.794578
Si Si5 0.385593 0.565256 0.378114
Si Si6 0.073555 0.258918 0.500000
Si Si7 0.925439 0.115424 0.500000
O O1 0.706133 0.188005 0.500000
O O2 0.763460 0.109983 0.376589
O O3 0.680258 0.183501 0.281791
O O4 0.788094 0.227073 0.355435
O O5 0.120622 0.784969 0.212746
O O6 0.064605 0.880474 0.135766
O O7 0.000000 0.781877 0.151541
O O8 0.091147 0.790013 0.000000
O O9 0.693179 0.500000 0.119774
O O10 0.672366 0.571681 0.291713
O O11 0.610641 0.589648 0.107642
O O12 0.606873 0.785718 0.889249
O O13 0.353927 0.568371 0.500000
O O14 0.420026 0.500000 0.360726
O O15 0.080537 0.187148 0.500000
O O16 0.000000 0.279336 0.500000
O O17 0.000000 0.095493 0.500000
#
# Coordination Sequence:
#
# PCOD8288529 Si02
#       7
#    16  16  16  16  16   8   8
#     4  11  21  35  50  72 102 132 177 217 258 311
#     4  10  19  31  47  68  93 128 173 215 260 304
#     4  11  20  34  51  71 100 136 179 219 261 303
#     4  11  20  34  50  72  98 134 171 213 267 310
#     4   9  18  31  44  63  93 129 171 210 248 289
#     4  11  20  35  56  79 111 138 177 219 261 310
#     4  11  21  34  51  76 108 141 182 226 260 299
#
# _framework density 17.090033999999999
#
# number of rings (size 3 to 8) (size 9 to 14) (size 15 to 20)
#    0.000    1.500    5.000    1.250    0.000    3.000 
#    1.500    3.333    0.000    0.000    0.000    0.000 
#    0.000    3.333    0.000    8.167    0.000    0.000 
#
# Total GULP energy -594877.652389 kJ/mol
# GULP energy per Si atom -12393.284425 kJ/mol
# Density = 1.705114 g / cm^3
# Si number density = 17.090034 Si / 1000 Ang^3
#
#
#
# Elastic Constant Matrix: (Units=GPa)
#
#
# Indices 1 2 3 4 5 6 
#
# 1 75.4756 36.0923 51.2838 0.0000 0.0000 0.0000
# 2 36.0923 60.8132 30.5336 0.0000 0.0000 0.0000
# 3 51.2838 30.5336 132.9338 0.0000 0.0000 0.0000
# 4 0.0000 0.0000 0.0000 18.5975 0.0000 0.0000
# 5 0.0000 0.0000 0.0000 0.0000 26.4101 0.0000
# 6 0.0000 0.0000 0.0000 0.0000 0.0000 17.9671
#
#
#
# Elastic Compliance Matrix: (Units=1/GPa)
#
#
# Indices 1 2 3 4 5 6 
#
# 1 0.022369 -0.010109 -0.006308 0.000000 0.000000 0.000000
# 2 -0.010109 0.023156 -0.001419 0.000000 0.000000 0.000000
# 3 -0.006308 -0.001419 0.010282 0.000000 0.000000 0.000000
# 4 0.000000 0.000000 0.000000 0.053771 0.000000 0.000000
# 5 0.000000 0.000000 0.000000 0.000000 0.037864 0.000000
# 6 0.000000 0.000000 0.000000 0.000000 0.000000 0.055657
#
#
# Mechanical properties :
#
#
# Convention : Reuss Voigt Hill
#
# Bulk Modulus (GPa) = 49.66263 56.11575 52.88919
# Shear Modulus (GPa) = 20.36803 22.68246 21.52524
#
# Velocity S-wave (km/s) = 3.45600 3.64707 3.55282
# Velocity P-wave (km/s) = 6.71176 7.11628 6.91698
#
# Compressibility (1/GPa) = 0.02013587
#
# Stress axis : x y z
#
# Youngs Moduli (GPa) = 44.70378 43.18575 97.25847
#
# Poissons Ratio (x) = 0.43657 0.61349
# Poissons Ratio (y) = 0.45191 0.13798
# Poissons Ratio (z) = 0.28198 0.06127
#
# Static dielectric constant tensor:
#      x y z
#    x 2.983120 0.000000 0.000000 
#    y 0.000000 3.033770 0.000000 
#    z 0.000000 0.000000 3.596630 
# 
# 
# High freq. dielectric constant tensor:
#      x y z
#    x 1.619430 0.000000 0.000000 
#    y 0.000000 1.622410 0.000000 
#    z 0.000000 0.000000 1.692250 
# 
# From -- ./inp_files/26011.got.cif
#   From: 2010.06.25/outbox.cif.g09.slc.cpg/sg71_14_cif.got.tgz:26011.got - 2010.06.28 04:59:45.
