data_PCOD8288752
_publ_section_title
;
Structure prediction by ZEFSAII (Michael W. Deem and Ramdas Pophale) SiO2 
 PCOD8288752
Probable space group: I M M M
;
_chemical_formula_sum "Si O2"
_cell_formula_units_Z 88
_cell_length_a 8.912622
_cell_length_b 19.792181
_cell_length_c 26.921177
_cell_angle_alpha 90.000000
_cell_angle_beta 90.000000
_cell_angle_gamma 90.000000
_cell_volume 4748.901756
_symmetry_space_group_name_H-M "I M M M"
_symmetry_group_IT_number 71
_symmetry_cell_setting 'orthorhombic'
loop_
_space_group_symop_operation_xyz
x,y,z
-x,-y,z
x,-y,-z
-x,y,-z
-x,-y,-z
x,y,-z
-x,y,z
x,-y,z
1/2+x,1/2+y,1/2+z
1/2-x,1/2-y,1/2+z
1/2+x,1/2-y,1/2-z
1/2-x,1/2+y,1/2-z
1/2-x,1/2-y,1/2-z
1/2+x,1/2+y,1/2-z
1/2-x,1/2+y,1/2+z
1/2+x,1/2-y,1/2+z
loop_
_atom_site_type_symbol
_atom_site_label
_atom_site_fract_x
_atom_site_fract_y
_atom_site_fract_z
Si Si1 0.834743 0.191590 0.108986
Si Si2 0.828006 0.805530 0.556816
Si Si3 0.000000 0.920893 0.059531
Si Si4 0.677001 0.573700 0.121823
Si Si5 0.323892 0.804634 0.213524
Si Si6 0.171532 0.922157 0.735157
O O1 0.764322 0.237756 0.066202
O O2 0.731339 0.198618 0.157061
O O3 0.000000 0.218969 0.123581
O O4 0.853496 0.116018 0.084584
O O5 0.814714 0.826274 0.500000
O O6 0.755102 0.867612 0.587584
O O7 0.000000 0.793150 0.572672
O O8 0.000000 0.000000 0.073797
O O9 0.000000 0.911154 0.000000
O O10 0.500000 0.569572 0.114335
O O11 0.745796 0.500000 0.107978
O O12 0.715120 0.591601 0.178389
O O13 0.500000 0.791759 0.213911
O O14 0.250000 0.750000 0.250000
O O15 0.284515 0.879556 0.231593
O O16 0.000000 0.899691 0.745554
O O17 0.192879 0.000000 0.749383
#
# Coordination Sequence:
#
# PCOD8288752 Si02
#       6
#    16  16   8  16  16  16
#     4  10  22  37  59  84 111 147 194 244 302 362
#     4  10  19  31  52  82 114 148 188 240 295 345
#     4   9  20  40  66  90 113 147 199 259 315 376
#     4   8  15  29  49  75 108 149 194 234 272 322
#     4  12  24  38  57  84 121 157 197 243 298 359
#     4   9  18  34  56  79 109 153 199 237 279 339
#
# _framework density 18.530601000000001
#
# number of rings (size 3 to 8) (size 9 to 14) (size 15 to 20)
#    0.545    1.727    0.000    4.909    0.000    2.909 
#    0.000    1.818    0.000    3.273    0.000    7.636 
#    0.000    0.000    0.000    0.000    0.000    0.000 
#
# Total GULP energy -545352.769890 kJ/mol
# GULP energy per Si atom -12394.381134 kJ/mol
# Density = 1.848842 g / cm^3
# Si number density = 18.530601 Si / 1000 Ang^3
#
#
#
# Elastic Constant Matrix: (Units=GPa)
#
#
# Indices 1 2 3 4 5 6 
#
# 1 87.3023 34.0220 34.7401 0.0000 0.0000 0.0000
# 2 34.0220 92.4922 36.4728 0.0000 0.0000 0.0000
# 3 34.7401 36.4728 78.3019 0.0000 0.0000 0.0000
# 4 0.0000 0.0000 0.0000 13.2602 0.0000 0.0000
# 5 0.0000 0.0000 0.0000 0.0000 27.8975 0.0000
# 6 0.0000 0.0000 0.0000 0.0000 0.0000 28.8303
#
#
#
# Elastic Compliance Matrix: (Units=1/GPa)
#
#
# Indices 1 2 3 4 5 6 
#
# 1 0.014777 -0.003491 -0.004930 0.000000 0.000000 0.000000
# 2 -0.003491 0.014069 -0.005004 0.000000 0.000000 0.000000
# 3 -0.004930 -0.005004 0.017289 0.000000 0.000000 0.000000
# 4 0.000000 0.000000 0.000000 0.075414 0.000000 0.000000
# 5 0.000000 0.000000 0.000000 0.000000 0.035846 0.000000
# 6 0.000000 0.000000 0.000000 0.000000 0.000000 0.034686
#
#
# Mechanical properties :
#
#
# Convention : Reuss Voigt Hill
#
# Bulk Modulus (GPa) = 51.85570 52.06291 51.95931
# Shear Modulus (GPa) = 22.18674 24.18835 23.18754
#
# Velocity S-wave (km/s) = 3.46396 3.61684 3.54122
# Velocity P-wave (km/s) = 6.63651 6.75268 6.69485
#
# Compressibility (1/GPa) = 0.01928428
#
# Stress axis : x y z
#
# Youngs Moduli (GPa) = 67.67382 71.07601 57.83932
#
# Poissons Ratio (x) = 0.24816 0.28513
# Poissons Ratio (y) = 0.23628 0.28945
# Poissons Ratio (z) = 0.33361 0.35570
#
# Static dielectric constant tensor:
#      x y z
#    x 3.181440 0.000000 0.000000 
#    y 0.000000 3.886430 0.000000 
#    z 0.000000 0.000000 3.389060 
# 
# 
# High freq. dielectric constant tensor:
#      x y z
#    x 1.688520 0.000000 0.000000 
#    y 0.000000 1.726220 0.000000 
#    z 0.000000 0.000000 1.723910 
# 
# From -- ./inp_files/63223.got.cif
#   From: 2010.06.25/outbox.cif.g09.slc.cpg/sg71_32_cif.got.tgz:63223.got - 2010.06.28 04:59:45.
