data_PCOD8288528
_publ_section_title
;
Structure prediction by ZEFSAII (Michael W. Deem and Ramdas Pophale) SiO2 
 PCOD8288528
Probable space group: I M M M
;
_chemical_formula_sum "Si O2"
_cell_formula_units_Z 128
_cell_length_a 22.762119
_cell_length_b 18.165042
_cell_length_c 19.409259
_cell_angle_alpha 90.000000
_cell_angle_beta 90.000000
_cell_angle_gamma 90.000000
_cell_volume 8025.240408
_symmetry_space_group_name_H-M "I M M M"
_symmetry_group_IT_number 71
_symmetry_cell_setting 'orthorhombic'
loop_
_space_group_symop_operation_xyz
x,y,z
-x,-y,z
x,-y,-z
-x,y,-z
-x,-y,-z
x,y,-z
-x,y,z
x,-y,z
1/2+x,1/2+y,1/2+z
1/2-x,1/2-y,1/2+z
1/2+x,1/2-y,1/2-z
1/2-x,1/2+y,1/2-z
1/2-x,1/2-y,1/2-z
1/2+x,1/2+y,1/2-z
1/2-x,1/2+y,1/2+z
1/2+x,1/2-y,1/2+z
loop_
_atom_site_type_symbol
_atom_site_label
_atom_site_fract_x
_atom_site_fract_y
_atom_site_fract_z
Si Si1 0.568642 0.830518 0.919979
Si Si2 0.730871 0.286662 0.574707
Si Si3 0.287963 0.584479 0.156909
Si Si4 0.648246 0.700950 0.077076
Si Si5 0.565612 0.084927 0.336874
Si Si6 0.871709 0.415190 0.303102
Si Si7 0.747302 0.832176 0.782140
Si Si8 0.826529 0.364342 0.077867
O O1 0.500000 0.830416 0.905796
O O2 0.593344 0.750163 0.897615
O O3 0.598610 0.894940 0.875776
O O4 0.583812 0.845795 0.000000
O O5 0.725743 0.328151 0.500000
O O6 0.794985 0.252098 0.581960
O O7 0.722987 0.338001 0.641714
O O8 0.682784 0.222845 0.577330
O O9 0.306013 0.500000 0.156200
O O10 0.341866 0.628601 0.122664
O O11 0.283603 0.612176 0.235037
O O12 0.225574 0.594907 0.118705
O O13 0.637775 0.672402 0.000000
O O14 0.500000 0.116395 0.349365
O O15 0.580605 0.095795 0.256715
O O16 0.611040 0.125791 0.386233
O O17 0.568425 0.000000 0.357201
O O18 0.849689 0.500000 0.306393
O O19 0.819292 0.359581 0.286101
O O20 0.750000 0.750000 0.750000
O O21 0.827435 0.395718 0.000000
#
# Coordination Sequence:
#
# PCOD8288528 Si02
#       8
#    16  16  16  16  16  16  16  16
#     4  10  20  34  52  71  92 124 168 209 240 283
#     4   9  17  30  48  67  90 118 155 199 240 282
#     4  11  20  30  47  74  98 120 152 198 247 294
#     4   9  17  31  48  69  94 123 157 194 242 293
#     4  10  20  32  43  58  88 129 164 191 225 273
#     4  11  21  33  47  67  97 130 164 205 247 283
#     4  12  18  30  51  71  93 127 163 200 242 290
#     4  10  19  31  47  68  91 119 155 196 241 285
#
# _framework density 15.949678
#
# number of rings (size 3 to 8) (size 9 to 14) (size 15 to 20)
#    0.000    1.750    5.000    2.250    0.000    3.000 
#    0.000    1.250    0.000    1.500    0.000    1.750 
#    0.000    0.000    0.000    0.000    0.000    0.125 
#
# Total GULP energy -793358.857108 kJ/mol
# GULP energy per Si atom -12396.232142 kJ/mol
# Density = 1.591338 g / cm^3
# Si number density = 15.949678 Si / 1000 Ang^3
#
#
#
# Elastic Constant Matrix: (Units=GPa)
#
#
# Indices 1 2 3 4 5 6 
#
# 1 60.7159 35.6995 21.9553 0.0000 0.0000 0.0000
# 2 35.6995 67.2875 45.6724 0.0000 0.0000 0.0000
# 3 21.9553 45.6724 115.0361 0.0000 0.0000 0.0000
# 4 0.0000 0.0000 0.0000 20.2200 0.0000 0.0000
# 5 0.0000 0.0000 0.0000 0.0000 21.9082 0.0000
# 6 0.0000 0.0000 0.0000 0.0000 0.0000 18.0813
#
#
#
# Elastic Compliance Matrix: (Units=1/GPa)
#
#
# Indices 1 2 3 4 5 6 
#
# 1 0.023973 -0.013160 0.000649 0.000000 0.000000 0.000000
# 2 -0.013160 0.027568 -0.008434 0.000000 0.000000 0.000000
# 3 0.000649 -0.008434 0.011917 0.000000 0.000000 0.000000
# 4 0.000000 0.000000 0.000000 0.049456 0.000000 0.000000
# 5 0.000000 0.000000 0.000000 0.000000 0.045645 0.000000
# 6 0.000000 0.000000 0.000000 0.000000 0.000000 0.055306
#
#
# Mechanical properties :
#
#
# Convention : Reuss Voigt Hill
#
# Bulk Modulus (GPa) = 46.35980 49.96598 48.16289
# Shear Modulus (GPa) = 19.01553 21.35604 20.18578
#
# Velocity S-wave (km/s) = 3.45660 3.66315 3.56138
# Velocity P-wave (km/s) = 6.71269 7.02046 6.86830
#
# Compressibility (1/GPa) = 0.02157041
#
# Stress axis : x y z
#
# Youngs Moduli (GPa) = 41.71380 36.27406 83.91121
#
# Poissons Ratio (x) = 0.47735 -0.05449
# Poissons Ratio (y) = 0.54894 0.70767
# Poissons Ratio (z) = -0.02709 0.30592
#
# Static dielectric constant tensor:
#      x y z
#    x 2.932730 0.000000 0.000000 
#    y 0.000000 2.908860 0.000000 
#    z 0.000000 0.000000 3.411420 
# 
# 
# High freq. dielectric constant tensor:
#      x y z
#    x 1.587140 0.000000 0.000000 
#    y 0.000000 1.586810 0.000000 
#    z 0.000000 0.000000 1.631830 
# 
# From -- ./inp_files/48430.got.cif
#   From: 2010.06.25/outbox.cif.g09.slc.cpg/sg71_25_cif.got.tgz:48430.got - 2010.06.28 04:59:45.
