data_PCOD8288533
_publ_section_title
;
Structure prediction by ZEFSAII (Michael W. Deem and Ramdas Pophale) SiO2 
 PCOD8288533
Probable space group: I M M M
;
_chemical_formula_sum "Si O2"
_cell_formula_units_Z 112
_cell_length_a 19.991260
_cell_length_b 17.278593
_cell_length_c 17.278593
_cell_angle_alpha 90.000000
_cell_angle_beta 90.000000
_cell_angle_gamma 90.000000
_cell_volume 5968.386196
_symmetry_space_group_name_H-M "I M M M"
_symmetry_group_IT_number 71
_symmetry_cell_setting 'orthorhombic'
loop_
_space_group_symop_operation_xyz
x,y,z
-x,-y,z
x,-y,-z
-x,y,-z
-x,-y,-z
x,y,-z
-x,y,z
x,-y,z
1/2+x,1/2+y,1/2+z
1/2-x,1/2-y,1/2+z
1/2+x,1/2-y,1/2-z
1/2-x,1/2+y,1/2-z
1/2-x,1/2-y,1/2-z
1/2+x,1/2+y,1/2-z
1/2-x,1/2+y,1/2+z
1/2+x,1/2-y,1/2+z
loop_
_atom_site_type_symbol
_atom_site_label
_atom_site_fract_x
_atom_site_fract_y
_atom_site_fract_z
Si Si1 0.925645 0.218120 0.588238
Si Si2 0.876136 0.690269 0.912123
Si Si3 0.250000 0.414610 0.914610
Si Si4 0.925645 0.411762 0.781880
Si Si5 0.822365 0.184687 0.815313
Si Si6 0.376136 0.412123 0.809731
Si Si7 0.171608 0.685518 0.685518
O O1 0.910620 0.193200 0.500000
O O2 0.926892 0.142674 0.643907
O O3 0.869660 0.280372 0.613003
O O4 0.000000 0.254847 0.595148
O O5 0.804809 0.649820 0.901290
O O6 0.926892 0.643907 0.857326
O O7 0.864162 0.779907 0.887511
O O8 0.902758 0.687373 0.000000
O O9 0.217646 0.500000 0.905788
O O10 0.304809 0.401290 0.850180
O O11 0.282354 0.405788 0.000000
O O12 0.910620 0.500000 0.806800
O O13 0.869660 0.386997 0.719628
O O14 0.000000 0.404852 0.745153
O O15 0.864162 0.112489 0.779907
O O16 0.821504 0.249900 0.750100
O O17 0.746673 0.159985 0.840015
O O18 0.402758 0.500000 0.812627
#
# Coordination Sequence:
#
# PCOD8288533 Si02
#       7
#    16  16  16  16  16  16  16
#     4  10  20  32  48  72 101 134 169 200 233 279
#     4  10  19  31  47  68  96 126 158 201 249 293
#     4   9  16  25  40  64  92 121 152 189 238 290
#     4  10  20  32  48  72 101 134 169 200 233 279
#     4   9  18  30  48  71  91 120 164 207 248 296
#     4  10  19  31  47  68  96 126 158 201 249 293
#     4   9  17  32  50  69  97 129 162 203 245 283
#
# _framework density 18.765542
#
# number of rings (size 3 to 8) (size 9 to 14) (size 15 to 20)
#    0.000    2.429    0.000    4.714    0.000    5.714 
#    0.000    1.429    0.000    0.857    0.000    4.000 
#    0.000    0.000    0.000   10.429    0.000    1.857 
#
# Total GULP energy -694070.653432 kJ/mol
# GULP energy per Si atom -12394.118811 kJ/mol
# Density = 1.872283 g / cm^3
# Si number density = 18.765542 Si / 1000 Ang^3
#
#
#
# Elastic Constant Matrix: (Units=GPa)
#
#
# Indices 1 2 3 4 5 6 
#
# 1 72.8800 26.4531 26.4531 0.0000 0.0000 0.0000
# 2 26.4531 66.0130 46.5223 0.0000 0.0000 0.0000
# 3 26.4531 46.5223 66.0132 0.0000 0.0000 0.0000
# 4 0.0000 0.0000 0.0000 25.2728 0.0000 0.0000
# 5 0.0000 0.0000 0.0000 0.0000 21.9149 0.0000
# 6 0.0000 0.0000 0.0000 0.0000 0.0000 21.9150
#
#
#
# Elastic Compliance Matrix: (Units=1/GPa)
#
#
# Indices 1 2 3 4 5 6 
#
# 1 0.016544 -0.003889 -0.003889 0.000000 0.000000 0.000000
# 2 -0.003889 0.031010 -0.020296 0.000000 0.000000 0.000000
# 3 -0.003889 -0.020296 0.031010 0.000000 0.000000 0.000000
# 4 0.000000 0.000000 0.000000 0.039568 0.000000 0.000000
# 5 0.000000 0.000000 0.000000 0.000000 0.045631 0.000000
# 6 0.000000 0.000000 0.000000 0.000000 0.000000 0.045631
#
#
# Mechanical properties :
#
#
# Convention : Reuss Voigt Hill
#
# Bulk Modulus (GPa) = 44.60853 44.86255 44.73554
# Shear Modulus (GPa) = 18.31398 20.85239 19.58319
#
# Velocity S-wave (km/s) = 3.12739 3.33709 3.23394
# Velocity P-wave (km/s) = 6.07156 6.22953 6.15105
#
# Compressibility (1/GPa) = 0.02241724
#
# Stress axis : x y z
#
# Youngs Moduli (GPa) = 60.44362 32.24723 32.24732
#
# Poissons Ratio (x) = 0.12541 0.12541
# Poissons Ratio (y) = 0.23507 0.65449
# Poissons Ratio (z) = 0.23506 0.65449
#
# Static dielectric constant tensor:
#      x y z
#    x 3.376960 0.000000 0.000000 
#    y 0.000000 3.499770 0.000000 
#    z 0.000000 0.000000 3.499770 
# 
# 
# High freq. dielectric constant tensor:
#      x y z
#    x 1.721860 0.000000 0.000000 
#    y 0.000000 1.705750 0.000000 
#    z 0.000000 0.000000 1.705750 
# 
# From -- ./inp_files/47502.got.cif
#   From: 2010.06.25/outbox.cif.g09.slc.cpg/sg71_24_cif.got.tgz:47502.got - 2010.06.28 04:59:45.
