data_PCOD8288240
_publ_section_title
;
Structure prediction by ZEFSAII (Michael W. Deem and Ramdas Pophale) SiO2 
 PCOD8288240
Probable space group: I M M M
;
_chemical_formula_sum "Si O2"
_cell_formula_units_Z 120
_cell_length_a 18.611569
_cell_length_b 22.073353
_cell_length_c 17.673977
_cell_angle_alpha 90.000000
_cell_angle_beta 90.000000
_cell_angle_gamma 90.000000
_cell_volume 7260.818502
_symmetry_space_group_name_H-M "I M M M"
_symmetry_group_IT_number 71
_symmetry_cell_setting 'orthorhombic'
loop_
_space_group_symop_operation_xyz
x,y,z
-x,-y,z
x,-y,-z
-x,y,-z
-x,-y,-z
x,y,-z
-x,y,z
x,-y,z
1/2+x,1/2+y,1/2+z
1/2-x,1/2-y,1/2+z
1/2+x,1/2-y,1/2-z
1/2-x,1/2+y,1/2-z
1/2-x,1/2-y,1/2-z
1/2+x,1/2+y,1/2-z
1/2-x,1/2+y,1/2+z
1/2+x,1/2-y,1/2+z
loop_
_atom_site_type_symbol
_atom_site_label
_atom_site_fract_x
_atom_site_fract_y
_atom_site_fract_z
Si Si1 0.418263 0.831192 0.285607
Si Si2 0.320263 0.246151 0.087426
Si Si3 0.342065 0.117255 0.149072
Si Si4 0.916627 0.148589 0.856885
Si Si5 0.079305 0.796571 0.702756
Si Si6 0.703180 0.429022 0.413524
Si Si7 0.843849 0.266891 0.913360
Si Si8 0.421021 0.000000 0.088564
O O1 0.500000 0.855244 0.298536
O O2 0.371965 0.877872 0.234640
O O3 0.420755 0.767490 0.244216
O O4 0.376325 0.822599 0.364841
O O5 0.354626 0.180250 0.104483
O O6 0.363290 0.297131 0.134987
O O7 0.237191 0.250333 0.112239
O O8 0.330728 0.261576 0.000000
O O9 0.257172 0.103795 0.144810
O O10 0.381074 0.061302 0.110135
O O11 0.900673 0.154278 0.766945
O O12 0.876606 0.089891 0.889426
O O13 0.891666 0.207462 0.902876
O O14 0.000000 0.139165 0.872769
O O15 0.000000 0.809783 0.669290
O O16 0.719659 0.408268 0.500000
O O17 0.711446 0.500000 0.405817
O O18 0.845710 0.288052 0.000000
O O19 0.500000 0.000000 0.126220
O O20 0.427664 0.000000 0.000000
#
# Coordination Sequence:
#
# PCOD8288240 Si02
#       8
#    16  16  16  16  16  16  16   8
#     4   9  19  32  47  69  95 126 161 197 238 285
#     4  10  19  29  47  72 100 130 162 195 238 290
#     4  11  20  33  50  66  97 128 164 203 235 279
#     4  10  20  33  50  70  95 130 166 199 236 281
#     4   8  17  31  46  67  96 126 160 197 236 284
#     4  11  22  34  49  70  97 129 165 203 240 277
#     4  10  19  30  48  75 100 126 159 198 240 287
#     4  11  22  34  50  70  94 128 166 204 241 274
#
# _framework density 16.527062000000001
#
# number of rings (size 3 to 8) (size 9 to 14) (size 15 to 20)
#    0.000    2.067    2.000    3.200    1.867    4.533 
#    0.000    0.667    0.000    0.000    0.000    0.467 
#    0.000    3.200    0.000    2.933    0.000    0.000 
#
# Total GULP energy -743823.445278 kJ/mol
# GULP energy per Si atom -12397.057421 kJ/mol
# Density = 1.648945 g / cm^3
# Si number density = 16.527062 Si / 1000 Ang^3
#
#
#
# Elastic Constant Matrix: (Units=GPa)
#
#
# Indices 1 2 3 4 5 6 
#
# 1 111.3814 26.5969 57.8963 0.0000 0.0000 0.0000
# 2 26.5969 32.6292 29.6182 0.0000 0.0000 0.0000
# 3 57.8963 29.6182 90.6082 0.0000 0.0000 0.0000
# 4 0.0000 0.0000 0.0000 20.8255 0.0000 0.0000
# 5 0.0000 0.0000 0.0000 0.0000 26.8030 0.0000
# 6 0.0000 0.0000 0.0000 0.0000 0.0000 41.5702
#
#
#
# Elastic Compliance Matrix: (Units=1/GPa)
#
#
# Indices 1 2 3 4 5 6 
#
# 1 0.013923 -0.004655 -0.007375 0.000000 0.000000 0.000000
# 2 -0.004655 0.045134 -0.011779 0.000000 0.000000 0.000000
# 3 -0.007375 -0.011779 0.019599 0.000000 0.000000 0.000000
# 4 0.000000 0.000000 0.000000 0.048018 0.000000 0.000000
# 5 0.000000 0.000000 0.000000 0.000000 0.037309 0.000000
# 6 0.000000 0.000000 0.000000 0.000000 0.000000 0.024056
#
#
# Mechanical properties :
#
#
# Convention : Reuss Voigt Hill
#
# Bulk Modulus (GPa) = 32.21800 51.42683 41.82242
# Shear Modulus (GPa) = 20.32492 25.87359 23.09925
#
# Velocity S-wave (km/s) = 3.51065 3.96097 3.74259
# Velocity P-wave (km/s) = 5.99744 7.21826 6.63599
#
# Compressibility (1/GPa) = 0.03103855
#
# Stress axis : x y z
#
# Youngs Moduli (GPa) = 71.82248 22.15633 51.02195
#
# Poissons Ratio (x) = 0.10313 0.37629
# Poissons Ratio (y) = 0.33431 0.60100
# Poissons Ratio (z) = 0.52969 0.26098
#
# Static dielectric constant tensor:
#      x y z
#    x 3.423140 0.000000 0.000000 
#    y 0.000000 2.844260 0.000000 
#    z 0.000000 0.000000 3.223370 
# 
# 
# High freq. dielectric constant tensor:
#      x y z
#    x 1.654740 0.000000 0.000000 
#    y 0.000000 1.592110 0.000000 
#    z 0.000000 0.000000 1.626610 
# 
# From -- ./inp_files/46468.got.cif
#   From: 2010.06.25/outbox.cif.g09.slc.cpg/sg71_24_cif.got.tgz:46468.got - 2010.06.28 04:59:45.
