data_PCOD8288969
_publ_section_title
;
Structure prediction by ZEFSAII (Michael W. Deem and Ramdas Pophale) SiO2 
 PCOD8288969
Probable space group: I M M M
;
_chemical_formula_sum "Si O2"
_cell_formula_units_Z 80
_cell_length_a 9.514309
_cell_length_b 21.517615
_cell_length_c 21.108617
_cell_angle_alpha 90.000000
_cell_angle_beta 90.000000
_cell_angle_gamma 90.000000
_cell_volume 4321.466640
_symmetry_space_group_name_H-M "I M M M"
_symmetry_group_IT_number 71
_symmetry_cell_setting 'orthorhombic'
loop_
_space_group_symop_operation_xyz
x,y,z
-x,-y,z
x,-y,-z
-x,y,-z
-x,-y,-z
x,y,-z
-x,y,z
x,-y,z
1/2+x,1/2+y,1/2+z
1/2-x,1/2-y,1/2+z
1/2+x,1/2-y,1/2-z
1/2-x,1/2+y,1/2-z
1/2-x,1/2-y,1/2-z
1/2+x,1/2+y,1/2-z
1/2-x,1/2+y,1/2+z
1/2+x,1/2-y,1/2+z
loop_
_atom_site_type_symbol
_atom_site_label
_atom_site_fract_x
_atom_site_fract_y
_atom_site_fract_z
Si Si1 0.160445 0.500000 0.925164
Si Si2 0.338236 0.858704 0.123748
Si Si3 0.336493 0.734194 0.186691
Si Si4 0.160401 0.901395 0.645231
Si Si5 0.832384 0.571848 0.500000
Si Si6 0.345317 0.431656 0.286208
O O1 0.238546 0.437135 0.903078
O O2 0.000000 0.500000 0.899531
O O3 0.162139 0.500000 0.000000
O O4 0.500000 0.876755 0.125886
O O5 0.314418 0.784764 0.130312
O O6 0.272630 0.889775 0.060478
O O7 0.270392 0.886644 0.186342
O O8 0.500000 0.730506 0.207000
O O9 0.250000 0.750000 0.250000
O O10 0.287540 0.669437 0.155675
O O11 0.171509 0.937111 0.711310
O O12 0.000000 0.902901 0.619361
O O13 0.778641 0.500000 0.500000
O O14 0.000000 0.573069 0.500000
O O15 0.500000 0.405297 0.303184
O O16 0.325386 0.500000 0.315623
#
# Coordination Sequence:
#
# PCOD8288969 Si02
#       6
#     8  16  16  16   8  16
#     4  11  25  43  61  85 115 146 191 248 297 341
#     4  10  20  34  54  80 109 146 190 230 277 332
#     4  10  20  34  55  85 116 146 184 232 282 339
#     4  10  20  37  58  82 113 150 186 226 286 349
#     4   9  18  34  53  75 111 150 183 228 274 319
#     4  10  19  32  52  79 110 141 180 231 280 328
#
# _framework density 18.512233999999999
#
# number of rings (size 3 to 8) (size 9 to 14) (size 15 to 20)
#    0.000    2.000    3.000    0.900    0.000    3.600 
#    1.800    0.500    0.000    1.800    0.000    0.000 
#    0.000    0.000    0.000    0.000    0.000    0.000 
#
# Total GULP energy -495825.558536 kJ/mol
# GULP energy per Si atom -12395.638963 kJ/mol
# Density = 1.847010 g / cm^3
# Si number density = 18.512234 Si / 1000 Ang^3
#
#
#
# Elastic Constant Matrix: (Units=GPa)
#
#
# Indices 1 2 3 4 5 6 
#
# 1 67.9045 49.9430 39.1312 0.0000 0.0000 0.0000
# 2 49.9430 148.3347 51.9789 0.0000 0.0000 0.0000
# 3 39.1312 51.9789 68.0053 0.0000 0.0000 0.0000
# 4 0.0000 0.0000 0.0000 31.7877 0.0000 0.0000
# 5 0.0000 0.0000 0.0000 0.0000 22.5208 0.0000
# 6 0.0000 0.0000 0.0000 0.0000 0.0000 25.0860
#
#
#
# Elastic Compliance Matrix: (Units=1/GPa)
#
#
# Indices 1 2 3 4 5 6 
#
# 1 0.023985 -0.004424 -0.010420 0.000000 0.000000 0.000000
# 2 -0.004424 0.010024 -0.005116 0.000000 0.000000 0.000000
# 3 -0.010420 -0.005116 0.024610 0.000000 0.000000 0.000000
# 4 0.000000 0.000000 0.000000 0.031459 0.000000 0.000000
# 5 0.000000 0.000000 0.000000 0.000000 0.044403 0.000000
# 6 0.000000 0.000000 0.000000 0.000000 0.000000 0.039863
#
#
# Mechanical properties :
#
#
# Convention : Reuss Voigt Hill
#
# Bulk Modulus (GPa) = 53.47619 62.92787 58.20203
# Shear Modulus (GPa) = 22.67601 25.42498 24.05049
#
# Velocity S-wave (km/s) = 3.50368 3.70998 3.60831
# Velocity P-wave (km/s) = 6.73182 7.24005 6.99056
#
# Compressibility (1/GPa) = 0.01869991
#
# Stress axis : x y z
#
# Youngs Moduli (GPa) = 41.69234 99.76276 40.63308
#
# Poissons Ratio (x) = 0.44139 0.42339
# Poissons Ratio (y) = 0.18446 0.20787
# Poissons Ratio (z) = 0.43442 0.51036
#
# Static dielectric constant tensor:
#      x y z
#    x 3.343290 0.000000 0.000000 
#    y 0.000000 3.677600 0.000000 
#    z 0.000000 0.000000 3.257600 
# 
# 
# High freq. dielectric constant tensor:
#      x y z
#    x 1.701910 0.000000 0.000000 
#    y 0.000000 1.736750 0.000000 
#    z 0.000000 0.000000 1.698160 
# 
# From -- ./inp_files/10283.got.cif
#   From: 2010.06.25/outbox.cif.g09.slc.cpg/sg71_6_cif.got.tgz:10283.got - 2010.06.28 04:59:45.
