data_PCOD8288428
_publ_section_title
;
Structure prediction by ZEFSAII (Michael W. Deem and Ramdas Pophale) SiO2 
 PCOD8288428
Probable space group: I M M M
;
_chemical_formula_sum "Si O2"
_cell_formula_units_Z 80
_cell_length_a 17.507467
_cell_length_b 25.641652
_cell_length_c 9.587202
_cell_angle_alpha 90.000000
_cell_angle_beta 90.000000
_cell_angle_gamma 90.000000
_cell_volume 4303.890329
_symmetry_space_group_name_H-M "I M M M"
_symmetry_group_IT_number 71
_symmetry_cell_setting 'orthorhombic'
loop_
_space_group_symop_operation_xyz
x,y,z
-x,-y,z
x,-y,-z
-x,y,-z
-x,-y,-z
x,y,-z
-x,y,z
x,-y,z
1/2+x,1/2+y,1/2+z
1/2-x,1/2-y,1/2+z
1/2+x,1/2-y,1/2-z
1/2-x,1/2+y,1/2-z
1/2-x,1/2-y,1/2-z
1/2+x,1/2+y,1/2-z
1/2-x,1/2+y,1/2+z
1/2+x,1/2-y,1/2+z
loop_
_atom_site_type_symbol
_atom_site_label
_atom_site_fract_x
_atom_site_fract_y
_atom_site_fract_z
Si Si1 0.645243 0.848837 0.840965
Si Si2 0.824642 0.153133 0.162398
Si Si3 0.411692 0.736703 0.159674
Si Si4 0.857562 0.557268 0.156567
Si Si5 0.823984 0.057822 0.343455
O O1 0.734755 0.840532 0.813525
O O2 0.601172 0.796644 0.797216
O O3 0.610129 0.896799 0.753383
O O4 0.629402 0.863402 0.000000
O O5 0.863713 0.202099 0.234743
O O6 0.856076 0.100090 0.234144
O O7 0.846585 0.151657 0.000000
O O8 0.500000 0.722344 0.175496
O O9 0.383838 0.727726 0.000000
O O10 0.886238 0.500000 0.207529
O O11 0.766709 0.557820 0.161345
O O12 0.886704 0.567492 0.000000
O O13 0.851731 0.072316 0.500000
O O14 0.854311 0.000000 0.302666
#
# Coordination Sequence:
#
# PCOD8288428 Si02
#       5
#    16  16  16  16  16
#     4   9  18  31  48  72  97 122 156 196 236 276
#     4  10  19  30  48  74 100 123 151 193 240 282
#     4  10  21  36  51  66  90 126 164 199 234 277
#     4   8  14  25  43  69  98 125 153 187 229 276
#     4   8  14  26  45  69  97 127 156 186 224 274
#
# _framework density 18.587834000000001
#
# number of rings (size 3 to 8) (size 9 to 14) (size 15 to 20)
#    0.000    3.000    0.000    2.400    0.000    2.800 
#    0.000    4.000    0.000    1.200    0.000    8.400 
#    0.000    0.000    0.000    0.000    0.000    0.000 
#
# Total GULP energy -495853.033784 kJ/mol
# GULP energy per Si atom -12396.325845 kJ/mol
# Density = 1.854553 g / cm^3
# Si number density = 18.587834 Si / 1000 Ang^3
#
#
#
# Elastic Constant Matrix: (Units=GPa)
#
#
# Indices 1 2 3 4 5 6 
#
# 1 14.5011 11.9107 15.9420 0.0000 0.0000 0.0000
# 2 11.9107 101.9032 65.9747 0.0000 0.0000 0.0000
# 3 15.9420 65.9747 104.1874 -0.0001 0.0000 0.0000
# 4 0.0000 0.0000 -0.0001 43.5815 0.0000 0.0000
# 5 0.0000 0.0000 0.0000 0.0000 12.0688 0.0000
# 6 0.0000 0.0000 0.0000 0.0000 0.0000 -1.4460
#
#
#
# Elastic Compliance Matrix: (Units=1/GPa)
#
#
# Indices 1 2 3 4 5 6 
#
# 1 0.083285 -0.002515 -0.011151 0.000000 0.000000 0.000000
# 2 -0.002515 0.016708 -0.010195 0.000000 0.000000 0.000000
# 3 -0.011151 -0.010195 0.017760 0.000000 0.000000 0.000000
# 4 0.000000 0.000000 0.000000 0.022946 0.000000 0.000000
# 5 0.000000 0.000000 0.000000 0.000000 0.082859 0.000000
# 6 0.000000 0.000000 0.000000 0.000000 0.000000 -0.691576
#
#
# Mechanical properties :
#
#
# Convention : Reuss Voigt Hill
#
# Bulk Modulus (GPa) = 14.27944 45.36072 29.82008
# Shear Modulus (GPa) = -12.59595 19.29181 3.34793
#
# Velocity S-wave (km/s) = -2.60599 3.22510 1.34352
# Velocity P-wave (km/s) = 1.16450 6.19070 4.29934
#
# Compressibility (1/GPa) = 0.07003077
#
# Stress axis : x y z
#
# Youngs Moduli (GPa) = 12.00692 59.85270 56.30595
#
# Poissons Ratio (x) = 0.15054 0.62787
# Poissons Ratio (y) = 0.03020 0.57404
# Poissons Ratio (z) = 0.13389 0.61020
#
# Static dielectric constant tensor:
#      x y z
#    x 2.919920 0.000000 0.000000 
#    y 0.000000 3.779200 0.000000 
#    z 0.000000 0.000000 3.539490 
# 
# 
# High freq. dielectric constant tensor:
#      x y z
#    x 1.672030 0.000000 0.000000 
#    y 0.000000 1.736090 0.000000 
#    z 0.000000 0.000000 1.719430 
# 
# From -- ./inp_files/8309.got.cif
#   From: 2010.06.25/outbox.cif.g09.slc.cpg/sg71_5_cif.got.tgz:8309.got - 2010.06.28 04:59:45.
