data_PCOD8288424
_publ_section_title
;
Structure prediction by ZEFSAII (Michael W. Deem and Ramdas Pophale) SiO2 
 PCOD8288424
Probable space group: I M M M
;
_chemical_formula_sum "Si O2"
_cell_formula_units_Z 80
_cell_length_a 9.728176
_cell_length_b 14.228508
_cell_length_c 33.241382
_cell_angle_alpha 90.000000
_cell_angle_beta 90.000000
_cell_angle_gamma 90.000000
_cell_volume 4601.186667
_symmetry_space_group_name_H-M "I M M M"
_symmetry_group_IT_number 71
_symmetry_cell_setting 'orthorhombic'
loop_
_space_group_symop_operation_xyz
x,y,z
-x,-y,z
x,-y,-z
-x,y,-z
-x,-y,-z
x,y,-z
-x,y,z
x,-y,z
1/2+x,1/2+y,1/2+z
1/2-x,1/2-y,1/2+z
1/2+x,1/2-y,1/2-z
1/2-x,1/2+y,1/2-z
1/2-x,1/2-y,1/2-z
1/2+x,1/2+y,1/2-z
1/2-x,1/2+y,1/2+z
1/2+x,1/2-y,1/2+z
loop_
_atom_site_type_symbol
_atom_site_label
_atom_site_fract_x
_atom_site_fract_y
_atom_site_fract_z
Si Si1 0.661800 0.787738 0.609074
Si Si2 0.155669 0.388799 0.810145
Si Si3 0.157516 0.107423 0.546817
Si Si4 0.653242 0.611797 0.260371
Si Si5 0.337203 0.603202 0.349011
O O1 0.500000 0.798320 0.600397
O O2 0.707532 0.848585 0.647488
O O3 0.744136 0.822128 0.570455
O O4 0.704473 0.679202 0.617330
O O5 0.168305 0.500000 0.812549
O O6 0.246333 0.346317 0.773812
O O7 0.000000 0.355826 0.802105
O O8 0.178607 0.128342 0.500000
O O9 0.000000 0.125647 0.559315
O O10 0.198205 0.000000 0.556622
O O11 0.500000 0.652587 0.253416
O O12 0.649497 0.500000 0.257045
O O13 0.711598 0.638312 0.304732
O O14 0.500000 0.594787 0.346157
O O15 0.275192 0.500000 0.359992
#
# Coordination Sequence:
#
# PCOD8288424 Si02
#       5
#    16  16  16  16  16
#     4  10  19  30  48  73  96 121 156 195 234 276
#     4   9  17  27  38  59  94 125 148 187 240 280
#     4   9  19  36  55  74  98 125 148 175 220 279
#     4   8  14  26  43  60  82 120 165 197 224 267
#     4   8  15  29  47  66  91 124 162 203 239 267
#
# _framework density 17.386818999999999
#
# number of rings (size 3 to 8) (size 9 to 14) (size 15 to 20)
#    0.000    3.200    0.000    2.400    0.000    3.200 
#    0.000    4.000    0.000    2.400    0.000    4.200 
#    0.000    0.000    0.000    0.000    0.000    0.000 
#
# Total GULP energy -495822.271241 kJ/mol
# GULP energy per Si atom -12395.556781 kJ/mol
# Density = 1.734725 g / cm^3
# Si number density = 17.386819 Si / 1000 Ang^3
#
#
#
# Elastic Constant Matrix: (Units=GPa)
#
#
# Indices 1 2 3 4 5 6 
#
# 1 59.6028 36.7166 50.1890 0.0000 0.0000 0.0000
# 2 36.7166 63.4420 54.2536 0.0000 0.0000 0.0000
# 3 50.1890 54.2536 94.5178 0.0000 0.0000 0.0000
# 4 0.0000 0.0000 0.0000 29.8010 0.0000 0.0000
# 5 0.0000 0.0000 0.0000 0.0000 33.2808 0.0000
# 6 0.0000 0.0000 0.0000 0.0000 0.0000 14.7378
#
#
#
# Elastic Compliance Matrix: (Units=1/GPa)
#
#
# Indices 1 2 3 4 5 6 
#
# 1 0.032241 -0.007893 -0.012589 0.000000 0.000000 0.000000
# 2 -0.007893 0.032892 -0.014689 0.000000 0.000000 0.000000
# 3 -0.012589 -0.014689 0.025696 0.000000 0.000000 0.000000
# 4 0.000000 0.000000 0.000000 0.033556 0.000000 0.000000
# 5 0.000000 0.000000 0.000000 0.000000 0.030047 0.000000
# 6 0.000000 0.000000 0.000000 0.000000 0.000000 0.067853
#
#
# Mechanical properties :
#
#
# Convention : Reuss Voigt Hill
#
# Bulk Modulus (GPa) = 48.81219 55.54235 52.17727
# Shear Modulus (GPa) = 16.69688 20.65747 18.67718
#
# Velocity S-wave (km/s) = 3.10226 3.45064 3.28108
# Velocity P-wave (km/s) = 6.40057 6.92028 6.66549
#
# Compressibility (1/GPa) = 0.02048669
#
# Stress axis : x y z
#
# Youngs Moduli (GPa) = 31.01632 30.40245 38.91617
#
# Poissons Ratio (x) = 0.23998 0.48992
# Poissons Ratio (y) = 0.24483 0.57163
# Poissons Ratio (z) = 0.39047 0.44657
#
# Static dielectric constant tensor:
#      x y z
#    x 3.147050 0.000000 0.000000 
#    y 0.000000 3.418210 0.000000 
#    z 0.000000 0.000000 3.113340 
# 
# 
# High freq. dielectric constant tensor:
#      x y z
#    x 1.646550 0.000000 0.000000 
#    y 0.000000 1.671920 0.000000 
#    z 0.000000 0.000000 1.654620 
# 
# From -- ./inp_files/8281.got.cif
#   From: 2010.06.25/outbox.cif.g09.slc.cpg/sg71_5_cif.got.tgz:8281.got - 2010.06.28 04:59:45.
