data_PCOD8288023
_publ_section_title
;
Structure prediction by ZEFSAII (Michael W. Deem and Ramdas Pophale) SiO2 
 PCOD8288023
Probable space group: I M M M
;
_chemical_formula_sum "Si O2"
_cell_formula_units_Z 72
_cell_length_a 18.232736
_cell_length_b 25.569364
_cell_length_c 7.689175
_cell_angle_alpha 90.000000
_cell_angle_beta 90.000000
_cell_angle_gamma 90.000000
_cell_volume 3584.689260
_symmetry_space_group_name_H-M "I M M M"
_symmetry_group_IT_number 71
_symmetry_cell_setting 'orthorhombic'
loop_
_space_group_symop_operation_xyz
x,y,z
-x,-y,z
x,-y,-z
-x,y,-z
-x,-y,-z
x,y,-z
-x,y,z
x,-y,z
1/2+x,1/2+y,1/2+z
1/2-x,1/2-y,1/2+z
1/2+x,1/2-y,1/2-z
1/2-x,1/2+y,1/2-z
1/2-x,1/2-y,1/2-z
1/2+x,1/2+y,1/2-z
1/2-x,1/2+y,1/2+z
1/2+x,1/2-y,1/2+z
loop_
_atom_site_type_symbol
_atom_site_label
_atom_site_fract_x
_atom_site_fract_y
_atom_site_fract_z
Si Si1 0.412993 0.394810 0.500000
Si Si2 0.084001 0.703505 0.693974
Si Si3 0.664001 0.898087 0.702994
Si Si4 0.086701 0.222829 0.000000
Si Si5 0.582812 0.000000 0.293013
Si Si6 0.678611 0.439453 0.197109
O O1 0.500000 0.396935 0.500000
O O2 0.381524 0.335706 0.500000
O O3 0.385978 0.424070 0.672721
O O4 0.088543 0.727409 0.500000
O O5 0.134823 0.652677 0.699076
O O6 0.114231 0.746898 0.827851
O O7 0.000000 0.688037 0.740963
O O8 0.646863 0.891542 0.500000
O O9 0.750223 0.904590 0.739082
O O10 0.622364 0.948464 0.780361
O O11 0.000000 0.219118 0.000000
O O12 0.500000 0.000000 0.225141
O O13 0.588137 0.000000 0.500000
O O14 0.700249 0.500000 0.220962
O O15 0.651446 0.429158 0.000000
#
# Coordination Sequence:
#
# PCOD8288023 Si02
#       6
#     8  16  16   8   8  16
#     4  11  25  44  69  94 113 146 203 257 312 379
#     4  10  20  34  57  87 121 164 209 248 291 340
#     4  10  18  33  56  83 123 168 203 241 289 348
#     4   9  20  41  62  84 118 157 200 258 310 347
#     4   9  16  26  49  85 119 161 212 245 275 333
#     4  10  22  41  64  91 125 162 192 237 309 373
#
# _framework density 20.085424
#
# number of rings (size 3 to 8) (size 9 to 14) (size 15 to 20)
#    0.000    2.111    2.222    1.000    1.556    3.111 
#    0.000    5.000    0.000    2.000    0.000    0.000 
#    0.000    0.000    0.000    0.000    0.000    0.000 
#
# Total GULP energy -446465.954618 kJ/mol
# GULP energy per Si atom -12401.832073 kJ/mol
# Density = 2.003971 g / cm^3
# Si number density = 20.085424 Si / 1000 Ang^3
#
#
#
# Elastic Constant Matrix: (Units=GPa)
#
#
# Indices 1 2 3 4 5 6 
#
# 1 80.2054 27.2185 44.8057 0.0000 0.0000 0.0000
# 2 27.2185 84.7415 46.9349 0.0000 0.0000 0.0000
# 3 44.8057 46.9349 120.8513 0.0000 0.0000 0.0000
# 4 0.0000 0.0000 0.0000 15.1352 0.0000 0.0000
# 5 0.0000 0.0000 0.0000 0.0000 21.2942 0.0000
# 6 0.0000 0.0000 0.0000 0.0000 0.0000 19.0559
#
#
#
# Elastic Compliance Matrix: (Units=1/GPa)
#
#
# Indices 1 2 3 4 5 6 
#
# 1 0.016092 -0.002375 -0.005044 0.000000 0.000000 0.000000
# 2 -0.002375 0.015385 -0.005095 0.000000 0.000000 0.000000
# 3 -0.005044 -0.005095 0.012123 0.000000 0.000000 0.000000
# 4 0.000000 0.000000 0.000000 0.066071 0.000000 0.000000
# 5 0.000000 0.000000 0.000000 0.000000 0.046961 0.000000
# 6 0.000000 0.000000 0.000000 0.000000 0.000000 0.052477
#
#
# Mechanical properties :
#
#
# Convention : Reuss Voigt Hill
#
# Bulk Modulus (GPa) = 53.84046 58.19071 56.01559
# Shear Modulus (GPa) = 20.80502 22.21966 21.51234
#
# Velocity S-wave (km/s) = 3.22192 3.32965 3.27623
# Velocity P-wave (km/s) = 6.38004 6.61941 6.50083
#
# Compressibility (1/GPa) = 0.01857339
#
# Stress axis : x y z
#
# Youngs Moduli (GPa) = 62.14459 64.99787 82.48734
#
# Poissons Ratio (x) = 0.15438 0.41603
# Poissons Ratio (y) = 0.14760 0.42023
# Poissons Ratio (z) = 0.31343 0.33113
#
# Static dielectric constant tensor:
#      x y z
#    x 3.363480 0.000000 0.000000 
#    y 0.000000 3.681190 0.000000 
#    z 0.000000 0.000000 3.617950 
# 
# 
# High freq. dielectric constant tensor:
#      x y z
#    x 1.764270 0.000000 0.000000 
#    y 0.000000 1.778810 0.000000 
#    z 0.000000 0.000000 1.785290 
# 
# From -- ./inp_files/8025.got.cif
#   From: 2010.06.25/outbox.cif.g09.slc.cpg/sg71_5_cif.got.tgz:8025.got - 2010.06.28 04:59:45.
