data_PCOD8288423
_publ_section_title
;
Structure prediction by ZEFSAII (Michael W. Deem and Ramdas Pophale) SiO2 
 PCOD8288423
Probable space group: I M M M
;
_chemical_formula_sum "Si O2"
_cell_formula_units_Z 104
_cell_length_a 9.246651
_cell_length_b 28.152571
_cell_length_c 22.837261
_cell_angle_alpha 90.000000
_cell_angle_beta 90.000000
_cell_angle_gamma 90.000000
_cell_volume 5944.927244
_symmetry_space_group_name_H-M "I M M M"
_symmetry_group_IT_number 71
_symmetry_cell_setting 'orthorhombic'
loop_
_space_group_symop_operation_xyz
x,y,z
-x,-y,z
x,-y,-z
-x,y,-z
-x,-y,-z
x,y,-z
-x,y,z
x,-y,z
1/2+x,1/2+y,1/2+z
1/2-x,1/2-y,1/2+z
1/2+x,1/2-y,1/2-z
1/2-x,1/2+y,1/2-z
1/2-x,1/2-y,1/2-z
1/2+x,1/2+y,1/2-z
1/2-x,1/2+y,1/2+z
1/2+x,1/2-y,1/2+z
loop_
_atom_site_type_symbol
_atom_site_label
_atom_site_fract_x
_atom_site_fract_y
_atom_site_fract_z
Si Si1 0.829392 0.105735 0.617313
Si Si2 0.328017 0.447193 0.231452
Si Si3 0.669645 0.611323 0.343329
Si Si4 0.332999 0.196155 0.194369
Si Si5 0.172674 0.055383 0.500000
Si Si6 0.666815 0.696703 0.814776
Si Si7 0.839502 0.444427 0.566164
O O1 0.768942 0.074001 0.670616
O O2 0.765630 0.084518 0.556536
O O3 0.787448 0.160993 0.632018
O O4 0.000000 0.100921 0.613046
O O5 0.500000 0.448820 0.230977
O O6 0.264015 0.500000 0.239390
O O7 0.274477 0.414619 0.284600
O O8 0.500000 0.620334 0.342955
O O9 0.751999 0.661271 0.350093
O O10 0.711607 0.579776 0.398337
O O11 0.500000 0.182789 0.199847
O O12 0.313130 0.248604 0.166551
O O13 0.263527 0.188610 0.257972
O O14 0.000000 0.055489 0.500000
O O15 0.226114 0.000000 0.500000
O O16 0.500000 0.686013 0.797079
O O17 0.827452 0.426209 0.500000
O O18 0.812656 0.500000 0.569434
O O19 0.000000 0.431911 0.590719
#
# Coordination Sequence:
#
# PCOD8288423 Si02
#       7
#    16  16  16  16   8  16  16
#     4   9  15  26  43  65  98 132 162 199 248 300
#     4   9  16  25  40  65  97 128 156 194 244 292
#     4  11  20  31  49  74 103 133 169 208 249 298
#     4  10  19  30  48  72  99 128 167 209 256 311
#     4   9  16  24  40  70 103 133 163 199 246 301
#     4   9  17  31  49  70  97 129 164 208 258 308
#     4   9  19  36  55  74 101 136 168 201 247 300
#
# _framework density 17.493905000000002
#
# number of rings (size 3 to 8) (size 9 to 14) (size 15 to 20)
#    0.000    2.538    1.538    2.308    0.000    3.692 
#    0.000    0.769    1.692    0.000    0.000    0.538 
#    0.000    0.615    0.000    0.000    0.000    0.000 
#
# Total GULP energy -644492.246569 kJ/mol
# GULP energy per Si atom -12394.081665 kJ/mol
# Density = 1.745409 g / cm^3
# Si number density = 17.493905 Si / 1000 Ang^3
#
#
#
# Elastic Constant Matrix: (Units=GPa)
#
#
# Indices 1 2 3 4 5 6 
#
# 1 53.3864 40.4151 29.7853 0.0000 0.0000 0.0000
# 2 40.4151 125.4726 62.4749 0.0000 0.0000 0.0000
# 3 29.7853 62.4749 93.8876 0.0002 0.0000 0.0000
# 4 0.0000 0.0000 0.0002 28.2402 0.0000 0.0000
# 5 0.0000 0.0000 0.0000 0.0000 20.0681 0.0000
# 6 0.0000 0.0000 0.0000 0.0000 0.0000 21.9600
#
#
#
# Elastic Compliance Matrix: (Units=1/GPa)
#
#
# Indices 1 2 3 4 5 6 
#
# 1 0.025719 -0.006313 -0.003958 0.000000 0.000000 0.000000
# 2 -0.006313 0.013469 -0.006959 0.000000 0.000000 0.000000
# 3 -0.003958 -0.006959 0.016538 0.000000 0.000000 0.000000
# 4 0.000000 0.000000 0.000000 0.035411 0.000000 0.000000
# 5 0.000000 0.000000 0.000000 0.000000 0.049830 0.000000
# 6 0.000000 0.000000 0.000000 0.000000 0.000000 0.045537
#
#
# Mechanical properties :
#
#
# Convention : Reuss Voigt Hill
#
# Bulk Modulus (GPa) = 47.02902 59.78857 53.40880
# Shear Modulus (GPa) = 21.92469 23.39175 22.65822
#
# Velocity S-wave (km/s) = 3.54400 3.66066 3.60280
# Velocity P-wave (km/s) = 6.60970 7.21929 6.92121
#
# Compressibility (1/GPa) = 0.02126346
#
# Stress axis : x y z
#
# Youngs Moduli (GPa) = 38.88166 74.24657 60.46779
#
# Poissons Ratio (x) = 0.46874 0.23934
# Poissons Ratio (y) = 0.24547 0.42082
# Poissons Ratio (z) = 0.15390 0.51672
#
# Static dielectric constant tensor:
#      x y z
#    x 2.934840 0.000000 0.000000 
#    y 0.000000 3.560450 0.000000 
#    z 0.000000 0.000000 3.229350 
# 
# 
# High freq. dielectric constant tensor:
#      x y z
#    x 1.639040 0.000000 0.000000 
#    y 0.000000 1.689590 0.000000 
#    z 0.000000 0.000000 1.656180 
# 
# From -- ./inp_files/11553.got.cif
#   From: 2010.06.25/outbox.cif.g09.slc.cpg/sg71_6_cif.got.tgz:11553.got - 2010.06.28 04:59:45.
