data_PCOD8288994
_publ_section_title
;
Structure prediction by ZEFSAII (Michael W. Deem and Ramdas Pophale) SiO2 
 PCOD8288994
Probable space group: I M M M
;
_chemical_formula_sum "Si O2"
_cell_formula_units_Z 104
_cell_length_a 23.382261
_cell_length_b 9.291046
_cell_length_c 25.521130
_cell_angle_alpha 90.000000
_cell_angle_beta 90.000000
_cell_angle_gamma 90.000000
_cell_volume 5544.354795
_symmetry_space_group_name_H-M "I M M M"
_symmetry_group_IT_number 71
_symmetry_cell_setting 'orthorhombic'
loop_
_space_group_symop_operation_xyz
x,y,z
-x,-y,z
x,-y,-z
-x,y,-z
-x,-y,-z
x,y,-z
-x,y,z
x,-y,z
1/2+x,1/2+y,1/2+z
1/2-x,1/2-y,1/2+z
1/2+x,1/2-y,1/2-z
1/2-x,1/2+y,1/2-z
1/2-x,1/2-y,1/2-z
1/2+x,1/2+y,1/2-z
1/2-x,1/2+y,1/2+z
1/2+x,1/2-y,1/2+z
loop_
_atom_site_type_symbol
_atom_site_label
_atom_site_fract_x
_atom_site_fract_y
_atom_site_fract_z
Si Si1 0.341916 0.336420 0.357715
Si Si2 0.064840 0.829180 0.940889
Si Si3 0.840290 0.665596 0.249116
Si Si4 0.713774 0.837689 0.144656
Si Si5 0.117595 0.162092 0.406841
Si Si6 0.064766 0.840974 0.700807
Si Si7 0.435142 0.829780 0.000000
O O1 0.360332 0.500000 0.345532
O O2 0.387992 0.269005 0.399153
O O3 0.335814 0.252381 0.303991
O O4 0.277394 0.330024 0.379742
O O5 0.000000 0.782076 0.924563
O O6 0.069002 0.000000 0.941719
O O7 0.078227 0.771735 0.000000
O O8 0.842076 0.500000 0.233362
O O9 0.790122 0.696595 0.292279
O O10 0.899994 0.711426 0.274743
O O11 0.678230 0.718233 0.114139
O O12 0.689212 0.000000 0.136459
O O13 0.070014 0.164219 0.361768
O O14 0.097222 0.271078 0.450175
O O15 0.125882 0.000000 0.428701
O O16 0.000000 0.815623 0.717673
O O17 0.085521 0.000000 0.720323
O O18 0.500000 0.773759 0.000000
O O19 0.431787 0.000000 0.000000
#
# Coordination Sequence:
#
# PCOD8288994 Si02
#       7
#    16  16  16  16  16  16   8
#     4  10  19  32  53  79 104 135 178 218 258 314
#     4   8  15  30  52  77 103 129 163 212 266 315
#     4  10  20  32  48  72 106 141 173 213 263 316
#     4   9  19  35  51  73 106 141 177 217 265 320
#     4  10  20  35  55  77 103 137 178 224 270 315
#     4   9  18  33  52  73  99 134 175 217 263 315
#     4  11  23  37  55  79 107 141 180 221 266 315
#
# _framework density 18.757819000000001
#
# number of rings (size 3 to 8) (size 9 to 14) (size 15 to 20)
#    0.000    2.538    0.000    2.538    0.000    4.000 
#    1.385    1.538    0.000    0.462    0.000    1.077 
#    0.000    0.000    0.000    0.000    0.000    0.000 
#
# Total GULP energy -644391.180573 kJ/mol
# GULP energy per Si atom -12392.138088 kJ/mol
# Density = 1.871513 g / cm^3
# Si number density = 18.757819 Si / 1000 Ang^3
#
#
#
# Elastic Constant Matrix: (Units=GPa)
#
#
# Indices 1 2 3 4 5 6 
#
# 1 98.0242 27.0614 46.8884 0.0000 0.0000 0.0000
# 2 27.0614 55.7584 34.2632 0.0000 0.0000 0.0000
# 3 46.8884 34.2632 80.7961 0.0000 0.0000 0.0000
# 4 0.0000 0.0000 0.0000 28.6738 0.0000 0.0000
# 5 0.0000 0.0000 0.0000 0.0000 15.0630 0.0000
# 6 0.0000 0.0000 0.0000 0.0000 0.0000 21.2864
#
#
#
# Elastic Compliance Matrix: (Units=1/GPa)
#
#
# Indices 1 2 3 4 5 6 
#
# 1 0.014375 -0.002503 -0.007281 0.000000 0.000000 0.000000
# 2 -0.002503 0.024691 -0.009018 0.000000 0.000000 0.000000
# 3 -0.007281 -0.009018 0.020427 0.000000 0.000000 0.000000
# 4 0.000000 0.000000 0.000000 0.034875 0.000000 0.000000
# 5 0.000000 0.000000 0.000000 0.000000 0.066388 0.000000
# 6 0.000000 0.000000 0.000000 0.000000 0.000000 0.046978
#
#
# Mechanical properties :
#
#
# Convention : Reuss Voigt Hill
#
# Bulk Modulus (GPa) = 45.68561 50.11162 47.89861
# Shear Modulus (GPa) = 19.79146 21.42902 20.61024
#
# Velocity S-wave (km/s) = 3.25176 3.38361 3.31834
# Velocity P-wave (km/s) = 6.20540 6.48369 6.34607
#
# Compressibility (1/GPa) = 0.02188873
#
# Stress axis : x y z
#
# Youngs Moduli (GPa) = 69.56398 40.50090 48.95568
#
# Poissons Ratio (x) = 0.10136 0.35645
# Poissons Ratio (y) = 0.17409 0.44150
# Poissons Ratio (z) = 0.50650 0.36525
#
# Static dielectric constant tensor:
#      x y z
#    x 3.536930 0.000000 0.000000 
#    y 0.000000 3.340950 0.000000 
#    z 0.000000 0.000000 3.393020 
# 
# 
# High freq. dielectric constant tensor:
#      x y z
#    x 1.728370 0.000000 0.000000 
#    y 0.000000 1.713250 0.000000 
#    z 0.000000 0.000000 1.717060 
# 
# From -- ./inp_files/66845.got.cif
#   From: 2010.06.25/outbox.cif.g09.slc.cpg/sg71_34_cif.got.tgz:66845.got - 2010.06.28 04:59:45.
