data_PCOD8288412
_publ_section_title
;
Structure prediction by ZEFSAII (Michael W. Deem and Ramdas Pophale) SiO2 
 PCOD8288412
Probable space group: I M M M
;
_chemical_formula_sum "Si O2"
_cell_formula_units_Z 104
_cell_length_a 8.964860
_cell_length_b 27.020294
_cell_length_c 21.817996
_cell_angle_alpha 90.000000
_cell_angle_beta 90.000000
_cell_angle_gamma 90.000000
_cell_volume 5285.041960
_symmetry_space_group_name_H-M "I M M M"
_symmetry_group_IT_number 71
_symmetry_cell_setting 'orthorhombic'
loop_
_space_group_symop_operation_xyz
x,y,z
-x,-y,z
x,-y,-z
-x,y,-z
-x,-y,-z
x,y,-z
-x,y,z
x,-y,z
1/2+x,1/2+y,1/2+z
1/2-x,1/2-y,1/2+z
1/2+x,1/2-y,1/2-z
1/2-x,1/2+y,1/2-z
1/2-x,1/2-y,1/2-z
1/2+x,1/2+y,1/2-z
1/2-x,1/2+y,1/2+z
1/2+x,1/2-y,1/2+z
loop_
_atom_site_type_symbol
_atom_site_label
_atom_site_fract_x
_atom_site_fract_y
_atom_site_fract_z
Si Si1 0.667756 0.054424 0.613197
Si Si2 0.674988 0.092652 0.150483
Si Si3 0.335779 0.557471 0.234442
Si Si4 0.173036 0.791198 0.675684
Si Si5 0.177497 0.500000 0.429855
Si Si6 0.169495 0.656619 0.932671
Si Si7 0.173772 0.187950 0.187456
O O1 0.500000 0.053587 0.640430
O O2 0.781674 0.069018 0.666575
O O3 0.682578 0.096849 0.562265
O O4 0.706453 0.000000 0.585537
O O5 0.500000 0.099527 0.141622
O O6 0.712373 0.076899 0.219150
O O7 0.752724 0.146287 0.143256
O O8 0.736185 0.050362 0.103400
O O9 0.500000 0.582666 0.244652
O O10 0.352737 0.500000 0.245528
O O11 0.217215 0.824837 0.618491
O O12 0.208607 0.819999 0.739636
O O13 0.264420 0.740992 0.668688
O O14 0.000000 0.777585 0.672617
O O15 0.234947 0.500000 0.500000
O O16 0.000000 0.500000 0.426553
O O17 0.000000 0.671925 0.915406
O O18 0.211694 0.677621 0.000000
O O19 0.000000 0.187365 0.173590
#
# Coordination Sequence:
#
# PCOD8288412 Si02
#       7
#    16  16  16  16   8  16  16
#     4   9  18  32  51  76 107 143 186 230 270 319
#     4  11  20  33  56  83 110 144 186 227 274 334
#     4  10  19  30  47  74 109 143 176 220 272 321
#     4  10  21  38  59  84 112 145 186 230 282 339
#     4   9  20  38  57  79 111 151 192 233 274 325
#     4  10  21  36  54  77 108 148 188 228 276 325
#     4  10  21  37  60  88 116 142 176 229 290 343
#
# _framework density 19.678177999999999
#
# number of rings (size 3 to 8) (size 9 to 14) (size 15 to 20)
#    0.000    2.077    0.769    2.769    0.000    6.154 
#    0.000    2.308    0.000    6.462    0.000    3.231 
#    0.000    0.000    0.000    0.000    0.000    0.000 
#
# Total GULP energy -644485.196288 kJ/mol
# GULP energy per Si atom -12393.946082 kJ/mol
# Density = 1.963339 g / cm^3
# Si number density = 19.678178 Si / 1000 Ang^3
#
#
#
# Elastic Constant Matrix: (Units=GPa)
#
#
# Indices 1 2 3 4 5 6 
#
# 1 77.9252 40.5984 26.5068 0.0000 0.0000 0.0000
# 2 40.5984 100.2717 55.1719 0.0000 0.0000 0.0000
# 3 26.5068 55.1719 54.4376 0.0001 0.0000 0.0000
# 4 0.0000 0.0000 0.0001 21.5448 0.0000 0.0000
# 5 0.0000 0.0000 0.0000 0.0000 19.4210 0.0000
# 6 0.0000 0.0000 0.0000 0.0000 0.0000 31.0820
#
#
#
# Elastic Compliance Matrix: (Units=1/GPa)
#
#
# Indices 1 2 3 4 5 6 
#
# 1 0.016457 -0.005096 -0.002849 0.000000 0.000000 0.000000
# 2 -0.005096 0.024123 -0.021967 0.000000 0.000000 0.000000
# 3 -0.002849 -0.021967 0.042020 0.000000 0.000000 0.000000
# 4 0.000000 0.000000 0.000000 0.046415 0.000000 0.000000
# 5 0.000000 0.000000 0.000000 0.000000 0.051491 0.000000
# 6 0.000000 0.000000 0.000000 0.000000 0.000000 0.032173
#
#
# Mechanical properties :
#
#
# Convention : Reuss Voigt Hill
#
# Bulk Modulus (GPa) = 43.90436 53.02098 48.46267
# Shear Modulus (GPa) = 17.85121 21.76673 19.80897
#
# Velocity S-wave (km/s) = 3.01517 3.32947 3.17621
# Velocity P-wave (km/s) = 5.87208 6.46398 6.17513
#
# Compressibility (1/GPa) = 0.02277678
#
# Stress axis : x y z
#
# Youngs Moduli (GPa) = 60.76594 41.45455 23.79809
#
# Poissons Ratio (x) = 0.21123 0.06780
# Poissons Ratio (y) = 0.30964 0.52277
# Poissons Ratio (z) = 0.17311 0.91063
#
# Static dielectric constant tensor:
#      x y z
#    x 3.518890 0.000000 0.000000 
#    y 0.000000 3.771550 0.000000 
#    z 0.000000 0.000000 3.323140 
# 
# 
# High freq. dielectric constant tensor:
#      x y z
#    x 1.762000 0.000000 0.000000 
#    y 0.000000 1.778310 0.000000 
#    z 0.000000 0.000000 1.735750 
# 
# From -- ./inp_files/50935.got.cif
#   From: 2010.06.25/outbox.cif.g09.slc.cpg/sg71_26_cif.got.tgz:50935.got - 2010.06.28 04:59:45.
