data_PCOD8288440
_publ_section_title
;
Structure prediction by ZEFSAII (Michael W. Deem and Ramdas Pophale) SiO2 
 PCOD8288440
Probable space group: I M M M
;
_chemical_formula_sum "Si O2"
_cell_formula_units_Z 104
_cell_length_a 9.066760
_cell_length_b 23.957165
_cell_length_c 26.690115
_cell_angle_alpha 90.000000
_cell_angle_beta 90.000000
_cell_angle_gamma 90.000000
_cell_volume 5797.463045
_symmetry_space_group_name_H-M "I M M M"
_symmetry_group_IT_number 71
_symmetry_cell_setting 'orthorhombic'
loop_
_space_group_symop_operation_xyz
x,y,z
-x,-y,z
x,-y,-z
-x,y,-z
-x,-y,-z
x,y,-z
-x,y,z
x,-y,z
1/2+x,1/2+y,1/2+z
1/2-x,1/2-y,1/2+z
1/2+x,1/2-y,1/2-z
1/2-x,1/2+y,1/2-z
1/2-x,1/2-y,1/2-z
1/2+x,1/2+y,1/2-z
1/2-x,1/2+y,1/2+z
1/2+x,1/2-y,1/2+z
loop_
_atom_site_type_symbol
_atom_site_label
_atom_site_fract_x
_atom_site_fract_y
_atom_site_fract_z
Si Si1 0.668213 0.863233 0.788718
Si Si2 0.326186 0.853052 0.057912
Si Si3 0.674714 0.842096 0.677819
Si Si4 0.676661 0.938010 0.393327
Si Si5 0.339684 0.066006 0.500000
Si Si6 0.673254 0.434855 0.632101
Si Si7 0.334065 0.763167 0.864057
O O1 0.500000 0.884848 0.784504
O O2 0.735761 0.848978 0.734173
O O3 0.762124 0.911273 0.815810
O O4 0.676588 0.806298 0.818908
O O5 0.500000 0.863640 0.064544
O O6 0.243886 0.904652 0.083954
O O7 0.282900 0.794667 0.084958
O O8 0.278735 0.849539 0.000000
O O9 0.500000 0.838497 0.678616
O O10 0.734665 0.896062 0.648535
O O11 0.729078 0.787818 0.648651
O O12 0.500000 0.937841 0.396904
O O13 0.742251 0.918180 0.447810
O O14 0.733204 0.000000 0.379333
O O15 0.500000 0.095474 0.500000
O O16 0.362209 0.000000 0.500000
O O17 0.500000 0.423610 0.631575
O O18 0.711340 0.500000 0.628362
O O19 0.500000 0.740489 0.869999
#
# Coordination Sequence:
#
# PCOD8288440 Si02
#       7
#    16  16  16  16   8  16  16
#     4   9  19  34  51  70  96 134 174 209 247 299
#     4   9  19  37  58  77 101 137 178 214 249 299
#     4  10  19  30  48  76 100 122 164 216 257 295
#     4   8  14  25  41  63  92 123 154 192 240 290
#     4   7  10  20  38  56  81 119 149 171 216 279
#     4  10  21  35  52  78 109 137 168 210 261 312
#     4   9  18  33  50  69  96 131 167 202 249 304
#
# _framework density 17.938880999999999
#
# number of rings (size 3 to 8) (size 9 to 14) (size 15 to 20)
#    0.000    3.000    0.000    2.769    0.000    5.538 
#    1.385    3.077    0.000    0.462    0.000    0.000 
#    0.000    1.846    0.000    0.000    0.000    0.000 
#
# Total GULP energy -644471.166235 kJ/mol
# GULP energy per Si atom -12393.676274 kJ/mol
# Density = 1.789805 g / cm^3
# Si number density = 17.938881 Si / 1000 Ang^3
#
#
#
# Elastic Constant Matrix: (Units=GPa)
#
#
# Indices 1 2 3 4 5 6 
#
# 1 43.3351 40.9947 39.2341 0.0000 0.0000 0.0000
# 2 40.9947 109.0458 85.4177 0.0000 0.0000 0.0000
# 3 39.2341 85.4177 143.1576 0.0000 0.0000 0.0000
# 4 0.0000 0.0000 0.0000 17.3323 0.0000 0.0000
# 5 0.0000 0.0000 0.0000 0.0000 16.0126 0.0000
# 6 0.0000 0.0000 0.0000 0.0000 0.0000 23.9714
#
#
#
# Elastic Compliance Matrix: (Units=1/GPa)
#
#
# Indices 1 2 3 4 5 6 
#
# 1 0.036686 -0.011108 -0.003427 0.000000 0.000000 0.000000
# 2 -0.011108 0.020581 -0.009236 0.000000 0.000000 0.000000
# 3 -0.003427 -0.009236 0.013435 0.000000 0.000000 0.000000
# 4 0.000000 0.000000 0.000000 0.057696 0.000000 0.000000
# 5 0.000000 0.000000 0.000000 0.000000 0.062451 0.000000
# 6 0.000000 0.000000 0.000000 0.000000 0.000000 0.041716
#
#
# Mechanical properties :
#
#
# Convention : Reuss Voigt Hill
#
# Bulk Modulus (GPa) = 43.17427 69.64793 56.41110
# Shear Modulus (GPa) = 17.37163 20.12272 18.74717
#
# Velocity S-wave (km/s) = 3.11525 3.35287 3.23624
# Velocity P-wave (km/s) = 6.08764 7.34155 6.74380
#
# Compressibility (1/GPa) = 0.02316194
#
# Stress axis : x y z
#
# Youngs Moduli (GPa) = 27.25827 48.58907 74.43164
#
# Poissons Ratio (x) = 0.53970 0.25506
# Poissons Ratio (y) = 0.30277 0.68743
# Poissons Ratio (z) = 0.09341 0.44876
#
# Static dielectric constant tensor:
#      x y z
#    x 3.024540 0.000000 0.000000 
#    y 0.000000 3.230940 0.000000 
#    z 0.000000 0.000000 3.708400 
# 
# 
# High freq. dielectric constant tensor:
#      x y z
#    x 1.660780 0.000000 0.000000 
#    y 0.000000 1.684680 0.000000 
#    z 0.000000 0.000000 1.708860 
# 
# From -- ./inp_files/63537.got.cif
#   From: 2010.06.25/outbox.cif.g09.slc.cpg/sg71_32_cif.got.tgz:63537.got - 2010.06.28 04:59:45.
