data_PCOD8288307
_publ_section_title
;
Structure prediction by ZEFSAII (Michael W. Deem and Ramdas Pophale) SiO2 
 PCOD8288307
Probable space group: I M M M
;
_chemical_formula_sum "Si O2"
_cell_formula_units_Z 88
_cell_length_a 18.612095
_cell_length_b 28.202327
_cell_length_c 9.473643
_cell_angle_alpha 90.000000
_cell_angle_beta 90.000000
_cell_angle_gamma 90.000000
_cell_volume 4972.756794
_symmetry_space_group_name_H-M "I M M M"
_symmetry_group_IT_number 71
_symmetry_cell_setting 'orthorhombic'
loop_
_space_group_symop_operation_xyz
x,y,z
-x,-y,z
x,-y,-z
-x,y,-z
-x,-y,-z
x,y,-z
-x,y,z
x,-y,z
1/2+x,1/2+y,1/2+z
1/2-x,1/2-y,1/2+z
1/2+x,1/2-y,1/2-z
1/2-x,1/2+y,1/2-z
1/2-x,1/2-y,1/2-z
1/2+x,1/2+y,1/2-z
1/2-x,1/2+y,1/2+z
1/2+x,1/2-y,1/2+z
loop_
_atom_site_type_symbol
_atom_site_label
_atom_site_fract_x
_atom_site_fract_y
_atom_site_fract_z
Si Si1 0.578513 0.206697 0.846792
Si Si2 0.079107 0.405443 0.658288
Si Si3 0.362521 0.444184 0.162788
Si Si4 0.203669 0.285970 0.837091
Si Si5 0.785200 0.395948 0.835402
Si Si6 0.000000 0.943607 0.838490
O O1 0.500000 0.229286 0.830065
O O2 0.573943 0.150585 0.842759
O O3 0.623367 0.225295 0.714611
O O4 0.611075 0.222179 0.000000
O O5 0.094009 0.424624 0.500000
O O6 0.146272 0.420183 0.757412
O O7 0.000000 0.424720 0.710448
O O8 0.352989 0.500000 0.181137
O O9 0.288601 0.420240 0.215483
O O10 0.428644 0.425024 0.257783
O O11 0.378617 0.430857 0.000000
O O12 0.250000 0.250000 0.750000
O O13 0.223432 0.340244 0.801251
O O14 0.211014 0.274218 0.000000
O O15 0.798746 0.404614 0.000000
O O16 0.000000 0.000000 0.834633
O O17 0.000000 0.924920 0.000000
#
# Coordination Sequence:
#
# PCOD8288307 Si02
#       6
#    16  16  16  16  16   8
#     4   8  14  26  44  64  85 110 144 185 226 266
#     4   8  14  25  42  65  91 119 151 185 223 267
#     4   9  17  31  51  72  95 123 155 192 235 282
#     4  10  19  30  45  65  91 120 152 188 226 272
#     4   9  18  30  46  70  94 118 153 193 231 273
#     4   9  17  29  47  73  99 121 151 191 233 279
#
# _framework density 17.696421999999998
#
# number of rings (size 3 to 8) (size 9 to 14) (size 15 to 20)
#    0.000    3.182    0.000    1.909    0.000    3.273 
#    0.000    3.636    2.000    0.545    0.000    3.818 
#    0.000    0.000    0.000    0.000    0.000    0.000 
#
# Total GULP energy -545149.848046 kJ/mol
# GULP energy per Si atom -12389.769274 kJ/mol
# Density = 1.765614 g / cm^3
# Si number density = 17.696422 Si / 1000 Ang^3
#
#
#
# Elastic Constant Matrix: (Units=GPa)
#
#
# Indices 1 2 3 4 5 6 
#
# 1 172.1113 32.6056 85.6657 0.0000 0.0001 0.0000
# 2 32.6056 22.7571 27.4192 0.0000 0.0000 0.0000
# 3 85.6657 27.4192 100.7700 0.0001 0.0000 -0.0001
# 4 0.0000 0.0000 0.0001 15.6466 0.0000 0.0000
# 5 0.0001 0.0000 0.0000 0.0000 39.3068 0.0000
# 6 0.0000 0.0000 -0.0001 0.0000 0.0000 18.9197
#
#
#
# Elastic Compliance Matrix: (Units=1/GPa)
#
#
# Indices 1 2 3 4 5 6 
#
# 1 0.010680 -0.006490 -0.007313 0.000000 0.000000 0.000000
# 2 -0.006490 0.069319 -0.013344 0.000000 0.000000 0.000000
# 3 -0.007313 -0.013344 0.019771 0.000000 0.000000 0.000000
# 4 0.000000 0.000000 0.000000 0.063912 0.000000 0.000000
# 5 0.000000 0.000000 0.000000 0.000000 0.025441 0.000000
# 6 0.000000 0.000000 0.000000 0.000000 0.000000 0.052855
#
#
# Mechanical properties :
#
#
# Convention : Reuss Voigt Hill
#
# Bulk Modulus (GPa) = 21.98983 65.22438 43.60711
# Shear Modulus (GPa) = 16.05493 24.77114 20.41304
#
# Velocity S-wave (km/s) = 3.01531 3.74543 3.40002
# Velocity P-wave (km/s) = 4.95741 7.45934 6.33315
#
# Compressibility (1/GPa) = 0.04547556
#
# Stress axis : x y z
#
# Youngs Moduli (GPa) = 93.63629 14.42600 50.57864
#
# Poissons Ratio (x) = 0.09363 0.36987
# Poissons Ratio (y) = 0.60774 0.67492
# Poissons Ratio (z) = 0.68475 0.19250
#
# Static dielectric constant tensor:
#      x y z
#    x 5.553820 0.000000 0.000000 
#    y 0.000000 2.884540 0.000000 
#    z 0.000000 0.000000 3.639960 
# 
# 
# High freq. dielectric constant tensor:
#      x y z
#    x 1.697680 0.000000 0.000000 
#    y 0.000000 1.631140 0.000000 
#    z 0.000000 0.000000 1.685480 
# 
# From -- ./inp_files/8769.got.cif
#   From: 2010.06.25/outbox.cif.g09.slc.cpg/sg71_5_cif.got.tgz:8769.got - 2010.06.28 04:59:45.
