data_PCOD8288868
_publ_section_title
;
Structure prediction by ZEFSAII (Michael W. Deem and Ramdas Pophale) SiO2 
 PCOD8288868
Probable space group: I M M M
;
_chemical_formula_sum "Si O2"
_cell_formula_units_Z 112
_cell_length_a 27.443165
_cell_length_b 15.078270
_cell_length_c 14.556141
_cell_angle_alpha 90.000000
_cell_angle_beta 90.000000
_cell_angle_gamma 90.000000
_cell_volume 6023.264938
_symmetry_space_group_name_H-M "I M M M"
_symmetry_group_IT_number 71
_symmetry_cell_setting 'orthorhombic'
loop_
_space_group_symop_operation_xyz
x,y,z
-x,-y,z
x,-y,-z
-x,y,-z
-x,-y,-z
x,y,-z
-x,y,z
x,-y,z
1/2+x,1/2+y,1/2+z
1/2-x,1/2-y,1/2+z
1/2+x,1/2-y,1/2-z
1/2-x,1/2+y,1/2-z
1/2-x,1/2-y,1/2-z
1/2+x,1/2+y,1/2-z
1/2-x,1/2+y,1/2+z
1/2+x,1/2-y,1/2+z
loop_
_atom_site_type_symbol
_atom_site_label
_atom_site_fract_x
_atom_site_fract_y
_atom_site_fract_z
Si Si1 0.444054 0.403820 0.754414
Si Si2 0.210933 0.898905 0.895444
Si Si3 0.446277 0.266116 0.605818
Si Si4 0.700453 0.898309 0.761819
Si Si5 0.387718 0.098306 0.105545
Si Si6 0.942667 0.768974 0.398627
Si Si7 0.158361 0.279763 0.105462
O O1 0.500000 0.416323 0.782794
O O2 0.417952 0.500000 0.754127
O O3 0.439961 0.360148 0.655044
O O4 0.418390 0.339545 0.829321
O O5 0.250688 0.875849 0.817696
O O6 0.168562 0.825748 0.881754
O O7 0.191368 0.000000 0.880481
O O8 0.232175 0.891132 0.000000
O O9 0.444829 0.290368 0.500000
O O10 0.500000 0.223511 0.631944
O O11 0.399447 0.203763 0.629295
O O12 0.658130 0.878423 0.833184
O O13 0.693051 0.837391 0.671698
O O14 0.700280 0.000000 0.728442
O O15 0.429279 0.169009 0.129781
O O16 0.408335 0.000000 0.126939
O O17 0.370990 0.105235 0.000000
O O18 0.923144 0.792199 0.500000
O O19 0.000000 0.774408 0.393004
O O20 0.169036 0.308452 0.000000
#
# Coordination Sequence:
#
# PCOD8288868 Si02
#       7
#    16  16  16  16  16  16  16
#     4   9  17  28  42  61  86 118 155 192 231 281
#     4   9  18  33  53  77 103 129 161 204 252 299
#     4   9  18  32  49  69  95 129 168 210 254 293
#     4  10  19  32  51  73  99 131 164 200 244 293
#     4   9  17  29  46  67  88 114 153 198 243 290
#     4   9  17  28  42  62  89 119 151 192 242 293
#     4  10  20  33  51  75 102 133 168 205 246 295
#
# _framework density 18.594564999999999
#
# number of rings (size 3 to 8) (size 9 to 14) (size 15 to 20)
#    0.000    2.714    0.000    1.714    0.000    3.429 
#    0.000    5.714    0.000    1.286    0.000    2.000 
#    0.000   11.429    0.000    0.143    0.000    0.286 
#
# Total GULP energy -693772.628587 kJ/mol
# GULP energy per Si atom -12388.796939 kJ/mol
# Density = 1.855224 g / cm^3
# Si number density = 18.594565 Si / 1000 Ang^3
#
#
#
# Elastic Constant Matrix: (Units=GPa)
#
#
# Indices 1 2 3 4 5 6 
#
# 1 56.5909 19.5117 30.2724 0.0000 0.0000 0.0000
# 2 19.5117 61.2574 31.5077 0.0000 0.0000 0.0000
# 3 30.2724 31.5077 73.7355 0.0000 0.0000 0.0000
# 4 0.0000 0.0000 0.0000 29.0309 0.0000 0.0000
# 5 0.0000 0.0000 0.0000 0.0000 19.7185 0.0000
# 6 0.0000 0.0000 0.0000 0.0000 0.0000 19.0350
#
#
#
# Elastic Compliance Matrix: (Units=1/GPa)
#
#
# Indices 1 2 3 4 5 6 
#
# 1 0.023117 -0.003181 -0.008132 0.000000 0.000000 0.000000
# 2 -0.003181 0.021361 -0.007822 0.000000 0.000000 0.000000
# 3 -0.008132 -0.007822 0.020243 0.000000 0.000000 0.000000
# 4 0.000000 0.000000 0.000000 0.034446 0.000000 0.000000
# 5 0.000000 0.000000 0.000000 0.000000 0.050714 0.000000
# 6 0.000000 0.000000 0.000000 0.000000 0.000000 0.052535
#
#
# Mechanical properties :
#
#
# Convention : Reuss Voigt Hill
#
# Bulk Modulus (GPa) = 37.80375 39.35195 38.57785
# Shear Modulus (GPa) = 20.03994 20.90967 20.47481
#
# Velocity S-wave (km/s) = 3.28644 3.35700 3.32191
# Velocity P-wave (km/s) = 5.89709 6.01955 5.95863
#
# Compressibility (1/GPa) = 0.02645240
#
# Stress axis : x y z
#
# Youngs Moduli (GPa) = 43.25758 46.81466 49.40026
#
# Poissons Ratio (x) = 0.14891 0.40171
# Poissons Ratio (y) = 0.13759 0.38640
# Poissons Ratio (z) = 0.35176 0.36617
#
# Static dielectric constant tensor:
#      x y z
#    x 3.354310 0.000000 0.000000 
#    y 0.000000 3.487540 0.000000 
#    z 0.000000 0.000000 3.601690 
# 
# 
# High freq. dielectric constant tensor:
#      x y z
#    x 1.698430 0.000000 0.000000 
#    y 0.000000 1.707050 0.000000 
#    z 0.000000 0.000000 1.729380 
# 
# From -- ./inp_files/35333.got.cif
#   From: 2010.06.25/outbox.cif.g09.slc.cpg/sg71_18_cif.got.tgz:35333.got - 2010.06.28 04:59:45.
