data_PCOD8288515
_publ_section_title
;
Structure prediction by ZEFSAII (Michael W. Deem and Ramdas Pophale) SiO2 
 PCOD8288515
Probable space group: I M M M
;
_chemical_formula_sum "Si O2"
_cell_formula_units_Z 88
_cell_length_a 20.138782
_cell_length_b 17.971134
_cell_length_c 13.995179
_cell_angle_alpha 90.000000
_cell_angle_beta 90.000000
_cell_angle_gamma 90.000000
_cell_volume 5065.089698
_symmetry_space_group_name_H-M "I M M M"
_symmetry_group_IT_number 71
_symmetry_cell_setting 'orthorhombic'
loop_
_space_group_symop_operation_xyz
x,y,z
-x,-y,z
x,-y,-z
-x,y,-z
-x,-y,-z
x,y,-z
-x,y,z
x,-y,z
1/2+x,1/2+y,1/2+z
1/2-x,1/2-y,1/2+z
1/2+x,1/2-y,1/2-z
1/2-x,1/2+y,1/2-z
1/2-x,1/2-y,1/2-z
1/2+x,1/2+y,1/2-z
1/2-x,1/2+y,1/2+z
1/2+x,1/2-y,1/2+z
loop_
_atom_site_type_symbol
_atom_site_label
_atom_site_fract_x
_atom_site_fract_y
_atom_site_fract_z
Si Si1 0.074404 0.000000 0.886632
Si Si2 0.135518 0.081253 0.608740
Si Si3 0.737536 0.084979 0.734508
Si Si4 0.668758 0.367076 0.613071
Si Si5 0.925638 0.768331 0.390331
Si Si6 0.174315 0.272098 0.231240
O O1 0.112511 0.074384 0.852205
O O2 0.000000 0.000000 0.843976
O O3 0.072086 0.000000 0.000000
O O4 0.160151 0.079182 0.500000
O O5 0.199186 0.103907 0.669726
O O6 0.078585 0.142337 0.623449
O O7 0.107776 0.000000 0.640092
O O8 0.761162 0.104672 0.842735
O O9 0.677662 0.140203 0.701417
O O10 0.713113 0.000000 0.725052
O O11 0.676851 0.364430 0.500000
O O12 0.647052 0.284575 0.650318
O O13 0.910313 0.746494 0.500000
O O14 0.871753 0.728409 0.324638
O O15 0.000000 0.743627 0.361700
O O16 0.250000 0.250000 0.250000
#
# Coordination Sequence:
#
# PCOD8288515 Si02
#       6
#     8  16  16  16  16  16
#     4   9  18  32  48  68  99 135 166 196 239 306
#     4   9  17  30  48  73 106 138 172 213 255 309
#     4  10  19  34  52  74 100 131 180 227 272 310
#     4  10  19  31  46  71 103 136 171 207 255 311
#     4  10  20  34  52  75 106 141 176 216 264 318
#     4  10  20  34  50  76 100 135 179 224 268 312
#
# _framework density 17.373829000000001
#
# number of rings (size 3 to 8) (size 9 to 14) (size 15 to 20)
#    0.000    2.273    4.545    0.000    0.000    4.727 
#    0.000    1.818    0.000    0.545    0.000    1.273 
#    0.000    0.000    0.000   10.727    0.000    0.000 
#
# Total GULP energy -545234.960256 kJ/mol
# GULP energy per Si atom -12391.703642 kJ/mol
# Density = 1.733429 g / cm^3
# Si number density = 17.373829 Si / 1000 Ang^3
#
#
#
# Elastic Constant Matrix: (Units=GPa)
#
#
# Indices 1 2 3 4 5 6 
#
# 1 71.4730 43.3363 23.5404 0.0000 0.0000 0.0000
# 2 43.3363 125.4626 25.1970 0.0000 0.0000 0.0000
# 3 23.5404 25.1970 50.8937 0.0000 0.0000 0.0000
# 4 0.0000 0.0000 0.0000 21.1850 0.0000 0.0000
# 5 0.0000 0.0000 0.0000 0.0000 21.7437 0.0000
# 6 0.0000 0.0000 0.0000 0.0000 0.0000 21.2650
#
#
#
# Elastic Compliance Matrix: (Units=1/GPa)
#
#
# Indices 1 2 3 4 5 6 
#
# 1 0.019342 -0.005423 -0.006261 0.000000 0.000000 0.000000
# 2 -0.005423 0.010371 -0.002626 0.000000 0.000000 0.000000
# 3 -0.006261 -0.002626 0.023845 0.000000 0.000000 0.000000
# 4 0.000000 0.000000 0.000000 0.047203 0.000000 0.000000
# 5 0.000000 0.000000 0.000000 0.000000 0.045990 0.000000
# 6 0.000000 0.000000 0.000000 0.000000 0.000000 0.047026
#
#
# Mechanical properties :
#
#
# Convention : Reuss Voigt Hill
#
# Bulk Modulus (GPa) = 40.10196 47.99742 44.04969
# Shear Modulus (GPa) = 21.67209 23.22245 22.44727
#
# Velocity S-wave (km/s) = 3.53568 3.65997 3.59836
# Velocity P-wave (km/s) = 6.30873 6.74883 6.53249
#
# Compressibility (1/GPa) = 0.02493644
#
# Stress axis : x y z
#
# Youngs Moduli (GPa) = 51.70110 96.42045 41.93733
#
# Poissons Ratio (x) = 0.52293 0.26258
# Poissons Ratio (y) = 0.28040 0.11013
# Poissons Ratio (z) = 0.32372 0.25321
#
# Static dielectric constant tensor:
#      x y z
#    x 3.032120 0.000000 0.000000 
#    y 0.000000 3.719880 0.000000 
#    z 0.000000 0.000000 3.266790 
# 
# 
# High freq. dielectric constant tensor:
#      x y z
#    x 1.627700 0.000000 0.000000 
#    y 0.000000 1.670690 0.000000 
#    z 0.000000 0.000000 1.673320 
# 
# From -- ./inp_files/36368.got.cif
#   From: 2010.06.25/outbox.cif.g09.slc.cpg/sg71_19_cif.got.tgz:36368.got - 2010.06.28 04:59:45.
