data_PCOD8288013
_publ_section_title
;
Structure prediction by ZEFSAII (Michael W. Deem and Ramdas Pophale) SiO2 
 PCOD8288013
Probable space group: I M M M
;
_chemical_formula_sum "Si O2"
_cell_formula_units_Z 88
_cell_length_a 19.640769
_cell_length_b 17.691149
_cell_length_c 13.218817
_cell_angle_alpha 90.000000
_cell_angle_beta 90.000000
_cell_angle_gamma 90.000000
_cell_volume 4593.112876
_symmetry_space_group_name_H-M "I M M M"
_symmetry_group_IT_number 71
_symmetry_cell_setting 'orthorhombic'
loop_
_space_group_symop_operation_xyz
x,y,z
-x,-y,z
x,-y,-z
-x,y,-z
-x,-y,-z
x,y,-z
-x,y,z
x,-y,z
1/2+x,1/2+y,1/2+z
1/2-x,1/2-y,1/2+z
1/2+x,1/2-y,1/2-z
1/2-x,1/2+y,1/2-z
1/2-x,1/2-y,1/2-z
1/2+x,1/2+y,1/2-z
1/2-x,1/2+y,1/2+z
1/2+x,1/2-y,1/2+z
loop_
_atom_site_type_symbol
_atom_site_label
_atom_site_fract_x
_atom_site_fract_y
_atom_site_fract_z
Si Si1 0.140939 0.680593 0.116992
Si Si2 0.500000 0.705015 0.119217
Si Si3 0.500000 0.799586 0.691605
Si Si4 0.742528 0.414468 0.213666
Si Si5 0.395386 0.417638 0.116355
Si Si6 0.000000 0.864269 0.884514
Si Si7 0.148006 0.859218 0.116654
O O1 0.067681 0.654110 0.161299
O O2 0.196087 0.640350 0.187388
O O3 0.151269 0.769552 0.130572
O O4 0.148123 0.655638 0.000000
O O5 0.500000 0.780310 0.187600
O O6 0.563377 0.654334 0.157899
O O7 0.500000 0.726774 0.000000
O O8 0.500000 0.726070 0.620541
O O9 0.769953 0.500000 0.213611
O O10 0.684349 0.401853 0.129801
O O11 0.709617 0.396763 0.322815
O O12 0.414829 0.500000 0.165089
O O13 0.414404 0.422172 0.000000
O O14 0.925940 0.891616 0.840519
O O15 0.000000 0.888981 0.000000
O O16 0.157072 0.881630 0.000000
#
# Coordination Sequence:
#
# PCOD8288013 Si02
#       7
#    16   8   8  16  16   8  16
#     4  10  20  36  58  80 101 130 172 224 278 324
#     4  10  19  30  48  75 106 137 170 208 247 301
#     4  10  18  33  55  75  98 127 169 222 274 323
#     4  11  22  34  50  75 109 143 174 214 264 315
#     4   9  17  29  45  68 102 142 175 202 242 300
#     4   8  14  28  52  79 104 135 177 223 261 293
#     4   9  18  33  54  79 108 143 182 220 258 307
#
# _framework density 19.159119
#
# number of rings (size 3 to 8) (size 9 to 14) (size 15 to 20)
#    0.000    2.364    0.000    5.455    0.000    2.545 
#    0.000    4.545    0.000    2.727    0.000    0.000 
#    0.000    3.636    0.000    0.000    0.000    0.000 
#
# Total GULP energy -545106.422585 kJ/mol
# GULP energy per Si atom -12388.782331 kJ/mol
# Density = 1.911551 g / cm^3
# Si number density = 19.159119 Si / 1000 Ang^3
#
#
#
# Elastic Constant Matrix: (Units=GPa)
#
#
# Indices 1 2 3 4 5 6 
#
# 1 128.3819 31.6806 38.8308 0.0000 0.0000 0.0000
# 2 31.6806 35.7193 24.0988 0.0000 0.0000 0.0000
# 3 38.8308 24.0988 95.7014 0.0000 0.0000 0.0000
# 4 0.0000 0.0000 0.0000 14.8099 0.0000 0.0000
# 5 0.0000 0.0000 0.0000 0.0000 40.9442 0.0000
# 6 0.0000 0.0000 0.0000 0.0000 0.0000 3.5881
#
#
#
# Elastic Compliance Matrix: (Units=1/GPa)
#
#
# Indices 1 2 3 4 5 6 
#
# 1 0.010368 -0.007659 -0.002278 0.000000 0.000000 0.000000
# 2 -0.007659 0.039383 -0.006810 0.000000 0.000000 0.000000
# 3 -0.002278 -0.006810 0.013088 0.000000 0.000000 0.000000
# 4 0.000000 0.000000 0.000000 0.067522 0.000000 0.000000
# 5 0.000000 0.000000 0.000000 0.000000 0.024423 0.000000
# 6 0.000000 0.000000 0.000000 0.000000 0.000000 0.278697
#
#
# Mechanical properties :
#
#
# Convention : Reuss Voigt Hill
#
# Bulk Modulus (GPa) = 34.07592 49.89145 41.98369
# Shear Modulus (GPa) = 10.48748 22.88127 16.68438
#
# Velocity S-wave (km/s) = 2.34217 3.45958 2.95419
# Velocity P-wave (km/s) = 5.01385 6.48501 5.79630
#
# Compressibility (1/GPa) = 0.02934624
#
# Stress axis : x y z
#
# Youngs Moduli (GPa) = 96.44738 25.39156 76.40387
#
# Poissons Ratio (x) = 0.19447 0.17408
# Poissons Ratio (y) = 0.73868 0.52028
# Poissons Ratio (z) = 0.21974 0.17291
#
# Static dielectric constant tensor:
#      x y z
#    x 3.668620 0.000000 0.000000 
#    y 0.000000 3.138770 0.000000 
#    z 0.000000 0.000000 3.493480 
# 
# 
# High freq. dielectric constant tensor:
#      x y z
#    x 1.744290 0.000000 0.000000 
#    y 0.000000 1.700280 0.000000 
#    z 0.000000 0.000000 1.755210 
# 
# From -- ./inp_files/36448.got.cif
#   From: 2010.06.25/outbox.cif.g09.slc.cpg/sg71_19_cif.got.tgz:36448.got - 2010.06.28 04:59:45.
