data_PCOD8288922
_publ_section_title
;
Structure prediction by ZEFSAII (Michael W. Deem and Ramdas Pophale) SiO2 
 PCOD8288922
Probable space group: I M M M
;
_chemical_formula_sum "Si O2"
_cell_formula_units_Z 80
_cell_length_a 23.343471
_cell_length_b 8.561429
_cell_length_c 20.627656
_cell_angle_alpha 90.000000
_cell_angle_beta 90.000000
_cell_angle_gamma 90.000000
_cell_volume 4122.508621
_symmetry_space_group_name_H-M "I M M M"
_symmetry_group_IT_number 71
_symmetry_cell_setting 'orthorhombic'
loop_
_space_group_symop_operation_xyz
x,y,z
-x,-y,z
x,-y,-z
-x,y,-z
-x,-y,-z
x,y,-z
-x,y,z
x,-y,z
1/2+x,1/2+y,1/2+z
1/2-x,1/2-y,1/2+z
1/2+x,1/2-y,1/2-z
1/2-x,1/2+y,1/2-z
1/2-x,1/2-y,1/2-z
1/2+x,1/2+y,1/2-z
1/2-x,1/2+y,1/2+z
1/2+x,1/2-y,1/2+z
loop_
_atom_site_type_symbol
_atom_site_label
_atom_site_fract_x
_atom_site_fract_y
_atom_site_fract_z
Si Si1 0.630078 0.185984 0.875711
Si Si2 0.934681 0.684869 0.750593
Si Si3 0.936337 0.313700 0.500000
Si Si4 0.063499 0.814331 0.000000
Si Si5 0.371019 0.315014 0.374010
Si Si6 0.750239 0.814537 0.926114
O O1 0.600185 0.253489 0.811038
O O2 0.594792 0.251139 0.936523
O O3 0.695308 0.245759 0.885376
O O4 0.628942 0.000000 0.873923
O O5 0.937843 0.500000 0.746050
O O6 0.898557 0.732483 0.812755
O O7 0.000000 0.752049 0.752496
O O8 0.935815 0.500000 0.500000
O O9 0.000000 0.246360 0.500000
O O10 0.095087 0.753004 0.936421
O O11 0.000000 0.744275 0.000000
O O12 0.063266 0.000000 0.000000
O O13 0.376293 0.500000 0.365266
O O14 0.305459 0.261154 0.384793
O O15 0.749416 0.000000 0.932172
O O16 0.750874 0.746936 0.000000
#
# Coordination Sequence:
#
# PCOD8288922 Si02
#       6
#    16  16   8   8  16  16
#     4   9  16  27  45  69  99 132 162 199 248 292
#     4  10  21  35  48  69 105 139 163 195 244 298
#     4   9  14  21  39  67  95 127 168 205 238 284
#     4   9  16  27  46  70  91 115 156 206 244 273
#     4  10  19  32  52  75  97 126 166 208 248 290
#     4   9  15  27  48  74  99 122 158 210 255 288
#
# _framework density 19.405659
#
# number of rings (size 3 to 8) (size 9 to 14) (size 15 to 20)
#    0.000    2.600    2.000    1.200    0.000    4.400 
#    0.000    0.500    0.000    1.800    0.000    0.700 
#    0.000    2.400    0.000    0.000    0.000    0.000 
#
# Total GULP energy -495811.394052 kJ/mol
# GULP energy per Si atom -12395.284851 kJ/mol
# Density = 1.936149 g / cm^3
# Si number density = 19.405659 Si / 1000 Ang^3
#
#
#
# Elastic Constant Matrix: (Units=GPa)
#
#
# Indices 1 2 3 4 5 6 
#
# 1 218.3837 7.9176 105.6379 0.0000 0.0000 0.0000
# 2 7.9176 4.7885 6.4187 0.0000 0.0000 0.0000
# 3 105.6379 6.4187 183.4022 0.0000 0.0000 0.0000
# 4 0.0000 0.0000 0.0000 8.3166 0.0000 0.0000
# 5 0.0000 0.0000 0.0000 0.0000 41.8393 0.0000
# 6 0.0000 0.0000 0.0000 0.0000 0.0000 12.9815
#
#
#
# Elastic Compliance Matrix: (Units=1/GPa)
#
#
# Indices 1 2 3 4 5 6 
#
# 1 0.006509 -0.006019 -0.003538 0.000000 0.000000 0.000000
# 2 -0.006019 0.224681 -0.004396 0.000000 0.000000 0.000000
# 3 -0.003538 -0.004396 0.007644 0.000000 0.000000 0.000000
# 4 0.000000 0.000000 0.000000 0.120242 0.000000 0.000000
# 5 0.000000 0.000000 0.000000 0.000000 0.023901 0.000000
# 6 0.000000 0.000000 0.000000 0.000000 0.000000 0.077032
#
#
# Mechanical properties :
#
#
# Convention : Reuss Voigt Hill
#
# Bulk Modulus (GPa) = 4.74099 71.83586 38.28842
# Shear Modulus (GPa) = 8.95694 31.73417 20.34555
#
# Velocity S-wave (km/s) = 2.15073 4.04828 3.24147
# Velocity P-wave (km/s) = 2.93529 7.67787 5.81230
#
# Compressibility (1/GPa) = 0.21092657
#
# Stress axis : x y z
#
# Youngs Moduli (GPa) = 153.63420 4.45075 130.81364
#
# Poissons Ratio (x) = 0.02679 0.46288
# Poissons Ratio (y) = 0.92478 0.57509
# Poissons Ratio (z) = 0.54363 0.01957
#
# Static dielectric constant tensor:
#      x y z
#    x 4.003580 0.000000 0.000000 
#    y 0.000000 2.792610 0.000000 
#    z 0.000000 0.000000 3.698430 
# 
# 
# High freq. dielectric constant tensor:
#      x y z
#    x 1.779030 0.000000 0.000000 
#    y 0.000000 1.679720 0.000000 
#    z 0.000000 0.000000 1.763790 
# 
# From -- ./inp_files/12395.got.cif
#   From: 2010.06.25/outbox.cif.g09.slc.cpg/sg71_7_cif.got.tgz:12395.got - 2010.06.28 04:59:45.
