data_PCOD8288624
_publ_section_title
;
Structure prediction by ZEFSAII (Michael W. Deem and Ramdas Pophale) SiO2 
 PCOD8288624
Probable space group: I M M M
;
_chemical_formula_sum "Si O2"
_cell_formula_units_Z 80
_cell_length_a 12.628961
_cell_length_b 29.135063
_cell_length_c 12.628898
_cell_angle_alpha 90.000000
_cell_angle_beta 90.000000
_cell_angle_gamma 90.000000
_cell_volume 4646.747128
_symmetry_space_group_name_H-M "I M M M"
_symmetry_group_IT_number 71
_symmetry_cell_setting 'orthorhombic'
loop_
_space_group_symop_operation_xyz
x,y,z
-x,-y,z
x,-y,-z
-x,y,-z
-x,-y,-z
x,y,-z
-x,y,z
x,-y,z
1/2+x,1/2+y,1/2+z
1/2-x,1/2-y,1/2+z
1/2+x,1/2-y,1/2-z
1/2-x,1/2+y,1/2-z
1/2-x,1/2-y,1/2-z
1/2+x,1/2+y,1/2-z
1/2-x,1/2+y,1/2+z
1/2+x,1/2-y,1/2+z
loop_
_atom_site_type_symbol
_atom_site_label
_atom_site_fract_x
_atom_site_fract_y
_atom_site_fract_z
Si Si1 0.291578 0.894776 0.875465
Si Si2 0.500000 0.948451 0.125502
Si Si3 0.625501 0.448451 0.000000
Si Si4 0.625226 0.700601 0.883176
Si Si5 0.375466 0.394777 0.791577
Si Si6 0.616824 0.200601 0.874774
O O1 0.394662 0.922462 0.835925
O O2 0.189485 0.912645 0.810515
O O3 0.306955 0.841333 0.845211
O O4 0.270179 0.902259 0.000000
O O5 0.500000 0.000000 0.171732
O O6 0.500000 0.948854 0.000000
O O7 0.664074 0.422462 0.894662
O O8 0.671731 0.500000 0.000000
O O9 0.500000 0.448854 0.000000
O O10 0.500000 0.703405 0.895333
O O11 0.654787 0.658667 0.806954
O O12 0.664074 0.750000 0.835926
O O13 0.674569 0.691648 0.000000
O O14 0.500000 0.402259 0.770177
O O15 0.500000 0.191649 0.825430
O O16 0.604667 0.203404 0.000000
#
# Coordination Sequence:
#
# PCOD8288624 Si02
#       6
#    16   8   8  16  16  16
#     4  10  19  31  49  74 103 131 162 201 246 298
#     4   9  18  34  54  71  91 123 167 210 239 279
#     4   9  18  34  54  71  91 123 167 210 239 279
#     4   8  13  24  44  69  96 126 164 209 248 282
#     4  10  19  31  49  74 103 131 162 201 246 298
#     4   8  13  24  44  69  96 126 164 209 248 282
#
# _framework density 17.216345
#
# number of rings (size 3 to 8) (size 9 to 14) (size 15 to 20)
#    0.000    3.000    2.000    1.200    0.000    2.000 
#    0.000    0.000    0.000    0.600    0.000    7.000 
#    0.000    0.000    0.000    0.000    0.000    0.000 
#
# Total GULP energy -495580.519612 kJ/mol
# GULP energy per Si atom -12389.512990 kJ/mol
# Density = 1.717716 g / cm^3
# Si number density = 17.216345 Si / 1000 Ang^3
#
#
#
# Elastic Constant Matrix: (Units=GPa)
#
#
# Indices 1 2 3 4 5 6 
#
# 1 73.0035 35.0274 51.9150 -0.0001 0.0000 0.0000
# 2 35.0274 117.4546 35.0243 -0.0012 0.0003 0.0002
# 3 51.9150 35.0243 72.9957 -0.0032 0.0018 0.0009
# 4 -0.0001 -0.0012 -0.0032 7.9338 0.0007 0.0004
# 5 0.0000 0.0003 0.0018 0.0007 23.9155 -0.0001
# 6 0.0000 0.0002 0.0009 0.0004 -0.0001 7.9361
#
#
#
# Elastic Compliance Matrix: (Units=1/GPa)
#
#
# Indices 1 2 3 4 5 6 
#
# 1 0.028519 -0.002867 -0.018907 -0.000008 0.000001 0.000002
# 2 -0.002867 0.010224 -0.002866 0.000000 0.000000 0.000000
# 3 -0.018907 -0.002866 0.028522 0.000011 -0.000002 -0.000003
# 4 -0.000008 0.000000 0.000011 0.126043 -0.000004 -0.000006
# 5 0.000001 0.000000 -0.000002 -0.000004 0.041814 0.000000
# 6 0.000002 0.000000 -0.000003 -0.000006 0.000000 0.126007
#
#
# Mechanical properties :
#
#
# Convention : Reuss Voigt Hill
#
# Bulk Modulus (GPa) = 55.60781 56.37634 55.99207
# Shear Modulus (GPa) = 12.00756 17.38955 14.69856
#
# Velocity S-wave (km/s) = 2.64380 3.18159 2.92508
# Velocity P-wave (km/s) = 6.45671 6.80541 6.63335
#
# Compressibility (1/GPa) = 0.01798309
#
# Stress axis : x y z
#
# Youngs Moduli (GPa) = 35.06410 97.81220 35.06080
#
# Poissons Ratio (x) = 0.28042 0.66291
# Poissons Ratio (y) = 0.10053 0.10050
# Poissons Ratio (z) = 0.66297 0.28038
#
# Static dielectric constant tensor:
#      x y z
#    x 2.845960 0.000000 0.000000 
#    y 0.000000 3.714800 0.000000 
#    z 0.000000 0.000000 2.845940 
# 
# 
# High freq. dielectric constant tensor:
#      x y z
#    x 1.627750 0.000000 0.000000 
#    y 0.000000 1.679300 0.000000 
#    z 0.000000 0.000000 1.627740 
# 
# From -- ./inp_files/20165.got.cif
#   From: 2010.06.25/outbox.cif.g09.slc.cpg/sg71_11_cif.got.tgz:20165.got - 2010.06.28 04:59:45.
