data_PCOD8288393
_publ_section_title
;
Structure prediction by ZEFSAII (Michael W. Deem and Ramdas Pophale) SiO2 
 PCOD8288393
Probable space group: I M M M
;
_chemical_formula_sum "Si O2"
_cell_formula_units_Z 128
_cell_length_a 16.747986
_cell_length_b 18.522949
_cell_length_c 23.110864
_cell_angle_alpha 90.000000
_cell_angle_beta 90.000000
_cell_angle_gamma 90.000000
_cell_volume 7169.500544
_symmetry_space_group_name_H-M "I M M M"
_symmetry_group_IT_number 71
_symmetry_cell_setting 'orthorhombic'
loop_
_space_group_symop_operation_xyz
x,y,z
-x,-y,z
x,-y,-z
-x,y,-z
-x,-y,-z
x,y,-z
-x,y,z
x,-y,z
1/2+x,1/2+y,1/2+z
1/2-x,1/2-y,1/2+z
1/2+x,1/2-y,1/2-z
1/2-x,1/2+y,1/2-z
1/2-x,1/2-y,1/2-z
1/2+x,1/2+y,1/2-z
1/2-x,1/2+y,1/2+z
1/2+x,1/2-y,1/2+z
loop_
_atom_site_type_symbol
_atom_site_label
_atom_site_fract_x
_atom_site_fract_y
_atom_site_fract_z
Si Si1 0.676691 0.825778 0.773010
Si Si2 0.699459 0.081511 0.564263
Si Si3 0.735665 0.915378 0.063174
Si Si4 0.908642 0.287828 0.065974
Si Si5 0.777884 0.914485 0.317010
Si Si6 0.910666 0.415951 0.637122
Si Si7 0.326224 0.676161 0.352153
Si Si8 0.092439 0.174474 0.742370
O O1 0.709840 0.872261 0.719121
O O2 0.612103 0.875441 0.804416
O O3 0.748511 0.800643 0.814954
O O4 0.630597 0.754157 0.754323
O O5 0.738340 0.093889 0.500000
O O6 0.620935 0.130150 0.571022
O O7 0.764006 0.098094 0.614447
O O8 0.668415 0.000000 0.570814
O O9 0.648097 0.892264 0.085521
O O10 0.804859 0.889625 0.105857
O O11 0.743464 0.000000 0.059125
O O12 0.746695 0.879982 0.000000
O O13 0.854144 0.242173 0.108871
O O14 0.000000 0.284045 0.086536
O O15 0.899997 0.259455 0.000000
O O16 0.863909 0.879460 0.302273
O O17 0.777495 0.000000 0.301355
O O18 0.902143 0.500000 0.650695
O O19 0.000000 0.395138 0.617909
O O20 0.394704 0.646809 0.308457
O O21 0.000000 0.176694 0.725054
#
# Coordination Sequence:
#
# PCOD8288393 Si02
#       8
#    16  16  16  16  16  16  16  16
#     4  10  19  33  52  73  98 132 168 202 243 293
#     4   9  18  33  53  75  98 127 162 199 241 290
#     4   9  18  32  50  71  95 128 168 205 242 286
#     4  10  19  30  47  71  99 129 159 196 240 284
#     4  10  20  35  54  75 100 130 167 207 245 294
#     4   9  17  29  47  73 104 133 161 200 247 291
#     4  10  19  32  50  71  96 128 166 203 239 286
#     4  11  22  34  52  76 102 132 163 204 255 300
#
# _framework density 17.853407000000001
#
# number of rings (size 3 to 8) (size 9 to 14) (size 15 to 20)
#    0.000    2.250    0.000    4.500    0.000    3.750 
#    0.000    3.125    0.000    3.000    0.000    6.125 
#    0.000    0.000    0.000    0.000    0.000    0.000 
#
# Total GULP energy -793304.673925 kJ/mol
# GULP energy per Si atom -12395.385530 kJ/mol
# Density = 1.781277 g / cm^3
# Si number density = 17.853407 Si / 1000 Ang^3
#
#
#
# Elastic Constant Matrix: (Units=GPa)
#
#
# Indices 1 2 3 4 5 6 
#
# 1 90.1566 46.7815 48.9016 0.0000 0.0000 0.0000
# 2 46.7815 67.6882 46.8231 0.0000 0.0000 0.0000
# 3 48.9016 46.8231 124.2705 0.0000 0.0000 0.0000
# 4 0.0000 0.0000 0.0000 26.8390 0.0000 0.0000
# 5 0.0000 0.0000 0.0000 0.0000 19.0705 0.0000
# 6 0.0000 0.0000 0.0000 0.0000 0.0000 21.5360
#
#
#
# Elastic Compliance Matrix: (Units=1/GPa)
#
#
# Indices 1 2 3 4 5 6 
#
# 1 0.018233 -0.010331 -0.003282 0.000000 0.000000 0.000000
# 2 -0.010331 0.025835 -0.005669 0.000000 0.000000 0.000000
# 3 -0.003282 -0.005669 0.011475 0.000000 0.000000 0.000000
# 4 0.000000 0.000000 0.000000 0.037259 0.000000 0.000000
# 5 0.000000 0.000000 0.000000 0.000000 0.052437 0.000000
# 6 0.000000 0.000000 0.000000 0.000000 0.000000 0.046434
#
#
# Mechanical properties :
#
#
# Convention : Reuss Voigt Hill
#
# Bulk Modulus (GPa) = 58.89869 63.01419 60.95644
# Shear Modulus (GPa) = 21.19582 22.79637 21.99610
#
# Velocity S-wave (km/s) = 3.44934 3.57720 3.51385
# Velocity P-wave (km/s) = 6.99469 7.24112 7.11897
#
# Compressibility (1/GPa) = 0.01697831
#
# Stress axis : x y z
#
# Youngs Moduli (GPa) = 54.84667 38.70721 87.14930
#
# Poissons Ratio (x) = 0.39987 0.28605
# Poissons Ratio (y) = 0.56660 0.49405
# Poissons Ratio (z) = 0.18002 0.21943
#
# Static dielectric constant tensor:
#      x y z
#    x 3.225730 0.000000 0.000000 
#    y 0.000000 3.300930 0.000000 
#    z 0.000000 0.000000 3.633770 
# 
# 
# High freq. dielectric constant tensor:
#      x y z
#    x 1.672640 0.000000 0.000000 
#    y 0.000000 1.689690 0.000000 
#    z 0.000000 0.000000 1.701730 
# 
# From -- ./inp_files/60903.got.cif
#   From: 2010.06.25/outbox.cif.g09.slc.cpg/sg71_31_cif.got.tgz:60903.got - 2010.06.28 04:59:45.
