data_PCOD8288127
_publ_section_title
;
Structure prediction by ZEFSAII (Michael W. Deem and Ramdas Pophale) SiO2 
 PCOD8288127
Probable space group: I M M M
;
_chemical_formula_sum "Si O2"
_cell_formula_units_Z 112
_cell_length_a 17.328364
_cell_length_b 18.203245
_cell_length_c 22.038090
_cell_angle_alpha 90.000000
_cell_angle_beta 90.000000
_cell_angle_gamma 90.000000
_cell_volume 6951.528840
_symmetry_space_group_name_H-M "I M M M"
_symmetry_group_IT_number 71
_symmetry_cell_setting 'orthorhombic'
loop_
_space_group_symop_operation_xyz
x,y,z
-x,-y,z
x,-y,-z
-x,y,-z
-x,-y,-z
x,y,-z
-x,y,z
x,-y,z
1/2+x,1/2+y,1/2+z
1/2-x,1/2-y,1/2+z
1/2+x,1/2-y,1/2-z
1/2-x,1/2+y,1/2-z
1/2-x,1/2-y,1/2-z
1/2+x,1/2+y,1/2-z
1/2-x,1/2+y,1/2+z
1/2+x,1/2-y,1/2+z
loop_
_atom_site_type_symbol
_atom_site_label
_atom_site_fract_x
_atom_site_fract_y
_atom_site_fract_z
Si Si1 0.413227 0.813630 0.067087
Si Si2 0.910648 0.420746 0.666315
Si Si3 0.298503 0.584196 0.834940
Si Si4 0.678124 0.840561 0.742937
Si Si5 0.190867 0.794735 0.831766
Si Si6 0.909090 0.085776 0.773748
Si Si7 0.724614 0.290090 0.069379
O O1 0.500000 0.791241 0.087703
O O2 0.376237 0.875198 0.110263
O O3 0.361146 0.741924 0.069440
O O4 0.414073 0.847857 0.000000
O O5 0.868865 0.500000 0.667026
O O6 0.896950 0.379056 0.729521
O O7 0.000000 0.431803 0.656517
O O8 0.302474 0.500000 0.856613
O O9 0.223955 0.597239 0.793549
O O10 0.373172 0.604168 0.792860
O O11 0.287656 0.634233 0.894247
O O12 0.728678 0.810042 0.798585
O O13 0.649225 0.773697 0.701444
O O14 0.132977 0.864751 0.826301
O O15 0.213420 0.766625 0.899672
O O16 0.000000 0.104020 0.772354
O O17 0.894604 0.000000 0.789647
O O18 0.752496 0.304941 0.000000
#
# Coordination Sequence:
#
# PCOD8288127 Si02
#       7
#    16  16  16  16  16  16  16
#     4   9  18  31  44  60  88 127 161 188 221 261
#     4  10  19  28  42  65  90 118 150 186 226 269
#     4   9  18  31  48  69  95 126 153 188 237 284
#     4   9  16  29  45  66  91 118 149 189 233 282
#     4   9  17  30  47  68  90 120 156 193 238 278
#     4   9  18  31  49  74 100 125 155 196 245 292
#     4  10  19  32  48  68  95 125 164 201 226 269
#
# _framework density 16.111564000000001
#
# number of rings (size 3 to 8) (size 9 to 14) (size 15 to 20)
#    0.000    2.714    1.429    1.286    0.000    2.286 
#    0.000    1.429    0.000    0.857    0.000    5.000 
#    0.000    0.000    0.000   15.143    0.000    0.143 
#
# Total GULP energy -693844.057940 kJ/mol
# GULP energy per Si atom -12390.072463 kJ/mol
# Density = 1.607489 g / cm^3
# Si number density = 16.111564 Si / 1000 Ang^3
#
#
#
# Elastic Constant Matrix: (Units=GPa)
#
#
# Indices 1 2 3 4 5 6 
#
# 1 43.2385 32.4955 32.3685 0.0000 0.0000 0.0000
# 2 32.4955 94.2364 53.0864 0.0000 0.0000 0.0000
# 3 32.3685 53.0864 107.9030 0.0000 0.0000 0.0000
# 4 0.0000 0.0000 0.0000 21.4847 0.0000 0.0000
# 5 0.0000 0.0000 0.0000 0.0000 20.8114 0.0000
# 6 0.0000 0.0000 0.0000 0.0000 0.0000 22.2288
#
#
#
# Elastic Compliance Matrix: (Units=1/GPa)
#
#
# Indices 1 2 3 4 5 6 
#
# 1 0.033901 -0.008247 -0.006112 0.000000 0.000000 0.000000
# 2 -0.008247 0.016686 -0.005736 0.000000 0.000000 0.000000
# 3 -0.006112 -0.005736 0.013923 0.000000 0.000000 0.000000
# 4 0.000000 0.000000 0.000000 0.046545 0.000000 0.000000
# 5 0.000000 0.000000 0.000000 0.000000 0.048051 0.000000
# 6 0.000000 0.000000 0.000000 0.000000 0.000000 0.044987
#
#
# Mechanical properties :
#
#
# Convention : Reuss Voigt Hill
#
# Bulk Modulus (GPa) = 41.11666 53.47543 47.29605
# Shear Modulus (GPa) = 19.81071 21.40014 20.60543
#
# Velocity S-wave (km/s) = 3.51036 3.64847 3.58008
# Velocity P-wave (km/s) = 6.48117 7.14221 6.81971
#
# Compressibility (1/GPa) = 0.02432104
#
# Stress axis : x y z
#
# Youngs Moduli (GPa) = 29.49759 59.92902 71.82404
#
# Poissons Ratio (x) = 0.49423 0.43901
# Poissons Ratio (y) = 0.24326 0.41195
# Poissons Ratio (z) = 0.18030 0.34373
#
# Static dielectric constant tensor:
#      x y z
#    x 2.863160 0.000000 0.000000 
#    y 0.000000 3.269500 0.000000 
#    z 0.000000 0.000000 3.032290 
# 
# 
# High freq. dielectric constant tensor:
#      x y z
#    x 1.595820 0.000000 0.000000 
#    y 0.000000 1.626590 0.000000 
#    z 0.000000 0.000000 1.600840 
# 
# From -- ./inp_files/46388.got.cif
#   From: 2010.06.25/outbox.cif.g09.slc.cpg/sg71_24_cif.got.tgz:46388.got - 2010.06.28 04:59:45.
