data_PCOD8288221
_publ_section_title
;
Structure prediction by ZEFSAII (Michael W. Deem and Ramdas Pophale) SiO2 
 PCOD8288221
Probable space group: I M M M
;
_chemical_formula_sum "Si O2"
_cell_formula_units_Z 128
_cell_length_a 17.692601
_cell_length_b 24.036190
_cell_length_c 18.176364
_cell_angle_alpha 90.000000
_cell_angle_beta 90.000000
_cell_angle_gamma 90.000000
_cell_volume 7729.729980
_symmetry_space_group_name_H-M "I M M M"
_symmetry_group_IT_number 71
_symmetry_cell_setting 'orthorhombic'
loop_
_space_group_symop_operation_xyz
x,y,z
-x,-y,z
x,-y,-z
-x,y,-z
-x,-y,-z
x,y,-z
-x,y,z
x,-y,z
1/2+x,1/2+y,1/2+z
1/2-x,1/2-y,1/2+z
1/2+x,1/2-y,1/2-z
1/2-x,1/2+y,1/2-z
1/2-x,1/2-y,1/2-z
1/2+x,1/2+y,1/2-z
1/2-x,1/2+y,1/2+z
1/2+x,1/2-y,1/2+z
loop_
_atom_site_type_symbol
_atom_site_label
_atom_site_fract_x
_atom_site_fract_y
_atom_site_fract_z
Si Si1 0.312170 0.362454 0.647620
Si Si2 0.820528 0.565437 0.415146
Si Si3 0.083756 0.226965 0.083813
Si Si4 0.586825 0.877070 0.790790
Si Si5 0.832792 0.663964 0.081367
Si Si6 0.587123 0.559940 0.580872
Si Si7 0.722142 0.188487 0.267112
Si Si8 0.413713 0.937732 0.640437
O O1 0.253371 0.395520 0.595233
O O2 0.343333 0.302671 0.620285
O O3 0.385808 0.401268 0.647386
O O4 0.278812 0.355389 0.728773
O O5 0.845965 0.570134 0.500000
O O6 0.806307 0.500000 0.394889
O O7 0.886557 0.591852 0.364870
O O8 0.097958 0.292894 0.091301
O O9 0.000000 0.214055 0.118386
O O10 0.081617 0.207575 0.000000
O O11 0.500000 0.856866 0.800873
O O12 0.638734 0.823412 0.768145
O O13 0.594260 0.921509 0.725630
O O14 0.772349 0.676555 0.145772
O O15 0.864770 0.601989 0.088447
O O16 0.795551 0.670635 0.000000
O O17 0.603990 0.586380 0.500000
O O18 0.500000 0.551280 0.592355
O O19 0.627745 0.500000 0.585498
O O20 0.750000 0.250000 0.250000
O O21 0.500000 0.934055 0.614510
O O22 0.382185 0.000000 0.630771
#
# Coordination Sequence:
#
# PCOD8288221 Si02
#       8
#    16  16  16  16  16  16  16  16
#     4  11  19  30  48  66  98 132 169 205 239 291
#     4  10  20  31  46  70  99 134 175 215 251 287
#     4  10  19  29  45  71 100 128 159 198 243 294
#     4   9  19  34  52  70  95 130 167 210 255 293
#     4  10  20  34  50  68  95 126 157 197 246 293
#     4   9  17  29  46  72 108 142 166 193 236 294
#     4  10  20  37  50  71  97 125 164 203 246 299
#     4   9  17  30  49  71  95 124 157 192 236 294
#
# _framework density 16.559441
#
# number of rings (size 3 to 8) (size 9 to 14) (size 15 to 20)
#    0.000    2.250    1.250    3.000    0.000    4.500 
#    0.000    1.875    0.000    0.000    0.000    0.000 
#    0.000    3.000    0.000    1.375    0.000    0.000 
#
# Total GULP energy -792862.001259 kJ/mol
# GULP energy per Si atom -12388.468770 kJ/mol
# Density = 1.652175 g / cm^3
# Si number density = 16.559441 Si / 1000 Ang^3
#
#
#
# Elastic Constant Matrix: (Units=GPa)
#
#
# Indices 1 2 3 4 5 6 
#
# 1 72.5875 43.7274 43.8380 0.0001 0.0000 0.0000
# 2 43.7274 110.6258 39.6298 0.0007 0.0001 0.0000
# 3 43.8380 39.6298 110.9681 0.0013 0.0002 0.0001
# 4 0.0001 0.0007 0.0013 14.4633 0.0002 0.0001
# 5 0.0000 0.0001 0.0002 0.0002 21.2376 0.0000
# 6 0.0000 0.0000 0.0001 0.0001 0.0000 25.8111
#
#
#
# Elastic Compliance Matrix: (Units=1/GPa)
#
#
# Indices 1 2 3 4 5 6 
#
# 1 0.021231 -0.006178 -0.006181 0.000001 0.000000 0.000000
# 2 -0.006178 0.012163 -0.001903 0.000000 0.000000 0.000000
# 3 -0.006181 -0.001903 0.012133 -0.000001 0.000000 0.000000
# 4 0.000001 0.000000 -0.000001 0.069140 0.000000 0.000000
# 5 0.000000 0.000000 0.000000 0.000000 0.047086 0.000000
# 6 0.000000 0.000000 0.000000 0.000000 0.000000 0.038743
#
#
# Mechanical properties :
#
#
# Convention : Reuss Voigt Hill
#
# Bulk Modulus (GPa) = 58.81284 60.95244 59.88264
# Shear Modulus (GPa) = 21.30480 23.43481 22.36980
#
# Velocity S-wave (km/s) = 3.59076 3.76599 3.67942
# Velocity P-wave (km/s) = 7.26531 7.46983 7.36828
#
# Compressibility (1/GPa) = 0.01700309
#
# Stress axis : x y z
#
# Youngs Moduli (GPa) = 47.10098 82.21506 82.41879
#
# Poissons Ratio (x) = 0.50791 0.50944
# Poissons Ratio (y) = 0.29098 0.15687
# Poissons Ratio (z) = 0.29113 0.15648
#
# Static dielectric constant tensor:
#      x y z
#    x 3.112900 0.000000 0.000000 
#    y 0.000000 3.322160 0.000000 
#    z 0.000000 0.000000 3.117650 
# 
# 
# High freq. dielectric constant tensor:
#      x y z
#    x 1.618350 0.000000 0.000000 
#    y 0.000000 1.649540 0.000000 
#    z 0.000000 0.000000 1.619730 
# 
# From -- ./inp_files/46647.got.cif
#   From: 2010.06.25/outbox.cif.g09.slc.cpg/sg71_24_cif.got.tgz:46647.got - 2010.06.28 04:59:45.
