data_PCOD8288339
_publ_section_title
;
Structure prediction by ZEFSAII (Michael W. Deem and Ramdas Pophale) SiO2 
 PCOD8288339
Probable space group: I M M M
;
_chemical_formula_sum "Si O2"
_cell_formula_units_Z 120
_cell_length_a 8.055714
_cell_length_b 28.133762
_cell_length_c 28.444136
_cell_angle_alpha 90.000000
_cell_angle_beta 90.000000
_cell_angle_gamma 90.000000
_cell_volume 6446.509022
_symmetry_space_group_name_H-M "I M M M"
_symmetry_group_IT_number 71
_symmetry_cell_setting 'orthorhombic'
loop_
_space_group_symop_operation_xyz
x,y,z
-x,-y,z
x,-y,-z
-x,y,-z
-x,-y,-z
x,y,-z
-x,y,z
x,-y,z
1/2+x,1/2+y,1/2+z
1/2-x,1/2-y,1/2+z
1/2+x,1/2-y,1/2-z
1/2-x,1/2+y,1/2-z
1/2-x,1/2-y,1/2-z
1/2+x,1/2+y,1/2-z
1/2-x,1/2+y,1/2+z
1/2+x,1/2-y,1/2+z
loop_
_atom_site_type_symbol
_atom_site_label
_atom_site_fract_x
_atom_site_fract_y
_atom_site_fract_z
Si Si1 0.195118 0.358039 0.551995
Si Si2 0.804668 0.551904 0.606886
Si Si3 0.303773 0.694462 0.638100
Si Si4 0.307298 0.055811 0.383455
Si Si5 0.693755 0.118406 0.295344
Si Si6 0.804747 0.896538 0.193675
Si Si7 0.696416 0.223978 0.702970
Si Si8 0.000000 0.056156 0.447572
O O1 0.271473 0.349867 0.500000
O O2 0.273385 0.406510 0.574182
O O3 0.237113 0.313200 0.585206
O O4 0.000000 0.363689 0.548201
O O5 0.733591 0.500000 0.592235
O O6 0.760282 0.560701 0.661334
O O7 0.000000 0.552021 0.600675
O O8 0.500000 0.692353 0.636717
O O9 0.234489 0.653133 0.672636
O O10 0.240427 0.744995 0.658269
O O11 0.500000 0.067796 0.398234
O O12 0.249433 0.083707 0.336920
O O13 0.172808 0.072162 0.422591
O O14 0.291635 0.000000 0.372831
O O15 0.500000 0.125157 0.297793
O O16 0.741791 0.094650 0.246180
O O17 0.775696 0.171122 0.300288
O O18 0.000000 0.896026 0.193852
O O19 0.500000 0.221270 0.702172
O O20 0.750000 0.250000 0.750000
O O21 0.000000 0.078353 0.500000
O O22 0.000000 0.000000 0.450524
#
# Coordination Sequence:
#
# PCOD8288339 Si02
#       8
#    16  16  16  16  16  16  16   8
#     4   9  18  32  51  73  94 123 167 215 261 306
#     4   9  18  32  48  67  95 129 166 211 260 307
#     4   9  18  32  48  70  99 127 161 206 254 305
#     4   9  19  35  53  78 112 144 176 215 259 311
#     4  10  20  32  50  75 105 138 171 206 251 308
#     4  10  19  30  46  68  96 131 168 205 247 302
#     4  10  19  32  50  75 104 131 167 210 252 298
#     4   9  18  34  58  84 106 134 176 220 259 305
#
# _framework density 18.614726999999998
#
# number of rings (size 3 to 8) (size 9 to 14) (size 15 to 20)
#    0.000    2.600    1.333    0.400    0.933    2.667 
#    0.000    4.000    0.000    0.800    0.000    7.467 
#    0.000    0.000    0.000    0.000    0.000    0.000 
#
# Total GULP energy -743620.216151 kJ/mol
# GULP energy per Si atom -12393.670269 kJ/mol
# Density = 1.857236 g / cm^3
# Si number density = 18.614727 Si / 1000 Ang^3
#
#
#
# Elastic Constant Matrix: (Units=GPa)
#
#
# Indices 1 2 3 4 5 6 
#
# 1 33.3445 14.9506 29.8571 0.0000 0.0000 0.0000
# 2 14.9506 77.2239 54.4045 0.0000 0.0000 0.0000
# 3 29.8571 54.4045 168.6569 0.0000 0.0000 0.0000
# 4 0.0000 0.0000 0.0000 20.2445 0.0000 0.0000
# 5 0.0000 0.0000 0.0000 0.0000 26.7135 0.0000
# 6 0.0000 0.0000 0.0000 0.0000 0.0000 16.6439
#
#
#
# Elastic Compliance Matrix: (Units=1/GPa)
#
#
# Indices 1 2 3 4 5 6 
#
# 1 0.036252 -0.003232 -0.005375 0.000000 0.000000 0.000000
# 2 -0.003232 0.017046 -0.004926 0.000000 0.000000 0.000000
# 3 -0.005375 -0.004926 0.008470 0.000000 0.000000 0.000000
# 4 0.000000 0.000000 0.000000 0.049396 0.000000 0.000000
# 5 0.000000 0.000000 0.000000 0.000000 0.037434 0.000000
# 6 0.000000 0.000000 0.000000 0.000000 0.000000 0.060082
#
#
# Mechanical properties :
#
#
# Convention : Reuss Voigt Hill
#
# Bulk Modulus (GPa) = 28.81750 53.07220 40.94485
# Shear Modulus (GPa) = 20.21726 24.72125 22.46925
#
# Velocity S-wave (km/s) = 3.29916 3.64819 3.47806
# Velocity P-wave (km/s) = 5.47971 6.80577 6.17842
#
# Compressibility (1/GPa) = 0.03470113
#
# Stress axis : x y z
#
# Youngs Moduli (GPa) = 27.58475 58.66590 118.06501
#
# Poissons Ratio (x) = 0.18958 0.63463
# Poissons Ratio (y) = 0.08914 0.58164
# Poissons Ratio (z) = 0.14827 0.28901
#
# Static dielectric constant tensor:
#      x y z
#    x 3.320840 0.000000 0.000000 
#    y 0.000000 3.667720 0.000000 
#    z 0.000000 0.000000 3.611920 
# 
# 
# High freq. dielectric constant tensor:
#      x y z
#    x 1.714050 0.000000 0.000000 
#    y 0.000000 1.705750 0.000000 
#    z 0.000000 0.000000 1.713630 
# 
# From -- ./inp_files/63784.got.cif
#   From: 2010.06.25/outbox.cif.g09.slc.cpg/sg71_32_cif.got.tgz:63784.got - 2010.06.28 04:59:45.
