data_PCOD8288537
_publ_section_title
;
Structure prediction by ZEFSAII (Michael W. Deem and Ramdas Pophale) SiO2 
 PCOD8288537
Probable space group: I M M M
;
_chemical_formula_sum "Si O2"
_cell_formula_units_Z 120
_cell_length_a 20.957156
_cell_length_b 18.226138
_cell_length_c 18.866501
_cell_angle_alpha 90.000000
_cell_angle_beta 90.000000
_cell_angle_gamma 90.000000
_cell_volume 7206.399981
_symmetry_space_group_name_H-M "I M M M"
_symmetry_group_IT_number 71
_symmetry_cell_setting 'orthorhombic'
loop_
_space_group_symop_operation_xyz
x,y,z
-x,-y,z
x,-y,-z
-x,y,-z
-x,-y,-z
x,y,-z
-x,y,z
x,-y,z
1/2+x,1/2+y,1/2+z
1/2-x,1/2-y,1/2+z
1/2+x,1/2-y,1/2-z
1/2-x,1/2+y,1/2-z
1/2-x,1/2-y,1/2-z
1/2+x,1/2+y,1/2-z
1/2-x,1/2+y,1/2+z
1/2+x,1/2-y,1/2+z
loop_
_atom_site_type_symbol
_atom_site_label
_atom_site_fract_x
_atom_site_fract_y
_atom_site_fract_z
Si Si1 0.315559 0.165164 0.795140
Si Si2 0.500000 0.587309 0.579806
Si Si3 0.222781 0.085645 0.420239
Si Si4 0.754362 0.415621 0.418325
Si Si5 0.124875 0.084919 0.839573
Si Si6 0.687541 0.662744 0.785985
Si Si7 0.427347 0.913503 0.719206
Si Si8 0.866894 0.587021 0.923451
O O1 0.300737 0.137373 0.874268
O O2 0.324329 0.251650 0.794019
O O3 0.257997 0.142045 0.742994
O O4 0.381458 0.127682 0.773166
O O5 0.500000 0.500000 0.575387
O O6 0.500000 0.619799 0.500000
O O7 0.438155 0.615454 0.622113
O O8 0.197997 0.101781 0.500000
O O9 0.178592 0.127104 0.363429
O O10 0.294951 0.115688 0.411662
O O11 0.219565 0.000000 0.403252
O O12 0.761067 0.393540 0.500000
O O13 0.774305 0.500000 0.405256
O O14 0.681702 0.402830 0.395087
O O15 0.135109 0.130549 0.767616
O O16 0.118063 0.000000 0.818314
O O17 0.500000 0.893532 0.737919
O O18 0.412636 0.885312 0.639297
O O19 0.414735 0.000000 0.725393
O O20 0.864825 0.500000 0.925253
O O21 0.892513 0.615842 0.000000
#
# Coordination Sequence:
#
# PCOD8288537 Si02
#       8
#    16   8  16  16  16  16  16  16
#     4  10  20  32  46  68  96 128 162 205 246 290
#     4   9  16  28  48  74 103 129 158 197 235 275
#     4   9  16  27  47  73  99 126 156 197 245 287
#     4   9  17  30  50  73  94 120 158 204 252 295
#     4   9  17  29  48  73  99 129 162 196 233 284
#     4  10  19  31  47  69  97 131 166 200 243 289
#     4  10  19  31  49  70  94 129 168 205 243 286
#     4   8  14  25  43  68  96 126 160 197 236 274
#
# _framework density 16.651865000000001
#
# number of rings (size 3 to 8) (size 9 to 14) (size 15 to 20)
#    0.000    2.733    1.333    2.000    0.000    3.467 
#    1.200    1.333    0.000    1.200    0.000    2.333 
#    0.000    2.667    0.000    0.000    0.000    0.000 
#
# Total GULP energy -743879.247095 kJ/mol
# GULP energy per Si atom -12397.987452 kJ/mol
# Density = 1.661397 g / cm^3
# Si number density = 16.651865 Si / 1000 Ang^3
#
#
#
# Elastic Constant Matrix: (Units=GPa)
#
#
# Indices 1 2 3 4 5 6 
#
# 1 96.4963 39.0872 66.9376 0.0000 0.0000 0.0000
# 2 39.0872 56.0086 57.1623 0.0000 0.0000 0.0000
# 3 66.9376 57.1623 140.3261 0.0000 0.0000 0.0000
# 4 0.0000 0.0000 0.0000 15.4116 0.0000 0.0000
# 5 0.0000 0.0000 0.0000 0.0000 26.7154 0.0000
# 6 0.0000 0.0000 0.0000 0.0000 0.0000 14.9916
#
#
#
# Elastic Compliance Matrix: (Units=1/GPa)
#
#
# Indices 1 2 3 4 5 6 
#
# 1 0.016585 -0.005990 -0.005471 0.000000 0.000000 0.000000
# 2 -0.005990 0.032723 -0.010472 0.000000 0.000000 0.000000
# 3 -0.005471 -0.010472 0.014002 0.000000 0.000000 0.000000
# 4 0.000000 0.000000 0.000000 0.064886 0.000000 0.000000
# 5 0.000000 0.000000 0.000000 0.000000 0.037432 0.000000
# 6 0.000000 0.000000 0.000000 0.000000 0.000000 0.066704
#
#
# Mechanical properties :
#
#
# Convention : Reuss Voigt Hill
#
# Bulk Modulus (GPa) = 51.43439 68.80058 60.11749
# Shear Modulus (GPa) = 17.68788 20.06666 18.87727
#
# Velocity S-wave (km/s) = 3.26270 3.47518 3.37061
# Velocity P-wave (km/s) = 6.71928 7.58348 7.16442
#
# Compressibility (1/GPa) = 0.01944224
#
# Stress axis : x y z
#
# Youngs Moduli (GPa) = 60.29666 30.55953 71.41907
#
# Poissons Ratio (x) = 0.18307 0.39073
# Poissons Ratio (y) = 0.36121 0.74792
# Poissons Ratio (z) = 0.32988 0.32003
#
# Static dielectric constant tensor:
#      x y z
#    x 2.917500 0.000000 0.000000 
#    y 0.000000 2.855080 0.000000 
#    z 0.000000 0.000000 3.279030 
# 
# 
# High freq. dielectric constant tensor:
#      x y z
#    x 1.610140 0.000000 0.000000 
#    y 0.000000 1.618780 0.000000 
#    z 0.000000 0.000000 1.648010 
# 
# From -- ./inp_files/47572.got.cif
#   From: 2010.06.25/outbox.cif.g09.slc.cpg/sg71_24_cif.got.tgz:47572.got - 2010.06.28 04:59:45.
