data_PCOD8288033
_publ_section_title
;
Structure prediction by ZEFSAII (Michael W. Deem and Ramdas Pophale) SiO2 
 PCOD8288033
Probable space group: I M M M
;
_chemical_formula_sum "Si O2"
_cell_formula_units_Z 64
_cell_length_a 16.653895
_cell_length_b 24.011034
_cell_length_c 7.614268
_cell_angle_alpha 90.000000
_cell_angle_beta 90.000000
_cell_angle_gamma 90.000000
_cell_volume 3044.772465
_symmetry_space_group_name_H-M "I M M M"
_symmetry_group_IT_number 71
_symmetry_cell_setting 'orthorhombic'
loop_
_space_group_symop_operation_xyz
x,y,z
-x,-y,z
x,-y,-z
-x,y,-z
-x,-y,-z
x,y,-z
-x,y,z
x,-y,z
1/2+x,1/2+y,1/2+z
1/2-x,1/2-y,1/2+z
1/2+x,1/2-y,1/2-z
1/2-x,1/2+y,1/2-z
1/2-x,1/2-y,1/2-z
1/2+x,1/2+y,1/2-z
1/2-x,1/2+y,1/2+z
1/2+x,1/2-y,1/2+z
loop_
_atom_site_type_symbol
_atom_site_label
_atom_site_fract_x
_atom_site_fract_y
_atom_site_fract_z
Si Si1 0.594687 0.563519 0.500000
Si Si2 0.820382 0.129573 0.301175
Si Si3 0.908185 0.762895 0.792787
Si Si4 0.360206 0.141777 0.291819
Si Si5 0.500000 0.062704 0.290537
O O1 0.623087 0.500000 0.500000
O O2 0.500000 0.569865 0.500000
O O3 0.625928 0.591826 0.323452
O O4 0.825392 0.106303 0.500000
O O5 0.850835 0.193004 0.301799
O O6 0.729319 0.127076 0.229608
O O7 0.885831 0.702064 0.718322
O O8 0.000000 0.776351 0.744528
O O9 0.894051 0.767136 0.000000
O O10 0.365478 0.144378 0.500000
O O11 0.421039 0.094767 0.219792
O O12 0.500000 0.061616 0.500000
O O13 0.500000 0.000000 0.214590
#
# Coordination Sequence:
#
# PCOD8288033 Si02
#       5
#     8  16  16  16   8
#     4  11  26  48  68  89 123 165 207 256 318 377
#     4  11  23  39  64  96 126 158 210 262 315 373
#     4  10  18  33  59  88 126 167 206 256 314 376
#     4   9  18  33  55  89 126 166 210 257 312 368
#     4   9  16  30  54  85 123 167 214 258 303 367
#
# _framework density 21.019634
#
# number of rings (size 3 to 8) (size 9 to 14) (size 15 to 20)
#    0.000    2.000    2.500    1.500    0.000    3.500 
#    2.250    3.750    0.000    0.750    0.000    1.750 
#    0.000    0.000    0.000    0.000    0.000    0.000 
#
# Total GULP energy -396862.138637 kJ/mol
# GULP energy per Si atom -12401.941832 kJ/mol
# Density = 2.097179 g / cm^3
# Si number density = 21.019634 Si / 1000 Ang^3
#
#
#
# Elastic Constant Matrix: (Units=GPa)
#
#
# Indices 1 2 3 4 5 6 
#
# 1 127.6338 74.2012 24.3812 0.0000 0.0000 0.0000
# 2 74.2012 168.8309 25.8658 0.0000 0.0000 0.0000
# 3 24.3812 25.8658 62.1664 0.0000 0.0000 0.0000
# 4 0.0000 0.0000 0.0000 5.8094 0.0000 0.0000
# 5 0.0000 0.0000 0.0000 0.0000 22.1721 0.0000
# 6 0.0000 0.0000 0.0000 0.0000 0.0000 18.8773
#
#
#
# Elastic Compliance Matrix: (Units=1/GPa)
#
#
# Indices 1 2 3 4 5 6 
#
# 1 0.010856 -0.004399 -0.002427 0.000000 0.000000 0.000000
# 2 -0.004399 0.008109 -0.001649 0.000000 0.000000 0.000000
# 3 -0.002427 -0.001649 0.017724 0.000000 0.000000 0.000000
# 4 0.000000 0.000000 0.000000 0.172134 0.000000 0.000000
# 5 0.000000 0.000000 0.000000 0.000000 0.045102 0.000000
# 6 0.000000 0.000000 0.000000 0.000000 0.000000 0.052974
#
#
# Mechanical properties :
#
#
# Convention : Reuss Voigt Hill
#
# Bulk Modulus (GPa) = 50.66210 67.50305 59.08258
# Shear Modulus (GPa) = 15.13187 24.98396 20.05792
#
# Velocity S-wave (km/s) = 2.68599 3.45135 3.09244
# Velocity P-wave (km/s) = 5.81154 6.93300 6.39689
#
# Compressibility (1/GPa) = 0.01973862
#
# Stress axis : x y z
#
# Youngs Moduli (GPa) = 92.11291 123.31645 56.42152
#
# Poissons Ratio (x) = 0.54252 0.13695
# Poissons Ratio (y) = 0.40525 0.09302
# Poissons Ratio (z) = 0.22358 0.20330
#
# Static dielectric constant tensor:
#      x y z
#    x 4.019030 0.000000 0.000000 
#    y 0.000000 3.931330 0.000000 
#    z 0.000000 0.000000 3.437680 
# 
# 
# High freq. dielectric constant tensor:
#      x y z
#    x 1.837210 0.000000 0.000000 
#    y 0.000000 1.818780 0.000000 
#    z 0.000000 0.000000 1.802140 
# 
# From -- ./inp_files/5495.got.cif
#   From: 2010.06.25/outbox.cif.g09.slc.cpg/sg71_3_cif.got.tgz:5495.got - 2010.06.28 04:59:45.
