data_PCOD8288314
_publ_section_title
;
Structure prediction by ZEFSAII (Michael W. Deem and Ramdas Pophale) SiO2 
 PCOD8288314
Probable space group: I M M M
;
_chemical_formula_sum "Si O2"
_cell_formula_units_Z 88
_cell_length_a 19.933981
_cell_length_b 9.273094
_cell_length_c 26.720743
_cell_angle_alpha 90.000000
_cell_angle_beta 90.000000
_cell_angle_gamma 90.000000
_cell_volume 4939.320782
_symmetry_space_group_name_H-M "I M M M"
_symmetry_group_IT_number 71
_symmetry_cell_setting 'orthorhombic'
loop_
_space_group_symop_operation_xyz
x,y,z
-x,-y,z
x,-y,-z
-x,y,-z
-x,-y,-z
x,y,-z
-x,y,z
x,-y,z
1/2+x,1/2+y,1/2+z
1/2-x,1/2-y,1/2+z
1/2+x,1/2-y,1/2-z
1/2-x,1/2+y,1/2-z
1/2-x,1/2-y,1/2-z
1/2+x,1/2+y,1/2-z
1/2-x,1/2+y,1/2+z
1/2+x,1/2-y,1/2+z
loop_
_atom_site_type_symbol
_atom_site_label
_atom_site_fract_x
_atom_site_fract_y
_atom_site_fract_z
Si Si1 0.869718 0.668274 0.786603
Si Si2 0.226205 0.833863 0.855939
Si Si3 0.128321 0.166154 0.943203
Si Si4 0.127090 0.335449 0.670009
Si Si5 0.000000 0.838030 0.332411
Si Si6 0.500000 0.664048 0.713273
Si Si7 0.500000 0.837328 0.559547
O O1 0.878616 0.500000 0.798508
O O2 0.804789 0.729936 0.814255
O O3 0.859169 0.697404 0.728103
O O4 0.934767 0.753199 0.807242
O O5 0.193836 0.802849 0.910003
O O6 0.305207 0.799723 0.860407
O O7 0.215138 0.000000 0.839255
O O8 0.066586 0.257720 0.920711
O O9 0.106504 0.000000 0.940870
O O10 0.145814 0.212255 0.000000
O O11 0.104672 0.500000 0.662982
O O12 0.067108 0.239302 0.647581
O O13 0.000000 0.831180 0.272843
O O14 0.000000 0.000000 0.352924
O O15 0.500000 0.500000 0.693221
O O16 0.500000 0.830805 0.500000
O O17 0.500000 0.000000 0.579940
#
# Coordination Sequence:
#
# PCOD8288314 Si02
#       7
#    16  16  16  16   8   8   8
#     4  10  19  30  45  66  93 123 155 190 225 264
#     4  10  20  32  47  68  93 122 153 185 228 276
#     4   9  18  33  51  69  90 118 153 191 228 267
#     4   9  18  32  48  67  93 123 152 184 224 270
#     4   9  17  29  48  70  90 117 153 190 224 263
#     4   9  17  30  46  63  88 124 161 192 224 263
#     4   9  17  30  49  70  91 118 153 192 231 268
#
# _framework density 17.816215
#
# number of rings (size 3 to 8) (size 9 to 14) (size 15 to 20)
#    0.000    2.636    0.000    1.909    0.000    6.182 
#    0.000    0.909    0.000    0.000    0.000    0.636 
#    0.000    5.091    0.000    0.000    0.000    0.000 
#
# Total GULP energy -545663.948507 kJ/mol
# GULP energy per Si atom -12401.453375 kJ/mol
# Density = 1.777566 g / cm^3
# Si number density = 17.816215 Si / 1000 Ang^3
#
#
#
# Elastic Constant Matrix: (Units=GPa)
#
#
# Indices 1 2 3 4 5 6 
#
# 1 153.2128 77.3989 45.0426 0.0000 0.0000 0.0000
# 2 77.3989 110.5391 33.8064 0.0000 0.0000 0.0000
# 3 45.0426 33.8064 41.5497 0.0000 0.0000 0.0000
# 4 0.0000 0.0000 0.0000 14.4139 0.0000 0.0000
# 5 0.0000 0.0000 0.0000 0.0000 16.2448 0.0000
# 6 0.0000 0.0000 0.0000 0.0000 0.0000 29.6934
#
#
#
# Elastic Compliance Matrix: (Units=1/GPa)
#
#
# Indices 1 2 3 4 5 6 
#
# 1 0.011851 -0.005816 -0.008115 0.000000 0.000000 0.000000
# 2 -0.005816 0.014898 -0.005817 0.000000 0.000000 0.000000
# 3 -0.008115 -0.005817 0.037597 0.000000 0.000000 0.000000
# 4 0.000000 0.000000 0.000000 0.069377 0.000000 0.000000
# 5 0.000000 0.000000 0.000000 0.000000 0.061558 0.000000
# 6 0.000000 0.000000 0.000000 0.000000 0.000000 0.033678
#
#
# Mechanical properties :
#
#
# Convention : Reuss Voigt Hill
#
# Bulk Modulus (GPa) = 40.23990 68.64417 54.44203
# Shear Modulus (GPa) = 18.06774 22.00733 20.03753
#
# Velocity S-wave (km/s) = 3.18798 3.51841 3.35726
# Velocity P-wave (km/s) = 6.01549 7.42417 6.75664
#
# Compressibility (1/GPa) = 0.02485096
#
# Stress axis : x y z
#
# Youngs Moduli (GPa) = 84.38427 67.12420 26.59789
#
# Poissons Ratio (x) = 0.39039 0.21583
# Poissons Ratio (y) = 0.49078 0.15471
# Poissons Ratio (z) = 0.68475 0.39043
#
# Static dielectric constant tensor:
#      x y z
#    x 3.381990 0.000000 0.000000 
#    y 0.000000 3.404180 0.000000 
#    z 0.000000 0.000000 2.953270 
# 
# 
# High freq. dielectric constant tensor:
#      x y z
#    x 1.690980 0.000000 0.000000 
#    y 0.000000 1.695020 0.000000 
#    z 0.000000 0.000000 1.644710 
# 
# From -- ./inp_files/10549.got.cif
#   From: 2010.06.25/outbox.cif.g09.slc.cpg/sg71_6_cif.got.tgz:10549.got - 2010.06.28 04:59:45.
