data_PCOD8288723
_publ_section_title
;
Structure prediction by ZEFSAII (Michael W. Deem and Ramdas Pophale) SiO2 
 PCOD8288723
Probable space group: I M M M
;
_chemical_formula_sum "Si O2"
_cell_formula_units_Z 80
_cell_length_a 15.538719
_cell_length_b 15.469741
_cell_length_c 17.832685
_cell_angle_alpha 90.000000
_cell_angle_beta 90.000000
_cell_angle_gamma 90.000000
_cell_volume 4286.620078
_symmetry_space_group_name_H-M "I M M M"
_symmetry_group_IT_number 71
_symmetry_cell_setting 'orthorhombic'
loop_
_space_group_symop_operation_xyz
x,y,z
-x,-y,z
x,-y,-z
-x,y,-z
-x,-y,-z
x,y,-z
-x,y,z
x,-y,z
1/2+x,1/2+y,1/2+z
1/2-x,1/2-y,1/2+z
1/2+x,1/2-y,1/2-z
1/2-x,1/2+y,1/2-z
1/2-x,1/2-y,1/2-z
1/2+x,1/2+y,1/2-z
1/2-x,1/2+y,1/2+z
1/2+x,1/2-y,1/2+z
loop_
_atom_site_type_symbol
_atom_site_label
_atom_site_fract_x
_atom_site_fract_y
_atom_site_fract_z
Si Si1 0.814119 0.902427 0.217614
Si Si2 0.905429 0.663244 0.081370
Si Si3 0.749173 0.292993 0.586687
Si Si4 0.131175 0.592921 0.230448
Si Si5 0.095546 0.762950 0.684783
O O1 0.775559 0.876989 0.135791
O O2 0.733948 0.897906 0.273858
O O3 0.882626 0.835484 0.252410
O O4 0.852731 0.000000 0.212884
O O5 0.833796 0.734324 0.096473
O O6 0.900684 0.590742 0.144839
O O7 0.000000 0.707916 0.083635
O O8 0.890154 0.619559 0.000000
O O9 0.766065 0.318765 0.500000
O O10 0.833964 0.243474 0.618467
O O11 0.105339 0.500000 0.266687
O O12 0.087775 0.670321 0.275349
O O13 0.000000 0.784305 0.652247
#
# Coordination Sequence:
#
# PCOD8288723 Si02
#       5
#    16  16  16  16  16
#     4  10  20  36  57  82 110 146 193 237 282 332
#     4  10  19  31  51  78 108 140 173 219 279 336
#     4  10  20  37  57  81 114 148 188 236 286 340
#     4  10  19  34  55  78 109 143 178 229 286 334
#     4  11  21  36  57  83 115 149 190 236 282 339
#
# _framework density 18.662721999999999
#
# number of rings (size 3 to 8) (size 9 to 14) (size 15 to 20)
#    0.000    1.800    4.000    1.800    0.000    3.200 
#    0.000    1.000    0.000    0.600    0.000   11.200 
#    0.000    0.000    0.000    0.000    0.000    0.000 
#
# Total GULP energy -495563.305871 kJ/mol
# GULP energy per Si atom -12389.082647 kJ/mol
# Density = 1.862025 g / cm^3
# Si number density = 18.662722 Si / 1000 Ang^3
#
#
#
# Elastic Constant Matrix: (Units=GPa)
#
#
# Indices 1 2 3 4 5 6 
#
# 1 125.2412 40.7291 42.7419 0.0000 0.0000 0.0000
# 2 40.7291 105.5340 36.8239 0.0000 0.0000 0.0000
# 3 42.7419 36.8239 112.1426 0.0000 0.0000 0.0000
# 4 0.0000 0.0000 0.0000 14.5688 0.0000 0.0000
# 5 0.0000 0.0000 0.0000 0.0000 22.6632 0.0000
# 6 0.0000 0.0000 0.0000 0.0000 0.0000 6.3410
#
#
#
# Elastic Compliance Matrix: (Units=1/GPa)
#
#
# Indices 1 2 3 4 5 6 
#
# 1 0.009869 -0.002819 -0.002836 0.000000 0.000000 0.000000
# 2 -0.002819 0.011507 -0.002704 0.000000 0.000000 0.000000
# 3 -0.002836 -0.002704 0.010886 0.000000 0.000000 0.000000
# 4 0.000000 0.000000 0.000000 0.068640 0.000000 0.000000
# 5 0.000000 0.000000 0.000000 0.000000 0.044124 0.000000
# 6 0.000000 0.000000 0.000000 0.000000 0.000000 0.157704
#
#
# Mechanical properties :
#
#
# Convention : Reuss Voigt Hill
#
# Bulk Modulus (GPa) = 64.33312 64.83418 64.58365
# Shear Modulus (GPa) = 15.40215 23.55614 19.47914
#
# Velocity S-wave (km/s) = 2.87590 3.55660 3.23421
# Velocity P-wave (km/s) = 6.75085 7.18897 6.97335
#
# Compressibility (1/GPa) = 0.01554409
#
# Stress axis : x y z
#
# Youngs Moduli (GPa) = 101.32483 86.90196 91.86157
#
# Poissons Ratio (x) = 0.24501 0.26050
# Poissons Ratio (y) = 0.28567 0.24839
# Poissons Ratio (z) = 0.28733 0.23498
#
# Static dielectric constant tensor:
#      x y z
#    x 3.529470 0.000000 0.000000 
#    y 0.000000 3.341230 0.000000 
#    z 0.000000 0.000000 3.504360 
# 
# 
# High freq. dielectric constant tensor:
#      x y z
#    x 1.731430 0.000000 0.000000 
#    y 0.000000 1.707260 0.000000 
#    z 0.000000 0.000000 1.713910 
# 
# From -- ./inp_files/34254.got.cif
#   From: 2010.06.25/outbox.cif.g09.slc.cpg/sg71_18_cif.got.tgz:34254.got - 2010.06.28 04:59:45.
