data_PCOD8288382
_publ_section_title
;
Structure prediction by ZEFSAII (Michael W. Deem and Ramdas Pophale) SiO2 
 PCOD8288382
Probable space group: I M M M
;
_chemical_formula_sum "Si O2"
_cell_formula_units_Z 80
_cell_length_a 27.956471
_cell_length_b 8.975448
_cell_length_c 18.140207
_cell_angle_alpha 90.000000
_cell_angle_beta 90.000000
_cell_angle_gamma 90.000000
_cell_volume 4551.774331
_symmetry_space_group_name_H-M "I M M M"
_symmetry_group_IT_number 71
_symmetry_cell_setting 'orthorhombic'
loop_
_space_group_symop_operation_xyz
x,y,z
-x,-y,z
x,-y,-z
-x,y,-z
-x,-y,-z
x,y,-z
-x,y,z
x,-y,z
1/2+x,1/2+y,1/2+z
1/2-x,1/2-y,1/2+z
1/2+x,1/2-y,1/2-z
1/2-x,1/2+y,1/2-z
1/2-x,1/2-y,1/2-z
1/2+x,1/2+y,1/2-z
1/2-x,1/2+y,1/2+z
1/2+x,1/2-y,1/2+z
loop_
_atom_site_type_symbol
_atom_site_label
_atom_site_fract_x
_atom_site_fract_y
_atom_site_fract_z
Si Si1 0.356901 0.324995 0.209150
Si Si2 0.904519 0.672564 0.079757
Si Si3 0.788223 0.175714 0.582015
Si Si4 0.692396 0.173080 0.656867
Si Si5 0.446109 0.823770 0.270297
O O1 0.362293 0.500000 0.220676
O O2 0.335408 0.284792 0.129048
O O3 0.320317 0.263741 0.269908
O O4 0.409367 0.251248 0.213545
O O5 0.917093 0.500000 0.073751
O O6 0.848586 0.696136 0.095925
O O7 0.935973 0.739343 0.146947
O O8 0.916451 0.747915 0.000000
O O9 0.793581 0.245161 0.500000
O O10 0.741129 0.239406 0.622758
O O11 0.781411 0.000000 0.575689
O O12 0.697196 0.000000 0.678995
O O13 0.500000 0.782458 0.246977
O O14 0.436962 0.000000 0.268546
#
# Coordination Sequence:
#
# PCOD8288382 Si02
#       5
#    16  16  16  16  16
#     4  10  19  30  47  70  95 121 149 187 232 275
#     4   8  13  22  40  67  92 112 142 184 220 250
#     4   9  17  29  47  71  95 120 154 193 227 261
#     4   9  16  28  47  68  93 126 157 181 211 259
#     4   9  18  32  49  67  87 116 155 196 234 273
#
# _framework density 17.575562999999999
#
# number of rings (size 3 to 8) (size 9 to 14) (size 15 to 20)
#    0.000    3.000    0.000    3.000    0.000    3.200 
#    0.000    3.000    0.000   20.400    0.000    9.800 
#    0.000    0.000    0.000    0.000    0.000    0.000 
#
# Total GULP energy -495758.982625 kJ/mol
# GULP energy per Si atom -12393.974566 kJ/mol
# Density = 1.753556 g / cm^3
# Si number density = 17.575563 Si / 1000 Ang^3
#
#
#
# Elastic Constant Matrix: (Units=GPa)
#
#
# Indices 1 2 3 4 5 6 
#
# 1 139.5266 37.1763 69.5577 0.0000 0.0000 0.0000
# 2 37.1763 38.1896 30.2527 0.0000 0.0000 0.0000
# 3 69.5577 30.2527 103.9231 0.0000 0.0000 0.0000
# 4 0.0000 0.0000 0.0000 17.8589 0.0000 0.0000
# 5 0.0000 0.0000 0.0000 0.0000 14.0974 0.0000
# 6 0.0000 0.0000 0.0000 0.0000 0.0000 22.5218
#
#
#
# Elastic Compliance Matrix: (Units=1/GPa)
#
#
# Indices 1 2 3 4 5 6 
#
# 1 0.012017 -0.006923 -0.006028 0.000000 0.000000 0.000000
# 2 -0.006923 0.038022 -0.006435 0.000000 0.000000 0.000000
# 3 -0.006028 -0.006435 0.015530 0.000000 0.000000 0.000000
# 4 0.000000 0.000000 0.000000 0.055995 0.000000 0.000000
# 5 0.000000 0.000000 0.000000 0.000000 0.070935 0.000000
# 6 0.000000 0.000000 0.000000 0.000000 0.000000 0.044402
#
#
# Mechanical properties :
#
#
# Convention : Reuss Voigt Hill
#
# Bulk Modulus (GPa) = 37.31637 61.73475 49.52556
# Shear Modulus (GPa) = 17.56834 20.53910 19.05372
#
# Velocity S-wave (km/s) = 3.16506 3.42221 3.29614
# Velocity P-wave (km/s) = 5.88514 7.12860 6.53651
#
# Compressibility (1/GPa) = 0.02679789
#
# Stress axis : x y z
#
# Youngs Moduli (GPa) = 83.21815 26.30079 64.39090
#
# Poissons Ratio (x) = 0.18208 0.38813
# Poissons Ratio (y) = 0.57610 0.41434
# Poissons Ratio (z) = 0.50161 0.16924
#
# Static dielectric constant tensor:
#      x y z
#    x 3.274510 0.000000 0.000000 
#    y 0.000000 2.879210 0.000000 
#    z 0.000000 0.000000 3.407300 
# 
# 
# High freq. dielectric constant tensor:
#      x y z
#    x 1.676900 0.000000 0.000000 
#    y 0.000000 1.635420 0.000000 
#    z 0.000000 0.000000 1.670650 
# 
# From -- ./inp_files/8318.got.cif
#   From: 2010.06.25/outbox.cif.g09.slc.cpg/sg71_5_cif.got.tgz:8318.got - 2010.06.28 04:59:45.
