data_PCOD8288581
_publ_section_title
;
Structure prediction by ZEFSAII (Michael W. Deem and Ramdas Pophale) SiO2 
 PCOD8288581
Probable space group: I M M M
;
_chemical_formula_sum "Si O2"
_cell_formula_units_Z 88
_cell_length_a 14.172961
_cell_length_b 23.265046
_cell_length_c 15.184988
_cell_angle_alpha 90.000000
_cell_angle_beta 90.000000
_cell_angle_gamma 90.000000
_cell_volume 5007.015787
_symmetry_space_group_name_H-M "I M M M"
_symmetry_group_IT_number 71
_symmetry_cell_setting 'orthorhombic'
loop_
_space_group_symop_operation_xyz
x,y,z
-x,-y,z
x,-y,-z
-x,y,-z
-x,-y,-z
x,y,-z
-x,y,z
x,-y,z
1/2+x,1/2+y,1/2+z
1/2-x,1/2-y,1/2+z
1/2+x,1/2-y,1/2-z
1/2-x,1/2+y,1/2-z
1/2-x,1/2-y,1/2-z
1/2+x,1/2+y,1/2-z
1/2-x,1/2+y,1/2+z
1/2+x,1/2-y,1/2+z
loop_
_atom_site_type_symbol
_atom_site_label
_atom_site_fract_x
_atom_site_fract_y
_atom_site_fract_z
Si Si1 0.388720 0.746821 0.096975
Si Si2 0.231400 0.432509 0.742813
Si Si3 0.605380 0.932021 0.402737
Si Si4 0.611194 0.563740 0.000000
Si Si5 0.608561 0.125287 0.896399
Si Si6 0.389099 0.630032 0.824567
O O1 0.500000 0.743747 0.084441
O O2 0.361221 0.810018 0.132393
O O3 0.358309 0.696843 0.164783
O O4 0.343453 0.736331 0.000000
O O5 0.251542 0.500000 0.748336
O O6 0.171841 0.408024 0.825790
O O7 0.175350 0.419488 0.653396
O O8 0.331185 0.398543 0.744237
O O9 0.644679 0.914714 0.500000
O O10 0.500000 0.906453 0.390454
O O11 0.599740 0.000000 0.394239
O O12 0.642816 0.597090 0.913021
O O13 0.658132 0.500000 0.000000
O O14 0.500000 0.557904 0.000000
O O15 0.500000 0.112840 0.871017
O O16 0.623573 0.116878 0.000000
O O17 0.500000 0.623303 0.804586
#
# Coordination Sequence:
#
# PCOD8288581 Si02
#       6
#    16  16  16   8  16  16
#     4   8  14  29  52  75  98 127 167 212 257 300
#     4  11  22  31  46  73 103 134 170 208 248 305
#     4   8  15  28  43  60  89 128 162 192 234 295
#     4   9  16  26  42  66  97 133 166 192 227 278
#     4   9  19  36  57  77  96 122 164 223 276 307
#     4  10  19  31  48  71 102 138 169 203 244 291
#
# _framework density 17.575339
#
# number of rings (size 3 to 8) (size 9 to 14) (size 15 to 20)
#    0.000    2.818    0.909    2.727    1.273    3.273 
#    0.000    0.909    0.000    0.545    0.000    1.273 
#    0.000    1.455    0.000    0.000    0.000    0.000 
#
# Total GULP energy -545351.933182 kJ/mol
# GULP energy per Si atom -12394.362118 kJ/mol
# Density = 1.753534 g / cm^3
# Si number density = 17.575339 Si / 1000 Ang^3
#
#
#
# Elastic Constant Matrix: (Units=GPa)
#
#
# Indices 1 2 3 4 5 6 
#
# 1 61.1503 23.3040 35.0696 -0.0003 0.0000 0.0000
# 2 23.3040 54.4548 22.5431 -0.0028 0.0000 0.0000
# 3 35.0696 22.5431 58.8459 -0.0021 0.0000 0.0000
# 4 -0.0003 -0.0028 -0.0021 15.5259 0.0000 0.0000
# 5 0.0000 0.0000 0.0000 0.0000 22.5803 0.0000
# 6 0.0000 0.0000 0.0000 0.0000 0.0000 21.8785
#
#
#
# Elastic Compliance Matrix: (Units=1/GPa)
#
#
# Indices 1 2 3 4 5 6 
#
# 1 0.026230 -0.005650 -0.013468 -0.000002 0.000000 0.000000
# 2 -0.005650 0.023042 -0.005460 0.000003 0.000000 0.000000
# 3 -0.013468 -0.005460 0.027111 0.000002 0.000000 0.000000
# 4 -0.000002 0.000003 0.000002 0.064409 0.000000 0.000000
# 5 0.000000 0.000000 0.000000 0.000000 0.044286 0.000000
# 6 0.000000 0.000000 0.000000 0.000000 0.000000 0.045707
#
#
# Mechanical properties :
#
#
# Convention : Reuss Voigt Hill
#
# Bulk Modulus (GPa) = 36.72635 37.36494 37.04564
# Shear Modulus (GPa) = 17.30006 18.23255 17.76631
#
# Velocity S-wave (km/s) = 3.14082 3.22435 3.18286
# Velocity P-wave (km/s) = 5.83908 5.93026 5.88485
#
# Compressibility (1/GPa) = 0.02722841
#
# Stress axis : x y z
#
# Youngs Moduli (GPa) = 38.12443 43.39888 36.88501
#
# Poissons Ratio (x) = 0.24520 0.49675
# Poissons Ratio (y) = 0.21540 0.20139
# Poissons Ratio (z) = 0.51344 0.23696
#
# Static dielectric constant tensor:
#      x y z
#    x 3.129590 0.000000 0.000000 
#    y 0.000000 3.362150 0.000000 
#    z 0.000000 0.000000 3.028530 
# 
# 
# High freq. dielectric constant tensor:
#      x y z
#    x 1.660310 0.000000 0.000000 
#    y 0.000000 1.668570 0.000000 
#    z 0.000000 0.000000 1.650240 
# 
# From -- ./inp_files/22268.got.cif
#   From: 2010.06.25/outbox.cif.g09.slc.cpg/sg71_12_cif.got.tgz:22268.got - 2010.06.28 04:59:45.
