data_PCOD8288772
_publ_section_title
;
Structure prediction by ZEFSAII (Michael W. Deem and Ramdas Pophale) SiO2 
 PCOD8288772
Probable space group: I M M M
;
_chemical_formula_sum "Si O2"
_cell_formula_units_Z 104
_cell_length_a 29.786918
_cell_length_b 18.732540
_cell_length_c 10.330143
_cell_angle_alpha 90.000000
_cell_angle_beta 90.000000
_cell_angle_gamma 90.000000
_cell_volume 5764.061050
_symmetry_space_group_name_H-M "I M M M"
_symmetry_group_IT_number 71
_symmetry_cell_setting 'orthorhombic'
loop_
_space_group_symop_operation_xyz
x,y,z
-x,-y,z
x,-y,-z
-x,y,-z
-x,-y,-z
x,y,-z
-x,y,z
x,-y,z
1/2+x,1/2+y,1/2+z
1/2-x,1/2-y,1/2+z
1/2+x,1/2-y,1/2-z
1/2-x,1/2+y,1/2-z
1/2-x,1/2-y,1/2-z
1/2+x,1/2+y,1/2-z
1/2-x,1/2+y,1/2+z
1/2+x,1/2-y,1/2+z
loop_
_atom_site_type_symbol
_atom_site_label
_atom_site_fract_x
_atom_site_fract_y
_atom_site_fract_z
Si Si1 0.201932 0.415282 0.144431
Si Si2 0.629235 0.418144 0.642925
Si Si3 0.446893 0.579264 0.000000
Si Si4 0.551945 0.338291 0.252942
Si Si5 0.197831 0.084617 0.355508
Si Si6 0.869421 0.583340 0.648393
Si Si7 0.449725 0.185749 0.148491
O O1 0.202982 0.500000 0.152769
O O2 0.252015 0.385149 0.170470
O O3 0.168622 0.385738 0.255289
O O4 0.185855 0.391840 0.000000
O O5 0.651136 0.413972 0.500000
O O6 0.616828 0.500000 0.677456
O O7 0.583945 0.370458 0.636890
O O8 0.664229 0.384971 0.746681
O O9 0.430561 0.621524 0.875028
O O10 0.425246 0.500000 0.000000
O O11 0.500000 0.574463 0.000000
O O12 0.500000 0.355232 0.284705
O O13 0.559590 0.253856 0.238818
O O14 0.181676 0.107352 0.500000
O O15 0.199585 0.000000 0.344343
O O16 0.854577 0.597989 0.500000
O O17 0.878173 0.500000 0.671878
O O18 0.915664 0.622770 0.683026
O O19 0.500000 0.156539 0.173581
O O20 0.444835 0.210958 0.000000
#
# Coordination Sequence:
#
# PCOD8288772 Si02
#       7
#    16  16   8  16  16  16  16
#     4   8  14  27  47  71  99 128 158 196 243 289
#     4  10  21  33  46  70 102 131 158 196 248 294
#     4   9  16  26  44  70  89 107 151 209 244 264
#     4  10  19  32  48  66  91 127 167 203 240 286
#     4   8  15  28  47  70  95 126 162 198 238 286
#     4   9  17  28  47  77 104 127 159 198 241 290
#     4   9  17  31  49  70  99 132 165 202 245 288
#
# _framework density 18.042833999999999
#
# number of rings (size 3 to 8) (size 9 to 14) (size 15 to 20)
#    0.000    3.000    0.769    1.385    1.077    2.154 
#    0.000    6.154    0.000    2.308    0.000    2.154 
#    0.000    0.000    0.000    0.000    0.000    0.000 
#
# Total GULP energy -644517.244605 kJ/mol
# GULP energy per Si atom -12394.562396 kJ/mol
# Density = 1.800177 g / cm^3
# Si number density = 18.042834 Si / 1000 Ang^3
#
#
#
# Elastic Constant Matrix: (Units=GPa)
#
#
# Indices 1 2 3 4 5 6 
#
# 1 119.6176 37.9233 73.0315 0.0000 0.0000 0.0000
# 2 37.9233 42.8385 28.7591 0.0000 0.0000 0.0000
# 3 73.0315 28.7591 104.9425 0.0000 0.0000 0.0000
# 4 0.0000 0.0000 0.0000 13.8959 0.0000 0.0000
# 5 0.0000 0.0000 0.0000 0.0000 30.6716 0.0000
# 6 0.0000 0.0000 0.0000 0.0000 0.0000 12.4246
#
#
#
# Elastic Compliance Matrix: (Units=1/GPa)
#
#
# Indices 1 2 3 4 5 6 
#
# 1 0.016773 -0.008593 -0.009318 0.000000 0.000000 0.000000
# 2 -0.008593 0.033009 -0.003066 0.000000 0.000000 0.000000
# 3 -0.009318 -0.003066 0.016854 0.000000 0.000000 0.000000
# 4 0.000000 0.000000 0.000000 0.071964 0.000000 0.000000
# 5 0.000000 0.000000 0.000000 0.000000 0.032603 0.000000
# 6 0.000000 0.000000 0.000000 0.000000 0.000000 0.080486
#
#
# Mechanical properties :
#
#
# Convention : Reuss Voigt Hill
#
# Bulk Modulus (GPa) = 40.51523 60.75849 50.63686
# Shear Modulus (GPa) = 16.56342 19.91074 18.23708
#
# Velocity S-wave (km/s) = 3.03315 3.32554 3.18270
# Velocity P-wave (km/s) = 5.89664 6.96371 6.45228
#
# Compressibility (1/GPa) = 0.02468208
#
# Stress axis : x y z
#
# Youngs Moduli (GPa) = 59.61822 30.29479 59.33410
#
# Poissons Ratio (x) = 0.26033 0.55287
# Poissons Ratio (y) = 0.51232 0.18190
# Poissons Ratio (z) = 0.55552 0.09287
#
# Static dielectric constant tensor:
#      x y z
#    x 3.458720 0.000000 0.000000 
#    y 0.000000 2.925280 0.000000 
#    z 0.000000 0.000000 3.394540 
# 
# 
# High freq. dielectric constant tensor:
#      x y z
#    x 1.697390 0.000000 0.000000 
#    y 0.000000 1.654620 0.000000 
#    z 0.000000 0.000000 1.691680 
# 
# From -- ./inp_files/28921.got.cif
#   From: 2010.06.25/outbox.cif.g09.slc.cpg/sg71_15_cif.got.tgz:28921.got - 2010.06.28 04:59:45.
