data_PCOD8288474
_publ_section_title
;
Structure prediction by ZEFSAII (Michael W. Deem and Ramdas Pophale) SiO2 
 PCOD8288474
Probable space group: I M M M
;
_chemical_formula_sum "Si O2"
_cell_formula_units_Z 80
_cell_length_a 11.368426
_cell_length_b 22.322785
_cell_length_c 17.293207
_cell_angle_alpha 90.000000
_cell_angle_beta 90.000000
_cell_angle_gamma 90.000000
_cell_volume 4388.582385
_symmetry_space_group_name_H-M "I M M M"
_symmetry_group_IT_number 71
_symmetry_cell_setting 'orthorhombic'
loop_
_space_group_symop_operation_xyz
x,y,z
-x,-y,z
x,-y,-z
-x,y,-z
-x,-y,-z
x,y,-z
-x,y,z
x,-y,z
1/2+x,1/2+y,1/2+z
1/2-x,1/2-y,1/2+z
1/2+x,1/2-y,1/2-z
1/2-x,1/2+y,1/2-z
1/2-x,1/2-y,1/2-z
1/2+x,1/2+y,1/2-z
1/2-x,1/2+y,1/2+z
1/2+x,1/2-y,1/2+z
loop_
_atom_site_type_symbol
_atom_site_label
_atom_site_fract_x
_atom_site_fract_y
_atom_site_fract_z
Si Si1 0.218965 0.834321 0.185169
Si Si2 0.000000 0.159922 0.091312
Si Si3 0.362151 0.932468 0.271151
Si Si4 0.634348 0.722159 0.157514
Si Si5 0.000000 0.297252 0.090616
Si Si6 0.780859 0.371685 0.911728
O O1 0.308231 0.886974 0.208817
O O2 0.290632 0.782235 0.140543
O O3 0.155016 0.804374 0.257753
O O4 0.120375 0.864954 0.129355
O O5 0.000000 0.229232 0.115554
O O6 0.000000 0.147130 0.000000
O O7 0.500000 0.918727 0.283362
O O8 0.290541 0.927621 0.353207
O O9 0.343534 0.000000 0.240961
O O10 0.500000 0.740268 0.146465
O O11 0.664490 0.669019 0.096390
O O12 0.883533 0.328649 0.122458
O O13 0.000000 0.305074 0.000000
O O14 0.796015 0.393807 0.000000
#
# Coordination Sequence:
#
# PCOD8288474 Si02
#       6
#    16   8  16  16   8  16
#     4  10  20  33  52  78 107 134 175 224 266 315
#     4  11  20  34  57  83 108 135 168 216 278 326
#     4  10  21  36  55  77 103 141 184 223 262 304
#     4  10  19  30  50  77 108 145 178 209 261 319
#     4   9  16  28  47  77 111 138 160 201 260 306
#     4  10  19  31  50  78 114 146 175 212 255 308
#
# _framework density 18.229122
#
# number of rings (size 3 to 8) (size 9 to 14) (size 15 to 20)
#    0.000    2.000    4.000    0.600    0.000    0.800 
#    0.000    1.500    0.000    3.000    0.000    4.200 
#    0.000    0.000    0.000    0.000    0.000    0.000 
#
# Total GULP energy -495809.962954 kJ/mol
# GULP energy per Si atom -12395.249074 kJ/mol
# Density = 1.818763 g / cm^3
# Si number density = 18.229122 Si / 1000 Ang^3
#
#
#
# Elastic Constant Matrix: (Units=GPa)
#
#
# Indices 1 2 3 4 5 6 
#
# 1 104.5035 31.7823 25.5838 0.0000 0.0000 0.0000
# 2 31.7823 71.8658 23.1989 0.0000 0.0000 0.0000
# 3 25.5838 23.1989 64.7085 0.0000 0.0000 0.0000
# 4 0.0000 0.0000 0.0000 16.1092 0.0000 0.0000
# 5 0.0000 0.0000 0.0000 0.0000 25.5753 0.0000
# 6 0.0000 0.0000 0.0000 0.0000 0.0000 24.6770
#
#
#
# Elastic Compliance Matrix: (Units=1/GPa)
#
#
# Indices 1 2 3 4 5 6 
#
# 1 0.011582 -0.004121 -0.003102 0.000000 0.000000 0.000000
# 2 -0.004121 0.017202 -0.004538 0.000000 0.000000 0.000000
# 3 -0.003102 -0.004538 0.018307 0.000000 0.000000 0.000000
# 4 0.000000 0.000000 0.000000 0.062076 0.000000 0.000000
# 5 0.000000 0.000000 0.000000 0.000000 0.039100 0.000000
# 6 0.000000 0.000000 0.000000 0.000000 0.000000 0.040524
#
#
# Mechanical properties :
#
#
# Convention : Reuss Voigt Hill
#
# Bulk Modulus (GPa) = 42.42657 44.68975 43.55816
# Shear Modulus (GPa) = 22.70988 23.97315 23.34151
#
# Velocity S-wave (km/s) = 3.53342 3.63037 3.58222
# Velocity P-wave (km/s) = 6.32229 6.49165 6.40753
#
# Compressibility (1/GPa) = 0.02357014
#
# Stress axis : x y z
#
# Youngs Moduli (GPa) = 86.34393 58.13258 54.62340
#
# Poissons Ratio (x) = 0.23954 0.16943
# Poissons Ratio (y) = 0.35579 0.24788
# Poissons Ratio (z) = 0.26781 0.26381
#
# Static dielectric constant tensor:
#      x y z
#    x 3.498940 0.000000 0.000000 
#    y 0.000000 3.134030 0.000000 
#    z 0.000000 0.000000 3.109720 
# 
# 
# High freq. dielectric constant tensor:
#      x y z
#    x 1.711440 0.000000 0.000000 
#    y 0.000000 1.675590 0.000000 
#    z 0.000000 0.000000 1.685930 
# 
# From -- ./inp_files/23806.got.cif
#   From: 2010.06.25/outbox.cif.g09.slc.cpg/sg71_12_cif.got.tgz:23806.got - 2010.06.28 04:59:45.
