data_PCOD8288584
_publ_section_title
;
Structure prediction by ZEFSAII (Michael W. Deem and Ramdas Pophale) SiO2 
 PCOD8288584
Probable space group: I M M M
;
_chemical_formula_sum "Si O2"
_cell_formula_units_Z 104
_cell_length_a 23.826144
_cell_length_b 27.732201
_cell_length_c 7.929006
_cell_angle_alpha 90.000000
_cell_angle_beta 90.000000
_cell_angle_gamma 90.000000
_cell_volume 5239.101930
_symmetry_space_group_name_H-M "I M M M"
_symmetry_group_IT_number 71
_symmetry_cell_setting 'orthorhombic'
loop_
_space_group_symop_operation_xyz
x,y,z
-x,-y,z
x,-y,-z
-x,y,-z
-x,-y,-z
x,y,-z
-x,y,z
x,-y,z
1/2+x,1/2+y,1/2+z
1/2-x,1/2-y,1/2+z
1/2+x,1/2-y,1/2-z
1/2-x,1/2+y,1/2-z
1/2-x,1/2-y,1/2-z
1/2+x,1/2+y,1/2-z
1/2-x,1/2+y,1/2+z
1/2+x,1/2-y,1/2+z
loop_
_atom_site_type_symbol
_atom_site_label
_atom_site_fract_x
_atom_site_fract_y
_atom_site_fract_z
Si Si1 0.064898 0.614582 0.811043
Si Si2 0.066772 0.447143 0.500000
Si Si3 0.063380 0.874344 0.300119
Si Si4 0.344820 0.190350 0.305890
Si Si5 0.160113 0.054507 0.298523
Si Si6 0.146054 0.797992 0.802969
Si Si7 0.759457 0.134372 0.308893
O O1 0.088303 0.577827 0.671347
O O2 0.095393 0.665148 0.784207
O O3 0.000000 0.625502 0.781966
O O4 0.076062 0.593667 0.000000
O O5 0.093362 0.500000 0.500000
O O6 0.000000 0.449251 0.500000
O O7 0.064048 0.871282 0.500000
O O8 0.103090 0.918573 0.237781
O O9 0.085879 0.823379 0.227212
O O10 0.000000 0.882951 0.233146
O O11 0.327633 0.196373 0.500000
O O12 0.352235 0.243575 0.228615
O O13 0.296058 0.156995 0.218139
O O14 0.161465 0.053764 0.500000
O O15 0.214551 0.084816 0.229065
O O16 0.161533 0.000000 0.225550
O O17 0.192119 0.825894 0.695137
O O18 0.161044 0.799327 0.000000
O O19 0.743065 0.122200 0.500000
#
# Coordination Sequence:
#
# PCOD8288584 Si02
#       7
#    16   8  16  16  16  16  16
#     4   9  18  34  53  75 105 137 172 215 263 314
#     4   9  18  34  54  76 102 132 170 210 250 306
#     4   9  18  32  48  69  98 129 166 210 250 298
#     4   9  18  32  50  72  99 133 169 207 255 307
#     4   8  14  26  47  72  95 123 158 202 255 297
#     4  10  19  31  48  71  99 132 168 204 252 307
#     4   9  17  32  50  70  99 126 164 214 250 297
#
# _framework density 19.850731
#
# number of rings (size 3 to 8) (size 9 to 14) (size 15 to 20)
#    0.000    3.000    0.000    1.846    0.000    1.538 
#    4.154    5.385    0.000   10.154    0.000    4.308 
#    0.000    0.000    0.000    0.000    0.000    0.000 
#
# Total GULP energy -644296.149514 kJ/mol
# GULP energy per Si atom -12390.310568 kJ/mol
# Density = 1.980555 g / cm^3
# Si number density = 19.850731 Si / 1000 Ang^3
#
#
#
# Elastic Constant Matrix: (Units=GPa)
#
#
# Indices 1 2 3 4 5 6 
#
# 1 95.7763 77.8883 13.6149 0.0000 0.0000 0.0000
# 2 77.8883 182.6216 22.1143 0.0000 0.0000 0.0000
# 3 13.6149 22.1143 38.9403 0.0000 0.0000 0.0000
# 4 0.0000 0.0000 0.0000 20.7875 0.0000 0.0000
# 5 0.0000 0.0000 0.0000 0.0000 13.2849 0.0000
# 6 0.0000 0.0000 0.0000 0.0000 0.0000 21.5441
#
#
#
# Elastic Compliance Matrix: (Units=1/GPa)
#
#
# Indices 1 2 3 4 5 6 
#
# 1 0.016110 -0.006646 -0.001858 0.000000 0.000000 0.000000
# 2 -0.006646 0.008622 -0.002573 0.000000 0.000000 0.000000
# 3 -0.001858 -0.002573 0.027791 0.000000 0.000000 0.000000
# 4 0.000000 0.000000 0.000000 0.048106 0.000000 0.000000
# 5 0.000000 0.000000 0.000000 0.000000 0.075273 0.000000
# 6 0.000000 0.000000 0.000000 0.000000 0.000000 0.046416
#
#
# Mechanical properties :
#
#
# Convention : Reuss Voigt Hill
#
# Bulk Modulus (GPa) = 32.92843 60.50812 46.71828
# Shear Modulus (GPa) = 19.63903 24.70467 22.17185
#
# Velocity S-wave (km/s) = 3.14878 3.53161 3.34567
# Velocity P-wave (km/s) = 5.46295 6.86858 6.20569
#
# Compressibility (1/GPa) = 0.03036889
#
# Stress axis : x y z
#
# Youngs Moduli (GPa) = 62.07427 115.98532 35.98271
#
# Poissons Ratio (x) = 0.77081 0.06687
# Poissons Ratio (y) = 0.41253 0.09257
# Poissons Ratio (z) = 0.11536 0.29840
#
# Static dielectric constant tensor:
#      x y z
#    x 3.675230 0.000000 0.000000 
#    y 0.000000 3.874400 0.000000 
#    z 0.000000 0.000000 3.336820 
# 
# 
# High freq. dielectric constant tensor:
#      x y z
#    x 1.764660 0.000000 0.000000 
#    y 0.000000 1.770590 0.000000 
#    z 0.000000 0.000000 1.745450 
# 
# From -- ./inp_files/13608.got.cif
#   From: 2010.06.25/outbox.cif.g09.slc.cpg/sg71_7_cif.got.tgz:13608.got - 2010.06.28 04:59:45.
