data_PCOD8288823
_publ_section_title
;
Structure prediction by ZEFSAII (Michael W. Deem and Ramdas Pophale) SiO2 
 PCOD8288823
Probable space group: I M M M
;
_chemical_formula_sum "Si O2"
_cell_formula_units_Z 88
_cell_length_a 24.307323
_cell_length_b 24.014280
_cell_length_c 9.383902
_cell_angle_alpha 90.000000
_cell_angle_beta 90.000000
_cell_angle_gamma 90.000000
_cell_volume 5477.598119
_symmetry_space_group_name_H-M "I M M M"
_symmetry_group_IT_number 71
_symmetry_cell_setting 'orthorhombic'
loop_
_space_group_symop_operation_xyz
x,y,z
-x,-y,z
x,-y,-z
-x,y,-z
-x,-y,-z
x,y,-z
-x,y,z
x,-y,z
1/2+x,1/2+y,1/2+z
1/2-x,1/2-y,1/2+z
1/2+x,1/2-y,1/2-z
1/2-x,1/2+y,1/2-z
1/2-x,1/2-y,1/2-z
1/2+x,1/2+y,1/2-z
1/2-x,1/2+y,1/2+z
1/2+x,1/2-y,1/2+z
loop_
_atom_site_type_symbol
_atom_site_label
_atom_site_fract_x
_atom_site_fract_y
_atom_site_fract_z
Si Si1 0.563361 0.779315 0.334252
Si Si2 0.098531 0.597497 0.156305
Si Si3 0.777575 0.564554 0.159619
Si Si4 0.665424 0.254873 0.833821
Si Si5 0.062727 0.500000 0.650571
Si Si6 0.244653 0.164777 0.833936
O O1 0.575801 0.766487 0.500000
O O2 0.500000 0.764883 0.296642
O O3 0.575745 0.843040 0.298227
O O4 0.604493 0.744490 0.234383
O O5 0.163790 0.594066 0.154793
O O6 0.075835 0.555326 0.268187
O O7 0.075580 0.582047 0.000000
O O8 0.781007 0.500000 0.210995
O O9 0.743683 0.601789 0.271819
O O10 0.751811 0.567068 0.000000
O O11 0.696279 0.195421 0.813856
O O12 0.698870 0.302227 0.752783
O O13 0.660984 0.270368 0.000000
O O14 0.095584 0.500000 0.500000
O O15 0.000000 0.500000 0.614496
O O16 0.228558 0.162413 0.000000
#
# Coordination Sequence:
#
# PCOD8288823 Si02
#       6
#    16  16  16  16   8  16
#     4  10  20  33  50  71  96 127 164 206 247 291
#     4  10  19  33  49  64  86 123 167 204 242 288
#     4  10  19  32  50  71  96 127 163 205 248 292
#     4  10  20  33  51  73  97 127 162 204 251 299
#     4  11  23  33  41  57  83 117 161 213 256 285
#     4  10  20  33  51  73  96 126 163 205 250 298
#
# _framework density 16.065436999999999
#
# number of rings (size 3 to 8) (size 9 to 14) (size 15 to 20)
#    0.000    1.909    2.727    1.909    0.000    5.091 
#    0.000    0.000    0.000    0.000    0.000    0.000 
#    0.000    0.727    0.000    7.636    0.000    3.273 
#
# Total GULP energy -545366.878513 kJ/mol
# GULP energy per Si atom -12394.701784 kJ/mol
# Density = 1.602887 g / cm^3
# Si number density = 16.065437 Si / 1000 Ang^3
#
#
#
# Elastic Constant Matrix: (Units=GPa)
#
#
# Indices 1 2 3 4 5 6 
#
# 1 81.4512 30.6026 51.7627 0.0000 0.0000 0.0000
# 2 30.6026 55.6353 45.1189 0.0000 0.0000 0.0000
# 3 51.7627 45.1189 105.0703 0.0000 0.0000 0.0000
# 4 0.0000 0.0000 0.0000 11.4485 0.0000 0.0000
# 5 0.0000 0.0000 0.0000 0.0000 26.1520 0.0000
# 6 0.0000 0.0000 0.0000 0.0000 0.0000 27.5295
#
#
#
# Elastic Compliance Matrix: (Units=1/GPa)
#
#
# Indices 1 2 3 4 5 6 
#
# 1 0.018513 -0.004276 -0.007284 0.000000 0.000000 0.000000
# 2 -0.004276 0.028566 -0.010160 0.000000 0.000000 0.000000
# 3 -0.007284 -0.010160 0.017469 0.000000 0.000000 0.000000
# 4 0.000000 0.000000 0.000000 0.087347 0.000000 0.000000
# 5 0.000000 0.000000 0.000000 0.000000 0.038238 0.000000
# 6 0.000000 0.000000 0.000000 0.000000 0.000000 0.036325
#
#
# Mechanical properties :
#
#
# Convention : Reuss Voigt Hill
#
# Bulk Modulus (GPa) = 47.37713 55.23613 51.30663
# Shear Modulus (GPa) = 18.05485 20.67084 19.36284
#
# Velocity S-wave (km/s) = 3.35600 3.59090 3.47544
# Velocity P-wave (km/s) = 6.67616 7.18675 6.93615
#
# Compressibility (1/GPa) = 0.02110723
#
# Stress axis : x y z
#
# Youngs Moduli (GPa) = 54.01608 35.00699 57.24442
#
# Poissons Ratio (x) = 0.14968 0.41699
# Poissons Ratio (y) = 0.23096 0.58161
# Poissons Ratio (z) = 0.39347 0.35567
#
# Static dielectric constant tensor:
#      x y z
#    x 2.907390 0.000000 0.000000 
#    y 0.000000 2.920800 0.000000 
#    z 0.000000 0.000000 2.760030 
# 
# 
# High freq. dielectric constant tensor:
#      x y z
#    x 1.588930 0.000000 0.000000 
#    y 0.000000 1.594390 0.000000 
#    z 0.000000 0.000000 1.633140 
# 
# From -- ./inp_files/10389.got.cif
#   From: 2010.06.25/outbox.cif.g09.slc.cpg/sg71_6_cif.got.tgz:10389.got - 2010.06.28 04:59:45.
