data_PCOD8288999
_publ_section_title
;
Structure prediction by ZEFSAII (Michael W. Deem and Ramdas Pophale) SiO2 
 PCOD8288999
Probable space group: I M M M
;
_chemical_formula_sum "Si O2"
_cell_formula_units_Z 96
_cell_length_a 25.040857
_cell_length_b 24.368766
_cell_length_c 8.500200
_cell_angle_alpha 90.000000
_cell_angle_beta 90.000000
_cell_angle_gamma 90.000000
_cell_volume 5186.947713
_symmetry_space_group_name_H-M "I M M M"
_symmetry_group_IT_number 71
_symmetry_cell_setting 'orthorhombic'
loop_
_space_group_symop_operation_xyz
x,y,z
-x,-y,z
x,-y,-z
-x,y,-z
-x,-y,-z
x,y,-z
-x,y,z
x,-y,z
1/2+x,1/2+y,1/2+z
1/2-x,1/2-y,1/2+z
1/2+x,1/2-y,1/2-z
1/2-x,1/2+y,1/2-z
1/2-x,1/2-y,1/2-z
1/2+x,1/2+y,1/2-z
1/2-x,1/2+y,1/2+z
1/2+x,1/2-y,1/2+z
loop_
_atom_site_type_symbol
_atom_site_label
_atom_site_fract_x
_atom_site_fract_y
_atom_site_fract_z
Si Si1 0.114147 0.099314 0.816170
Si Si2 0.214669 0.500000 0.681503
Si Si3 0.175050 0.000000 0.320751
Si Si4 0.312283 0.311286 0.183623
Si Si5 0.500000 0.561843 0.684232
Si Si6 0.301070 0.186258 0.816530
Si Si7 0.440441 0.000000 0.312654
Si Si8 0.142449 0.411281 0.184559
O O1 0.141071 0.157701 0.778025
O O2 0.051708 0.097805 0.767218
O O3 0.140944 0.053875 0.708096
O O4 0.121642 0.085629 0.000000
O O5 0.196735 0.500000 0.500000
O O6 0.277799 0.500000 0.694513
O O7 0.194157 0.553745 0.770469
O O8 0.196077 0.000000 0.500000
O O9 0.317316 0.247638 0.232320
O O10 0.253084 0.332659 0.228596
O O11 0.321309 0.320761 0.000000
O O12 0.500000 0.500000 0.760331
O O13 0.500000 0.552808 0.500000
O O14 0.350946 0.147536 0.768443
O O15 0.289366 0.181717 0.000000
O O16 0.409762 0.944928 0.254929
O O17 0.500000 0.000000 0.241256
O O18 0.441451 0.000000 0.500000
O O19 0.139348 0.401530 0.000000
#
# Coordination Sequence:
#
# PCOD8288999 Si02
#       8
#    16   8   8  16   8  16   8  16
#     4  11  21  36  57  78 102 136 178 221 266 313
#     4  11  21  33  49  73 107 143 175 208 257 318
#     4  12  23  34  49  74 108 138 171 215 263 317
#     4  10  21  36  54  79 109 140 176 218 260 310
#     4   9  18  36  58  78 102 134 176 223 266 309
#     4  10  20  35  55  78 108 144 177 210 257 317
#     4   8  16  32  54  79 104 133 170 214 261 305
#     4  10  19  32  53  79 107 137 171 217 262 307
#
# _framework density 18.507995000000001
#
# number of rings (size 3 to 8) (size 9 to 14) (size 15 to 20)
#    0.000    1.833    0.833    5.000    0.000    2.000 
#    0.000    2.083    1.833    9.000    0.000    0.000 
#    0.000    0.000    0.000    0.000    0.000    0.000 
#
# Total GULP energy -595170.479192 kJ/mol
# GULP energy per Si atom -12399.384983 kJ/mol
# Density = 1.846587 g / cm^3
# Si number density = 18.507995 Si / 1000 Ang^3
#
#
#
# Elastic Constant Matrix: (Units=GPa)
#
#
# Indices 1 2 3 4 5 6 
#
# 1 133.8902 62.5928 16.8938 0.0000 0.0000 0.0000
# 2 62.5928 112.2884 21.4574 0.0000 0.0000 0.0000
# 3 16.8938 21.4574 48.3749 0.0000 0.0000 0.0000
# 4 0.0000 0.0000 0.0000 31.9602 0.0000 0.0000
# 5 0.0000 0.0000 0.0000 0.0000 21.4356 0.0000
# 6 0.0000 0.0000 0.0000 0.0000 0.0000 57.2015
#
#
#
# Elastic Compliance Matrix: (Units=1/GPa)
#
#
# Indices 1 2 3 4 5 6 
#
# 1 0.010157 -0.005446 -0.001132 0.000000 0.000000 0.000000
# 2 -0.005446 0.012650 -0.003709 0.000000 0.000000 0.000000
# 3 -0.001132 -0.003709 0.022712 0.000000 0.000000 0.000000
# 4 0.000000 0.000000 0.000000 0.031289 0.000000 0.000000
# 5 0.000000 0.000000 0.000000 0.000000 0.046651 0.000000
# 6 0.000000 0.000000 0.000000 0.000000 0.000000 0.017482
#
#
# Mechanical properties :
#
#
# Convention : Reuss Voigt Hill
#
# Bulk Modulus (GPa) = 40.08600 55.16017 47.62309
# Shear Modulus (GPa) = 29.44095 35.02676 32.23385
#
# Velocity S-wave (km/s) = 3.99270 4.35503 4.17780
# Velocity P-wave (km/s) = 6.55449 7.42674 7.00421
#
# Compressibility (1/GPa) = 0.02494636
#
# Stress axis : x y z
#
# Youngs Moduli (GPa) = 98.44955 79.05065 44.02878
#
# Poissons Ratio (x) = 0.43050 0.04983
# Poissons Ratio (y) = 0.53614 0.16332
# Poissons Ratio (z) = 0.11141 0.29322
#
# Static dielectric constant tensor:
#      x y z
#    x 3.470330 0.000000 0.000000 
#    y 0.000000 3.426290 0.000000 
#    z 0.000000 0.000000 3.268940 
# 
# 
# High freq. dielectric constant tensor:
#      x y z
#    x 1.701680 0.000000 0.000000 
#    y 0.000000 1.716510 0.000000 
#    z 0.000000 0.000000 1.716110 
# 
# From -- ./inp_files/12963.got.cif
#   From: 2010.06.25/outbox.cif.g09.slc.cpg/sg71_7_cif.got.tgz:12963.got - 2010.06.28 04:59:45.
