data_PCOD8288502
_publ_section_title
;
Structure prediction by ZEFSAII (Michael W. Deem and Ramdas Pophale) SiO2 
 PCOD8288502
Probable space group: I M M M
;
_chemical_formula_sum "Si O2"
_cell_formula_units_Z 96
_cell_length_a 20.493765
_cell_length_b 10.199657
_cell_length_c 28.370543
_cell_angle_alpha 90.000000
_cell_angle_beta 90.000000
_cell_angle_gamma 90.000000
_cell_volume 5930.276833
_symmetry_space_group_name_H-M "I M M M"
_symmetry_group_IT_number 71
_symmetry_cell_setting 'orthorhombic'
loop_
_space_group_symop_operation_xyz
x,y,z
-x,-y,z
x,-y,-z
-x,y,-z
-x,-y,-z
x,y,-z
-x,y,z
x,-y,z
1/2+x,1/2+y,1/2+z
1/2-x,1/2-y,1/2+z
1/2+x,1/2-y,1/2-z
1/2-x,1/2+y,1/2-z
1/2-x,1/2-y,1/2-z
1/2+x,1/2+y,1/2-z
1/2-x,1/2+y,1/2+z
1/2+x,1/2-y,1/2+z
loop_
_atom_site_type_symbol
_atom_site_label
_atom_site_fract_x
_atom_site_fract_y
_atom_site_fract_z
Si Si1 0.788739 0.145144 0.553726
Si Si2 0.399560 0.857771 0.852447
Si Si3 0.571829 0.745031 0.947535
Si Si4 0.928671 0.147812 0.277699
Si Si5 0.252665 0.146198 0.126598
Si Si6 0.200344 0.152571 0.224418
O O1 0.770518 0.176577 0.500000
O O2 0.867446 0.146884 0.560828
O O3 0.748259 0.248516 0.584827
O O4 0.765456 0.000000 0.568195
O O5 0.422505 0.854380 0.907015
O O6 0.431344 0.741794 0.822895
O O7 0.322203 0.843886 0.847984
O O8 0.421415 0.000000 0.832655
O O9 0.500000 0.675717 0.943801
O O10 0.578708 0.808806 0.000000
O O11 0.872875 0.188275 0.240802
O O12 0.000000 0.157034 0.252938
O O13 0.915956 0.000000 0.296173
O O14 0.200981 0.176771 0.168041
O O15 0.241723 0.000000 0.105509
O O16 0.250000 0.250000 0.250000
O O17 0.218139 0.000000 0.235665
#
# Coordination Sequence:
#
# PCOD8288502 Si02
#       6
#    16  16  16  16  16  16
#     4   9  18  31  46  65  88 114 146 186 230 272
#     4  10  19  31  46  64  86 114 153 197 235 272
#     4   9  18  30  41  56  82 115 151 192 235 275
#     4  10  21  34  48  68  94 123 152 187 234 281
#     4   9  18  31  47  67  89 116 152 189 227 270
#     4  10  19  33  51  70  93 121 157 195 230 275
#
# _framework density 16.188113999999999
#
# number of rings (size 3 to 8) (size 9 to 14) (size 15 to 20)
#    0.000    2.500    1.667    0.500    0.000    5.667 
#    0.000    5.833    0.000    0.000    0.000    0.000 
#    0.000    0.667    0.000    8.333    0.000    1.500 
#
# Total GULP energy -594707.173353 kJ/mol
# GULP energy per Si atom -12389.732778 kJ/mol
# Density = 1.615127 g / cm^3
# Si number density = 16.188114 Si / 1000 Ang^3
#
#
#
# Elastic Constant Matrix: (Units=GPa)
#
#
# Indices 1 2 3 4 5 6 
#
# 1 69.8672 37.0767 48.5138 0.0000 0.0000 0.0000
# 2 37.0767 109.9677 64.1827 0.0000 0.0000 0.0000
# 3 48.5138 64.1827 98.9234 0.0000 0.0000 0.0000
# 4 0.0000 0.0000 0.0000 24.3776 0.0000 0.0000
# 5 0.0000 0.0000 0.0000 0.0000 16.4440 0.0000
# 6 0.0000 0.0000 0.0000 0.0000 0.0000 10.9737
#
#
#
# Elastic Compliance Matrix: (Units=1/GPa)
#
#
# Indices 1 2 3 4 5 6 
#
# 1 0.021922 -0.001797 -0.009585 0.000000 0.000000 0.000000
# 2 -0.001797 0.014783 -0.008710 0.000000 0.000000 0.000000
# 3 -0.009585 -0.008710 0.020461 0.000000 0.000000 0.000000
# 4 0.000000 0.000000 0.000000 0.041021 0.000000 0.000000
# 5 0.000000 0.000000 0.000000 0.000000 0.060812 0.000000
# 6 0.000000 0.000000 0.000000 0.000000 0.000000 0.091127
#
#
# Mechanical properties :
#
#
# Convention : Reuss Voigt Hill
#
# Bulk Modulus (GPa) = 58.88746 64.25607 61.57176
# Shear Modulus (GPa) = 16.89349 18.95808 17.92578
#
# Velocity S-wave (km/s) = 3.23394 3.42586 3.33129
# Velocity P-wave (km/s) = 7.09933 7.44501 7.27423
#
# Compressibility (1/GPa) = 0.01698154
#
# Stress axis : x y z
#
# Youngs Moduli (GPa) = 45.61620 67.64448 48.87376
#
# Poissons Ratio (x) = 0.12155 0.46846
# Poissons Ratio (y) = 0.08197 0.42570
# Poissons Ratio (z) = 0.43724 0.58920
#
# Static dielectric constant tensor:
#      x y z
#    x 2.982270 0.000000 0.000000 
#    y 0.000000 3.079840 0.000000 
#    z 0.000000 0.000000 3.008750 
# 
# 
# High freq. dielectric constant tensor:
#      x y z
#    x 1.589910 0.000000 0.000000 
#    y 0.000000 1.622820 0.000000 
#    z 0.000000 0.000000 1.609260 
# 
# From -- ./inp_files/66952.got.cif
#   From: 2010.06.25/outbox.cif.g09.slc.cpg/sg71_34_cif.got.tgz:66952.got - 2010.06.28 04:59:45.
