data_PCOD8288418
_publ_section_title
;
Structure prediction by ZEFSAII (Michael W. Deem and Ramdas Pophale) SiO2 
 PCOD8288418
Probable space group: I M M M
;
_chemical_formula_sum "Si O2"
_cell_formula_units_Z 80
_cell_length_a 23.137373
_cell_length_b 9.115785
_cell_length_c 24.046773
_cell_angle_alpha 90.000000
_cell_angle_beta 90.000000
_cell_angle_gamma 90.000000
_cell_volume 5071.832768
_symmetry_space_group_name_H-M "I M M M"
_symmetry_group_IT_number 71
_symmetry_cell_setting 'orthorhombic'
loop_
_space_group_symop_operation_xyz
x,y,z
-x,-y,z
x,-y,-z
-x,y,-z
-x,-y,-z
x,y,-z
-x,y,z
x,-y,z
1/2+x,1/2+y,1/2+z
1/2-x,1/2-y,1/2+z
1/2+x,1/2-y,1/2-z
1/2-x,1/2+y,1/2-z
1/2-x,1/2-y,1/2-z
1/2+x,1/2+y,1/2-z
1/2-x,1/2+y,1/2+z
1/2+x,1/2-y,1/2+z
loop_
_atom_site_type_symbol
_atom_site_label
_atom_site_fract_x
_atom_site_fract_y
_atom_site_fract_z
Si Si1 0.663469 0.170111 0.726574
Si Si2 0.250730 0.169106 0.562244
Si Si3 0.933386 0.830578 0.166205
Si Si4 0.732725 0.830432 0.832777
Si Si5 0.613772 0.168878 0.562620
O O1 0.602622 0.245845 0.713505
O O2 0.678407 0.192498 0.791593
O O3 0.712551 0.240273 0.688472
O O4 0.659765 0.000000 0.710432
O O5 0.230945 0.212937 0.500000
O O6 0.215810 0.268854 0.606400
O O7 0.318511 0.199404 0.569247
O O8 0.236200 0.000000 0.573676
O O9 0.921410 0.769858 0.104673
O O10 0.000000 0.807366 0.181279
O O11 0.915659 0.000000 0.167245
O O12 0.750237 0.000000 0.836467
O O13 0.593888 0.207496 0.500000
O O14 0.599945 0.000000 0.576070
#
# Coordination Sequence:
#
# PCOD8288418 Si02
#       5
#    16  16  16  16  16
#     4  10  20  33  48  67  91 120 154 188 229 280
#     4   9  17  29  46  69  96 124 153 185 224 272
#     4  11  23  35  47  66  91 118 155 201 239 271
#     4  10  19  30  48  72  94 117 149 190 231 273
#     4   9  18  32  48  65  87 119 159 196 230 272
#
# _framework density 15.773389999999999
#
# number of rings (size 3 to 8) (size 9 to 14) (size 15 to 20)
#    0.000    2.200    2.000    3.000    0.000    5.200 
#    0.000    4.000    0.000    0.000    0.000    0.000 
#    0.000    0.800    0.000    8.800    0.000    6.400 
#
# Total GULP energy -495997.044202 kJ/mol
# GULP energy per Si atom -12399.926105 kJ/mol
# Density = 1.573749 g / cm^3
# Si number density = 15.773390 Si / 1000 Ang^3
#
#
#
# Elastic Constant Matrix: (Units=GPa)
#
#
# Indices 1 2 3 4 5 6 
#
# 1 57.4426 48.9468 48.0135 0.0000 0.0000 0.0000
# 2 48.9468 116.4863 72.4892 0.0000 0.0000 0.0000
# 3 48.0135 72.4892 117.2588 0.0000 0.0000 0.0000
# 4 0.0000 0.0000 0.0000 31.1412 0.0000 0.0000
# 5 0.0000 0.0000 0.0000 0.0000 19.6943 0.0000
# 6 0.0000 0.0000 0.0000 0.0000 0.0000 22.0768
#
#
#
# Elastic Compliance Matrix: (Units=1/GPa)
#
#
# Indices 1 2 3 4 5 6 
#
# 1 0.030671 -0.008244 -0.007462 0.000000 0.000000 0.000000
# 2 -0.008244 0.016168 -0.006619 0.000000 0.000000 0.000000
# 3 -0.007462 -0.006619 0.015676 0.000000 0.000000 0.000000
# 4 0.000000 0.000000 0.000000 0.032112 0.000000 0.000000
# 5 0.000000 0.000000 0.000000 0.000000 0.050776 0.000000
# 6 0.000000 0.000000 0.000000 0.000000 0.000000 0.045296
#
#
# Mechanical properties :
#
#
# Convention : Reuss Voigt Hill
#
# Bulk Modulus (GPa) = 55.98061 70.00963 62.99512
# Shear Modulus (GPa) = 20.72074 22.69834 21.70954
#
# Velocity S-wave (km/s) = 3.62836 3.79757 3.71393
# Velocity P-wave (km/s) = 7.28841 7.98183 7.64299
#
# Compressibility (1/GPa) = 0.01786333
#
# Stress axis : x y z
#
# Youngs Moduli (GPa) = 32.60451 61.85073 63.79257
#
# Poissons Ratio (x) = 0.50989 0.47604
# Poissons Ratio (y) = 0.26879 0.42227
# Poissons Ratio (z) = 0.24330 0.40942
#
# Static dielectric constant tensor:
#      x y z
#    x 2.678630 0.000000 0.000000 
#    y 0.000000 3.085880 0.000000 
#    z 0.000000 0.000000 3.236420 
# 
# 
# High freq. dielectric constant tensor:
#      x y z
#    x 1.556930 0.000000 0.000000 
#    y 0.000000 1.618310 0.000000 
#    z 0.000000 0.000000 1.610280 
# 
# From -- ./inp_files/16538.got.cif
#   From: 2010.06.25/outbox.cif.g09.slc.cpg/sg71_9_cif.got.tgz:16538.got - 2010.06.28 04:59:45.
