data_PCOD8288173
_publ_section_title
;
Structure prediction by ZEFSAII (Michael W. Deem and Ramdas Pophale) SiO2 
 PCOD8288173
Probable space group: I M M M
;
_chemical_formula_sum "Si O2"
_cell_formula_units_Z 104
_cell_length_a 23.741297
_cell_length_b 23.593919
_cell_length_c 9.548233
_cell_angle_alpha 90.000000
_cell_angle_beta 90.000000
_cell_angle_gamma 90.000000
_cell_volume 5348.444991
_symmetry_space_group_name_H-M "I M M M"
_symmetry_group_IT_number 71
_symmetry_cell_setting 'orthorhombic'
loop_
_space_group_symop_operation_xyz
x,y,z
-x,-y,z
x,-y,-z
-x,y,-z
-x,-y,-z
x,y,-z
-x,y,z
x,-y,z
1/2+x,1/2+y,1/2+z
1/2-x,1/2-y,1/2+z
1/2+x,1/2-y,1/2-z
1/2-x,1/2+y,1/2-z
1/2-x,1/2-y,1/2-z
1/2+x,1/2+y,1/2-z
1/2-x,1/2+y,1/2+z
1/2+x,1/2-y,1/2+z
loop_
_atom_site_type_symbol
_atom_site_label
_atom_site_fract_x
_atom_site_fract_y
_atom_site_fract_z
Si Si1 0.337026 0.863486 0.657979
Si Si2 0.893562 0.065911 0.661736
Si Si3 0.062039 0.235170 0.656229
Si Si4 0.500000 0.567579 0.339037
Si Si5 0.336822 0.730120 0.661756
Si Si6 0.438227 0.130126 0.842613
Si Si7 0.785905 0.139299 0.662210
O O1 0.356186 0.874961 0.500000
O O2 0.329658 0.796623 0.685382
O O3 0.385963 0.892594 0.750698
O O4 0.275321 0.890022 0.690059
O O5 0.909464 0.077377 0.500000
O O6 0.944235 0.089869 0.758023
O O7 0.835049 0.095889 0.703513
O O8 0.883625 0.000000 0.689913
O O9 0.080145 0.215381 0.500000
O O10 0.104480 0.209041 0.768800
O O11 0.061943 0.302559 0.662713
O O12 0.000000 0.211911 0.692494
O O13 0.500000 0.500000 0.333264
O O14 0.500000 0.589208 0.500000
O O15 0.336575 0.712951 0.500000
O O16 0.288319 0.695847 0.742795
O O17 0.500000 0.108896 0.788085
O O18 0.428978 0.108084 0.000000
O O19 0.789118 0.158171 0.500000
#
# Coordination Sequence:
#
# PCOD8288173 Si02
#       7
#    16  16  16   8  16  16  16
#     4   9  18  30  44  64  91 122 153 186 224 265
#     4   9  18  34  55  74  91 116 153 194 234 281
#     4   8  14  26  42  57  77 110 149 185 222 261
#     4   9  17  31  53  77  97 117 143 185 243 293
#     4  10  19  29  42  62  88 118 152 187 222 264
#     4   8  14  25  42  63  85 113 150 186 218 254
#     4  10  20  33  47  65  90 119 151 185 225 275
#
# _framework density 19.444904999999999
#
# number of rings (size 3 to 8) (size 9 to 14) (size 15 to 20)
#    0.000    3.000    0.000    2.077    0.000    3.385 
#    1.385    3.077    0.000    0.000    0.000    0.000 
#    0.000    0.615    0.000    7.692    0.000    1.538 
#
# Total GULP energy -644467.940435 kJ/mol
# GULP energy per Si atom -12393.614239 kJ/mol
# Density = 1.940065 g / cm^3
# Si number density = 19.444905 Si / 1000 Ang^3
#
#
#
# Elastic Constant Matrix: (Units=GPa)
#
#
# Indices 1 2 3 4 5 6 
#
# 1 175.3541 16.8378 81.4881 0.0000 0.0000 0.0000
# 2 16.8378 15.4613 10.6593 0.0000 0.0000 0.0000
# 3 81.4881 10.6593 103.7393 0.0000 0.0000 0.0000
# 4 0.0000 0.0000 0.0000 9.9405 0.0000 0.0000
# 5 0.0000 0.0000 0.0000 0.0000 34.4694 0.0000
# 6 0.0000 0.0000 0.0000 0.0000 0.0000 21.3981
#
#
#
# Elastic Compliance Matrix: (Units=1/GPa)
#
#
# Indices 1 2 3 4 5 6 
#
# 1 0.009402 -0.005540 -0.006816 0.000000 0.000000 0.000000
# 2 -0.005540 0.072873 -0.003136 0.000000 0.000000 0.000000
# 3 -0.006816 -0.003136 0.015316 0.000000 0.000000 0.000000
# 4 0.000000 0.000000 0.000000 0.100599 0.000000 0.000000
# 5 0.000000 0.000000 0.000000 0.000000 0.029011 0.000000
# 6 0.000000 0.000000 0.000000 0.000000 0.000000 0.046733
#
#
# Mechanical properties :
#
#
# Convention : Reuss Voigt Hill
#
# Bulk Modulus (GPa) = 15.01358 56.94725 35.98041
# Shear Modulus (GPa) = 15.28485 25.53289 20.40887
#
# Velocity S-wave (km/s) = 2.80672 3.62759 3.24323
# Velocity P-wave (km/s) = 4.27100 6.84806 5.70689
#
# Compressibility (1/GPa) = 0.06660635
#
# Stress axis : x y z
#
# Youngs Moduli (GPa) = 106.35676 13.72256 65.29089
#
# Poissons Ratio (x) = 0.07602 0.44505
# Poissons Ratio (y) = 0.58923 0.20475
# Poissons Ratio (z) = 0.72497 0.04303
#
# Static dielectric constant tensor:
#      x y z
#    x 4.029130 0.000000 0.000000 
#    y 0.000000 2.962570 0.000000 
#    z 0.000000 0.000000 3.618550 
# 
# 
# High freq. dielectric constant tensor:
#      x y z
#    x 1.774850 0.000000 0.000000 
#    y 0.000000 1.695490 0.000000 
#    z 0.000000 0.000000 1.749950 
# 
# From -- ./inp_files/13313.got.cif
#   From: 2010.06.25/outbox.cif.g09.slc.cpg/sg71_7_cif.got.tgz:13313.got - 2010.06.28 04:59:45.
