data_PCOD8288705
_publ_section_title
;
Structure prediction by ZEFSAII (Michael W. Deem and Ramdas Pophale) SiO2 
 PCOD8288705
Probable space group: I M M M
;
_chemical_formula_sum "Si O2"
_cell_formula_units_Z 120
_cell_length_a 27.800841
_cell_length_b 26.977175
_cell_length_c 8.892647
_cell_angle_alpha 90.000000
_cell_angle_beta 90.000000
_cell_angle_gamma 90.000000
_cell_volume 6669.379897
_symmetry_space_group_name_H-M "I M M M"
_symmetry_group_IT_number 71
_symmetry_cell_setting 'orthorhombic'
loop_
_space_group_symop_operation_xyz
x,y,z
-x,-y,z
x,-y,-z
-x,y,-z
-x,-y,-z
x,y,-z
-x,y,z
x,-y,z
1/2+x,1/2+y,1/2+z
1/2-x,1/2-y,1/2+z
1/2+x,1/2-y,1/2-z
1/2-x,1/2+y,1/2-z
1/2-x,1/2-y,1/2-z
1/2+x,1/2+y,1/2-z
1/2-x,1/2+y,1/2+z
1/2+x,1/2-y,1/2+z
loop_
_atom_site_type_symbol
_atom_site_label
_atom_site_fract_x
_atom_site_fract_y
_atom_site_fract_z
Si Si1 0.791034 0.055321 0.325025
Si Si2 0.131820 0.760031 0.673708
Si Si3 0.711428 0.819339 0.169452
Si Si4 0.552672 0.000000 0.660163
Si Si5 0.908675 0.589568 0.324006
Si Si6 0.813828 0.414322 0.828143
Si Si7 0.055975 0.309611 0.178241
Si Si8 0.318872 0.345087 0.671953
O O1 0.799658 0.066936 0.500000
O O2 0.734164 0.055373 0.289334
O O3 0.816936 0.098224 0.230572
O O4 0.810357 0.000000 0.283071
O O5 0.117428 0.762792 0.500000
O O6 0.182348 0.731112 0.697143
O O7 0.086662 0.736720 0.761343
O O8 0.140640 0.815346 0.736042
O O9 0.693525 0.856318 0.297308
O O10 0.768819 0.814761 0.188922
O O11 0.700031 0.839308 0.000000
O O12 0.556182 0.951791 0.763426
O O13 0.500000 0.000000 0.597940
O O14 0.583340 0.000000 0.500000
O O15 0.914079 0.597056 0.500000
O O16 0.856191 0.567913 0.280968
O O17 0.920092 0.641535 0.246511
O O18 0.829401 0.421825 0.000000
O O19 0.000000 0.304535 0.227421
O O20 0.060398 0.312179 0.000000
O O21 0.335110 0.347664 0.500000
#
# Coordination Sequence:
#
# PCOD8288705 Si02
#       8
#    16  16  16   8  16  16  16  16
#     4   9  19  35  53  75 105 143 184 224 266 314
#     4  11  21  34  54  79 109 142 178 220 269 323
#     4   9  18  32  49  73 104 137 173 215 260 311
#     4  11  25  43  59  73  91 121 167 223 279 331
#     4  12  24  38  56  78 103 132 171 222 278 332
#     4  10  19  31  51  75 101 137 177 217 262 313
#     4  11  24  41  60  81 105 138 180 224 274 331
#     4  10  20  33  51  77 110 144 180 219 265 320
#
# _framework density 17.992677
#
# number of rings (size 3 to 8) (size 9 to 14) (size 15 to 20)
#    0.000    1.667    1.333    3.800    0.933    5.067 
#    0.000    0.000    0.000    0.000    0.000    0.000 
#    0.000    0.533    0.000    5.600    0.000    2.400 
#
# Total GULP energy -743698.912832 kJ/mol
# GULP energy per Si atom -12394.981881 kJ/mol
# Density = 1.795173 g / cm^3
# Si number density = 17.992677 Si / 1000 Ang^3
#
#
#
# Elastic Constant Matrix: (Units=GPa)
#
#
# Indices 1 2 3 4 5 6 
#
# 1 45.9339 32.9852 28.7778 0.0000 0.0000 0.0000
# 2 32.9852 94.9571 41.6863 0.0000 0.0000 0.0000
# 3 28.7778 41.6863 92.0424 0.0000 0.0000 0.0000
# 4 0.0000 0.0000 0.0000 32.2216 0.0000 0.0000
# 5 0.0000 0.0000 0.0000 0.0000 21.4524 0.0000
# 6 0.0000 0.0000 0.0000 0.0000 0.0000 26.8125
#
#
#
# Elastic Compliance Matrix: (Units=1/GPa)
#
#
# Indices 1 2 3 4 5 6 
#
# 1 0.031542 -0.008272 -0.006115 0.000000 0.000000 0.000000
# 2 -0.008272 0.015314 -0.004349 0.000000 0.000000 0.000000
# 3 -0.006115 -0.004349 0.014746 0.000000 0.000000 0.000000
# 4 0.000000 0.000000 0.000000 0.031035 0.000000 0.000000
# 5 0.000000 0.000000 0.000000 0.000000 0.046615 0.000000
# 6 0.000000 0.000000 0.000000 0.000000 0.000000 0.037296
#
#
# Mechanical properties :
#
#
# Convention : Reuss Voigt Hill
#
# Bulk Modulus (GPa) = 41.44460 48.87022 45.15741
# Shear Modulus (GPa) = 22.51595 24.72956 23.62275
#
# Velocity S-wave (km/s) = 3.54134 3.71134 3.62734
# Velocity P-wave (km/s) = 6.30917 6.75171 6.53419
#
# Compressibility (1/GPa) = 0.02412860
#
# Stress axis : x y z
#
# Youngs Moduli (GPa) = 31.70386 65.30003 67.81286
#
# Poissons Ratio (x) = 0.54016 0.41470
# Poissons Ratio (y) = 0.26226 0.29495
# Poissons Ratio (z) = 0.19388 0.28402
#
# Static dielectric constant tensor:
#      x y z
#    x 3.169020 0.000000 0.000000 
#    y 0.000000 3.177490 0.000000 
#    z 0.000000 0.000000 3.410160 
# 
# 
# High freq. dielectric constant tensor:
#      x y z
#    x 1.660090 0.000000 0.000000 
#    y 0.000000 1.684410 0.000000 
#    z 0.000000 0.000000 1.712110 
# 
# From -- ./inp_files/15591.got.cif
#   From: 2010.06.25/outbox.cif.g09.slc.cpg/sg71_8_cif.got.tgz:15591.got - 2010.06.28 04:59:45.
