data_PCOD8288693
_publ_section_title
;
Structure prediction by ZEFSAII (Michael W. Deem and Ramdas Pophale) SiO2 
 PCOD8288693
Probable space group: I M M M
;
_chemical_formula_sum "Si O2"
_cell_formula_units_Z 88
_cell_length_a 17.651906
_cell_length_b 19.658014
_cell_length_c 13.297667
_cell_angle_alpha 90.000000
_cell_angle_beta 90.000000
_cell_angle_gamma 90.000000
_cell_volume 4614.309269
_symmetry_space_group_name_H-M "I M M M"
_symmetry_group_IT_number 71
_symmetry_cell_setting 'orthorhombic'
loop_
_space_group_symop_operation_xyz
x,y,z
-x,-y,z
x,-y,-z
-x,y,-z
-x,-y,-z
x,y,-z
-x,y,z
x,-y,z
1/2+x,1/2+y,1/2+z
1/2-x,1/2-y,1/2+z
1/2+x,1/2-y,1/2-z
1/2-x,1/2+y,1/2-z
1/2-x,1/2-y,1/2-z
1/2+x,1/2+y,1/2-z
1/2-x,1/2+y,1/2+z
1/2+x,1/2-y,1/2+z
loop_
_atom_site_type_symbol
_atom_site_label
_atom_site_fract_x
_atom_site_fract_y
_atom_site_fract_z
Si Si1 0.588327 0.798887 0.196011
Si Si2 0.221519 0.921633 0.301245
Si Si3 0.321789 0.922929 0.114232
Si Si4 0.086448 0.845457 0.385087
Si Si5 0.500000 0.073587 0.381765
Si Si6 0.354246 0.841562 0.613539
O O1 0.500000 0.805479 0.221728
O O2 0.613874 0.867847 0.139812
O O3 0.604934 0.734568 0.125351
O O4 0.637320 0.784410 0.299481
O O5 0.249578 0.911628 0.186887
O O6 0.137954 0.890497 0.311554
O O7 0.276186 0.882539 0.379587
O O8 0.219861 0.000000 0.333264
O O9 0.353834 0.000000 0.128791
O O10 0.293824 0.912195 0.000000
O O11 0.101580 0.866426 0.500000
O O12 0.000000 0.860230 0.353834
O O13 0.500000 0.066033 0.500000
O O14 0.422814 0.109986 0.349984
O O15 0.500000 0.000000 0.329231
O O16 0.364115 0.812813 0.500000
#
# Coordination Sequence:
#
# PCOD8288693 Si02
#       6
#    16  16  16  16   8  16
#     4  10  20  35  52  75 108 148 184 222 261 311
#     4  10  21  37  57  81 107 136 176 224 270 324
#     4   9  19  35  55  80 109 141 176 216 262 311
#     4  10  22  39  58  79 105 138 176 222 276 322
#     4   9  16  26  42  68 105 145 176 203 247 303
#     4  10  19  31  50  78 110 146 179 215 261 312
#
# _framework density 19.071110000000001
#
# number of rings (size 3 to 8) (size 9 to 14) (size 15 to 20)
#    0.000    2.273    0.909    1.636    0.000    7.636 
#    0.000    4.545    0.000    1.636    0.000    2.545 
#    0.000    0.000    0.000    0.000    0.000    0.000 
#
# Total GULP energy -545387.470001 kJ/mol
# GULP energy per Si atom -12395.169773 kJ/mol
# Density = 1.902770 g / cm^3
# Si number density = 19.071110 Si / 1000 Ang^3
#
#
#
# Elastic Constant Matrix: (Units=GPa)
#
#
# Indices 1 2 3 4 5 6 
#
# 1 97.8441 38.0250 28.3068 0.0000 0.0000 0.0000
# 2 38.0250 47.1934 19.0455 0.0000 0.0000 0.0000
# 3 28.3068 19.0455 101.3846 0.0000 0.0000 0.0000
# 4 0.0000 0.0000 0.0000 23.5969 0.0000 0.0000
# 5 0.0000 0.0000 0.0000 0.0000 20.9080 0.0000
# 6 0.0000 0.0000 0.0000 0.0000 0.0000 29.0388
#
#
#
# Elastic Compliance Matrix: (Units=1/GPa)
#
#
# Indices 1 2 3 4 5 6 
#
# 1 0.015287 -0.011464 -0.002115 0.000000 0.000000 0.000000
# 2 -0.011464 0.031524 -0.002721 0.000000 0.000000 0.000000
# 3 -0.002115 -0.002721 0.010965 0.000000 0.000000 0.000000
# 4 0.000000 0.000000 0.000000 0.042378 0.000000 0.000000
# 5 0.000000 0.000000 0.000000 0.000000 0.047829 0.000000
# 6 0.000000 0.000000 0.000000 0.000000 0.000000 0.034437
#
#
# Mechanical properties :
#
#
# Convention : Reuss Voigt Hill
#
# Bulk Modulus (GPa) = 39.71882 46.35298 43.03590
# Shear Modulus (GPa) = 22.38008 25.44506 23.91257
#
# Velocity S-wave (km/s) = 3.42937 3.65666 3.54484
# Velocity P-wave (km/s) = 6.04588 6.49510 6.27451
#
# Compressibility (1/GPa) = 0.02517698
#
# Stress axis : x y z
#
# Youngs Moduli (GPa) = 65.41336 31.72136 91.19884
#
# Poissons Ratio (x) = 0.36366 0.19286
# Poissons Ratio (y) = 0.74990 0.24817
# Poissons Ratio (z) = 0.13833 0.08632
#
# Static dielectric constant tensor:
#      x y z
#    x 3.395290 0.000000 0.000000 
#    y 0.000000 3.469850 0.000000 
#    z 0.000000 0.000000 3.554570 
# 
# 
# High freq. dielectric constant tensor:
#      x y z
#    x 1.731190 0.000000 0.000000 
#    y 0.000000 1.723200 0.000000 
#    z 0.000000 0.000000 1.748160 
# 
# From -- ./inp_files/36370.got.cif
#   From: 2010.06.25/outbox.cif.g09.slc.cpg/sg71_19_cif.got.tgz:36370.got - 2010.06.28 04:59:45.
