data_PCOD8288890
_publ_section_title
;
Structure prediction by ZEFSAII (Michael W. Deem and Ramdas Pophale) SiO2 
 PCOD8288890
Probable space group: I M M M
;
_chemical_formula_sum "Si O2"
_cell_formula_units_Z 72
_cell_length_a 29.240103
_cell_length_b 15.636003
_cell_length_c 7.888157
_cell_angle_alpha 90.000000
_cell_angle_beta 90.000000
_cell_angle_gamma 90.000000
_cell_volume 3606.452272
_symmetry_space_group_name_H-M "I M M M"
_symmetry_group_IT_number 71
_symmetry_cell_setting 'orthorhombic'
loop_
_space_group_symop_operation_xyz
x,y,z
-x,-y,z
x,-y,-z
-x,y,-z
-x,-y,-z
x,y,-z
-x,y,z
x,-y,z
1/2+x,1/2+y,1/2+z
1/2-x,1/2-y,1/2+z
1/2+x,1/2-y,1/2-z
1/2-x,1/2+y,1/2-z
1/2-x,1/2-y,1/2-z
1/2+x,1/2+y,1/2-z
1/2-x,1/2+y,1/2+z
1/2+x,1/2-y,1/2+z
loop_
_atom_site_type_symbol
_atom_site_label
_atom_site_fract_x
_atom_site_fract_y
_atom_site_fract_z
Si Si1 0.212761 0.903428 0.197296
Si Si2 0.948473 0.710012 0.691497
Si Si3 0.140795 0.234846 0.797675
Si Si4 0.553537 0.092323 0.500000
Si Si5 0.813249 0.405795 0.194549
O O1 0.173932 0.839918 0.268041
O O2 0.259590 0.884072 0.294480
O O3 0.195865 0.000000 0.231511
O O4 0.222009 0.887128 0.000000
O O5 0.947657 0.673379 0.500000
O O6 0.909828 0.783102 0.717150
O O7 0.000000 0.743639 0.733897
O O8 0.931993 0.638824 0.826707
O O9 0.158690 0.326729 0.724622
O O10 0.137989 0.233771 0.000000
O O11 0.500000 0.080309 0.500000
O O12 0.578084 0.000000 0.500000
O O13 0.822833 0.500000 0.279988
O O14 0.827687 0.410928 0.000000
#
# Coordination Sequence:
#
# PCOD8288890 Si02
#       5
#    16  16  16   8  16
#     4   9  18  32  50  73 103 136 175 222 268 320
#     4  10  21  36  54  78 106 139 183 226 267 320
#     4  10  19  32  51  75 102 140 181 219 270 324
#     4   9  18  34  54  74 103 141 175 217 270 314
#     4   9  18  31  47  71 103 137 173 214 260 316
#
# _framework density 19.964217000000001
#
# number of rings (size 3 to 8) (size 9 to 14) (size 15 to 20)
#    0.000    2.556    1.111    0.667    0.000    3.111 
#    0.000    2.222    0.000    0.667    0.000    4.667 
#    0.000    0.000    0.000    0.000    0.000    0.000 
#
# Total GULP energy -446053.462101 kJ/mol
# GULP energy per Si atom -12390.373947 kJ/mol
# Density = 1.991878 g / cm^3
# Si number density = 19.964217 Si / 1000 Ang^3
#
#
#
# Elastic Constant Matrix: (Units=GPa)
#
#
# Indices 1 2 3 4 5 6 
#
# 1 105.5811 55.6309 6.2203 0.0000 0.0000 0.0000
# 2 55.6309 90.1752 11.4009 0.0000 0.0000 0.0000
# 3 6.2203 11.4009 55.0612 0.0000 0.0000 0.0000
# 4 0.0000 0.0000 0.0000 38.7325 0.0000 0.0000
# 5 0.0000 0.0000 0.0000 0.0000 29.5445 0.0000
# 6 0.0000 0.0000 0.0000 0.0000 0.0000 17.7091
#
#
#
# Elastic Compliance Matrix: (Units=1/GPa)
#
#
# Indices 1 2 3 4 5 6 
#
# 1 0.014035 -0.008686 0.000213 0.000000 0.000000 0.000000
# 2 -0.008686 0.016763 -0.002490 0.000000 0.000000 0.000000
# 3 0.000213 -0.002490 0.018653 0.000000 0.000000 0.000000
# 4 0.000000 0.000000 0.000000 0.025818 0.000000 0.000000
# 5 0.000000 0.000000 0.000000 0.000000 0.033847 0.000000
# 6 0.000000 0.000000 0.000000 0.000000 0.000000 0.056468
#
#
# Mechanical properties :
#
#
# Convention : Reuss Voigt Hill
#
# Bulk Modulus (GPa) = 36.32895 44.14685 40.23790
# Shear Modulus (GPa) = 25.42142 29.03492 27.22817
#
# Velocity S-wave (km/s) = 3.57227 3.81773 3.69704
# Velocity P-wave (km/s) = 5.93729 6.44937 6.19862
#
# Compressibility (1/GPa) = 0.02752626
#
# Stress axis : x y z
#
# Youngs Moduli (GPa) = 71.24893 59.65665 53.61052
#
# Poissons Ratio (x) = 0.51815 -0.01141
# Poissons Ratio (y) = 0.61884 0.13347
# Poissons Ratio (z) = -0.01517 0.14852
#
# Static dielectric constant tensor:
#      x y z
#    x 3.849520 0.000000 0.000000 
#    y 0.000000 3.754460 0.000000 
#    z 0.000000 0.000000 3.451640 
# 
# 
# High freq. dielectric constant tensor:
#      x y z
#    x 1.791630 0.000000 0.000000 
#    y 0.000000 1.744960 0.000000 
#    z 0.000000 0.000000 1.765370 
# 
# From -- ./inp_files/16370.got.cif
#   From: 2010.06.25/outbox.cif.g09.slc.cpg/sg71_9_cif.got.tgz:16370.got - 2010.06.28 04:59:45.
