data_PCOD8288691
_publ_section_title
;
Structure prediction by ZEFSAII (Michael W. Deem and Ramdas Pophale) SiO2 
 PCOD8288691
Probable space group: I M M M
;
_chemical_formula_sum "Si O2"
_cell_formula_units_Z 104
_cell_length_a 9.099951
_cell_length_b 20.389883
_cell_length_c 29.909365
_cell_angle_alpha 90.000000
_cell_angle_beta 90.000000
_cell_angle_gamma 90.000000
_cell_volume 5549.591039
_symmetry_space_group_name_H-M "I M M M"
_symmetry_group_IT_number 71
_symmetry_cell_setting 'orthorhombic'
loop_
_space_group_symop_operation_xyz
x,y,z
-x,-y,z
x,-y,-z
-x,y,-z
-x,-y,-z
x,y,-z
-x,y,z
x,-y,z
1/2+x,1/2+y,1/2+z
1/2-x,1/2-y,1/2+z
1/2+x,1/2-y,1/2-z
1/2-x,1/2+y,1/2-z
1/2-x,1/2-y,1/2-z
1/2+x,1/2+y,1/2-z
1/2-x,1/2+y,1/2+z
1/2+x,1/2-y,1/2+z
loop_
_atom_site_type_symbol
_atom_site_label
_atom_site_fract_x
_atom_site_fract_y
_atom_site_fract_z
Si Si1 0.825787 0.215238 0.792135
Si Si2 0.336345 0.375188 0.447157
Si Si3 0.164943 0.073689 0.674759
Si Si4 0.165319 0.500000 0.446489
Si Si5 0.171040 0.313910 0.870239
Si Si6 0.327435 0.744051 0.051058
Si Si7 0.329704 0.570947 0.720626
O O1 0.750000 0.250000 0.750000
O O2 0.785302 0.254917 0.836838
O O3 0.767084 0.139748 0.799531
O O4 0.000000 0.215440 0.782801
O O5 0.347198 0.382557 0.500000
O O6 0.500000 0.371756 0.426210
O O7 0.250481 0.437195 0.427100
O O8 0.247159 0.311382 0.433568
O O9 0.287625 0.116973 0.651082
O O10 0.197370 0.075789 0.726913
O O11 0.000000 0.100358 0.665103
O O12 0.180228 0.000000 0.656311
O O13 0.163029 0.500000 0.500000
O O14 0.000000 0.500000 0.427778
O O15 0.262173 0.310617 0.916337
O O16 0.000000 0.312648 0.881718
O O17 0.500000 0.751393 0.057238
O O18 0.287136 0.725931 0.000000
O O19 0.500000 0.567426 0.708998
O O20 0.260044 0.500000 0.703836
#
# Coordination Sequence:
#
# PCOD8288691 Si02
#       7
#    16  16  16   8  16  16  16
#     4  10  19  31  50  78 110 142 178 217 260 313
#     4   9  16  27  45  69  95 121 154 204 263 315
#     4   9  17  31  53  79 106 141 183 219 253 304
#     4   9  15  23  39  65  95 125 159 199 249 313
#     4  11  22  33  51  81 113 143 173 217 277 328
#     4  10  21  37  56  75  96 131 180 229 277 329
#     4   8  14  27  49  74 102 140 182 218 251 295
#
# _framework density 18.740119
#
# number of rings (size 3 to 8) (size 9 to 14) (size 15 to 20)
#    0.000    2.538    1.538    2.538    0.000    4.615 
#    0.000    0.000    1.692    0.923    0.000    3.231 
#    0.000    0.000    0.000    0.000    0.000    0.000 
#
# Total GULP energy -644455.528071 kJ/mol
# GULP energy per Si atom -12393.375540 kJ/mol
# Density = 1.869747 g / cm^3
# Si number density = 18.740119 Si / 1000 Ang^3
#
#
#
# Elastic Constant Matrix: (Units=GPa)
#
#
# Indices 1 2 3 4 5 6 
#
# 1 81.0443 28.6565 32.1340 0.0000 0.0000 0.0000
# 2 28.6565 114.1266 30.8897 0.0000 0.0000 0.0000
# 3 32.1340 30.8897 48.5890 0.0000 0.0000 0.0000
# 4 0.0000 0.0000 0.0000 32.6347 0.0000 0.0000
# 5 0.0000 0.0000 0.0000 0.0000 19.8725 0.0000
# 6 0.0000 0.0000 0.0000 0.0000 0.0000 32.5654
#
#
#
# Elastic Compliance Matrix: (Units=1/GPa)
#
#
# Indices 1 2 3 4 5 6 
#
# 1 0.016927 -0.001474 -0.010258 0.000000 0.000000 0.000000
# 2 -0.001474 0.010712 -0.005835 0.000000 0.000000 0.000000
# 3 -0.010258 -0.005835 0.031074 0.000000 0.000000 0.000000
# 4 0.000000 0.000000 0.000000 0.030642 0.000000 0.000000
# 5 0.000000 0.000000 0.000000 0.000000 0.050321 0.000000
# 6 0.000000 0.000000 0.000000 0.000000 0.000000 0.030707
#
#
# Mechanical properties :
#
#
# Convention : Reuss Voigt Hill
#
# Bulk Modulus (GPa) = 42.40916 47.45782 44.93349
# Shear Modulus (GPa) = 23.43274 27.15316 25.29295
#
# Velocity S-wave (km/s) = 3.53994 3.81061 3.67777
# Velocity P-wave (km/s) = 6.27595 6.68881 6.48567
#
# Compressibility (1/GPa) = 0.02357981
#
# Stress axis : x y z
#
# Youngs Moduli (GPa) = 59.07627 93.35667 32.18110
#
# Poissons Ratio (x) = 0.13761 0.33010
# Poissons Ratio (y) = 0.08708 0.18778
# Poissons Ratio (z) = 0.60599 0.54473
#
# Static dielectric constant tensor:
#      x y z
#    x 3.361360 0.000000 0.000000 
#    y 0.000000 3.739530 0.000000 
#    z 0.000000 0.000000 3.114280 
# 
# 
# High freq. dielectric constant tensor:
#      x y z
#    x 1.716110 0.000000 0.000000 
#    y 0.000000 1.733240 0.000000 
#    z 0.000000 0.000000 1.693340 
# 
# From -- ./inp_files/63291.got.cif
#   From: 2010.06.25/outbox.cif.g09.slc.cpg/sg71_32_cif.got.tgz:63291.got - 2010.06.28 04:59:45.
