data_PCOD8288459
_publ_section_title
;
Structure prediction by ZEFSAII (Michael W. Deem and Ramdas Pophale) SiO2 
 PCOD8288459
Probable space group: I M M M
;
_chemical_formula_sum "Si O2"
_cell_formula_units_Z 96
_cell_length_a 24.668364
_cell_length_b 24.336715
_cell_length_c 8.984513
_cell_angle_alpha 90.000000
_cell_angle_beta 90.000000
_cell_angle_gamma 90.000000
_cell_volume 5393.824925
_symmetry_space_group_name_H-M "I M M M"
_symmetry_group_IT_number 71
_symmetry_cell_setting 'orthorhombic'
loop_
_space_group_symop_operation_xyz
x,y,z
-x,-y,z
x,-y,-z
-x,y,-z
-x,-y,-z
x,y,-z
-x,y,z
x,-y,z
1/2+x,1/2+y,1/2+z
1/2-x,1/2-y,1/2+z
1/2+x,1/2-y,1/2-z
1/2-x,1/2+y,1/2-z
1/2-x,1/2-y,1/2-z
1/2+x,1/2+y,1/2-z
1/2-x,1/2+y,1/2+z
1/2+x,1/2-y,1/2+z
loop_
_atom_site_type_symbol
_atom_site_label
_atom_site_fract_x
_atom_site_fract_y
_atom_site_fract_z
Si Si1 0.723882 0.500000 0.838079
Si Si2 0.634030 0.411484 0.830039
Si Si3 0.829583 0.500000 0.326402
Si Si4 0.312617 0.800254 0.172935
Si Si5 0.563851 0.500000 0.672183
Si Si6 0.190371 0.813802 0.173441
Si Si7 0.606286 0.103167 0.175484
Si Si8 0.500000 0.935977 0.676517
O O1 0.688529 0.446054 0.820493
O O2 0.766522 0.500000 0.707114
O O3 0.752575 0.500000 0.000000
O O4 0.586537 0.444256 0.746004
O O5 0.648037 0.353384 0.756265
O O6 0.615334 0.402390 0.000000
O O7 0.836990 0.500000 0.500000
O O8 0.857429 0.553812 0.259873
O O9 0.253713 0.827422 0.208565
O O10 0.322586 0.747617 0.274381
O O11 0.361136 0.841542 0.212901
O O12 0.314049 0.782932 0.000000
O O13 0.500000 0.500000 0.694852
O O14 0.580810 0.500000 0.500000
O O15 0.178214 0.819107 0.000000
O O16 0.550237 0.099130 0.262598
O O17 0.595076 0.098096 0.000000
O O18 0.500000 0.934790 0.500000
O O19 0.500000 0.000000 0.733084
#
# Coordination Sequence:
#
# PCOD8288459 Si02
#       8
#     8  16   8  16   8  16  16   8
#     4   9  19  31  45  73 109 141 169 204 257 310
#     4  10  20  34  53  78 110 145 178 214 259 317
#     4  10  19  30  49  76 104 134 171 215 261 315
#     4   9  19  34  53  80 110 142 180 219 263 320
#     4  10  21  37  58  83 108 137 176 222 271 319
#     4  10  19  33  55  81 111 145 178 216 264 314
#     4  10  20  35  55  75 100 137 179 220 263 316
#     4  11  23  37  53  75 103 135 175 224 273 316
#
# _framework density 17.79813
#
# number of rings (size 3 to 8) (size 9 to 14) (size 15 to 20)
#    0.000    2.167    0.833    3.000    0.000    6.333 
#    0.000    0.000    1.833    0.000    0.000    0.000 
#    0.000    0.000    0.000    0.000    0.000    0.000 
#
# Total GULP energy -595149.776141 kJ/mol
# GULP energy per Si atom -12398.953670 kJ/mol
# Density = 1.775762 g / cm^3
# Si number density = 17.798130 Si / 1000 Ang^3
#
#
#
# Elastic Constant Matrix: (Units=GPa)
#
#
# Indices 1 2 3 4 5 6 
#
# 1 106.1806 50.7293 53.3335 0.0000 0.0000 0.0000
# 2 50.7293 92.8896 55.4123 0.0000 0.0000 0.0000
# 3 53.3335 55.4123 92.8588 0.0000 0.0000 0.0000
# 4 0.0000 0.0000 0.0000 27.0168 0.0000 0.0000
# 5 0.0000 0.0000 0.0000 0.0000 21.7574 0.0000
# 6 0.0000 0.0000 0.0000 0.0000 0.0000 57.3045
#
#
#
# Elastic Compliance Matrix: (Units=1/GPa)
#
#
# Indices 1 2 3 4 5 6 
#
# 1 0.014373 -0.004542 -0.005545 0.000000 0.000000 0.000000
# 2 -0.004542 0.018151 -0.008223 0.000000 0.000000 0.000000
# 3 -0.005545 -0.008223 0.018861 0.000000 0.000000 0.000000
# 4 0.000000 0.000000 0.000000 0.037014 0.000000 0.000000
# 5 0.000000 0.000000 0.000000 0.000000 0.045961 0.000000
# 6 0.000000 0.000000 0.000000 0.000000 0.000000 0.017451
#
#
# Mechanical properties :
#
#
# Convention : Reuss Voigt Hill
#
# Bulk Modulus (GPa) = 67.72453 67.87547 67.80000
# Shear Modulus (GPa) = 25.85962 30.04598 27.95280
#
# Velocity S-wave (km/s) = 3.81588 4.11317 3.96731
# Velocity P-wave (km/s) = 7.58609 7.79594 7.69173
#
# Compressibility (1/GPa) = 0.01476570
#
# Stress axis : x y z
#
# Youngs Moduli (GPa) = 69.57522 55.09322 53.02028
#
# Poissons Ratio (x) = 0.25021 0.29399
# Poissons Ratio (y) = 0.31599 0.43598
# Poissons Ratio (z) = 0.38579 0.45303
#
# Static dielectric constant tensor:
#      x y z
#    x 3.140240 0.000000 0.000000 
#    y 0.000000 3.192770 0.000000 
#    z 0.000000 0.000000 3.334580 
# 
# 
# High freq. dielectric constant tensor:
#      x y z
#    x 1.675680 0.000000 0.000000 
#    y 0.000000 1.685930 0.000000 
#    z 0.000000 0.000000 1.693880 
# 
# From -- ./inp_files/12988.got.cif
#   From: 2010.06.25/outbox.cif.g09.slc.cpg/sg71_7_cif.got.tgz:12988.got - 2010.06.28 04:59:45.
