data_PCOD8288974
_publ_section_title
;
Structure prediction by ZEFSAII (Michael W. Deem and Ramdas Pophale) SiO2 
 PCOD8288974
Probable space group: I M M M
;
_chemical_formula_sum "Si O2"
_cell_formula_units_Z 104
_cell_length_a 14.683549
_cell_length_b 18.952569
_cell_length_c 19.469811
_cell_angle_alpha 90.000000
_cell_angle_beta 90.000000
_cell_angle_gamma 90.000000
_cell_volume 5418.272698
_symmetry_space_group_name_H-M "I M M M"
_symmetry_group_IT_number 71
_symmetry_cell_setting 'orthorhombic'
loop_
_space_group_symop_operation_xyz
x,y,z
-x,-y,z
x,-y,-z
-x,y,-z
-x,-y,-z
x,y,-z
-x,y,z
x,-y,z
1/2+x,1/2+y,1/2+z
1/2-x,1/2-y,1/2+z
1/2+x,1/2-y,1/2-z
1/2-x,1/2+y,1/2-z
1/2-x,1/2-y,1/2-z
1/2+x,1/2+y,1/2-z
1/2-x,1/2+y,1/2+z
1/2+x,1/2-y,1/2+z
loop_
_atom_site_type_symbol
_atom_site_label
_atom_site_fract_x
_atom_site_fract_y
_atom_site_fract_z
Si Si1 0.604483 0.693998 0.421287
Si Si2 0.600708 0.921985 0.747540
Si Si3 0.229007 0.791194 0.579800
Si Si4 0.105699 0.918842 0.805472
Si Si5 0.279421 0.420644 0.171973
Si Si6 0.105919 0.328946 0.624337
Si Si7 0.891471 0.421892 0.500000
O O1 0.617357 0.667573 0.500000
O O2 0.500000 0.717491 0.408321
O O3 0.668590 0.761940 0.407134
O O4 0.632199 0.630168 0.370335
O O5 0.500000 0.907454 0.717345
O O6 0.671893 0.917728 0.686395
O O7 0.626532 0.864137 0.803287
O O8 0.604100 0.000000 0.782174
O O9 0.204260 0.791015 0.500000
O O10 0.209701 0.869519 0.607406
O O11 0.158462 0.744003 0.621872
O O12 0.163912 0.895718 0.738920
O O13 0.000000 0.909529 0.786383
O O14 0.127770 0.000000 0.825286
O O15 0.309723 0.500000 0.151128
O O16 0.145188 0.380771 0.566209
O O17 0.000000 0.313891 0.612694
O O18 0.849154 0.500000 0.500000
O O19 0.000000 0.426148 0.500000
#
# Coordination Sequence:
#
# PCOD8288974 Si02
#       7
#    16  16  16  16  16  16   8
#     4   9  19  35  55  80 111 144 177 214 261 314
#     4   9  18  33  54  81 112 141 171 211 259 317
#     4  11  23  38  55  75 105 138 178 230 276 320
#     4   9  18  34  56  81 110 143 180 218 255 307
#     4  10  22  39  57  76 100 135 180 231 279 321
#     4  10  19  32  52  80 112 144 174 205 252 314
#     4   9  16  28  48  74 108 148 178 197 230 292
#
# _framework density 19.194310000000002
#
# number of rings (size 3 to 8) (size 9 to 14) (size 15 to 20)
#    0.000    2.385    0.769    1.385    0.000    6.154 
#    0.000    5.385    0.000    0.000    0.000    7.538 
#    0.000    0.000    0.000    0.000    0.000    0.000 
#
# Total GULP energy -644701.740772 kJ/mol
# GULP energy per Si atom -12398.110399 kJ/mol
# Density = 1.915062 g / cm^3
# Si number density = 19.194310 Si / 1000 Ang^3
#
#
#
# Elastic Constant Matrix: (Units=GPa)
#
#
# Indices 1 2 3 4 5 6 
#
# 1 50.1277 29.7962 19.3943 0.0000 0.0000 0.0000
# 2 29.7962 108.7148 41.9268 0.0000 0.0000 0.0000
# 3 19.3943 41.9268 45.3653 0.0000 0.0000 0.0000
# 4 0.0000 0.0000 0.0000 39.1193 0.0000 0.0000
# 5 0.0000 0.0000 0.0000 0.0000 20.5411 0.0000
# 6 0.0000 0.0000 0.0000 0.0000 0.0000 24.6386
#
#
#
# Elastic Compliance Matrix: (Units=1/GPa)
#
#
# Indices 1 2 3 4 5 6 
#
# 1 0.025112 -0.004261 -0.006798 0.000000 0.000000 0.000000
# 2 -0.004261 0.015016 -0.012056 0.000000 0.000000 0.000000
# 3 -0.006798 -0.012056 0.036092 0.000000 0.000000 0.000000
# 4 0.000000 0.000000 0.000000 0.025563 0.000000 0.000000
# 5 0.000000 0.000000 0.000000 0.000000 0.048683 0.000000
# 6 0.000000 0.000000 0.000000 0.000000 0.000000 0.040587
#
#
# Mechanical properties :
#
#
# Convention : Reuss Voigt Hill
#
# Bulk Modulus (GPa) = 33.34454 42.93805 38.14129
# Shear Modulus (GPa) = 20.22023 24.39919 22.30971
#
# Velocity S-wave (km/s) = 3.24921 3.56921 3.41296
# Velocity P-wave (km/s) = 5.61126 6.27730 5.95360
#
# Compressibility (1/GPa) = 0.02998992
#
# Stress axis : x y z
#
# Youngs Moduli (GPa) = 39.82197 66.59693 27.70732
#
# Poissons Ratio (x) = 0.28377 0.18834
# Poissons Ratio (y) = 0.16968 0.33404
# Poissons Ratio (z) = 0.27069 0.80289
#
# Static dielectric constant tensor:
#      x y z
#    x 3.614210 0.000000 0.000000 
#    y 0.000000 3.475020 0.000000 
#    z 0.000000 0.000000 3.244710 
# 
# 
# High freq. dielectric constant tensor:
#      x y z
#    x 1.753600 0.000000 0.000000 
#    y 0.000000 1.737660 0.000000 
#    z 0.000000 0.000000 1.724770 
# 
# From -- ./inp_files/53177.got.cif
#   From: 2010.06.25/outbox.cif.g09.slc.cpg/sg71_27_cif.got.tgz:53177.got - 2010.06.28 04:59:45.
