data_PCOD8288368
_publ_section_title
;
Structure prediction by ZEFSAII (Michael W. Deem and Ramdas Pophale) SiO2 
 PCOD8288368
Probable space group: I M M M
;
_chemical_formula_sum "Si O2"
_cell_formula_units_Z 88
_cell_length_a 23.526628
_cell_length_b 7.705537
_cell_length_c 26.811915
_cell_angle_alpha 90.000000
_cell_angle_beta 90.000000
_cell_angle_gamma 90.000000
_cell_volume 4860.606122
_symmetry_space_group_name_H-M "I M M M"
_symmetry_group_IT_number 71
_symmetry_cell_setting 'orthorhombic'
loop_
_space_group_symop_operation_xyz
x,y,z
-x,-y,z
x,-y,-z
-x,y,-z
-x,-y,-z
x,y,-z
-x,y,z
x,-y,z
1/2+x,1/2+y,1/2+z
1/2-x,1/2-y,1/2+z
1/2+x,1/2-y,1/2-z
1/2-x,1/2+y,1/2-z
1/2-x,1/2-y,1/2-z
1/2+x,1/2+y,1/2-z
1/2-x,1/2+y,1/2+z
1/2+x,1/2-y,1/2+z
loop_
_atom_site_type_symbol
_atom_site_label
_atom_site_fract_x
_atom_site_fract_y
_atom_site_fract_z
Si Si1 0.230434 0.300771 0.142473
Si Si2 0.859030 0.809324 0.216985
Si Si3 0.145647 0.199347 0.667644
Si Si4 0.645277 0.802589 0.442587
Si Si5 0.063519 0.500000 0.333283
Si Si6 0.436743 0.500000 0.440900
Si Si7 0.563173 0.000000 0.285284
O O1 0.225986 0.500000 0.159029
O O2 0.198410 0.191975 0.184859
O O3 0.296425 0.246780 0.139336
O O4 0.202571 0.267687 0.088473
O O5 0.842962 0.769209 0.273911
O O6 0.903828 0.670365 0.195377
O O7 0.887131 0.000000 0.212678
O O8 0.095885 0.326287 0.648259
O O9 0.128050 0.000000 0.656454
O O10 0.660662 0.765134 0.500000
O O11 0.596315 0.672898 0.423050
O O12 0.623329 0.000000 0.435124
O O13 0.059648 0.500000 0.273994
O O14 0.000000 0.500000 0.356241
O O15 0.500000 0.500000 0.417350
O O16 0.441437 0.500000 0.500000
O O17 0.500000 0.000000 0.308399
#
# Coordination Sequence:
#
# PCOD8288368 Si02
#       7
#    16  16  16  16   8   8   8
#     4  10  19  32  50  69  98 122 151 192 239 282
#     4  10  19  30  47  68  93 123 157 194 236 274
#     4   9  19  31  46  73  96 123 156 191 227 274
#     4   9  19  34  51  70  93 121 152 191 242 289
#     4   9  18  31  49  69  94 129 160 189 227 267
#     4   9  18  33  52  70  88 115 157 204 243 283
#     4   9  18  34  47  61  92 128 164 199 231 276
#
# _framework density 18.104737
#
# number of rings (size 3 to 8) (size 9 to 14) (size 15 to 20)
#    0.000    2.636    0.909    0.545    2.545    1.091 
#    0.000    6.364    0.000    0.000    0.000    0.000 
#    0.000    1.455    0.000    7.091    0.000    0.182 
#
# Total GULP energy -545540.664704 kJ/mol
# GULP energy per Si atom -12398.651471 kJ/mol
# Density = 1.806353 g / cm^3
# Si number density = 18.104737 Si / 1000 Ang^3
#
#
#
# Elastic Constant Matrix: (Units=GPa)
#
#
# Indices 1 2 3 4 5 6 
#
# 1 157.8966 83.5984 33.5767 0.0000 0.0000 0.0000
# 2 83.5984 128.8778 28.4202 0.0000 0.0000 0.0000
# 3 33.5767 28.4202 33.9987 0.0000 0.0000 0.0000
# 4 0.0000 0.0000 0.0000 13.6748 0.0000 0.0000
# 5 0.0000 0.0000 0.0000 0.0000 14.7667 0.0000
# 6 0.0000 0.0000 0.0000 0.0000 0.0000 26.9837
#
#
#
# Elastic Compliance Matrix: (Units=1/GPa)
#
#
# Indices 1 2 3 4 5 6 
#
# 1 0.010482 -0.005537 -0.005723 0.000000 0.000000 0.000000
# 2 -0.005537 0.012438 -0.004929 0.000000 0.000000 0.000000
# 3 -0.005723 -0.004929 0.039185 0.000000 0.000000 0.000000
# 4 0.000000 0.000000 0.000000 0.073127 0.000000 0.000000
# 5 0.000000 0.000000 0.000000 0.000000 0.067720 0.000000
# 6 0.000000 0.000000 0.000000 0.000000 0.000000 0.037059
#
#
# Mechanical properties :
#
#
# Convention : Reuss Voigt Hill
#
# Bulk Modulus (GPa) = 33.63962 67.99595 50.81779
# Shear Modulus (GPa) = 17.71172 22.76354 20.23763
#
# Velocity S-wave (km/s) = 3.13116 3.54972 3.34699
# Velocity P-wave (km/s) = 5.62966 7.37830 6.56248
#
# Compressibility (1/GPa) = 0.02972685
#
# Stress axis : x y z
#
# Youngs Moduli (GPa) = 95.40188 80.39914 25.51991
#
# Poissons Ratio (x) = 0.44519 0.14606
# Poissons Ratio (y) = 0.52826 0.12578
# Poissons Ratio (z) = 0.54601 0.39626
#
# Static dielectric constant tensor:
#      x y z
#    x 3.452420 0.000000 0.000000 
#    y 0.000000 3.559110 0.000000 
#    z 0.000000 0.000000 2.966330 
# 
# 
# High freq. dielectric constant tensor:
#      x y z
#    x 1.687880 0.000000 0.000000 
#    y 0.000000 1.717900 0.000000 
#    z 0.000000 0.000000 1.652510 
# 
# From -- ./inp_files/70408.got.cif
#   From: 2010.06.25/outbox.cif.g09.slc.cpg/sg71_36_cif.got.tgz:70408.got - 2010.06.28 04:59:45.
