data_PCOD8288724
_publ_section_title
;
Structure prediction by ZEFSAII (Michael W. Deem and Ramdas Pophale) SiO2 
 PCOD8288724
Probable space group: I M M M
;
_chemical_formula_sum "Si O2"
_cell_formula_units_Z 72
_cell_length_a 16.473490
_cell_length_b 11.690078
_cell_length_c 21.729618
_cell_angle_alpha 90.000000
_cell_angle_beta 90.000000
_cell_angle_gamma 90.000000
_cell_volume 4184.611239
_symmetry_space_group_name_H-M "I M M M"
_symmetry_group_IT_number 71
_symmetry_cell_setting 'orthorhombic'
loop_
_space_group_symop_operation_xyz
x,y,z
-x,-y,z
x,-y,-z
-x,y,-z
-x,-y,-z
x,y,-z
-x,y,z
x,-y,z
1/2+x,1/2+y,1/2+z
1/2-x,1/2-y,1/2+z
1/2+x,1/2-y,1/2-z
1/2-x,1/2+y,1/2-z
1/2-x,1/2-y,1/2-z
1/2+x,1/2+y,1/2-z
1/2-x,1/2+y,1/2+z
1/2+x,1/2-y,1/2+z
loop_
_atom_site_type_symbol
_atom_site_label
_atom_site_fract_x
_atom_site_fract_y
_atom_site_fract_z
Si Si1 0.161588 0.241972 0.382229
Si Si2 0.093873 0.000000 0.364512
Si Si3 0.406128 0.876036 0.769402
Si Si4 0.689676 0.271093 0.692963
Si Si5 0.904311 0.000000 0.781416
Si Si6 0.093874 0.635696 0.500000
O O1 0.137687 0.110438 0.393437
O O2 0.111541 0.288046 0.323990
O O3 0.258436 0.254869 0.369504
O O4 0.139390 0.316602 0.440801
O O5 0.103861 0.000000 0.291577
O O6 0.000000 0.000000 0.384316
O O7 0.500000 0.893715 0.764059
O O8 0.377096 0.827807 0.703112
O O9 0.364667 0.000000 0.782521
O O10 0.750000 0.250000 0.750000
O O11 0.643291 0.391563 0.691486
O O12 0.000000 0.000000 0.800646
O O13 0.100823 0.500000 0.500000
O O14 0.000000 0.674605 0.500000
#
# Coordination Sequence:
#
# PCOD8288724 Si02
#       6
#    16   8  16  16   8   8
#     4  11  23  34  54  76 107 141 183 220 262 307
#     4  11  20  33  54  77 109 143 176 216 261 321
#     4  10  19  31  51  78 110 139 171 211 260 320
#     4  10  21  30  52  77 109 138 176 217 267 317
#     4  11  20  34  53  79 112 148 178 213 273 334
#     4  11  24  41  57  73 103 143 183 219 260 314
#
# _framework density 17.2059
#
# number of rings (size 3 to 8) (size 9 to 14) (size 15 to 20)
#    0.000    1.444    4.444    3.333    9.333    2.222 
#    0.000    1.111    0.000    0.000    0.000    3.889 
#    0.000    1.778    0.000    0.000    0.000    0.000 
#
# Total GULP energy -446191.949190 kJ/mol
# GULP energy per Si atom -12394.220811 kJ/mol
# Density = 1.716674 g / cm^3
# Si number density = 17.205900 Si / 1000 Ang^3
#
#
#
# Elastic Constant Matrix: (Units=GPa)
#
#
# Indices 1 2 3 4 5 6 
#
# 1 79.9543 47.9044 38.2710 0.0000 0.0000 0.0000
# 2 47.9044 134.7919 26.0874 0.0000 0.0000 0.0000
# 3 38.2710 26.0874 69.8465 0.0000 0.0000 0.0000
# 4 0.0000 0.0000 0.0000 20.1912 0.0000 0.0000
# 5 0.0000 0.0000 0.0000 0.0000 22.0938 0.0000
# 6 0.0000 0.0000 0.0000 0.0000 0.0000 34.8893
#
#
#
# Elastic Compliance Matrix: (Units=1/GPa)
#
#
# Indices 1 2 3 4 5 6 
#
# 1 0.020020 -0.005381 -0.008960 0.000000 0.000000 0.000000
# 2 -0.005381 0.009443 -0.000579 0.000000 0.000000 0.000000
# 3 -0.008960 -0.000579 0.019443 0.000000 0.000000 0.000000
# 4 0.000000 0.000000 0.000000 0.049527 0.000000 0.000000
# 5 0.000000 0.000000 0.000000 0.000000 0.045261 0.000000
# 6 0.000000 0.000000 0.000000 0.000000 0.000000 0.028662
#
#
# Mechanical properties :
#
#
# Convention : Reuss Voigt Hill
#
# Bulk Modulus (GPa) = 52.44660 56.56871 54.50765
# Shear Modulus (GPa) = 23.97512 26.92353 25.44932
#
# Velocity S-wave (km/s) = 3.73691 3.96003 3.85008
# Velocity P-wave (km/s) = 7.01194 7.33880 7.17723
#
# Compressibility (1/GPa) = 0.01906701
#
# Stress axis : x y z
#
# Youngs Moduli (GPa) = 49.95082 105.89674 51.43371
#
# Poissons Ratio (x) = 0.56982 0.46083
# Poissons Ratio (y) = 0.26878 0.02976
# Poissons Ratio (z) = 0.44754 0.06128
#
# Static dielectric constant tensor:
#      x y z
#    x 3.884330 0.000000 0.000000 
#    y 0.000000 4.012480 0.000000 
#    z 0.000000 0.000000 3.092970 
# 
# 
# High freq. dielectric constant tensor:
#      x y z
#    x 1.670440 0.000000 0.000000 
#    y 0.000000 1.689930 0.000000 
#    z 0.000000 0.000000 1.608110 
# 
# From -- ./inp_files/23745.got.cif
#   From: 2010.06.25/outbox.cif.g09.slc.cpg/sg71_12_cif.got.tgz:23745.got - 2010.06.28 04:59:45.
