data_PCOD8288099
_publ_section_title
;
Structure prediction by ZEFSAII (Michael W. Deem and Ramdas Pophale) SiO2 
 PCOD8288099
Probable space group: I M M M
;
_chemical_formula_sum "Si O2"
_cell_formula_units_Z 88
_cell_length_a 33.343112
_cell_length_b 23.380291
_cell_length_c 9.195361
_cell_angle_alpha 90.000000
_cell_angle_beta 90.000000
_cell_angle_gamma 90.000000
_cell_volume 7168.442852
_symmetry_space_group_name_H-M "I M M M"
_symmetry_group_IT_number 71
_symmetry_cell_setting 'orthorhombic'
loop_
_space_group_symop_operation_xyz
x,y,z
-x,-y,z
x,-y,-z
-x,y,-z
-x,-y,-z
x,y,-z
-x,y,z
x,-y,z
1/2+x,1/2+y,1/2+z
1/2-x,1/2-y,1/2+z
1/2+x,1/2-y,1/2-z
1/2-x,1/2+y,1/2-z
1/2-x,1/2-y,1/2-z
1/2+x,1/2+y,1/2-z
1/2-x,1/2+y,1/2+z
1/2+x,1/2-y,1/2+z
loop_
_atom_site_type_symbol
_atom_site_label
_atom_site_fract_x
_atom_site_fract_y
_atom_site_fract_z
Si Si1 0.421521 0.566443 0.830048
Si Si2 0.000000 0.932047 0.835713
Si Si3 0.235409 0.064071 0.169384
Si Si4 0.801045 0.224206 0.165190
Si Si5 0.349847 0.620677 0.335306
Si Si6 0.232919 0.662847 0.833886
O O1 0.414059 0.500000 0.794117
O O2 0.460623 0.590280 0.747377
O O3 0.383495 0.602077 0.777105
O O4 0.428034 0.576535 0.000000
O O5 0.000000 0.000000 0.834065
O O6 0.000000 0.908105 0.000000
O O7 0.191228 0.087907 0.204318
O O8 0.269556 0.104167 0.242523
O O9 0.238916 0.000000 0.232689
O O10 0.244160 0.064454 0.000000
O O11 0.842884 0.189434 0.181324
O O12 0.805146 0.293385 0.187618
O O13 0.771186 0.199538 0.285167
O O14 0.784552 0.212574 0.000000
O O15 0.363127 0.605103 0.500000
O O16 0.237879 0.644437 0.000000
#
# Coordination Sequence:
#
# PCOD8288099 Si02
#       6
#    16   8  16  16  16  16
#     4  10  19  28  37  51  70  86 102 132 171 201
#     4   9  17  29  43  53  61  81 111 133 154 195
#     4   9  17  27  36  47  66  90 112 136 169 206
#     4   8  15  26  36  47  64  85 107 132 165 201
#     4   9  16  26  38  49  63  85 111 135 162 201
#     4   9  15  23  36  50  63  81 107 138 167 196
#
# _framework density 12.276026999999999
#
# number of rings (size 3 to 8) (size 9 to 14) (size 15 to 20)
#    0.000    3.000    0.000    3.000    0.000    6.909 
#    0.000    0.000    0.000    0.000    0.000    0.000 
#    0.000    0.000    0.000    0.000    0.000    0.000 
#
# Total GULP energy -545141.163797 kJ/mol
# GULP energy per Si atom -12389.571904 kJ/mol
# Density = 1.224809 g / cm^3
# Si number density = 12.276027 Si / 1000 Ang^3
#
#
#
# Elastic Constant Matrix: (Units=GPa)
#
#
# Indices 1 2 3 4 5 6 
#
# 1 41.6289 36.8734 29.5298 0.0000 0.0000 0.0000
# 2 36.8734 85.6596 34.7725 0.0000 0.0000 0.0000
# 3 29.5298 34.7725 57.6908 0.0000 0.0000 0.0000
# 4 0.0000 0.0000 0.0000 18.8386 0.0000 0.0000
# 5 0.0000 0.0000 0.0000 0.0000 17.3032 0.0000
# 6 0.0000 0.0000 0.0000 0.0000 0.0000 12.0168
#
#
#
# Elastic Compliance Matrix: (Units=1/GPa)
#
#
# Indices 1 2 3 4 5 6 
#
# 1 0.047869 -0.014113 -0.015996 0.000000 0.000000 0.000000
# 2 -0.014113 0.019616 -0.004600 0.000000 0.000000 0.000000
# 3 -0.015996 -0.004600 0.028294 0.000000 0.000000 0.000000
# 4 0.000000 0.000000 0.000000 0.053082 0.000000 0.000000
# 5 0.000000 0.000000 0.000000 0.000000 0.057793 0.000000
# 6 0.000000 0.000000 0.000000 0.000000 0.000000 0.083217
#
#
# Mechanical properties :
#
#
# Convention : Reuss Voigt Hill
#
# Bulk Modulus (GPa) = 37.93280 43.03675 40.48477
# Shear Modulus (GPa) = 13.58412 15.21863 14.40137
#
# Velocity S-wave (km/s) = 3.33010 3.52476 3.42881
# Velocity P-wave (km/s) = 6.76410 7.19020 6.98040
#
# Compressibility (1/GPa) = 0.02636241
#
# Stress axis : x y z
#
# Youngs Moduli (GPa) = 20.89018 50.97797 35.34284
#
# Poissons Ratio (x) = 0.71943 0.56536
# Poissons Ratio (y) = 0.29481 0.16257
# Poissons Ratio (z) = 0.33417 0.23449
#
# Static dielectric constant tensor:
#      x y z
#    x 2.290540 0.000000 0.000000 
#    y 0.000000 2.740190 0.000000 
#    z 0.000000 0.000000 2.607600 
# 
# 
# High freq. dielectric constant tensor:
#      x y z
#    x 1.416090 0.000000 0.000000 
#    y 0.000000 1.451690 0.000000 
#    z 0.000000 0.000000 1.479440 
# 
# From -- ./inp_files/13529.got.cif
#   From: 2010.06.25/outbox.cif.g09.slc.cpg/sg71_7_cif.got.tgz:13529.got - 2010.06.28 04:59:45.
