data_PCOD8288312
_publ_section_title
;
Structure prediction by ZEFSAII (Michael W. Deem and Ramdas Pophale) SiO2 
 PCOD8288312
Probable space group: I M M M
;
_chemical_formula_sum "Si O2"
_cell_formula_units_Z 104
_cell_length_a 29.867015
_cell_length_b 9.041378
_cell_length_c 22.724529
_cell_angle_alpha 90.000000
_cell_angle_beta 90.000000
_cell_angle_gamma 90.000000
_cell_volume 6136.508458
_symmetry_space_group_name_H-M "I M M M"
_symmetry_group_IT_number 71
_symmetry_cell_setting 'orthorhombic'
loop_
_space_group_symop_operation_xyz
x,y,z
-x,-y,z
x,-y,-z
-x,y,-z
-x,-y,-z
x,y,-z
-x,y,z
x,-y,z
1/2+x,1/2+y,1/2+z
1/2-x,1/2-y,1/2+z
1/2+x,1/2-y,1/2-z
1/2-x,1/2+y,1/2-z
1/2-x,1/2-y,1/2-z
1/2+x,1/2+y,1/2-z
1/2-x,1/2+y,1/2+z
1/2+x,1/2-y,1/2+z
loop_
_atom_site_type_symbol
_atom_site_label
_atom_site_fract_x
_atom_site_fract_y
_atom_site_fract_z
Si Si1 0.376871 0.823480 0.434127
Si Si2 0.808847 0.327286 0.431445
Si Si3 0.448097 0.828887 0.211928
Si Si4 0.778661 0.335959 0.069805
Si Si5 0.449890 0.324174 0.000000
Si Si6 0.549507 0.175606 0.654728
Si Si7 0.605261 0.675275 0.888089
O O1 0.386026 0.762176 0.500000
O O2 0.327583 0.775194 0.410600
O O3 0.414240 0.756286 0.390335
O O4 0.378746 0.000000 0.435135
O O5 0.815546 0.286858 0.500000
O O6 0.813077 0.500000 0.419960
O O7 0.760185 0.274317 0.408703
O O8 0.845528 0.243493 0.392849
O O9 0.500000 0.801494 0.196614
O O10 0.438003 0.779829 0.278775
O O11 0.417426 0.726077 0.171970
O O12 0.435604 0.000000 0.201691
O O13 0.769644 0.500000 0.095987
O O14 0.779333 0.346506 0.000000
O O15 0.424486 0.265230 0.057610
O O16 0.451398 0.500000 0.000000
O O17 0.500000 0.258243 0.000000
O O18 0.500000 0.236731 0.638513
O O19 0.548860 0.000000 0.649961
O O20 0.609416 0.500000 0.888962
#
# Coordination Sequence:
#
# PCOD8288312 Si02
#       7
#    16  16  16  16   8  16  16
#     4   8  13  22  40  69  99 125 155 190 227 269
#     4  10  19  30  45  66  93 120 150 187 231 283
#     4   9  18  32  47  64  90 125 161 192 226 272
#     4   8  14  25  42  64  92 123 153 186 226 271
#     4   9  18  30  43  63  89 113 139 179 232 279
#     4   8  14  25  42  65  95 129 159 188 226 271
#     4  11  20  31  48  67  90 118 152 195 237 277
#
# _framework density 16.947748000000001
#
# number of rings (size 3 to 8) (size 9 to 14) (size 15 to 20)
#    0.000    3.000    0.769    3.231    0.000    1.846 
#    0.000    1.538    0.000    3.692    0.000    0.000 
#    0.000    0.000    0.000    9.385    0.000    9.538 
#
# Total GULP energy -644594.817684 kJ/mol
# GULP energy per Si atom -12396.054186 kJ/mol
# Density = 1.690917 g / cm^3
# Si number density = 16.947748 Si / 1000 Ang^3
#
#
#
# Elastic Constant Matrix: (Units=GPa)
#
#
# Indices 1 2 3 4 5 6 
#
# 1 152.9723 41.4791 72.7545 0.0000 0.0000 0.0000
# 2 41.4791 48.6088 26.9293 0.0000 0.0000 0.0000
# 3 72.7545 26.9293 83.6984 0.0000 0.0000 0.0000
# 4 0.0000 0.0000 0.0000 12.9644 0.0000 0.0000
# 5 0.0000 0.0000 0.0000 0.0000 20.0888 0.0000
# 6 0.0000 0.0000 0.0000 0.0000 0.0000 16.6529
#
#
#
# Elastic Compliance Matrix: (Units=1/GPa)
#
#
# Indices 1 2 3 4 5 6 
#
# 1 0.012262 -0.005547 -0.008874 0.000000 0.000000 0.000000
# 2 -0.005547 0.027544 -0.004040 0.000000 0.000000 0.000000
# 3 -0.008874 -0.004040 0.020961 0.000000 0.000000 0.000000
# 4 0.000000 0.000000 0.000000 0.077134 0.000000 0.000000
# 5 0.000000 0.000000 0.000000 0.000000 0.049779 0.000000
# 6 0.000000 0.000000 0.000000 0.000000 0.000000 0.060050
#
#
# Mechanical properties :
#
#
# Convention : Reuss Voigt Hill
#
# Bulk Modulus (GPa) = 41.93810 63.06727 52.50268
# Shear Modulus (GPa) = 17.08817 19.54899 18.31858
#
# Velocity S-wave (km/s) = 3.17880 3.39999 3.29125
# Velocity P-wave (km/s) = 6.18646 7.25994 6.74459
#
# Compressibility (1/GPa) = 0.02384467
#
# Stress axis : x y z
#
# Youngs Moduli (GPa) = 81.55548 36.30525 47.70779
#
# Poissons Ratio (x) = 0.20139 0.42334
# Poissons Ratio (y) = 0.45240 0.19275
# Poissons Ratio (z) = 0.72369 0.14668
#
# Static dielectric constant tensor:
#      x y z
#    x 3.541790 0.000000 0.000000 
#    y 0.000000 2.808540 0.000000 
#    z 0.000000 0.000000 3.051060 
# 
# 
# High freq. dielectric constant tensor:
#      x y z
#    x 1.665480 0.000000 0.000000 
#    y 0.000000 1.617710 0.000000 
#    z 0.000000 0.000000 1.624130 
# 
# From -- ./inp_files/56683.got.cif
#   From: 2010.06.25/outbox.cif.g09.slc.cpg/sg71_29_cif.got.tgz:56683.got - 2010.06.28 04:59:45.
