data_PCOD8288040
_publ_section_title
;
Structure prediction by ZEFSAII (Michael W. Deem and Ramdas Pophale) SiO2 
 PCOD8288040
Probable space group: I M M M
;
_chemical_formula_sum "Si O2"
_cell_formula_units_Z 76
_cell_length_a 11.424134
_cell_length_b 24.383850
_cell_length_c 16.201970
_cell_angle_alpha 90.000000
_cell_angle_beta 90.000000
_cell_angle_gamma 90.000000
_cell_volume 4513.291563
_symmetry_space_group_name_H-M "I M M M"
_symmetry_group_IT_number 71
_symmetry_cell_setting 'orthorhombic'
loop_
_space_group_symop_operation_xyz
x,y,z
-x,-y,z
x,-y,-z
-x,y,-z
-x,-y,-z
x,y,-z
-x,y,z
x,-y,z
1/2+x,1/2+y,1/2+z
1/2-x,1/2-y,1/2+z
1/2+x,1/2-y,1/2-z
1/2-x,1/2+y,1/2-z
1/2-x,1/2-y,1/2-z
1/2+x,1/2+y,1/2-z
1/2-x,1/2+y,1/2+z
1/2+x,1/2-y,1/2+z
loop_
_atom_site_type_symbol
_atom_site_label
_atom_site_fract_x
_atom_site_fract_y
_atom_site_fract_z
Si Si1 0.308314 0.336963 0.777710
Si Si2 0.637698 0.438621 0.677488
Si Si3 0.863652 0.908629 0.000000
Si Si4 0.631296 0.757182 0.656268
Si Si5 0.757226 0.792077 0.000000
Si Si6 0.500000 0.225809 0.000000
Si Si7 0.000000 0.169385 0.408066
O O1 0.290195 0.395022 0.731720
O O2 0.374246 0.294004 0.718559
O O3 0.181786 0.311905 0.800367
O O4 0.384562 0.348872 0.859079
O O5 0.500000 0.423407 0.681302
O O6 0.659972 0.500000 0.711260
O O7 0.686505 0.435723 0.583413
O O8 0.839643 0.844283 0.000000
O O9 0.000000 0.919374 0.000000
O O10 0.500000 0.769745 0.625868
O O11 0.715781 0.744253 0.579839
O O12 0.619533 0.809819 0.000000
O O13 0.500000 0.264409 0.081615
O O14 0.000000 0.141797 0.500000
#
# Coordination Sequence:
#
# PCOD8288040 Si02
#       7
#    16  16   8  16   8   4   8
#     4  11  20  33  51  75 106 136 174 223 265 314
#     4  10  19  32  53  77 105 139 177 222 270 316
#     4  10  19  32  48  78 112 138 172 214 267 318
#     4  11  21  32  51  77 107 138 174 213 267 322
#     4  12  20  33  52  79 111 144 168 217 262 328
#     4  10  22  34  48  76 106 148 176 194 270 332
#     4  10  18  34  49  67 104 140 166 207 267 320
#
# _framework density 16.839151999999999
#
# number of rings (size 3 to 8) (size 9 to 14) (size 15 to 20)
#    0.316    1.053    6.316    1.263    0.000    1.263 
#    0.000    0.000    0.000    1.895    0.000    0.737 
#    0.000    1.684    0.000    0.000    0.000    0.000 
#
# Total GULP energy -471093.103809 kJ/mol
# GULP energy per Si atom -12397.186942 kJ/mol
# Density = 1.680083 g / cm^3
# Si number density = 16.839152 Si / 1000 Ang^3
#
#
#
# Elastic Constant Matrix: (Units=GPa)
#
#
# Indices 1 2 3 4 5 6 
#
# 1 74.0406 17.5046 29.8255 0.0000 0.0000 0.0000
# 2 17.5046 100.0942 36.8502 0.0000 0.0000 0.0000
# 3 29.8255 36.8502 102.4845 -0.0001 0.0000 0.0000
# 4 0.0000 0.0000 -0.0001 -3.7412 0.0000 0.0000
# 5 0.0000 0.0000 0.0000 0.0000 15.6133 0.0000
# 6 0.0000 0.0000 0.0000 0.0000 0.0000 19.2994
#
#
#
# Elastic Compliance Matrix: (Units=1/GPa)
#
#
# Indices 1 2 3 4 5 6 
#
# 1 0.015425 -0.001204 -0.004056 0.000000 0.000000 0.000000
# 2 -0.001204 0.011609 -0.003824 0.000000 0.000000 0.000000
# 3 -0.004056 -0.003824 0.012313 0.000000 0.000000 0.000000
# 4 0.000000 0.000000 0.000000 -0.267296 0.000000 0.000000
# 5 0.000000 0.000000 0.000000 0.000000 0.064048 0.000000
# 6 0.000000 0.000000 0.000000 0.000000 0.000000 0.051815
#
#
# Mechanical properties :
#
#
# Convention : Reuss Voigt Hill
#
# Bulk Modulus (GPa) = 47.21761 49.44221 48.32991
# Shear Modulus (GPa) = -57.56454 19.06357 -19.25049
#
# Velocity S-wave (km/s) = -5.85313 3.36832 -3.38479
# Velocity P-wave (km/s) = 4.19257 6.67477 3.67253
#
# Compressibility (1/GPa) = 0.02117854
#
# Stress axis : x y z
#
# Youngs Moduli (GPa) = 64.83132 86.14067 81.21602
#
# Poissons Ratio (x) = 0.10374 0.32941
# Poissons Ratio (y) = 0.07807 0.31055
# Poissons Ratio (z) = 0.26295 0.32938
#
# Static dielectric constant tensor:
#      x y z
#    x 2.886430 0.000000 0.000000 
#    y 0.000000 2.900250 0.000000 
#    z 0.000000 0.000000 3.322310 
# 
# 
# High freq. dielectric constant tensor:
#      x y z
#    x 1.621590 0.000000 0.000000 
#    y 0.000000 1.617500 0.000000 
#    z 0.000000 0.000000 1.658780 
# 
# From -- ./inp_files/32722.got.cif
#   From: 2010.06.25/outbox.cif.g09.slc.cpg/sg71_17_cif.got.tgz:32722.got - 2010.06.28 04:59:45.
