data_PCOD8288190
_publ_section_title
;
Structure prediction by ZEFSAII (Michael W. Deem and Ramdas Pophale) SiO2 
 PCOD8288190
Probable space group: I M M M
;
_chemical_formula_sum "Si O2"
_cell_formula_units_Z 88
_cell_length_a 20.446658
_cell_length_b 25.663814
_cell_length_c 9.359591
_cell_angle_alpha 90.000000
_cell_angle_beta 90.000000
_cell_angle_gamma 90.000000
_cell_volume 4911.344554
_symmetry_space_group_name_H-M "I M M M"
_symmetry_group_IT_number 71
_symmetry_cell_setting 'orthorhombic'
loop_
_space_group_symop_operation_xyz
x,y,z
-x,-y,z
x,-y,-z
-x,y,-z
-x,-y,-z
x,y,-z
-x,y,z
x,-y,z
1/2+x,1/2+y,1/2+z
1/2-x,1/2-y,1/2+z
1/2+x,1/2-y,1/2-z
1/2-x,1/2+y,1/2-z
1/2-x,1/2-y,1/2-z
1/2+x,1/2+y,1/2-z
1/2-x,1/2+y,1/2+z
1/2+x,1/2-y,1/2+z
loop_
_atom_site_type_symbol
_atom_site_label
_atom_site_fract_x
_atom_site_fract_y
_atom_site_fract_z
Si Si1 0.880682 0.443555 0.667740
Si Si2 0.500000 0.562030 0.338963
Si Si3 0.572449 0.165554 0.829794
Si Si4 0.258207 0.596952 0.341455
Si Si5 0.376411 0.561448 0.163855
Si Si6 0.204668 0.287869 0.659972
O O1 0.893766 0.444011 0.500000
O O2 0.903803 0.500000 0.731770
O O3 0.918679 0.393440 0.733110
O O4 0.803708 0.438265 0.699350
O O5 0.500000 0.500000 0.339400
O O6 0.500000 0.584219 0.500000
O O7 0.436932 0.583131 0.255416
O O8 0.500000 0.185991 0.784746
O O9 0.630461 0.204338 0.775308
O O10 0.579862 0.162419 0.000000
O O11 0.284259 0.581281 0.500000
O O12 0.312011 0.588866 0.221369
O O13 0.238738 0.656727 0.342056
O O14 0.369015 0.500000 0.181754
O O15 0.387480 0.577346 0.000000
O O16 0.200015 0.264824 0.500000
O O17 0.250000 0.250000 0.750000
#
# Coordination Sequence:
#
# PCOD8288190 Si02
#       6
#    16   8  16  16  16  16
#     4   8  13  21  36  62  94 124 153 185 220 265
#     4   9  17  29  45  63  85 121 161 189 225 279
#     4   8  14  25  42  66  95 124 154 189 231 282
#     4   9  17  29  45  65  89 120 158 194 232 284
#     4  10  19  29  43  66  95 123 154 194 235 277
#     4   9  18  32  51  72  92 119 158 202 246 291
#
# _framework density 17.917698999999999
#
# number of rings (size 3 to 8) (size 9 to 14) (size 15 to 20)
#    0.000    3.182    0.000    3.545    0.000    4.000 
#    0.000    1.818    2.000    0.545    0.000    0.000 
#    0.000    0.000    0.000   19.273    0.000   14.545 
#
# Total GULP energy -545149.052457 kJ/mol
# GULP energy per Si atom -12389.751192 kJ/mol
# Density = 1.787692 g / cm^3
# Si number density = 17.917699 Si / 1000 Ang^3
#
#
#
# Elastic Constant Matrix: (Units=GPa)
#
#
# Indices 1 2 3 4 5 6 
#
# 1 130.4846 40.0044 48.4312 0.0000 0.0000 0.0000
# 2 40.0044 55.4425 14.2194 0.0000 0.0000 0.0000
# 3 48.4312 14.2194 68.8671 0.0000 0.0000 0.0000
# 4 0.0000 0.0000 0.0000 19.8369 0.0000 0.0000
# 5 0.0000 0.0000 0.0000 0.0000 18.5988 0.0000
# 6 0.0000 0.0000 0.0000 0.0000 0.0000 17.3618
#
#
#
# Elastic Compliance Matrix: (Units=1/GPa)
#
#
# Indices 1 2 3 4 5 6 
#
# 1 0.012614 -0.007208 -0.007382 0.000000 0.000000 0.000000
# 2 -0.007208 0.023164 0.000286 0.000000 0.000000 0.000000
# 3 -0.007382 0.000286 0.019653 0.000000 0.000000 0.000000
# 4 0.000000 0.000000 0.000000 0.050411 0.000000 0.000000
# 5 0.000000 0.000000 0.000000 0.000000 0.053767 0.000000
# 6 0.000000 0.000000 0.000000 0.000000 0.000000 0.057598
#
#
# Mechanical properties :
#
#
# Convention : Reuss Voigt Hill
#
# Bulk Modulus (GPa) = 37.28156 51.12266 44.20211
# Shear Modulus (GPa) = 19.62662 21.30212 20.46437
#
# Velocity S-wave (km/s) = 3.31324 3.45176 3.38321
# Velocity P-wave (km/s) = 5.95726 6.66934 6.32333
#
# Compressibility (1/GPa) = 0.02682291
#
# Stress axis : x y z
#
# Youngs Moduli (GPa) = 79.27924 43.17010 50.88202
#
# Poissons Ratio (x) = 0.31117 0.37563
# Poissons Ratio (y) = 0.57144 -0.01456
# Poissons Ratio (z) = 0.58527 -0.01236
#
# Static dielectric constant tensor:
#      x y z
#    x 3.520460 0.000000 0.000000 
#    y 0.000000 3.199850 0.000000 
#    z 0.000000 0.000000 3.178260 
# 
# 
# High freq. dielectric constant tensor:
#      x y z
#    x 1.701940 0.000000 0.000000 
#    y 0.000000 1.666570 0.000000 
#    z 0.000000 0.000000 1.649430 
# 
# From -- ./inp_files/11331.got.cif
#   From: 2010.06.25/outbox.cif.g09.slc.cpg/sg71_6_cif.got.tgz:11331.got - 2010.06.28 04:59:45.
