data_PCOD8288152
_publ_section_title
;
Structure prediction by ZEFSAII (Michael W. Deem and Ramdas Pophale) SiO2 
 PCOD8288152
Probable space group: I M M M
;
_chemical_formula_sum "Si O2"
_cell_formula_units_Z 112
_cell_length_a 28.988480
_cell_length_b 9.843276
_cell_length_c 32.633180
_cell_angle_alpha 90.000000
_cell_angle_beta 90.000000
_cell_angle_gamma 90.000000
_cell_volume 9311.604103
_symmetry_space_group_name_H-M "I M M M"
_symmetry_group_IT_number 71
_symmetry_cell_setting 'orthorhombic'
loop_
_space_group_symop_operation_xyz
x,y,z
-x,-y,z
x,-y,-z
-x,y,-z
-x,-y,-z
x,y,-z
-x,y,z
x,-y,z
1/2+x,1/2+y,1/2+z
1/2-x,1/2-y,1/2+z
1/2+x,1/2-y,1/2-z
1/2-x,1/2+y,1/2-z
1/2-x,1/2-y,1/2-z
1/2+x,1/2+y,1/2-z
1/2-x,1/2+y,1/2+z
1/2+x,1/2-y,1/2+z
loop_
_atom_site_type_symbol
_atom_site_label
_atom_site_fract_x
_atom_site_fract_y
_atom_site_fract_z
Si Si1 0.776492 0.650123 0.304939
Si Si2 0.817380 0.152008 0.246110
Si Si3 0.635464 0.339762 0.667969
Si Si4 0.221936 0.840746 0.883088
Si Si5 0.406884 0.845141 0.453241
Si Si6 0.200317 0.655960 0.953424
Si Si7 0.052365 0.842788 0.886196
O O1 0.798587 0.500000 0.303586
O O2 0.813900 0.754289 0.286419
O O3 0.730276 0.650982 0.278408
O O4 0.763917 0.688814 0.351725
O O5 0.856015 0.212946 0.214599
O O6 0.829936 0.000000 0.260957
O O7 0.642348 0.500000 0.670473
O O8 0.674271 0.285180 0.636743
O O9 0.585169 0.296524 0.651506
O O10 0.230238 0.754273 0.924286
O O11 0.219087 0.000000 0.894055
O O12 0.423035 0.826941 0.500000
O O13 0.353403 0.806760 0.449018
O O14 0.437712 0.745237 0.426246
O O15 0.415256 0.000000 0.438928
O O16 0.208925 0.500000 0.940846
O O17 0.216515 0.680790 0.000000
O O18 0.000000 0.819724 0.871755
O O19 0.061827 0.000000 0.897322
#
# Coordination Sequence:
#
# PCOD8288152 Si02
#       7
#    16  16  16  16  16  16  16
#     4   8  14  22  32  50  70  82  97 123 149 177
#     4   8  13  22  35  47  63  86 103 116 143 185
#     4   8  14  25  37  49  65  82 101 126 157 191
#     4   9  15  24  38  51  65  85 104 125 157 192
#     4   9  18  31  42  50  62  80 101 129 169 209
#     4   9  17  27  37  50  66  82 105 136 163 191
#     4  10  19  29  41  54  65  79 103 134 165 198
#
# _framework density 12.028003
#
# number of rings (size 3 to 8) (size 9 to 14) (size 15 to 20)
#    0.000    3.286    1.429    2.571    0.000    1.714 
#    0.000    5.714    0.000    0.000    0.000    0.000 
#    0.000    0.000    0.000    0.000    0.000    0.000 
#
# Total GULP energy -694009.889573 kJ/mol
# GULP energy per Si atom -12393.033742 kJ/mol
# Density = 1.200063 g / cm^3
# Si number density = 12.028003 Si / 1000 Ang^3
#
#
#
# Elastic Constant Matrix: (Units=GPa)
#
#
# Indices 1 2 3 4 5 6 
#
# 1 29.9349 24.7749 36.4732 0.0000 0.0000 0.0000
# 2 24.7749 57.5326 48.6733 0.0000 0.0000 0.0000
# 3 36.4732 48.6733 78.3237 0.0000 0.0000 0.0000
# 4 0.0000 0.0000 0.0000 23.0339 0.0000 0.0000
# 5 0.0000 0.0000 0.0000 0.0000 17.1269 0.0000
# 6 0.0000 0.0000 0.0000 0.0000 0.0000 10.8582
#
#
#
# Elastic Compliance Matrix: (Units=1/GPa)
#
#
# Indices 1 2 3 4 5 6 
#
# 1 0.078203 -0.006045 -0.032660 0.000000 0.000000 0.000000
# 2 -0.006045 0.037117 -0.020251 0.000000 0.000000 0.000000
# 3 -0.032660 -0.020251 0.040561 0.000000 0.000000 0.000000
# 4 0.000000 0.000000 0.000000 0.043414 0.000000 0.000000
# 5 0.000000 0.000000 0.000000 0.000000 0.058388 0.000000
# 6 0.000000 0.000000 0.000000 0.000000 0.000000 0.092096
#
#
# Mechanical properties :
#
#
# Convention : Reuss Voigt Hill
#
# Bulk Modulus (GPa) = 26.33755 42.84822 34.59289
# Shear Modulus (GPa) = 10.40911 13.92845 12.16878
#
# Velocity S-wave (km/s) = 2.94497 3.40663 3.18418
# Velocity P-wave (km/s) = 5.78863 7.15364 6.50703
#
# Compressibility (1/GPa) = 0.03796860
#
# Stress axis : x y z
#
# Youngs Moduli (GPa) = 12.78726 26.94167 24.65398
#
# Poissons Ratio (x) = 0.16286 0.80521
# Poissons Ratio (y) = 0.07730 0.49927
# Poissons Ratio (z) = 0.41764 0.54560
#
# Static dielectric constant tensor:
#      x y z
#    x 2.213260 0.000000 0.000000 
#    y 0.000000 2.512290 0.000000 
#    z 0.000000 0.000000 2.530970 
# 
# 
# High freq. dielectric constant tensor:
#      x y z
#    x 1.401790 0.000000 0.000000 
#    y 0.000000 1.455250 0.000000 
#    z 0.000000 0.000000 1.446010 
# 
# From -- ./inp_files/62135.got.cif
#   From: 2010.06.25/outbox.cif.g09.slc.cpg/sg71_32_cif.got.tgz:62135.got - 2010.06.28 04:59:45.
