data_PCOD8288272
_publ_section_title
;
Structure prediction by ZEFSAII (Michael W. Deem and Ramdas Pophale) SiO2 
 PCOD8288272
Probable space group: I M M M
;
_chemical_formula_sum "Si O2"
_cell_formula_units_Z 96
_cell_length_a 27.737245
_cell_length_b 8.903262
_cell_length_c 29.095825
_cell_angle_alpha 90.000000
_cell_angle_beta 90.000000
_cell_angle_gamma 90.000000
_cell_volume 7185.270994
_symmetry_space_group_name_H-M "I M M M"
_symmetry_group_IT_number 71
_symmetry_cell_setting 'orthorhombic'
loop_
_space_group_symop_operation_xyz
x,y,z
-x,-y,z
x,-y,-z
-x,y,-z
-x,-y,-z
x,y,-z
-x,y,z
x,-y,z
1/2+x,1/2+y,1/2+z
1/2-x,1/2-y,1/2+z
1/2+x,1/2-y,1/2-z
1/2-x,1/2+y,1/2-z
1/2-x,1/2-y,1/2-z
1/2+x,1/2+y,1/2-z
1/2-x,1/2+y,1/2+z
1/2+x,1/2-y,1/2+z
loop_
_atom_site_type_symbol
_atom_site_label
_atom_site_fract_x
_atom_site_fract_y
_atom_site_fract_z
Si Si1 0.842355 0.172561 0.374985
Si Si2 0.092166 0.830351 0.285791
Si Si3 0.766078 0.670940 0.678029
Si Si4 0.185166 0.172320 0.760321
Si Si5 0.594376 0.172218 0.947065
Si Si6 0.000000 0.325298 0.311453
Si Si7 0.000000 0.822226 0.410370
O O1 0.877553 0.201566 0.332060
O O2 0.787850 0.224743 0.362156
O O3 0.860601 0.268540 0.417902
O O4 0.840908 0.000000 0.389570
O O5 0.127149 0.803832 0.241528
O O6 0.047395 0.717300 0.282277
O O7 0.072168 0.000000 0.286479
O O8 0.776828 0.500000 0.664100
O O9 0.791686 0.707015 0.726225
O O10 0.708468 0.695754 0.688552
O O11 0.195861 0.000000 0.743460
O O12 0.546844 0.267460 0.937099
O O13 0.583719 0.000000 0.934093
O O14 0.608703 0.190097 0.000000
O O15 0.000000 0.234306 0.358509
O O16 0.000000 0.500000 0.322420
O O17 0.000000 0.000000 0.409333
#
# Coordination Sequence:
#
# PCOD8288272 Si02
#       7
#    16  16  16  16  16   8   8
#     4  10  19  30  44  59  76  98 122 149 188 237
#     4   9  17  29  42  55  74  98 125 155 189 229
#     4   9  15  24  40  59  78  96 117 147 183 222
#     4   8  15  26  39  56  76  98 121 147 182 225
#     4  11  23  36  48  61  75  92 121 163 203 238
#     4  12  22  29  41  58  76  99 130 164 195 229
#     4  12  23  35  48  59  72  96 124 156 200 247
#
# _framework density 13.360664999999999
#
# number of rings (size 3 to 8) (size 9 to 14) (size 15 to 20)
#    0.000    2.167    1.667    4.250    0.000    5.667 
#    0.000    0.000    0.000    0.000    0.000    0.000 
#    0.000    0.000    0.000    0.000    0.000    0.000 
#
# Total GULP energy -594896.474174 kJ/mol
# GULP energy per Si atom -12393.676545 kJ/mol
# Density = 1.333026 g / cm^3
# Si number density = 13.360665 Si / 1000 Ang^3
#
#
#
# Elastic Constant Matrix: (Units=GPa)
#
#
# Indices 1 2 3 4 5 6 
#
# 1 73.9346 40.8429 43.2619 0.0000 0.0000 0.0000
# 2 40.8429 85.5390 28.9930 0.0000 0.0000 0.0000
# 3 43.2619 28.9930 43.1852 0.0000 0.0000 0.0000
# 4 0.0000 0.0000 0.0000 14.9588 0.0000 0.0000
# 5 0.0000 0.0000 0.0000 0.0000 5.2554 0.0000
# 6 0.0000 0.0000 0.0000 0.0000 0.0000 19.9802
#
#
#
# Elastic Compliance Matrix: (Units=1/GPa)
#
#
# Indices 1 2 3 4 5 6 
#
# 1 0.035101 -0.006268 -0.030955 0.000000 0.000000 0.000000
# 2 -0.006268 0.016254 -0.004633 0.000000 0.000000 0.000000
# 3 -0.030955 -0.004633 0.057277 0.000000 0.000000 0.000000
# 4 0.000000 0.000000 0.000000 0.066850 0.000000 0.000000
# 5 0.000000 0.000000 0.000000 0.000000 0.190280 0.000000
# 6 0.000000 0.000000 0.000000 0.000000 0.000000 0.050050
#
#
# Mechanical properties :
#
#
# Convention : Reuss Voigt Hill
#
# Bulk Modulus (GPa) = 40.13016 47.65049 43.89032
# Shear Modulus (GPa) = 9.84580 14.00961 11.92770
#
# Velocity S-wave (km/s) = 2.71758 3.24168 2.99113
# Velocity P-wave (km/s) = 6.32046 7.05361 6.69708
#
# Compressibility (1/GPa) = 0.02491892
#
# Stress axis : x y z
#
# Youngs Moduli (GPa) = 28.48912 61.52444 17.45903
#
# Poissons Ratio (x) = 0.38562 0.54045
# Poissons Ratio (y) = 0.17856 0.08089
# Poissons Ratio (z) = 0.88189 0.28505
#
# Static dielectric constant tensor:
#      x y z
#    x 2.873510 0.000000 0.000000 
#    y 0.000000 2.813540 0.000000 
#    z 0.000000 0.000000 2.464380 
# 
# 
# High freq. dielectric constant tensor:
#      x y z
#    x 1.496400 0.000000 0.000000 
#    y 0.000000 1.526620 0.000000 
#    z 0.000000 0.000000 1.456290 
# 
# From -- ./inp_files/71225.got.cif
#   From: 2010.06.25/outbox.cif.g09.slc.cpg/sg71_36_cif.got.tgz:71225.got - 2010.06.28 04:59:45.
