data_PCOD8288746
_publ_section_title
;
Structure prediction by ZEFSAII (Michael W. Deem and Ramdas Pophale) SiO2 
 PCOD8288746
Probable space group: I M M M
;
_chemical_formula_sum "Si O2"
_cell_formula_units_Z 88
_cell_length_a 9.165217
_cell_length_b 19.013909
_cell_length_c 26.977913
_cell_angle_alpha 90.000000
_cell_angle_beta 90.000000
_cell_angle_gamma 90.000000
_cell_volume 4701.349228
_symmetry_space_group_name_H-M "I M M M"
_symmetry_group_IT_number 71
_symmetry_cell_setting 'orthorhombic'
loop_
_space_group_symop_operation_xyz
x,y,z
-x,-y,z
x,-y,-z
-x,y,-z
-x,-y,-z
x,y,-z
-x,y,z
x,-y,z
1/2+x,1/2+y,1/2+z
1/2-x,1/2-y,1/2+z
1/2+x,1/2-y,1/2-z
1/2-x,1/2+y,1/2-z
1/2-x,1/2-y,1/2-z
1/2+x,1/2+y,1/2-z
1/2-x,1/2+y,1/2+z
1/2+x,1/2-y,1/2+z
loop_
_atom_site_type_symbol
_atom_site_label
_atom_site_fract_x
_atom_site_fract_y
_atom_site_fract_z
Si Si1 0.664235 0.684335 0.314998
Si Si2 0.830612 0.420970 0.244293
Si Si3 0.665939 0.338737 0.425916
Si Si4 0.170634 0.195183 0.555526
Si Si5 0.669580 0.835737 0.349950
Si Si6 0.841129 0.419466 0.500000
O O1 0.500000 0.687088 0.293987
O O2 0.758190 0.638505 0.277632
O O3 0.670767 0.645948 0.367730
O O4 0.724713 0.764087 0.322336
O O5 0.767092 0.500000 0.252837
O O6 0.806306 0.401210 0.186640
O O7 0.000000 0.419994 0.257574
O O8 0.500000 0.332134 0.444621
O O9 0.751553 0.269803 0.442468
O O10 0.747373 0.403064 0.451359
O O11 0.194489 0.162869 0.500000
O O12 0.242118 0.147863 0.599282
O O13 0.000000 0.203613 0.566800
O O14 0.500000 0.824460 0.364223
O O15 0.874619 0.500000 0.500000
O O16 0.000000 0.380321 0.500000
#
# Coordination Sequence:
#
# PCOD8288746 Si02
#       6
#    16  16  16  16  16   8
#     4   9  19  34  53  78 103 133 175 219 263 313
#     4  10  21  36  54  77 106 140 177 219 267 318
#     4  10  20  34  52  73 100 134 174 217 262 314
#     4  10  19  31  52  81 108 130 163 213 265 314
#     4   9  19  35  54  78 107 139 177 218 262 315
#     4  11  23  35  47  67  99 139 180 221 264 309
#
# _framework density 18.718032000000001
#
# number of rings (size 3 to 8) (size 9 to 14) (size 15 to 20)
#    0.000    2.273    0.909    3.000    0.000    7.273 
#    0.000    3.636    0.000    0.545    0.000    3.818 
#    0.000    0.000    0.000    0.000    0.000    0.000 
#
# Total GULP energy -545360.516556 kJ/mol
# GULP energy per Si atom -12394.557194 kJ/mol
# Density = 1.867543 g / cm^3
# Si number density = 18.718032 Si / 1000 Ang^3
#
#
#
# Elastic Constant Matrix: (Units=GPa)
#
#
# Indices 1 2 3 4 5 6 
#
# 1 96.2109 20.7915 46.9671 0.0000 0.0000 0.0000
# 2 20.7915 45.5454 23.7908 0.0000 0.0000 0.0000
# 3 46.9671 23.7908 93.9760 0.0000 0.0000 0.0000
# 4 0.0000 0.0000 0.0000 20.2979 0.0000 0.0000
# 5 0.0000 0.0000 0.0000 0.0000 30.6746 0.0000
# 6 0.0000 0.0000 0.0000 0.0000 0.0000 18.3866
#
#
#
# Elastic Compliance Matrix: (Units=1/GPa)
#
#
# Indices 1 2 3 4 5 6 
#
# 1 0.014138 -0.003184 -0.006260 0.000000 0.000000 0.000000
# 2 -0.003184 0.026019 -0.004996 0.000000 0.000000 0.000000
# 3 -0.006260 -0.004996 0.015034 0.000000 0.000000 0.000000
# 4 0.000000 0.000000 0.000000 0.049266 0.000000 0.000000
# 5 0.000000 0.000000 0.000000 0.000000 0.032600 0.000000
# 6 0.000000 0.000000 0.000000 0.000000 0.000000 0.054387
#
#
# Mechanical properties :
#
#
# Convention : Reuss Voigt Hill
#
# Bulk Modulus (GPa) = 38.00508 46.53676 42.27092
# Shear Modulus (GPa) = 21.82509 23.48402 22.65455
#
# Velocity S-wave (km/s) = 3.41837 3.54590 3.48272
# Velocity P-wave (km/s) = 5.99403 6.45605 6.22932
#
# Compressibility (1/GPa) = 0.02631227
#
# Stress axis : x y z
#
# Youngs Moduli (GPa) = 70.73303 38.43322 66.51550
#
# Poissons Ratio (x) = 0.12238 0.41636
# Poissons Ratio (y) = 0.22522 0.33228
# Poissons Ratio (z) = 0.44276 0.19200
#
# Static dielectric constant tensor:
#      x y z
#    x 3.575890 0.000000 0.000000 
#    y 0.000000 3.187810 0.000000 
#    z 0.000000 0.000000 3.766590 
# 
# 
# High freq. dielectric constant tensor:
#      x y z
#    x 1.732260 0.000000 0.000000 
#    y 0.000000 1.689920 0.000000 
#    z 0.000000 0.000000 1.735790 
# 
# From -- ./inp_files/68001.got.cif
#   From: 2010.06.25/outbox.cif.g09.slc.cpg/sg71_35_cif.got.tgz:68001.got - 2010.06.28 04:59:45.
