data_PCOD8288602
_publ_section_title
;
Structure prediction by ZEFSAII (Michael W. Deem and Ramdas Pophale) SiO2 
 PCOD8288602
Probable space group: I M M M
;
_chemical_formula_sum "Si O2"
_cell_formula_units_Z 104
_cell_length_a 26.722631
_cell_length_b 8.993865
_cell_length_c 24.123155
_cell_angle_alpha 90.000000
_cell_angle_beta 90.000000
_cell_angle_gamma 90.000000
_cell_volume 5797.752696
_symmetry_space_group_name_H-M "I M M M"
_symmetry_group_IT_number 71
_symmetry_cell_setting 'orthorhombic'
loop_
_space_group_symop_operation_xyz
x,y,z
-x,-y,z
x,-y,-z
-x,y,-z
-x,-y,-z
x,y,-z
-x,y,z
x,-y,z
1/2+x,1/2+y,1/2+z
1/2-x,1/2-y,1/2+z
1/2+x,1/2-y,1/2-z
1/2-x,1/2+y,1/2-z
1/2-x,1/2-y,1/2-z
1/2+x,1/2+y,1/2-z
1/2-x,1/2+y,1/2+z
1/2+x,1/2-y,1/2+z
loop_
_atom_site_type_symbol
_atom_site_label
_atom_site_fract_x
_atom_site_fract_y
_atom_site_fract_z
Si Si1 0.500000 0.166872 0.565949
Si Si2 0.401320 0.675276 0.436852
Si Si3 0.208675 0.676952 0.361786
Si Si4 0.178644 0.176008 0.850553
Si Si5 0.644535 0.324621 0.230896
Si Si6 0.944542 0.174588 0.655901
Si Si7 0.631584 0.675319 0.063468
O O1 0.500000 0.171877 0.500000
O O2 0.451012 0.250318 0.588168
O O3 0.500000 0.000000 0.588998
O O4 0.391358 0.723919 0.500000
O O5 0.408545 0.500000 0.431642
O O6 0.354771 0.734803 0.401278
O O7 0.205861 0.500000 0.364327
O O8 0.265539 0.736861 0.359595
O O9 0.183328 0.734995 0.306188
O O10 0.181973 0.743468 0.416221
O O11 0.153293 0.231102 0.793387
O O12 0.179967 0.000000 0.850207
O O13 0.654904 0.500000 0.223675
O O14 0.587978 0.285798 0.210748
O O15 0.915200 0.230851 0.600904
O O16 0.000000 0.249033 0.659451
O O17 0.951433 0.000000 0.651129
O O18 0.639842 0.500000 0.070848
O O19 0.620626 0.718807 0.000000
#
# Coordination Sequence:
#
# PCOD8288602 Si02
#       7
#     8  16  16  16  16  16  16
#     4   9  17  31  49  67  91 123 155 187 228 281
#     4   9  17  31  50  70  93 123 159 198 242 288
#     4  10  19  31  49  71  98 130 162 197 243 292
#     4   9  18  31  48  73  97 123 163 206 242 283
#     4   9  17  32  50  69  96 125 160 202 241 285
#     4   8  14  26  46  71  95 120 153 197 245 282
#     4   9  18  32  49  70  97 129 164 201 242 290
#
# _framework density 17.937985000000001
#
# number of rings (size 3 to 8) (size 9 to 14) (size 15 to 20)
#    0.000    3.000    0.000    2.077    0.000    2.154 
#    1.385    6.154    0.000    9.231    0.000    4.308 
#    0.000    0.000    0.000    0.000    0.000    0.000 
#
# Total GULP energy -644594.697034 kJ/mol
# GULP energy per Si atom -12396.051866 kJ/mol
# Density = 1.789716 g / cm^3
# Si number density = 17.937985 Si / 1000 Ang^3
#
#
#
# Elastic Constant Matrix: (Units=GPa)
#
#
# Indices 1 2 3 4 5 6 
#
# 1 184.9914 31.3709 82.6447 0.0000 0.0000 0.0000
# 2 31.3709 34.2600 23.4366 0.0000 0.0000 0.0000
# 3 82.6447 23.4366 102.9595 0.0000 0.0000 0.0000
# 4 0.0000 0.0000 0.0000 18.2112 0.0000 0.0000
# 5 0.0000 0.0000 0.0000 0.0000 19.8215 0.0000
# 6 0.0000 0.0000 0.0000 0.0000 0.0000 21.1540
#
#
#
# Elastic Compliance Matrix: (Units=1/GPa)
#
#
# Indices 1 2 3 4 5 6 
#
# 1 0.008834 -0.003835 -0.006218 0.000000 0.000000 0.000000
# 2 -0.003835 0.036237 -0.005170 0.000000 0.000000 0.000000
# 3 -0.006218 -0.005170 0.015880 0.000000 0.000000 0.000000
# 4 0.000000 0.000000 0.000000 0.054911 0.000000 0.000000
# 5 0.000000 0.000000 0.000000 0.000000 0.050450 0.000000
# 6 0.000000 0.000000 0.000000 0.000000 0.000000 0.047272
#
#
# Mechanical properties :
#
#
# Convention : Reuss Voigt Hill
#
# Bulk Modulus (GPa) = 32.78147 66.34615 49.56381
# Shear Modulus (GPa) = 19.66953 24.15459 21.91206
#
# Velocity S-wave (km/s) = 3.31498 3.67353 3.49885
# Velocity P-wave (km/s) = 5.74166 7.42023 6.63425
#
# Compressibility (1/GPa) = 0.03050504
#
# Stress axis : x y z
#
# Youngs Moduli (GPa) = 113.20065 27.59588 62.97074
#
# Poissons Ratio (x) = 0.10584 0.39154
# Poissons Ratio (y) = 0.43417 0.32556
# Poissons Ratio (z) = 0.70386 0.14267
#
# Static dielectric constant tensor:
#      x y z
#    x 3.701950 0.000000 0.000000 
#    y 0.000000 3.004930 0.000000 
#    z 0.000000 0.000000 3.385670 
# 
# 
# High freq. dielectric constant tensor:
#      x y z
#    x 1.702600 0.000000 0.000000 
#    y 0.000000 1.660280 0.000000 
#    z 0.000000 0.000000 1.688380 
# 
# From -- ./inp_files/15259.got.cif
#   From: 2010.06.25/outbox.cif.g09.slc.cpg/sg71_8_cif.got.tgz:15259.got - 2010.06.28 04:59:45.
