data_PCOD8288565
_publ_section_title
;
Structure prediction by ZEFSAII (Michael W. Deem and Ramdas Pophale) SiO2 
 PCOD8288565
Probable space group: I M M M
;
_chemical_formula_sum "Si O2"
_cell_formula_units_Z 104
_cell_length_a 27.772168
_cell_length_b 27.797974
_cell_length_c 7.765425
_cell_angle_alpha 90.000000
_cell_angle_beta 90.000000
_cell_angle_gamma 90.000000
_cell_volume 5994.985785
_symmetry_space_group_name_H-M "I M M M"
_symmetry_group_IT_number 71
_symmetry_cell_setting 'orthorhombic'
loop_
_space_group_symop_operation_xyz
x,y,z
-x,-y,z
x,-y,-z
-x,y,-z
-x,-y,-z
x,y,-z
-x,y,z
x,-y,z
1/2+x,1/2+y,1/2+z
1/2-x,1/2-y,1/2+z
1/2+x,1/2-y,1/2-z
1/2-x,1/2+y,1/2-z
1/2-x,1/2-y,1/2-z
1/2+x,1/2+y,1/2-z
1/2-x,1/2+y,1/2+z
1/2+x,1/2-y,1/2+z
loop_
_atom_site_type_symbol
_atom_site_label
_atom_site_fract_x
_atom_site_fract_y
_atom_site_fract_z
Si Si1 0.727480 0.056798 0.692572
Si Si2 0.056685 0.293816 0.000000
Si Si3 0.000000 0.947417 0.296856
Si Si4 0.558068 0.684732 0.500000
Si Si5 0.586273 0.381523 0.196564
Si Si6 0.330035 0.445288 0.304798
Si Si7 0.124835 0.553056 0.300599
Si Si8 0.056407 0.636742 0.300678
O O1 0.734017 0.075952 0.500000
O O2 0.774724 0.073073 0.797571
O O3 0.677431 0.077043 0.768242
O O4 0.723328 0.000000 0.702634
O O5 0.073765 0.320211 0.824408
O O6 0.076065 0.239621 0.000000
O O7 0.000000 0.292089 0.000000
O O8 0.047227 0.919651 0.235508
O O9 0.000000 0.952613 0.500000
O O10 0.000000 0.000000 0.209688
O O11 0.500000 0.678998 0.500000
O O12 0.582090 0.662920 0.672642
O O13 0.637720 0.408099 0.197635
O O14 0.576062 0.364040 0.000000
O O15 0.347958 0.444378 0.500000
O O16 0.334385 0.500000 0.229674
O O17 0.117040 0.545815 0.500000
O O18 0.119723 0.500000 0.211275
O O19 0.084015 0.589247 0.232888
O O20 0.069189 0.649613 0.500000
O O21 0.000000 0.626248 0.280202
#
# Coordination Sequence:
#
# PCOD8288565 Si02
#       8
#    16   8   8   8  16  16  16  16
#     4   9  17  28  43  67 100 137 174 210 243 284
#     4   9  20  36  55  74  99 130 168 220 268 302
#     4   9  18  31  47  69 100 137 167 196 241 301
#     4  11  22  38  54  75 100 127 168 222 271 312
#     4  11  21  34  51  73 101 131 169 211 255 312
#     4  10  19  31  48  70 101 138 174 209 248 297
#     4   9  17  29  47  73 108 143 172 205 243 289
#     4   9  18  33  52  77 107 137 173 208 246 305
#
# _framework density 17.347830999999999
#
# number of rings (size 3 to 8) (size 9 to 14) (size 15 to 20)
#    0.000    2.385    1.538    1.385    1.077    4.308 
#    0.000    3.462    0.000    1.385    0.000    1.077 
#    0.000    0.000    0.000    0.000    0.000    0.000 
#
# Total GULP energy -644500.775091 kJ/mol
# GULP energy per Si atom -12394.245675 kJ/mol
# Density = 1.730835 g / cm^3
# Si number density = 17.347831 Si / 1000 Ang^3
#
#
#
# Elastic Constant Matrix: (Units=GPa)
#
#
# Indices 1 2 3 4 5 6 
#
# 1 88.0432 51.8245 25.9463 0.0000 0.0000 0.0000
# 2 51.8245 104.8719 48.7674 0.0000 0.0000 0.0000
# 3 25.9463 48.7674 81.0161 0.0000 0.0000 0.0000
# 4 0.0000 0.0000 0.0000 21.3952 0.0000 0.0000
# 5 0.0000 0.0000 0.0000 0.0000 21.8503 0.0000
# 6 0.0000 0.0000 0.0000 0.0000 0.0000 -23.2972
#
#
#
# Elastic Compliance Matrix: (Units=1/GPa)
#
#
# Indices 1 2 3 4 5 6 
#
# 1 0.016032 -0.007687 -0.000508 0.000000 0.000000 0.000000
# 2 -0.007687 0.016927 -0.007728 0.000000 0.000000 0.000000
# 3 -0.000508 -0.007728 0.017157 0.000000 0.000000 0.000000
# 4 0.000000 0.000000 0.000000 0.046739 0.000000 0.000000
# 5 0.000000 0.000000 0.000000 0.000000 0.045766 0.000000
# 6 0.000000 0.000000 0.000000 0.000000 0.000000 -0.042924
#
#
# Mechanical properties :
#
#
# Convention : Reuss Voigt Hill
#
# Bulk Modulus (GPa) = 54.72450 58.55639 56.64045
# Shear Modulus (GPa) = 36.32833 13.81587 25.07210
#
# Velocity S-wave (km/s) = 4.58111 2.82512 3.80578
# Velocity P-wave (km/s) = 7.71985 6.66853 7.21337
#
# Compressibility (1/GPa) = 0.01827335
#
# Stress axis : x y z
#
# Youngs Moduli (GPa) = 62.37467 59.07567 58.28374
#
# Poissons Ratio (x) = 0.45409 0.02958
# Poissons Ratio (y) = 0.47945 0.45040
# Poissons Ratio (z) = 0.03166 0.45652
#
# Static dielectric constant tensor:
#      x y z
#    x 3.286670 0.000000 0.000000 
#    y 0.000000 3.419780 0.000000 
#    z 0.000000 0.000000 3.241080 
# 
# 
# High freq. dielectric constant tensor:
#      x y z
#    x 1.664770 0.000000 0.000000 
#    y 0.000000 1.625460 0.000000 
#    z 0.000000 0.000000 1.677340 
# 
# From -- ./inp_files/15359.got.cif
#   From: 2010.06.25/outbox.cif.g09.slc.cpg/sg71_8_cif.got.tgz:15359.got - 2010.06.28 04:59:45.
