data_PCOD8288603
_publ_section_title
;
Structure prediction by ZEFSAII (Michael W. Deem and Ramdas Pophale) SiO2 
 PCOD8288603
Probable space group: I M M M
;
_chemical_formula_sum "Si O2"
_cell_formula_units_Z 104
_cell_length_a 11.398032
_cell_length_b 19.264262
_cell_length_c 26.214955
_cell_angle_alpha 90.000000
_cell_angle_beta 90.000000
_cell_angle_gamma 90.000000
_cell_volume 5756.140217
_symmetry_space_group_name_H-M "I M M M"
_symmetry_group_IT_number 71
_symmetry_cell_setting 'orthorhombic'
loop_
_space_group_symop_operation_xyz
x,y,z
-x,-y,z
x,-y,-z
-x,y,-z
-x,-y,-z
x,y,-z
-x,y,z
x,-y,z
1/2+x,1/2+y,1/2+z
1/2-x,1/2-y,1/2+z
1/2+x,1/2-y,1/2-z
1/2-x,1/2+y,1/2-z
1/2-x,1/2-y,1/2-z
1/2+x,1/2+y,1/2-z
1/2-x,1/2+y,1/2+z
1/2+x,1/2-y,1/2+z
loop_
_atom_site_type_symbol
_atom_site_label
_atom_site_fract_x
_atom_site_fract_y
_atom_site_fract_z
Si Si1 0.630112 0.289000 0.769765
Si Si2 0.634419 0.078455 0.132223
Si Si3 0.000000 0.082445 0.439945
Si Si4 0.633599 0.922302 0.665772
Si Si5 0.687466 0.328195 0.117375
Si Si6 0.724311 0.577778 0.267335
Si Si7 0.137281 0.300931 0.442085
O O1 0.500000 0.254938 0.756753
O O2 0.750000 0.250000 0.750000
O O3 0.631246 0.298580 0.830629
O O4 0.625170 0.365023 0.743392
O O5 0.500000 0.089675 0.148410
O O6 0.712386 0.097811 0.180452
O O7 0.670246 0.127879 0.085891
O O8 0.656716 0.000000 0.113768
O O9 0.888773 0.114608 0.411747
O O10 0.000000 0.102065 0.500000
O O11 0.000000 0.000000 0.431992
O O12 0.500000 0.901464 0.667918
O O13 0.691137 0.866397 0.628510
O O14 0.680333 0.916823 0.722956
O O15 0.653749 0.000000 0.644308
O O16 0.710888 0.262629 0.081044
O O17 0.669636 0.500000 0.269537
O O18 0.175082 0.311632 0.500000
O O19 0.000000 0.282297 0.436576
#
# Coordination Sequence:
#
# PCOD8288603 Si02
#       7
#    16  16   8  16  16  16  16
#     4  11  23  37  54  81 116 155 190 228 278 336
#     4   9  17  30  49  74 104 139 178 219 269 332
#     4  11  22  36  58  84 109 141 189 245 297 344
#     4   9  18  32  51  78 111 146 182 219 267 334
#     4  11  20  35  54  78 109 146 184 229 284 334
#     4   9  18  32  52  77 107 144 181 219 266 322
#     4  10  19  31  49  71  98 133 174 227 283 331
#
# _framework density 18.067661999999999
#
# number of rings (size 3 to 8) (size 9 to 14) (size 15 to 20)
#    0.000    2.077    1.538    2.308    0.000    7.385 
#    0.000    1.538    0.000    1.846    0.000    5.385 
#    0.000    0.000    0.000    9.385    0.000    1.077 
#
# Total GULP energy -644467.602036 kJ/mol
# GULP energy per Si atom -12393.607731 kJ/mol
# Density = 1.802654 g / cm^3
# Si number density = 18.067662 Si / 1000 Ang^3
#
#
#
# Elastic Constant Matrix: (Units=GPa)
#
#
# Indices 1 2 3 4 5 6 
#
# 1 83.3838 30.1816 21.7229 0.0000 0.0000 0.0000
# 2 30.1816 87.0410 46.6776 0.0000 0.0000 0.0000
# 3 21.7229 46.6776 107.1877 0.0000 0.0000 0.0000
# 4 0.0000 0.0000 0.0000 36.3388 0.0000 0.0000
# 5 0.0000 0.0000 0.0000 0.0000 14.0711 0.0000
# 6 0.0000 0.0000 0.0000 0.0000 0.0000 24.1669
#
#
#
# Elastic Compliance Matrix: (Units=1/GPa)
#
#
# Indices 1 2 3 4 5 6 
#
# 1 0.013785 -0.004282 -0.000929 0.000000 0.000000 0.000000
# 2 -0.004282 0.016319 -0.006239 0.000000 0.000000 0.000000
# 3 -0.000929 -0.006239 0.012235 0.000000 0.000000 0.000000
# 4 0.000000 0.000000 0.000000 0.027519 0.000000 0.000000
# 5 0.000000 0.000000 0.000000 0.000000 0.071068 0.000000
# 6 0.000000 0.000000 0.000000 0.000000 0.000000 0.041379
#
#
# Mechanical properties :
#
#
# Convention : Reuss Voigt Hill
#
# Bulk Modulus (GPa) = 51.44232 52.75297 52.09764
# Shear Modulus (GPa) = 23.62023 26.85069 25.23546
#
# Velocity S-wave (km/s) = 3.61961 3.85920 3.74133
# Velocity P-wave (km/s) = 6.78252 7.00848 6.89643
#
# Compressibility (1/GPa) = 0.01943925
#
# Stress axis : x y z
#
# Youngs Moduli (GPa) = 72.54499 61.27734 81.73525
#
# Poissons Ratio (x) = 0.26236 0.07594
# Poissons Ratio (y) = 0.31061 0.50994
# Poissons Ratio (z) = 0.06740 0.38230
#
# Static dielectric constant tensor:
#      x y z
#    x 3.129760 0.000000 0.000000 
#    y 0.000000 3.673030 0.000000 
#    z 0.000000 0.000000 3.336010 
# 
# 
# High freq. dielectric constant tensor:
#      x y z
#    x 1.666690 0.000000 0.000000 
#    y 0.000000 1.719360 0.000000 
#    z 0.000000 0.000000 1.692280 
# 
# From -- ./inp_files/64652.got.cif
#   From: 2010.06.25/outbox.cif.g09.slc.cpg/sg71_33_cif.got.tgz:64652.got - 2010.06.28 04:59:45.
