data_PCOD8288803
_publ_section_title
;
Structure prediction by ZEFSAII (Michael W. Deem and Ramdas Pophale) SiO2 
 PCOD8288803
Probable space group: I M M M
;
_chemical_formula_sum "Si O2"
_cell_formula_units_Z 96
_cell_length_a 10.127620
_cell_length_b 29.583567
_cell_length_c 18.907832
_cell_angle_alpha 90.000000
_cell_angle_beta 90.000000
_cell_angle_gamma 90.000000
_cell_volume 5664.996813
_symmetry_space_group_name_H-M "I M M M"
_symmetry_group_IT_number 71
_symmetry_cell_setting 'orthorhombic'
loop_
_space_group_symop_operation_xyz
x,y,z
-x,-y,z
x,-y,-z
-x,y,-z
-x,-y,-z
x,y,-z
-x,y,z
x,-y,z
1/2+x,1/2+y,1/2+z
1/2-x,1/2-y,1/2+z
1/2+x,1/2-y,1/2-z
1/2-x,1/2+y,1/2-z
1/2-x,1/2-y,1/2-z
1/2+x,1/2+y,1/2-z
1/2-x,1/2+y,1/2+z
1/2+x,1/2-y,1/2+z
loop_
_atom_site_type_symbol
_atom_site_label
_atom_site_fract_x
_atom_site_fract_y
_atom_site_fract_z
Si Si1 0.652287 0.882661 0.222156
Si Si2 0.250561 0.053399 0.332317
Si Si3 0.652067 0.840596 0.079516
Si Si4 0.650393 0.214241 0.717640
Si Si5 0.500000 0.446425 0.079550
Si Si6 0.000000 0.553546 0.078692
Si Si7 0.648395 0.260369 0.578601
O O1 0.500000 0.894895 0.235760
O O2 0.742451 0.921964 0.256116
O O3 0.680701 0.879540 0.137658
O O4 0.691652 0.835731 0.259505
O O5 0.372777 0.070142 0.379146
O O6 0.125212 0.070225 0.376273
O O7 0.249270 0.000000 0.318105
O O8 0.500000 0.824247 0.087132
O O9 0.746060 0.798824 0.097811
O O10 0.679242 0.859198 0.000000
O O11 0.500000 0.224464 0.742842
O O12 0.750000 0.250000 0.750000
O O13 0.662213 0.218603 0.632561
O O14 0.500000 0.500000 0.072899
O O15 0.500000 0.425763 0.000000
O O16 0.000000 0.500000 0.072568
O O17 0.000000 0.574770 0.000000
O O18 0.675806 0.241446 0.500000
O O19 0.500000 0.281174 0.583684
#
# Coordination Sequence:
#
# PCOD8288803 Si02
#       7
#    16  16  16  16   8   8  16
#     4  10  19  32  50  75 103 130 165 209 251 296
#     4  10  19  33  52  75 100 131 167 206 251 296
#     4   9  17  30  50  72  95 127 165 203 245 293
#     4  10  19  32  49  71  98 129 163 202 248 296
#     4   9  18  34  54  74 100 133 169 211 253 293
#     4   9  16  28  50  76  96 123 167 205 237 289
#     4   9  17  30  47  68  94 124 161 203 243 288
#
# _framework density 16.946169999999999
#
# number of rings (size 3 to 8) (size 9 to 14) (size 15 to 20)
#    0.000    2.500    2.500    0.500    0.000    2.000 
#    3.000    1.667    0.000    0.500    0.000    2.333 
#    0.000    2.000    0.000    0.000    0.000    0.000 
#
# Total GULP energy -594946.408434 kJ/mol
# GULP energy per Si atom -12394.716842 kJ/mol
# Density = 1.690760 g / cm^3
# Si number density = 16.946170 Si / 1000 Ang^3
#
#
#
# Elastic Constant Matrix: (Units=GPa)
#
#
# Indices 1 2 3 4 5 6 
#
# 1 89.9441 29.3709 45.7886 0.0000 0.0000 0.0000
# 2 29.3709 51.5055 47.2148 0.0000 0.0000 0.0000
# 3 45.7886 47.2148 136.7415 0.0000 0.0000 0.0000
# 4 0.0000 0.0000 0.0000 28.5056 0.0000 0.0000
# 5 0.0000 0.0000 0.0000 0.0000 24.4652 0.0000
# 6 0.0000 0.0000 0.0000 0.0000 0.0000 15.7403
#
#
#
# Elastic Compliance Matrix: (Units=1/GPa)
#
#
# Indices 1 2 3 4 5 6 
#
# 1 0.014412 -0.005552 -0.002909 0.000000 0.000000 0.000000
# 2 -0.005552 0.030545 -0.008688 0.000000 0.000000 0.000000
# 3 -0.002909 -0.008688 0.011287 0.000000 0.000000 0.000000
# 4 0.000000 0.000000 0.000000 0.035081 0.000000 0.000000
# 5 0.000000 0.000000 0.000000 0.000000 0.040874 0.000000
# 6 0.000000 0.000000 0.000000 0.000000 0.000000 0.063531
#
#
# Mechanical properties :
#
#
# Convention : Reuss Voigt Hill
#
# Bulk Modulus (GPa) = 45.56407 58.10441 51.83424
# Shear Modulus (GPa) = 21.06656 24.13001 22.59829
#
# Velocity S-wave (km/s) = 3.52965 3.77758 3.65572
# Velocity P-wave (km/s) = 6.59979 7.30677 6.96226
#
# Compressibility (1/GPa) = 0.02194712
#
# Stress axis : x y z
#
# Youngs Moduli (GPa) = 69.38772 32.73825 88.59798
#
# Poissons Ratio (x) = 0.18175 0.25773
# Poissons Ratio (y) = 0.38522 0.76973
# Poissons Ratio (z) = 0.20185 0.28443
#
# Static dielectric constant tensor:
#      x y z
#    x 3.290200 0.000000 0.000000 
#    y 0.000000 2.757180 0.000000 
#    z 0.000000 0.000000 3.511120 
# 
# 
# High freq. dielectric constant tensor:
#      x y z
#    x 1.657640 0.000000 0.000000 
#    y 0.000000 1.600940 0.000000 
#    z 0.000000 0.000000 1.670030 
# 
# From -- ./inp_files/43601.got.cif
#   From: 2010.06.25/outbox.cif.g09.slc.cpg/sg71_22_cif.got.tgz:43601.got - 2010.06.28 04:59:45.
