data_PCOD8288160
_publ_section_title
;
Structure prediction by ZEFSAII (Michael W. Deem and Ramdas Pophale) SiO2 
 PCOD8288160
Probable space group: I M M M
;
_chemical_formula_sum "Si O2"
_cell_formula_units_Z 88
_cell_length_a 23.832576
_cell_length_b 29.933639
_cell_length_c 8.825043
_cell_angle_alpha 90.000000
_cell_angle_beta 90.000000
_cell_angle_gamma 90.000000
_cell_volume 6295.747962
_symmetry_space_group_name_H-M "I M M M"
_symmetry_group_IT_number 71
_symmetry_cell_setting 'orthorhombic'
loop_
_space_group_symop_operation_xyz
x,y,z
-x,-y,z
x,-y,-z
-x,y,-z
-x,-y,-z
x,y,-z
-x,y,z
x,-y,z
1/2+x,1/2+y,1/2+z
1/2-x,1/2-y,1/2+z
1/2+x,1/2-y,1/2-z
1/2-x,1/2+y,1/2-z
1/2-x,1/2-y,1/2-z
1/2+x,1/2+y,1/2-z
1/2-x,1/2+y,1/2+z
1/2+x,1/2-y,1/2+z
loop_
_atom_site_type_symbol
_atom_site_label
_atom_site_fract_x
_atom_site_fract_y
_atom_site_fract_z
Si Si1 0.064951 0.000000 0.820485
Si Si2 0.000000 0.856323 0.320778
Si Si3 0.105614 0.911014 0.679022
Si Si4 0.325615 0.661233 0.325657
Si Si5 0.000000 0.243654 0.319608
Si Si6 0.384133 0.245815 0.678965
Si Si7 0.217293 0.289961 0.324755
O O1 0.100605 0.041645 0.760152
O O2 0.000000 0.000000 0.760033
O O3 0.064993 0.000000 0.000000
O O4 0.053951 0.881861 0.259643
O O5 0.000000 0.806716 0.255809
O O6 0.000000 0.854952 0.500000
O O7 0.105340 0.918669 0.500000
O O8 0.160179 0.882781 0.727826
O O9 0.340778 0.652253 0.500000
O O10 0.360321 0.705336 0.270260
O O11 0.258225 0.667293 0.305726
O O12 0.943903 0.265865 0.253633
O O13 0.000000 0.247195 0.500000
O O14 0.388826 0.242459 0.500000
O O15 0.342356 0.206635 0.738939
O O16 0.206039 0.279548 0.500000
O O17 0.250000 0.250000 0.250000
#
# Coordination Sequence:
#
# PCOD8288160 Si02
#       7
#     8   8  16  16   8  16  16
#     4  11  23  35  45  59  79 105 133 168 215 258
#     4   9  18  28  40  59  78 100 131 171 210 246
#     4  11  20  32  47  61  77 101 135 172 211 253
#     4   9  18  30  43  60  80 102 131 168 208 247
#     4  11  19  29  42  60  83 110 139 169 211 252
#     4  10  19  29  41  60  83 107 135 169 206 245
#     4   9  17  29  43  59  79 104 132 166 205 244
#
# _framework density 13.977688000000001
#
# number of rings (size 3 to 8) (size 9 to 14) (size 15 to 20)
#    0.000    2.091    2.727    3.273    0.000    4.000 
#    0.000    0.000    0.000    0.000    0.000    0.000 
#    0.000    0.000    0.000    0.000    0.000    0.909 
#
# Total GULP energy -545379.103102 kJ/mol
# GULP energy per Si atom -12394.979616 kJ/mol
# Density = 1.394587 g / cm^3
# Si number density = 13.977688 Si / 1000 Ang^3
#
#
#
# Elastic Constant Matrix: (Units=GPa)
#
#
# Indices 1 2 3 4 5 6 
#
# 1 105.5320 36.0457 41.0989 0.0000 0.0000 0.0000
# 2 36.0457 47.9327 26.5776 0.0000 0.0000 0.0000
# 3 41.0989 26.5776 72.7140 0.0000 0.0000 0.0000
# 4 0.0000 0.0000 0.0000 18.5624 0.0000 0.0000
# 5 0.0000 0.0000 0.0000 0.0000 25.3103 0.0000
# 6 0.0000 0.0000 0.0000 0.0000 0.0000 14.4997
#
#
#
# Elastic Compliance Matrix: (Units=1/GPa)
#
#
# Indices 1 2 3 4 5 6 
#
# 1 0.014137 -0.007777 -0.005148 0.000000 0.000000 0.000000
# 2 -0.007777 0.030443 -0.006732 0.000000 0.000000 0.000000
# 3 -0.005148 -0.006732 0.019123 0.000000 0.000000 0.000000
# 4 0.000000 0.000000 0.000000 0.053872 0.000000 0.000000
# 5 0.000000 0.000000 0.000000 0.000000 0.039510 0.000000
# 6 0.000000 0.000000 0.000000 0.000000 0.000000 0.068967
#
#
# Mechanical properties :
#
#
# Convention : Reuss Voigt Hill
#
# Bulk Modulus (GPa) = 41.00015 48.18034 44.59025
# Shear Modulus (GPa) = 18.28192 19.83826 19.06009
#
# Velocity S-wave (km/s) = 3.62046 3.77142 3.69671
# Velocity P-wave (km/s) = 6.84640 7.31499 7.08457
#
# Compressibility (1/GPa) = 0.02439015
#
# Stress axis : x y z
#
# Youngs Moduli (GPa) = 70.73735 32.84791 52.29385
#
# Poissons Ratio (x) = 0.25545 0.26920
# Poissons Ratio (y) = 0.55010 0.35203
# Poissons Ratio (z) = 0.36415 0.22113
#
# Static dielectric constant tensor:
#      x y z
#    x 3.017620 0.000000 0.000000 
#    y 0.000000 2.546460 0.000000 
#    z 0.000000 0.000000 2.781990 
# 
# 
# High freq. dielectric constant tensor:
#      x y z
#    x 1.525690 0.000000 0.000000 
#    y 0.000000 1.482380 0.000000 
#    z 0.000000 0.000000 1.546030 
# 
# From -- ./inp_files/11409.got.cif
#   From: 2010.06.25/outbox.cif.g09.slc.cpg/sg71_6_cif.got.tgz:11409.got - 2010.06.28 04:59:45.
