data_PCOD8288813
_publ_section_title
;
Structure prediction by ZEFSAII (Michael W. Deem and Ramdas Pophale) SiO2 
 PCOD8288813
Probable space group: I M M M
;
_chemical_formula_sum "Si O2"
_cell_formula_units_Z 104
_cell_length_a 27.631715
_cell_length_b 11.907612
_cell_length_c 17.960019
_cell_angle_alpha 90.000000
_cell_angle_beta 90.000000
_cell_angle_gamma 90.000000
_cell_volume 5909.344482
_symmetry_space_group_name_H-M "I M M M"
_symmetry_group_IT_number 71
_symmetry_cell_setting 'orthorhombic'
loop_
_space_group_symop_operation_xyz
x,y,z
-x,-y,z
x,-y,-z
-x,y,-z
-x,-y,-z
x,y,-z
-x,y,z
x,-y,z
1/2+x,1/2+y,1/2+z
1/2-x,1/2-y,1/2+z
1/2+x,1/2-y,1/2-z
1/2-x,1/2+y,1/2-z
1/2-x,1/2-y,1/2-z
1/2+x,1/2+y,1/2-z
1/2-x,1/2+y,1/2+z
1/2+x,1/2-y,1/2+z
loop_
_atom_site_type_symbol
_atom_site_label
_atom_site_fract_x
_atom_site_fract_y
_atom_site_fract_z
Si Si1 0.685600 0.630645 0.586048
Si Si2 0.779586 0.240493 0.588462
Si Si3 0.625626 0.130072 0.912667
Si Si4 0.000000 0.866663 0.082418
Si Si5 0.191832 0.000000 0.588374
Si Si6 0.555314 0.281951 0.828703
Si Si7 0.590590 0.632387 0.323032
Si Si8 0.918340 0.000000 0.411679
O O1 0.673807 0.659814 0.500000
O O2 0.698465 0.500000 0.593735
O O3 0.730949 0.700761 0.617876
O O4 0.640381 0.664429 0.636728
O O5 0.779576 0.245528 0.500000
O O6 0.826843 0.305880 0.617537
O O7 0.781172 0.111819 0.617920
O O8 0.578481 0.176536 0.871069
O O9 0.631841 0.000000 0.893904
O O10 0.618375 0.151418 0.000000
O O11 0.952437 0.824269 0.124480
O O12 0.000000 0.000000 0.077379
O O13 0.000000 0.813922 0.000000
O O14 0.136918 0.000000 0.617258
O O15 0.191436 0.000000 0.500000
O O16 0.500000 0.252953 0.808050
O O17 0.586676 0.303847 0.754844
O O18 0.555129 0.390253 0.881596
O O19 0.586162 0.500000 0.308081
O O20 0.921486 0.000000 0.500000
#
# Coordination Sequence:
#
# PCOD8288813 Si02
#       8
#    16  16  16   8   8  16  16   8
#     4   9  17  30  52  80 108 139 178 218 258 312
#     4   9  16  30  53  80 107 136 172 217 265 312
#     4  10  21  37  57  78 103 138 181 223 262 311
#     4   9  16  28  50  76 107 142 177 215 258 318
#     4   9  16  29  52  79 106 135 172 215 263 313
#     4  12  23  35  53  75 108 143 176 221 272 320
#     4  10  19  32  49  76 111 143 175 213 270 320
#     4  11  21  34  53  78 104 138 181 220 260 314
#
# _framework density 17.599245
#
# number of rings (size 3 to 8) (size 9 to 14) (size 15 to 20)
#    0.000    2.077    3.077    1.615    0.000    5.538 
#    0.000    1.538    1.692    0.000    0.000    0.000 
#    0.000    0.615    0.000    0.000    0.000    0.000 
#
# Total GULP energy -644837.196599 kJ/mol
# GULP energy per Si atom -12400.715319 kJ/mol
# Density = 1.755919 g / cm^3
# Si number density = 17.599245 Si / 1000 Ang^3
#
#
#
# Elastic Constant Matrix: (Units=GPa)
#
#
# Indices 1 2 3 4 5 6 
#
# 1 135.4347 57.6851 37.8823 0.0000 0.0000 0.0000
# 2 57.6851 98.7868 34.6079 0.0000 0.0000 0.0000
# 3 37.8823 34.6079 69.1586 0.0000 0.0000 0.0000
# 4 0.0000 0.0000 0.0000 16.9775 0.0000 0.0000
# 5 0.0000 0.0000 0.0000 0.0000 8.5747 0.0000
# 6 0.0000 0.0000 0.0000 0.0000 0.0000 27.5238
#
#
#
# Elastic Compliance Matrix: (Units=1/GPa)
#
#
# Indices 1 2 3 4 5 6 
#
# 1 0.010387 -0.004938 -0.003219 0.000000 0.000000 0.000000
# 2 -0.004938 0.014622 -0.004612 0.000000 0.000000 0.000000
# 3 -0.003219 -0.004612 0.018531 0.000000 0.000000 0.000000
# 4 0.000000 0.000000 0.000000 0.058901 0.000000 0.000000
# 5 0.000000 0.000000 0.000000 0.000000 0.116622 0.000000
# 6 0.000000 0.000000 0.000000 0.000000 0.000000 0.036332
#
#
# Mechanical properties :
#
#
# Convention : Reuss Voigt Hill
#
# Bulk Modulus (GPa) = 55.54901 62.63676 59.09288
# Shear Modulus (GPa) = 17.42564 22.16220 19.79392
#
# Velocity S-wave (km/s) = 3.15006 3.55247 3.35730
# Velocity P-wave (km/s) = 6.69793 7.24531 6.97699
#
# Compressibility (1/GPa) = 0.01800212
#
# Stress axis : x y z
#
# Youngs Moduli (GPa) = 96.27375 68.39025 53.96465
#
# Poissons Ratio (x) = 0.33769 0.17370
# Poissons Ratio (y) = 0.47538 0.24890
# Poissons Ratio (z) = 0.30987 0.31544
#
# Static dielectric constant tensor:
#      x y z
#    x 3.373250 0.000000 0.000000 
#    y 0.000000 3.165220 0.000000 
#    z 0.000000 0.000000 3.100570 
# 
# 
# High freq. dielectric constant tensor:
#      x y z
#    x 1.687910 0.000000 0.000000 
#    y 0.000000 1.655030 0.000000 
#    z 0.000000 0.000000 1.662050 
# 
# From -- ./inp_files/48905.got.cif
#   From: 2010.06.25/outbox.cif.g09.slc.cpg/sg71_25_cif.got.tgz:48905.got - 2010.06.28 04:59:45.
