data_PCOD8288098
_publ_section_title
;
Structure prediction by ZEFSAII (Michael W. Deem and Ramdas Pophale) SiO2 
 PCOD8288098
Probable space group: I M M M
;
_chemical_formula_sum "Si O2"
_cell_formula_units_Z 88
_cell_length_a 23.205875
_cell_length_b 33.634807
_cell_length_c 9.336307
_cell_angle_alpha 90.000000
_cell_angle_beta 90.000000
_cell_angle_gamma 90.000000
_cell_volume 7287.222206
_symmetry_space_group_name_H-M "I M M M"
_symmetry_group_IT_number 71
_symmetry_cell_setting 'orthorhombic'
loop_
_space_group_symop_operation_xyz
x,y,z
-x,-y,z
x,-y,-z
-x,y,-z
-x,-y,-z
x,y,-z
-x,y,z
x,-y,z
1/2+x,1/2+y,1/2+z
1/2-x,1/2-y,1/2+z
1/2+x,1/2-y,1/2-z
1/2-x,1/2+y,1/2-z
1/2-x,1/2-y,1/2-z
1/2+x,1/2+y,1/2-z
1/2-x,1/2+y,1/2+z
1/2+x,1/2-y,1/2+z
loop_
_atom_site_type_symbol
_atom_site_label
_atom_site_fract_x
_atom_site_fract_y
_atom_site_fract_z
Si Si1 0.436071 0.268002 0.170624
Si Si2 0.567676 0.577536 0.667736
Si Si3 0.264484 0.691412 0.157417
Si Si4 0.879241 0.849365 0.669611
Si Si5 0.931701 0.000000 0.662515
Si Si6 0.327837 0.224649 0.158711
O O1 0.500000 0.258079 0.228842
O O2 0.418709 0.312304 0.218676
O O3 0.390472 0.235017 0.228860
O O4 0.433180 0.266650 0.000000
O O5 0.582151 0.573325 0.500000
O O6 0.500000 0.584412 0.692219
O O7 0.602204 0.613756 0.735588
O O8 0.589744 0.538425 0.750348
O O9 0.312624 0.659986 0.209183
O O10 0.292517 0.734698 0.153734
O O11 0.207206 0.691174 0.254577
O O12 0.243374 0.679402 0.000000
O O13 0.886655 0.858007 0.500000
O O14 0.906643 0.000000 0.500000
O O15 0.000000 0.000000 0.656390
O O16 0.335791 0.207195 0.000000
#
# Coordination Sequence:
#
# PCOD8288098 Si02
#       6
#    16  16  16  16   8  16
#     4   8  13  21  33  48  64  82 107 138 166 194
#     4  10  19  28  37  51  70  86 101 129 168 200
#     4   8  14  23  33  46  62  79 102 132 162 190
#     4   9  16  25  37  50  63  83 110 135 161 197
#     4   9  17  29  43  53  61  81 111 133 152 189
#     4   8  13  21  33  46  59  79 105 130 160 196
#
# _framework density 12.075932
#
# number of rings (size 3 to 8) (size 9 to 14) (size 15 to 20)
#    0.000    3.364    0.000    3.545    0.000    3.636 
#    0.000    2.727    0.000    1.636    0.000    0.000 
#    0.000    0.000    0.000    0.000    0.000    0.000 
#
# Total GULP energy -545187.224294 kJ/mol
# GULP energy per Si atom -12390.618734 kJ/mol
# Density = 1.204845 g / cm^3
# Si number density = 12.075932 Si / 1000 Ang^3
#
#
#
# Elastic Constant Matrix: (Units=GPa)
#
#
# Indices 1 2 3 4 5 6 
#
# 1 82.7940 41.4753 38.7525 0.0000 0.0000 0.0000
# 2 41.4753 50.9873 37.5695 0.0000 0.0000 0.0000
# 3 38.7525 37.5695 64.6228 0.0000 0.0000 0.0000
# 4 0.0000 0.0000 0.0000 17.7675 0.0000 0.0000
# 5 0.0000 0.0000 0.0000 0.0000 15.9430 0.0000
# 6 0.0000 0.0000 0.0000 0.0000 0.0000 15.4916
#
#
#
# Elastic Compliance Matrix: (Units=1/GPa)
#
#
# Indices 1 2 3 4 5 6 
#
# 1 0.021169 -0.013761 -0.004694 0.000000 0.000000 0.000000
# 2 -0.013761 0.043255 -0.016895 0.000000 0.000000 0.000000
# 3 -0.004694 -0.016895 0.028112 0.000000 0.000000 0.000000
# 4 0.000000 0.000000 0.000000 0.056283 0.000000 0.000000
# 5 0.000000 0.000000 0.000000 0.000000 0.062723 0.000000
# 6 0.000000 0.000000 0.000000 0.000000 0.000000 0.064551
#
#
# Mechanical properties :
#
#
# Convention : Reuss Voigt Hill
#
# Bulk Modulus (GPa) = 45.79727 48.22209 47.00968
# Shear Modulus (GPa) = 14.12139 15.21419 14.66779
#
# Velocity S-wave (km/s) = 3.42333 3.55333 3.48894
# Velocity P-wave (km/s) = 7.32341 7.54015 7.43257
#
# Compressibility (1/GPa) = 0.02183536
#
# Stress axis : x y z
#
# Youngs Moduli (GPa) = 47.23948 23.11846 35.57203
#
# Poissons Ratio (x) = 0.31812 0.16699
# Poissons Ratio (y) = 0.65004 0.60101
# Poissons Ratio (z) = 0.22176 0.39060
#
# Static dielectric constant tensor:
#      x y z
#    x 2.599950 0.000000 0.000000 
#    y 0.000000 2.271270 0.000000 
#    z 0.000000 0.000000 2.563020 
# 
# 
# High freq. dielectric constant tensor:
#      x y z
#    x 1.438950 0.000000 0.000000 
#    y 0.000000 1.418410 0.000000 
#    z 0.000000 0.000000 1.453990 
# 
# From -- ./inp_files/13528.got.cif
#   From: 2010.06.25/outbox.cif.g09.slc.cpg/sg71_7_cif.got.tgz:13528.got - 2010.06.28 04:59:45.
