data_PCOD8288650
_publ_section_title
;
Structure prediction by ZEFSAII (Michael W. Deem and Ramdas Pophale) SiO2 
 PCOD8288650
Probable space group: I M M M
;
_chemical_formula_sum "Si O2"
_cell_formula_units_Z 80
_cell_length_a 21.984835
_cell_length_b 8.579958
_cell_length_c 21.964351
_cell_angle_alpha 90.000000
_cell_angle_beta 90.000000
_cell_angle_gamma 90.000000
_cell_volume 4143.112707
_symmetry_space_group_name_H-M "I M M M"
_symmetry_group_IT_number 71
_symmetry_cell_setting 'orthorhombic'
loop_
_space_group_symop_operation_xyz
x,y,z
-x,-y,z
x,-y,-z
-x,y,-z
-x,-y,-z
x,y,-z
-x,y,z
x,-y,z
1/2+x,1/2+y,1/2+z
1/2-x,1/2-y,1/2+z
1/2+x,1/2-y,1/2-z
1/2-x,1/2+y,1/2-z
1/2-x,1/2-y,1/2-z
1/2+x,1/2+y,1/2-z
1/2-x,1/2+y,1/2+z
1/2+x,1/2-y,1/2+z
loop_
_atom_site_type_symbol
_atom_site_label
_atom_site_fract_x
_atom_site_fract_y
_atom_site_fract_z
Si Si1 0.637809 0.185394 0.883450
Si Si2 0.930207 0.685035 0.736136
Si Si3 0.932386 0.313962 0.500000
Si Si4 0.000000 0.814636 0.932526
Si Si5 0.384269 0.314745 0.359146
Si Si6 0.766045 0.814536 0.930437
O O1 0.605874 0.250971 0.822635
O O2 0.600476 0.251641 0.940429
O O3 0.707156 0.243445 0.892547
O O4 0.635939 0.000000 0.882354
O O5 0.931910 0.500000 0.735400
O O6 0.890276 0.743205 0.792459
O O7 0.000000 0.749330 0.737556
O O8 0.931332 0.500000 0.500000
O O9 0.000000 0.247480 0.500000
O O10 0.940812 0.752456 0.898211
O O11 0.000000 0.000000 0.935092
O O12 0.000000 0.743696 0.000000
O O13 0.383896 0.500000 0.353774
O O14 0.324047 0.252230 0.392953
O O15 0.767286 0.000000 0.934037
O O16 0.766062 0.749284 0.000000
#
# Coordination Sequence:
#
# PCOD8288650 Si02
#       6
#    16  16   8   8  16  16
#     4   9  16  27  44  68  98 129 159 198 245 289
#     4  10  20  33  48  69 101 135 164 196 240 290
#     4   9  14  22  40  66  95 126 162 199 240 287
#     4   9  16  28  47  71  93 116 157 208 244 273
#     4  10  19  31  50  73  97 127 163 201 245 292
#     4   9  16  28  47  72  98 123 157 206 254 289
#
# _framework density 19.309155000000001
#
# number of rings (size 3 to 8) (size 9 to 14) (size 15 to 20)
#    0.000    2.600    2.000    1.200    0.000    5.600 
#    0.000    0.000    0.000    3.000    0.000    0.700 
#    0.000    2.400    0.000    0.000    0.000    0.000 
#
# Total GULP energy -495857.143357 kJ/mol
# GULP energy per Si atom -12396.428584 kJ/mol
# Density = 1.926521 g / cm^3
# Si number density = 19.309155 Si / 1000 Ang^3
#
#
#
# Elastic Constant Matrix: (Units=GPa)
#
#
# Indices 1 2 3 4 5 6 
#
# 1 191.6878 8.1619 97.2919 0.0000 0.0000 0.0000
# 2 8.1619 5.2359 8.8024 0.0000 0.0000 0.0000
# 3 97.2919 8.8024 191.2707 0.0000 0.0000 0.0000
# 4 0.0000 0.0000 0.0000 22.7632 0.0000 0.0000
# 5 0.0000 0.0000 0.0000 0.0000 45.4387 0.0000
# 6 0.0000 0.0000 0.0000 0.0000 0.0000 7.4973
#
#
#
# Elastic Compliance Matrix: (Units=1/GPa)
#
#
# Indices 1 2 3 4 5 6 
#
# 1 0.007174 -0.005472 -0.003397 0.000000 0.000000 0.000000
# 2 -0.005472 0.211178 -0.006935 0.000000 0.000000 0.000000
# 3 -0.003397 -0.006935 0.007275 0.000000 0.000000 0.000000
# 4 0.000000 0.000000 0.000000 0.043930 0.000000 0.000000
# 5 0.000000 0.000000 0.000000 0.000000 0.022008 0.000000
# 6 0.000000 0.000000 0.000000 0.000000 0.000000 0.133382
#
#
# Mechanical properties :
#
#
# Convention : Reuss Voigt Hill
#
# Bulk Modulus (GPa) = 5.15413 68.52298 36.83856
# Shear Modulus (GPa) = 9.59269 33.40238 21.49753
#
# Velocity S-wave (km/s) = 2.23131 4.16369 3.34029
# Velocity P-wave (km/s) = 3.05178 7.66025 5.83064
#
# Compressibility (1/GPa) = 0.19401907
#
# Stress axis : x y z
#
# Youngs Moduli (GPa) = 139.38908 4.73533 137.44780
#
# Poissons Ratio (x) = 0.02591 0.46697
# Poissons Ratio (y) = 0.76270 0.95325
# Poissons Ratio (z) = 0.47356 0.03284
#
# Static dielectric constant tensor:
#      x y z
#    x 3.858400 0.000000 0.000000 
#    y 0.000000 2.769320 0.000000 
#    z 0.000000 0.000000 3.739470 
# 
# 
# High freq. dielectric constant tensor:
#      x y z
#    x 1.767590 0.000000 0.000000 
#    y 0.000000 1.676160 0.000000 
#    z 0.000000 0.000000 1.766090 
# 
# From -- ./inp_files/12396.got.cif
#   From: 2010.06.25/outbox.cif.g09.slc.cpg/sg71_7_cif.got.tgz:12396.got - 2010.06.28 04:59:45.
