data_PCOD8288882
_publ_section_title
;
Structure prediction by ZEFSAII (Michael W. Deem and Ramdas Pophale) SiO2 
 PCOD8288882
Probable space group: I M M M
;
_chemical_formula_sum "Si O2"
_cell_formula_units_Z 64
_cell_length_a 14.967987
_cell_length_b 8.656908
_cell_length_c 26.287500
_cell_angle_alpha 90.000000
_cell_angle_beta 90.000000
_cell_angle_gamma 90.000000
_cell_volume 3406.241886
_symmetry_space_group_name_H-M "I M M M"
_symmetry_group_IT_number 71
_symmetry_cell_setting 'orthorhombic'
loop_
_space_group_symop_operation_xyz
x,y,z
-x,-y,z
x,-y,-z
-x,y,-z
-x,-y,-z
x,y,-z
-x,y,z
x,-y,z
1/2+x,1/2+y,1/2+z
1/2-x,1/2-y,1/2+z
1/2+x,1/2-y,1/2-z
1/2-x,1/2+y,1/2-z
1/2-x,1/2-y,1/2-z
1/2+x,1/2+y,1/2-z
1/2-x,1/2+y,1/2+z
1/2+x,1/2-y,1/2+z
loop_
_atom_site_type_symbol
_atom_site_label
_atom_site_fract_x
_atom_site_fract_y
_atom_site_fract_z
Si Si1 0.163468 0.683835 0.109081
Si Si2 0.000000 0.816095 0.285159
Si Si3 0.000000 0.816116 0.443980
Si Si4 0.500000 0.316968 0.670620
Si Si5 0.100541 0.683032 0.000000
Si Si6 0.141914 0.183454 0.635204
O O1 0.156485 0.500000 0.112380
O O2 0.087399 0.756521 0.143227
O O3 0.152316 0.739603 0.050550
O O4 0.257351 0.747573 0.131244
O O5 0.910313 0.757037 0.314360
O O6 0.000000 0.750832 0.228148
O O7 0.000000 0.000000 0.285601
O O8 0.088103 0.758978 0.414390
O O9 0.000000 0.741819 0.500000
O O10 0.000000 0.000000 0.447136
O O11 0.500000 0.500000 0.670358
O O12 0.094955 0.500000 0.000000
O O13 0.000000 0.751828 0.000000
O O14 0.144862 0.000000 0.635643
#
# Coordination Sequence:
#
# PCOD8288882 Si02
#       6
#    16   8   8   8   8  16
#     4  10  19  32  51  74  98 126 161 196 237 289
#     4   8  16  32  47  66  97 128 156 196 246 285
#     4   8  13  21  37  69 104 125 148 187 235 288
#     4  11  22  34  49  67  94 131 168 204 241 278
#     4   9  16  28  46  69  99 125 146 191 245 280
#     4   8  15  27  45  68  97 129 156 188 237 291
#
# _framework density 18.789034999999998
#
# number of rings (size 3 to 8) (size 9 to 14) (size 15 to 20)
#    0.000    3.000    1.250    1.875    1.750    1.000 
#    0.000    1.250    0.000    1.500    0.000    2.625 
#    0.000    1.000    0.000    0.000    0.000    0.000 
#
# Total GULP energy -396582.779790 kJ/mol
# GULP energy per Si atom -12393.211868 kJ/mol
# Density = 1.874627 g / cm^3
# Si number density = 18.789035 Si / 1000 Ang^3
#
#
#
# Elastic Constant Matrix: (Units=GPa)
#
#
# Indices 1 2 3 4 5 6 
#
# 1 198.3218 19.3858 102.2049 0.0000 0.0000 0.0000
# 2 19.3858 14.0898 19.9752 0.0000 0.0000 0.0000
# 3 102.2049 19.9752 195.5035 0.0000 0.0000 0.0000
# 4 0.0000 0.0000 0.0000 12.4744 0.0000 0.0000
# 5 0.0000 0.0000 0.0000 0.0000 0.8553 0.0000
# 6 0.0000 0.0000 0.0000 0.0000 0.0000 2.0435
#
#
#
# Elastic Compliance Matrix: (Units=1/GPa)
#
#
# Indices 1 2 3 4 5 6 
#
# 1 0.007233 -0.005369 -0.003233 0.000000 0.000000 0.000000
# 2 -0.005369 0.086980 -0.006080 0.000000 0.000000 0.000000
# 3 -0.003233 -0.006080 0.007426 0.000000 0.000000 0.000000
# 4 0.000000 0.000000 0.000000 0.080164 0.000000 0.000000
# 5 0.000000 0.000000 0.000000 0.000000 1.169149 0.000000
# 6 0.000000 0.000000 0.000000 0.000000 0.000000 0.489356
#
#
# Mechanical properties :
#
#
# Convention : Reuss Voigt Hill
#
# Bulk Modulus (GPa) = 13.83592 76.78300 45.30946
# Shear Modulus (GPa) = 2.64024 20.83125 11.73575
#
# Velocity S-wave (km/s) = 1.18670 3.33331 2.50192
# Velocity P-wave (km/s) = 3.04261 7.46788 5.70205
#
# Compressibility (1/GPa) = 0.07227566
#
# Stress axis : x y z
#
# Youngs Moduli (GPa) = 138.25321 11.49689 134.65715
#
# Poissons Ratio (x) = 0.06172 0.43532
# Poissons Ratio (y) = 0.74225 0.81877
# Poissons Ratio (z) = 0.44694 0.06991
#
# Static dielectric constant tensor:
#      x y z
#    x 4.066230 0.000000 0.000000 
#    y 0.000000 2.783990 0.000000 
#    z 0.000000 0.000000 3.837660 
# 
# 
# High freq. dielectric constant tensor:
#      x y z
#    x 1.740820 0.000000 0.000000 
#    y 0.000000 1.660130 0.000000 
#    z 0.000000 0.000000 1.740510 
# 
# From -- ./inp_files/65126.got.cif
#   From: 2010.06.25/outbox.cif.g09.slc.cpg/sg71_33_cif.got.tgz:65126.got - 2010.06.28 04:59:45.
