data_PCOD8288612
_publ_section_title
;
Structure prediction by ZEFSAII (Michael W. Deem and Ramdas Pophale) SiO2 
 PCOD8288612
Probable space group: I M M M
;
_chemical_formula_sum "Si O2"
_cell_formula_units_Z 104
_cell_length_a 28.097420
_cell_length_b 9.893564
_cell_length_c 22.419758
_cell_angle_alpha 90.000000
_cell_angle_beta 90.000000
_cell_angle_gamma 90.000000
_cell_volume 6232.325556
_symmetry_space_group_name_H-M "I M M M"
_symmetry_group_IT_number 71
_symmetry_cell_setting 'orthorhombic'
loop_
_space_group_symop_operation_xyz
x,y,z
-x,-y,z
x,-y,-z
-x,y,-z
-x,-y,-z
x,y,-z
-x,y,z
x,-y,z
1/2+x,1/2+y,1/2+z
1/2-x,1/2-y,1/2+z
1/2+x,1/2-y,1/2-z
1/2-x,1/2+y,1/2-z
1/2-x,1/2-y,1/2-z
1/2+x,1/2+y,1/2-z
1/2-x,1/2+y,1/2+z
1/2+x,1/2-y,1/2+z
loop_
_atom_site_type_symbol
_atom_site_label
_atom_site_fract_x
_atom_site_fract_y
_atom_site_fract_z
Si Si1 0.897143 0.848800 0.154954
Si Si2 0.554382 0.840497 0.000000
Si Si3 0.193956 0.344791 0.689426
Si Si4 0.099787 0.658748 0.624196
Si Si5 0.946440 0.651797 0.931045
Si Si6 0.799085 0.150479 0.798028
Si Si7 0.444627 0.654460 0.777481
O O1 0.912716 0.753422 0.102381
O O2 0.839886 0.844423 0.152334
O O3 0.916261 0.798453 0.218845
O O4 0.916417 0.000000 0.143072
O O5 0.584462 0.793110 0.942039
O O6 0.500000 0.780782 0.000000
O O7 0.550407 0.000000 0.000000
O O8 0.187090 0.500000 0.708886
O O9 0.156065 0.310789 0.636743
O O10 0.185043 0.253557 0.746934
O O11 0.248690 0.315718 0.669598
O O12 0.088544 0.500000 0.633103
O O13 0.068125 0.744406 0.669505
O O14 0.928138 0.500000 0.919914
O O15 0.000000 0.667097 0.906908
O O16 0.944483 0.688983 0.000000
O O17 0.796563 0.000000 0.769363
O O18 0.500000 0.667012 0.763231
O O19 0.430978 0.500000 0.794917
#
# Coordination Sequence:
#
# PCOD8288612 Si02
#       7
#    16   8  16  16  16  16  16
#     4  10  19  31  49  72  99 129 160 195 238 290
#     4   9  18  32  49  69  95 129 167 207 250 293
#     4   9  17  29  48  73  97 122 158 198 239 289
#     4  10  19  32  51  72  95 125 165 207 247 293
#     4   9  19  35  52  70  95 128 164 201 240 283
#     4   9  17  30  48  71 101 128 153 190 239 290
#     4  10  20  32  46  69 101 130 157 194 241 290
#
# _framework density 16.687190000000001
#
# number of rings (size 3 to 8) (size 9 to 14) (size 15 to 20)
#    0.000    2.538    1.538    1.385    0.000    3.385 
#    0.000    1.154    1.692    1.385    0.000    0.000 
#    0.000    0.000    0.000    0.000    0.000    0.000 
#
# Total GULP energy -644504.947840 kJ/mol
# GULP energy per Si atom -12394.325920 kJ/mol
# Density = 1.664921 g / cm^3
# Si number density = 16.687190 Si / 1000 Ang^3
#
#
#
# Elastic Constant Matrix: (Units=GPa)
#
#
# Indices 1 2 3 4 5 6 
#
# 1 113.6333 37.9714 51.7524 0.0000 0.0000 0.0000
# 2 37.9714 59.7155 41.8465 0.0000 0.0000 0.0000
# 3 51.7524 41.8465 69.6230 0.0000 0.0000 0.0000
# 4 0.0000 0.0000 0.0000 24.6213 0.0000 0.0000
# 5 0.0000 0.0000 0.0000 0.0000 27.1556 0.0000
# 6 0.0000 0.0000 0.0000 0.0000 0.0000 24.3914
#
#
#
# Elastic Compliance Matrix: (Units=1/GPa)
#
#
# Indices 1 2 3 4 5 6 
#
# 1 0.013550 -0.002692 -0.008454 0.000000 0.000000 0.000000
# 2 -0.002692 0.029467 -0.015710 0.000000 0.000000 0.000000
# 3 -0.008454 -0.015710 0.030090 0.000000 0.000000 0.000000
# 4 0.000000 0.000000 0.000000 0.040615 0.000000 0.000000
# 5 0.000000 0.000000 0.000000 0.000000 0.036825 0.000000
# 6 0.000000 0.000000 0.000000 0.000000 0.000000 0.040998
#
#
# Mechanical properties :
#
#
# Convention : Reuss Voigt Hill
#
# Bulk Modulus (GPa) = 51.56074 56.23471 53.89772
# Shear Modulus (GPa) = 19.86328 22.66045 21.26187
#
# Velocity S-wave (km/s) = 3.45386 3.68904 3.57339
# Velocity P-wave (km/s) = 6.84624 7.20540 7.02812
#
# Compressibility (1/GPa) = 0.01939460
#
# Stress axis : x y z
#
# Youngs Moduli (GPa) = 73.80062 33.93674 33.23398
#
# Poissons Ratio (x) = 0.09135 0.28097
# Poissons Ratio (y) = 0.19864 0.52210
# Poissons Ratio (z) = 0.62393 0.53314
#
# Static dielectric constant tensor:
#      x y z
#    x 3.451400 0.000000 0.000000 
#    y 0.000000 3.155500 0.000000 
#    z 0.000000 0.000000 2.907500 
# 
# 
# High freq. dielectric constant tensor:
#      x y z
#    x 1.656560 0.000000 0.000000 
#    y 0.000000 1.641640 0.000000 
#    z 0.000000 0.000000 1.610500 
# 
# From -- ./inp_files/11558.got.cif
#   From: 2010.06.25/outbox.cif.g09.slc.cpg/sg71_6_cif.got.tgz:11558.got - 2010.06.28 04:59:45.
