data_PCOD8288192
_publ_section_title
;
Structure prediction by ZEFSAII (Michael W. Deem and Ramdas Pophale) SiO2 
 PCOD8288192
Probable space group: I M M M
;
_chemical_formula_sum "Si O2"
_cell_formula_units_Z 72
_cell_length_a 35.603296
_cell_length_b 14.541814
_cell_length_c 8.791316
_cell_angle_alpha 90.000000
_cell_angle_beta 90.000000
_cell_angle_gamma 90.000000
_cell_volume 4551.585248
_symmetry_space_group_name_H-M "I M M M"
_symmetry_group_IT_number 71
_symmetry_cell_setting 'orthorhombic'
loop_
_space_group_symop_operation_xyz
x,y,z
-x,-y,z
x,-y,-z
-x,y,-z
-x,-y,-z
x,y,-z
-x,y,z
x,-y,z
1/2+x,1/2+y,1/2+z
1/2-x,1/2-y,1/2+z
1/2+x,1/2-y,1/2-z
1/2-x,1/2+y,1/2-z
1/2-x,1/2-y,1/2-z
1/2+x,1/2+y,1/2-z
1/2-x,1/2+y,1/2+z
1/2+x,1/2-y,1/2+z
loop_
_atom_site_type_symbol
_atom_site_label
_atom_site_fract_x
_atom_site_fract_y
_atom_site_fract_z
Si Si1 0.576421 0.105499 0.679254
Si Si2 0.273226 0.500000 0.681306
Si Si3 0.352412 0.177395 0.821741
Si Si4 0.784837 0.807334 0.679674
Si Si5 0.689114 0.000000 0.180384
Si Si6 0.000000 0.608996 0.670307
O O1 0.574278 0.108259 0.500000
O O2 0.607693 0.178166 0.736728
O O3 0.537127 0.143518 0.743603
O O4 0.584433 0.000000 0.735552
O O5 0.277329 0.500000 0.500000
O O6 0.291026 0.592293 0.749241
O O7 0.230988 0.500000 0.742142
O O8 0.325216 0.262050 0.783593
O O9 0.331292 0.088804 0.755306
O O10 0.360434 0.169514 0.000000
O O11 0.777592 0.811566 0.500000
O O12 0.750000 0.750000 0.750000
O O13 0.690122 0.000000 0.000000
O O14 0.000000 0.500000 0.668959
O O15 0.000000 0.649289 0.500000
#
# Coordination Sequence:
#
# PCOD8288192 Si02
#       6
#    16   8  16  16   8   8
#     4  10  19  29  43  67  96 123 156 200 240 277
#     4  11  21  37  53  69  94 127 164 209 255 296
#     4  10  19  32  48  66  93 127 164 200 238 288
#     4  11  22  35  51  72  96 127 165 207 250 295
#     4   9  16  29  47  66  90 123 160 198 240 286
#     4   9  17  29  45  63  87 126 163 188 229 287
#
# _framework density 15.818663000000001
#
# number of rings (size 3 to 8) (size 9 to 14) (size 15 to 20)
#    0.000    1.889    3.333    2.000    0.000    4.000 
#    0.000    0.000    0.000    0.000    0.000    0.000 
#    0.000    0.889    0.000    9.333    0.000    4.444 
#
# Total GULP energy -446248.354821 kJ/mol
# GULP energy per Si atom -12395.787634 kJ/mol
# Density = 1.578266 g / cm^3
# Si number density = 15.818663 Si / 1000 Ang^3
#
#
#
# Elastic Constant Matrix: (Units=GPa)
#
#
# Indices 1 2 3 4 5 6 
#
# 1 136.0615 48.5173 55.4891 0.0000 0.0000 0.0000
# 2 48.5173 95.9564 39.3428 0.0000 0.0000 0.0000
# 3 55.4891 39.3428 81.0520 0.0000 0.0000 0.0000
# 4 0.0000 0.0000 0.0000 22.2441 0.0000 0.0000
# 5 0.0000 0.0000 0.0000 0.0000 28.9444 0.0000
# 6 0.0000 0.0000 0.0000 0.0000 0.0000 -6.6557
#
#
#
# Elastic Compliance Matrix: (Units=1/GPa)
#
#
# Indices 1 2 3 4 5 6 
#
# 1 0.010868 -0.003052 -0.005959 0.000000 0.000000 0.000000
# 2 -0.003052 0.013868 -0.004642 0.000000 0.000000 0.000000
# 3 -0.005959 -0.004642 0.018671 0.000000 0.000000 0.000000
# 4 0.000000 0.000000 0.000000 0.044956 0.000000 0.000000
# 5 0.000000 0.000000 0.000000 0.000000 0.034549 0.000000
# 6 0.000000 0.000000 0.000000 0.000000 0.000000 -0.150248
#
#
# Mechanical properties :
#
#
# Convention : Reuss Voigt Hill
#
# Bulk Modulus (GPa) = 62.10977 66.64091 64.37534
# Shear Modulus (GPa) = 936.93684 20.22128 478.57906
#
# Velocity S-wave (km/s) = 24.36358 3.57924 17.41257
# Velocity P-wave (km/s) = 28.82350 7.70070 21.09615
#
# Compressibility (1/GPa) = 0.01610053
#
# Stress axis : x y z
#
# Youngs Moduli (GPa) = 92.01236 72.10966 53.55995
#
# Poissons Ratio (x) = 0.22007 0.31917
# Poissons Ratio (y) = 0.28081 0.24863
# Poissons Ratio (z) = 0.54831 0.33474
#
# Static dielectric constant tensor:
#      x y z
#    x 3.111270 0.000000 0.000000 
#    y 0.000000 2.753070 0.000000 
#    z 0.000000 0.000000 2.987760 
# 
# 
# High freq. dielectric constant tensor:
#      x y z
#    x 1.607490 0.000000 0.000000 
#    y 0.000000 1.566910 0.000000 
#    z 0.000000 0.000000 1.613230 
# 
# From -- ./inp_files/16400.got.cif
#   From: 2010.06.25/outbox.cif.g09.slc.cpg/sg71_9_cif.got.tgz:16400.got - 2010.06.28 04:59:45.
