data_PCOD8288849
_publ_section_title
;
Structure prediction by ZEFSAII (Michael W. Deem and Ramdas Pophale) SiO2 
 PCOD8288849
Probable space group: I M M M
;
_chemical_formula_sum "Si O2"
_cell_formula_units_Z 40
_cell_length_a 12.466753
_cell_length_b 20.397950
_cell_length_c 9.097580
_cell_angle_alpha 90.000000
_cell_angle_beta 90.000000
_cell_angle_gamma 90.000000
_cell_volume 2313.480063
_symmetry_space_group_name_H-M "I M M M"
_symmetry_group_IT_number 71
_symmetry_cell_setting 'orthorhombic'
loop_
_space_group_symop_operation_xyz
x,y,z
-x,-y,z
x,-y,-z
-x,y,-z
-x,-y,-z
x,y,-z
-x,y,z
x,-y,z
1/2+x,1/2+y,1/2+z
1/2-x,1/2-y,1/2+z
1/2+x,1/2-y,1/2-z
1/2-x,1/2+y,1/2-z
1/2-x,1/2-y,1/2-z
1/2+x,1/2+y,1/2-z
1/2-x,1/2+y,1/2+z
1/2+x,1/2-y,1/2+z
loop_
_atom_site_type_symbol
_atom_site_label
_atom_site_fract_x
_atom_site_fract_y
_atom_site_fract_z
Si Si1 0.822814 0.343067 0.328621
Si Si2 0.500000 0.077429 0.331567
Si Si3 0.379259 0.304910 0.830931
O O1 0.824182 0.359444 0.500000
O O2 0.893186 0.396658 0.246205
O O3 0.700752 0.346768 0.270238
O O4 0.871747 0.271964 0.293713
O O5 0.500000 0.100862 0.500000
O O6 0.500000 0.000000 0.318057
O O7 0.500000 0.328728 0.797920
O O8 0.347844 0.316846 0.000000
#
# Coordination Sequence:
#
# PCOD8288849 Si02
#       3
#    16   8  16
#     4  10  19  32  50  76 104 133 172 211 255 303
#     4  11  23  37  53  73 101 139 178 213 254 305
#     4   9  17  31  50  75 107 137 165 204 254 308
#
# _framework density 17.28997
#
# number of rings (size 3 to 8) (size 9 to 14) (size 15 to 20)
#    0.000    2.200    2.000    1.800    0.000    4.000 
#    0.000    0.000    0.000    1.200    0.000    8.400 
#    0.000    0.000    0.000    0.000    0.000    0.000 
#
# Total GULP energy -248053.013724 kJ/mol
# GULP energy per Si atom -12402.650686 kJ/mol
# Density = 1.725062 g / cm^3
# Si number density = 17.289970 Si / 1000 Ang^3
#
#
#
# Elastic Constant Matrix: (Units=GPa)
#
#
# Indices 1 2 3 4 5 6 
#
# 1 133.5839 41.4844 72.0843 0.0002 0.0000 0.0000
# 2 41.4844 48.3958 48.5596 -0.0002 0.0000 0.0000
# 3 72.0843 48.5596 120.7882 -0.0007 -0.0001 0.0001
# 4 0.0002 -0.0002 -0.0007 22.8574 0.0000 0.0000
# 5 0.0000 0.0000 -0.0001 0.0000 35.2963 -0.0001
# 6 0.0000 0.0000 0.0001 0.0000 -0.0001 21.7046
#
#
#
# Elastic Compliance Matrix: (Units=1/GPa)
#
#
# Indices 1 2 3 4 5 6 
#
# 1 0.011744 -0.005086 -0.004964 0.000000 0.000000 0.000000
# 2 -0.005086 0.036836 -0.011774 0.000000 0.000000 0.000000
# 3 -0.004964 -0.011774 0.015975 0.000000 0.000000 0.000000
# 4 0.000000 0.000000 0.000000 0.043750 0.000000 0.000000
# 5 0.000000 0.000000 0.000000 0.000000 0.028332 0.000000
# 6 0.000000 0.000000 0.000000 0.000000 0.000000 0.046073
#
#
# Mechanical properties :
#
#
# Convention : Reuss Voigt Hill
#
# Bulk Modulus (GPa) = 47.82986 69.66938 58.74962
# Shear Modulus (GPa) = 21.42927 25.34765 23.38846
#
# Velocity S-wave (km/s) = 3.52434 3.83303 3.68192
# Velocity P-wave (km/s) = 6.65467 7.74414 7.21998
#
# Compressibility (1/GPa) = 0.02090744
#
# Stress axis : x y z
#
# Youngs Moduli (GPa) = 85.14951 27.14713 62.59951
#
# Poissons Ratio (x) = 0.13808 0.31074
# Poissons Ratio (y) = 0.43309 0.73702
# Poissons Ratio (z) = 0.42267 0.31962
#
# Static dielectric constant tensor:
#      x y z
#    x 3.397270 0.000000 0.000000 
#    y 0.000000 2.795620 0.000000 
#    z 0.000000 0.000000 3.341840 
# 
# 
# High freq. dielectric constant tensor:
#      x y z
#    x 1.680830 0.000000 0.000000 
#    y 0.000000 1.619180 0.000000 
#    z 0.000000 0.000000 1.679560 
# 
# From -- ./inp_files/2626.got.cif
#   From: 2010.06.25/outbox.cif.g09.slc.cpg/sg71_2_cif.got.tgz:2626.got - 2010.06.28 04:59:45.
