data_PCOD8288770
_publ_section_title
;
Structure prediction by ZEFSAII (Michael W. Deem and Ramdas Pophale) SiO2 
 PCOD8288770
Probable space group: I M M M
;
_chemical_formula_sum "Si O2"
_cell_formula_units_Z 80
_cell_length_a 27.196653
_cell_length_b 7.989228
_cell_length_c 19.365671
_cell_angle_alpha 90.000000
_cell_angle_beta 90.000000
_cell_angle_gamma 90.000000
_cell_volume 4207.778062
_symmetry_space_group_name_H-M "I M M M"
_symmetry_group_IT_number 71
_symmetry_cell_setting 'orthorhombic'
loop_
_space_group_symop_operation_xyz
x,y,z
-x,-y,z
x,-y,-z
-x,y,-z
-x,-y,-z
x,y,-z
-x,y,z
x,-y,z
1/2+x,1/2+y,1/2+z
1/2-x,1/2-y,1/2+z
1/2+x,1/2-y,1/2-z
1/2-x,1/2+y,1/2-z
1/2-x,1/2-y,1/2-z
1/2+x,1/2+y,1/2-z
1/2-x,1/2+y,1/2+z
1/2+x,1/2-y,1/2+z
loop_
_atom_site_type_symbol
_atom_site_label
_atom_site_fract_x
_atom_site_fract_y
_atom_site_fract_z
Si Si1 0.199618 0.691461 0.832732
Si Si2 0.000000 0.682996 0.418218
Si Si3 0.115704 0.185568 0.079940
Si Si4 0.693722 0.802654 0.174835
Si Si5 0.893834 0.700238 0.578003
Si Si6 0.054526 0.500000 0.082246
O O1 0.185003 0.500000 0.845736
O O2 0.167933 0.808248 0.882358
O O3 0.256600 0.716491 0.851860
O O4 0.186782 0.746253 0.754659
O O5 0.052067 0.772851 0.398228
O O6 0.000000 0.500000 0.383027
O O7 0.000000 0.661939 0.500000
O O8 0.080320 0.330557 0.109950
O O9 0.092454 0.000000 0.091193
O O10 0.125815 0.219593 0.000000
O O11 0.647870 0.732416 0.130273
O O12 0.699409 0.000000 0.165622
O O13 0.881174 0.760215 0.500000
O O14 0.896447 0.500000 0.579991
O O15 0.000000 0.500000 0.113478
O O16 0.052968 0.500000 0.000000
#
# Coordination Sequence:
#
# PCOD8288770 Si02
#       6
#    16   8  16  16  16   8
#     4  10  19  32  48  66 100 138 173 215 263 312
#     4   7  10  18  36  62  91 121 148 185 242 294
#     4  10  20  34  55  80 105 138 176 217 265 312
#     4   9  18  30  46  69  98 132 174 211 257 312
#     4   8  13  23  41  66  95 123 156 200 246 298
#     4   9  18  34  56  82 110 136 169 214 262 316
#
# _framework density 19.012409000000002
#
# number of rings (size 3 to 8) (size 9 to 14) (size 15 to 20)
#    0.000    3.000    1.000    1.800    0.000    2.000 
#    0.000    4.000    2.200    0.000    0.000    0.700 
#    0.000    2.400    0.000    0.000    0.000    0.000 
#
# Total GULP energy -495678.250604 kJ/mol
# GULP energy per Si atom -12391.956265 kJ/mol
# Density = 1.896914 g / cm^3
# Si number density = 19.012409 Si / 1000 Ang^3
#
#
#
# Elastic Constant Matrix: (Units=GPa)
#
#
# Indices 1 2 3 4 5 6 
#
# 1 165.0004 41.2327 66.9678 0.0000 0.0000 0.0000
# 2 41.2327 75.1691 22.3131 0.0000 0.0000 0.0000
# 3 66.9678 22.3131 56.4524 0.0000 0.0000 0.0000
# 4 0.0000 0.0000 0.0000 13.6256 0.0000 0.0000
# 5 0.0000 0.0000 0.0000 0.0000 19.1636 0.0000
# 6 0.0000 0.0000 0.0000 0.0000 0.0000 21.5853
#
#
#
# Elastic Compliance Matrix: (Units=1/GPa)
#
#
# Indices 1 2 3 4 5 6 
#
# 1 0.012155 -0.002704 -0.013350 0.000000 0.000000 0.000000
# 2 -0.002704 0.015673 -0.002987 0.000000 0.000000 0.000000
# 3 -0.013350 -0.002987 0.034731 0.000000 0.000000 0.000000
# 4 0.000000 0.000000 0.000000 0.073391 0.000000 0.000000
# 5 0.000000 0.000000 0.000000 0.000000 0.052182 0.000000
# 6 0.000000 0.000000 0.000000 0.000000 0.000000 0.046328
#
#
# Mechanical properties :
#
#
# Convention : Reuss Voigt Hill
#
# Bulk Modulus (GPa) = 40.85452 61.96101 51.40776
# Shear Modulus (GPa) = 17.81255 21.94879 19.88067
#
# Velocity S-wave (km/s) = 3.06419 3.40140 3.23719
# Velocity P-wave (km/s) = 5.83558 6.93445 6.40861
#
# Compressibility (1/GPa) = 0.02447710
#
# Stress axis : x y z
#
# Youngs Moduli (GPa) = 82.27350 63.80233 28.79283
#
# Poissons Ratio (x) = 0.17255 0.38437
# Poissons Ratio (y) = 0.22251 0.08600
# Poissons Ratio (z) = 1.09832 0.19056
#
# Static dielectric constant tensor:
#      x y z
#    x 3.820250 0.000000 0.000000 
#    y 0.000000 3.279670 0.000000 
#    z 0.000000 0.000000 3.266930 
# 
# 
# High freq. dielectric constant tensor:
#      x y z
#    x 1.744510 0.000000 0.000000 
#    y 0.000000 1.719180 0.000000 
#    z 0.000000 0.000000 1.705110 
# 
# From -- ./inp_files/10737.got.cif
#   From: 2010.06.25/outbox.cif.g09.slc.cpg/sg71_6_cif.got.tgz:10737.got - 2010.06.28 04:59:45.
