data_PCOD8288123
_publ_section_title
;
Structure prediction by ZEFSAII (Michael W. Deem and Ramdas Pophale) SiO2 
 PCOD8288123
Probable space group: I M M M
;
_chemical_formula_sum "Si O2"
_cell_formula_units_Z 112
_cell_length_a 26.337535
_cell_length_b 16.384206
_cell_length_c 15.736787
_cell_angle_alpha 90.000000
_cell_angle_beta 90.000000
_cell_angle_gamma 90.000000
_cell_volume 6790.732015
_symmetry_space_group_name_H-M "I M M M"
_symmetry_group_IT_number 71
_symmetry_cell_setting 'orthorhombic'
loop_
_space_group_symop_operation_xyz
x,y,z
-x,-y,z
x,-y,-z
-x,y,-z
-x,-y,-z
x,y,-z
-x,y,z
x,-y,z
1/2+x,1/2+y,1/2+z
1/2-x,1/2-y,1/2+z
1/2+x,1/2-y,1/2-z
1/2-x,1/2+y,1/2-z
1/2-x,1/2-y,1/2-z
1/2+x,1/2+y,1/2-z
1/2-x,1/2+y,1/2+z
1/2+x,1/2-y,1/2+z
loop_
_atom_site_type_symbol
_atom_site_label
_atom_site_fract_x
_atom_site_fract_y
_atom_site_fract_z
Si Si1 0.719669 0.771329 0.406278
Si Si2 0.799032 0.651318 0.649750
Si Si3 0.903515 0.593177 0.403976
Si Si4 0.058733 0.699731 0.250839
Si Si5 0.560140 0.091058 0.405937
Si Si6 0.732320 0.408092 0.208325
Si Si7 0.153379 0.211952 0.764809
O O1 0.701899 0.796267 0.500000
O O2 0.765390 0.705924 0.413456
O O3 0.738352 0.853685 0.360485
O O4 0.672344 0.726200 0.361061
O O5 0.842480 0.602339 0.600157
O O6 0.763353 0.590179 0.703303
O O7 0.824897 0.710967 0.716082
O O8 0.920774 0.615424 0.500000
O O9 0.918029 0.500000 0.382581
O O10 0.933474 0.650842 0.338562
O O11 0.079877 0.647149 0.170810
O O12 0.092073 0.783341 0.246531
O O13 0.000000 0.723943 0.241471
O O14 0.576722 0.123612 0.500000
O O15 0.500000 0.087353 0.400878
O O16 0.582388 0.000000 0.392485
O O17 0.726229 0.500000 0.173715
O O18 0.675838 0.371680 0.226178
#
# Coordination Sequence:
#
# PCOD8288123 Si02
#       7
#    16  16  16  16  16  16  16
#     4   9  16  27  45  68  93 116 138 172 218 266
#     4   8  15  29  45  62  87 119 145 164 202 264
#     4  10  19  28  41  64  90 114 145 184 219 254
#     4  10  19  31  45  58  81 119 157 190 223 259
#     4   8  14  25  41  60  79 101 135 177 218 261
#     4   9  16  28  47  67  89 117 145 175 217 268
#     4   8  17  30  43  62  85 113 148 180 212 253
#
# _framework density 16.493068000000001
#
# number of rings (size 3 to 8) (size 9 to 14) (size 15 to 20)
#    0.000    3.143    0.000    3.429    0.000    2.000 
#    0.000    1.429    0.000    4.286    0.000    0.000 
#    0.000    0.000    0.000   19.143    0.000    0.000 
#
# Total GULP energy -693846.821522 kJ/mol
# GULP energy per Si atom -12390.121813 kJ/mol
# Density = 1.645553 g / cm^3
# Si number density = 16.493068 Si / 1000 Ang^3
#
#
#
# Elastic Constant Matrix: (Units=GPa)
#
#
# Indices 1 2 3 4 5 6 
#
# 1 71.0967 12.3885 10.4196 0.0000 0.0000 0.0000
# 2 12.3885 45.3895 12.3061 0.0000 0.0000 0.0000
# 3 10.4196 12.3061 87.4556 0.0000 0.0000 0.0000
# 4 0.0000 0.0000 0.0000 10.6592 0.0000 0.0000
# 5 0.0000 0.0000 0.0000 0.0000 14.6242 0.0000
# 6 0.0000 0.0000 0.0000 0.0000 0.0000 16.0976
#
#
#
# Elastic Compliance Matrix: (Units=1/GPa)
#
#
# Indices 1 2 3 4 5 6 
#
# 1 0.014898 -0.003727 -0.001251 0.000000 0.000000 0.000000
# 2 -0.003727 0.023838 -0.002910 0.000000 0.000000 0.000000
# 3 -0.001251 -0.002910 0.011993 0.000000 0.000000 0.000000
# 4 0.000000 0.000000 0.000000 0.093816 0.000000 0.000000
# 5 0.000000 0.000000 0.000000 0.000000 0.068380 0.000000
# 6 0.000000 0.000000 0.000000 0.000000 0.000000 0.062121
#
#
# Mechanical properties :
#
#
# Convention : Reuss Voigt Hill
#
# Bulk Modulus (GPa) = 28.60991 30.46334 29.53662
# Shear Modulus (GPa) = 16.53044 19.53137 18.03091
#
# Velocity S-wave (km/s) = 3.16929 3.44498 3.31001
# Velocity P-wave (km/s) = 5.54769 5.85955 5.70575
#
# Compressibility (1/GPa) = 0.03495292
#
# Stress axis : x y z
#
# Youngs Moduli (GPa) = 67.12271 41.95012 83.38292
#
# Poissons Ratio (x) = 0.15636 0.10427
# Poissons Ratio (y) = 0.25018 0.24266
# Poissons Ratio (z) = 0.08394 0.12208
#
# Static dielectric constant tensor:
#      x y z
#    x 3.320520 0.000000 0.000000 
#    y 0.000000 2.909970 0.000000 
#    z 0.000000 0.000000 3.144990 
# 
# 
# High freq. dielectric constant tensor:
#      x y z
#    x 1.618530 0.000000 0.000000 
#    y 0.000000 1.596750 0.000000 
#    z 0.000000 0.000000 1.639450 
# 
# From -- ./inp_files/40351.got.cif
#   From: 2010.06.25/outbox.cif.g09.slc.cpg/sg71_21_cif.got.tgz:40351.got - 2010.06.28 04:59:45.
