data_PCOD8288396
_publ_section_title
;
Structure prediction by ZEFSAII (Michael W. Deem and Ramdas Pophale) SiO2 
 PCOD8288396
Probable space group: I M M M
;
_chemical_formula_sum "Si O2"
_cell_formula_units_Z 80
_cell_length_a 19.332707
_cell_length_b 9.997336
_cell_length_c 24.645985
_cell_angle_alpha 90.000000
_cell_angle_beta 90.000000
_cell_angle_gamma 90.000000
_cell_volume 4763.466742
_symmetry_space_group_name_H-M "I M M M"
_symmetry_group_IT_number 71
_symmetry_cell_setting 'orthorhombic'
loop_
_space_group_symop_operation_xyz
x,y,z
-x,-y,z
x,-y,-z
-x,y,-z
-x,-y,-z
x,y,-z
-x,y,z
x,-y,z
1/2+x,1/2+y,1/2+z
1/2-x,1/2-y,1/2+z
1/2+x,1/2-y,1/2-z
1/2-x,1/2+y,1/2-z
1/2-x,1/2-y,1/2-z
1/2+x,1/2+y,1/2-z
1/2-x,1/2+y,1/2+z
1/2+x,1/2-y,1/2+z
loop_
_atom_site_type_symbol
_atom_site_label
_atom_site_fract_x
_atom_site_fract_y
_atom_site_fract_z
Si Si1 0.132147 0.000000 0.437346
Si Si2 0.719165 0.759272 0.939852
Si Si3 0.383413 0.000000 0.943660
Si Si4 0.354610 0.157238 0.252352
Si Si5 0.500000 0.500000 0.859493
Si Si6 0.500000 0.000000 0.861156
Si Si7 0.766317 0.844747 0.828411
Si Si8 0.500000 0.756024 0.215160
O O1 0.180839 0.875999 0.424046
O O2 0.066614 0.000000 0.397956
O O3 0.106601 0.000000 0.500000
O O4 0.771106 0.800534 0.891601
O O5 0.661672 0.869908 0.942215
O O6 0.755524 0.748418 0.000000
O O7 0.430570 0.000000 0.893013
O O8 0.426642 0.000000 0.000000
O O9 0.311596 0.170311 0.195917
O O10 0.316563 0.242462 0.298323
O O11 0.430174 0.225366 0.249935
O O12 0.360318 0.000000 0.268623
O O13 0.500000 0.379107 0.817976
O O14 0.500000 0.130594 0.827949
O O15 0.790388 0.000000 0.822197
#
# Coordination Sequence:
#
# PCOD8288396 Si02
#       8
#     8  16   8  16   4   4  16   8
#     4  10  21  34  47  70 107 146 184 221 256 302
#     4  10  20  34  52  75 104 137 175 221 267 312
#     4  10  19  30  47  72 101 134 174 215 254 298
#     4  10  21  37  53  77 103 139 177 220 267 322
#     4  12  23  32  50  72 102 148 187 220 260 306
#     4  12  19  32  50  68  98 140 179 212 250 302
#     4  10  20  34  56  78 106 134 174 220 271 321
#     4  12  24  36  53  74 105 140 182 225 266 313
#
# _framework density 16.794491000000001
#
# number of rings (size 3 to 8) (size 9 to 14) (size 15 to 20)
#    0.000    1.600    2.000    3.900    2.800    0.000 
#    0.000    4.000    0.000    0.000    0.000    0.700 
#    0.000    3.200    0.000    0.000    0.000    0.000 
#
# Total GULP energy -495625.987207 kJ/mol
# GULP energy per Si atom -12390.649680 kJ/mol
# Density = 1.675627 g / cm^3
# Si number density = 16.794491 Si / 1000 Ang^3
#
#
#
# Elastic Constant Matrix: (Units=GPa)
#
#
# Indices 1 2 3 4 5 6 
#
# 1 72.4585 27.9894 38.7278 0.0000 0.0000 0.0000
# 2 27.9894 128.2888 39.5725 0.0000 0.0000 0.0000
# 3 38.7278 39.5725 106.6296 0.0000 0.0000 0.0000
# 4 0.0000 0.0000 0.0000 31.4443 0.0000 0.0000
# 5 0.0000 0.0000 0.0000 0.0000 30.6245 0.0000
# 6 0.0000 0.0000 0.0000 0.0000 0.0000 43.5525
#
#
#
# Elastic Compliance Matrix: (Units=1/GPa)
#
#
# Indices 1 2 3 4 5 6 
#
# 1 0.017618 -0.002112 -0.005615 0.000000 0.000000 0.000000
# 2 -0.002112 0.009056 -0.002594 0.000000 0.000000 0.000000
# 3 -0.005615 -0.002594 0.012380 0.000000 0.000000 0.000000
# 4 0.000000 0.000000 0.000000 0.031802 0.000000 0.000000
# 5 0.000000 0.000000 0.000000 0.000000 0.032654 0.000000
# 6 0.000000 0.000000 0.000000 0.000000 0.000000 0.022961
#
#
# Mechanical properties :
#
#
# Convention : Reuss Voigt Hill
#
# Bulk Modulus (GPa) = 54.31047 57.77291 56.04169
# Shear Modulus (GPa) = 32.62658 34.53009 33.57833
#
# Velocity S-wave (km/s) = 4.41238 4.53927 4.47628
# Velocity P-wave (km/s) = 7.63985 7.87070 7.75613
#
# Compressibility (1/GPa) = 0.01841265
#
# Stress axis : x y z
#
# Youngs Moduli (GPa) = 56.76052 110.42737 80.77368
#
# Poissons Ratio (x) = 0.23319 0.45355
# Poissons Ratio (y) = 0.11986 0.20951
# Poissons Ratio (z) = 0.31872 0.28643
#
# Static dielectric constant tensor:
#      x y z
#    x 3.527940 0.000000 0.000000 
#    y 0.000000 3.395960 0.000000 
#    z 0.000000 0.000000 3.615520 
# 
# 
# High freq. dielectric constant tensor:
#      x y z
#    x 1.607240 0.000000 0.000000 
#    y 0.000000 1.676280 0.000000 
#    z 0.000000 0.000000 1.647600 
# 
# From -- ./inp_files/60521.got.cif
#   From: 2010.06.25/outbox.cif.g09.slc.cpg/sg71_31_cif.got.tgz:60521.got - 2010.06.28 04:59:45.
