data_PCOD8288035
_publ_section_title
;
Structure prediction by ZEFSAII (Michael W. Deem and Ramdas Pophale) SiO2 
 PCOD8288035
Probable space group: I M M M
;
_chemical_formula_sum "Si O2"
_cell_formula_units_Z 104
_cell_length_a 18.448663
_cell_length_b 17.048169
_cell_length_c 17.235692
_cell_angle_alpha 90.000000
_cell_angle_beta 90.000000
_cell_angle_gamma 90.000000
_cell_volume 5420.899606
_symmetry_space_group_name_H-M "I M M M"
_symmetry_group_IT_number 71
_symmetry_cell_setting 'orthorhombic'
loop_
_space_group_symop_operation_xyz
x,y,z
-x,-y,z
x,-y,-z
-x,y,-z
-x,-y,-z
x,y,-z
-x,y,z
x,-y,z
1/2+x,1/2+y,1/2+z
1/2-x,1/2-y,1/2+z
1/2+x,1/2-y,1/2-z
1/2-x,1/2+y,1/2-z
1/2-x,1/2-y,1/2-z
1/2+x,1/2+y,1/2-z
1/2-x,1/2+y,1/2+z
1/2+x,1/2-y,1/2+z
loop_
_atom_site_type_symbol
_atom_site_label
_atom_site_fract_x
_atom_site_fract_y
_atom_site_fract_z
Si Si1 0.000000 0.093420 0.292521
Si Si2 0.279847 0.693281 0.084487
Si Si3 0.367012 0.161605 0.916007
Si Si4 0.143768 0.829325 0.255284
Si Si5 0.220390 0.413808 0.707061
Si Si6 0.000000 0.233495 0.591455
Si Si7 0.500000 0.907884 0.407870
Si Si8 0.360852 0.168744 0.332375
O O1 0.927674 0.116621 0.243952
O O2 0.000000 0.147858 0.369480
O O3 0.000000 0.000000 0.311391
O O4 0.296725 0.784561 0.074894
O O5 0.329027 0.660278 0.155314
O O6 0.194160 0.690521 0.099062
O O7 0.297200 0.651922 0.000000
O O8 0.341063 0.093118 0.859619
O O9 0.431127 0.215785 0.880885
O O10 0.390806 0.126760 0.000000
O O11 0.210220 0.856454 0.200264
O O12 0.126171 0.740334 0.228742
O O13 0.253395 0.500000 0.705150
O O14 0.176967 0.401732 0.786424
O O15 0.000000 0.218550 0.500000
O O16 0.500000 0.897340 0.500000
O O17 0.567125 0.862670 0.371145
O O18 0.500000 0.000000 0.385662
#
# Coordination Sequence:
#
# PCOD8288035 Si02
#       8
#     8  16  16  16  16   8   8  16
#     4  12  23  34  51  77 111 146 180 228 287 333
#     4  10  18  33  60  85 108 138 187 236 274 325
#     4  10  19  35  58  83 111 150 189 228 280 340
#     4  11  21  38  56  83 112 149 195 235 275 337
#     4  11  21  36  57  85 117 148 185 239 291 337
#     4  10  20  36  57  80 110 145 183 227 274 336
#     4  11  25  42  59  86 121 150 185 240 297 339
#     4  11  20  38  60  84 108 151 195 231 273 343
#
# _framework density 19.185008
#
# number of rings (size 3 to 8) (size 9 to 14) (size 15 to 20)
#    0.000    1.308    4.615    2.769    0.000    1.077 
#    0.000    1.154    0.000   10.154    0.000    0.000 
#    0.000    4.923    0.000    0.000    0.000    0.000 
#
# Total GULP energy -644213.760497 kJ/mol
# GULP energy per Si atom -12388.726163 kJ/mol
# Density = 1.914134 g / cm^3
# Si number density = 19.185008 Si / 1000 Ang^3
#
#
#
# Elastic Constant Matrix: (Units=GPa)
#
#
# Indices 1 2 3 4 5 6 
#
# 1 141.6200 44.2952 48.9573 0.0000 0.0000 0.0000
# 2 44.2952 97.0249 38.3657 0.0000 0.0000 0.0000
# 3 48.9573 38.3657 89.0028 0.0000 0.0000 0.0000
# 4 0.0000 0.0000 0.0000 10.9791 0.0000 0.0000
# 5 0.0000 0.0000 0.0000 0.0000 24.0380 0.0000
# 6 0.0000 0.0000 0.0000 0.0000 0.0000 23.7981
#
#
#
# Elastic Compliance Matrix: (Units=1/GPa)
#
#
# Indices 1 2 3 4 5 6 
#
# 1 0.009259 -0.002668 -0.003943 0.000000 0.000000 0.000000
# 2 -0.002668 0.013193 -0.004220 0.000000 0.000000 0.000000
# 3 -0.003943 -0.004220 0.015223 0.000000 0.000000 0.000000
# 4 0.000000 0.000000 0.000000 0.091082 0.000000 0.000000
# 5 0.000000 0.000000 0.000000 0.000000 0.041601 0.000000
# 6 0.000000 0.000000 0.000000 0.000000 0.000000 0.042020
#
#
# Mechanical properties :
#
#
# Convention : Reuss Voigt Hill
#
# Bulk Modulus (GPa) = 62.44311 65.65379 64.04845
# Shear Modulus (GPa) = 20.88756 24.83167 22.85961
#
# Velocity S-wave (km/s) = 3.30319 3.60158 3.45561
# Velocity P-wave (km/s) = 6.86780 7.18268 7.02700
#
# Compressibility (1/GPa) = 0.01601458
#
# Stress axis : x y z
#
# Youngs Moduli (GPa) = 108.00787 75.79734 65.68864
#
# Poissons Ratio (x) = 0.20221 0.25900
# Poissons Ratio (y) = 0.28814 0.27718
# Poissons Ratio (z) = 0.42586 0.31983
#
# Static dielectric constant tensor:
#      x y z
#    x 3.709380 0.000000 0.000000 
#    y 0.000000 3.221410 0.000000 
#    z 0.000000 0.000000 3.693960 
# 
# 
# High freq. dielectric constant tensor:
#      x y z
#    x 1.759080 0.000000 0.000000 
#    y 0.000000 1.717640 0.000000 
#    z 0.000000 0.000000 1.741810 
# 
# From -- ./inp_files/46201.got.cif
#   From: 2010.06.25/outbox.cif.g09.slc.cpg/sg71_24_cif.got.tgz:46201.got - 2010.06.28 04:59:45.
