data_PCOD8288841
_publ_section_title
;
Structure prediction by ZEFSAII (Michael W. Deem and Ramdas Pophale) SiO2 
 PCOD8288841
Probable space group: I M M M
;
_chemical_formula_sum "Si O2"
_cell_formula_units_Z 88
_cell_length_a 18.905683
_cell_length_b 12.687259
_cell_length_c 20.894483
_cell_angle_alpha 90.000000
_cell_angle_beta 90.000000
_cell_angle_gamma 90.000000
_cell_volume 5011.777788
_symmetry_space_group_name_H-M "I M M M"
_symmetry_group_IT_number 71
_symmetry_cell_setting 'orthorhombic'
loop_
_space_group_symop_operation_xyz
x,y,z
-x,-y,z
x,-y,-z
-x,y,-z
-x,-y,-z
x,y,-z
-x,y,z
x,-y,z
1/2+x,1/2+y,1/2+z
1/2-x,1/2-y,1/2+z
1/2+x,1/2-y,1/2-z
1/2-x,1/2+y,1/2-z
1/2-x,1/2-y,1/2-z
1/2+x,1/2+y,1/2-z
1/2-x,1/2+y,1/2+z
1/2+x,1/2-y,1/2+z
loop_
_atom_site_type_symbol
_atom_site_label
_atom_site_fract_x
_atom_site_fract_y
_atom_site_fract_z
Si Si1 0.172093 0.741976 0.678637
Si Si2 0.918839 0.298118 0.133400
Si Si3 0.581768 0.381164 0.726333
Si Si4 0.583145 0.881424 0.500000
Si Si5 0.581799 0.122372 0.074304
Si Si6 0.793761 0.383130 0.797802
O O1 0.120651 0.819578 0.717323
O O2 0.132828 0.695497 0.616798
O O3 0.202171 0.649074 0.723347
O O4 0.241448 0.809797 0.659692
O O5 0.906600 0.178510 0.158341
O O6 0.893233 0.311375 0.060480
O O7 0.873069 0.378661 0.175169
O O8 0.000000 0.332724 0.142276
O O9 0.500000 0.382800 0.745243
O O10 0.611394 0.500000 0.719224
O O11 0.500000 0.896035 0.500000
O O12 0.617100 0.000000 0.500000
O O13 0.500000 0.147417 0.090797
O O14 0.597684 0.000000 0.088857
O O15 0.596908 0.147649 0.000000
O O16 0.763528 0.500000 0.801667
#
# Coordination Sequence:
#
# PCOD8288841 Si02
#       6
#    16  16  16   8  16  16
#     4  10  19  32  50  74 103 137 167 210 253 310
#     4   9  18  32  49  71  96 126 169 215 260 305
#     4   9  17  30  49  71  96 129 167 207 252 302
#     4   9  16  28  47  67  91 123 155 198 256 306
#     4   9  18  34  57  83 109 137 170 211 260 312
#     4  10  20  32  48  73 101 133 170 212 261 306
#
# _framework density 17.558638999999999
#
# number of rings (size 3 to 8) (size 9 to 14) (size 15 to 20)
#    0.000    2.636    0.000    2.727    0.000    1.818 
#    1.636    1.364    0.000    4.364    0.000    6.364 
#    0.000    0.000    0.000    0.000    0.000    0.000 
#
# Total GULP energy -545324.775412 kJ/mol
# GULP energy per Si atom -12393.744896 kJ/mol
# Density = 1.751867 g / cm^3
# Si number density = 17.558639 Si / 1000 Ang^3
#
#
#
# Elastic Constant Matrix: (Units=GPa)
#
#
# Indices 1 2 3 4 5 6 
#
# 1 79.2379 49.0934 45.2841 0.0000 0.0000 0.0000
# 2 49.0934 123.2220 63.0300 0.0000 0.0000 0.0000
# 3 45.2841 63.0300 99.9812 0.0000 0.0000 0.0000
# 4 0.0000 0.0000 0.0000 21.5132 0.0000 0.0000
# 5 0.0000 0.0000 0.0000 0.0000 26.0977 0.0000
# 6 0.0000 0.0000 0.0000 0.0000 0.0000 20.4230
#
#
#
# Elastic Compliance Matrix: (Units=1/GPa)
#
#
# Indices 1 2 3 4 5 6 
#
# 1 0.018632 -0.004585 -0.005548 0.000000 0.000000 0.000000
# 2 -0.004585 0.013106 -0.006186 0.000000 0.000000 0.000000
# 3 -0.005548 -0.006186 0.016414 0.000000 0.000000 0.000000
# 4 0.000000 0.000000 0.000000 0.046483 0.000000 0.000000
# 5 0.000000 0.000000 0.000000 0.000000 0.038318 0.000000
# 6 0.000000 0.000000 0.000000 0.000000 0.000000 0.048964
#
#
# Mechanical properties :
#
#
# Convention : Reuss Voigt Hill
#
# Bulk Modulus (GPa) = 64.45675 68.58401 66.52038
# Shear Modulus (GPa) = 22.75546 23.27569 23.01558
#
# Velocity S-wave (km/s) = 3.60386 3.64483 3.62440
# Velocity P-wave (km/s) = 7.35569 7.54041 7.44862
#
# Compressibility (1/GPa) = 0.01551428
#
# Stress axis : x y z
#
# Youngs Moduli (GPa) = 53.67147 76.29893 60.92197
#
# Poissons Ratio (x) = 0.34984 0.33801
# Poissons Ratio (y) = 0.24609 0.37685
# Poissons Ratio (z) = 0.29778 0.47197
#
# Static dielectric constant tensor:
#      x y z
#    x 3.315000 0.000000 0.000000 
#    y 0.000000 3.303910 0.000000 
#    z 0.000000 0.000000 3.186580 
# 
# 
# High freq. dielectric constant tensor:
#      x y z
#    x 1.680700 0.000000 0.000000 
#    y 0.000000 1.676640 0.000000 
#    z 0.000000 0.000000 1.658580 
# 
# From -- ./inp_files/23935.got.cif
#   From: 2010.06.25/outbox.cif.g09.slc.cpg/sg71_12_cif.got.tgz:23935.got - 2010.06.28 04:59:45.
