data_PCOD8288737
_publ_section_title
;
Structure prediction by ZEFSAII (Michael W. Deem and Ramdas Pophale) SiO2 
 PCOD8288737
Probable space group: I M M M
;
_chemical_formula_sum "Si O2"
_cell_formula_units_Z 104
_cell_length_a 22.315219
_cell_length_b 8.982672
_cell_length_c 26.319005
_cell_angle_alpha 90.000000
_cell_angle_beta 90.000000
_cell_angle_gamma 90.000000
_cell_volume 5275.652261
_symmetry_space_group_name_H-M "I M M M"
_symmetry_group_IT_number 71
_symmetry_cell_setting 'orthorhombic'
loop_
_space_group_symop_operation_xyz
x,y,z
-x,-y,z
x,-y,-z
-x,y,-z
-x,-y,-z
x,y,-z
-x,y,z
x,-y,z
1/2+x,1/2+y,1/2+z
1/2-x,1/2-y,1/2+z
1/2+x,1/2-y,1/2-z
1/2-x,1/2+y,1/2-z
1/2-x,1/2-y,1/2-z
1/2+x,1/2+y,1/2-z
1/2-x,1/2+y,1/2+z
1/2+x,1/2-y,1/2+z
loop_
_atom_site_type_symbol
_atom_site_label
_atom_site_fract_x
_atom_site_fract_y
_atom_site_fract_z
Si Si1 0.804535 0.328302 0.809759
Si Si2 0.111938 0.174322 0.441594
Si Si3 0.847485 0.325790 0.080030
Si Si4 0.329644 0.327277 0.792700
Si Si5 0.565919 0.829905 0.852272
Si Si6 0.227990 0.663032 0.557592
Si Si7 0.429367 0.325672 0.500000
O O1 0.810743 0.500000 0.792329
O O2 0.845486 0.296714 0.859312
O O3 0.734033 0.293070 0.820715
O O4 0.827016 0.219751 0.766079
O O5 0.098246 0.213143 0.500000
O O6 0.060966 0.244649 0.406314
O O7 0.173512 0.243375 0.418560
O O8 0.116177 0.000000 0.433016
O O9 0.850763 0.500000 0.067769
O O10 0.787355 0.259968 0.057179
O O11 0.902927 0.246287 0.051759
O O12 0.345296 0.500000 0.795874
O O13 0.384195 0.238397 0.816292
O O14 0.500000 0.816346 0.826663
O O15 0.582919 0.000000 0.862848
O O16 0.209351 0.635408 0.500000
O O17 0.236268 0.500000 0.584215
O O18 0.413542 0.500000 0.500000
O O19 0.500000 0.296553 0.500000
#
# Coordination Sequence:
#
# PCOD8288737 Si02
#       7
#    16  16  16  16  16  16   8
#     4   9  20  37  59  90 122 149 183 234 296 353
#     4  10  21  36  55  81 114 150 192 241 287 332
#     4  11  21  35  59  87 116 152 194 239 290 353
#     4  10  20  37  62  90 118 151 191 237 291 349
#     4  11  24  40  58  80 111 154 197 238 287 342
#     4  10  19  31  51  81 116 151 186 227 279 335
#     4  11  25  43  59  79 115 159 202 251 304 361
#
# _framework density 19.713201999999999
#
# number of rings (size 3 to 8) (size 9 to 14) (size 15 to 20)
#    0.000    1.769    0.769    3.462    0.000    6.769 
#    0.000    2.308    0.000    0.923    0.000    0.000 
#    0.000    0.000    0.000    0.000    0.000    0.000 
#
# Total GULP energy -644634.648609 kJ/mol
# GULP energy per Si atom -12396.820166 kJ/mol
# Density = 1.966833 g / cm^3
# Si number density = 19.713202 Si / 1000 Ang^3
#
#
#
# Elastic Constant Matrix: (Units=GPa)
#
#
# Indices 1 2 3 4 5 6 
#
# 1 104.1192 51.6674 44.0354 0.0000 0.0000 0.0000
# 2 51.6674 111.1165 39.0587 0.0000 0.0000 0.0000
# 3 44.0354 39.0587 80.3849 0.0000 0.0000 0.0000
# 4 0.0000 0.0000 0.0000 33.7653 0.0000 0.0000
# 5 0.0000 0.0000 0.0000 0.0000 24.6242 0.0000
# 6 0.0000 0.0000 0.0000 0.0000 0.0000 30.2153
#
#
#
# Elastic Compliance Matrix: (Units=1/GPa)
#
#
# Indices 1 2 3 4 5 6 
#
# 1 0.014275 -0.004690 -0.005541 0.000000 0.000000 0.000000
# 2 -0.004690 0.012394 -0.003453 0.000000 0.000000 0.000000
# 3 -0.005541 -0.003453 0.017154 0.000000 0.000000 0.000000
# 4 0.000000 0.000000 0.000000 0.029616 0.000000 0.000000
# 5 0.000000 0.000000 0.000000 0.000000 0.040610 0.000000
# 6 0.000000 0.000000 0.000000 0.000000 0.000000 0.033096
#
#
# Mechanical properties :
#
#
# Convention : Reuss Voigt Hill
#
# Bulk Modulus (GPa) = 60.77421 62.79372 61.78397
# Shear Modulus (GPa) = 27.77797 28.44490 28.11143
#
# Velocity S-wave (km/s) = 3.75788 3.80272 3.78037
# Velocity P-wave (km/s) = 7.05159 7.15568 7.10383
#
# Compressibility (1/GPa) = 0.01645435
#
# Stress axis : x y z
#
# Youngs Moduli (GPa) = 70.05116 80.68348 58.29711
#
# Poissons Ratio (x) = 0.37840 0.32304
# Poissons Ratio (y) = 0.32854 0.20130
# Poissons Ratio (z) = 0.38817 0.27860
#
# Static dielectric constant tensor:
#      x y z
#    x 3.434300 0.000000 0.000000 
#    y 0.000000 3.780050 0.000000 
#    z 0.000000 0.000000 3.611890 
# 
# 
# High freq. dielectric constant tensor:
#      x y z
#    x 1.751180 0.000000 0.000000 
#    y 0.000000 1.786070 0.000000 
#    z 0.000000 0.000000 1.763460 
# 
# From -- ./inp_files/66435.got.cif
#   From: 2010.06.25/outbox.cif.g09.slc.cpg/sg71_34_cif.got.tgz:66435.got - 2010.06.28 04:59:45.
