data_PCOD8288855
_publ_section_title
;
Structure prediction by ZEFSAII (Michael W. Deem and Ramdas Pophale) SiO2 
 PCOD8288855
Probable space group: I M M M
;
_chemical_formula_sum "Si O2"
_cell_formula_units_Z 120
_cell_length_a 12.125160
_cell_length_b 22.475736
_cell_length_c 22.094631
_cell_angle_alpha 90.000000
_cell_angle_beta 90.000000
_cell_angle_gamma 90.000000
_cell_volume 6021.270712
_symmetry_space_group_name_H-M "I M M M"
_symmetry_group_IT_number 71
_symmetry_cell_setting 'orthorhombic'
loop_
_space_group_symop_operation_xyz
x,y,z
-x,-y,z
x,-y,-z
-x,y,-z
-x,-y,-z
x,y,-z
-x,y,z
x,-y,z
1/2+x,1/2+y,1/2+z
1/2-x,1/2-y,1/2+z
1/2+x,1/2-y,1/2-z
1/2-x,1/2+y,1/2-z
1/2-x,1/2-y,1/2-z
1/2+x,1/2+y,1/2-z
1/2-x,1/2+y,1/2+z
1/2+x,1/2-y,1/2+z
loop_
_atom_site_type_symbol
_atom_site_label
_atom_site_fract_x
_atom_site_fract_y
_atom_site_fract_z
Si Si1 0.169305 0.323566 0.692705
Si Si2 0.121575 0.934720 0.928510
Si Si3 0.240206 0.322773 0.568867
Si Si4 0.500000 0.570428 0.929657
Si Si5 0.619324 0.702507 0.755968
Si Si6 0.876531 0.566829 0.227362
Si Si7 0.122052 0.705363 0.931269
Si Si8 0.289407 0.375523 0.861162
O O1 0.145127 0.314455 0.620425
O O2 0.300814 0.313592 0.700873
O O3 0.109628 0.273537 0.733063
O O4 0.133231 0.388101 0.716113
O O5 0.206442 0.884476 0.908474
O O6 0.000000 0.923131 0.900516
O O7 0.164396 0.000000 0.907426
O O8 0.110899 0.932439 0.000000
O O9 0.191516 0.325683 0.500000
O O10 0.330993 0.271676 0.573505
O O11 0.500000 0.500000 0.923521
O O12 0.611596 0.594123 0.898297
O O13 0.500000 0.590462 0.000000
O O14 0.500000 0.677567 0.737970
O O15 0.659478 0.673761 0.817991
O O16 0.859414 0.500000 0.252391
O O17 0.782353 0.577257 0.176993
O O18 0.000000 0.573452 0.199322
O O19 0.204600 0.657439 0.904392
O O20 0.000000 0.703939 0.900105
O O21 0.108402 0.686377 0.000000
#
# Coordination Sequence:
#
# PCOD8288855 Si02
#       8
#    16  16  16   8  16  16  16  16
#     4  10  21  36  56  84 112 150 190 244 296 354
#     4   8  14  25  41  62  93 138 186 225 268 330
#     4  10  19  32  50  79 117 152 190 235 293 358
#     4  11  24  40  62  92 128 168 198 232 286 354
#     4  10  20  36  56  82 110 145 192 241 295 342
#     4  10  22  40  63  87 112 149 199 256 308 350
#     4  10  20  33  53  84 122 159 197 245 297 348
#     4  11  20  38  61  86 116 156 197 243 287 353
#
# _framework density 19.929347
#
# number of rings (size 3 to 8) (size 9 to 14) (size 15 to 20)
#    0.000    2.067    2.000    2.400    0.000    3.200 
#    0.000    0.000    0.000    1.200    0.000    6.533 
#    0.000    0.000    0.000    0.000    0.000    0.000 
#
# Total GULP energy -743481.084434 kJ/mol
# GULP energy per Si atom -12391.351407 kJ/mol
# Density = 1.988399 g / cm^3
# Si number density = 19.929347 Si / 1000 Ang^3
#
#
#
# Elastic Constant Matrix: (Units=GPa)
#
#
# Indices 1 2 3 4 5 6 
#
# 1 107.6418 29.7420 34.5231 0.0000 0.0000 0.0000
# 2 29.7420 113.1454 30.2135 0.0000 0.0000 0.0000
# 3 34.5231 30.2135 94.8940 0.0000 0.0000 0.0000
# 4 0.0000 0.0000 0.0000 24.8574 0.0000 0.0000
# 5 0.0000 0.0000 0.0000 0.0000 18.7968 0.0000
# 6 0.0000 0.0000 0.0000 0.0000 0.0000 -1.7076
#
#
#
# Elastic Compliance Matrix: (Units=1/GPa)
#
#
# Indices 1 2 3 4 5 6 
#
# 1 0.010907 -0.001975 -0.003339 0.000000 0.000000 0.000000
# 2 -0.001975 0.010017 -0.002471 0.000000 0.000000 0.000000
# 3 -0.003339 -0.002471 0.012539 0.000000 0.000000 0.000000
# 4 0.000000 0.000000 0.000000 0.040229 0.000000 0.000000
# 5 0.000000 0.000000 0.000000 0.000000 0.053200 0.000000
# 6 0.000000 0.000000 0.000000 0.000000 0.000000 -0.585627
#
#
# Mechanical properties :
#
#
# Convention : Reuss Voigt Hill
#
# Bulk Modulus (GPa) = 55.88714 56.07092 55.97903
# Shear Modulus (GPa) = -11.43645 23.13618 5.84986
#
# Velocity S-wave (km/s) = -2.39812 3.41091 1.71513
# Velocity P-wave (km/s) = 4.52057 6.61123 5.66321
#
# Compressibility (1/GPa) = 0.01789320
#
# Stress axis : x y z
#
# Youngs Moduli (GPa) = 91.68615 99.82814 79.74809
#
# Poissons Ratio (x) = 0.19720 0.26628
# Poissons Ratio (y) = 0.18112 0.19704
# Poissons Ratio (z) = 0.30614 0.24665
#
# Static dielectric constant tensor:
#      x y z
#    x 3.717700 0.000000 0.000000 
#    y 0.000000 3.771100 0.000000 
#    z 0.000000 0.000000 3.577170 
# 
# 
# High freq. dielectric constant tensor:
#      x y z
#    x 1.769180 0.000000 0.000000 
#    y 0.000000 1.782260 0.000000 
#    z 0.000000 0.000000 1.767180 
# 
# From -- ./inp_files/52242.got.cif
#   From: 2010.06.25/outbox.cif.g09.slc.cpg/sg71_27_cif.got.tgz:52242.got - 2010.06.28 04:59:45.
