data_PCOD8288699
_publ_section_title
;
Structure prediction by ZEFSAII (Michael W. Deem and Ramdas Pophale) SiO2 
 PCOD8288699
Probable space group: I M M M
;
_chemical_formula_sum "Si O2"
_cell_formula_units_Z 80
_cell_length_a 18.902770
_cell_length_b 7.827352
_cell_length_c 28.747765
_cell_angle_alpha 90.000000
_cell_angle_beta 90.000000
_cell_angle_gamma 90.000000
_cell_volume 4253.480056
_symmetry_space_group_name_H-M "I M M M"
_symmetry_group_IT_number 71
_symmetry_cell_setting 'orthorhombic'
loop_
_space_group_symop_operation_xyz
x,y,z
-x,-y,z
x,-y,-z
-x,y,-z
-x,-y,-z
x,y,-z
-x,y,z
x,-y,z
1/2+x,1/2+y,1/2+z
1/2-x,1/2-y,1/2+z
1/2+x,1/2-y,1/2-z
1/2-x,1/2+y,1/2-z
1/2-x,1/2-y,1/2-z
1/2+x,1/2+y,1/2-z
1/2-x,1/2+y,1/2+z
1/2+x,1/2-y,1/2+z
loop_
_atom_site_type_symbol
_atom_site_label
_atom_site_fract_x
_atom_site_fract_y
_atom_site_fract_z
Si Si1 0.156183 0.692408 0.945823
Si Si2 0.584372 0.500000 0.711715
Si Si3 0.809119 0.698216 0.447351
Si Si4 0.583936 0.811350 0.227645
Si Si5 0.083782 0.000000 0.106279
Si Si6 0.079737 0.199978 0.371556
O O1 0.129314 0.500000 0.934942
O O2 0.238645 0.702250 0.931820
O O3 0.110253 0.827188 0.917533
O O4 0.147392 0.737352 0.000000
O O5 0.500000 0.500000 0.712970
O O6 0.615056 0.331173 0.737416
O O7 0.612086 0.500000 0.659092
O O8 0.830375 0.746852 0.500000
O O9 0.791391 0.500000 0.442616
O O10 0.874245 0.749963 0.415612
O O11 0.500000 0.791946 0.226380
O O12 0.611813 0.785360 0.175027
O O13 0.606922 0.000000 0.245158
O O14 0.000000 0.000000 0.103920
O O15 0.000000 0.265201 0.381291
O O16 0.080302 0.000000 0.362919
#
# Coordination Sequence:
#
# PCOD8288699 Si02
#       6
#    16   8  16  16   8  16
#     4  10  21  39  61  84 113 151 190 222 269 343
#     4   9  18  33  52  79 111 143 179 224 277 335
#     4  10  20  35  55  79 109 150 195 232 275 332
#     4   9  16  29  50  75 106 145 187 227 271 324
#     4  11  23  38  61  90 117 141 178 233 286 335
#     4  10  19  31  50  80 115 149 192 241 280 317
#
# _framework density 18.808129000000001
#
# number of rings (size 3 to 8) (size 9 to 14) (size 15 to 20)
#    0.000    2.200    2.000    1.500    0.000    4.800 
#    0.000    5.000    0.000    1.200    0.000    0.000 
#    0.000    0.000    0.000    0.000    0.000    0.000 
#
# Total GULP energy -495979.904544 kJ/mol
# GULP energy per Si atom -12399.497614 kJ/mol
# Density = 1.876532 g / cm^3
# Si number density = 18.808129 Si / 1000 Ang^3
#
#
#
# Elastic Constant Matrix: (Units=GPa)
#
#
# Indices 1 2 3 4 5 6 
#
# 1 58.5520 34.9670 54.2139 0.0000 0.0000 0.0000
# 2 34.9670 136.0659 68.2692 0.0000 0.0000 0.0000
# 3 54.2139 68.2692 123.5512 0.0000 0.0000 0.0000
# 4 0.0000 0.0000 0.0000 23.6980 0.0000 0.0000
# 5 0.0000 0.0000 0.0000 0.0000 -3.4443 0.0000
# 6 0.0000 0.0000 0.0000 0.0000 0.0000 23.9802
#
#
#
# Elastic Compliance Matrix: (Units=1/GPa)
#
#
# Indices 1 2 3 4 5 6 
#
# 1 0.028979 -0.001477 -0.011900 0.000000 0.000000 0.000000
# 2 -0.001477 0.010244 -0.005012 0.000000 0.000000 0.000000
# 3 -0.011900 -0.005012 0.016085 0.000000 0.000000 0.000000
# 4 0.000000 0.000000 0.000000 0.042198 0.000000 0.000000
# 5 0.000000 0.000000 0.000000 0.000000 -0.290334 0.000000
# 6 0.000000 0.000000 0.000000 0.000000 0.000000 0.041701
#
#
# Mechanical properties :
#
#
# Convention : Reuss Voigt Hill
#
# Bulk Modulus (GPa) = 53.96653 70.34104 62.15378
# Shear Modulus (GPa) = -46.22219 19.56138 -13.33041
#
# Velocity S-wave (km/s) = -4.96276 3.22848 -2.66514
# Velocity P-wave (km/s) = 2.02069 7.16784 4.86285
#
# Compressibility (1/GPa) = 0.01853000
#
# Stress axis : x y z
#
# Youngs Moduli (GPa) = 34.50786 97.62094 62.16933
#
# Poissons Ratio (x) = 0.14414 0.73981
# Poissons Ratio (y) = 0.05095 0.31161
# Poissons Ratio (z) = 0.41064 0.48931
#
# Static dielectric constant tensor:
#      x y z
#    x 3.320180 0.000000 0.000000 
#    y 0.000000 3.702900 0.000000 
#    z 0.000000 0.000000 3.656660 
# 
# 
# High freq. dielectric constant tensor:
#      x y z
#    x 1.689310 0.000000 0.000000 
#    y 0.000000 1.750850 0.000000 
#    z 0.000000 0.000000 1.729550 
# 
# From -- ./inp_files/65846.got.cif
#   From: 2010.06.25/outbox.cif.g09.slc.cpg/sg71_33_cif.got.tgz:65846.got - 2010.06.28 04:59:45.
