data_PCOD8288212
_publ_section_title
;
Structure prediction by ZEFSAII (Michael W. Deem and Ramdas Pophale) SiO2 
 PCOD8288212
Probable space group: I M M M
;
_chemical_formula_sum "Si O2"
_cell_formula_units_Z 72
_cell_length_a 8.872913
_cell_length_b 28.318632
_cell_length_c 17.542352
_cell_angle_alpha 90.000000
_cell_angle_beta 90.000000
_cell_angle_gamma 90.000000
_cell_volume 4407.845000
_symmetry_space_group_name_H-M "I M M M"
_symmetry_group_IT_number 71
_symmetry_cell_setting 'orthorhombic'
loop_
_space_group_symop_operation_xyz
x,y,z
-x,-y,z
x,-y,-z
-x,y,-z
-x,-y,-z
x,y,-z
-x,y,z
x,-y,z
1/2+x,1/2+y,1/2+z
1/2-x,1/2-y,1/2+z
1/2+x,1/2-y,1/2-z
1/2-x,1/2+y,1/2-z
1/2-x,1/2-y,1/2-z
1/2+x,1/2+y,1/2-z
1/2-x,1/2+y,1/2+z
1/2+x,1/2-y,1/2+z
loop_
_atom_site_type_symbol
_atom_site_label
_atom_site_fract_x
_atom_site_fract_y
_atom_site_fract_z
Si Si1 0.176430 0.784757 0.809782
Si Si2 0.678814 0.860468 0.722001
Si Si3 0.823576 0.704905 0.084011
Si Si4 0.667943 0.055729 0.500000
Si Si5 0.822315 0.945726 0.345349
O O1 0.250000 0.750000 0.750000
O O2 0.257608 0.835498 0.799027
O O3 0.205872 0.759818 0.891721
O O4 0.000000 0.790469 0.793388
O O5 0.500000 0.862693 0.726634
O O6 0.739224 0.831545 0.647560
O O7 0.747002 0.913255 0.719489
O O8 0.000000 0.695846 0.079121
O O9 0.750553 0.696246 0.000000
O O10 0.500000 0.078371 0.500000
O O11 0.757138 0.072628 0.574219
O O12 0.656020 0.000000 0.500000
O O13 0.000000 0.939255 0.346226
O O14 0.777255 0.000000 0.329251
#
# Coordination Sequence:
#
# PCOD8288212 Si02
#       5
#    16  16  16   8  16
#     4   9  16  28  45  62  85 114 143 180 222 264
#     4  10  19  29  45  64  86 117 150 184 219 264
#     4   8  15  27  43  64  86 110 144 182 216 253
#     4   9  17  29  43  57  77 109 145 179 217 257
#     4  10  20  32  44  60  85 114 147 188 226 258
#
# _framework density 16.334513000000001
#
# number of rings (size 3 to 8) (size 9 to 14) (size 15 to 20)
#    0.000    2.778    0.000    3.667    1.556    2.667 
#    0.000    0.000    0.000   13.333    0.000    0.000 
#    0.000    0.889    0.000   10.222    0.000    2.889 
#
# Total GULP energy -446061.588234 kJ/mol
# GULP energy per Si atom -12390.599673 kJ/mol
# Density = 1.629734 g / cm^3
# Si number density = 16.334513 Si / 1000 Ang^3
#
#
#
# Elastic Constant Matrix: (Units=GPa)
#
#
# Indices 1 2 3 4 5 6 
#
# 1 75.2759 35.0364 9.7438 0.0000 0.0000 0.0000
# 2 35.0364 84.5237 15.8348 -0.0001 0.0000 0.0000
# 3 9.7438 15.8348 26.9803 -0.0001 0.0000 0.0000
# 4 0.0000 -0.0001 -0.0001 25.8222 0.0000 0.0000
# 5 0.0000 0.0000 0.0000 0.0000 16.9809 0.0000
# 6 0.0000 0.0000 0.0000 0.0000 0.0000 26.6413
#
#
#
# Elastic Compliance Matrix: (Units=1/GPa)
#
#
# Indices 1 2 3 4 5 6 
#
# 1 0.016575 -0.006459 -0.002195 0.000000 0.000000 0.000000
# 2 -0.006459 0.015810 -0.006946 0.000000 0.000000 0.000000
# 3 -0.002195 -0.006946 0.041933 0.000000 0.000000 0.000000
# 4 0.000000 0.000000 0.000000 0.038726 0.000000 0.000000
# 5 0.000000 0.000000 0.000000 0.000000 0.058890 0.000000
# 6 0.000000 0.000000 0.000000 0.000000 0.000000 0.037536
#
#
# Mechanical properties :
#
#
# Convention : Reuss Voigt Hill
#
# Bulk Modulus (GPa) = 23.19246 34.22333 28.70790
# Shear Modulus (GPa) = 19.60452 22.29988 20.95220
#
# Velocity S-wave (km/s) = 3.46813 3.69887 3.58536
# Velocity P-wave (km/s) = 5.50150 6.26412 5.89516
#
# Compressibility (1/GPa) = 0.04311746
#
# Stress axis : x y z
#
# Youngs Moduli (GPa) = 60.33163 63.25181 23.84732
#
# Poissons Ratio (x) = 0.40857 0.05234
# Poissons Ratio (y) = 0.38971 0.16564
# Poissons Ratio (z) = 0.13242 0.43935
#
# Static dielectric constant tensor:
#      x y z
#    x 3.095480 0.000000 0.000000 
#    y 0.000000 3.284970 0.000000 
#    z 0.000000 0.000000 3.204190 
# 
# 
# High freq. dielectric constant tensor:
#      x y z
#    x 1.627990 0.000000 0.000000 
#    y 0.000000 1.624100 0.000000 
#    z 0.000000 0.000000 1.579840 
# 
# From -- ./inp_files/8166.got.cif
#   From: 2010.06.25/outbox.cif.g09.slc.cpg/sg71_5_cif.got.tgz:8166.got - 2010.06.28 04:59:45.
