data_PCOD8288839
_publ_section_title
;
Structure prediction by ZEFSAII (Michael W. Deem and Ramdas Pophale) SiO2 
 PCOD8288839
Probable space group: I M M M
;
_chemical_formula_sum "Si O2"
_cell_formula_units_Z 104
_cell_length_a 7.724966
_cell_length_b 27.337604
_cell_length_c 26.152290
_cell_angle_alpha 90.000000
_cell_angle_beta 90.000000
_cell_angle_gamma 90.000000
_cell_volume 5522.894513
_symmetry_space_group_name_H-M "I M M M"
_symmetry_group_IT_number 71
_symmetry_cell_setting 'orthorhombic'
loop_
_space_group_symop_operation_xyz
x,y,z
-x,-y,z
x,-y,-z
-x,y,-z
-x,-y,-z
x,y,-z
-x,y,z
x,-y,z
1/2+x,1/2+y,1/2+z
1/2-x,1/2-y,1/2+z
1/2+x,1/2-y,1/2-z
1/2-x,1/2+y,1/2-z
1/2-x,1/2-y,1/2-z
1/2+x,1/2+y,1/2-z
1/2-x,1/2+y,1/2+z
1/2+x,1/2-y,1/2+z
loop_
_atom_site_type_symbol
_atom_site_label
_atom_site_fract_x
_atom_site_fract_y
_atom_site_fract_z
Si Si1 0.500000 0.448193 0.394256
Si Si2 0.809683 0.593879 0.442482
Si Si3 0.704476 0.237263 0.557662
Si Si4 0.693314 0.818731 0.865744
Si Si5 0.800778 0.555612 0.855727
Si Si6 0.500000 0.635622 0.312848
Si Si7 0.500000 0.443826 0.775903
Si Si8 0.795023 0.626568 0.943937
O O1 0.500000 0.500000 0.364605
O O2 0.329995 0.447367 0.429681
O O3 0.500000 0.403668 0.356879
O O4 0.786207 0.612217 0.500000
O O5 0.777850 0.640982 0.408508
O O6 0.000000 0.571215 0.433099
O O7 0.767416 0.252483 0.500000
O O8 0.500000 0.243021 0.560089
O O9 0.784458 0.267917 0.604231
O O10 0.763747 0.181718 0.568732
O O11 0.500000 0.820529 0.841865
O O12 0.830596 0.829240 0.819639
O O13 0.790691 0.500000 0.875457
O O14 0.676442 0.563003 0.807449
O O15 0.725853 0.589616 0.900926
O O16 0.000000 0.568872 0.840504
O O17 0.500000 0.602385 0.262394
O O18 0.500000 0.500000 0.752788
O O19 0.000000 0.623842 0.945306
O O20 0.722545 0.611351 0.000000
#
# Coordination Sequence:
#
# PCOD8288839 Si02
#       8
#     8  16  16  16  16   8   8  16
#     4  10  20  32  46  65  87 116 156 199 254 316
#     4   9  18  30  43  62  90 121 155 196 245 303
#     4   9  16  28  49  77 110 147 182 216 258 313
#     4  10  19  32  50  73  98 133 173 220 269 317
#     4   9  18  34  57  84 111 144 182 217 262 319
#     4  10  21  37  54  73  97 128 168 227 284 318
#     4  10  21  38  60  82 104 134 180 234 282 328
#     4   8  15  29  51  83 119 152 181 211 254 308
#
# _framework density 18.830704999999998
#
# number of rings (size 3 to 8) (size 9 to 14) (size 15 to 20)
#    0.000    2.769    0.769    1.846    0.000    2.769 
#    1.385    2.692    0.000    5.077    0.000    0.000 
#    0.000    0.000    0.000    0.000    0.000    0.000 
#
# Total GULP energy -644228.769212 kJ/mol
# GULP energy per Si atom -12389.014793 kJ/mol
# Density = 1.878785 g / cm^3
# Si number density = 18.830705 Si / 1000 Ang^3
#
#
#
# Elastic Constant Matrix: (Units=GPa)
#
#
# Indices 1 2 3 4 5 6 
#
# 1 103.9566 41.1892 43.7647 0.0000 0.0000 0.0000
# 2 41.1892 91.3780 50.9549 0.0000 0.0000 0.0000
# 3 43.7647 50.9549 83.9602 0.0000 0.0000 0.0000
# 4 0.0000 0.0000 0.0000 51.1186 0.0000 0.0000
# 5 0.0000 0.0000 0.0000 0.0000 11.3731 0.0000
# 6 0.0000 0.0000 0.0000 0.0000 0.0000 38.9675
#
#
#
# Elastic Compliance Matrix: (Units=1/GPa)
#
#
# Indices 1 2 3 4 5 6 
#
# 1 0.012886 -0.003118 -0.004824 0.000000 0.000000 0.000000
# 2 -0.003118 0.017296 -0.008872 0.000000 0.000000 0.000000
# 3 -0.004824 -0.008872 0.019809 0.000000 0.000000 0.000000
# 4 0.000000 0.000000 0.000000 0.019562 0.000000 0.000000
# 5 0.000000 0.000000 0.000000 0.000000 0.087927 0.000000
# 6 0.000000 0.000000 0.000000 0.000000 0.000000 0.025662
#
#
# Mechanical properties :
#
#
# Convention : Reuss Voigt Hill
#
# Bulk Modulus (GPa) = 61.11362 61.23471 61.17417
# Shear Modulus (GPa) = 22.49970 29.85093 26.17532
#
# Velocity S-wave (km/s) = 3.46040 3.98581 3.73236
# Velocity P-wave (km/s) = 6.96351 7.33290 7.15059
#
# Compressibility (1/GPa) = 0.01636296
#
# Stress axis : x y z
#
# Youngs Moduli (GPa) = 77.60415 57.81652 50.48147
#
# Poissons Ratio (x) = 0.18028 0.24355
# Poissons Ratio (y) = 0.24198 0.44785
# Poissons Ratio (z) = 0.37440 0.51292
#
# Static dielectric constant tensor:
#      x y z
#    x 3.715390 0.000000 0.000000 
#    y 0.000000 3.587400 0.000000 
#    z 0.000000 0.000000 3.356570 
# 
# 
# High freq. dielectric constant tensor:
#      x y z
#    x 1.737600 0.000000 0.000000 
#    y 0.000000 1.726760 0.000000 
#    z 0.000000 0.000000 1.694920 
# 
# From -- ./inp_files/58059.got.cif
#   From: 2010.06.25/outbox.cif.g09.slc.cpg/sg71_30_cif.got.tgz:58059.got - 2010.06.28 04:59:45.
