data_PCOD8288469
_publ_section_title
;
Structure prediction by ZEFSAII (Michael W. Deem and Ramdas Pophale) SiO2 
 PCOD8288469
Probable space group: I M M M
;
_chemical_formula_sum "Si O2"
_cell_formula_units_Z 72
_cell_length_a 8.543200
_cell_length_b 16.722517
_cell_length_c 25.486051
_cell_angle_alpha 90.000000
_cell_angle_beta 90.000000
_cell_angle_gamma 90.000000
_cell_volume 3641.034277
_symmetry_space_group_name_H-M "I M M M"
_symmetry_group_IT_number 71
_symmetry_cell_setting 'orthorhombic'
loop_
_space_group_symop_operation_xyz
x,y,z
-x,-y,z
x,-y,-z
-x,y,-z
-x,-y,-z
x,y,-z
-x,y,z
x,-y,z
1/2+x,1/2+y,1/2+z
1/2-x,1/2-y,1/2+z
1/2+x,1/2-y,1/2-z
1/2-x,1/2+y,1/2-z
1/2-x,1/2-y,1/2-z
1/2+x,1/2+y,1/2-z
1/2-x,1/2+y,1/2+z
1/2+x,1/2-y,1/2+z
loop_
_atom_site_type_symbol
_atom_site_label
_atom_site_fract_x
_atom_site_fract_y
_atom_site_fract_z
Si Si1 0.684010 0.000000 0.232159
Si Si2 0.183959 0.000000 0.880713
Si Si3 0.813287 0.149180 0.058428
Si Si4 0.814115 0.684602 0.100730
Si Si5 0.185182 0.671538 0.218821
Si Si6 0.686391 0.909989 0.500000
O O1 0.734154 0.916351 0.259723
O O2 0.500000 0.000000 0.221957
O O3 0.780039 0.000000 0.179573
O O4 0.258681 0.076765 0.908545
O O5 0.000000 0.000000 0.889587
O O6 0.753743 0.227590 0.087358
O O7 0.000000 0.147309 0.056561
O O8 0.744546 0.145794 0.000000
O O9 0.749567 0.667096 0.159079
O O10 0.747158 0.628367 0.054050
O O11 0.000000 0.677157 0.101217
O O12 0.250000 0.750000 0.250000
O O13 0.000000 0.682069 0.219611
O O14 0.500000 0.901436 0.500000
O O15 0.745024 0.000000 0.500000
#
# Coordination Sequence:
#
# PCOD8288469 Si02
#       6
#     8   8  16  16  16   8
#     4  10  22  37  51  72 106 142 172 209 260 306
#     4  10  19  30  50  74  97 129 171 209 240 292
#     4   9  15  25  42  69  99 123 152 199 254 297
#     4   9  16  27  44  67  98 129 159 200 251 303
#     4  10  21  36  54  77 106 140 176 214 257 306
#     4   9  16  24  40  67  96 126 157 195 249 309
#
# _framework density 19.774601000000001
#
# number of rings (size 3 to 8) (size 9 to 14) (size 15 to 20)
#    0.000    2.556    1.111    1.667    1.556    4.000 
#    0.000    0.000    0.000    1.333    0.000    0.778 
#    0.000    0.889    0.000    0.000    0.000    0.000 
#
# Total GULP energy -445997.767965 kJ/mol
# GULP energy per Si atom -12388.826888 kJ/mol
# Density = 1.972959 g / cm^3
# Si number density = 19.774601 Si / 1000 Ang^3
#
#
#
# Elastic Constant Matrix: (Units=GPa)
#
#
# Indices 1 2 3 4 5 6 
#
# 1 6.8217 5.0042 2.3381 0.0000 0.0000 0.0000
# 2 5.0042 138.3168 43.3170 0.0000 0.0000 0.0000
# 3 2.3381 43.3170 138.3676 0.0000 0.0000 0.0000
# 4 0.0000 0.0000 0.0000 46.0069 0.0000 0.0000
# 5 0.0000 0.0000 0.0000 0.0000 20.5421 0.0000
# 6 0.0000 0.0000 0.0000 0.0000 0.0000 10.2000
#
#
#
# Elastic Compliance Matrix: (Units=1/GPa)
#
#
# Indices 1 2 3 4 5 6 
#
# 1 0.150696 -0.005161 -0.000931 0.000000 0.000000 0.000000
# 2 -0.005161 0.008192 -0.002477 0.000000 0.000000 0.000000
# 3 -0.000931 -0.002477 0.008018 0.000000 0.000000 0.000000
# 4 0.000000 0.000000 0.000000 0.021736 0.000000 0.000000
# 5 0.000000 0.000000 0.000000 0.000000 0.048681 0.000000
# 6 0.000000 0.000000 0.000000 0.000000 0.000000 0.098039
#
#
# Mechanical properties :
#
#
# Convention : Reuss Voigt Hill
#
# Bulk Modulus (GPa) = 6.67693 42.75831 24.71762
# Shear Modulus (GPa) = 12.42472 30.87293 21.64882
#
# Velocity S-wave (km/s) = 2.50934 3.95554 3.31233
# Velocity P-wave (km/s) = 3.43214 6.52162 5.21110
#
# Compressibility (1/GPa) = 0.14976934
#
# Stress axis : x y z
#
# Youngs Moduli (GPa) = 6.63586 122.06493 124.71248
#
# Poissons Ratio (x) = 0.62993 0.11609
# Poissons Ratio (y) = 0.03425 0.30897
# Poissons Ratio (z) = 0.00618 0.30241
#
# Static dielectric constant tensor:
#      x y z
#    x 2.878420 0.000000 0.000000 
#    y 0.000000 3.966030 0.000000 
#    z 0.000000 0.000000 3.918530 
# 
# 
# High freq. dielectric constant tensor:
#      x y z
#    x 1.696350 0.000000 0.000000 
#    y 0.000000 1.791590 0.000000 
#    z 0.000000 0.000000 1.792020 
# 
# From -- ./inp_files/62908.got.cif
#   From: 2010.06.25/outbox.cif.g09.slc.cpg/sg71_32_cif.got.tgz:62908.got - 2010.06.28 04:59:45.
