data_PCOD8288698
_publ_section_title
;
Structure prediction by ZEFSAII (Michael W. Deem and Ramdas Pophale) SiO2 
 PCOD8288698
Probable space group: I M M M
;
_chemical_formula_sum "Si O2"
_cell_formula_units_Z 88
_cell_length_a 22.769900
_cell_length_b 12.023513
_cell_length_c 17.719384
_cell_angle_alpha 90.000000
_cell_angle_beta 90.000000
_cell_angle_gamma 90.000000
_cell_volume 4851.109978
_symmetry_space_group_name_H-M "I M M M"
_symmetry_group_IT_number 71
_symmetry_cell_setting 'orthorhombic'
loop_
_space_group_symop_operation_xyz
x,y,z
-x,-y,z
x,-y,-z
-x,y,-z
-x,-y,-z
x,y,-z
-x,y,z
x,-y,z
1/2+x,1/2+y,1/2+z
1/2-x,1/2-y,1/2+z
1/2+x,1/2-y,1/2-z
1/2-x,1/2+y,1/2-z
1/2-x,1/2-y,1/2-z
1/2+x,1/2+y,1/2-z
1/2-x,1/2+y,1/2+z
1/2+x,1/2-y,1/2+z
loop_
_atom_site_type_symbol
_atom_site_label
_atom_site_fract_x
_atom_site_fract_y
_atom_site_fract_z
Si Si1 0.212976 0.372759 0.699980
Si Si2 0.806683 0.364888 0.000000
Si Si3 0.067272 0.869617 0.773491
Si Si4 0.887112 0.770861 0.626465
Si Si5 0.323740 0.245171 0.656936
Si Si6 0.679241 0.378908 0.000000
Si Si7 0.066241 0.618345 0.500000
O O1 0.198891 0.500000 0.682274
O O2 0.166101 0.293146 0.663150
O O3 0.277255 0.346559 0.665213
O O4 0.204806 0.350738 0.789596
O O5 0.834453 0.309634 0.075018
O O6 0.740456 0.312682 0.000000
O O7 0.815487 0.500000 0.000000
O O8 0.071337 0.831838 0.686262
O O9 0.112201 0.793737 0.821071
O O10 0.000000 0.848785 0.800472
O O11 0.083378 0.000000 0.781169
O O12 0.859630 0.864442 0.573756
O O13 0.922577 0.685090 0.576007
O O14 0.705342 0.500000 0.000000
O O15 0.101704 0.500000 0.500000
O O16 0.000000 0.585339 0.500000
#
# Coordination Sequence:
#
# PCOD8288698 Si02
#       7
#    16   8  16  16  16   8   8
#     4  10  19  33  53  79 109 141 177 222 272 322
#     4  11  21  37  58  83 114 145 176 217 276 336
#     4  10  21  38  59  80 106 144 189 236 282 326
#     4  10  19  33  52  79 110 144 183 224 267 324
#     4  10  21  36  55  82 109 142 181 226 275 328
#     4  10  19  31  50  80 115 145 172 212 265 328
#     4  10  20  32  47  72 110 155 191 220 260 315
#
# _framework density 18.140177999999999
#
# number of rings (size 3 to 8) (size 9 to 14) (size 15 to 20)
#    0.000    1.909    1.818    2.727    0.000    0.000 
#    0.000    3.182    0.000   16.909    0.000    0.000 
#    0.000    0.000    0.000    0.000    0.000    0.000 
#
# Total GULP energy -545117.900973 kJ/mol
# GULP energy per Si atom -12389.043204 kJ/mol
# Density = 1.809889 g / cm^3
# Si number density = 18.140178 Si / 1000 Ang^3
#
#
#
# Elastic Constant Matrix: (Units=GPa)
#
#
# Indices 1 2 3 4 5 6 
#
# 1 95.4114 34.2884 31.0627 0.0000 0.0000 0.0000
# 2 34.2884 88.8066 39.8459 0.0000 0.0000 0.0000
# 3 31.0627 39.8459 117.7944 0.0000 0.0000 0.0000
# 4 0.0000 0.0000 0.0000 55.5156 0.0000 0.0000
# 5 0.0000 0.0000 0.0000 0.0000 25.1212 0.0000
# 6 0.0000 0.0000 0.0000 0.0000 0.0000 26.8254
#
#
#
# Elastic Compliance Matrix: (Units=1/GPa)
#
#
# Indices 1 2 3 4 5 6 
#
# 1 0.012545 -0.003960 -0.001968 0.000000 0.000000 0.000000
# 2 -0.003960 0.014526 -0.003869 0.000000 0.000000 0.000000
# 3 -0.001968 -0.003869 0.010317 0.000000 0.000000 0.000000
# 4 0.000000 0.000000 0.000000 0.018013 0.000000 0.000000
# 5 0.000000 0.000000 0.000000 0.000000 0.039807 0.000000
# 6 0.000000 0.000000 0.000000 0.000000 0.000000 0.037278
#
#
# Mechanical properties :
#
#
# Convention : Reuss Voigt Hill
#
# Bulk Modulus (GPa) = 56.20575 56.93404 56.56990
# Shear Modulus (GPa) = 31.64305 34.61349 33.12827
#
# Velocity S-wave (km/s) = 4.18109 4.37293 4.27809
# Velocity P-wave (km/s) = 7.37293 7.54655 7.46024
#
# Compressibility (1/GPa) = 0.01779177
#
# Stress axis : x y z
#
# Youngs Moduli (GPa) = 79.71245 68.84413 96.92503
#
# Poissons Ratio (x) = 0.27265 0.19080
# Poissons Ratio (y) = 0.31570 0.37501
# Poissons Ratio (z) = 0.15691 0.26637
#
# Static dielectric constant tensor:
#      x y z
#    x 3.258620 0.000000 0.000000 
#    y 0.000000 3.439490 0.000000 
#    z 0.000000 0.000000 0.699070 
# 
# 
# High freq. dielectric constant tensor:
#      x y z
#    x 1.697310 0.000000 0.000000 
#    y 0.000000 1.706840 0.000000 
#    z 0.000000 0.000000 1.697620 
# 
# From -- ./inp_files/47139.got.cif
#   From: 2010.06.25/outbox.cif.g09.slc.cpg/sg71_24_cif.got.tgz:47139.got - 2010.06.28 04:59:45.
