data_PCOD8288064
_publ_section_title
;
Structure prediction by ZEFSAII (Michael W. Deem and Ramdas Pophale) SiO2 
 PCOD8288064
Probable space group: I M M M
;
_chemical_formula_sum "Si O2"
_cell_formula_units_Z 48
_cell_length_a 7.409060
_cell_length_b 21.989525
_cell_length_c 16.161944
_cell_angle_alpha 90.000000
_cell_angle_beta 90.000000
_cell_angle_gamma 90.000000
_cell_volume 2633.131555
_symmetry_space_group_name_H-M "I M M M"
_symmetry_group_IT_number 71
_symmetry_cell_setting 'orthorhombic'
loop_
_space_group_symop_operation_xyz
x,y,z
-x,-y,z
x,-y,-z
-x,y,-z
-x,-y,-z
x,y,-z
-x,y,z
x,-y,z
1/2+x,1/2+y,1/2+z
1/2-x,1/2-y,1/2+z
1/2+x,1/2-y,1/2-z
1/2-x,1/2+y,1/2-z
1/2-x,1/2-y,1/2-z
1/2+x,1/2+y,1/2-z
1/2-x,1/2+y,1/2+z
1/2+x,1/2-y,1/2+z
loop_
_atom_site_type_symbol
_atom_site_label
_atom_site_fract_x
_atom_site_fract_y
_atom_site_fract_z
Si Si1 0.000000 0.112995 0.372401
Si Si2 0.696711 0.338204 0.408205
Si Si3 0.790539 0.427914 0.000000
Si Si4 0.500000 0.748553 0.901675
Si Si5 0.500000 0.570021 0.689901
O O1 0.815699 0.096447 0.420040
O O2 0.000000 0.075808 0.288061
O O3 0.000000 0.184952 0.353513
O O4 0.762886 0.358771 0.500000
O O5 0.500000 0.306780 0.414262
O O6 0.679852 0.397762 0.349016
O O7 0.828776 0.287502 0.371756
O O8 0.783042 0.500000 0.000000
O O9 0.000000 0.405303 0.000000
O O10 0.500000 0.735158 0.000000
O O11 0.500000 0.500000 0.663951
#
# Coordination Sequence:
#
# PCOD8288064 Si02
#       5
#     8  16   8   8   8
#     4  11  21  36  58  86 115 149 184 235 284 328
#     4   8  18  35  55  80 110 149 184 230 276 333
#     4  10  21  39  58  81 111 154 197 226 271 335
#     4  10  18  35  56  81 114 144 191 229 280 336
#     4  10  20  37  57  81 115 151 188 235 285 325
#
# _framework density 18.229244999999999
#
# number of rings (size 3 to 8) (size 9 to 14) (size 15 to 20)
#    1.000    1.500    1.667    2.000    0.000    4.000 
#    3.000    0.833    0.000    3.000    0.000    0.000 
#    0.000    0.000    0.000    0.000    0.000    0.000 
#
# Total GULP energy -297366.047504 kJ/mol
# GULP energy per Si atom -12390.251979 kJ/mol
# Density = 1.818775 g / cm^3
# Si number density = 18.229245 Si / 1000 Ang^3
#
#
#
# Elastic Constant Matrix: (Units=GPa)
#
#
# Indices 1 2 3 4 5 6 
#
# 1 117.2955 50.9035 27.8050 0.0000 0.0000 0.0000
# 2 50.9035 133.7730 25.6382 0.0000 0.0000 0.0000
# 3 27.8050 25.6382 69.9969 0.0003 -0.0002 -0.0001
# 4 0.0000 0.0000 0.0003 28.4311 -0.0001 0.0000
# 5 0.0000 0.0000 -0.0002 -0.0001 -4.2833 0.0000
# 6 0.0000 0.0000 -0.0001 0.0000 0.0000 37.1037
#
#
#
# Elastic Compliance Matrix: (Units=1/GPa)
#
#
# Indices 1 2 3 4 5 6 
#
# 1 0.010762 -0.003523 -0.002985 0.000000 0.000000 0.000000
# 2 -0.003523 0.009193 -0.001968 0.000000 0.000000 0.000000
# 3 -0.002985 -0.001968 0.016193 0.000000 -0.000001 0.000000
# 4 0.000000 0.000000 0.000000 0.035173 0.000000 0.000000
# 5 0.000000 0.000000 -0.000001 0.000000 -0.233464 0.000000
# 6 0.000000 0.000000 0.000000 0.000000 0.000000 0.026952
#
#
# Mechanical properties :
#
#
# Convention : Reuss Voigt Hill
#
# Bulk Modulus (GPa) = 52.09183 58.86210 55.47696
# Shear Modulus (GPa) = -44.70562 26.69820 -9.00371
#
# Velocity S-wave (km/s) = -4.95756 3.83114 -2.22483
# Velocity P-wave (km/s) = 2.03269 7.20626 4.88868
#
# Compressibility (1/GPa) = 0.01919687
#
# Stress axis : x y z
#
# Youngs Moduli (GPa) = 92.92019 108.77716 61.75655
#
# Poissons Ratio (x) = 0.38324 0.18431
# Poissons Ratio (y) = 0.32737 0.12152
# Poissons Ratio (z) = 0.27732 0.21404
#
# Static dielectric constant tensor:
#      x y z
#    x 3.770460 0.000000 0.000000 
#    y 0.000000 3.241810 0.000000 
#    z 0.000000 0.000000 3.170340 
# 
# 
# High freq. dielectric constant tensor:
#      x y z
#    x 1.696780 0.000000 0.000000 
#    y 0.000000 1.700090 0.000000 
#    z 0.000000 0.000000 1.693230 
# 
# From -- ./inp_files/41796.got.cif
#   From: 2010.06.25/outbox.cif.g09.slc.cpg/sg71_21_cif.got.tgz:41796.got - 2010.06.28 04:59:45.
