data_PCOD8288682
_publ_section_title
;
Structure prediction by ZEFSAII (Michael W. Deem and Ramdas Pophale) SiO2 
 PCOD8288682
Probable space group: I M M M
;
_chemical_formula_sum "Si O2"
_cell_formula_units_Z 72
_cell_length_a 31.480973
_cell_length_b 8.936319
_cell_length_c 12.310336
_cell_angle_alpha 90.000000
_cell_angle_beta 90.000000
_cell_angle_gamma 90.000000
_cell_volume 3463.193176
_symmetry_space_group_name_H-M "I M M M"
_symmetry_group_IT_number 71
_symmetry_cell_setting 'orthorhombic'
loop_
_space_group_symop_operation_xyz
x,y,z
-x,-y,z
x,-y,-z
-x,y,-z
-x,-y,-z
x,y,-z
-x,y,z
x,-y,z
1/2+x,1/2+y,1/2+z
1/2-x,1/2-y,1/2+z
1/2+x,1/2-y,1/2-z
1/2-x,1/2+y,1/2-z
1/2-x,1/2-y,1/2-z
1/2+x,1/2+y,1/2-z
1/2-x,1/2+y,1/2+z
1/2+x,1/2-y,1/2+z
loop_
_atom_site_type_symbol
_atom_site_label
_atom_site_fract_x
_atom_site_fract_y
_atom_site_fract_z
Si Si1 0.268486 0.831114 0.370519
Si Si2 0.103481 0.823969 0.680409
Si Si3 0.135833 0.674411 0.878356
Si Si4 0.812995 0.335419 0.624433
Si Si5 0.550218 0.828946 0.000000
O O1 0.272805 0.813242 0.500000
O O2 0.316747 0.797762 0.325384
O O3 0.231614 0.721385 0.320979
O O4 0.254791 0.000000 0.342985
O O5 0.101640 0.760215 0.803624
O O6 0.148934 0.782339 0.630833
O O7 0.066641 0.750825 0.608625
O O8 0.096676 0.000000 0.680605
O O9 0.124994 0.500000 0.881259
O O10 0.133185 0.740747 0.000000
O O11 0.800795 0.351278 0.500000
O O12 0.825732 0.500000 0.671510
O O13 0.500000 0.819346 0.000000
O O14 0.566546 0.000000 0.000000
#
# Coordination Sequence:
#
# PCOD8288682 Si02
#       5
#    16  16  16  16   8
#     4   8  15  29  49  74 108 152 203 256 301 340
#     4  12  24  37  60  90 121 156 192 241 300 361
#     4   9  19  37  59  83 117 163 210 253 293 343
#     4  10  19  31  50  76 112 156 203 253 299 352
#     4  11  25  47  73  97 121 149 187 239 301 371
#
# _framework density 20.790061000000001
#
# number of rings (size 3 to 8) (size 9 to 14) (size 15 to 20)
#    0.000    2.111    1.111    4.333    0.000    4.000 
#    0.000    2.222    0.000    0.667    0.000    4.667 
#    0.000    0.000    0.000    0.000    0.000    0.000 
#
# Total GULP energy -446422.798209 kJ/mol
# GULP energy per Si atom -12400.633284 kJ/mol
# Density = 2.074274 g / cm^3
# Si number density = 20.790061 Si / 1000 Ang^3
#
#
#
# Elastic Constant Matrix: (Units=GPa)
#
#
# Indices 1 2 3 4 5 6 
#
# 1 71.6625 46.1759 43.1500 0.0000 0.0000 0.0000
# 2 46.1759 137.7718 47.1753 0.0000 0.0000 0.0000
# 3 43.1500 47.1753 104.3976 0.0000 0.0000 0.0000
# 4 0.0000 0.0000 0.0000 26.0468 0.0000 0.0000
# 5 0.0000 0.0000 0.0000 0.0000 26.8399 0.0000
# 6 0.0000 0.0000 0.0000 0.0000 0.0000 26.4439
#
#
#
# Elastic Compliance Matrix: (Units=1/GPa)
#
#
# Indices 1 2 3 4 5 6 
#
# 1 0.020957 -0.004801 -0.006493 0.000000 0.000000 0.000000
# 2 -0.004801 0.009687 -0.002393 0.000000 0.000000 0.000000
# 3 -0.006493 -0.002393 0.013344 0.000000 0.000000 0.000000
# 4 0.000000 0.000000 0.000000 0.038392 0.000000 0.000000
# 5 0.000000 0.000000 0.000000 0.000000 0.037258 0.000000
# 6 0.000000 0.000000 0.000000 0.000000 0.000000 0.037816
#
#
# Mechanical properties :
#
#
# Convention : Reuss Voigt Hill
#
# Bulk Modulus (GPa) = 60.18786 65.20382 62.69584
# Shear Modulus (GPa) = 26.26528 27.68815 26.97672
#
# Velocity S-wave (km/s) = 3.55823 3.65334 3.60610
# Velocity P-wave (km/s) = 6.77455 7.01619 6.89643
#
# Compressibility (1/GPa) = 0.01661465
#
# Stress axis : x y z
#
# Youngs Moduli (GPa) = 47.71633 103.23272 74.94179
#
# Poissons Ratio (x) = 0.49561 0.48657
# Poissons Ratio (y) = 0.22908 0.17934
# Poissons Ratio (z) = 0.30981 0.24704
#
# Static dielectric constant tensor:
#      x y z
#    x 3.353600 0.000000 0.000000 
#    y 0.000000 3.808520 0.000000 
#    z 0.000000 0.000000 4.340360 
# 
# 
# High freq. dielectric constant tensor:
#      x y z
#    x 1.763950 0.000000 0.000000 
#    y 0.000000 1.808320 0.000000 
#    z 0.000000 0.000000 1.867700 
# 
# From -- ./inp_files/16380.got.cif
#   From: 2010.06.25/outbox.cif.g09.slc.cpg/sg71_9_cif.got.tgz:16380.got - 2010.06.28 04:59:45.
