data_PCOD8288276
_publ_section_title
;
Structure prediction by ZEFSAII (Michael W. Deem and Ramdas Pophale) SiO2 
 PCOD8288276
Probable space group: I M M M
;
_chemical_formula_sum "Si O2"
_cell_formula_units_Z 80
_cell_length_a 38.431180
_cell_length_b 14.191582
_cell_length_c 9.443918
_cell_angle_alpha 90.000000
_cell_angle_beta 90.000000
_cell_angle_gamma 90.000000
_cell_volume 5150.705722
_symmetry_space_group_name_H-M "I M M M"
_symmetry_group_IT_number 71
_symmetry_cell_setting 'orthorhombic'
loop_
_space_group_symop_operation_xyz
x,y,z
-x,-y,z
x,-y,-z
-x,y,-z
-x,-y,-z
x,y,-z
-x,y,z
x,-y,z
1/2+x,1/2+y,1/2+z
1/2-x,1/2-y,1/2+z
1/2+x,1/2-y,1/2-z
1/2-x,1/2+y,1/2-z
1/2-x,1/2-y,1/2-z
1/2+x,1/2+y,1/2-z
1/2-x,1/2+y,1/2+z
1/2+x,1/2-y,1/2+z
loop_
_atom_site_type_symbol
_atom_site_label
_atom_site_fract_x
_atom_site_fract_y
_atom_site_fract_z
Si Si1 0.603641 0.610234 0.334028
Si Si2 0.538375 0.611739 0.841585
Si Si3 0.766067 0.108995 0.662233
Si Si4 0.199584 0.605534 0.663151
Si Si5 0.163443 0.210360 0.336405
O O1 0.602885 0.630098 0.500000
O O2 0.609760 0.500000 0.300582
O O3 0.567220 0.647298 0.269091
O O4 0.633838 0.670973 0.264219
O O5 0.500000 0.649890 0.797263
O O6 0.537479 0.500000 0.840764
O O7 0.547748 0.647509 0.000000
O O8 0.756954 0.130121 0.500000
O O9 0.733151 0.142654 0.752835
O O10 0.800216 0.164490 0.710021
O O11 0.773959 0.000000 0.689777
O O12 0.210686 0.606510 0.500000
O O13 0.188401 0.500000 0.711773
O O14 0.167324 0.676857 0.687773
O O15 0.154559 0.186284 0.500000
#
# Coordination Sequence:
#
# PCOD8288276 Si02
#       5
#    16  16  16  16  16
#     4  10  20  30  41  62  90 116 142 174 209 242
#     4   8  14  26  44  63  84 114 147 171 194 233
#     4   9  17  28  42  60  80 105 139 175 212 256
#     4   9  18  31  45  61  80 104 139 182 222 256
#     4  10  19  30  44  60  82 113 143 173 212 256
#
# _framework density 15.531852000000001
#
# number of rings (size 3 to 8) (size 9 to 14) (size 15 to 20)
#    0.000    2.800    0.000    2.400    0.000    4.000 
#    0.000    4.000    0.000    0.000    0.000    0.000 
#    0.000    0.800    0.000    9.200    0.000    3.000 
#
# Total GULP energy -495867.176494 kJ/mol
# GULP energy per Si atom -12396.679412 kJ/mol
# Density = 1.549650 g / cm^3
# Si number density = 15.531852 Si / 1000 Ang^3
#
#
#
# Elastic Constant Matrix: (Units=GPa)
#
#
# Indices 1 2 3 4 5 6 
#
# 1 111.8680 50.0497 72.8804 0.0000 0.0000 0.0000
# 2 50.0497 52.5702 36.8207 0.0000 0.0000 0.0000
# 3 72.8804 36.8207 85.6122 0.0001 0.0001 0.0000
# 4 0.0000 0.0000 0.0001 16.5384 0.0000 0.0000
# 5 0.0000 0.0000 0.0001 0.0000 28.6197 0.0000
# 6 0.0000 0.0000 0.0000 0.0000 0.0000 14.5867
#
#
#
# Elastic Compliance Matrix: (Units=1/GPa)
#
#
# Indices 1 2 3 4 5 6 
#
# 1 0.024813 -0.012635 -0.015689 0.000000 0.000000 0.000000
# 2 -0.012635 0.033656 -0.003719 0.000000 0.000000 0.000000
# 3 -0.015689 -0.003719 0.026636 0.000000 0.000000 0.000000
# 4 0.000000 0.000000 0.000000 0.060465 0.000000 0.000000
# 5 0.000000 0.000000 0.000000 0.000000 0.034941 0.000000
# 6 0.000000 0.000000 0.000000 0.000000 0.000000 0.068556
#
#
# Mechanical properties :
#
#
# Convention : Reuss Voigt Hill
#
# Bulk Modulus (GPa) = 47.57559 63.28355 55.42957
# Shear Modulus (GPa) = 15.61725 17.96894 16.79309
#
# Velocity S-wave (km/s) = 3.17440 3.40503 3.29173
# Velocity P-wave (km/s) = 6.64328 7.50278 7.08608
#
# Compressibility (1/GPa) = 0.02101918
#
# Stress axis : x y z
#
# Youngs Moduli (GPa) = 40.30167 29.71233 37.54323
#
# Poissons Ratio (x) = 0.37540 0.58901
# Poissons Ratio (y) = 0.50919 0.13964
# Poissons Ratio (z) = 0.63229 0.11051
#
# Static dielectric constant tensor:
#      x y z
#    x 3.079380 0.000000 0.000000 
#    y 0.000000 2.918550 0.000000 
#    z 0.000000 0.000000 3.028360 
# 
# 
# High freq. dielectric constant tensor:
#      x y z
#    x 1.581800 0.000000 0.000000 
#    y 0.000000 1.567990 0.000000 
#    z 0.000000 0.000000 1.599120 
# 
# From -- ./inp_files/16537.got.cif
#   From: 2010.06.25/outbox.cif.g09.slc.cpg/sg71_9_cif.got.tgz:16537.got - 2010.06.28 04:59:45.
