data_PCOD8288919
_publ_section_title
;
Structure prediction by ZEFSAII (Michael W. Deem and Ramdas Pophale) SiO2 
 PCOD8288919
Probable space group: I M M M
;
_chemical_formula_sum "Si O2"
_cell_formula_units_Z 80
_cell_length_a 25.614070
_cell_length_b 8.905988
_cell_length_c 18.443584
_cell_angle_alpha 90.000000
_cell_angle_beta 90.000000
_cell_angle_gamma 90.000000
_cell_volume 4207.324562
_symmetry_space_group_name_H-M "I M M M"
_symmetry_group_IT_number 71
_symmetry_cell_setting 'orthorhombic'
loop_
_space_group_symop_operation_xyz
x,y,z
-x,-y,z
x,-y,-z
-x,y,-z
-x,-y,-z
x,y,-z
-x,y,z
x,-y,z
1/2+x,1/2+y,1/2+z
1/2-x,1/2-y,1/2+z
1/2+x,1/2-y,1/2-z
1/2-x,1/2+y,1/2-z
1/2-x,1/2-y,1/2-z
1/2+x,1/2+y,1/2-z
1/2-x,1/2+y,1/2+z
1/2+x,1/2-y,1/2+z
loop_
_atom_site_type_symbol
_atom_site_label
_atom_site_fract_x
_atom_site_fract_y
_atom_site_fract_z
Si Si1 0.557858 0.821590 0.081110
Si Si2 0.346532 0.178799 0.825338
Si Si3 0.748927 0.678247 0.418818
Si Si4 0.350946 0.323068 0.669843
Si Si5 0.060192 0.326662 0.916811
O O1 0.500000 0.768676 0.106044
O O2 0.600808 0.758785 0.136708
O O3 0.560542 0.000000 0.079802
O O4 0.569697 0.761302 0.000000
O O5 0.297646 0.237757 0.872155
O O6 0.342256 0.245771 0.746247
O O7 0.346862 0.000000 0.819810
O O8 0.752224 0.745486 0.500000
O O9 0.750555 0.500000 0.422318
O O10 0.695246 0.733467 0.382617
O O11 0.349593 0.500000 0.680918
O O12 0.405958 0.276888 0.635493
O O13 0.074166 0.500000 0.902806
O O14 0.000000 0.296260 0.897886
O O15 0.071559 0.283393 0.000000
#
# Coordination Sequence:
#
# PCOD8288919 Si02
#       5
#    16  16  16  16  16
#     4   8  14  26  47  75 100 122 159 212 260 299
#     4  10  19  32  52  75 101 135 173 214 259 305
#     4   9  18  33  53  75  98 130 176 224 265 306
#     4  11  22  34  50  75 109 142 170 207 258 315
#     4   9  19  37  59  80 102 131 171 217 259 302
#
# _framework density 19.014458999999999
#
# number of rings (size 3 to 8) (size 9 to 14) (size 15 to 20)
#    0.000    2.600    0.000    3.600    0.000    4.800 
#    0.000    4.000    0.000    4.800    0.000    1.400 
#    0.000    0.000    0.000    0.000    0.000    0.000 
#
# Total GULP energy -495978.925220 kJ/mol
# GULP energy per Si atom -12399.473130 kJ/mol
# Density = 1.897118 g / cm^3
# Si number density = 19.014459 Si / 1000 Ang^3
#
#
#
# Elastic Constant Matrix: (Units=GPa)
#
#
# Indices 1 2 3 4 5 6 
#
# 1 137.5588 26.5642 82.0695 0.0000 0.0000 0.0000
# 2 26.5642 25.5921 26.3036 0.0000 0.0000 0.0000
# 3 82.0695 26.3036 153.7500 0.0000 0.0000 0.0000
# 4 0.0000 0.0000 0.0000 23.3336 0.0000 0.0000
# 5 0.0000 0.0000 0.0000 0.0000 30.1730 0.0000
# 6 0.0000 0.0000 0.0000 0.0000 0.0000 19.0521
#
#
#
# Elastic Compliance Matrix: (Units=1/GPa)
#
#
# Indices 1 2 3 4 5 6 
#
# 1 0.011585 -0.006879 -0.005007 0.000000 0.000000 0.000000
# 2 -0.006879 0.051496 -0.005138 0.000000 0.000000 0.000000
# 3 -0.005007 -0.005138 0.010056 0.000000 0.000000 0.000000
# 4 0.000000 0.000000 0.000000 0.042857 0.000000 0.000000
# 5 0.000000 0.000000 0.000000 0.000000 0.033142 0.000000
# 6 0.000000 0.000000 0.000000 0.000000 0.000000 0.052488
#
#
# Mechanical properties :
#
#
# Convention : Reuss Voigt Hill
#
# Bulk Modulus (GPa) = 25.58294 65.19726 45.39010
# Shear Modulus (GPa) = 20.10440 26.64265 23.37352
#
# Velocity S-wave (km/s) = 3.25518 3.74729 3.50987
# Velocity P-wave (km/s) = 5.25470 7.28599 6.35207
#
# Compressibility (1/GPa) = 0.03908854
#
# Stress axis : x y z
#
# Youngs Moduli (GPa) = 86.31507 19.41904 99.44428
#
# Poissons Ratio (x) = 0.13359 0.49794
# Poissons Ratio (y) = 0.59377 0.51094
# Poissons Ratio (z) = 0.43220 0.09977
#
# Static dielectric constant tensor:
#      x y z
#    x 3.776580 0.000000 0.000000 
#    y 0.000000 2.993980 0.000000 
#    z 0.000000 0.000000 3.577710 
# 
# 
# High freq. dielectric constant tensor:
#      x y z
#    x 1.756400 0.000000 0.000000 
#    y 0.000000 1.689840 0.000000 
#    z 0.000000 0.000000 1.747790 
# 
# From -- ./inp_files/8347.got.cif
#   From: 2010.06.25/outbox.cif.g09.slc.cpg/sg71_5_cif.got.tgz:8347.got - 2010.06.28 04:59:45.
