data_PCOD8288201
_publ_section_title
;
Structure prediction by ZEFSAII (Michael W. Deem and Ramdas Pophale) SiO2 
 PCOD8288201
Probable space group: I M M M
;
_chemical_formula_sum "Si O2"
_cell_formula_units_Z 104
_cell_length_a 27.901672
_cell_length_b 17.340834
_cell_length_c 12.656651
_cell_angle_alpha 90.000000
_cell_angle_beta 90.000000
_cell_angle_gamma 90.000000
_cell_volume 6123.772029
_symmetry_space_group_name_H-M "I M M M"
_symmetry_group_IT_number 71
_symmetry_cell_setting 'orthorhombic'
loop_
_space_group_symop_operation_xyz
x,y,z
-x,-y,z
x,-y,-z
-x,y,-z
-x,-y,-z
x,y,-z
-x,y,z
x,-y,z
1/2+x,1/2+y,1/2+z
1/2-x,1/2-y,1/2+z
1/2+x,1/2-y,1/2-z
1/2-x,1/2+y,1/2-z
1/2-x,1/2-y,1/2-z
1/2+x,1/2+y,1/2-z
1/2-x,1/2+y,1/2+z
1/2+x,1/2-y,1/2+z
loop_
_atom_site_type_symbol
_atom_site_label
_atom_site_fract_x
_atom_site_fract_y
_atom_site_fract_z
Si Si1 0.795379 0.916835 0.117221
Si Si2 0.723593 0.864503 0.727460
Si Si3 0.371272 0.304817 0.709267
Si Si4 0.126203 0.366743 0.874467
Si Si5 0.802582 0.224882 0.621681
Si Si6 0.555171 0.412279 0.619287
Si Si7 0.054559 0.500000 0.125218
O O1 0.751928 0.925250 0.200501
O O2 0.829499 0.844407 0.139658
O O3 0.822896 0.000000 0.122719
O O4 0.774152 0.903938 0.000000
O O5 0.676107 0.899548 0.673510
O O6 0.758879 0.835193 0.634198
O O7 0.709314 0.797989 0.808154
O O8 0.383158 0.219639 0.666621
O O9 0.353031 0.306772 0.830686
O O10 0.418714 0.356016 0.701038
O O11 0.083128 0.423207 0.836887
O O12 0.130149 0.366383 0.000000
O O13 0.810208 0.245934 0.500000
O O14 0.575212 0.400598 0.500000
O O15 0.500000 0.389528 0.621768
O O16 0.562756 0.500000 0.655786
O O17 0.000000 0.500000 0.171676
O O18 0.051822 0.500000 0.000000
#
# Coordination Sequence:
#
# PCOD8288201 Si02
#       7
#    16  16  16  16  16  16   8
#     4  10  19  29  44  68 101 133 158 192 232 280
#     4   9  18  28  46  69  91 126 161 195 233 282
#     4  10  19  30  48  72  95 128 162 194 238 292
#     4  10  19  31  49  70  93 124 157 194 237 287
#     4   9  17  30  46  67  97 126 159 202 239 276
#     4   9  17  29  47  72 100 126 154 195 244 291
#     4   9  20  36  50  68  95 125 155 195 247 290
#
# _framework density 16.982996
#
# number of rings (size 3 to 8) (size 9 to 14) (size 15 to 20)
#    0.000    2.538    0.000    4.154    1.077    1.846 
#    0.000    1.538    0.000    8.769    0.000    1.077 
#    0.000   17.231    0.000    0.000    0.000    0.000 
#
# Total GULP energy -644342.687020 kJ/mol
# GULP energy per Si atom -12391.205520 kJ/mol
# Density = 1.694434 g / cm^3
# Si number density = 16.982996 Si / 1000 Ang^3
#
#
#
# Elastic Constant Matrix: (Units=GPa)
#
#
# Indices 1 2 3 4 5 6 
#
# 1 103.5313 48.8852 32.4056 0.0000 0.0000 0.0000
# 2 48.8852 87.9542 20.1979 0.0000 0.0000 0.0000
# 3 32.4056 20.1979 77.1882 0.0000 0.0000 0.0000
# 4 0.0000 0.0000 0.0000 15.8957 0.0000 0.0000
# 5 0.0000 0.0000 0.0000 0.0000 17.4090 0.0000
# 6 0.0000 0.0000 0.0000 0.0000 0.0000 29.6130
#
#
#
# Elastic Compliance Matrix: (Units=1/GPa)
#
#
# Indices 1 2 3 4 5 6 
#
# 1 0.014250 -0.006965 -0.004160 0.000000 0.000000 0.000000
# 2 -0.006965 0.015500 -0.001132 0.000000 0.000000 0.000000
# 3 -0.004160 -0.001132 0.014998 0.000000 0.000000 0.000000
# 4 0.000000 0.000000 0.000000 0.062910 0.000000 0.000000
# 5 0.000000 0.000000 0.000000 0.000000 0.057441 0.000000
# 6 0.000000 0.000000 0.000000 0.000000 0.000000 0.033769
#
#
# Mechanical properties :
#
#
# Convention : Reuss Voigt Hill
#
# Bulk Modulus (GPa) = 49.41982 52.40569 50.91275
# Shear Modulus (GPa) = 21.72716 23.72921 22.72819
#
# Velocity S-wave (km/s) = 3.58068 3.74201 3.66223
# Velocity P-wave (km/s) = 6.80131 7.04237 6.92289
#
# Compressibility (1/GPa) = 0.02023480
#
# Stress axis : x y z
#
# Youngs Moduli (GPa) = 70.17789 64.51411 66.67556
#
# Poissons Ratio (x) = 0.44932 0.27736
# Poissons Ratio (y) = 0.48876 0.07548
# Poissons Ratio (z) = 0.29193 0.07304
#
# Static dielectric constant tensor:
#      x y z
#    x 3.378320 0.000000 0.000000 
#    y 0.000000 3.306930 0.000000 
#    z 0.000000 0.000000 3.158010 
# 
# 
# High freq. dielectric constant tensor:
#      x y z
#    x 1.646290 0.000000 0.000000 
#    y 0.000000 1.657620 0.000000 
#    z 0.000000 0.000000 1.627050 
# 
# From -- ./inp_files/30179.got.cif
#   From: 2010.06.25/outbox.cif.g09.slc.cpg/sg71_16_cif.got.tgz:30179.got - 2010.06.28 04:59:45.
