data_PCOD8288264
_publ_section_title
;
Structure prediction by ZEFSAII (Michael W. Deem and Ramdas Pophale) SiO2 
 PCOD8288264
Probable space group: I M M M
;
_chemical_formula_sum "Si O2"
_cell_formula_units_Z 96
_cell_length_a 27.699335
_cell_length_b 28.684914
_cell_length_c 8.832143
_cell_angle_alpha 90.000000
_cell_angle_beta 90.000000
_cell_angle_gamma 90.000000
_cell_volume 7017.606091
_symmetry_space_group_name_H-M "I M M M"
_symmetry_group_IT_number 71
_symmetry_cell_setting 'orthorhombic'
loop_
_space_group_symop_operation_xyz
x,y,z
-x,-y,z
x,-y,-z
-x,y,-z
-x,-y,-z
x,y,-z
-x,y,z
x,-y,z
1/2+x,1/2+y,1/2+z
1/2-x,1/2-y,1/2+z
1/2+x,1/2-y,1/2-z
1/2-x,1/2+y,1/2-z
1/2-x,1/2-y,1/2-z
1/2+x,1/2+y,1/2-z
1/2-x,1/2+y,1/2+z
1/2+x,1/2-y,1/2+z
loop_
_atom_site_type_symbol
_atom_site_label
_atom_site_fract_x
_atom_site_fract_y
_atom_site_fract_z
Si Si1 0.096483 0.719782 0.176010
Si Si2 0.342155 0.872258 0.324011
Si Si3 0.500000 0.907753 0.678787
Si Si4 0.178646 0.771613 0.329602
Si Si5 0.000000 0.693840 0.678813
Si Si6 0.406074 0.053726 0.173700
Si Si7 0.259201 0.178349 0.170381
O O1 0.121084 0.669964 0.206400
O O2 0.130157 0.761481 0.235836
O O3 0.046705 0.722169 0.266926
O O4 0.086437 0.727677 0.000000
O O5 0.338617 0.884287 0.500000
O O6 0.360878 0.916926 0.233627
O O7 0.288930 0.860139 0.263586
O O8 0.500000 0.901142 0.500000
O O9 0.500000 0.857206 0.751282
O O10 0.453232 0.936412 0.727442
O O11 0.165093 0.786458 0.500000
O O12 0.207529 0.813805 0.250207
O O13 0.211725 0.726223 0.331058
O O14 0.000000 0.689638 0.500000
O O15 0.391750 0.000000 0.190350
O O16 0.417019 0.067076 0.000000
O O17 0.250698 0.160332 0.000000
#
# Coordination Sequence:
#
# PCOD8288264 Si02
#       7
#    16  16   8  16   8  16  16
#     4  10  19  30  43  59  79 101 128 160 197 237
#     4  10  19  30  45  61  78  99 125 158 198 242
#     4  12  23  35  48  61  74  96 128 166 208 251
#     4   9  16  26  40  59  80 101 125 152 187 229
#     4  12  22  31  45  60  78 103 132 166 203 243
#     4  11  23  36  48  61  77  98 127 165 208 252
#     4   9  16  26  41  59  80 101 123 151 188 231
#
# _framework density 13.679879
#
# number of rings (size 3 to 8) (size 9 to 14) (size 15 to 20)
#    0.000    1.833    1.667    4.250    0.000    7.667 
#    0.000    0.000    0.000    0.000    0.000    0.000 
#    0.000    0.000    0.000    0.000    0.000    0.000 
#
# Total GULP energy -595336.460191 kJ/mol
# GULP energy per Si atom -12402.842921 kJ/mol
# Density = 1.364874 g / cm^3
# Si number density = 13.679879 Si / 1000 Ang^3
#
#
#
# Elastic Constant Matrix: (Units=GPa)
#
#
# Indices 1 2 3 4 5 6 
#
# 1 81.7254 46.8772 55.5755 0.0000 0.0000 0.0000
# 2 46.8772 38.6420 30.6637 0.0000 0.0000 0.0000
# 3 55.5755 30.6637 119.3855 0.0000 0.0000 0.0000
# 4 0.0000 0.0000 0.0000 17.1395 0.0000 0.0000
# 5 0.0000 0.0000 0.0000 0.0000 26.8722 0.0000
# 6 0.0000 0.0000 0.0000 0.0000 0.0000 8.5269
#
#
#
# Elastic Compliance Matrix: (Units=1/GPa)
#
#
# Indices 1 2 3 4 5 6 
#
# 1 0.046937 -0.049739 -0.009075 0.000000 0.000000 0.000000
# 2 -0.049739 0.085212 0.001268 0.000000 0.000000 0.000000
# 3 -0.009075 0.001268 0.012275 0.000000 0.000000 0.000000
# 4 0.000000 0.000000 0.000000 0.058345 0.000000 0.000000
# 5 0.000000 0.000000 0.000000 0.000000 0.037213 0.000000
# 6 0.000000 0.000000 0.000000 0.000000 0.000000 0.117276
#
#
# Mechanical properties :
#
#
# Convention : Reuss Voigt Hill
#
# Bulk Modulus (GPa) = 34.09217 56.22064 45.15641
# Shear Modulus (GPa) = 10.37071 17.61684 13.99377
#
# Velocity S-wave (km/s) = 2.75635 3.59248 3.20182
# Velocity P-wave (km/s) = 5.92498 7.64162 6.83739
#
# Compressibility (1/GPa) = 0.02933225
#
# Stress axis : x y z
#
# Youngs Moduli (GPa) = 21.30502 11.73542 81.46727
#
# Poissons Ratio (x) = 0.58371 0.73928
# Poissons Ratio (y) = 1.05970 -0.10330
# Poissons Ratio (z) = 0.19333 -0.01488
#
# Static dielectric constant tensor:
#      x y z
#    x 2.731680 0.000000 0.000000 
#    y 0.000000 2.402770 0.000000 
#    z 0.000000 0.000000 2.955240 
# 
# 
# High freq. dielectric constant tensor:
#      x y z
#    x 1.508650 0.000000 0.000000 
#    y 0.000000 1.467070 0.000000 
#    z 0.000000 0.000000 1.547080 
# 
# From -- ./inp_files/13190.got.cif
#   From: 2010.06.25/outbox.cif.g09.slc.cpg/sg71_7_cif.got.tgz:13190.got - 2010.06.28 04:59:45.
