data_PCOD8288572
_publ_section_title
;
Structure prediction by ZEFSAII (Michael W. Deem and Ramdas Pophale) SiO2 
 PCOD8288572
Probable space group: I M M M
;
_chemical_formula_sum "Si O2"
_cell_formula_units_Z 104
_cell_length_a 32.525178
_cell_length_b 19.982303
_cell_length_c 8.923793
_cell_angle_alpha 90.000000
_cell_angle_beta 90.000000
_cell_angle_gamma 90.000000
_cell_volume 5799.822597
_symmetry_space_group_name_H-M "I M M M"
_symmetry_group_IT_number 71
_symmetry_cell_setting 'orthorhombic'
loop_
_space_group_symop_operation_xyz
x,y,z
-x,-y,z
x,-y,-z
-x,y,-z
-x,-y,-z
x,y,-z
-x,y,z
x,-y,z
1/2+x,1/2+y,1/2+z
1/2-x,1/2-y,1/2+z
1/2+x,1/2-y,1/2-z
1/2-x,1/2+y,1/2-z
1/2-x,1/2-y,1/2-z
1/2+x,1/2+y,1/2-z
1/2-x,1/2+y,1/2+z
1/2+x,1/2-y,1/2+z
loop_
_atom_site_type_symbol
_atom_site_label
_atom_site_fract_x
_atom_site_fract_y
_atom_site_fract_z
Si Si1 0.132135 0.316381 0.326628
Si Si2 0.769536 0.076043 0.177037
Si Si3 0.044411 0.000000 0.823012
Si Si4 0.166094 0.173326 0.325195
Si Si5 0.083793 0.864224 0.823787
Si Si6 0.183773 0.576215 0.171800
Si Si7 0.954027 0.744445 0.672773
O O1 0.136935 0.335430 0.500000
O O2 0.161298 0.252463 0.288168
O O3 0.146314 0.377710 0.224945
O O4 0.083730 0.305186 0.287278
O O5 0.796923 0.135770 0.242671
O O6 0.723441 0.091352 0.228206
O O7 0.782485 0.000000 0.228634
O O8 0.772019 0.080983 0.000000
O O9 0.067933 0.064876 0.769690
O O10 0.000000 0.000000 0.745914
O O11 0.039733 0.000000 0.000000
O O12 0.172362 0.161764 0.500000
O O13 0.124605 0.140221 0.271449
O O14 0.050177 0.809003 0.778305
O O15 0.093125 0.859298 0.000000
O O16 0.169129 0.500000 0.191988
O O17 0.194790 0.591935 0.000000
O O18 0.949063 0.766561 0.500000
O O19 0.000000 0.713238 0.699992
#
# Coordination Sequence:
#
# PCOD8288572 Si02
#       7
#    16  16   8  16  16  16  16
#     4   9  19  35  55  79 106 137 174 214 259 311
#     4  10  21  36  55  78 105 140 182 220 259 310
#     4   9  18  30  43  63  93 129 171 219 265 307
#     4  10  21  36  52  75 106 139 177 220 266 309
#     4  10  19  31  48  70  98 134 177 221 265 312
#     4  10  21  37  57  81 107 135 169 210 260 315
#     4   9  18  34  54  76 104 135 170 215 262 309
#
# _framework density 17.931583
#
# number of rings (size 3 to 8) (size 9 to 14) (size 15 to 20)
#    0.000    2.385    0.000    3.231    1.077    6.462 
#    0.000    1.154    0.000    3.231    0.000    3.231 
#    0.000    0.000    0.000    0.000    0.000    0.000 
#
# Total GULP energy -644546.237853 kJ/mol
# GULP energy per Si atom -12395.119959 kJ/mol
# Density = 1.789077 g / cm^3
# Si number density = 17.931583 Si / 1000 Ang^3
#
#
#
# Elastic Constant Matrix: (Units=GPa)
#
#
# Indices 1 2 3 4 5 6 
#
# 1 103.5112 62.4377 34.7370 0.0000 0.0000 0.0000
# 2 62.4377 96.7114 44.1674 0.0000 0.0000 0.0000
# 3 34.7370 44.1674 56.9489 0.0000 0.0000 0.0000
# 4 0.0000 0.0000 0.0000 43.5281 0.0000 0.0000
# 5 0.0000 0.0000 0.0000 0.0000 29.6781 0.0000
# 6 0.0000 0.0000 0.0000 0.0000 0.0000 36.9077
#
#
#
# Elastic Compliance Matrix: (Units=1/GPa)
#
#
# Indices 1 2 3 4 5 6 
#
# 1 0.016091 -0.009145 -0.002722 0.000000 0.000000 0.000000
# 2 -0.009145 0.021209 -0.010870 0.000000 0.000000 0.000000
# 3 -0.002722 -0.010870 0.027651 0.000000 0.000000 0.000000
# 4 0.000000 0.000000 0.000000 0.022974 0.000000 0.000000
# 5 0.000000 0.000000 0.000000 0.000000 0.033695 0.000000
# 6 0.000000 0.000000 0.000000 0.000000 0.000000 0.027095
#
#
# Mechanical properties :
#
#
# Convention : Reuss Voigt Hill
#
# Bulk Modulus (GPa) = 51.34883 59.98398 55.66641
# Shear Modulus (GPa) = 24.91529 29.74473 27.33001
#
# Velocity S-wave (km/s) = 3.73160 4.07724 3.90824
# Velocity P-wave (km/s) = 6.87492 7.46253 7.17475
#
# Compressibility (1/GPa) = 0.01947464
#
# Stress axis : x y z
#
# Youngs Moduli (GPa) = 62.14816 47.15070 36.16531
#
# Poissons Ratio (x) = 0.43119 0.09845
# Poissons Ratio (y) = 0.56834 0.39313
# Poissons Ratio (z) = 0.16918 0.51255
#
# Static dielectric constant tensor:
#      x y z
#    x 3.453230 0.000000 0.000000 
#    y 0.000000 3.338380 0.000000 
#    z 0.000000 0.000000 3.339310 
# 
# 
# High freq. dielectric constant tensor:
#      x y z
#    x 1.694570 0.000000 0.000000 
#    y 0.000000 1.680630 0.000000 
#    z 0.000000 0.000000 1.697510 
# 
# From -- ./inp_files/16990.got.cif
#   From: 2010.06.25/outbox.cif.g09.slc.cpg/sg71_9_cif.got.tgz:16990.got - 2010.06.28 04:59:45.
