data_PCOD8288231
_publ_section_title
;
Structure prediction by ZEFSAII (Michael W. Deem and Ramdas Pophale) SiO2 
 PCOD8288231
Probable space group: I M M M
;
_chemical_formula_sum "Si O2"
_cell_formula_units_Z 128
_cell_length_a 18.012648
_cell_length_b 22.078833
_cell_length_c 19.851634
_cell_angle_alpha 90.000000
_cell_angle_beta 90.000000
_cell_angle_gamma 90.000000
_cell_volume 7894.960043
_symmetry_space_group_name_H-M "I M M M"
_symmetry_group_IT_number 71
_symmetry_cell_setting 'orthorhombic'
loop_
_space_group_symop_operation_xyz
x,y,z
-x,-y,z
x,-y,-z
-x,y,-z
-x,-y,-z
x,y,-z
-x,y,z
x,-y,z
1/2+x,1/2+y,1/2+z
1/2-x,1/2-y,1/2+z
1/2+x,1/2-y,1/2-z
1/2-x,1/2+y,1/2-z
1/2-x,1/2-y,1/2-z
1/2+x,1/2+y,1/2-z
1/2-x,1/2+y,1/2+z
1/2+x,1/2-y,1/2+z
loop_
_atom_site_type_symbol
_atom_site_label
_atom_site_fract_x
_atom_site_fract_y
_atom_site_fract_z
Si Si1 0.912098 0.433992 0.573392
Si Si2 0.680043 0.569344 0.076101
Si Si3 0.415914 0.831975 0.167441
Si Si4 0.783804 0.741923 0.352307
Si Si5 0.198322 0.667064 0.075683
Si Si6 0.915925 0.703590 0.186199
Si Si7 0.171045 0.181361 0.231242
Si Si8 0.912357 0.929483 0.706288
O O1 0.887822 0.408149 0.500000
O O2 0.876316 0.500000 0.584024
O O3 0.883689 0.392608 0.633994
O O4 0.000000 0.439207 0.576153
O O5 0.705414 0.500000 0.081783
O O6 0.752978 0.608190 0.092881
O O7 0.614524 0.582981 0.129650
O O8 0.651000 0.583958 0.000000
O O9 0.500000 0.818148 0.145803
O O10 0.368203 0.777587 0.135430
O O11 0.407621 0.838420 0.247644
O O12 0.748868 0.772139 0.418660
O O13 0.784887 0.796305 0.297430
O O14 0.734658 0.683812 0.327033
O O15 0.130420 0.672204 0.127280
O O16 0.166703 0.663686 0.000000
O O17 0.891602 0.771083 0.207297
O O18 0.000000 0.706891 0.160779
O O19 0.133308 0.115356 0.243094
O O20 0.000000 0.914642 0.710293
O O21 0.897619 0.000000 0.726588
#
# Coordination Sequence:
#
# PCOD8288231 Si02
#       8
#    16  16  16  16  16  16  16  16
#     4   8  14  26  43  61  85 119 152 180 216 266
#     4   9  18  32  47  63  89 126 160 191 234 284
#     4   9  17  28  44  67  94 121 150 187 231 280
#     4   9  17  29  46  65  89 120 154 184 230 285
#     4  10  19  32  49  68  91 121 161 202 237 281
#     4   9  18  31  49  70  92 123 156 193 246 291
#     4   9  16  30  48  64  92 122 150 188 234 287
#     4  10  19  29  46  71  94 120 157 197 232 275
#
# _framework density 16.212875
#
# number of rings (size 3 to 8) (size 9 to 14) (size 15 to 20)
#    0.000    2.875    1.250    1.500    0.000    1.500 
#    0.000    2.500    0.000    1.125    0.000    1.750 
#    0.000    4.500    0.000   27.500    0.000    0.000 
#
# Total GULP energy -792900.624720 kJ/mol
# GULP energy per Si atom -12389.072261 kJ/mol
# Density = 1.617597 g / cm^3
# Si number density = 16.212875 Si / 1000 Ang^3
#
#
#
# Elastic Constant Matrix: (Units=GPa)
#
#
# Indices 1 2 3 4 5 6 
#
# 1 80.1336 36.2205 33.8179 0.0000 0.0000 0.0000
# 2 36.2205 80.8515 42.7492 0.0000 0.0000 0.0000
# 3 33.8179 42.7492 60.8583 0.0000 0.0000 0.0000
# 4 0.0000 0.0000 0.0000 24.1863 0.0000 0.0000
# 5 0.0000 0.0000 0.0000 0.0000 20.1860 0.0000
# 6 0.0000 0.0000 0.0000 0.0000 0.0000 23.2844
#
#
#
# Elastic Compliance Matrix: (Units=1/GPa)
#
#
# Indices 1 2 3 4 5 6 
#
# 1 0.017157 -0.004208 -0.006578 0.000000 0.000000 0.000000
# 2 -0.004208 0.020708 -0.012208 0.000000 0.000000 0.000000
# 3 -0.006578 -0.012208 0.028662 0.000000 0.000000 0.000000
# 4 0.000000 0.000000 0.000000 0.041346 0.000000 0.000000
# 5 0.000000 0.000000 0.000000 0.000000 0.049539 0.000000
# 6 0.000000 0.000000 0.000000 0.000000 0.000000 0.042947
#
#
# Mechanical properties :
#
#
# Convention : Reuss Voigt Hill
#
# Bulk Modulus (GPa) = 48.68642 49.71317 49.19980
# Shear Modulus (GPa) = 19.74763 20.80173 20.27468
#
# Velocity S-wave (km/s) = 3.49380 3.58584 3.54012
# Velocity P-wave (km/s) = 6.80957 6.91908 6.86454
#
# Compressibility (1/GPa) = 0.02053961
#
# Stress axis : x y z
#
# Youngs Moduli (GPa) = 58.28419 48.28968 34.88915
#
# Poissons Ratio (x) = 0.20321 0.22950
# Poissons Ratio (y) = 0.24527 0.42592
# Poissons Ratio (z) = 0.38339 0.58952
#
# Static dielectric constant tensor:
#      x y z
#    x 3.018200 0.000000 0.000000 
#    y 0.000000 3.140990 0.000000 
#    z 0.000000 0.000000 3.037250 
# 
# 
# High freq. dielectric constant tensor:
#      x y z
#    x 1.613200 0.000000 0.000000 
#    y 0.000000 1.611530 0.000000 
#    z 0.000000 0.000000 1.608090 
# 
# From -- ./inp_files/54461.got.cif
#   From: 2010.06.25/outbox.cif.g09.slc.cpg/sg71_28_cif.got.tgz:54461.got - 2010.06.28 04:59:45.
