data_PCOD8288992
_publ_section_title
;
Structure prediction by ZEFSAII (Michael W. Deem and Ramdas Pophale) SiO2 
 PCOD8288992
Probable space group: I M M M
;
_chemical_formula_sum "Si O2"
_cell_formula_units_Z 88
_cell_length_a 18.176975
_cell_length_b 28.759015
_cell_length_c 8.849015
_cell_angle_alpha 90.000000
_cell_angle_beta 90.000000
_cell_angle_gamma 90.000000
_cell_volume 4625.839375
_symmetry_space_group_name_H-M "I M M M"
_symmetry_group_IT_number 71
_symmetry_cell_setting 'orthorhombic'
loop_
_space_group_symop_operation_xyz
x,y,z
-x,-y,z
x,-y,-z
-x,y,-z
-x,-y,-z
x,y,-z
-x,y,z
x,-y,z
1/2+x,1/2+y,1/2+z
1/2-x,1/2-y,1/2+z
1/2+x,1/2-y,1/2-z
1/2-x,1/2+y,1/2-z
1/2-x,1/2-y,1/2-z
1/2+x,1/2+y,1/2-z
1/2-x,1/2+y,1/2+z
1/2+x,1/2-y,1/2+z
loop_
_atom_site_type_symbol
_atom_site_label
_atom_site_fract_x
_atom_site_fract_y
_atom_site_fract_z
Si Si1 0.000000 0.447578 0.820741
Si Si2 0.814582 0.220474 0.821879
Si Si3 0.585007 0.210907 0.174846
Si Si4 0.796836 0.878047 0.324733
Si Si5 0.131259 0.618138 0.174347
Si Si6 0.418520 0.551689 0.820753
O O1 0.073370 0.420399 0.764618
O O2 0.000000 0.500000 0.752448
O O3 0.000000 0.450931 0.000000
O O4 0.750000 0.250000 0.750000
O O5 0.890735 0.243086 0.765044
O O6 0.808418 0.167672 0.772321
O O7 0.809381 0.223926 0.000000
O O8 0.500000 0.202738 0.205512
O O9 0.627115 0.165428 0.231847
O O10 0.603753 0.218343 0.000000
O O11 0.812111 0.866288 0.500000
O O12 0.714973 0.899807 0.305945
O O13 0.855223 0.914744 0.257503
O O14 0.113388 0.629542 0.000000
O O15 0.500000 0.569504 0.772074
O O16 0.405347 0.500000 0.755086
O O17 0.413163 0.549891 0.000000
#
# Coordination Sequence:
#
# PCOD8288992 Si02
#       6
#     8  16  16  16  16  16
#     4   9  18  32  51  79 113 147 189 241 294 343
#     4  12  24  38  57  82 114 151 190 234 284 339
#     4  11  23  38  58  82 109 147 192 235 281 338
#     4  10  20  33  54  85 115 147 191 239 283 334
#     4  10  19  32  53  78 108 149 190 235 286 335
#     4   8  15  30  53  81 114 150 187 231 281 331
#
# _framework density 19.023575999999998
#
# number of rings (size 3 to 8) (size 9 to 14) (size 15 to 20)
#    0.000    1.909    2.727    2.727    0.000    2.545 
#    0.000    5.455    0.000    1.636    0.000    3.818 
#    0.000    0.000    0.000    0.000    0.000    0.000 
#
# Total GULP energy -545572.862767 kJ/mol
# GULP energy per Si atom -12399.383245 kJ/mol
# Density = 1.898028 g / cm^3
# Si number density = 19.023576 Si / 1000 Ang^3
#
#
#
# Elastic Constant Matrix: (Units=GPa)
#
#
# Indices 1 2 3 4 5 6 
#
# 1 139.8628 76.9556 40.2372 -0.0003 0.0001 0.0000
# 2 76.9556 124.9900 33.0907 0.0001 -0.0001 0.0000
# 3 40.2372 33.0907 74.1635 -0.0003 0.0007 0.0006
# 4 -0.0003 0.0001 -0.0003 22.5132 -0.0001 0.0001
# 5 0.0001 -0.0001 0.0007 -0.0001 16.8192 0.0002
# 6 0.0000 0.0000 0.0006 0.0001 0.0002 40.0705
#
#
#
# Elastic Compliance Matrix: (Units=1/GPa)
#
#
# Indices 1 2 3 4 5 6 
#
# 1 0.011568 -0.006192 -0.003513 0.000000 0.000000 0.000000
# 2 -0.006192 0.012387 -0.002167 0.000000 0.000000 0.000000
# 3 -0.003513 -0.002167 0.016357 0.000000 -0.000001 0.000000
# 4 0.000000 0.000000 0.000000 0.044418 0.000000 0.000000
# 5 0.000000 0.000000 -0.000001 0.000000 0.059456 0.000000
# 6 0.000000 0.000000 0.000000 0.000000 0.000000 0.024956
#
#
# Mechanical properties :
#
#
# Convention : Reuss Voigt Hill
#
# Bulk Modulus (GPa) = 60.36406 71.06482 65.71444
# Shear Modulus (GPa) = 25.20054 28.46276 26.83165
#
# Velocity S-wave (km/s) = 3.64359 3.87225 3.75966
# Velocity P-wave (km/s) = 7.03570 7.57824 7.31200
#
# Compressibility (1/GPa) = 0.01656615
#
# Stress axis : x y z
#
# Youngs Moduli (GPa) = 86.44897 80.73114 61.13646
#
# Poissons Ratio (x) = 0.49988 0.21478
# Poissons Ratio (y) = 0.53529 0.13251
# Poissons Ratio (z) = 0.30371 0.17498
#
# Static dielectric constant tensor:
#      x y z
#    x 3.745780 0.000040 0.000000 
#    y 0.000040 1.525970 0.000040 
#    z 0.000000 0.000040 3.223490 
# 
# 
# High freq. dielectric constant tensor:
#      x y z
#    x 1.755400 0.000000 0.000000 
#    y 0.000000 1.734300 0.000000 
#    z 0.000000 0.000000 1.708210 
# 
# From -- ./inp_files/8854.got.cif
#   From: 2010.06.25/outbox.cif.g09.slc.cpg/sg71_5_cif.got.tgz:8854.got - 2010.06.28 04:59:45.
