data_PCOD8288220
_publ_section_title
;
Structure prediction by ZEFSAII (Michael W. Deem and Ramdas Pophale) SiO2 
 PCOD8288220
Probable space group: I M M M
;
_chemical_formula_sum "Si O2"
_cell_formula_units_Z 120
_cell_length_a 12.459831
_cell_length_b 30.682846
_cell_length_c 19.347012
_cell_angle_alpha 90.000000
_cell_angle_beta 90.000000
_cell_angle_gamma 90.000000
_cell_volume 7396.422194
_symmetry_space_group_name_H-M "I M M M"
_symmetry_group_IT_number 71
_symmetry_cell_setting 'orthorhombic'
loop_
_space_group_symop_operation_xyz
x,y,z
-x,-y,z
x,-y,-z
-x,y,-z
-x,-y,-z
x,y,-z
-x,y,z
x,-y,z
1/2+x,1/2+y,1/2+z
1/2-x,1/2-y,1/2+z
1/2+x,1/2-y,1/2-z
1/2-x,1/2+y,1/2-z
1/2-x,1/2-y,1/2-z
1/2+x,1/2+y,1/2-z
1/2-x,1/2+y,1/2+z
1/2+x,1/2-y,1/2+z
loop_
_atom_site_type_symbol
_atom_site_label
_atom_site_fract_x
_atom_site_fract_y
_atom_site_fract_z
Si Si1 0.373882 0.608051 0.196920
Si Si2 0.876029 0.290525 0.307998
Si Si3 0.736297 0.671949 0.419872
Si Si4 0.274368 0.301108 0.182762
Si Si5 0.127721 0.951086 0.575970
Si Si6 0.127835 0.910150 0.851769
Si Si7 0.127083 0.000000 0.921680
Si Si8 0.880005 0.260062 0.080039
O O1 0.500000 0.602190 0.197350
O O2 0.346606 0.656716 0.174156
O O3 0.321770 0.577372 0.137914
O O4 0.331399 0.594555 0.272777
O O5 0.844459 0.315646 0.378457
O O6 0.800564 0.309499 0.248564
O O7 0.856840 0.238760 0.310283
O O8 0.000000 0.299778 0.292137
O O9 0.767723 0.669582 0.500000
O O10 0.684675 0.626511 0.397579
O O11 0.650347 0.710024 0.404364
O O12 0.198628 0.293819 0.116955
O O13 0.164334 0.933745 0.500000
O O14 0.000000 0.950090 0.579815
O O15 0.170108 0.000000 0.586424
O O16 0.000000 0.904278 0.858204
O O17 0.166052 0.957041 0.880612
O O18 0.000000 0.000000 0.925118
O O19 0.173834 0.000000 0.000000
O O20 0.000000 0.266835 0.108616
O O21 0.872291 0.270910 0.000000
#
# Coordination Sequence:
#
# PCOD8288220 Si02
#       8
#    16  16  16  16  16  16   8  16
#     4  10  19  29  45  69  97 126 158 192 227 273
#     4  10  20  33  48  66  92 125 161 200 236 273
#     4  10  19  32  49  69  93 124 162 197 232 280
#     4  10  19  32  47  68  93 126 158 192 233 279
#     4   8  15  28  45  65  92 127 159 183 215 266
#     4  10  19  30  46  70 100 129 156 191 235 285
#     4   9  18  30  44  66  96 128 156 187 238 292
#     4   9  18  31  48  70  94 123 158 194 230 270
#
# _framework density 16.224060000000001
#
# number of rings (size 3 to 8) (size 9 to 14) (size 15 to 20)
#    0.000    2.467    1.333    2.000    0.933    2.133 
#    0.000    0.000    0.000    2.400    0.000    0.467 
#    0.000    3.200    0.000    7.333    0.000    0.533 
#
# Total GULP energy -743826.506081 kJ/mol
# GULP energy per Si atom -12397.108435 kJ/mol
# Density = 1.618713 g / cm^3
# Si number density = 16.224060 Si / 1000 Ang^3
#
#
#
# Elastic Constant Matrix: (Units=GPa)
#
#
# Indices 1 2 3 4 5 6 
#
# 1 26.0003 2.6099 10.8573 0.0000 0.0000 0.0000
# 2 2.6099 85.8032 48.2367 0.0001 -0.0001 -0.0001
# 3 10.8573 48.2367 95.6932 -0.0004 0.0001 -0.0001
# 4 0.0000 0.0001 -0.0004 30.7160 0.0000 -0.0001
# 5 0.0000 -0.0001 0.0001 0.0000 13.6580 0.0001
# 6 0.0000 -0.0001 -0.0001 -0.0001 0.0001 16.7321
#
#
#
# Elastic Compliance Matrix: (Units=1/GPa)
#
#
# Indices 1 2 3 4 5 6 
#
# 1 0.040592 0.001890 -0.005558 0.000000 0.000000 0.000000
# 2 0.001890 0.016351 -0.008457 0.000000 0.000000 0.000000
# 3 -0.005558 -0.008457 0.015344 0.000000 0.000000 0.000000
# 4 0.000000 0.000000 0.000000 0.032556 0.000000 0.000000
# 5 0.000000 0.000000 0.000000 0.000000 0.073217 0.000000
# 6 0.000000 0.000000 0.000000 0.000000 0.000000 0.059765
#
#
# Mechanical properties :
#
#
# Convention : Reuss Voigt Hill
#
# Bulk Modulus (GPa) = 20.81722 36.76719 28.79220
# Shear Modulus (GPa) = 17.97988 21.94073 19.96030
#
# Velocity S-wave (km/s) = 3.33261 3.68143 3.51135
# Velocity P-wave (km/s) = 5.25997 6.38607 5.85018
#
# Compressibility (1/GPa) = 0.04803716
#
# Stress axis : x y z
#
# Youngs Moduli (GPa) = 24.63517 61.15723 65.17393
#
# Poissons Ratio (x) = -0.11559 0.36226
# Poissons Ratio (y) = -0.04656 0.55116
# Poissons Ratio (z) = 0.13693 0.51719
#
# Static dielectric constant tensor:
#      x y z
#    x 2.698360 0.000000 0.000000 
#    y 0.000000 3.045430 0.000000 
#    z 0.000000 0.000000 3.434030 
# 
# 
# High freq. dielectric constant tensor:
#      x y z
#    x 1.577600 0.000000 0.000000 
#    y 0.000000 1.617690 0.000000 
#    z 0.000000 0.000000 1.643580 
# 
# From -- ./inp_files/52393.got.cif
#   From: 2010.06.25/outbox.cif.g09.slc.cpg/sg71_27_cif.got.tgz:52393.got - 2010.06.28 04:59:45.
