data_PCOD8288049
_publ_section_title
;
Structure prediction by ZEFSAII (Michael W. Deem and Ramdas Pophale) SiO2 
 PCOD8288049
Probable space group: I M M M
;
_chemical_formula_sum "Si O2"
_cell_formula_units_Z 96
_cell_length_a 13.222942
_cell_length_b 15.743558
_cell_length_c 26.637080
_cell_angle_alpha 90.000000
_cell_angle_beta 90.000000
_cell_angle_gamma 90.000000
_cell_volume 5545.204876
_symmetry_space_group_name_H-M "I M M M"
_symmetry_group_IT_number 71
_symmetry_cell_setting 'orthorhombic'
loop_
_space_group_symop_operation_xyz
x,y,z
-x,-y,z
x,-y,-z
-x,y,-z
-x,-y,-z
x,y,-z
-x,y,z
x,-y,z
1/2+x,1/2+y,1/2+z
1/2-x,1/2-y,1/2+z
1/2+x,1/2-y,1/2-z
1/2-x,1/2+y,1/2-z
1/2-x,1/2-y,1/2-z
1/2+x,1/2+y,1/2-z
1/2-x,1/2+y,1/2+z
1/2+x,1/2-y,1/2+z
loop_
_atom_site_type_symbol
_atom_site_label
_atom_site_fract_x
_atom_site_fract_y
_atom_site_fract_z
Si Si1 0.249812 0.705396 0.129400
Si Si2 0.797110 0.500000 0.557857
Si Si3 0.384119 0.669218 0.691525
Si Si4 0.116906 0.679183 0.557887
Si Si5 0.618985 0.904002 0.443386
Si Si6 0.114340 0.000000 0.870153
Si Si7 0.882765 0.902199 0.701066
O O1 0.191285 0.759557 0.171190
O O2 0.319115 0.762971 0.094604
O O3 0.168131 0.660874 0.094668
O O4 0.317797 0.634334 0.155541
O O5 0.770582 0.500000 0.500000
O O6 0.863034 0.418380 0.572762
O O7 0.687986 0.500000 0.583027
O O8 0.500000 0.699333 0.684425
O O9 0.364342 0.581794 0.663160
O O10 0.359795 0.653456 0.749753
O O11 0.147467 0.696599 0.500000
O O12 0.000000 0.699745 0.566719
O O13 0.654507 0.882864 0.500000
O O14 0.500000 0.892855 0.438896
O O15 0.650851 0.000000 0.429633
O O16 0.000000 0.000000 0.890938
O O17 0.000000 0.895556 0.686253
O O18 0.852361 0.000000 0.710626
#
# Coordination Sequence:
#
# PCOD8288049 Si02
#       7
#    16   8  16  16  16   8  16
#     4  12  20  32  55  83 103 126 173 223 261 289
#     4  10  19  35  54  75 103 144 181 208 248 311
#     4  10  20  35  55  76 105 138 169 208 258 315
#     4  10  21  35  51  73 104 139 174 212 255 306
#     4   9  19  36  55  76 106 141 171 203 254 319
#     4  10  18  34  55  78 106 143 172 204 258 313
#     4  10  21  37  54  74 102 137 174 209 253 313
#
# _framework density 17.312255
#
# number of rings (size 3 to 8) (size 9 to 14) (size 15 to 20)
#    0.000    1.833    2.500    3.250    0.000    1.167 
#    0.000    0.000    0.000    0.000    0.000    7.000 
#    0.000    0.000    0.000    0.000    0.000    0.000 
#
# Total GULP energy -595262.034715 kJ/mol
# GULP energy per Si atom -12401.292390 kJ/mol
# Density = 1.727285 g / cm^3
# Si number density = 17.312255 Si / 1000 Ang^3
#
#
#
# Elastic Constant Matrix: (Units=GPa)
#
#
# Indices 1 2 3 4 5 6 
#
# 1 66.9172 39.8213 42.5933 0.0000 0.0000 0.0000
# 2 39.8213 86.2192 44.0879 0.0000 0.0000 0.0000
# 3 42.5933 44.0879 75.7928 0.0000 0.0000 0.0000
# 4 0.0000 0.0000 0.0000 33.3345 0.0000 0.0000
# 5 0.0000 0.0000 0.0000 0.0000 34.3798 0.0000
# 6 0.0000 0.0000 0.0000 0.0000 0.0000 33.8269
#
#
#
# Elastic Compliance Matrix: (Units=1/GPa)
#
#
# Indices 1 2 3 4 5 6 
#
# 1 0.025482 -0.006329 -0.010638 0.000000 0.000000 0.000000
# 2 -0.006329 0.018081 -0.006961 0.000000 0.000000 0.000000
# 3 -0.010638 -0.006961 0.023221 0.000000 0.000000 0.000000
# 4 0.000000 0.000000 0.000000 0.029999 0.000000 0.000000
# 5 0.000000 0.000000 0.000000 0.000000 0.029087 0.000000
# 6 0.000000 0.000000 0.000000 0.000000 0.000000 0.029562
#
#
# Mechanical properties :
#
#
# Convention : Reuss Voigt Hill
#
# Bulk Modulus (GPa) = 52.83328 53.54826 53.19077
# Shear Modulus (GPa) = 23.85533 27.13671 25.49602
#
# Velocity S-wave (km/s) = 3.71609 3.96344 3.84176
# Velocity P-wave (km/s) = 6.99976 7.20716 7.10422
#
# Compressibility (1/GPa) = 0.01892746
#
# Stress axis : x y z
#
# Youngs Moduli (GPa) = 39.24415 55.30732 43.06400
#
# Poissons Ratio (x) = 0.35004 0.45813
# Poissons Ratio (y) = 0.24838 0.29976
# Poissons Ratio (z) = 0.41749 0.38498
#
# Static dielectric constant tensor:
#      x y z
#    x 3.177610 0.000000 0.000000 
#    y 0.000000 2.652030 0.000000 
#    z 0.000000 0.000000 3.223800 
# 
# 
# High freq. dielectric constant tensor:
#      x y z
#    x 1.669840 0.000000 0.000000 
#    y 0.000000 1.674150 0.000000 
#    z 0.000000 0.000000 1.670920 
# 
# From -- ./inp_files/22593.got.cif
#   From: 2010.06.25/outbox.cif.g09.slc.cpg/sg71_12_cif.got.tgz:22593.got - 2010.06.28 04:59:45.
