data_PCOD8288843
_publ_section_title
;
Structure prediction by ZEFSAII (Michael W. Deem and Ramdas Pophale) SiO2 
 PCOD8288843
Probable space group: I M M M
;
_chemical_formula_sum "Si O2"
_cell_formula_units_Z 88
_cell_length_a 24.941368
_cell_length_b 13.997462
_cell_length_c 12.121617
_cell_angle_alpha 90.000000
_cell_angle_beta 90.000000
_cell_angle_gamma 90.000000
_cell_volume 4231.848632
_symmetry_space_group_name_H-M "I M M M"
_symmetry_group_IT_number 71
_symmetry_cell_setting 'orthorhombic'
loop_
_space_group_symop_operation_xyz
x,y,z
-x,-y,z
x,-y,-z
-x,y,-z
-x,-y,-z
x,y,-z
-x,y,z
x,-y,z
1/2+x,1/2+y,1/2+z
1/2-x,1/2-y,1/2+z
1/2+x,1/2-y,1/2-z
1/2-x,1/2+y,1/2-z
1/2-x,1/2-y,1/2-z
1/2+x,1/2+y,1/2-z
1/2-x,1/2+y,1/2+z
1/2+x,1/2-y,1/2+z
loop_
_atom_site_type_symbol
_atom_site_label
_atom_site_fract_x
_atom_site_fract_y
_atom_site_fract_z
Si Si1 0.147324 0.108477 0.839136
Si Si2 0.557812 0.388377 0.500000
Si Si3 0.303923 0.202872 0.376702
Si Si4 0.439146 0.113297 0.000000
Si Si5 0.195060 0.891952 0.379372
Si Si6 0.500000 0.886705 0.624597
Si Si7 0.397704 0.113332 0.762736
O O1 0.090289 0.140551 0.889667
O O2 0.192199 0.181699 0.883351
O O3 0.145638 0.117273 0.706085
O O4 0.161917 0.000000 0.876621
O O5 0.548007 0.500000 0.500000
O O6 0.500000 0.335666 0.500000
O O7 0.315447 0.160647 0.500000
O O8 0.243686 0.175962 0.341303
O O9 0.344752 0.162798 0.285575
O O10 0.407370 0.146440 0.110339
O O11 0.500000 0.154917 0.000000
O O12 0.443620 0.000000 0.000000
O O13 0.173163 0.863249 0.500000
O O14 0.217483 0.000000 0.379066
O O15 0.500000 0.845392 0.500000
O O16 0.552527 0.850834 0.688927
O O17 0.500000 0.000000 0.622408
O O18 0.390316 0.000000 0.755424
#
# Coordination Sequence:
#
# PCOD8288843 Si02
#       7
#    16   8  16   8  16   8  16
#     4  10  20  38  60  83 112 149 193 238 290 348
#     4   9  18  36  61  85 110 143 187 244 301 341
#     4  11  21  34  53  85 117 148 188 235 285 340
#     4   9  16  32  53  69  98 149 193 227 277 344
#     4   9  19  36  59  84 115 153 187 226 284 351
#     4   9  16  27  45  71 104 143 185 230 281 338
#     4  10  19  32  50  74 107 147 190 235 286 343
#
# _framework density 20.794694
#
# number of rings (size 3 to 8) (size 9 to 14) (size 15 to 20)
#    0.000    2.273    1.818    1.636    0.000    1.818 
#    3.273    0.909    0.000    3.818    0.000    3.818 
#    0.000    0.000    0.000    0.000    0.000    0.000 
#
# Total GULP energy -545256.575435 kJ/mol
# GULP energy per Si atom -12392.194896 kJ/mol
# Density = 2.074736 g / cm^3
# Si number density = 20.794694 Si / 1000 Ang^3
#
#
#
# Elastic Constant Matrix: (Units=GPa)
#
#
# Indices 1 2 3 4 5 6 
#
# 1 109.9661 25.1017 86.2230 0.0000 0.0000 0.0000
# 2 25.1017 60.8493 22.5044 0.0000 0.0000 0.0000
# 3 86.2230 22.5044 190.1788 0.0000 0.0000 0.0000
# 4 0.0000 0.0000 0.0000 15.8912 0.0000 0.0000
# 5 0.0000 0.0000 0.0000 0.0000 32.5890 0.0000
# 6 0.0000 0.0000 0.0000 0.0000 0.0000 7.7791
#
#
#
# Elastic Compliance Matrix: (Units=1/GPa)
#
#
# Indices 1 2 3 4 5 6 
#
# 1 0.014912 -0.003818 -0.006309 0.000000 0.000000 0.000000
# 2 -0.003818 0.018164 -0.000418 0.000000 0.000000 0.000000
# 3 -0.006309 -0.000418 0.008168 0.000000 0.000000 0.000000
# 4 0.000000 0.000000 0.000000 0.062928 0.000000 0.000000
# 5 0.000000 0.000000 0.000000 0.000000 0.030685 0.000000
# 6 0.000000 0.000000 0.000000 0.000000 0.000000 0.128550
#
#
# Mechanical properties :
#
#
# Convention : Reuss Voigt Hill
#
# Bulk Modulus (GPa) = 49.62048 69.85025 59.73537
# Shear Modulus (GPa) = 17.16939 26.39620 21.78280
#
# Velocity S-wave (km/s) = 2.87655 3.56669 3.24005
# Velocity P-wave (km/s) = 5.91157 7.11513 6.54109
#
# Compressibility (1/GPa) = 0.02015297
#
# Stress axis : x y z
#
# Youngs Moduli (GPa) = 67.05962 55.05441 122.42797
#
# Poissons Ratio (x) = 0.21021 0.77240
# Poissons Ratio (y) = 0.25605 0.05121
# Poissons Ratio (z) = 0.42308 0.02303
#
# Static dielectric constant tensor:
#      x y z
#    x 3.551810 0.000000 0.000000 
#    y 0.000000 3.681740 0.000000 
#    z 0.000000 0.000000 4.193570 
# 
# 
# High freq. dielectric constant tensor:
#      x y z
#    x 1.782060 0.000000 0.000000 
#    y 0.000000 1.803170 0.000000 
#    z 0.000000 0.000000 1.831670 
# 
# From -- ./inp_files/28658.got.cif
#   From: 2010.06.25/outbox.cif.g09.slc.cpg/sg71_15_cif.got.tgz:28658.got - 2010.06.28 04:59:45.
