data_PCOD8288793
_publ_section_title
;
Structure prediction by ZEFSAII (Michael W. Deem and Ramdas Pophale) SiO2 
 PCOD8288793
Probable space group: I M M M
;
_chemical_formula_sum "Si O2"
_cell_formula_units_Z 88
_cell_length_a 15.322702
_cell_length_b 18.383501
_cell_length_c 17.310925
_cell_angle_alpha 90.000000
_cell_angle_beta 90.000000
_cell_angle_gamma 90.000000
_cell_volume 4876.226308
_symmetry_space_group_name_H-M "I M M M"
_symmetry_group_IT_number 71
_symmetry_cell_setting 'orthorhombic'
loop_
_space_group_symop_operation_xyz
x,y,z
-x,-y,z
x,-y,-z
-x,y,-z
-x,-y,-z
x,y,-z
-x,y,z
x,-y,z
1/2+x,1/2+y,1/2+z
1/2-x,1/2-y,1/2+z
1/2+x,1/2-y,1/2-z
1/2-x,1/2+y,1/2-z
1/2-x,1/2-y,1/2-z
1/2+x,1/2+y,1/2-z
1/2-x,1/2+y,1/2+z
1/2+x,1/2-y,1/2+z
loop_
_atom_site_type_symbol
_atom_site_label
_atom_site_fract_x
_atom_site_fract_y
_atom_site_fract_z
Si Si1 0.100175 0.821015 0.089235
Si Si2 0.000000 0.086355 0.585989
Si Si3 0.649444 0.844555 0.412503
Si Si4 0.768804 0.081550 0.186331
Si Si5 0.904133 0.584898 0.242134
Si Si6 0.681615 0.582253 0.861020
O O1 0.133863 0.739969 0.102476
O O2 0.169302 0.871877 0.131968
O O3 0.000000 0.829865 0.120018
O O4 0.102645 0.842826 0.000000
O O5 0.086694 0.116952 0.625746
O O6 0.000000 0.115710 0.500000
O O7 0.000000 0.000000 0.591496
O O8 0.617619 0.864826 0.500000
O O9 0.597069 0.886042 0.345663
O O10 0.750992 0.864769 0.404039
O O11 0.670442 0.115623 0.199168
O O12 0.809937 0.080348 0.270147
O O13 0.764004 0.000000 0.151359
O O14 0.884235 0.500000 0.233671
O O15 0.000000 0.600787 0.277454
O O16 0.691091 0.500000 0.895015
#
# Coordination Sequence:
#
# PCOD8288793 Si02
#       6
#    16   8  16  16  16  16
#     4  10  22  37  53  75 101 131 168 212 265 313
#     4   9  16  26  42  68 103 137 170 208 245 284
#     4  10  19  32  49  70 104 142 172 206 246 295
#     4   9  19  35  55  75  98 128 165 214 262 308
#     4   9  18  32  51  78 107 134 167 203 243 295
#     4   9  18  30  48  76 103 136 177 209 245 298
#
# _framework density 18.046742999999999
#
# number of rings (size 3 to 8) (size 9 to 14) (size 15 to 20)
#    0.000    2.636    0.000    2.727    1.273    6.909 
#    0.000    1.818    2.000    0.545    0.000    2.545 
#    0.000    0.000    0.000    0.000    0.000    0.000 
#
# Total GULP energy -545139.224514 kJ/mol
# GULP energy per Si atom -12389.527830 kJ/mol
# Density = 1.800567 g / cm^3
# Si number density = 18.046743 Si / 1000 Ang^3
#
#
#
# Elastic Constant Matrix: (Units=GPa)
#
#
# Indices 1 2 3 4 5 6 
#
# 1 183.4597 55.5790 51.1568 0.0000 0.0000 0.0000
# 2 55.5790 59.6253 35.0732 0.0000 0.0000 0.0000
# 3 51.1568 35.0732 53.1417 0.0000 0.0000 0.0000
# 4 0.0000 0.0000 0.0000 21.8904 0.0000 0.0000
# 5 0.0000 0.0000 0.0000 0.0000 20.8643 0.0000
# 6 0.0000 0.0000 0.0000 0.0000 0.0000 19.7425
#
#
#
# Elastic Compliance Matrix: (Units=1/GPa)
#
#
# Indices 1 2 3 4 5 6 
#
# 1 0.008253 -0.004936 -0.004687 0.000000 0.000000 0.000000
# 2 -0.004936 0.030366 -0.015290 0.000000 0.000000 0.000000
# 3 -0.004687 -0.015290 0.033421 0.000000 0.000000 0.000000
# 4 0.000000 0.000000 0.000000 0.045682 0.000000 0.000000
# 5 0.000000 0.000000 0.000000 0.000000 0.047929 0.000000
# 6 0.000000 0.000000 0.000000 0.000000 0.000000 0.050652
#
#
# Mechanical properties :
#
#
# Convention : Reuss Voigt Hill
#
# Bulk Modulus (GPa) = 45.01613 64.42718 54.72165
# Shear Modulus (GPa) = 18.27921 22.79395 20.53658
#
# Velocity S-wave (km/s) = 3.18603 3.55780 3.37703
# Velocity P-wave (km/s) = 6.20747 7.25637 6.75232
#
# Compressibility (1/GPa) = 0.02221426
#
# Stress axis : x y z
#
# Youngs Moduli (GPa) = 121.16622 32.93112 29.92123
#
# Poissons Ratio (x) = 0.16255 0.14025
# Poissons Ratio (y) = 0.59807 0.45750
# Poissons Ratio (z) = 0.56793 0.50352
#
# Static dielectric constant tensor:
#      x y z
#    x 3.775220 0.000000 0.000000 
#    y 0.000000 3.160830 0.000000 
#    z 0.000000 0.000000 3.174770 
# 
# 
# High freq. dielectric constant tensor:
#      x y z
#    x 1.719920 0.000000 0.000000 
#    y 0.000000 1.671820 0.000000 
#    z 0.000000 0.000000 1.678980 
# 
# From -- ./inp_files/37740.got.cif
#   From: 2010.06.25/outbox.cif.g09.slc.cpg/sg71_19_cif.got.tgz:37740.got - 2010.06.28 04:59:45.
