data_PCOD8288564
_publ_section_title
;
Structure prediction by ZEFSAII (Michael W. Deem and Ramdas Pophale) SiO2 
 PCOD8288564
Probable space group: I M M M
;
_chemical_formula_sum "Si O2"
_cell_formula_units_Z 80
_cell_length_a 7.822866
_cell_length_b 28.522305
_cell_length_c 20.646082
_cell_angle_alpha 90.000000
_cell_angle_beta 90.000000
_cell_angle_gamma 90.000000
_cell_volume 4606.681203
_symmetry_space_group_name_H-M "I M M M"
_symmetry_group_IT_number 71
_symmetry_cell_setting 'orthorhombic'
loop_
_space_group_symop_operation_xyz
x,y,z
-x,-y,z
x,-y,-z
-x,y,-z
-x,-y,-z
x,y,-z
-x,y,z
x,-y,z
1/2+x,1/2+y,1/2+z
1/2-x,1/2-y,1/2+z
1/2+x,1/2-y,1/2-z
1/2-x,1/2+y,1/2-z
1/2-x,1/2-y,1/2-z
1/2+x,1/2+y,1/2-z
1/2-x,1/2+y,1/2+z
1/2+x,1/2-y,1/2+z
loop_
_atom_site_type_symbol
_atom_site_label
_atom_site_fract_x
_atom_site_fract_y
_atom_site_fract_z
Si Si1 0.190266 0.855976 0.905396
Si Si2 0.500000 0.079522 0.931319
Si Si3 0.196858 0.745527 0.428408
Si Si4 0.190161 0.881089 0.238384
Si Si5 0.305597 0.209236 0.299133
Si Si6 0.000000 0.446925 0.285577
O O1 0.330116 0.889427 0.936395
O O2 0.209934 0.804077 0.932207
O O3 0.216383 0.853987 0.828672
O O4 0.000000 0.874476 0.923312
O O5 0.500000 0.050503 0.864498
O O6 0.500000 0.050085 0.000000
O O7 0.215267 0.768979 0.500000
O O8 0.283960 0.777276 0.374060
O O9 0.000000 0.737809 0.409502
O O10 0.206052 0.839852 0.291080
O O11 0.331532 0.921971 0.243470
O O12 0.000000 0.903693 0.244205
O O13 0.500000 0.198044 0.283525
O O14 0.250000 0.250000 0.250000
O O15 0.000000 0.500000 0.260028
#
# Coordination Sequence:
#
# PCOD8288564 Si02
#       6
#    16   8  16  16  16   8
#     4  10  19  31  48  70 100 140 181 223 263 311
#     4  10  20  33  50  72 102 137 179 228 278 322
#     4  11  22  33  46  70 108 148 187 223 262 312
#     4  10  20  36  55  79 105 135 179 225 274 327
#     4  12  22  33  52  78 109 147 186 224 267 325
#     4  10  22  39  58  78 103 134 180 237 285 328
#
# _framework density 17.366081000000001
#
# number of rings (size 3 to 8) (size 9 to 14) (size 15 to 20)
#    0.000    1.400    4.000    3.000    0.000    3.400 
#    0.000    0.000    0.000    0.000    0.000    5.600 
#    0.000    1.600    0.000    4.200    0.000    0.000 
#
# Total GULP energy -495799.599638 kJ/mol
# GULP energy per Si atom -12394.989991 kJ/mol
# Density = 1.732656 g / cm^3
# Si number density = 17.366081 Si / 1000 Ang^3
#
#
#
# Elastic Constant Matrix: (Units=GPa)
#
#
# Indices 1 2 3 4 5 6 
#
# 1 128.0032 34.6603 13.3748 0.0000 0.0000 0.0000
# 2 34.6603 87.9650 26.3891 0.0000 0.0000 0.0000
# 3 13.3748 26.3891 67.1315 0.0000 0.0000 0.0000
# 4 0.0000 0.0000 0.0000 0.4832 0.0000 0.0000
# 5 0.0000 0.0000 0.0000 0.0000 19.4955 0.0000
# 6 0.0000 0.0000 0.0000 0.0000 0.0000 15.1348
#
#
#
# Elastic Compliance Matrix: (Units=1/GPa)
#
#
# Indices 1 2 3 4 5 6 
#
# 1 0.008757 -0.003318 -0.000440 0.000000 0.000000 0.000000
# 2 -0.003318 0.014145 -0.004899 0.000000 0.000000 0.000000
# 3 -0.000440 -0.004899 0.016910 0.000000 0.000000 0.000000
# 4 0.000000 0.000000 0.000000 2.069666 0.000000 0.000000
# 5 0.000000 0.000000 0.000000 0.000000 0.051294 0.000000
# 6 0.000000 0.000000 0.000000 0.000000 0.000000 0.066073
#
#
# Mechanical properties :
#
#
# Convention : Reuss Voigt Hill
#
# Bulk Modulus (GPa) = 44.45204 47.99424 46.22314
# Shear Modulus (GPa) = 2.22058 20.93439 11.57749
#
# Velocity S-wave (km/s) = 1.13202 3.47576 2.58480
# Velocity P-wave (km/s) = 5.23080 6.61851 5.96514
#
# Compressibility (1/GPa) = 0.02249615
#
# Stress axis : x y z
#
# Youngs Moduli (GPa) = 114.19653 70.69402 59.13734
#
# Poissons Ratio (x) = 0.23459 0.02603
# Poissons Ratio (y) = 0.37894 0.28974
# Poissons Ratio (z) = 0.05027 0.34636
#
# Static dielectric constant tensor:
#      x y z
#    x 3.525370 0.000000 0.000000 
#    y 0.000000 2.810020 0.000000 
#    z 0.000000 0.000000 3.295580 
# 
# 
# High freq. dielectric constant tensor:
#      x y z
#    x 1.696240 0.000000 0.000000 
#    y 0.000000 1.620010 0.000000 
#    z 0.000000 0.000000 1.658370 
# 
# From -- ./inp_files/42387.got.cif
#   From: 2010.06.25/outbox.cif.g09.slc.cpg/sg71_22_cif.got.tgz:42387.got - 2010.06.28 04:59:45.
