data_PCOD8288233
_publ_section_title
;
Structure prediction by ZEFSAII (Michael W. Deem and Ramdas Pophale) SiO2 
 PCOD8288233
Probable space group: I M M M
;
_chemical_formula_sum "Si O2"
_cell_formula_units_Z 112
_cell_length_a 14.615839
_cell_length_b 29.869311
_cell_length_c 14.463610
_cell_angle_alpha 90.000000
_cell_angle_beta 90.000000
_cell_angle_gamma 90.000000
_cell_volume 6314.306487
_symmetry_space_group_name_H-M "I M M M"
_symmetry_group_IT_number 71
_symmetry_cell_setting 'orthorhombic'
loop_
_space_group_symop_operation_xyz
x,y,z
-x,-y,z
x,-y,-z
-x,y,-z
-x,-y,-z
x,y,-z
-x,y,z
x,-y,z
1/2+x,1/2+y,1/2+z
1/2-x,1/2-y,1/2+z
1/2+x,1/2-y,1/2-z
1/2-x,1/2+y,1/2-z
1/2-x,1/2-y,1/2-z
1/2+x,1/2+y,1/2-z
1/2-x,1/2+y,1/2+z
1/2+x,1/2-y,1/2+z
loop_
_atom_site_type_symbol
_atom_site_label
_atom_site_fract_x
_atom_site_fract_y
_atom_site_fract_z
Si Si1 0.710824 0.876699 0.777042
Si Si2 0.853828 0.781395 0.603664
Si Si3 0.398091 0.666331 0.725213
Si Si4 0.099226 0.314966 0.397763
Si Si5 0.898060 0.649515 0.894095
Si Si6 0.394769 0.948239 0.893298
Si Si7 0.152947 0.747536 0.893320
O O1 0.820918 0.872249 0.789078
O O2 0.669967 0.832231 0.823105
O O3 0.676010 0.875878 0.670707
O O4 0.674489 0.920621 0.828961
O O5 0.850544 0.800980 0.500000
O O6 0.893285 0.820283 0.667399
O O7 0.917207 0.737878 0.611074
O O8 0.754580 0.765535 0.637622
O O9 0.500000 0.646863 0.704108
O O10 0.383640 0.710830 0.664855
O O11 0.137285 0.326739 0.500000
O O12 0.000000 0.338101 0.382749
O O13 0.905876 0.702815 0.875231
O O14 0.000000 0.629918 0.876213
O O15 0.866796 0.640983 0.000000
O O16 0.500000 0.938643 0.865684
O O17 0.371317 0.000000 0.877926
O O18 0.378882 0.934718 0.000000
O O19 0.149494 0.762554 0.000000
#
# Coordination Sequence:
#
# PCOD8288233 Si02
#       7
#    16  16  16  16  16  16  16
#     4  12  21  33  52  74 101 133 165 209 256 301
#     4  10  19  34  50  65  94 137 180 224 266 297
#     4  12  24  34  47  69  99 139 185 224 256 291
#     4  10  19  29  46  73  99 126 164 211 263 311
#     4  10  20  32  48  71  99 135 176 212 249 298
#     4   9  19  37  62  90 112 127 148 186 247 322
#     4  10  19  34  49  63  94 141 182 217 257 297
#
# _framework density 17.737497999999999
#
# number of rings (size 3 to 8) (size 9 to 14) (size 15 to 20)
#    0.000    1.571    2.857    4.286    0.000    3.429 
#    0.000    0.000    0.000    0.857    0.000    3.000 
#    0.000    0.000    0.000    2.571    0.000    0.143 
#
# Total GULP energy -694114.666913 kJ/mol
# GULP energy per Si atom -12394.904766 kJ/mol
# Density = 1.769713 g / cm^3
# Si number density = 17.737498 Si / 1000 Ang^3
#
#
#
# Elastic Constant Matrix: (Units=GPa)
#
#
# Indices 1 2 3 4 5 6 
#
# 1 125.1815 32.5273 41.0233 -0.0001 0.0000 0.0000
# 2 32.5273 63.1800 29.8336 -0.0001 0.0000 0.0000
# 3 41.0233 29.8336 90.3087 0.0000 0.0015 0.0000
# 4 -0.0001 -0.0001 0.0000 20.5650 0.0001 0.0000
# 5 0.0000 0.0000 0.0015 0.0001 16.8854 -0.0001
# 6 0.0000 0.0000 0.0000 0.0000 -0.0001 15.8118
#
#
#
# Elastic Compliance Matrix: (Units=1/GPa)
#
#
# Indices 1 2 3 4 5 6 
#
# 1 0.010021 -0.003566 -0.003374 0.000000 0.000000 0.000000
# 2 -0.003566 0.020022 -0.004995 0.000000 0.000000 0.000000
# 3 -0.003374 -0.004995 0.014256 0.000000 -0.000001 0.000000
# 4 0.000000 0.000000 0.000000 0.048626 0.000000 0.000000
# 5 0.000000 0.000000 -0.000001 0.000000 0.059223 0.000000
# 6 0.000000 0.000000 0.000000 0.000000 0.000000 0.063244
#
#
# Mechanical properties :
#
#
# Convention : Reuss Voigt Hill
#
# Bulk Modulus (GPa) = 48.94811 53.93763 51.44287
# Shear Modulus (GPa) = 20.31943 22.33817 21.32880
#
# Velocity S-wave (km/s) = 3.38829 3.55262 3.47143
# Velocity P-wave (km/s) = 6.55462 6.87771 6.71811
#
# Compressibility (1/GPa) = 0.02042980
#
# Stress axis : x y z
#
# Youngs Moduli (GPa) = 99.79424 49.94508 70.14727
#
# Poissons Ratio (x) = 0.17809 0.23667
# Poissons Ratio (y) = 0.35584 0.35035
# Poissons Ratio (z) = 0.33670 0.24945
#
# Static dielectric constant tensor:
#      x y z
#    x 3.515710 0.000000 0.000000 
#    y 0.000000 2.807350 0.000000 
#    z 0.000000 0.000000 3.431750 
# 
# 
# High freq. dielectric constant tensor:
#      x y z
#    x 1.686840 0.000000 0.000000 
#    y 0.000000 1.617760 0.000000 
#    z 0.000000 0.000000 1.698450 
# 
# From -- ./inp_files/35364.got.cif
#   From: 2010.06.25/outbox.cif.g09.slc.cpg/sg71_18_cif.got.tgz:35364.got - 2010.06.28 04:59:45.
