data_PCOD8288554
_publ_section_title
;
Structure prediction by ZEFSAII (Michael W. Deem and Ramdas Pophale) SiO2 
 PCOD8288554
Probable space group: I M M M
;
_chemical_formula_sum "Si O2"
_cell_formula_units_Z 72
_cell_length_a 8.708028
_cell_length_b 19.085565
_cell_length_c 27.590328
_cell_angle_alpha 90.000000
_cell_angle_beta 90.000000
_cell_angle_gamma 90.000000
_cell_volume 4585.447246
_symmetry_space_group_name_H-M "I M M M"
_symmetry_group_IT_number 71
_symmetry_cell_setting 'orthorhombic'
loop_
_space_group_symop_operation_xyz
x,y,z
-x,-y,z
x,-y,-z
-x,y,-z
-x,-y,-z
x,y,-z
-x,y,z
x,-y,z
1/2+x,1/2+y,1/2+z
1/2-x,1/2-y,1/2+z
1/2+x,1/2-y,1/2-z
1/2-x,1/2+y,1/2-z
1/2-x,1/2-y,1/2-z
1/2+x,1/2+y,1/2-z
1/2-x,1/2+y,1/2+z
1/2+x,1/2-y,1/2+z
loop_
_atom_site_type_symbol
_atom_site_label
_atom_site_fract_x
_atom_site_fract_y
_atom_site_fract_z
Si Si1 0.820627 0.357394 0.272177
Si Si2 0.678693 0.000000 0.339610
Si Si3 0.321054 0.500000 0.264554
Si Si4 0.677830 0.619411 0.901071
Si Si5 0.176167 0.785285 0.316373
Si Si6 0.182104 0.582458 0.000000
O O1 0.743636 0.429682 0.289678
O O2 0.769391 0.294976 0.308663
O O3 0.772718 0.337972 0.217326
O O4 0.000000 0.370338 0.272946
O O5 0.717453 0.066310 0.371850
O O6 0.500000 0.000000 0.325340
O O7 0.780331 0.000000 0.291868
O O8 0.500000 0.500000 0.271708
O O9 0.500000 0.595340 0.902495
O O10 0.694553 0.693864 0.872953
O O11 0.745148 0.623560 0.954807
O O12 0.000000 0.792862 0.299384
O O13 0.228047 0.500000 0.000000
O O14 0.000000 0.591077 0.000000
#
# Coordination Sequence:
#
# PCOD8288554 Si02
#       6
#    16   8   8  16  16   8
#     4  10  19  31  48  69  93 123 157 194 236 280
#     4  12  22  31  45  68  92 124 162 199 238 281
#     4  12  22  32  45  67  96 127 163 200 233 275
#     4  11  21  34  51  68  91 124 160 199 241 282
#     4   9  19  33  48  68  94 122 155 195 238 284
#     4  11  23  35  47  67  96 125 162 203 234 270
#
# _framework density 15.701848
#
# number of rings (size 3 to 8) (size 9 to 14) (size 15 to 20)
#    0.000    1.444    3.333    3.667    0.000    2.222 
#    0.000    0.000    0.000    0.000    0.000    0.000 
#    0.000    0.889    0.000   10.222    0.000    4.000 
#
# Total GULP energy -446353.640267 kJ/mol
# GULP energy per Si atom -12398.712230 kJ/mol
# Density = 1.566611 g / cm^3
# Si number density = 15.701848 Si / 1000 Ang^3
#
#
#
# Elastic Constant Matrix: (Units=GPa)
#
#
# Indices 1 2 3 4 5 6 
#
# 1 76.8078 42.0887 19.0587 0.0000 0.0000 0.0000
# 2 42.0887 116.3440 41.7760 0.0000 0.0000 0.0000
# 3 19.0587 41.7760 79.1968 0.0000 0.0000 0.0000
# 4 0.0000 0.0000 0.0000 2.6775 0.0000 0.0000
# 5 0.0000 0.0000 0.0000 0.0000 21.1987 0.0000
# 6 0.0000 0.0000 0.0000 0.0000 0.0000 22.7015
#
#
#
# Elastic Compliance Matrix: (Units=1/GPa)
#
#
# Indices 1 2 3 4 5 6 
#
# 1 0.016303 -0.005538 -0.001002 0.000000 0.000000 0.000000
# 2 -0.005538 0.012485 -0.005253 0.000000 0.000000 0.000000
# 3 -0.001002 -0.005253 0.015639 0.000000 0.000000 0.000000
# 4 0.000000 0.000000 0.000000 0.373478 0.000000 0.000000
# 5 0.000000 0.000000 0.000000 0.000000 0.047173 0.000000
# 6 0.000000 0.000000 0.000000 0.000000 0.000000 0.044050
#
#
# Mechanical properties :
#
#
# Convention : Reuss Voigt Hill
#
# Bulk Modulus (GPa) = 47.98334 53.13282 50.55808
# Shear Modulus (GPa) = 9.26509 20.61057 14.93783
#
# Velocity S-wave (km/s) = 2.43176 3.62694 3.08773
# Velocity P-wave (km/s) = 6.20564 7.17298 6.70677
#
# Compressibility (1/GPa) = 0.02084057
#
# Stress axis : x y z
#
# Youngs Moduli (GPa) = 61.33925 80.09739 63.94338
#
# Poissons Ratio (x) = 0.44357 0.06407
# Poissons Ratio (y) = 0.33969 0.33589
# Poissons Ratio (z) = 0.06146 0.42075
#
# Static dielectric constant tensor:
#      x y z
#    x 3.101300 0.000000 0.000000 
#    y 0.000000 3.243270 0.000000 
#    z 0.000000 0.000000 2.877040 
# 
# 
# High freq. dielectric constant tensor:
#      x y z
#    x 1.620550 0.000000 0.000000 
#    y 0.000000 1.593850 0.000000 
#    z 0.000000 0.000000 1.565920 
# 
# From -- ./inp_files/48559.got.cif
#   From: 2010.06.25/outbox.cif.g09.slc.cpg/sg71_25_cif.got.tgz:48559.got - 2010.06.28 04:59:45.
