data_PCOD8288627
_publ_section_title
;
Structure prediction by ZEFSAII (Michael W. Deem and Ramdas Pophale) SiO2 
 PCOD8288627
Probable space group: I M M M
;
_chemical_formula_sum "Si O2"
_cell_formula_units_Z 88
_cell_length_a 8.648083
_cell_length_b 18.450183
_cell_length_c 28.768192
_cell_angle_alpha 90.000000
_cell_angle_beta 90.000000
_cell_angle_gamma 90.000000
_cell_volume 4590.215718
_symmetry_space_group_name_H-M "I M M M"
_symmetry_group_IT_number 71
_symmetry_cell_setting 'orthorhombic'
loop_
_space_group_symop_operation_xyz
x,y,z
-x,-y,z
x,-y,-z
-x,y,-z
-x,-y,-z
x,y,-z
-x,y,z
x,-y,z
1/2+x,1/2+y,1/2+z
1/2-x,1/2-y,1/2+z
1/2+x,1/2-y,1/2-z
1/2-x,1/2+y,1/2-z
1/2-x,1/2-y,1/2-z
1/2+x,1/2+y,1/2-z
1/2-x,1/2+y,1/2+z
1/2+x,1/2-y,1/2+z
loop_
_atom_site_type_symbol
_atom_site_label
_atom_site_fract_x
_atom_site_fract_y
_atom_site_fract_z
Si Si1 0.183753 0.419983 0.052204
Si Si2 0.184445 0.289073 0.885554
Si Si3 0.316847 0.079354 0.207483
Si Si4 0.681874 0.500000 0.445634
Si Si5 0.682293 0.188997 0.281847
Si Si6 0.816465 0.635746 0.390658
O O1 0.237672 0.500000 0.069949
O O2 0.250498 0.355754 0.084082
O O3 0.000000 0.416976 0.053015
O O4 0.244922 0.407485 0.000000
O O5 0.248718 0.305187 0.833767
O O6 0.250972 0.213968 0.905987
O O7 0.000000 0.285224 0.887047
O O8 0.500000 0.073868 0.204269
O O9 0.266918 0.114577 0.256518
O O10 0.258545 0.123675 0.162429
O O11 0.240976 0.000000 0.205830
O O12 0.500000 0.500000 0.436862
O O13 0.723020 0.500000 0.500000
O O14 0.752506 0.572415 0.423349
O O15 0.500000 0.196923 0.283228
O O16 0.750000 0.250000 0.250000
O O17 0.000000 0.635728 0.394937
#
# Coordination Sequence:
#
# PCOD8288627 Si02
#       6
#    16  16  16   8  16  16
#     4   8  15  30  52  77 106 139 175 220 276 332
#     4  10  20  32  52  84 114 143 184 235 283 331
#     4   9  17  31  51  74 100 137 182 224 270 320
#     4  11  25  43  61  83 113 145 183 239 294 333
#     4  10  19  31  49  74 105 139 177 221 268 320
#     4  11  21  36  58  81 108 148 190 227 274 336
#
# _framework density 19.171213000000002
#
# number of rings (size 3 to 8) (size 9 to 14) (size 15 to 20)
#    0.000    2.273    2.727    1.364    0.000    2.182 
#    0.000    5.455    0.000    0.545    0.000    3.818 
#    0.000    0.000    0.000    0.000    0.000    0.000 
#
# Total GULP energy -545375.785696 kJ/mol
# GULP energy per Si atom -12394.904220 kJ/mol
# Density = 1.912758 g / cm^3
# Si number density = 19.171213 Si / 1000 Ang^3
#
#
#
# Elastic Constant Matrix: (Units=GPa)
#
#
# Indices 1 2 3 4 5 6 
#
# 1 31.6223 28.4295 26.9232 0.0000 0.0000 0.0000
# 2 28.4295 194.5685 90.6147 0.0000 0.0000 0.0000
# 3 26.9232 90.6147 129.3941 0.0000 0.0000 0.0000
# 4 0.0000 0.0000 0.0000 37.2797 0.0000 0.0000
# 5 0.0000 0.0000 0.0000 0.0000 19.0852 0.0000
# 6 0.0000 0.0000 0.0000 0.0000 0.0000 19.0026
#
#
#
# Elastic Compliance Matrix: (Units=1/GPa)
#
#
# Indices 1 2 3 4 5 6 
#
# 1 0.039493 -0.002884 -0.006198 0.000000 0.000000 0.000000
# 2 -0.002884 0.007838 -0.004889 0.000000 0.000000 0.000000
# 3 -0.006198 -0.004889 0.012441 0.000000 0.000000 0.000000
# 4 0.000000 0.000000 0.000000 0.026824 0.000000 0.000000
# 5 0.000000 0.000000 0.000000 0.000000 0.052397 0.000000
# 6 0.000000 0.000000 0.000000 0.000000 0.000000 0.052624
#
#
# Mechanical properties :
#
#
# Convention : Reuss Voigt Hill
#
# Bulk Modulus (GPa) = 31.41572 71.94664 51.68118
# Shear Modulus (GPa) = 21.72323 29.04801 25.38562
#
# Velocity S-wave (km/s) = 3.36983 3.89677 3.64284
# Velocity P-wave (km/s) = 5.61814 7.60633 6.68655
#
# Compressibility (1/GPa) = 0.03183120
#
# Stress axis : x y z
#
# Youngs Moduli (GPa) = 25.32105 127.58755 80.37689
#
# Poissons Ratio (x) = 0.36799 0.49814
# Poissons Ratio (y) = 0.07303 0.39294
# Poissons Ratio (z) = 0.15693 0.62373
#
# Static dielectric constant tensor:
#      x y z
#    x 3.117950 0.000000 0.000000 
#    y 0.000000 4.945670 0.000000 
#    z 0.000000 0.000000 4.589640 
# 
# 
# High freq. dielectric constant tensor:
#      x y z
#    x 1.705490 0.000000 0.000000 
#    y 0.000000 1.762010 0.000000 
#    z 0.000000 0.000000 1.746160 
# 
# From -- ./inp_files/49253.got.cif
#   From: 2010.06.25/outbox.cif.g09.slc.cpg/sg71_25_cif.got.tgz:49253.got - 2010.06.28 04:59:45.
