data_PCOD8288499
_publ_section_title
;
Structure prediction by ZEFSAII (Michael W. Deem and Ramdas Pophale) SiO2 
 PCOD8288499
Probable space group: I M M M
;
_chemical_formula_sum "Si O2"
_cell_formula_units_Z 120
_cell_length_a 27.655114
_cell_length_b 9.880492
_cell_length_c 25.975340
_cell_angle_alpha 90.000000
_cell_angle_beta 90.000000
_cell_angle_gamma 90.000000
_cell_volume 7097.661199
_symmetry_space_group_name_H-M "I M M M"
_symmetry_group_IT_number 71
_symmetry_cell_setting 'orthorhombic'
loop_
_space_group_symop_operation_xyz
x,y,z
-x,-y,z
x,-y,-z
-x,y,-z
-x,-y,-z
x,y,-z
-x,y,z
x,-y,z
1/2+x,1/2+y,1/2+z
1/2-x,1/2-y,1/2+z
1/2+x,1/2-y,1/2-z
1/2-x,1/2+y,1/2-z
1/2-x,1/2-y,1/2-z
1/2+x,1/2+y,1/2-z
1/2-x,1/2+y,1/2+z
1/2+x,1/2-y,1/2+z
loop_
_atom_site_type_symbol
_atom_site_label
_atom_site_fract_x
_atom_site_fract_y
_atom_site_fract_z
Si Si1 0.946224 0.661860 0.290656
Si Si2 0.053321 0.848587 0.938841
Si Si3 0.698966 0.156379 0.846494
Si Si4 0.099346 0.659248 0.394991
Si Si5 0.055211 0.661442 0.500000
Si Si6 0.148475 0.657254 0.760375
Si Si7 0.709703 0.842962 0.644889
Si Si8 0.865041 0.346607 0.941365
O O1 0.943998 0.500000 0.291472
O O2 0.932882 0.716700 0.347746
O O3 0.905640 0.717361 0.250260
O O4 0.000000 0.713176 0.275263
O O5 0.092695 0.744960 0.916576
O O6 0.000000 0.811230 0.917348
O O7 0.067579 0.000000 0.921583
O O8 0.052311 0.837949 0.000000
O O9 0.655710 0.192691 0.885807
O O10 0.682258 0.184835 0.788463
O O11 0.742463 0.255177 0.859378
O O12 0.714861 0.000000 0.852949
O O13 0.091511 0.500000 0.396467
O O14 0.081673 0.721778 0.449247
O O15 0.058100 0.500000 0.500000
O O16 0.000000 0.711058 0.500000
O O17 0.141867 0.500000 0.770795
O O18 0.174619 0.718867 0.810619
O O19 0.683794 0.826617 0.590249
O O20 0.722912 0.000000 0.656212
O O21 0.883817 0.500000 0.937762
O O22 0.853341 0.304849 0.000000
#
# Coordination Sequence:
#
# PCOD8288499 Si02
#       8
#    16  16  16  16   8  16  16  16
#     4   8  12  20  36  57  83 113 139 165 208 262
#     4   8  14  26  45  66  85 107 138 175 211 251
#     4   9  17  30  46  64  87 113 142 178 222 262
#     4   8  14  23  35  56  86 116 144 174 206 250
#     4   9  14  20  34  58  91 125 147 167 206 257
#     4   8  15  27  43  63  86 110 139 179 219 256
#     4  10  19  31  46  63  84 112 148 187 222 257
#     4   9  18  31  44  60  85 114 143 177 217 261
#
# _framework density 16.906977999999999
#
# number of rings (size 3 to 8) (size 9 to 14) (size 15 to 20)
#    0.000    3.400    0.000    2.800    0.000    2.400 
#    1.200    2.000    0.000    2.400    0.000    0.000 
#    0.000   18.133    0.000    0.000    0.000    0.000 
#
# Total GULP energy -743504.015737 kJ/mol
# GULP energy per Si atom -12391.733596 kJ/mol
# Density = 1.686850 g / cm^3
# Si number density = 16.906978 Si / 1000 Ang^3
#
#
#
# Elastic Constant Matrix: (Units=GPa)
#
#
# Indices 1 2 3 4 5 6 
#
# 1 138.2919 50.8360 51.2838 0.0000 0.0000 0.0000
# 2 50.8360 43.9583 19.9037 0.0000 0.0000 0.0000
# 3 51.2838 19.9037 78.2932 0.0000 0.0000 0.0000
# 4 0.0000 0.0000 0.0000 9.7498 0.0000 0.0000
# 5 0.0000 0.0000 0.0000 0.0000 17.1024 0.0000
# 6 0.0000 0.0000 0.0000 0.0000 0.0000 23.3346
#
#
#
# Elastic Compliance Matrix: (Units=1/GPa)
#
#
# Indices 1 2 3 4 5 6 
#
# 1 0.014712 -0.014296 -0.006003 0.000000 0.000000 0.000000
# 2 -0.014296 0.039600 -0.000703 0.000000 0.000000 0.000000
# 3 -0.006003 -0.000703 0.016883 0.000000 0.000000 0.000000
# 4 0.000000 0.000000 0.000000 0.102566 0.000000 0.000000
# 5 0.000000 0.000000 0.000000 0.000000 0.058471 0.000000
# 6 0.000000 0.000000 0.000000 0.000000 0.000000 0.042855
#
#
# Mechanical properties :
#
#
# Convention : Reuss Voigt Hill
#
# Bulk Modulus (GPa) = 34.25565 56.06560 45.16063
# Shear Modulus (GPa) = 15.29886 19.27203 17.28545
#
# Velocity S-wave (km/s) = 3.01139 3.37988 3.20094
# Velocity P-wave (km/s) = 5.69180 6.96166 6.35851
#
# Compressibility (1/GPa) = 0.02919226
#
# Stress axis : x y z
#
# Youngs Moduli (GPa) = 67.97002 25.25243 59.23147
#
# Poissons Ratio (x) = 0.36102 0.35554
# Poissons Ratio (y) = 0.97173 0.04162
# Poissons Ratio (z) = 0.40799 0.01774
#
# Static dielectric constant tensor:
#      x y z
#    x 3.357180 0.000000 0.000000 
#    y 0.000000 2.742820 0.000000 
#    z 0.000000 0.000000 3.393200 
# 
# 
# High freq. dielectric constant tensor:
#      x y z
#    x 1.658490 0.000000 0.000000 
#    y 0.000000 1.595700 0.000000 
#    z 0.000000 0.000000 1.641550 
# 
# From -- ./inp_files/71109.got.cif
#   From: 2010.06.25/outbox.cif.g09.slc.cpg/sg71_36_cif.got.tgz:71109.got - 2010.06.28 04:59:45.
