data_PCOD8288144
_publ_section_title
;
Structure prediction by ZEFSAII (Michael W. Deem and Ramdas Pophale) SiO2 
 PCOD8288144
Probable space group: I M M M
;
_chemical_formula_sum "Si O2"
_cell_formula_units_Z 96
_cell_length_a 14.451588
_cell_length_b 24.598293
_cell_length_c 14.497321
_cell_angle_alpha 90.000000
_cell_angle_beta 90.000000
_cell_angle_gamma 90.000000
_cell_volume 5153.571398
_symmetry_space_group_name_H-M "I M M M"
_symmetry_group_IT_number 71
_symmetry_cell_setting 'orthorhombic'
loop_
_space_group_symop_operation_xyz
x,y,z
-x,-y,z
x,-y,-z
-x,y,-z
-x,-y,-z
x,y,-z
-x,y,z
x,-y,z
1/2+x,1/2+y,1/2+z
1/2-x,1/2-y,1/2+z
1/2+x,1/2-y,1/2-z
1/2-x,1/2+y,1/2-z
1/2-x,1/2-y,1/2-z
1/2+x,1/2+y,1/2-z
1/2-x,1/2+y,1/2+z
1/2+x,1/2-y,1/2+z
loop_
_atom_site_type_symbol
_atom_site_label
_atom_site_fract_x
_atom_site_fract_y
_atom_site_fract_z
Si Si1 0.000000 0.656253 0.357331
Si Si2 0.000000 0.812336 0.605189
Si Si3 0.199291 0.354552 0.397990
Si Si4 0.500000 0.761702 0.282015
Si Si5 0.000000 0.439846 0.751606
Si Si6 0.800272 0.144757 0.606214
Si Si7 0.813474 0.249712 0.890960
Si Si8 0.798731 0.563458 0.767607
O O1 0.095537 0.671147 0.407849
O O2 0.000000 0.675420 0.248443
O O3 0.000000 0.591441 0.345416
O O4 0.000000 0.763887 0.678663
O O5 0.090207 0.848993 0.621599
O O6 0.000000 0.788454 0.500000
O O7 0.231694 0.372853 0.500000
O O8 0.261185 0.304941 0.360755
O O9 0.209460 0.405838 0.330627
O O10 0.411323 0.746671 0.340858
O O11 0.903946 0.429524 0.807586
O O12 0.000000 0.500000 0.713469
O O13 0.776337 0.135045 0.500000
O O14 0.745635 0.198178 0.642500
O O15 0.770312 0.090963 0.660398
O O16 0.829563 0.252016 0.000000
O O17 0.771919 0.500000 0.755252
#
# Coordination Sequence:
#
# PCOD8288144 Si02
#       8
#     8   8  16   8   8  16  16  16
#     4  10  19  28  48  76 101 136 177 209 253 307
#     4  10  22  37  54  78 105 136 173 213 265 319
#     4  10  20  34  52  77 109 141 175 216 261 312
#     4  12  21  32  52  76 111 144 170 212 262 308
#     4   8  16  31  48  70 102 133 166 209 249 297
#     4  10  21  38  57  78 106 138 175 220 265 311
#     4  10  21  35  53  79 108 140 177 214 260 317
#     4  10  20  35  55  79 106 139 179 217 260 313
#
# _framework density 18.627859000000001
#
# number of rings (size 3 to 8) (size 9 to 14) (size 15 to 20)
#    0.000    2.000    0.000    4.500    0.000    4.667 
#    0.000    1.667    0.000    8.000    0.000    0.000 
#    0.000    6.667    0.000    0.000    0.000    0.000 
#
# Total GULP energy -594846.063373 kJ/mol
# GULP energy per Si atom -12392.626320 kJ/mol
# Density = 1.858546 g / cm^3
# Si number density = 18.627859 Si / 1000 Ang^3
#
#
#
# Elastic Constant Matrix: (Units=GPa)
#
#
# Indices 1 2 3 4 5 6 
#
# 1 140.0422 61.7243 50.4270 -0.0001 0.0000 0.0000
# 2 61.7243 121.1963 50.7814 -0.0004 0.0003 0.0000
# 3 50.4270 50.7814 72.1298 -0.0003 0.0003 0.0000
# 4 -0.0001 -0.0004 -0.0003 25.8093 0.0002 0.0000
# 5 0.0000 0.0003 0.0003 0.0002 19.4604 0.0000
# 6 0.0000 0.0000 0.0000 0.0000 0.0000 25.7194
#
#
#
# Elastic Compliance Matrix: (Units=1/GPa)
#
#
# Indices 1 2 3 4 5 6 
#
# 1 0.010337 -0.003172 -0.004993 0.000000 0.000000 0.000000
# 2 -0.003172 0.012677 -0.006707 0.000000 0.000000 0.000000
# 3 -0.004993 -0.006707 0.022077 0.000000 0.000000 0.000000
# 4 0.000000 0.000000 0.000000 0.038746 0.000000 0.000000
# 5 0.000000 0.000000 0.000000 0.000000 0.051386 0.000000
# 6 0.000000 0.000000 0.000000 0.000000 0.000000 0.038881
#
#
# Mechanical properties :
#
#
# Convention : Reuss Voigt Hill
#
# Bulk Modulus (GPa) = 65.16690 73.24818 69.20754
# Shear Modulus (GPa) = 23.92749 25.56020 24.74384
#
# Velocity S-wave (km/s) = 3.58788 3.70827 3.64857
# Velocity P-wave (km/s) = 7.22657 7.59883 7.41504
#
# Compressibility (1/GPa) = 0.01534521
#
# Stress axis : x y z
#
# Youngs Moduli (GPa) = 96.74056 78.88288 45.29636
#
# Poissons Ratio (x) = 0.25024 0.22618
# Poissons Ratio (y) = 0.30689 0.30381
# Poissons Ratio (z) = 0.48305 0.52908
#
# Static dielectric constant tensor:
#      x y z
#    x 3.572720 0.000000 0.000000 
#    y 0.000000 3.412960 0.000000 
#    z 0.000000 0.000000 3.294920 
# 
# 
# High freq. dielectric constant tensor:
#      x y z
#    x 1.728660 0.000000 0.000000 
#    y 0.000000 1.714450 0.000000 
#    z 0.000000 0.000000 1.715570 
# 
# From -- ./inp_files/34824.got.cif
#   From: 2010.06.25/outbox.cif.g09.slc.cpg/sg71_18_cif.got.tgz:34824.got - 2010.06.28 04:59:45.
