data_PCOD8288530
_publ_section_title
;
Structure prediction by ZEFSAII (Michael W. Deem and Ramdas Pophale) SiO2 
 PCOD8288530
Probable space group: I M M M
;
_chemical_formula_sum "Si O2"
_cell_formula_units_Z 88
_cell_length_a 20.130710
_cell_length_b 30.289447
_cell_length_c 8.826644
_cell_angle_alpha 90.000000
_cell_angle_beta 90.000000
_cell_angle_gamma 90.000000
_cell_volume 5382.029176
_symmetry_space_group_name_H-M "I M M M"
_symmetry_group_IT_number 71
_symmetry_cell_setting 'orthorhombic'
loop_
_space_group_symop_operation_xyz
x,y,z
-x,-y,z
x,-y,-z
-x,y,-z
-x,-y,-z
x,y,-z
-x,y,z
x,-y,z
1/2+x,1/2+y,1/2+z
1/2-x,1/2-y,1/2+z
1/2+x,1/2-y,1/2-z
1/2-x,1/2+y,1/2-z
1/2-x,1/2-y,1/2-z
1/2+x,1/2+y,1/2-z
1/2-x,1/2+y,1/2+z
1/2+x,1/2-y,1/2+z
loop_
_atom_site_type_symbol
_atom_site_label
_atom_site_fract_x
_atom_site_fract_y
_atom_site_fract_z
Si Si1 0.785591 0.707368 0.681037
Si Si2 0.574189 0.671599 0.828915
Si Si3 0.806901 0.128716 0.824425
Si Si4 0.071044 0.275708 0.673739
Si Si5 0.500000 0.447526 0.328198
Si Si6 0.863743 0.950237 0.678649
O O1 0.783675 0.712872 0.500000
O O2 0.750000 0.750000 0.750000
O O3 0.749977 0.662228 0.733838
O O4 0.861628 0.703507 0.744050
O O5 0.500000 0.654185 0.795368
O O6 0.622250 0.651003 0.705214
O O7 0.577276 0.723657 0.811085
O O8 0.595979 0.658122 0.000000
O O9 0.804470 0.081788 0.736400
O O10 0.798021 0.118586 0.000000
O O11 0.067731 0.289995 0.500000
O O12 0.000000 0.290955 0.749902
O O13 0.500000 0.500000 0.324172
O O14 0.500000 0.429625 0.500000
O O15 0.433452 0.431211 0.243164
O O16 0.868050 0.949110 0.500000
O O17 0.849441 0.000000 0.736701
#
# Coordination Sequence:
#
# PCOD8288530 Si02
#       6
#    16  16  16  16   8  16
#     4  10  19  31  47  68  94 123 155 189 229 276
#     4   9  17  29  45  63  85 120 163 197 224 262
#     4  11  22  31  44  68  94 122 151 190 244 284
#     4   8  14  27  47  66  86 118 158 194 223 259
#     4   9  17  31  51  71  91 115 145 193 249 281
#     4  10  21  36  51  65  84 117 160 196 228 276
#
# _framework density 16.350711
#
# number of rings (size 3 to 8) (size 9 to 14) (size 15 to 20)
#    0.000    2.455    1.818    2.455    1.273    3.273 
#    0.000    0.000    0.000    0.545    0.000    0.000 
#    0.000    0.727    0.000    9.091    0.000    1.455 
#
# Total GULP energy -545228.895076 kJ/mol
# GULP energy per Si atom -12391.565797 kJ/mol
# Density = 1.631350 g / cm^3
# Si number density = 16.350711 Si / 1000 Ang^3
#
#
#
# Elastic Constant Matrix: (Units=GPa)
#
#
# Indices 1 2 3 4 5 6 
#
# 1 120.2256 63.0991 18.8050 0.0000 0.0000 0.0000
# 2 63.0991 71.9166 18.0214 0.0000 0.0000 0.0000
# 3 18.8050 18.0214 38.2544 0.0000 0.0000 0.0000
# 4 0.0000 0.0000 0.0000 20.5445 0.0000 0.0000
# 5 0.0000 0.0000 0.0000 0.0000 16.6589 0.0000
# 6 0.0000 0.0000 0.0000 0.0000 0.0000 28.3868
#
#
#
# Elastic Compliance Matrix: (Units=1/GPa)
#
#
# Indices 1 2 3 4 5 6 
#
# 1 0.015481 -0.013238 -0.001373 0.000000 0.000000 0.000000
# 2 -0.013238 0.027087 -0.006253 0.000000 0.000000 0.000000
# 3 -0.001373 -0.006253 0.029762 0.000000 0.000000 0.000000
# 4 0.000000 0.000000 0.000000 0.048675 0.000000 0.000000
# 5 0.000000 0.000000 0.000000 0.000000 0.060028 0.000000
# 6 0.000000 0.000000 0.000000 0.000000 0.000000 0.035228
#
#
# Mechanical properties :
#
#
# Convention : Reuss Voigt Hill
#
# Bulk Modulus (GPa) = 32.67974 47.80530 40.24252
# Shear Modulus (GPa) = 18.64360 21.81613 20.22986
#
# Velocity S-wave (km/s) = 3.38039 3.65672 3.52127
# Velocity P-wave (km/s) = 5.93854 6.86511 6.41856
#
# Compressibility (1/GPa) = 0.03060000
#
# Stress axis : x y z
#
# Youngs Moduli (GPa) = 64.59733 36.91796 33.60037
#
# Poissons Ratio (x) = 0.48873 0.04615
# Poissons Ratio (y) = 0.85516 0.21010
# Poissons Ratio (z) = 0.08872 0.23084
#
# Static dielectric constant tensor:
#      x y z
#    x 3.374290 0.000000 0.000000 
#    y 0.000000 3.149300 0.000000 
#    z 0.000000 0.000000 2.949390 
# 
# 
# High freq. dielectric constant tensor:
#      x y z
#    x 1.610980 0.000000 0.000000 
#    y 0.000000 1.612780 0.000000 
#    z 0.000000 0.000000 1.614900 
# 
# From -- ./inp_files/11326.got.cif
#   From: 2010.06.25/outbox.cif.g09.slc.cpg/sg71_6_cif.got.tgz:11326.got - 2010.06.28 04:59:45.
