data_PCOD8288286
_publ_section_title
;
Structure prediction by ZEFSAII (Michael W. Deem and Ramdas Pophale) SiO2 
 PCOD8288286
Probable space group: I M M M
;
_chemical_formula_sum "Si O2"
_cell_formula_units_Z 88
_cell_length_a 14.162811
_cell_length_b 13.978979
_cell_length_c 27.783382
_cell_angle_alpha 90.000000
_cell_angle_beta 90.000000
_cell_angle_gamma 90.000000
_cell_volume 5500.599465
_symmetry_space_group_name_H-M "I M M M"
_symmetry_group_IT_number 71
_symmetry_cell_setting 'orthorhombic'
loop_
_space_group_symop_operation_xyz
x,y,z
-x,-y,z
x,-y,-z
-x,y,-z
-x,-y,-z
x,y,-z
-x,y,z
x,-y,z
1/2+x,1/2+y,1/2+z
1/2-x,1/2-y,1/2+z
1/2+x,1/2-y,1/2-z
1/2-x,1/2+y,1/2-z
1/2-x,1/2-y,1/2-z
1/2+x,1/2+y,1/2-z
1/2-x,1/2+y,1/2+z
1/2+x,1/2-y,1/2+z
loop_
_atom_site_type_symbol
_atom_site_label
_atom_site_fract_x
_atom_site_fract_y
_atom_site_fract_z
Si Si1 0.000000 0.608744 0.220452
Si Si2 0.500000 0.388178 0.736128
Si Si3 0.693630 0.223551 0.137680
Si Si4 0.390762 0.889447 0.055750
Si Si5 0.500000 0.752113 0.811872
Si Si6 0.796289 0.887201 0.781913
Si Si7 0.296376 0.889049 0.317644
O O1 0.000000 0.674541 0.267237
O O2 0.908584 0.626622 0.187092
O O3 0.000000 0.500000 0.240022
O O4 0.500000 0.500000 0.736111
O O5 0.500000 0.355319 0.791382
O O6 0.595869 0.349201 0.711308
O O7 0.683077 0.178635 0.084443
O O8 0.588371 0.238206 0.154522
O O9 0.739991 0.145533 0.172056
O O10 0.754428 0.322457 0.139373
O O11 0.500000 0.865839 0.068069
O O12 0.370370 0.000000 0.068824
O O13 0.370642 0.870069 0.000000
O O14 0.751956 0.849732 0.731631
O O15 0.791559 0.000000 0.779640
O O16 0.272012 0.000000 0.328460
#
# Coordination Sequence:
#
# PCOD8288286 Si02
#       7
#     8   8  16  16   8  16  16
#     4  10  20  32  44  65 101 134 163 200 238 272
#     4  10  20  32  42  59  98 137 164 194 229 273
#     4  12  20  30  48  72  95 126 168 199 234 285
#     4   9  19  35  53  74  99 123 151 195 247 290
#     4  12  20  26  43  69  93 128 166 200 229 272
#     4  10  19  30  44  66  95 128 163 198 234 278
#     4  10  20  32  46  67  98 133 166 200 235 279
#
# _framework density 15.998256
#
# number of rings (size 3 to 8) (size 9 to 14) (size 15 to 20)
#    0.000    1.636    4.545    2.727    0.000    0.727 
#    0.000    0.000    0.000    0.545    0.000    3.818 
#    0.000   10.182    0.000    0.000    0.000    0.000 
#
# Total GULP energy -545336.256448 kJ/mol
# GULP energy per Si atom -12394.005828 kJ/mol
# Density = 1.596184 g / cm^3
# Si number density = 15.998256 Si / 1000 Ang^3
#
#
#
# Elastic Constant Matrix: (Units=GPa)
#
#
# Indices 1 2 3 4 5 6 
#
# 1 141.4581 65.2716 60.3453 0.0000 0.0000 0.0000
# 2 65.2716 86.8731 69.0775 0.0000 0.0000 0.0000
# 3 60.3453 69.0775 98.1077 0.0000 0.0000 0.0000
# 4 0.0000 0.0000 0.0000 24.5706 0.0000 0.0000
# 5 0.0000 0.0000 0.0000 0.0000 47.1123 0.0000
# 6 0.0000 0.0000 0.0000 0.0000 0.0000 17.4627
#
#
#
# Elastic Compliance Matrix: (Units=1/GPa)
#
#
# Indices 1 2 3 4 5 6 
#
# 1 0.011017 -0.006565 -0.002155 0.000000 0.000000 0.000000
# 2 -0.006565 0.030065 -0.017131 0.000000 0.000000 0.000000
# 3 -0.002155 -0.017131 0.023580 0.000000 0.000000 0.000000
# 4 0.000000 0.000000 0.000000 0.040699 0.000000 0.000000
# 5 0.000000 0.000000 0.000000 0.000000 0.021226 0.000000
# 6 0.000000 0.000000 0.000000 0.000000 0.000000 0.057265
#
#
# Mechanical properties :
#
#
# Convention : Reuss Voigt Hill
#
# Bulk Modulus (GPa) = 77.14728 79.53640 78.34184
# Shear Modulus (GPa) = 20.84434 26.61210 23.72822
#
# Velocity S-wave (km/s) = 3.61350 4.08295 3.85538
# Velocity P-wave (km/s) = 8.10783 8.48828 8.30023
#
# Compressibility (1/GPa) = 0.01296222
#
# Stress axis : x y z
#
# Youngs Moduli (GPa) = 90.76531 33.26112 42.40880
#
# Poissons Ratio (x) = 0.21835 0.09137
# Poissons Ratio (y) = 0.59584 0.72650
# Poissons Ratio (z) = 0.19556 0.56979
#
# Static dielectric constant tensor:
#      x y z
#    x 3.439320 0.000000 0.000000 
#    y 0.000000 3.191410 0.000000 
#    z 0.000000 0.000000 2.674320 
# 
# 
# High freq. dielectric constant tensor:
#      x y z
#    x 1.627290 0.000000 0.000000 
#    y 0.000000 1.628610 0.000000 
#    z 0.000000 0.000000 1.558690 
# 
# From -- ./inp_files/35009.got.cif
#   From: 2010.06.25/outbox.cif.g09.slc.cpg/sg71_18_cif.got.tgz:35009.got - 2010.06.28 04:59:45.
