data_PCOD8288501
_publ_section_title
;
Structure prediction by ZEFSAII (Michael W. Deem and Ramdas Pophale) SiO2 
 PCOD8288501
Probable space group: I M M M
;
_chemical_formula_sum "Si O2"
_cell_formula_units_Z 88
_cell_length_a 8.974320
_cell_length_b 29.768118
_cell_length_c 18.298939
_cell_angle_alpha 90.000000
_cell_angle_beta 90.000000
_cell_angle_gamma 90.000000
_cell_volume 4888.536241
_symmetry_space_group_name_H-M "I M M M"
_symmetry_group_IT_number 71
_symmetry_cell_setting 'orthorhombic'
loop_
_space_group_symop_operation_xyz
x,y,z
-x,-y,z
x,-y,-z
-x,y,-z
-x,-y,-z
x,y,-z
-x,y,z
x,-y,z
1/2+x,1/2+y,1/2+z
1/2-x,1/2-y,1/2+z
1/2+x,1/2-y,1/2-z
1/2-x,1/2+y,1/2-z
1/2-x,1/2-y,1/2-z
1/2+x,1/2+y,1/2-z
1/2-x,1/2+y,1/2+z
1/2+x,1/2-y,1/2+z
loop_
_atom_site_type_symbol
_atom_site_label
_atom_site_fract_x
_atom_site_fract_y
_atom_site_fract_z
Si Si1 0.670808 0.739169 0.000000
Si Si2 0.823951 0.590582 0.915659
Si Si3 0.166399 0.346188 0.500000
Si Si4 0.673751 0.344384 0.198461
Si Si5 0.833048 0.000000 0.586448
Si Si6 0.675934 0.237360 0.355064
Si Si7 0.329166 0.659659 0.358519
O O1 0.677380 0.792848 0.000000
O O2 0.760812 0.719281 0.067976
O O3 0.500000 0.722166 0.000000
O O4 0.764196 0.629019 0.862611
O O5 0.753532 0.544121 0.886850
O O6 0.000000 0.587022 0.908033
O O7 0.778163 0.600505 0.000000
O O8 0.241376 0.364253 0.575030
O O9 0.000000 0.364684 0.500000
O O10 0.500000 0.343564 0.177979
O O11 0.737265 0.293384 0.203697
O O12 0.696476 0.365119 0.280371
O O13 0.839379 0.000000 0.500000
O O14 0.000000 0.000000 0.619624
O O15 0.500000 0.229438 0.349362
O O16 0.721877 0.289000 0.346530
O O17 0.500000 0.658670 0.382530
#
# Coordination Sequence:
#
# PCOD8288501 Si02
#       7
#     8  16   8  16   8  16  16
#     4   9  17  29  43  61  83 112 155 200 239 287
#     4  10  21  36  53  74 101 133 167 202 245 293
#     4   9  17  29  49  69  85 112 155 202 243 289
#     4  11  22  33  47  69  97 127 163 205 248 292
#     4   9  17  33  57  79  99 126 161 198 241 293
#     4  10  19  31  46  63  88 124 163 205 252 297
#     4   9  19  34  49  66  91 126 164 205 252 299
#
# _framework density 18.001300000000001
#
# number of rings (size 3 to 8) (size 9 to 14) (size 15 to 20)
#    0.000    2.273    0.000    3.000    1.273    6.545 
#    0.000    0.000    0.000    0.000    0.000    0.000 
#    0.000    0.727    0.000    7.636    0.000    3.636 
#
# Total GULP energy -545384.775131 kJ/mol
# GULP energy per Si atom -12395.108526 kJ/mol
# Density = 1.796033 g / cm^3
# Si number density = 18.001300 Si / 1000 Ang^3
#
#
#
# Elastic Constant Matrix: (Units=GPa)
#
#
# Indices 1 2 3 4 5 6 
#
# 1 85.6978 20.1571 41.3823 0.0000 0.0000 0.0000
# 2 20.1571 35.7532 13.7812 0.0000 0.0000 0.0000
# 3 41.3823 13.7812 100.8408 -0.0002 -0.0001 0.0000
# 4 0.0000 0.0000 -0.0002 10.2373 0.0000 0.0000
# 5 0.0000 0.0000 -0.0001 0.0000 26.6502 0.0000
# 6 0.0000 0.0000 0.0000 0.0000 0.0000 22.6523
#
#
#
# Elastic Compliance Matrix: (Units=1/GPa)
#
#
# Indices 1 2 3 4 5 6 
#
# 1 0.015998 -0.006850 -0.005629 0.000000 0.000000 0.000000
# 2 -0.006850 0.032458 -0.001625 0.000000 0.000000 0.000000
# 3 -0.005629 -0.001625 0.012449 0.000000 0.000000 0.000000
# 4 0.000000 0.000000 0.000000 0.097682 0.000000 0.000000
# 5 0.000000 0.000000 0.000000 0.000000 0.037523 0.000000
# 6 0.000000 0.000000 0.000000 0.000000 0.000000 0.044146
#
#
# Mechanical properties :
#
#
# Convention : Reuss Voigt Hill
#
# Bulk Modulus (GPa) = 30.58369 41.43701 36.01035
# Shear Modulus (GPa) = 17.89791 21.70603 19.80197
#
# Velocity S-wave (km/s) = 3.15660 3.47623 3.32027
# Velocity P-wave (km/s) = 5.50565 6.25948 5.89463
#
# Compressibility (1/GPa) = 0.03269716
#
# Stress axis : x y z
#
# Youngs Moduli (GPa) = 62.50662 30.80939 80.32956
#
# Poissons Ratio (x) = 0.21104 0.45219
# Poissons Ratio (y) = 0.42816 0.13052
# Poissons Ratio (z) = 0.35186 0.05006
#
# Static dielectric constant tensor:
#      x y z
#    x 3.414540 0.000000 0.000000 
#    y 0.000000 2.907730 0.000000 
#    z 0.000000 0.000000 3.504470 
# 
# 
# High freq. dielectric constant tensor:
#      x y z
#    x 1.710480 0.000000 0.000000 
#    y 0.000000 1.634480 0.000000 
#    z 0.000000 0.000000 1.701050 
# 
# From -- ./inp_files/8915.got.cif
#   From: 2010.06.25/outbox.cif.g09.slc.cpg/sg71_5_cif.got.tgz:8915.got - 2010.06.28 04:59:45.
