data_PCOD8288454
_publ_section_title
;
Structure prediction by ZEFSAII (Michael W. Deem and Ramdas Pophale) SiO2 
 PCOD8288454
Probable space group: I M M M
;
_chemical_formula_sum "Si O2"
_cell_formula_units_Z 72
_cell_length_a 22.583921
_cell_length_b 9.018897
_cell_length_c 17.836614
_cell_angle_alpha 90.000000
_cell_angle_beta 90.000000
_cell_angle_gamma 90.000000
_cell_volume 3632.998236
_symmetry_space_group_name_H-M "I M M M"
_symmetry_group_IT_number 71
_symmetry_cell_setting 'orthorhombic'
loop_
_space_group_symop_operation_xyz
x,y,z
-x,-y,z
x,-y,-z
-x,y,-z
-x,-y,-z
x,y,-z
-x,y,z
x,-y,z
1/2+x,1/2+y,1/2+z
1/2-x,1/2-y,1/2+z
1/2+x,1/2-y,1/2-z
1/2-x,1/2+y,1/2-z
1/2-x,1/2-y,1/2-z
1/2+x,1/2+y,1/2-z
1/2-x,1/2+y,1/2+z
1/2+x,1/2-y,1/2+z
loop_
_atom_site_type_symbol
_atom_site_label
_atom_site_fract_x
_atom_site_fract_y
_atom_site_fract_z
Si Si1 0.242329 0.827968 0.083624
Si Si2 0.666748 0.323311 0.187507
Si Si3 0.935418 0.824017 0.417058
Si Si4 0.000000 0.177446 0.085804
Si Si5 0.877609 0.171624 0.153837
O O1 0.273256 0.741301 0.151930
O O2 0.171480 0.803703 0.089574
O O3 0.257951 0.000000 0.093559
O O4 0.261271 0.772396 0.000000
O O5 0.672839 0.500000 0.187350
O O6 0.614132 0.259108 0.136536
O O7 0.650466 0.260488 0.269739
O O8 0.924932 0.759313 0.500000
O O9 0.000000 0.775108 0.387067
O O10 0.931389 0.000000 0.419222
O O11 0.059117 0.240274 0.127839
O O12 0.000000 0.000000 0.085794
O O13 0.000000 0.234860 0.000000
O O14 0.889597 0.000000 0.169738
#
# Coordination Sequence:
#
# PCOD8288454 Si02
#       5
#    16  16  16   8  16
#     4  10  20  34  50  69  99 137 170 200 242 298
#     4  10  19  30  49  75 101 126 161 208 252 294
#     4   8  14  24  39  62  92 122 151 189 239 287
#     4   9  16  28  48  74 104 135 166 202 247 299
#     4   9  18  30  47  73 102 130 163 207 253 293
#
# _framework density 19.818342000000001
#
# number of rings (size 3 to 8) (size 9 to 14) (size 15 to 20)
#    0.000    2.778    0.000    2.667    1.556    4.000 
#    0.000    0.000    0.000    0.667    0.000    5.444 
#    0.000    5.333    0.000    0.000    0.000    0.000 
#
# Total GULP energy -446054.727197 kJ/mol
# GULP energy per Si atom -12390.409089 kJ/mol
# Density = 1.977323 g / cm^3
# Si number density = 19.818342 Si / 1000 Ang^3
#
#
#
# Elastic Constant Matrix: (Units=GPa)
#
#
# Indices 1 2 3 4 5 6 
#
# 1 131.2705 20.0013 62.2108 0.0000 0.0000 0.0000
# 2 20.0013 17.8220 18.8240 0.0000 0.0000 0.0000
# 3 62.2108 18.8240 129.2308 0.0000 0.0000 0.0000
# 4 0.0000 0.0000 0.0000 16.6317 0.0000 0.0000
# 5 0.0000 0.0000 0.0000 0.0000 18.1695 0.0000
# 6 0.0000 0.0000 0.0000 0.0000 0.0000 17.4556
#
#
#
# Elastic Compliance Matrix: (Units=1/GPa)
#
#
# Indices 1 2 3 4 5 6 
#
# 1 0.010708 -0.007768 -0.004023 0.000000 0.000000 0.000000
# 2 -0.007768 0.071948 -0.006741 0.000000 0.000000 0.000000
# 3 -0.004023 -0.006741 0.010657 0.000000 0.000000 0.000000
# 4 0.000000 0.000000 0.000000 0.060126 0.000000 0.000000
# 5 0.000000 0.000000 0.000000 0.000000 0.055037 0.000000
# 6 0.000000 0.000000 0.000000 0.000000 0.000000 0.057288
#
#
# Mechanical properties :
#
#
# Convention : Reuss Voigt Hill
#
# Bulk Modulus (GPa) = 17.77814 53.37728 35.57771
# Shear Modulus (GPa) = 15.54834 22.27052 18.90943
#
# Velocity S-wave (km/s) = 2.80401 3.35585 3.09226
# Velocity P-wave (km/s) = 4.41286 6.48131 5.54440
#
# Compressibility (1/GPa) = 0.05624884
#
# Stress axis : x y z
#
# Youngs Moduli (GPa) = 93.38668 13.89896 93.83740
#
# Poissons Ratio (x) = 0.10797 0.37754
# Poissons Ratio (y) = 0.72543 0.63252
# Poissons Ratio (z) = 0.37572 0.09369
#
# Static dielectric constant tensor:
#      x y z
#    x 3.856920 0.000000 0.000000 
#    y 0.000000 2.853970 0.000000 
#    z 0.000000 0.000000 3.886300 
# 
# 
# High freq. dielectric constant tensor:
#      x y z
#    x 1.789580 0.000000 0.000000 
#    y 0.000000 1.688760 0.000000 
#    z 0.000000 0.000000 1.786050 
# 
# From -- ./inp_files/42063.got.cif
#   From: 2010.06.25/outbox.cif.g09.slc.cpg/sg71_22_cif.got.tgz:42063.got - 2010.06.28 04:59:45.
