data_PCOD8288616
_publ_section_title
;
Structure prediction by ZEFSAII (Michael W. Deem and Ramdas Pophale) SiO2 
 PCOD8288616
Probable space group: I M M M
;
_chemical_formula_sum "Si O2"
_cell_formula_units_Z 80
_cell_length_a 22.858707
_cell_length_b 9.388081
_cell_length_c 20.565021
_cell_angle_alpha 90.000000
_cell_angle_beta 90.000000
_cell_angle_gamma 90.000000
_cell_volume 4413.241021
_symmetry_space_group_name_H-M "I M M M"
_symmetry_group_IT_number 71
_symmetry_cell_setting 'orthorhombic'
loop_
_space_group_symop_operation_xyz
x,y,z
-x,-y,z
x,-y,-z
-x,y,-z
-x,-y,-z
x,y,-z
-x,y,z
x,-y,z
1/2+x,1/2+y,1/2+z
1/2-x,1/2-y,1/2+z
1/2+x,1/2-y,1/2-z
1/2-x,1/2+y,1/2-z
1/2-x,1/2-y,1/2-z
1/2+x,1/2+y,1/2-z
1/2-x,1/2+y,1/2+z
1/2+x,1/2-y,1/2+z
loop_
_atom_site_type_symbol
_atom_site_label
_atom_site_fract_x
_atom_site_fract_y
_atom_site_fract_z
Si Si1 0.067393 0.160939 0.247119
Si Si2 0.867581 0.167754 0.627348
Si Si3 0.067449 0.829842 0.500000
Si Si4 0.253838 0.166499 0.317284
Si Si5 0.565937 0.169076 0.500000
Si Si6 0.619931 0.832605 0.633544
O O1 0.101344 0.228989 0.308257
O O2 0.078186 0.256802 0.184735
O O3 0.000000 0.162043 0.265730
O O4 0.089241 0.000000 0.232837
O O5 0.897747 0.232403 0.562718
O O6 0.798944 0.207183 0.633470
O O7 0.877510 0.000000 0.625108
O O8 0.000000 0.776216 0.500000
O O9 0.068770 0.000000 0.500000
O O10 0.250000 0.250000 0.250000
O O11 0.312725 0.208790 0.354864
O O12 0.251701 0.000000 0.299837
O O13 0.500000 0.231487 0.500000
O O14 0.601146 0.223907 0.437199
O O15 0.563402 0.000000 0.500000
O O16 0.609472 0.000000 0.640447
#
# Coordination Sequence:
#
# PCOD8288616 Si02
#       6
#    16  16   8  16   8  16
#     4  10  19  31  49  73 101 133 168 207 251 297
#     4   9  17  29  46  70 101 133 163 202 251 297
#     4   9  16  27  45  71 103 135 166 203 250 302
#     4  10  19  32  51  75 102 131 166 210 253 296
#     4   9  18  33  50  70 101 133 162 206 255 294
#     4  10  20  33  52  75  98 132 172 208 250 300
#
# _framework density 18.127268000000001
#
# number of rings (size 3 to 8) (size 9 to 14) (size 15 to 20)
#    0.000    2.400    2.000    1.200    0.000    4.400 
#    0.000    4.500    0.000    1.800    0.000    4.200 
#    0.000    4.800    0.000    0.000    0.000    0.000 
#
# Total GULP energy -495944.344007 kJ/mol
# GULP energy per Si atom -12398.608600 kJ/mol
# Density = 1.808601 g / cm^3
# Si number density = 18.127268 Si / 1000 Ang^3
#
#
#
# Elastic Constant Matrix: (Units=GPa)
#
#
# Indices 1 2 3 4 5 6 
#
# 1 131.4596 21.5044 67.4800 0.0000 0.0000 0.0000
# 2 21.5044 21.0655 25.9168 0.0000 0.0000 0.0000
# 3 67.4800 25.9168 158.2172 0.0000 0.0000 0.0000
# 4 0.0000 0.0000 0.0000 21.3259 0.0000 0.0000
# 5 0.0000 0.0000 0.0000 0.0000 40.5980 0.0000
# 6 0.0000 0.0000 0.0000 0.0000 0.0000 18.4984
#
#
#
# Elastic Compliance Matrix: (Units=1/GPa)
#
#
# Indices 1 2 3 4 5 6 
#
# 1 0.010397 -0.006460 -0.003376 0.000000 0.000000 0.000000
# 2 -0.006460 0.063466 -0.007641 0.000000 0.000000 0.000000
# 3 -0.003376 -0.007641 0.009012 0.000000 0.000000 0.000000
# 4 0.000000 0.000000 0.000000 0.046891 0.000000 0.000000
# 5 0.000000 0.000000 0.000000 0.000000 0.024632 0.000000
# 6 0.000000 0.000000 0.000000 0.000000 0.000000 0.054059
#
#
# Mechanical properties :
#
#
# Convention : Reuss Voigt Hill
#
# Bulk Modulus (GPa) = 20.86764 60.06051 40.46408
# Shear Modulus (GPa) = 19.27650 29.14055 24.20852
#
# Velocity S-wave (km/s) = 3.26452 4.01378 3.65838
# Velocity P-wave (km/s) = 5.07407 7.39494 6.34158
#
# Compressibility (1/GPa) = 0.04792109
#
# Stress axis : x y z
#
# Youngs Moduli (GPa) = 96.18588 15.75648 110.96380
#
# Poissons Ratio (x) = 0.10178 0.37462
# Poissons Ratio (y) = 0.62132 0.84788
# Poissons Ratio (z) = 0.32473 0.12040
#
# Static dielectric constant tensor:
#      x y z
#    x 3.580210 0.000000 0.000000 
#    y 0.000000 2.921640 0.000000 
#    z 0.000000 0.000000 3.556790 
# 
# 
# High freq. dielectric constant tensor:
#      x y z
#    x 1.721620 0.000000 0.000000 
#    y 0.000000 1.648170 0.000000 
#    z 0.000000 0.000000 1.707110 
# 
# From -- ./inp_files/25568.got.cif
#   From: 2010.06.25/outbox.cif.g09.slc.cpg/sg71_13_cif.got.tgz:25568.got - 2010.06.28 04:59:45.
