data_PCOD8288270
_publ_section_title
;
Structure prediction by ZEFSAII (Michael W. Deem and Ramdas Pophale) SiO2 
 PCOD8288270
Probable space group: I M M M
;
_chemical_formula_sum "Si O2"
_cell_formula_units_Z 96
_cell_length_a 28.907571
_cell_length_b 27.934164
_cell_length_c 9.422499
_cell_angle_alpha 90.000000
_cell_angle_beta 90.000000
_cell_angle_gamma 90.000000
_cell_volume 7608.751135
_symmetry_space_group_name_H-M "I M M M"
_symmetry_group_IT_number 71
_symmetry_cell_setting 'orthorhombic'
loop_
_space_group_symop_operation_xyz
x,y,z
-x,-y,z
x,-y,-z
-x,y,-z
-x,-y,-z
x,y,-z
-x,y,z
x,-y,z
1/2+x,1/2+y,1/2+z
1/2-x,1/2-y,1/2+z
1/2+x,1/2-y,1/2-z
1/2-x,1/2+y,1/2-z
1/2-x,1/2-y,1/2-z
1/2+x,1/2+y,1/2-z
1/2-x,1/2+y,1/2+z
1/2+x,1/2-y,1/2+z
loop_
_atom_site_type_symbol
_atom_site_label
_atom_site_fract_x
_atom_site_fract_y
_atom_site_fract_z
Si Si1 0.797742 0.500000 0.332267
Si Si2 0.318868 0.244704 0.342235
Si Si3 0.774043 0.816850 0.656434
Si Si4 0.866621 0.345358 0.833882
Si Si5 0.281647 0.907189 0.667983
Si Si6 0.946832 0.587924 0.835914
Si Si7 0.593847 0.000000 0.832552
O O1 0.788504 0.500000 0.500000
O O2 0.773416 0.454409 0.260404
O O3 0.852126 0.500000 0.295973
O O4 0.333335 0.260534 0.500000
O O5 0.271214 0.215814 0.343649
O O6 0.313743 0.293799 0.254648
O O7 0.357166 0.208300 0.272445
O O8 0.795573 0.818904 0.500000
O O9 0.759961 0.870404 0.704586
O O10 0.830010 0.384405 0.777142
O O11 0.918158 0.363794 0.799506
O O12 0.856589 0.340206 0.000000
O O13 0.283233 0.919194 0.500000
O O14 0.930423 0.545921 0.734526
O O15 0.000000 0.600021 0.806232
O O16 0.938612 0.572750 0.000000
O O17 0.584746 0.000000 0.000000
#
# Coordination Sequence:
#
# PCOD8288270 Si02
#       7
#     8  16  16  16  16  16   8
#     4  11  21  28  36  53  70  86 116 150 177 211
#     4   8  13  22  36  51  68  88 103 123 164 206
#     4   8  14  23  35  53  69  83 106 132 159 198
#     4   8  14  25  39  53  67  84 109 139 171 210
#     4   9  16  27  41  50  64  91 114 136 172 208
#     4  10  19  30  44  56  64  83 118 152 178 212
#     4  11  22  32  39  50  68  88 110 146 194 227
#
# _framework density 12.617051
#
# number of rings (size 3 to 8) (size 9 to 14) (size 15 to 20)
#    0.000    3.000    1.667    2.750    0.000    2.667 
#    0.000    3.333    0.000    0.000    0.000    0.000 
#    0.000    0.000    0.000    0.000    0.000    0.000 
#
# Total GULP energy -594797.874570 kJ/mol
# GULP energy per Si atom -12391.622387 kJ/mol
# Density = 1.258833 g / cm^3
# Si number density = 12.617051 Si / 1000 Ang^3
#
#
#
# Elastic Constant Matrix: (Units=GPa)
#
#
# Indices 1 2 3 4 5 6 
#
# 1 41.2854 47.4569 27.8868 0.0000 0.0000 0.0000
# 2 47.4569 98.6854 49.2725 0.0000 0.0000 0.0000
# 3 27.8868 49.2725 55.9405 0.0000 0.0000 0.0000
# 4 0.0000 0.0000 0.0000 19.8105 0.0000 0.0000
# 5 0.0000 0.0000 0.0000 0.0000 11.2622 0.0000
# 6 0.0000 0.0000 0.0000 0.0000 0.0000 12.3890
#
#
#
# Elastic Compliance Matrix: (Units=1/GPa)
#
#
# Indices 1 2 3 4 5 6 
#
# 1 0.055857 -0.023130 -0.007472 0.000000 0.000000 0.000000
# 2 -0.023130 0.027666 -0.012838 0.000000 0.000000 0.000000
# 3 -0.007472 -0.012838 0.032908 0.000000 0.000000 0.000000
# 4 0.000000 0.000000 0.000000 0.050478 0.000000 0.000000
# 5 0.000000 0.000000 0.000000 0.000000 0.088793 0.000000
# 6 0.000000 0.000000 0.000000 0.000000 0.000000 0.080717
#
#
# Mechanical properties :
#
#
# Convention : Reuss Voigt Hill
#
# Bulk Modulus (GPa) = 33.83927 49.46043 41.64985
# Shear Modulus (GPa) = 11.54337 13.44533 12.49435
#
# Velocity S-wave (km/s) = 3.02802 3.26797 3.15028
# Velocity P-wave (km/s) = 6.25329 7.31614 6.80549
#
# Compressibility (1/GPa) = 0.02955146
#
# Stress axis : x y z
#
# Youngs Moduli (GPa) = 17.90299 36.14535 30.38746
#
# Poissons Ratio (x) = 0.83606 0.22705
# Poissons Ratio (y) = 0.41410 0.39010
# Poissons Ratio (z) = 0.13377 0.46402
#
# Static dielectric constant tensor:
#      x y z
#    x 2.351080 0.000000 0.000000 
#    y 0.000000 2.655940 0.000000 
#    z 0.000000 0.000000 2.578230 
# 
# 
# High freq. dielectric constant tensor:
#      x y z
#    x 1.431120 0.000000 0.000000 
#    y 0.000000 1.470480 0.000000 
#    z 0.000000 0.000000 1.472670 
# 
# From -- ./inp_files/17583.got.cif
#   From: 2010.06.25/outbox.cif.g09.slc.cpg/sg71_9_cif.got.tgz:17583.got - 2010.06.28 04:59:45.
