data_PCOD8288387
_publ_section_title
;
Structure prediction by ZEFSAII (Michael W. Deem and Ramdas Pophale) SiO2 
 PCOD8288387
Probable space group: I M M M
;
_chemical_formula_sum "Si O2"
_cell_formula_units_Z 88
_cell_length_a 22.887632
_cell_length_b 9.394140
_cell_length_c 22.657273
_cell_angle_alpha 90.000000
_cell_angle_beta 90.000000
_cell_angle_gamma 90.000000
_cell_volume 4871.531642
_symmetry_space_group_name_H-M "I M M M"
_symmetry_group_IT_number 71
_symmetry_cell_setting 'orthorhombic'
loop_
_space_group_symop_operation_xyz
x,y,z
-x,-y,z
x,-y,-z
-x,y,-z
-x,-y,-z
x,y,-z
-x,y,z
x,-y,z
1/2+x,1/2+y,1/2+z
1/2-x,1/2-y,1/2+z
1/2+x,1/2-y,1/2-z
1/2-x,1/2+y,1/2-z
1/2-x,1/2-y,1/2-z
1/2+x,1/2+y,1/2-z
1/2-x,1/2+y,1/2+z
1/2+x,1/2-y,1/2+z
loop_
_atom_site_type_symbol
_atom_site_label
_atom_site_fract_x
_atom_site_fract_y
_atom_site_fract_z
Si Si1 0.134597 0.161713 0.672304
Si Si2 0.067690 0.329450 0.000000
Si Si3 0.934893 0.663627 0.762719
Si Si4 0.934561 0.830588 0.563755
Si Si5 0.373875 0.836940 0.380423
Si Si6 0.736295 0.162455 0.691231
O O1 0.115939 0.249661 0.729948
O O2 0.104197 0.234093 0.615802
O O3 0.202783 0.165809 0.656506
O O4 0.113630 0.000000 0.683215
O O5 0.102692 0.269333 0.057895
O O6 0.066726 0.500000 0.000000
O O7 0.000000 0.275095 0.000000
O O8 0.928886 0.500000 0.743857
O O9 0.925486 0.680533 0.832767
O O10 0.000000 0.720779 0.747549
O O11 0.911355 0.777144 0.500000
O O12 0.000000 0.775444 0.573609
O O13 0.932364 0.000000 0.565506
O O14 0.314024 0.770515 0.351643
O O15 0.359382 0.000000 0.394021
O O16 0.750000 0.250000 0.750000
O O17 0.718508 0.000000 0.708643
#
# Coordination Sequence:
#
# PCOD8288387 Si02
#       6
#    16   8  16  16  16  16
#     4  10  19  30  47  71  95 123 160 198 237 287
#     4   9  16  28  48  72  99 133 170 209 256 304
#     4  10  19  30  47  71  98 127 157 193 241 291
#     4   8  14  26  43  63  90 121 149 183 230 279
#     4   9  17  30  46  68  99 130 162 202 247 297
#     4  10  19  32  49  70  97 128 159 195 243 292
#
# _framework density 18.064133999999999
#
# number of rings (size 3 to 8) (size 9 to 14) (size 15 to 20)
#    0.000    2.636    1.818    1.636    0.000    3.273 
#    1.636    0.000    0.000    0.545    0.000    5.091 
#    0.000    4.364    0.000    0.000    0.000    0.000 
#
# Total GULP energy -545138.413828 kJ/mol
# GULP energy per Si atom -12389.509405 kJ/mol
# Density = 1.802302 g / cm^3
# Si number density = 18.064134 Si / 1000 Ang^3
#
#
#
# Elastic Constant Matrix: (Units=GPa)
#
#
# Indices 1 2 3 4 5 6 
#
# 1 114.0929 19.3515 57.5249 0.0000 0.0000 0.0000
# 2 19.3515 26.5746 22.3581 0.0000 0.0000 0.0000
# 3 57.5249 22.3581 131.5069 0.0000 0.0000 0.0000
# 4 0.0000 0.0000 0.0000 16.1904 0.0000 0.0000
# 5 0.0000 0.0000 0.0000 0.0000 31.1427 0.0000
# 6 0.0000 0.0000 0.0000 0.0000 0.0000 16.9595
#
#
#
# Elastic Compliance Matrix: (Units=1/GPa)
#
#
# Indices 1 2 3 4 5 6 
#
# 1 0.011778 -0.004950 -0.004310 0.000000 0.000000 0.000000
# 2 -0.004950 0.045991 -0.005654 0.000000 0.000000 0.000000
# 3 -0.004310 -0.005654 0.010451 0.000000 0.000000 0.000000
# 4 0.000000 0.000000 0.000000 0.061765 0.000000 0.000000
# 5 0.000000 0.000000 0.000000 0.000000 0.032110 0.000000
# 6 0.000000 0.000000 0.000000 0.000000 0.000000 0.058964
#
#
# Mechanical properties :
#
#
# Convention : Reuss Voigt Hill
#
# Bulk Modulus (GPa) = 26.04756 52.29372 39.17064
# Shear Modulus (GPa) = 18.96205 24.38784 21.67494
#
# Velocity S-wave (km/s) = 3.24343 3.67832 3.46770
# Velocity P-wave (km/s) = 5.33641 6.85943 6.14528
#
# Compressibility (1/GPa) = 0.03839132
#
# Stress axis : x y z
#
# Youngs Moduli (GPa) = 84.90700 21.74325 95.68601
#
# Poissons Ratio (x) = 0.10763 0.41243
# Poissons Ratio (y) = 0.42029 0.54100
# Poissons Ratio (z) = 0.36597 0.12293
#
# Static dielectric constant tensor:
#      x y z
#    x 3.647330 0.000000 0.000000 
#    y 0.000000 2.839440 0.000000 
#    z 0.000000 0.000000 3.594780 
# 
# 
# High freq. dielectric constant tensor:
#      x y z
#    x 1.712940 0.000000 0.000000 
#    y 0.000000 1.636170 0.000000 
#    z 0.000000 0.000000 1.700550 
# 
# From -- ./inp_files/55531.got.cif
#   From: 2010.06.25/outbox.cif.g09.slc.cpg/sg71_28_cif.got.tgz:55531.got - 2010.06.28 04:59:45.
