data_PCOD8288601
_publ_section_title
;
Structure prediction by ZEFSAII (Michael W. Deem and Ramdas Pophale) SiO2 
 PCOD8288601
Probable space group: I M M M
;
_chemical_formula_sum "Si O2"
_cell_formula_units_Z 112
_cell_length_a 14.079213
_cell_length_b 13.691564
_cell_length_c 30.370094
_cell_angle_alpha 90.000000
_cell_angle_beta 90.000000
_cell_angle_gamma 90.000000
_cell_volume 5854.335081
_symmetry_space_group_name_H-M "I M M M"
_symmetry_group_IT_number 71
_symmetry_cell_setting 'orthorhombic'
loop_
_space_group_symop_operation_xyz
x,y,z
-x,-y,z
x,-y,-z
-x,y,-z
-x,-y,-z
x,y,-z
-x,y,z
x,-y,z
1/2+x,1/2+y,1/2+z
1/2-x,1/2-y,1/2+z
1/2+x,1/2-y,1/2-z
1/2-x,1/2+y,1/2-z
1/2-x,1/2-y,1/2-z
1/2+x,1/2+y,1/2-z
1/2-x,1/2+y,1/2+z
1/2+x,1/2-y,1/2+z
loop_
_atom_site_type_symbol
_atom_site_label
_atom_site_fract_x
_atom_site_fract_y
_atom_site_fract_z
Si Si1 0.394288 0.786714 0.548420
Si Si2 0.206322 0.301767 0.450157
Si Si3 0.394018 0.606463 0.052062
Si Si4 0.386885 0.225188 0.785637
Si Si5 0.104157 0.613801 0.136897
Si Si6 0.892203 0.391226 0.371825
Si Si7 0.767555 0.615991 0.215337
O O1 0.382394 0.837347 0.500000
O O2 0.500000 0.743166 0.553758
O O3 0.320839 0.696732 0.551636
O O4 0.370617 0.865035 0.586100
O O5 0.169737 0.323901 0.500000
O O6 0.173828 0.194211 0.433089
O O7 0.169266 0.381245 0.416150
O O8 0.500000 0.627134 0.070471
O O9 0.358591 0.500000 0.070225
O O10 0.397177 0.601512 0.000000
O O11 0.500000 0.237187 0.777099
O O12 0.365376 0.186801 0.834664
O O13 0.333459 0.328902 0.779098
O O14 0.342602 0.144918 0.753009
O O15 0.098033 0.500000 0.143996
O O16 0.185179 0.653526 0.169602
O O17 0.000000 0.659495 0.148347
O O18 0.875360 0.500000 0.352929
O O19 0.000000 0.376103 0.386682
O O20 0.748381 0.500000 0.216821
#
# Coordination Sequence:
#
# PCOD8288601 Si02
#       7
#    16  16  16  16  16  16  16
#     4   9  18  31  46  67  98 135 171 210 260 313
#     4  10  19  31  49  71  97 133 177 223 267 311
#     4   8  14  25  41  62  89 121 158 201 250 306
#     4  10  21  37  57  82 113 147 179 214 263 321
#     4   9  17  29  47  72 100 131 172 220 263 308
#     4  10  21  36  54  77 105 136 171 213 263 321
#     4  10  20  35  58  85 110 140 180 223 265 312
#
# _framework density 19.131122000000001
#
# number of rings (size 3 to 8) (size 9 to 14) (size 15 to 20)
#    0.000    2.571    0.000    2.571    0.000    3.714 
#    0.000    4.286    0.000    1.286    0.000    2.000 
#    0.000    0.000    0.000    0.000    0.000    0.000 
#
# Total GULP energy -693940.385569 kJ/mol
# GULP energy per Si atom -12391.792599 kJ/mol
# Density = 1.908758 g / cm^3
# Si number density = 19.131122 Si / 1000 Ang^3
#
#
#
# Elastic Constant Matrix: (Units=GPa)
#
#
# Indices 1 2 3 4 5 6 
#
# 1 107.9589 38.9786 46.5342 0.0000 0.0000 0.0000
# 2 38.9786 71.9938 28.7540 0.0000 0.0000 0.0000
# 3 46.5342 28.7540 98.2008 0.0000 0.0000 0.0000
# 4 0.0000 0.0000 0.0000 25.7497 0.0000 0.0000
# 5 0.0000 0.0000 0.0000 0.0000 27.0457 0.0000
# 6 0.0000 0.0000 0.0000 0.0000 0.0000 19.0569
#
#
#
# Elastic Compliance Matrix: (Units=1/GPa)
#
#
# Indices 1 2 3 4 5 6 
#
# 1 0.013193 -0.005261 -0.004711 0.000000 0.000000 0.000000
# 2 -0.005261 0.017828 -0.002727 0.000000 0.000000 0.000000
# 3 -0.004711 -0.002727 0.013214 0.000000 0.000000 0.000000
# 4 0.000000 0.000000 0.000000 0.038835 0.000000 0.000000
# 5 0.000000 0.000000 0.000000 0.000000 0.036974 0.000000
# 6 0.000000 0.000000 0.000000 0.000000 0.000000 0.052474
#
#
# Mechanical properties :
#
#
# Convention : Reuss Voigt Hill
#
# Bulk Modulus (GPa) = 53.08960 56.29856 54.69408
# Shear Modulus (GPa) = 24.48615 25.29624 24.89120
#
# Velocity S-wave (km/s) = 3.58147 3.64023 3.61097
# Velocity P-wave (km/s) = 6.70173 6.86731 6.78503
#
# Compressibility (1/GPa) = 0.01883608
#
# Stress axis : x y z
#
# Youngs Moduli (GPa) = 75.79728 56.09222 75.67624
#
# Poissons Ratio (x) = 0.29512 0.35653
# Poissons Ratio (y) = 0.39879 0.20637
# Poissons Ratio (z) = 0.35710 0.15296
#
# Static dielectric constant tensor:
#      x y z
#    x 3.689770 0.000000 0.000000 
#    y 0.000000 3.246440 0.000000 
#    z 0.000000 0.000000 3.507070 
# 
# 
# High freq. dielectric constant tensor:
#      x y z
#    x 1.750960 0.000000 0.000000 
#    y 0.000000 1.707740 0.000000 
#    z 0.000000 0.000000 1.741270 
# 
# From -- ./inp_files/33296.got.cif
#   From: 2010.06.25/outbox.cif.g09.slc.cpg/sg71_17_cif.got.tgz:33296.got - 2010.06.28 04:59:45.
