data_PCOD8288765
_publ_section_title
;
Structure prediction by ZEFSAII (Michael W. Deem and Ramdas Pophale) SiO2 
 PCOD8288765
Probable space group: I M M M
;
_chemical_formula_sum "Si O2"
_cell_formula_units_Z 96
_cell_length_a 14.471780
_cell_length_b 23.303339
_cell_length_c 14.736085
_cell_angle_alpha 90.000000
_cell_angle_beta 90.000000
_cell_angle_gamma 90.000000
_cell_volume 4969.609025
_symmetry_space_group_name_H-M "I M M M"
_symmetry_group_IT_number 71
_symmetry_cell_setting 'orthorhombic'
loop_
_space_group_symop_operation_xyz
x,y,z
-x,-y,z
x,-y,-z
-x,y,-z
-x,-y,-z
x,y,-z
-x,y,z
x,-y,z
1/2+x,1/2+y,1/2+z
1/2-x,1/2-y,1/2+z
1/2+x,1/2-y,1/2-z
1/2-x,1/2+y,1/2-z
1/2-x,1/2-y,1/2-z
1/2+x,1/2+y,1/2-z
1/2-x,1/2+y,1/2+z
1/2+x,1/2-y,1/2+z
loop_
_atom_site_type_symbol
_atom_site_label
_atom_site_fract_x
_atom_site_fract_y
_atom_site_fract_z
Si Si1 0.664012 0.000000 0.252352
Si Si2 0.181927 0.000000 0.395085
Si Si3 0.728231 0.316448 0.251434
Si Si4 0.390731 0.934770 0.000000
Si Si5 0.896660 0.613580 0.310734
Si Si6 0.105920 0.877213 0.394121
Si Si7 0.178036 0.000000 0.106255
Si Si8 0.394158 0.376798 0.395907
O O1 0.720620 0.000000 0.344937
O O2 0.598303 0.055072 0.246946
O O3 0.730331 0.000000 0.165271
O O4 0.123365 0.943717 0.368403
O O5 0.206843 0.000000 0.500000
O O6 0.750000 0.250000 0.250000
O O7 0.828997 0.344516 0.257799
O O8 0.675292 0.336086 0.160503
O O9 0.667283 0.333596 0.337652
O O10 0.356129 0.900067 0.911539
O O11 0.500000 0.937195 0.000000
O O12 0.352754 0.000000 0.000000
O O13 0.000000 0.640060 0.315552
O O14 0.124418 0.866086 0.500000
O O15 0.000000 0.862639 0.368611
O O16 0.120151 0.056752 0.131974
O O17 0.203273 0.000000 0.000000
O O18 0.366434 0.367200 0.500000
O O19 0.500000 0.360927 0.377752
#
# Coordination Sequence:
#
# PCOD8288765 Si02
#       8
#     8   8  16   8  16  16   8  16
#     4  12  19  32  58  86 118 162 189 235 292 358
#     4  10  19  35  63  95 120 146 185 242 316 371
#     4  12  26  41  60  82 116 163 210 253 289 338
#     4   9  18  32  56  90 123 153 185 226 286 359
#     4  11  23  38  58  87 123 160 198 242 293 352
#     4  10  21  40  66  94 121 149 190 248 311 366
#     4  10  19  31  59  96 129 151 176 220 296 376
#     4  10  21  38  62  92 124 154 186 232 297 371
#
# _framework density 19.317416000000001
#
# number of rings (size 3 to 8) (size 9 to 14) (size 15 to 20)
#    0.000    1.417    4.167    1.250    2.333    4.000 
#    0.000    2.500    0.000    2.500    0.000    0.000 
#    0.000    0.000    0.000    0.000    0.000    0.000 
#
# Total GULP energy -595162.277619 kJ/mol
# GULP energy per Si atom -12399.214117 kJ/mol
# Density = 1.927345 g / cm^3
# Si number density = 19.317416 Si / 1000 Ang^3
#
#
#
# Elastic Constant Matrix: (Units=GPa)
#
#
# Indices 1 2 3 4 5 6 
#
# 1 106.3458 54.9858 51.0502 0.0000 0.0000 0.0000
# 2 54.9858 144.3272 49.9709 0.0002 0.0001 0.0001
# 3 51.0502 49.9709 89.3555 0.0003 0.0000 0.0002
# 4 0.0000 0.0002 0.0003 18.8470 0.0001 0.0001
# 5 0.0000 0.0001 0.0000 0.0001 35.2321 0.0000
# 6 0.0000 0.0001 0.0002 0.0001 0.0000 7.3910
#
#
#
# Elastic Compliance Matrix: (Units=1/GPa)
#
#
# Indices 1 2 3 4 5 6 
#
# 1 0.014050 -0.003192 -0.006242 0.000000 0.000000 0.000000
# 2 -0.003192 0.009317 -0.003387 0.000000 0.000000 0.000000
# 3 -0.006242 -0.003387 0.016652 0.000000 0.000000 0.000000
# 4 0.000000 0.000000 0.000000 0.053059 0.000000 -0.000001
# 5 0.000000 0.000000 0.000000 0.000000 0.028383 0.000000
# 6 0.000000 0.000000 0.000000 -0.000001 0.000000 0.135301
#
#
# Mechanical properties :
#
#
# Convention : Reuss Voigt Hill
#
# Bulk Modulus (GPa) = 69.55432 72.44917 71.00174
# Shear Modulus (GPa) = 17.40972 24.56211 20.98591
#
# Velocity S-wave (km/s) = 3.00533 3.56968 3.29959
# Velocity P-wave (km/s) = 6.93735 7.38757 7.16600
#
# Compressibility (1/GPa) = 0.01437725
#
# Stress axis : x y z
#
# Youngs Moduli (GPa) = 71.17479 107.32621 60.05368
#
# Poissons Ratio (x) = 0.34253 0.37486
# Poissons Ratio (y) = 0.22715 0.20342
# Poissons Ratio (z) = 0.44428 0.36354
#
# Static dielectric constant tensor:
#      x y z
#    x 3.548180 0.000000 0.000000 
#    y 0.000000 3.326520 0.000000 
#    z 0.000000 0.000000 3.656130 
# 
# 
# High freq. dielectric constant tensor:
#      x y z
#    x 1.762610 0.000000 0.000000 
#    y 0.000000 1.725800 0.000000 
#    z 0.000000 0.000000 1.751740 
# 
# From -- ./inp_files/34589.got.cif
#   From: 2010.06.25/outbox.cif.g09.slc.cpg/sg71_18_cif.got.tgz:34589.got - 2010.06.28 04:59:45.
