data_PCOD8288590
_publ_section_title
;
Structure prediction by ZEFSAII (Michael W. Deem and Ramdas Pophale) SiO2 
 PCOD8288590
Probable space group: I M M M
;
_chemical_formula_sum "Si O2"
_cell_formula_units_Z 96
_cell_length_a 13.805151
_cell_length_b 20.081283
_cell_length_c 20.667663
_cell_angle_alpha 90.000000
_cell_angle_beta 90.000000
_cell_angle_gamma 90.000000
_cell_volume 5729.595853
_symmetry_space_group_name_H-M "I M M M"
_symmetry_group_IT_number 71
_symmetry_cell_setting 'orthorhombic'
loop_
_space_group_symop_operation_xyz
x,y,z
-x,-y,z
x,-y,-z
-x,y,-z
-x,-y,-z
x,y,-z
-x,y,z
x,-y,z
1/2+x,1/2+y,1/2+z
1/2-x,1/2-y,1/2+z
1/2+x,1/2-y,1/2-z
1/2-x,1/2+y,1/2-z
1/2-x,1/2-y,1/2-z
1/2+x,1/2+y,1/2-z
1/2-x,1/2+y,1/2+z
1/2+x,1/2-y,1/2+z
loop_
_atom_site_type_symbol
_atom_site_label
_atom_site_fract_x
_atom_site_fract_y
_atom_site_fract_z
Si Si1 0.732144 0.374118 0.076645
Si Si2 0.610776 0.073981 0.336813
Si Si3 0.755466 0.758956 0.147670
Si Si4 0.391267 0.357082 0.576873
Si Si5 0.885950 0.000000 0.070284
Si Si6 0.886757 0.693207 0.251998
Si Si7 0.108164 0.000000 0.576805
O O1 0.838099 0.396730 0.099504
O O2 0.707764 0.304901 0.112296
O O3 0.658909 0.431953 0.100694
O O4 0.730252 0.363933 0.000000
O O5 0.500000 0.074310 0.357249
O O6 0.628875 0.117836 0.272782
O O7 0.648122 0.000000 0.320361
O O8 0.810850 0.803673 0.095777
O O9 0.836077 0.742631 0.201387
O O10 0.665594 0.798989 0.178854
O O11 0.392806 0.362575 0.500000
O O12 0.500000 0.337152 0.601058
O O13 0.359859 0.430086 0.606310
O O14 0.000000 0.000000 0.059751
O O15 0.834266 0.000000 0.000000
O O16 0.000000 0.711307 0.258380
O O17 0.109129 0.000000 0.500000
O O18 0.000000 0.000000 0.605112
#
# Coordination Sequence:
#
# PCOD8288590 Si02
#       7
#    16  16  16  16   8  16   8
#     4  10  19  31  48  73 101 126 158 198 244 301
#     4   9  17  31  51  72  96 127 160 198 245 293
#     4  10  19  31  49  72  95 128 161 205 242 288
#     4   9  16  28  48  74 102 128 154 191 242 296
#     4   7  12  24  42  65  95 126 148 173 222 284
#     4   9  19  34  48  65  93 129 166 202 241 280
#     4   9  18  32  47  64  91 128 163 194 231 281
#
# _framework density 16.755108
#
# number of rings (size 3 to 8) (size 9 to 14) (size 15 to 20)
#    0.000    2.833    0.833    2.000    0.000    1.667 
#    1.500    0.833    0.000    1.500    0.000    0.000 
#    0.000    2.000    0.000    0.000    0.000    0.000 
#
# Total GULP energy -594779.911648 kJ/mol
# GULP energy per Si atom -12391.248159 kJ/mol
# Density = 1.671697 g / cm^3
# Si number density = 16.755108 Si / 1000 Ang^3
#
#
#
# Elastic Constant Matrix: (Units=GPa)
#
#
# Indices 1 2 3 4 5 6 
#
# 1 76.7507 31.5000 33.6645 0.0000 0.0000 0.0000
# 2 31.5000 76.3928 23.7567 0.0000 0.0000 0.0000
# 3 33.6645 23.7567 53.0336 0.0000 0.0000 0.0000
# 4 0.0000 0.0000 0.0000 16.0646 0.0000 0.0000
# 5 0.0000 0.0000 0.0000 0.0000 24.5330 0.0000
# 6 0.0000 0.0000 0.0000 0.0000 0.0000 23.0364
#
#
#
# Elastic Compliance Matrix: (Units=1/GPa)
#
#
# Indices 1 2 3 4 5 6 
#
# 1 0.019500 -0.004870 -0.010197 0.000000 0.000000 0.000000
# 2 -0.004870 0.016425 -0.004266 0.000000 0.000000 0.000000
# 3 -0.010197 -0.004266 0.027240 0.000000 0.000000 0.000000
# 4 0.000000 0.000000 0.000000 0.062249 0.000000 0.000000
# 5 0.000000 0.000000 0.000000 0.000000 0.040761 0.000000
# 6 0.000000 0.000000 0.000000 0.000000 0.000000 0.043410
#
#
# Mechanical properties :
#
#
# Convention : Reuss Voigt Hill
#
# Bulk Modulus (GPa) = 40.81800 42.66881 41.74341
# Shear Modulus (GPa) = 19.49943 20.54387 20.02165
#
# Velocity S-wave (km/s) = 3.41514 3.50541 3.46057
# Velocity P-wave (km/s) = 6.32181 6.47343 6.39807
#
# Compressibility (1/GPa) = 0.02449899
#
# Stress axis : x y z
#
# Youngs Moduli (GPa) = 51.28081 60.88259 36.71082
#
# Poissons Ratio (x) = 0.29649 0.37434
# Poissons Ratio (y) = 0.24973 0.15663
# Poissons Ratio (z) = 0.52291 0.25975
#
# Static dielectric constant tensor:
#      x y z
#    x 3.098530 0.000000 0.000000 
#    y 0.000000 3.523800 0.000000 
#    z 0.000000 0.000000 2.842700 
# 
# 
# High freq. dielectric constant tensor:
#      x y z
#    x 1.630390 0.000000 0.000000 
#    y 0.000000 1.661440 0.000000 
#    z 0.000000 0.000000 1.613810 
# 
# From -- ./inp_files/59009.got.cif
#   From: 2010.06.25/outbox.cif.g09.slc.cpg/sg71_30_cif.got.tgz:59009.got - 2010.06.28 04:59:45.
