data_PCOD8288827
_publ_section_title
;
Structure prediction by ZEFSAII (Michael W. Deem and Ramdas Pophale) SiO2 
 PCOD8288827
Probable space group: I M M M
;
_chemical_formula_sum "Si O2"
_cell_formula_units_Z 120
_cell_length_a 9.418354
_cell_length_b 26.898647
_cell_length_c 27.463985
_cell_angle_alpha 90.000000
_cell_angle_beta 90.000000
_cell_angle_gamma 90.000000
_cell_volume 6957.752863
_symmetry_space_group_name_H-M "I M M M"
_symmetry_group_IT_number 71
_symmetry_cell_setting 'orthorhombic'
loop_
_space_group_symop_operation_xyz
x,y,z
-x,-y,z
x,-y,-z
-x,y,-z
-x,-y,-z
x,y,-z
-x,y,z
x,-y,z
1/2+x,1/2+y,1/2+z
1/2-x,1/2-y,1/2+z
1/2+x,1/2-y,1/2-z
1/2-x,1/2+y,1/2-z
1/2-x,1/2-y,1/2-z
1/2+x,1/2+y,1/2-z
1/2-x,1/2+y,1/2+z
1/2+x,1/2-y,1/2+z
loop_
_atom_site_type_symbol
_atom_site_label
_atom_site_fract_x
_atom_site_fract_y
_atom_site_fract_z
Si Si1 0.161733 0.911286 0.084314
Si Si2 0.836407 0.234517 0.362322
Si Si3 0.151083 0.500000 0.553555
Si Si4 0.835919 0.684950 0.443242
Si Si5 0.833059 0.348795 0.821225
Si Si6 0.666248 0.444022 0.206260
Si Si7 0.661913 0.815434 0.214050
Si Si8 0.656681 0.403868 0.692130
O O1 0.231439 0.857860 0.075045
O O2 0.161309 0.930571 0.140210
O O3 0.000000 0.909630 0.064580
O O4 0.254503 0.951412 0.057653
O O5 0.801895 0.266707 0.410330
O O6 0.737522 0.185326 0.363115
O O7 0.801372 0.263277 0.311532
O O8 0.000000 0.217543 0.362536
O O9 0.093600 0.500000 0.500000
O O10 0.000000 0.500000 0.584519
O O11 0.807611 0.697760 0.500000
O O12 0.000000 0.668696 0.435363
O O13 0.760296 0.403298 0.822168
O O14 0.800108 0.319366 0.771027
O O15 0.000000 0.355369 0.830932
O O16 0.500000 0.434109 0.196035
O O17 0.707675 0.500000 0.189546
O O18 0.702612 0.440263 0.263987
O O19 0.500000 0.828666 0.205245
O O20 0.744961 0.856785 0.184728
O O21 0.500000 0.383402 0.703977
#
# Coordination Sequence:
#
# PCOD8288827 Si02
#       8
#    16  16   8  16  16  16  16  16
#     4  11  22  35  54  75  96 122 160 213 265 310
#     4  10  19  32  50  71  99 132 167 203 244 299
#     4  11  25  41  53  65  85 119 163 211 263 315
#     4  10  21  37  56  75  98 131 169 209 254 306
#     4  10  20  31  47  73 103 130 163 205 249 293
#     4   9  18  33  52  70  96 134 171 203 240 291
#     4   9  17  30  47  68  95 127 163 199 236 285
#     4   9  18  30  47  71  96 124 159 199 244 293
#
# _framework density 17.246948
#
# number of rings (size 3 to 8) (size 9 to 14) (size 15 to 20)
#    0.000    2.200    1.333    1.800    0.933    4.800 
#    0.000    0.000    0.000    0.000    0.000    0.000 
#    0.000    0.533    0.000    6.133    0.000    1.733 
#
# Total GULP energy -743483.201954 kJ/mol
# GULP energy per Si atom -12391.386699 kJ/mol
# Density = 1.720769 g / cm^3
# Si number density = 17.246948 Si / 1000 Ang^3
#
#
#
# Elastic Constant Matrix: (Units=GPa)
#
#
# Indices 1 2 3 4 5 6 
#
# 1 94.2030 71.7083 28.2747 0.0000 0.0000 0.0000
# 2 71.7083 118.2386 39.6658 0.0000 0.0000 0.0000
# 3 28.2747 39.6658 43.2506 0.0000 0.0000 0.0000
# 4 0.0000 0.0000 0.0000 22.4288 0.0000 0.0000
# 5 0.0000 0.0000 0.0000 0.0000 17.0311 0.0000
# 6 0.0000 0.0000 0.0000 0.0000 0.0000 78.3275
#
#
#
# Elastic Compliance Matrix: (Units=1/GPa)
#
#
# Indices 1 2 3 4 5 6 
#
# 1 0.019952 -0.011158 -0.002811 0.000000 0.000000 0.000000
# 2 -0.011158 0.018455 -0.009632 0.000000 0.000000 0.000000
# 3 -0.002811 -0.009632 0.033792 0.000000 0.000000 0.000000
# 4 0.000000 0.000000 0.000000 0.044586 0.000000 0.000000
# 5 0.000000 0.000000 0.000000 0.000000 0.058716 0.000000
# 6 0.000000 0.000000 0.000000 0.000000 0.000000 0.012767
#
#
# Mechanical properties :
#
#
# Convention : Reuss Voigt Hill
#
# Bulk Modulus (GPa) = 40.00063 59.44330 49.72197
# Shear Modulus (GPa) = 20.50851 31.29369 25.90110
#
# Velocity S-wave (km/s) = 3.45209 4.26425 3.87948
# Velocity P-wave (km/s) = 6.25559 7.66720 6.99709
#
# Compressibility (1/GPa) = 0.02499961
#
# Stress axis : x y z
#
# Youngs Moduli (GPa) = 50.11957 54.18496 29.59294
#
# Poissons Ratio (x) = 0.60457 0.08318
# Poissons Ratio (y) = 0.55921 0.28502
# Poissons Ratio (z) = 0.14088 0.52188
#
# Static dielectric constant tensor:
#      x y z
#    x 3.304480 0.000000 0.000000 
#    y 0.000000 3.106600 0.000000 
#    z 0.000000 0.000000 3.030480 
# 
# 
# High freq. dielectric constant tensor:
#      x y z
#    x 1.678100 0.000000 0.000000 
#    y 0.000000 1.650200 0.000000 
#    z 0.000000 0.000000 1.630710 
# 
# From -- ./inp_files/63792.got.cif
#   From: 2010.06.25/outbox.cif.g09.slc.cpg/sg71_32_cif.got.tgz:63792.got - 2010.06.28 04:59:45.
