data_PCOD8288605
_publ_section_title
;
Structure prediction by ZEFSAII (Michael W. Deem and Ramdas Pophale) SiO2 
 PCOD8288605
Probable space group: I M M M
;
_chemical_formula_sum "Si O2"
_cell_formula_units_Z 96
_cell_length_a 20.912033
_cell_length_b 12.954980
_cell_length_c 21.037484
_cell_angle_alpha 90.000000
_cell_angle_beta 90.000000
_cell_angle_gamma 90.000000
_cell_volume 5699.369331
_symmetry_space_group_name_H-M "I M M M"
_symmetry_group_IT_number 71
_symmetry_cell_setting 'orthorhombic'
loop_
_space_group_symop_operation_xyz
x,y,z
-x,-y,z
x,-y,-z
-x,y,-z
-x,-y,-z
x,y,-z
-x,y,z
x,-y,z
1/2+x,1/2+y,1/2+z
1/2-x,1/2-y,1/2+z
1/2+x,1/2-y,1/2-z
1/2-x,1/2+y,1/2-z
1/2-x,1/2-y,1/2-z
1/2+x,1/2+y,1/2-z
1/2-x,1/2+y,1/2+z
1/2+x,1/2-y,1/2+z
loop_
_atom_site_type_symbol
_atom_site_label
_atom_site_fract_x
_atom_site_fract_y
_atom_site_fract_z
Si Si1 0.424073 0.207338 0.859944
Si Si2 0.347179 0.618915 0.073630
Si Si3 0.924004 0.115245 0.135448
Si Si4 0.069865 0.122411 0.000000
Si Si5 0.924227 0.500000 0.570760
Si Si6 0.245828 0.118773 0.684257
Si Si7 0.351555 0.741785 0.264312
O O1 0.500000 0.211471 0.851314
O O2 0.403526 0.306969 0.901244
O O3 0.400406 0.103127 0.894265
O O4 0.390094 0.203005 0.791869
O O5 0.369543 0.500000 0.083309
O O6 0.282542 0.640069 0.113809
O O7 0.332511 0.642360 0.000000
O O8 0.903302 0.190763 0.190557
O O9 0.000000 0.115856 0.130742
O O10 0.899386 0.000000 0.151234
O O11 0.895145 0.152853 0.066508
O O12 0.000000 0.175232 0.000000
O O13 0.061441 0.000000 0.000000
O O14 0.894916 0.500000 0.500000
O O15 0.000000 0.500000 0.567591
O O16 0.312580 0.177007 0.693226
O O17 0.195452 0.154859 0.737214
O O18 0.260000 0.000000 0.695693
#
# Coordination Sequence:
#
# PCOD8288605 Si02
#       7
#    16  16  16   8   8  16  16
#     4  10  20  32  49  76 104 131 167 202 249 312
#     4   9  18  34  54  74  99 129 164 209 255 300
#     4   9  16  28  48  73 101 129 156 194 246 300
#     4   7  12  24  42  66  95 125 151 179 229 292
#     4   9  18  32  48  68  98 135 167 197 234 288
#     4   9  19  34  49  67  92 128 167 203 246 286
#     4  10  19  31  49  72  95 128 162 207 246 292
#
# _framework density 16.843969000000001
#
# number of rings (size 3 to 8) (size 9 to 14) (size 15 to 20)
#    0.000    2.833    0.000    2.500    1.167    2.000 
#    1.500    0.833    0.000    0.000    0.000    0.000 
#    0.000    2.000    0.000    0.000    0.000    0.000 
#
# Total GULP energy -594924.656037 kJ/mol
# GULP energy per Si atom -12394.263667 kJ/mol
# Density = 1.680563 g / cm^3
# Si number density = 16.843969 Si / 1000 Ang^3
#
#
#
# Elastic Constant Matrix: (Units=GPa)
#
#
# Indices 1 2 3 4 5 6 
#
# 1 58.2310 38.0724 39.6387 0.0000 0.0000 0.0000
# 2 38.0724 96.8454 53.9417 0.0000 0.0000 0.0000
# 3 39.6387 53.9417 120.6790 0.0000 0.0000 0.0000
# 4 0.0000 0.0000 0.0000 29.0646 0.0000 0.0000
# 5 0.0000 0.0000 0.0000 0.0000 15.7455 0.0000
# 6 0.0000 0.0000 0.0000 0.0000 0.0000 20.7296
#
#
#
# Elastic Compliance Matrix: (Units=1/GPa)
#
#
# Indices 1 2 3 4 5 6 
#
# 1 0.025307 -0.007082 -0.005147 0.000000 0.000000 0.000000
# 2 -0.007082 0.015731 -0.004705 0.000000 0.000000 0.000000
# 3 -0.005147 -0.004705 0.012080 0.000000 0.000000 0.000000
# 4 0.000000 0.000000 0.000000 0.034406 0.000000 0.000000
# 5 0.000000 0.000000 0.000000 0.000000 0.063510 0.000000
# 6 0.000000 0.000000 0.000000 0.000000 0.000000 0.048240
#
#
# Mechanical properties :
#
#
# Convention : Reuss Voigt Hill
#
# Bulk Modulus (GPa) = 51.94932 59.89568 55.92250
# Shear Modulus (GPa) = 20.87173 22.71478 21.79325
#
# Velocity S-wave (km/s) = 3.52393 3.67623 3.60089
# Velocity P-wave (km/s) = 6.88955 7.32502 7.11062
#
# Compressibility (1/GPa) = 0.01924953
#
# Stress axis : x y z
#
# Youngs Moduli (GPa) = 39.51501 63.57052 82.78063
#
# Poissons Ratio (x) = 0.45021 0.42606
# Poissons Ratio (y) = 0.27985 0.38949
# Poissons Ratio (z) = 0.20338 0.29911
#
# Static dielectric constant tensor:
#      x y z
#    x 2.877130 0.000000 0.000000 
#    y 0.000000 3.135280 0.000000 
#    z 0.000000 0.000000 3.461770 
# 
# 
# High freq. dielectric constant tensor:
#      x y z
#    x 1.621260 0.000000 0.000000 
#    y 0.000000 1.641490 0.000000 
#    z 0.000000 0.000000 1.666310 
# 
# From -- ./inp_files/55739.got.cif
#   From: 2010.06.25/outbox.cif.g09.slc.cpg/sg71_28_cif.got.tgz:55739.got - 2010.06.28 04:59:45.
