data_PCOD8288692
_publ_section_title
;
Structure prediction by ZEFSAII (Michael W. Deem and Ramdas Pophale) SiO2 
 PCOD8288692
Probable space group: I M M M
;
_chemical_formula_sum "Si O2"
_cell_formula_units_Z 96
_cell_length_a 11.532310
_cell_length_b 13.667709
_cell_length_c 33.042837
_cell_angle_alpha 90.000000
_cell_angle_beta 90.000000
_cell_angle_gamma 90.000000
_cell_volume 5208.220466
_symmetry_space_group_name_H-M "I M M M"
_symmetry_group_IT_number 71
_symmetry_cell_setting 'orthorhombic'
loop_
_space_group_symop_operation_xyz
x,y,z
-x,-y,z
x,-y,-z
-x,y,-z
-x,-y,-z
x,y,-z
-x,y,z
x,-y,z
1/2+x,1/2+y,1/2+z
1/2-x,1/2-y,1/2+z
1/2+x,1/2-y,1/2-z
1/2-x,1/2+y,1/2-z
1/2-x,1/2-y,1/2-z
1/2+x,1/2+y,1/2-z
1/2-x,1/2+y,1/2+z
1/2+x,1/2-y,1/2+z
loop_
_atom_site_type_symbol
_atom_site_label
_atom_site_fract_x
_atom_site_fract_y
_atom_site_fract_z
Si Si1 0.867268 0.887326 0.953080
Si Si2 0.745984 0.115778 0.733522
Si Si3 0.000000 0.385397 0.648944
Si Si4 0.637284 0.387215 0.848652
Si Si5 0.364320 0.387591 0.313914
Si Si6 0.770334 0.294881 0.615712
Si Si7 0.500000 0.115988 0.240247
O O1 0.778628 0.819026 0.928593
O O2 0.000000 0.856921 0.944039
O O3 0.848812 0.000000 0.940259
O O4 0.838229 0.872611 0.000000
O O5 0.812882 0.152700 0.693924
O O6 0.805206 0.158969 0.773949
O O7 0.611973 0.150147 0.734098
O O8 0.758928 0.000000 0.734942
O O9 0.887358 0.353315 0.624477
O O10 0.000000 0.340136 0.694503
O O11 0.000000 0.500000 0.652013
O O12 0.500000 0.370157 0.849074
O O13 0.669227 0.500000 0.856955
O O14 0.699916 0.321082 0.882646
O O15 0.500000 0.381520 0.307521
O O16 0.323862 0.500000 0.320558
O O17 0.328455 0.324177 0.352377
O O18 0.500000 0.000000 0.235942
#
# Coordination Sequence:
#
# PCOD8288692 Si02
#       7
#    16  16   8  16  16  16   8
#     4   9  19  38  64  92 121 148 170 202 257 327
#     4   9  17  32  51  70 101 144 188 235 282 321
#     4  11  20  32  50  79 116 146 173 218 283 344
#     4  10  22  40  56  72 102 145 196 245 279 310
#     4  10  19  31  50  78 110 143 181 227 274 328
#     4  12  21  34  55  83 108 145 183 222 271 328
#     4   9  16  30  48  70 107 148 177 222 289 337
#
# _framework density 18.432400000000001
#
# number of rings (size 3 to 8) (size 9 to 14) (size 15 to 20)
#    0.000    2.000    2.500    3.000    0.000    4.000 
#    3.000    0.417    0.000    2.000    0.000    2.333 
#    0.000    0.000    0.000    0.000    0.000    0.000 
#
# Total GULP energy -595209.803381 kJ/mol
# GULP energy per Si atom -12400.204237 kJ/mol
# Density = 1.839045 g / cm^3
# Si number density = 18.432400 Si / 1000 Ang^3
#
#
#
# Elastic Constant Matrix: (Units=GPa)
#
#
# Indices 1 2 3 4 5 6 
#
# 1 105.4967 38.6365 48.4071 0.0000 0.0000 0.0000
# 2 38.6365 74.7138 39.5810 0.0000 0.0000 0.0000
# 3 48.4071 39.5810 87.6838 0.0000 0.0000 0.0000
# 4 0.0000 0.0000 0.0000 23.0560 0.0000 0.0000
# 5 0.0000 0.0000 0.0000 0.0000 30.5941 0.0000
# 6 0.0000 0.0000 0.0000 0.0000 0.0000 25.4275
#
#
#
# Elastic Compliance Matrix: (Units=1/GPa)
#
#
# Indices 1 2 3 4 5 6 
#
# 1 0.013547 -0.004000 -0.005673 0.000000 0.000000 0.000000
# 2 -0.004000 0.018772 -0.006266 0.000000 0.000000 0.000000
# 3 -0.005673 -0.006266 0.017365 0.000000 0.000000 0.000000
# 4 0.000000 0.000000 0.000000 0.043373 0.000000 0.000000
# 5 0.000000 0.000000 0.000000 0.000000 0.032686 0.000000
# 6 0.000000 0.000000 0.000000 0.000000 0.000000 0.039328
#
#
# Mechanical properties :
#
#
# Convention : Reuss Voigt Hill
#
# Bulk Modulus (GPa) = 56.15927 57.90481 57.03204
# Shear Modulus (GPa) = 24.64465 25.23350 24.93907
#
# Velocity S-wave (km/s) = 3.66051 3.70398 3.68231
# Velocity P-wave (km/s) = 6.95698 7.05518 7.00625
#
# Compressibility (1/GPa) = 0.01780650
#
# Stress axis : x y z
#
# Youngs Moduli (GPa) = 73.81669 53.27001 57.58732
#
# Poissons Ratio (x) = 0.21308 0.32670
# Poissons Ratio (y) = 0.29527 0.36082
# Poissons Ratio (z) = 0.41878 0.33377
#
# Static dielectric constant tensor:
#      x y z
#    x 3.589010 0.000000 0.000000 
#    y 0.000000 3.398510 0.000000 
#    z 0.000000 0.000000 3.130420 
# 
# 
# High freq. dielectric constant tensor:
#      x y z
#    x 1.728270 0.000000 0.000000 
#    y 0.000000 1.710920 0.000000 
#    z 0.000000 0.000000 1.676060 
# 
# From -- ./inp_files/69257.got.cif
#   From: 2010.06.25/outbox.cif.g09.slc.cpg/sg71_35_cif.got.tgz:69257.got - 2010.06.28 04:59:45.
