data_PCOD8288578
_publ_section_title
;
Structure prediction by ZEFSAII (Michael W. Deem and Ramdas Pophale) SiO2 
 PCOD8288578
Probable space group: I M M M
;
_chemical_formula_sum "Si O2"
_cell_formula_units_Z 120
_cell_length_a 18.299609
_cell_length_b 19.293593
_cell_length_c 20.858356
_cell_angle_alpha 90.000000
_cell_angle_beta 90.000000
_cell_angle_gamma 90.000000
_cell_volume 7364.359802
_symmetry_space_group_name_H-M "I M M M"
_symmetry_group_IT_number 71
_symmetry_cell_setting 'orthorhombic'
loop_
_space_group_symop_operation_xyz
x,y,z
-x,-y,z
x,-y,-z
-x,y,-z
-x,-y,-z
x,y,-z
-x,y,z
x,-y,z
1/2+x,1/2+y,1/2+z
1/2-x,1/2-y,1/2+z
1/2+x,1/2-y,1/2-z
1/2-x,1/2+y,1/2-z
1/2-x,1/2-y,1/2-z
1/2+x,1/2+y,1/2-z
1/2-x,1/2+y,1/2+z
1/2+x,1/2-y,1/2+z
loop_
_atom_site_type_symbol
_atom_site_label
_atom_site_fract_x
_atom_site_fract_y
_atom_site_fract_z
Si Si1 0.158665 0.920227 0.752011
Si Si2 0.417487 0.579353 0.879051
Si Si3 0.865148 0.424206 0.072728
Si Si4 0.580220 0.806980 0.657384
Si Si5 0.415953 0.650091 0.371726
Si Si6 0.719964 0.654220 0.928261
Si Si7 0.086855 0.078384 0.000000
Si Si8 0.268143 0.812208 0.295844
O O1 0.098053 0.913795 0.696669
O O2 0.130456 0.880400 0.813840
O O3 0.232865 0.883911 0.727786
O O4 0.175901 0.000000 0.768604
O O5 0.500000 0.605874 0.891701
O O6 0.409161 0.500000 0.901105
O O7 0.361867 0.625133 0.920629
O O8 0.877247 0.500000 0.104497
O O9 0.916439 0.366772 0.104467
O O10 0.778868 0.407434 0.078426
O O11 0.890511 0.426559 0.000000
O O12 0.500000 0.808724 0.690555
O O13 0.593070 0.732709 0.623975
O O14 0.644183 0.821264 0.708491
O O15 0.500000 0.628102 0.361649
O O16 0.384002 0.618029 0.437202
O O17 0.740443 0.705919 0.868997
O O18 0.725830 0.688437 0.000000
O O19 0.000000 0.079227 0.000000
O O20 0.117091 0.000000 0.000000
O O21 0.250000 0.750000 0.250000
#
# Coordination Sequence:
#
# PCOD8288578 Si02
#       8
#    16  16  16  16  16  16   8  16
#     4  10  19  32  52  72  93 127 169 210 246 291
#     4   9  17  27  42  68  98 127 161 201 243 287
#     4   9  18  32  49  68  94 131 172 208 241 286
#     4  10  21  33  49  72  97 125 160 202 252 296
#     4  10  19  31  48  71 101 133 163 201 248 300
#     4   9  18  31  48  68  94 126 165 205 247 291
#     4   9  18  30  44  66  99 135 164 194 241 296
#     4  10  19  36  53  70  96 129 166 204 241 295
#
# _framework density 16.294695999999998
#
# number of rings (size 3 to 8) (size 9 to 14) (size 15 to 20)
#    0.000    2.467    1.333    1.200    0.933    6.133 
#    0.000    1.333    0.000    0.000    0.000    0.000 
#    0.000    0.000    0.000    0.000    0.000    2.933 
#
# Total GULP energy -743626.181835 kJ/mol
# GULP energy per Si atom -12393.769697 kJ/mol
# Density = 1.625761 g / cm^3
# Si number density = 16.294696 Si / 1000 Ang^3
#
#
#
# Elastic Constant Matrix: (Units=GPa)
#
#
# Indices 1 2 3 4 5 6 
#
# 1 107.9981 31.9703 31.5771 0.0000 0.0000 0.0000
# 2 31.9703 95.7842 40.1779 0.0000 0.0000 0.0000
# 3 31.5771 40.1779 100.2571 0.0000 0.0000 0.0000
# 4 0.0000 0.0000 0.0000 24.7360 0.0000 0.0000
# 5 0.0000 0.0000 0.0000 0.0000 15.7371 0.0000
# 6 0.0000 0.0000 0.0000 0.0000 0.0000 17.9077
#
#
#
# Elastic Compliance Matrix: (Units=1/GPa)
#
#
# Indices 1 2 3 4 5 6 
#
# 1 0.010710 -0.002596 -0.002333 0.000000 0.000000 0.000000
# 2 -0.002596 0.013179 -0.004464 0.000000 0.000000 0.000000
# 3 -0.002333 -0.004464 0.012498 0.000000 0.000000 0.000000
# 4 0.000000 0.000000 0.000000 0.040427 0.000000 0.000000
# 5 0.000000 0.000000 0.000000 0.000000 0.063544 0.000000
# 6 0.000000 0.000000 0.000000 0.000000 0.000000 0.055842
#
#
# Mechanical properties :
#
#
# Convention : Reuss Voigt Hill
#
# Bulk Modulus (GPa) = 56.81354 56.83224 56.82289
# Shear Modulus (GPa) = 22.63953 25.03044 23.83498
#
# Velocity S-wave (km/s) = 3.73148 3.92358 3.82873
# Velocity P-wave (km/s) = 7.31487 7.44845 7.38196
#
# Compressibility (1/GPa) = 0.01760144
#
# Stress axis : x y z
#
# Youngs Moduli (GPa) = 93.37015 75.87789 80.01306
#
# Poissons Ratio (x) = 0.19699 0.18666
# Poissons Ratio (y) = 0.24241 0.35716
# Poissons Ratio (z) = 0.21782 0.33870
#
# Static dielectric constant tensor:
#      x y z
#    x 3.108430 0.000000 0.000000 
#    y 0.000000 3.083330 0.000000 
#    z 0.000000 0.000000 3.168090 
# 
# 
# High freq. dielectric constant tensor:
#      x y z
#    x 1.619580 0.000000 0.000000 
#    y 0.000000 1.613760 0.000000 
#    z 0.000000 0.000000 1.617910 
# 
# From -- ./inp_files/47562.got.cif
#   From: 2010.06.25/outbox.cif.g09.slc.cpg/sg71_24_cif.got.tgz:47562.got - 2010.06.28 04:59:45.
