data_PCOD8288083
_publ_section_title
;
Structure prediction by ZEFSAII (Michael W. Deem and Ramdas Pophale) SiO2 
 PCOD8288083
Probable space group: I M M M
;
_chemical_formula_sum "Si O2"
_cell_formula_units_Z 104
_cell_length_a 17.175613
_cell_length_b 19.695315
_cell_length_c 17.365742
_cell_angle_alpha 90.000000
_cell_angle_beta 90.000000
_cell_angle_gamma 90.000000
_cell_volume 5874.467720
_symmetry_space_group_name_H-M "I M M M"
_symmetry_group_IT_number 71
_symmetry_cell_setting 'orthorhombic'
loop_
_space_group_symop_operation_xyz
x,y,z
-x,-y,z
x,-y,-z
-x,y,-z
-x,-y,-z
x,y,-z
-x,y,z
x,-y,z
1/2+x,1/2+y,1/2+z
1/2-x,1/2-y,1/2+z
1/2+x,1/2-y,1/2-z
1/2-x,1/2+y,1/2-z
1/2-x,1/2-y,1/2-z
1/2+x,1/2+y,1/2-z
1/2-x,1/2+y,1/2+z
1/2+x,1/2-y,1/2+z
loop_
_atom_site_type_symbol
_atom_site_label
_atom_site_fract_x
_atom_site_fract_y
_atom_site_fract_z
Si Si1 0.339571 0.922415 0.350116
Si Si2 0.000000 0.580783 0.913331
Si Si3 0.284207 0.923589 0.820126
Si Si4 0.588623 0.275989 0.182639
Si Si5 0.087509 0.639426 0.588481
Si Si6 0.696493 0.288017 0.688466
Si Si7 0.270970 0.315987 0.912304
O O1 0.424044 0.891178 0.369643
O O2 0.328130 0.912114 0.259881
O O3 0.274012 0.885887 0.400071
O O4 0.334587 0.000000 0.375848
O O5 0.000000 0.500000 0.911782
O O6 0.000000 0.608921 0.000000
O O7 0.348743 0.916443 0.887593
O O8 0.216112 0.867379 0.826517
O O9 0.248722 0.000000 0.825701
O O10 0.500000 0.301160 0.171684
O O11 0.600533 0.201641 0.146642
O O12 0.609980 0.280036 0.274379
O O13 0.649361 0.323285 0.136790
O O14 0.101617 0.662227 0.500000
O O15 0.000000 0.609973 0.597623
O O16 0.750000 0.250000 0.750000
O O17 0.712645 0.246345 0.610384
O O18 0.295044 0.305856 0.000000
#
# Coordination Sequence:
#
# PCOD8288083 Si02
#       7
#    16   8  16  16  16  16  16
#     4  10  20  34  52  75 104 142 179 215 263 321
#     4   9  18  32  48  70 105 139 170 208 253 314
#     4  11  21  34  53  74 101 139 180 215 259 316
#     4  10  19  34  57  79 105 143 183 224 267 318
#     4  10  20  33  50  77 113 146 177 215 262 319
#     4  10  18  37  53  75 102 135 179 221 260 309
#     4  11  20  33  56  80 106 140 176 223 272 320
#
# _framework density 17.703731000000001
#
# number of rings (size 3 to 8) (size 9 to 14) (size 15 to 20)
#    0.000    1.769    6.154    0.923    1.077    2.462 
#    1.385    0.769    0.000    1.846    0.000    1.077 
#    0.000    0.000    0.000    2.769    0.000    0.000 
#
# Total GULP energy -644472.666834 kJ/mol
# GULP energy per Si atom -12393.705131 kJ/mol
# Density = 1.766344 g / cm^3
# Si number density = 17.703731 Si / 1000 Ang^3
#
#
#
# Elastic Constant Matrix: (Units=GPa)
#
#
# Indices 1 2 3 4 5 6 
#
# 1 101.5677 34.2019 36.4774 0.0000 0.0000 0.0000
# 2 34.2019 84.8461 19.1893 0.0000 0.0000 0.0000
# 3 36.4774 19.1893 66.2607 0.0000 0.0000 0.0000
# 4 0.0000 0.0000 0.0000 10.9290 0.0000 0.0000
# 5 0.0000 0.0000 0.0000 0.0000 23.0432 0.0000
# 6 0.0000 0.0000 0.0000 0.0000 0.0000 21.0680
#
#
#
# Elastic Compliance Matrix: (Units=1/GPa)
#
#
# Indices 1 2 3 4 5 6 
#
# 1 0.013434 -0.004005 -0.006236 0.000000 0.000000 0.000000
# 2 -0.004005 0.013806 -0.001794 0.000000 0.000000 0.000000
# 3 -0.006236 -0.001794 0.019044 0.000000 0.000000 0.000000
# 4 0.000000 0.000000 0.000000 0.091500 0.000000 0.000000
# 5 0.000000 0.000000 0.000000 0.000000 0.043397 0.000000
# 6 0.000000 0.000000 0.000000 0.000000 0.000000 0.047465
#
#
# Mechanical properties :
#
#
# Convention : Reuss Voigt Hill
#
# Bulk Modulus (GPa) = 45.01301 48.04575 46.52938
# Shear Modulus (GPa) = 19.22199 21.86179 20.54189
#
# Velocity S-wave (km/s) = 3.29866 3.51788 3.41003
# Velocity P-wave (km/s) = 6.32370 6.61047 6.46867
#
# Compressibility (1/GPa) = 0.02221580
#
# Stress axis : x y z
#
# Youngs Moduli (GPa) = 74.43942 72.43187 52.50970
#
# Poissons Ratio (x) = 0.29008 0.32743
# Poissons Ratio (y) = 0.29812 0.09418
# Poissons Ratio (z) = 0.46418 0.12991
#
# Static dielectric constant tensor:
#      x y z
#    x 3.458430 0.000000 0.000000 
#    y 0.000000 3.210560 0.000000 
#    z 0.000000 0.000000 3.495650 
# 
# 
# High freq. dielectric constant tensor:
#      x y z
#    x 1.666950 0.000000 0.000000 
#    y 0.000000 1.662410 0.000000 
#    z 0.000000 0.000000 1.685210 
# 
# From -- ./inp_files/46133.got.cif
#   From: 2010.06.25/outbox.cif.g09.slc.cpg/sg71_24_cif.got.tgz:46133.got - 2010.06.28 04:59:45.
