data_PCOD8288069
_publ_section_title
;
Structure prediction by ZEFSAII (Michael W. Deem and Ramdas Pophale) SiO2 
 PCOD8288069
Probable space group: I M M M
;
_chemical_formula_sum "Si O2"
_cell_formula_units_Z 88
_cell_length_a 21.518497
_cell_length_b 11.347230
_cell_length_c 19.119082
_cell_angle_alpha 90.000000
_cell_angle_beta 90.000000
_cell_angle_gamma 90.000000
_cell_volume 4668.408247
_symmetry_space_group_name_H-M "I M M M"
_symmetry_group_IT_number 71
_symmetry_cell_setting 'orthorhombic'
loop_
_space_group_symop_operation_xyz
x,y,z
-x,-y,z
x,-y,-z
-x,y,-z
-x,-y,-z
x,y,-z
-x,y,z
x,-y,z
1/2+x,1/2+y,1/2+z
1/2-x,1/2-y,1/2+z
1/2+x,1/2-y,1/2-z
1/2-x,1/2+y,1/2-z
1/2-x,1/2-y,1/2-z
1/2+x,1/2+y,1/2-z
1/2-x,1/2+y,1/2+z
1/2+x,1/2-y,1/2+z
loop_
_atom_site_type_symbol
_atom_site_label
_atom_site_fract_x
_atom_site_fract_y
_atom_site_fract_z
Si Si1 0.646141 0.364091 0.080570
Si Si2 0.572129 0.740883 0.204365
Si Si3 0.069313 0.500000 0.676755
Si Si4 0.500000 0.360425 0.422199
Si Si5 0.682187 0.000000 0.918560
Si Si6 0.378382 0.360994 0.658710
Si Si7 0.738179 0.280019 0.419043
O O1 0.635484 0.500000 0.098090
O O2 0.600093 0.286919 0.128039
O O3 0.719424 0.335559 0.093311
O O4 0.629660 0.333953 0.000000
O O5 0.500000 0.701996 0.206365
O O6 0.611786 0.665506 0.259723
O O7 0.579441 0.880484 0.221911
O O8 0.113706 0.500000 0.611066
O O9 0.000000 0.500000 0.645555
O O10 0.500000 0.500000 0.425478
O O11 0.500000 0.306226 0.500000
O O12 0.560661 0.316388 0.381779
O O13 0.719417 0.886926 0.892795
O O14 0.673609 0.000000 0.000000
O O15 0.365175 0.500000 0.647012
O O16 0.322684 0.280788 0.629150
O O17 0.717671 0.294083 0.500000
#
# Coordination Sequence:
#
# PCOD8288069 Si02
#       7
#    16  16   8   8   8  16  16
#     4  10  22  40  60  85 117 152 192 236 284 345
#     4  11  23  40  59  83 116 154 193 240 288 337
#     4  10  22  39  58  82 113 153 198 239 280 339
#     4   9  18  32  54  85 116 146 187 235 283 338
#     4  10  18  35  60  85 112 144 185 239 292 341
#     4  11  21  35  57  86 117 153 189 235 292 347
#     4  10  20  36  59  86 117 150 188 237 291 345
#
# _framework density 18.850107999999999
#
# number of rings (size 3 to 8) (size 9 to 14) (size 15 to 20)
#    0.000    1.727    3.636    1.091    0.000    3.091 
#    1.636    2.727    0.000    0.000    0.000    0.636 
#    0.000    0.000    0.000    0.000    0.000    0.000 
#
# Total GULP energy -545561.826951 kJ/mol
# GULP energy per Si atom -12399.132431 kJ/mol
# Density = 1.880720 g / cm^3
# Si number density = 18.850108 Si / 1000 Ang^3
#
#
#
# Elastic Constant Matrix: (Units=GPa)
#
#
# Indices 1 2 3 4 5 6 
#
# 1 110.0459 18.5841 48.6362 0.0000 0.0000 0.0000
# 2 18.5841 63.5451 22.5943 0.0000 0.0000 0.0000
# 3 48.6362 22.5943 88.9968 0.0000 0.0000 0.0000
# 4 0.0000 0.0000 0.0000 19.6587 0.0000 0.0000
# 5 0.0000 0.0000 0.0000 0.0000 37.7557 0.0000
# 6 0.0000 0.0000 0.0000 0.0000 0.0000 25.9282
#
#
#
# Elastic Compliance Matrix: (Units=1/GPa)
#
#
# Indices 1 2 3 4 5 6 
#
# 1 0.012078 -0.001303 -0.006270 0.000000 0.000000 0.000000
# 2 -0.001303 0.017439 -0.003715 0.000000 0.000000 0.000000
# 3 -0.006270 -0.003715 0.015606 0.000000 0.000000 0.000000
# 4 0.000000 0.000000 0.000000 0.050868 0.000000 0.000000
# 5 0.000000 0.000000 0.000000 0.000000 0.026486 0.000000
# 6 0.000000 0.000000 0.000000 0.000000 0.000000 0.038568
#
#
# Mechanical properties :
#
#
# Convention : Reuss Voigt Hill
#
# Bulk Modulus (GPa) = 44.35200 49.13521 46.74360
# Shear Modulus (GPa) = 26.15923 28.18674 27.17299
#
# Velocity S-wave (km/s) = 3.72929 3.87112 3.80087
# Velocity P-wave (km/s) = 6.49025 6.78996 6.64180
#
# Compressibility (1/GPa) = 0.02254690
#
# Stress axis : x y z
#
# Youngs Moduli (GPa) = 82.79372 57.34287 64.07777
#
# Poissons Ratio (x) = 0.07472 0.40176
# Poissons Ratio (y) = 0.10788 0.23807
# Poissons Ratio (z) = 0.51911 0.21305
#
# Static dielectric constant tensor:
#      x y z
#    x 3.488920 0.000000 0.000000 
#    y 0.000000 3.402980 0.000000 
#    z 0.000000 0.000000 3.321440 
# 
# 
# High freq. dielectric constant tensor:
#      x y z
#    x 1.738570 0.000000 0.000000 
#    y 0.000000 1.720770 0.000000 
#    z 0.000000 0.000000 1.721320 
# 
# From -- ./inp_files/25694.got.cif
#   From: 2010.06.25/outbox.cif.g09.slc.cpg/sg71_13_cif.got.tgz:25694.got - 2010.06.28 04:59:45.
