data_PCOD8288045
_publ_section_title
;
Structure prediction by ZEFSAII (Michael W. Deem and Ramdas Pophale) SiO2 
 PCOD8288045
Probable space group: I M M M
;
_chemical_formula_sum "Si O2"
_cell_formula_units_Z 64
_cell_length_a 9.270117
_cell_length_b 10.103415
_cell_length_c 37.408823
_cell_angle_alpha 90.000000
_cell_angle_beta 90.000000
_cell_angle_gamma 90.000000
_cell_volume 3503.704345
_symmetry_space_group_name_H-M "I M M M"
_symmetry_group_IT_number 71
_symmetry_cell_setting 'orthorhombic'
loop_
_space_group_symop_operation_xyz
x,y,z
-x,-y,z
x,-y,-z
-x,y,-z
-x,-y,-z
x,y,-z
-x,y,z
x,-y,z
1/2+x,1/2+y,1/2+z
1/2-x,1/2-y,1/2+z
1/2+x,1/2-y,1/2-z
1/2-x,1/2+y,1/2-z
1/2-x,1/2-y,1/2-z
1/2+x,1/2+y,1/2-z
1/2-x,1/2+y,1/2+z
1/2+x,1/2-y,1/2+z
loop_
_atom_site_type_symbol
_atom_site_label
_atom_site_fract_x
_atom_site_fract_y
_atom_site_fract_z
Si Si1 0.829453 0.348853 0.592108
Si Si2 0.171375 0.500000 0.721982
Si Si3 0.329763 0.772869 0.830260
Si Si4 0.166505 0.349804 0.958379
Si Si5 0.329833 0.500000 0.796760
O O1 0.787005 0.500000 0.583355
O O2 0.765714 0.310647 0.631067
O O3 0.762810 0.253341 0.562808
O O4 0.000000 0.329216 0.591241
O O5 0.226438 0.372218 0.700192
O O6 0.247624 0.500000 0.759745
O O7 0.000000 0.500000 0.727789
O O8 0.500000 0.787482 0.832494
O O9 0.281241 0.625706 0.819973
O O10 0.208348 0.500000 0.947555
O O11 0.000000 0.323323 0.949453
O O12 0.196979 0.327530 0.000000
O O13 0.500000 0.500000 0.788929
#
# Coordination Sequence:
#
# PCOD8288045 Si02
#       5
#    16   8  16  16   8
#     4  10  20  35  56  82 110 142 182 224 265 314
#     4  10  18  34  54  70  99 138 171 209 264 319
#     4   9  18  33  52  74 102 137 173 213 263 315
#     4   9  20  39  59  80 110 145 177 214 265 321
#     4  10  20  32  50  76 101 130 175 221 260 309
#
# _framework density 18.266380999999999
#
# number of rings (size 3 to 8) (size 9 to 14) (size 15 to 20)
#    0.000    2.500    1.250    1.500    1.750    2.000 
#    0.000    6.250    0.000    0.000    0.000    0.000 
#    0.000    0.000    0.000    0.000    0.000    0.000 
#
# Total GULP energy -396793.526088 kJ/mol
# GULP energy per Si atom -12399.797690 kJ/mol
# Density = 1.822481 g / cm^3
# Si number density = 18.266381 Si / 1000 Ang^3
#
#
#
# Elastic Constant Matrix: (Units=GPa)
#
#
# Indices 1 2 3 4 5 6 
#
# 1 34.0710 49.6617 40.4259 0.0000 0.0000 0.0000
# 2 49.6617 176.3171 81.8386 0.0000 0.0000 0.0000
# 3 40.4259 81.8386 108.6170 0.0000 0.0000 0.0000
# 4 0.0000 0.0000 0.0000 40.7118 0.0000 0.0000
# 5 0.0000 0.0000 0.0000 0.0000 31.3860 0.0000
# 6 0.0000 0.0000 0.0000 0.0000 0.0000 22.7402
#
#
#
# Elastic Compliance Matrix: (Units=1/GPa)
#
#
# Indices 1 2 3 4 5 6 
#
# 1 0.063255 -0.010594 -0.015561 0.000000 0.000000 0.000000
# 2 -0.010594 0.010496 -0.003965 0.000000 0.000000 0.000000
# 3 -0.015561 -0.003965 0.017986 0.000000 0.000000 0.000000
# 4 0.000000 0.000000 0.000000 0.024563 0.000000 0.000000
# 5 0.000000 0.000000 0.000000 0.000000 0.031861 0.000000
# 6 0.000000 0.000000 0.000000 0.000000 0.000000 0.043975
#
#
# Mechanical properties :
#
#
# Convention : Reuss Voigt Hill
#
# Bulk Modulus (GPa) = 31.74892 73.65082 52.69987
# Shear Modulus (GPa) = 19.02038 28.77287 23.89662
#
# Velocity S-wave (km/s) = 3.23038 3.97316 3.62087
# Velocity P-wave (km/s) = 5.59756 7.83939 6.81134
#
# Compressibility (1/GPa) = 0.03149714
#
# Stress axis : x y z
#
# Youngs Moduli (GPa) = 15.80894 95.27360 55.59890
#
# Poissons Ratio (x) = 1.00933 0.86516
# Poissons Ratio (y) = 0.16748 0.22047
# Poissons Ratio (z) = 0.24600 0.37780
#
# Static dielectric constant tensor:
#      x y z
#    x 3.014830 0.000000 0.000000 
#    y 0.000000 3.679080 0.000000 
#    z 0.000000 0.000000 3.428450 
# 
# 
# High freq. dielectric constant tensor:
#      x y z
#    x 1.672420 0.000000 0.000000 
#    y 0.000000 1.726150 0.000000 
#    z 0.000000 0.000000 1.716140 
# 
# From -- ./inp_files/18484.got.cif
#   From: 2010.06.25/outbox.cif.g09.slc.cpg/sg71_10_cif.got.tgz:18484.got - 2010.06.28 04:59:45.
