data_PCOD8288319
_publ_section_title
;
Structure prediction by ZEFSAII (Michael W. Deem and Ramdas Pophale) SiO2 
 PCOD8288319
Probable space group: I M M M
;
_chemical_formula_sum "Si O2"
_cell_formula_units_Z 104
_cell_length_a 9.039241
_cell_length_b 29.454747
_cell_length_c 22.900459
_cell_angle_alpha 90.000000
_cell_angle_beta 90.000000
_cell_angle_gamma 90.000000
_cell_volume 6097.214157
_symmetry_space_group_name_H-M "I M M M"
_symmetry_group_IT_number 71
_symmetry_cell_setting 'orthorhombic'
loop_
_space_group_symop_operation_xyz
x,y,z
-x,-y,z
x,-y,-z
-x,y,-z
-x,-y,-z
x,y,-z
-x,y,z
x,-y,z
1/2+x,1/2+y,1/2+z
1/2-x,1/2-y,1/2+z
1/2+x,1/2-y,1/2-z
1/2-x,1/2+y,1/2-z
1/2-x,1/2-y,1/2-z
1/2+x,1/2+y,1/2-z
1/2-x,1/2+y,1/2+z
1/2+x,1/2-y,1/2+z
loop_
_atom_site_type_symbol
_atom_site_label
_atom_site_fract_x
_atom_site_fract_y
_atom_site_fract_z
Si Si1 0.824203 0.104664 0.895066
Si Si2 0.824663 0.050114 0.216367
Si Si3 0.835862 0.281661 0.069316
Si Si4 0.671275 0.946324 0.000000
Si Si5 0.330288 0.193427 0.069090
Si Si6 0.669929 0.553148 0.845953
Si Si7 0.175408 0.618521 0.934535
O O1 0.772476 0.085951 0.832088
O O2 0.749332 0.073261 0.943198
O O3 0.768534 0.156019 0.898920
O O4 0.000000 0.102980 0.903518
O O5 0.771088 0.065317 0.280823
O O6 0.000000 0.046628 0.217831
O O7 0.760613 0.000000 0.201185
O O8 0.724628 0.242619 0.091221
O O9 0.776021 0.331330 0.088507
O O10 0.000000 0.272388 0.095135
O O11 0.845890 0.281216 0.000000
O O12 0.500000 0.931194 0.000000
O O13 0.689456 0.000000 0.000000
O O14 0.500000 0.187570 0.087446
O O15 0.309060 0.187615 0.000000
O O16 0.500000 0.567561 0.853088
O O17 0.690631 0.500000 0.858063
O O18 0.764756 0.580161 0.892439
O O19 0.000000 0.616283 0.935415
O O20 0.237146 0.609972 0.000000
#
# Coordination Sequence:
#
# PCOD8288319 Si02
#       7
#    16  16  16   8  16  16  16
#     4  11  20  31  51  72  92 125 168 207 244 295
#     4   8  16  32  51  70  92 122 165 210 244 280
#     4   8  15  29  48  68  93 126 163 197 233 285
#     4  11  23  35  45  65 101 133 157 201 260 301
#     4  10  19  30  45  68 101 130 155 197 251 296
#     4   9  18  33  52  73  99 130 163 201 241 285
#     4   9  18  32  50  75 105 132 158 196 242 286
#
# _framework density 17.05697
#
# number of rings (size 3 to 8) (size 9 to 14) (size 15 to 20)
#    0.000    2.692    0.769    3.462    0.000    3.385 
#    0.000    4.615    0.000    2.769    0.000    0.000 
#    0.000    0.000    0.000    0.000    0.000    0.000 
#
# Total GULP energy -644616.931830 kJ/mol
# GULP energy per Si atom -12396.479458 kJ/mol
# Density = 1.701815 g / cm^3
# Si number density = 17.056970 Si / 1000 Ang^3
#
#
#
# Elastic Constant Matrix: (Units=GPa)
#
#
# Indices 1 2 3 4 5 6 
#
# 1 64.1260 43.1401 35.8922 0.0000 0.0000 0.0000
# 2 43.1401 104.4330 61.8922 0.0000 0.0000 0.0000
# 3 35.8922 61.8922 94.6656 0.0000 0.0001 0.0000
# 4 0.0000 0.0000 0.0000 16.5551 0.0000 0.0000
# 5 0.0000 0.0000 0.0001 0.0000 11.5880 0.0000
# 6 0.0000 0.0000 0.0000 0.0000 0.0000 30.3420
#
#
#
# Elastic Compliance Matrix: (Units=1/GPa)
#
#
# Indices 1 2 3 4 5 6 
#
# 1 0.022489 -0.006917 -0.004004 0.000000 0.000000 0.000000
# 2 -0.006917 0.017760 -0.008989 0.000000 0.000000 0.000000
# 3 -0.004004 -0.008989 0.017959 0.000000 0.000000 0.000000
# 4 0.000000 0.000000 0.000000 0.060404 0.000000 0.000000
# 5 0.000000 0.000000 0.000000 0.000000 0.086296 0.000000
# 6 0.000000 0.000000 0.000000 0.000000 0.000000 0.032958
#
#
# Mechanical properties :
#
#
# Convention : Reuss Voigt Hill
#
# Bulk Modulus (GPa) = 54.38534 60.56373 57.47454
# Shear Modulus (GPa) = 17.61709 19.85037 18.73373
#
# Velocity S-wave (km/s) = 3.21727 3.41511 3.31766
# Velocity P-wave (km/s) = 6.76423 7.15083 6.96022
#
# Compressibility (1/GPa) = 0.01838731
#
# Stress axis : x y z
#
# Youngs Moduli (GPa) = 44.46667 56.30614 55.68289
#
# Poissons Ratio (x) = 0.38945 0.22298
# Poissons Ratio (y) = 0.30756 0.50054
# Poissons Ratio (z) = 0.17807 0.50614
#
# Static dielectric constant tensor:
#      x y z
#    x 3.089660 0.000000 0.000000 
#    y 0.000000 3.409980 0.000000 
#    z 0.000000 0.000000 3.140850 
# 
# 
# High freq. dielectric constant tensor:
#      x y z
#    x 1.648130 0.000000 0.000000 
#    y 0.000000 1.666750 0.000000 
#    z 0.000000 0.000000 1.630250 
# 
# From -- ./inp_files/58018.got.cif
#   From: 2010.06.25/outbox.cif.g09.slc.cpg/sg71_30_cif.got.tgz:58018.got - 2010.06.28 04:59:45.
