data_PCOD8288130
_publ_section_title
;
Structure prediction by ZEFSAII (Michael W. Deem and Ramdas Pophale) SiO2 
 PCOD8288130
Probable space group: I M M M
;
_chemical_formula_sum "Si O2"
_cell_formula_units_Z 96
_cell_length_a 19.077998
_cell_length_b 8.888858
_cell_length_c 30.935263
_cell_angle_alpha 90.000000
_cell_angle_beta 90.000000
_cell_angle_gamma 90.000000
_cell_volume 5246.051865
_symmetry_space_group_name_H-M "I M M M"
_symmetry_group_IT_number 71
_symmetry_cell_setting 'orthorhombic'
loop_
_space_group_symop_operation_xyz
x,y,z
-x,-y,z
x,-y,-z
-x,y,-z
-x,-y,-z
x,y,-z
-x,y,z
x,-y,z
1/2+x,1/2+y,1/2+z
1/2-x,1/2-y,1/2+z
1/2+x,1/2-y,1/2-z
1/2-x,1/2+y,1/2-z
1/2-x,1/2-y,1/2-z
1/2+x,1/2+y,1/2-z
1/2-x,1/2+y,1/2+z
1/2+x,1/2-y,1/2+z
loop_
_atom_site_type_symbol
_atom_site_label
_atom_site_fract_x
_atom_site_fract_y
_atom_site_fract_z
Si Si1 0.078563 0.178923 0.547848
Si Si2 0.577670 0.178616 0.296880
Si Si3 0.672181 0.179749 0.374130
Si Si4 0.421352 0.821113 0.548019
Si Si5 0.918830 0.675111 0.699719
Si Si6 0.669894 0.321364 0.873822
O O1 0.102453 0.233093 0.500000
O O2 0.130941 0.245368 0.583821
O O3 0.000000 0.237758 0.557634
O O4 0.079050 0.000000 0.549515
O O5 0.500000 0.241689 0.307726
O O6 0.632935 0.242962 0.331516
O O7 0.599757 0.226502 0.248523
O O8 0.574937 0.000000 0.299376
O O9 0.632710 0.243524 0.416627
O O10 0.751164 0.242484 0.373782
O O11 0.671636 0.000000 0.374267
O O12 0.398854 0.766038 0.500000
O O13 0.500000 0.764020 0.558718
O O14 0.420616 0.000000 0.549524
O O15 0.902761 0.500000 0.692863
O O16 0.869768 0.771494 0.669003
O O17 0.000000 0.709878 0.689561
O O18 0.670404 0.500000 0.875200
#
# Coordination Sequence:
#
# PCOD8288130 Si02
#       6
#    16  16  16  16  16  16
#     4   8  14  25  40  57  79 109 141 168 198 244
#     4   8  14  26  43  59  77 108 148 180 205 244
#     4   9  16  24  36  58  87 115 142 174 213 257
#     4   8  13  21  34  54  83 119 152 179 211 250
#     4   9  18  32  48  63  80 109 149 184 211 247
#     4  10  19  28  42  67  93 113 136 173 221 263
#
# _framework density 18.299475000000001
#
# number of rings (size 3 to 8) (size 9 to 14) (size 15 to 20)
#    0.000    3.333    0.000    3.000    0.000    4.333 
#    0.000    3.333    0.000    0.500    0.000    2.333 
#    0.000    2.000    0.000    1.833    0.000    3.167 
#
# Total GULP energy -594898.788492 kJ/mol
# GULP energy per Si atom -12393.724760 kJ/mol
# Density = 1.825782 g / cm^3
# Si number density = 18.299475 Si / 1000 Ang^3
#
#
#
# Elastic Constant Matrix: (Units=GPa)
#
#
# Indices 1 2 3 4 5 6 
#
# 1 150.2661 9.7636 110.8102 0.0000 0.0000 0.0000
# 2 9.7636 3.9063 8.6275 0.0000 0.0000 0.0000
# 3 110.8102 8.6275 173.3059 0.0000 0.0000 0.0000
# 4 0.0000 0.0000 0.0000 15.7654 0.0000 0.0000
# 5 0.0000 0.0000 0.0000 0.0000 20.2626 0.0000
# 6 0.0000 0.0000 0.0000 0.0000 0.0000 11.5818
#
#
#
# Elastic Compliance Matrix: (Units=1/GPa)
#
#
# Indices 1 2 3 4 5 6 
#
# 1 0.013472 -0.016458 -0.007795 0.000000 0.000000 0.000000
# 2 -0.016458 0.307728 -0.004796 0.000000 0.000000 0.000000
# 3 -0.007795 -0.004796 0.010993 0.000000 0.000000 0.000000
# 4 0.000000 0.000000 0.000000 0.063430 0.000000 0.000000
# 5 0.000000 0.000000 0.000000 0.000000 0.049352 0.000000
# 6 0.000000 0.000000 0.000000 0.000000 0.000000 0.086343
#
#
# Mechanical properties :
#
#
# Convention : Reuss Voigt Hill
#
# Bulk Modulus (GPa) = 3.64836 65.09788 34.37312
# Shear Modulus (GPa) = 7.34451 22.74043 15.04247
#
# Velocity S-wave (km/s) = 2.00555 3.52899 2.87019
# Velocity P-wave (km/s) = 2.71311 7.22883 5.45971
#
# Compressibility (1/GPa) = 0.27409544
#
# Stress axis : x y z
#
# Youngs Moduli (GPa) = 74.22672 3.24962 90.96866
#
# Poissons Ratio (x) = 0.05348 0.70908
# Poissons Ratio (y) = 1.22160 0.43633
# Poissons Ratio (z) = 0.57858 0.01559
#
# Static dielectric constant tensor:
#      x y z
#    x 3.618480 0.000000 0.000000 
#    y 0.000000 2.599730 0.000000 
#    z 0.000000 0.000000 3.744040 
# 
# 
# High freq. dielectric constant tensor:
#      x y z
#    x 1.710400 0.000000 0.000000 
#    y 0.000000 1.627860 0.000000 
#    z 0.000000 0.000000 1.727480 
# 
# From -- ./inp_files/14890.got.cif
#   From: 2010.06.25/outbox.cif.g09.slc.cpg/sg71_8_cif.got.tgz:14890.got - 2010.06.28 04:59:45.
