data_PCOD8288039
_publ_section_title
;
Structure prediction by ZEFSAII (Michael W. Deem and Ramdas Pophale) SiO2 
 PCOD8288039
Probable space group: I M M M
;
_chemical_formula_sum "Si O2"
_cell_formula_units_Z 80
_cell_length_a 19.858556
_cell_length_b 18.959159
_cell_length_c 10.682242
_cell_angle_alpha 90.000000
_cell_angle_beta 90.000000
_cell_angle_gamma 90.000000
_cell_volume 4021.880358
_symmetry_space_group_name_H-M "I M M M"
_symmetry_group_IT_number 71
_symmetry_cell_setting 'orthorhombic'
loop_
_space_group_symop_operation_xyz
x,y,z
-x,-y,z
x,-y,-z
-x,y,-z
-x,-y,-z
x,y,-z
-x,y,z
x,-y,z
1/2+x,1/2+y,1/2+z
1/2-x,1/2-y,1/2+z
1/2+x,1/2-y,1/2-z
1/2-x,1/2+y,1/2-z
1/2-x,1/2-y,1/2-z
1/2+x,1/2+y,1/2-z
1/2-x,1/2+y,1/2+z
1/2+x,1/2-y,1/2+z
loop_
_atom_site_type_symbol
_atom_site_label
_atom_site_fract_x
_atom_site_fract_y
_atom_site_fract_z
Si Si1 0.077044 0.719221 0.739844
Si Si2 0.123339 0.579377 0.646402
Si Si3 0.924179 0.773630 0.000000
Si Si4 0.727539 0.578786 0.267337
Si Si5 0.869906 0.922431 0.000000
Si Si6 0.705257 0.716716 0.139820
O O1 0.077366 0.634577 0.722143
O O2 0.127901 0.756025 0.642445
O O3 0.000000 0.746660 0.721644
O O4 0.108166 0.739933 0.875580
O O5 0.108941 0.587568 0.500000
O O6 0.105433 0.500000 0.690665
O O7 0.200510 0.598243 0.673952
O O8 0.922923 0.858839 0.000000
O O9 0.000000 0.747434 0.000000
O O10 0.727756 0.500000 0.210476
O O11 0.674902 0.585697 0.378143
O O12 0.707091 0.632229 0.157317
O O13 0.905394 0.000000 0.000000
O O14 0.750000 0.750000 0.250000
O O15 0.733163 0.734498 0.000000
#
# Coordination Sequence:
#
# PCOD8288039 Si02
#       6
#    16  16   8  16   8  16
#     4  11  24  40  61  89 125 163 204 252 309 364
#     4  10  20  36  59  86 117 156 203 252 301 360
#     4  10  22  39  59  86 120 160 204 255 301 365
#     4  10  20  36  60  90 123 156 201 253 309 363
#     4  10  18  33  62  91 118 156 200 255 305 363
#     4  12  26  39  64  94 124 163 208 259 307 367
#
# _framework density 19.891193999999999
#
# number of rings (size 3 to 8) (size 9 to 14) (size 15 to 20)
#    0.000    1.400    5.000    0.600    2.800    2.600 
#    0.000    1.500    0.000    2.400    0.000    1.400 
#    0.000    0.000    0.000    0.000    0.000    0.000 
#
# Total GULP energy -495858.381773 kJ/mol
# GULP energy per Si atom -12396.459544 kJ/mol
# Density = 1.984592 g / cm^3
# Si number density = 19.891194 Si / 1000 Ang^3
#
#
#
# Elastic Constant Matrix: (Units=GPa)
#
#
# Indices 1 2 3 4 5 6 
#
# 1 61.6636 28.7938 26.7040 0.0000 0.0000 0.0000
# 2 28.7938 132.6761 57.9370 0.0000 0.0000 0.0000
# 3 26.7040 57.9370 119.7292 0.0000 0.0000 0.0000
# 4 0.0000 0.0000 0.0000 38.2520 0.0000 0.0000
# 5 0.0000 0.0000 0.0000 0.0000 -154.4886 0.0000
# 6 0.0000 0.0000 0.0000 0.0000 0.0000 26.7572
#
#
#
# Elastic Compliance Matrix: (Units=1/GPa)
#
#
# Indices 1 2 3 4 5 6 
#
# 1 0.018762 -0.002846 -0.002807 0.000000 0.000000 0.000000
# 2 -0.002846 0.009988 -0.004199 0.000000 0.000000 0.000000
# 3 -0.002807 -0.004199 0.011010 0.000000 0.000000 0.000000
# 4 0.000000 0.000000 0.000000 0.026142 0.000000 0.000000
# 5 0.000000 0.000000 0.000000 0.000000 -0.006473 0.000000
# 6 0.000000 0.000000 0.000000 0.000000 0.000000 0.037373
#
#
# Mechanical properties :
#
#
# Convention : Reuss Voigt Hill
#
# Bulk Modulus (GPa) = 49.85969 60.10427 54.98198
# Shear Modulus (GPa) = 40.58723 -4.52026 18.03349
#
# Velocity S-wave (km/s) = 4.52205 -1.50911 3.01426
# Velocity P-wave (km/s) = 7.23781 5.21973 6.30997
#
# Compressibility (1/GPa) = 0.02005628
#
# Stress axis : x y z
#
# Youngs Moduli (GPa) = 53.30021 100.11836 90.82611
#
# Poissons Ratio (x) = 0.28491 0.25499
# Poissons Ratio (y) = 0.15168 0.38134
# Poissons Ratio (z) = 0.14964 0.42036
#
# Static dielectric constant tensor:
#      x y z
#    x 3.424230 0.000000 0.000000 
#    y 0.000000 4.005740 0.000000 
#    z 0.000000 0.000000 3.499040 
# 
# 
# High freq. dielectric constant tensor:
#      x y z
#    x 1.762340 0.000000 0.000000 
#    y 0.000000 1.788840 0.000000 
#    z 0.000000 0.000000 1.760520 
# 
# From -- ./inp_files/25589.got.cif
#   From: 2010.06.25/outbox.cif.g09.slc.cpg/sg71_13_cif.got.tgz:25589.got - 2010.06.28 04:59:45.
