data_PCOD8288729
_publ_section_title
;
Structure prediction by ZEFSAII (Michael W. Deem and Ramdas Pophale) SiO2 
 PCOD8288729
Probable space group: I M M M
;
_chemical_formula_sum "Si O2"
_cell_formula_units_Z 88
_cell_length_a 19.902888
_cell_length_b 15.220500
_cell_length_c 14.872298
_cell_angle_alpha 90.000000
_cell_angle_beta 90.000000
_cell_angle_gamma 90.000000
_cell_volume 4505.293592
_symmetry_space_group_name_H-M "I M M M"
_symmetry_group_IT_number 71
_symmetry_cell_setting 'orthorhombic'
loop_
_space_group_symop_operation_xyz
x,y,z
-x,-y,z
x,-y,-z
-x,y,-z
-x,-y,-z
x,y,-z
-x,y,z
x,-y,z
1/2+x,1/2+y,1/2+z
1/2-x,1/2-y,1/2+z
1/2+x,1/2-y,1/2-z
1/2-x,1/2+y,1/2-z
1/2-x,1/2-y,1/2-z
1/2+x,1/2+y,1/2-z
1/2-x,1/2+y,1/2+z
1/2+x,1/2-y,1/2+z
loop_
_atom_site_type_symbol
_atom_site_label
_atom_site_fract_x
_atom_site_fract_y
_atom_site_fract_z
Si Si1 0.777839 0.760631 0.397734
Si Si2 0.000000 0.602175 0.286114
Si Si3 0.863070 0.812155 0.901633
Si Si4 0.869149 0.400714 0.604168
Si Si5 0.500000 0.755119 0.642846
Si Si6 0.644689 0.401591 0.214438
Si Si7 0.500000 0.597305 0.778117
O O1 0.796696 0.785997 0.500000
O O2 0.698137 0.755131 0.383447
O O3 0.809045 0.665694 0.371924
O O4 0.804241 0.835176 0.331340
O O5 0.934603 0.630203 0.341931
O O6 0.000000 0.500000 0.264316
O O7 0.000000 0.651777 0.192025
O O8 0.930875 0.753992 0.912326
O O9 0.865035 0.882640 0.821143
O O10 0.851570 0.858323 0.000000
O O11 0.888618 0.396737 0.500000
O O12 0.846988 0.500000 0.630812
O O13 0.500000 0.673491 0.707826
O O14 0.673342 0.500000 0.203379
O O15 0.570456 0.393702 0.166775
O O16 0.500000 0.500000 0.732186
#
# Coordination Sequence:
#
# PCOD8288729 Si02
#       7
#    16   8  16  16   8  16   8
#     4  10  21  36  54  80 113 144 178 219 262 318
#     4  10  19  31  51  79 109 142 182 221 259 316
#     4  10  21  37  57  79 103 136 181 230 275 316
#     4   9  17  30  50  78 112 146 177 215 265 316
#     4  10  19  35  56  74 101 138 176 222 275 319
#     4  10  20  35  56  81 112 146 177 215 263 317
#     4   8  16  31  51  77 106 137 175 216 256 306
#
# _framework density 19.532578000000001
#
# number of rings (size 3 to 8) (size 9 to 14) (size 15 to 20)
#    0.000    2.364    0.000    3.273    0.000    2.545 
#    0.000    5.909    0.000    9.273    0.000    0.000 
#    0.000    0.000    0.000    0.000    0.000    0.000 
#
# Total GULP energy -545216.618149 kJ/mol
# GULP energy per Si atom -12391.286776 kJ/mol
# Density = 1.948812 g / cm^3
# Si number density = 19.532578 Si / 1000 Ang^3
#
#
#
# Elastic Constant Matrix: (Units=GPa)
#
#
# Indices 1 2 3 4 5 6 
#
# 1 127.8503 47.1300 16.8090 0.0000 0.0000 0.0000
# 2 47.1300 92.2663 34.4728 0.0000 0.0000 0.0000
# 3 16.8090 34.4728 45.6891 0.0000 0.0000 0.0000
# 4 0.0000 0.0000 0.0000 19.7594 0.0000 0.0000
# 5 0.0000 0.0000 0.0000 0.0000 24.3895 0.0000
# 6 0.0000 0.0000 0.0000 0.0000 0.0000 17.5756
#
#
#
# Elastic Compliance Matrix: (Units=1/GPa)
#
#
# Indices 1 2 3 4 5 6 
#
# 1 0.009638 -0.005011 0.000235 0.000000 0.000000 0.000000
# 2 -0.005011 0.017698 -0.011510 0.000000 0.000000 0.000000
# 3 0.000235 -0.011510 0.030485 0.000000 0.000000 0.000000
# 4 0.000000 0.000000 0.000000 0.050609 0.000000 0.000000
# 5 0.000000 0.000000 0.000000 0.000000 0.041001 0.000000
# 6 0.000000 0.000000 0.000000 0.000000 0.000000 0.056897
#
#
# Mechanical properties :
#
#
# Convention : Reuss Voigt Hill
#
# Bulk Modulus (GPa) = 39.60492 51.40325 45.50409
# Shear Modulus (GPa) = 20.21702 23.50448 21.86075
#
# Velocity S-wave (km/s) = 3.22070 3.47269 3.34907
# Velocity P-wave (km/s) = 5.84387 6.51562 6.18887
#
# Compressibility (1/GPa) = 0.02524939
#
# Stress axis : x y z
#
# Youngs Moduli (GPa) = 103.75657 56.50309 32.80306
#
# Poissons Ratio (x) = 0.28313 -0.00771
# Poissons Ratio (y) = 0.51991 0.37756
# Poissons Ratio (z) = -0.02438 0.65035
#
# Static dielectric constant tensor:
#      x y z
#    x 4.065230 0.000000 0.000000 
#    y 0.000000 2.981680 0.000000 
#    z 0.000000 0.000000 3.383220 
# 
# 
# High freq. dielectric constant tensor:
#      x y z
#    x 1.780820 0.000000 0.000000 
#    y 0.000000 1.745320 0.000000 
#    z 0.000000 0.000000 1.735810 
# 
# From -- ./inp_files/37780.got.cif
#   From: 2010.06.25/outbox.cif.g09.slc.cpg/sg71_19_cif.got.tgz:37780.got - 2010.06.28 04:59:45.
