data_PCOD8288392
_publ_section_title
;
Structure prediction by ZEFSAII (Michael W. Deem and Ramdas Pophale) SiO2 
 PCOD8288392
Probable space group: I M M M
;
_chemical_formula_sum "Si O2"
_cell_formula_units_Z 80
_cell_length_a 8.865632
_cell_length_b 23.330348
_cell_length_c 23.879764
_cell_angle_alpha 90.000000
_cell_angle_beta 90.000000
_cell_angle_gamma 90.000000
_cell_volume 4939.249308
_symmetry_space_group_name_H-M "I M M M"
_symmetry_group_IT_number 71
_symmetry_cell_setting 'orthorhombic'
loop_
_space_group_symop_operation_xyz
x,y,z
-x,-y,z
x,-y,-z
-x,y,-z
-x,-y,-z
x,y,-z
-x,y,z
x,-y,z
1/2+x,1/2+y,1/2+z
1/2-x,1/2-y,1/2+z
1/2+x,1/2-y,1/2-z
1/2-x,1/2+y,1/2-z
1/2-x,1/2-y,1/2-z
1/2+x,1/2+y,1/2-z
1/2-x,1/2+y,1/2+z
1/2+x,1/2-y,1/2+z
loop_
_atom_site_type_symbol
_atom_site_label
_atom_site_fract_x
_atom_site_fract_y
_atom_site_fract_z
Si Si1 0.675604 0.723796 0.333848
Si Si2 0.826935 0.934548 0.332369
Si Si3 0.675765 0.836682 0.264208
Si Si4 0.174890 0.387822 0.063353
Si Si5 0.173925 0.234041 0.562886
O O1 0.500000 0.713824 0.343575
O O2 0.712229 0.785754 0.307386
O O3 0.737326 0.673842 0.293855
O O4 0.761268 0.719594 0.393375
O O5 0.730894 0.896086 0.290136
O O6 0.766050 0.929364 0.395682
O O7 0.000000 0.914496 0.330853
O O8 0.809719 0.000000 0.312886
O O9 0.500000 0.840322 0.250847
O O10 0.230888 0.323373 0.070439
O O11 0.000000 0.388992 0.080290
O O12 0.200260 0.409734 0.000000
O O13 0.193271 0.258575 0.500000
O O14 0.000000 0.220559 0.576072
#
# Coordination Sequence:
#
# PCOD8288392 Si02
#       5
#    16  16  16  16  16
#     4  10  19  31  50  73  97 125 156 196 240 289
#     4  11  23  36  50  68  93 125 162 205 247 287
#     4  10  20  33  50  71  94 124 159 198 242 288
#     4  10  20  33  48  66  90 123 164 206 245 284
#     4  10  19  30  47  71  99 129 159 195 238 284
#
# _framework density 16.196793
#
# number of rings (size 3 to 8) (size 9 to 14) (size 15 to 20)
#    0.000    1.800    2.000    3.000    0.000    6.000 
#    0.000    2.000    0.000    0.000    0.000    0.000 
#    0.000    0.800    0.000    8.400    0.000    3.600 
#
# Total GULP energy -496134.738233 kJ/mol
# GULP energy per Si atom -12403.368456 kJ/mol
# Density = 1.615993 g / cm^3
# Si number density = 16.196793 Si / 1000 Ang^3
#
#
#
# Elastic Constant Matrix: (Units=GPa)
#
#
# Indices 1 2 3 4 5 6 
#
# 1 62.5042 18.7492 30.1873 0.0000 0.0000 0.0000
# 2 18.7492 49.4775 32.8348 0.0000 0.0000 0.0000
# 3 30.1873 32.8348 85.3144 0.0000 0.0000 0.0000
# 4 0.0000 0.0000 0.0000 23.1794 0.0000 0.0000
# 5 0.0000 0.0000 0.0000 0.0000 31.8712 0.0000
# 6 0.0000 0.0000 0.0000 0.0000 0.0000 22.9226
#
#
#
# Elastic Compliance Matrix: (Units=1/GPa)
#
#
# Indices 1 2 3 4 5 6 
#
# 1 0.019825 -0.003837 -0.005538 0.000000 0.000000 0.000000
# 2 -0.003837 0.027887 -0.009375 0.000000 0.000000 0.000000
# 3 -0.005538 -0.009375 0.017289 0.000000 0.000000 0.000000
# 4 0.000000 0.000000 0.000000 0.043142 0.000000 0.000000
# 5 0.000000 0.000000 0.000000 0.000000 0.031376 0.000000
# 6 0.000000 0.000000 0.000000 0.000000 0.000000 0.043625
#
#
# Mechanical properties :
#
#
# Convention : Reuss Voigt Hill
#
# Bulk Modulus (GPa) = 36.36341 40.09319 38.22830
# Shear Modulus (GPa) = 21.75706 23.29629 22.52668
#
# Velocity S-wave (km/s) = 3.66907 3.79664 3.73340
# Velocity P-wave (km/s) = 6.35997 6.63527 6.49908
#
# Compressibility (1/GPa) = 0.02750017
#
# Stress axis : x y z
#
# Youngs Moduli (GPa) = 50.44257 35.85909 57.84046
#
# Poissons Ratio (x) = 0.13760 0.32031
# Poissons Ratio (y) = 0.19357 0.54225
# Poissons Ratio (z) = 0.27934 0.33618
#
# Static dielectric constant tensor:
#      x y z
#    x 3.215350 0.000000 0.000000 
#    y 0.000000 2.671260 0.000000 
#    z 0.000000 0.000000 3.217900 
# 
# 
# High freq. dielectric constant tensor:
#      x y z
#    x 1.646450 0.000000 0.000000 
#    y 0.000000 1.572740 0.000000 
#    z 0.000000 0.000000 1.622730 
# 
# From -- ./inp_files/14522.got.cif
#   From: 2010.06.25/outbox.cif.g09.slc.cpg/sg71_8_cif.got.tgz:14522.got - 2010.06.28 04:59:45.
