data_PCOD8288092
_publ_section_title
;
Structure prediction by ZEFSAII (Michael W. Deem and Ramdas Pophale) SiO2 
 PCOD8288092
Probable space group: I M M M
;
_chemical_formula_sum "Si O2"
_cell_formula_units_Z 88
_cell_length_a 35.187037
_cell_length_b 9.102940
_cell_length_c 22.246042
_cell_angle_alpha 90.000000
_cell_angle_beta 90.000000
_cell_angle_gamma 90.000000
_cell_volume 7125.529307
_symmetry_space_group_name_H-M "I M M M"
_symmetry_group_IT_number 71
_symmetry_cell_setting 'orthorhombic'
loop_
_space_group_symop_operation_xyz
x,y,z
-x,-y,z
x,-y,-z
-x,y,-z
-x,-y,-z
x,y,-z
-x,y,z
x,-y,z
1/2+x,1/2+y,1/2+z
1/2-x,1/2-y,1/2+z
1/2+x,1/2-y,1/2-z
1/2-x,1/2+y,1/2-z
1/2-x,1/2-y,1/2-z
1/2+x,1/2+y,1/2-z
1/2-x,1/2+y,1/2+z
1/2+x,1/2-y,1/2+z
loop_
_atom_site_type_symbol
_atom_site_label
_atom_site_fract_x
_atom_site_fract_y
_atom_site_fract_z
Si Si1 0.000000 0.840026 0.570924
Si Si2 0.652390 0.825610 0.125997
Si Si3 0.731933 0.336715 0.336891
Si Si4 0.806994 0.662203 0.257358
Si Si5 0.582326 0.674689 0.069421
Si Si6 0.277354 0.331130 0.069697
O O1 0.040136 0.763234 0.588192
O O2 0.000000 0.862317 0.500000
O O3 0.000000 0.000000 0.601704
O O4 0.660686 0.784941 0.195788
O O5 0.611355 0.761296 0.111176
O O6 0.683603 0.753756 0.082584
O O7 0.653755 0.000000 0.115913
O O8 0.720728 0.500000 0.358470
O O9 0.767892 0.342475 0.293649
O O10 0.696298 0.269653 0.299871
O O11 0.741787 0.237575 0.394505
O O12 0.816542 0.500000 0.232745
O O13 0.585138 0.500000 0.080160
O O14 0.591209 0.711111 0.000000
O O15 0.282596 0.500000 0.089461
O O16 0.267442 0.317285 0.000000
#
# Coordination Sequence:
#
# PCOD8288092 Si02
#       6
#     8  16  16  16  16  16
#     4   7  12  24  39  51  63  83 111 137 162 199
#     4  10  19  27  36  51  69  87 107 137 174 204
#     4   9  16  25  38  52  64  81 105 135 167 195
#     4   8  15  26  36  47  64  85 107 130 161 201
#     4   9  16  26  39  52  66  86 111 138 169 205
#     4  10  19  28  37  49  66  89 113 135 164 203
#
# _framework density 12.349959
#
# number of rings (size 3 to 8) (size 9 to 14) (size 15 to 20)
#    0.000    3.000    0.000    4.364    0.000    9.091 
#    0.000    0.455    0.000    1.636    0.000    0.000 
#    0.000    0.000    0.000    0.000    0.000    0.000 
#
# Total GULP energy -545218.650489 kJ/mol
# GULP energy per Si atom -12391.332966 kJ/mol
# Density = 1.232185 g / cm^3
# Si number density = 12.349959 Si / 1000 Ang^3
#
#
#
# Elastic Constant Matrix: (Units=GPa)
#
#
# Indices 1 2 3 4 5 6 
#
# 1 72.5838 39.0720 44.2056 0.0000 0.0000 0.0000
# 2 39.0720 76.6493 39.0581 0.0000 0.0000 0.0000
# 3 44.2056 39.0581 53.2042 0.0000 0.0000 0.0000
# 4 0.0000 0.0000 0.0000 18.6896 0.0000 0.0000
# 5 0.0000 0.0000 0.0000 0.0000 17.4889 0.0000
# 6 0.0000 0.0000 0.0000 0.0000 0.0000 12.5116
#
#
#
# Elastic Compliance Matrix: (Units=1/GPa)
#
#
# Indices 1 2 3 4 5 6 
#
# 1 0.028619 -0.003949 -0.020880 0.000000 0.000000 0.000000
# 2 -0.003949 0.021389 -0.012421 0.000000 0.000000 0.000000
# 3 -0.020880 -0.012421 0.045262 0.000000 0.000000 0.000000
# 4 0.000000 0.000000 0.000000 0.053506 0.000000 0.000000
# 5 0.000000 0.000000 0.000000 0.000000 0.057179 0.000000
# 6 0.000000 0.000000 0.000000 0.000000 0.000000 0.079926
#
#
# Mechanical properties :
#
#
# Convention : Reuss Voigt Hill
#
# Bulk Modulus (GPa) = 48.14390 49.67875 48.91133
# Shear Modulus (GPa) = 13.61272 15.07812 14.34542
#
# Velocity S-wave (km/s) = 3.32361 3.49794 3.41189
# Velocity P-wave (km/s) = 7.33459 7.52511 7.43046
#
# Compressibility (1/GPa) = 0.02077106
#
# Stress axis : x y z
#
# Youngs Moduli (GPa) = 34.94135 46.75375 22.09350
#
# Poissons Ratio (x) = 0.18463 0.46131
# Poissons Ratio (y) = 0.13798 0.27442
# Poissons Ratio (z) = 0.72957 0.58071
#
# Static dielectric constant tensor:
#      x y z
#    x 2.499540 0.000000 0.000000 
#    y 0.000000 2.653390 0.000000 
#    z 0.000000 0.000000 2.423040 
# 
# 
# High freq. dielectric constant tensor:
#      x y z
#    x 1.434860 0.000000 0.000000 
#    y 0.000000 1.476880 0.000000 
#    z 0.000000 0.000000 1.439970 
# 
# From -- ./inp_files/62236.got.cif
#   From: 2010.06.25/outbox.cif.g09.slc.cpg/sg71_32_cif.got.tgz:62236.got - 2010.06.28 04:59:45.
