data_PCOD8288769
_publ_section_title
;
Structure prediction by ZEFSAII (Michael W. Deem and Ramdas Pophale) SiO2 
 PCOD8288769
Probable space group: I M M M
;
_chemical_formula_sum "Si O2"
_cell_formula_units_Z 120
_cell_length_a 13.352573
_cell_length_b 22.472387
_cell_length_c 22.892813
_cell_angle_alpha 90.000000
_cell_angle_beta 90.000000
_cell_angle_gamma 90.000000
_cell_volume 6869.313342
_symmetry_space_group_name_H-M "I M M M"
_symmetry_group_IT_number 71
_symmetry_cell_setting 'orthorhombic'
loop_
_space_group_symop_operation_xyz
x,y,z
-x,-y,z
x,-y,-z
-x,y,-z
-x,-y,-z
x,y,-z
-x,y,z
x,-y,z
1/2+x,1/2+y,1/2+z
1/2-x,1/2-y,1/2+z
1/2+x,1/2-y,1/2-z
1/2-x,1/2+y,1/2-z
1/2-x,1/2-y,1/2-z
1/2+x,1/2+y,1/2-z
1/2-x,1/2+y,1/2+z
1/2+x,1/2-y,1/2+z
loop_
_atom_site_type_symbol
_atom_site_label
_atom_site_fract_x
_atom_site_fract_y
_atom_site_fract_z
Si Si1 0.245846 0.568879 0.831754
Si Si2 0.500000 0.565148 0.068877
Si Si3 0.884718 0.844830 0.264935
Si Si4 0.890750 0.568133 0.727334
Si Si5 0.255430 0.644985 0.654927
Si Si6 0.883933 0.932040 0.068088
Si Si7 0.807243 0.862557 0.432536
Si Si8 0.383072 0.745271 0.868383
O O1 0.269774 0.500000 0.846255
O O2 0.337709 0.596866 0.795041
O O3 0.145553 0.575382 0.793922
O O4 0.223269 0.607374 0.890979
O O5 0.500000 0.500000 0.097878
O O6 0.403777 0.600772 0.089410
O O7 0.500000 0.559977 0.000000
O O8 0.830517 0.829236 0.203944
O O9 0.872787 0.787299 0.306165
O O10 0.000000 0.859353 0.252094
O O11 0.898818 0.500000 0.709849
O O12 0.814988 0.595294 0.681745
O O13 0.000000 0.598953 0.722861
O O14 0.317559 0.615343 0.602822
O O15 0.182669 0.695667 0.630510
O O16 0.000000 0.919292 0.081852
O O17 0.857767 0.000000 0.086331
O O18 0.861476 0.922702 0.000000
O O19 0.777978 0.871146 0.500000
O O20 0.832481 0.794211 0.419611
O O21 0.500000 0.758511 0.882710
#
# Coordination Sequence:
#
# PCOD8288769 Si02
#       8
#    16   8  16  16  16  16  16  16
#     4   9  18  30  48  75 101 130 167 204 251 309
#     4   9  16  26  44  68  92 126 167 201 242 298
#     4   9  19  33  47  70 104 132 158 206 262 304
#     4   9  18  33  51  73 102 129 158 205 258 302
#     4  11  19  31  54  79  95 127 176 209 240 302
#     4   9  19  36  56  79 108 135 158 197 254 308
#     4  10  19  32  47  67 100 136 170 211 253 296
#     4  10  20  33  47  67 100 137 171 210 254 296
#
# _framework density 17.468995
#
# number of rings (size 3 to 8) (size 9 to 14) (size 15 to 20)
#    0.000    2.467    0.667    2.400    0.933    2.133 
#    0.000    0.000    0.000    4.800    0.000    6.533 
#    0.000    0.000    0.000    0.000    0.000    0.000 
#
# Total GULP energy -743769.494286 kJ/mol
# GULP energy per Si atom -12396.158238 kJ/mol
# Density = 1.742923 g / cm^3
# Si number density = 17.468995 Si / 1000 Ang^3
#
#
#
# Elastic Constant Matrix: (Units=GPa)
#
#
# Indices 1 2 3 4 5 6 
#
# 1 85.5376 39.8852 33.5865 0.0000 0.0000 0.0000
# 2 39.8852 92.9253 42.8900 0.0000 0.0000 0.0000
# 3 33.5865 42.8900 82.8294 0.0000 0.0000 0.0000
# 4 0.0000 0.0000 0.0000 22.1959 0.0000 0.0000
# 5 0.0000 0.0000 0.0000 0.0000 16.4305 0.0000
# 6 0.0000 0.0000 0.0000 0.0000 0.0000 33.6694
#
#
#
# Elastic Compliance Matrix: (Units=1/GPa)
#
#
# Indices 1 2 3 4 5 6 
#
# 1 0.015441 -0.004911 -0.003718 0.000000 0.000000 0.000000
# 2 -0.004911 0.015703 -0.006140 0.000000 0.000000 0.000000
# 3 -0.003718 -0.006140 0.016760 0.000000 0.000000 0.000000
# 4 0.000000 0.000000 0.000000 0.045053 0.000000 0.000000
# 5 0.000000 0.000000 0.000000 0.000000 0.060862 0.000000
# 6 0.000000 0.000000 0.000000 0.000000 0.000000 0.029701
#
#
# Mechanical properties :
#
#
# Convention : Reuss Voigt Hill
#
# Bulk Modulus (GPa) = 54.44955 54.89063 54.67009
# Shear Modulus (GPa) = 22.81227 24.12119 23.46673
#
# Velocity S-wave (km/s) = 3.61761 3.71994 3.66913
# Velocity P-wave (km/s) = 6.97756 7.06687 7.02236
#
# Compressibility (1/GPa) = 0.01836563
#
# Stress axis : x y z
#
# Youngs Moduli (GPa) = 64.76373 63.68112 59.66661
#
# Poissons Ratio (x) = 0.31277 0.22183
# Poissons Ratio (y) = 0.31808 0.36634
# Poissons Ratio (z) = 0.24078 0.39099
#
# Static dielectric constant tensor:
#      x y z
#    x 3.308520 0.000000 0.000000 
#    y 0.000000 3.234910 0.000000 
#    z 0.000000 0.000000 3.191320 
# 
# 
# High freq. dielectric constant tensor:
#      x y z
#    x 1.662620 0.000000 0.000000 
#    y 0.000000 1.673200 0.000000 
#    z 0.000000 0.000000 1.670640 
# 
# From -- ./inp_files/59094.got.cif
#   From: 2010.06.25/outbox.cif.g09.slc.cpg/sg71_30_cif.got.tgz:59094.got - 2010.06.28 04:59:45.
