data_PCOD8288937
_publ_section_title
;
Structure prediction by ZEFSAII (Michael W. Deem and Ramdas Pophale) SiO2 
 PCOD8288937
Probable space group: I M M M
;
_chemical_formula_sum "Si O2"
_cell_formula_units_Z 104
_cell_length_a 26.301938
_cell_length_b 8.733836
_cell_length_c 22.035444
_cell_angle_alpha 90.000000
_cell_angle_beta 90.000000
_cell_angle_gamma 90.000000
_cell_volume 5061.911968
_symmetry_space_group_name_H-M "I M M M"
_symmetry_group_IT_number 71
_symmetry_cell_setting 'orthorhombic'
loop_
_space_group_symop_operation_xyz
x,y,z
-x,-y,z
x,-y,-z
-x,y,-z
-x,-y,-z
x,y,-z
-x,y,z
x,-y,z
1/2+x,1/2+y,1/2+z
1/2-x,1/2-y,1/2+z
1/2+x,1/2-y,1/2-z
1/2-x,1/2+y,1/2-z
1/2-x,1/2-y,1/2-z
1/2+x,1/2+y,1/2-z
1/2-x,1/2+y,1/2+z
1/2+x,1/2-y,1/2+z
loop_
_atom_site_type_symbol
_atom_site_label
_atom_site_fract_x
_atom_site_fract_y
_atom_site_fract_z
Si Si1 0.000000 0.681024 0.569458
Si Si2 0.359087 0.318523 0.251637
Si Si3 0.445120 0.675897 0.660967
Si Si4 0.634115 0.324395 0.568689
Si Si5 0.289200 0.177994 0.656462
Si Si6 0.794539 0.180537 0.433499
Si Si7 0.102083 0.820872 0.378429
O O1 0.050090 0.736150 0.604920
O O2 0.000000 0.500000 0.569311
O O3 0.000000 0.744072 0.500000
O O4 0.354449 0.500000 0.254624
O O5 0.404817 0.251032 0.292557
O O6 0.305326 0.256357 0.279245
O O7 0.372634 0.262238 0.184351
O O8 0.500000 0.759145 0.665312
O O9 0.451882 0.500000 0.679566
O O10 0.423721 0.689850 0.592628
O O11 0.635290 0.270512 0.500000
O O12 0.653260 0.500000 0.577246
O O13 0.668109 0.207854 0.606287
O O14 0.237649 0.245557 0.624295
O O15 0.282950 0.000000 0.670394
O O16 0.777258 0.246285 0.500000
O O17 0.854535 0.216918 0.427715
O O18 0.785571 0.000000 0.432986
O O19 0.089215 0.000000 0.374641
#
# Coordination Sequence:
#
# PCOD8288937 Si02
#       7
#     8  16  16  16  16  16  16
#     4  11  25  43  61  87 125 157 182 225 288 347
#     4   9  19  34  53  80 110 138 181 234 280 327
#     4   8  14  25  43  66  95 128 163 213 269 320
#     4   9  17  29  45  68  98 132 176 228 279 330
#     4  10  19  32  52  76 107 147 185 222 276 341
#     4   9  18  33  54  82 112 143 187 239 283 329
#     4  10  21  38  63  88 110 145 194 240 280 330
#
# _framework density 20.545594999999999
#
# number of rings (size 3 to 8) (size 9 to 14) (size 15 to 20)
#    0.000    2.692    0.000    2.538    1.077    3.692 
#    0.000    3.077    0.000    7.846    0.000    4.308 
#    0.000    0.000    0.000    0.000    0.000    0.000 
#
# Total GULP energy -644190.727595 kJ/mol
# GULP energy per Si atom -12388.283223 kJ/mol
# Density = 2.049883 g / cm^3
# Si number density = 20.545595 Si / 1000 Ang^3
#
#
#
# Elastic Constant Matrix: (Units=GPa)
#
#
# Indices 1 2 3 4 5 6 
#
# 1 128.2739 22.3957 40.5994 0.0000 0.0000 0.0000
# 2 22.3957 33.1457 21.6401 0.0000 0.0000 0.0000
# 3 40.5994 21.6401 124.4712 0.0000 0.0000 0.0000
# 4 0.0000 0.0000 0.0000 23.3114 0.0000 0.0000
# 5 0.0000 0.0000 0.0000 0.0000 24.3466 0.0000
# 6 0.0000 0.0000 0.0000 0.0000 0.0000 18.1081
#
#
#
# Elastic Compliance Matrix: (Units=1/GPa)
#
#
# Indices 1 2 3 4 5 6 
#
# 1 0.009344 -0.004877 -0.002200 0.000000 0.000000 0.000000
# 2 -0.004877 0.036578 -0.004769 0.000000 0.000000 0.000000
# 3 -0.002200 -0.004769 0.009581 0.000000 0.000000 0.000000
# 4 0.000000 0.000000 0.000000 0.042897 0.000000 0.000000
# 5 0.000000 0.000000 0.000000 0.000000 0.041073 0.000000
# 6 0.000000 0.000000 0.000000 0.000000 0.000000 0.055224
#
#
# Mechanical properties :
#
#
# Convention : Reuss Voigt Hill
#
# Bulk Modulus (GPa) = 31.43492 50.57346 41.00419
# Shear Modulus (GPa) = 21.83482 26.57027 24.20254
#
# Velocity S-wave (km/s) = 3.26352 3.60006 3.43591
# Velocity P-wave (km/s) = 5.43452 6.47682 5.97843
#
# Compressibility (1/GPa) = 0.03181176
#
# Stress axis : x y z
#
# Youngs Moduli (GPa) = 107.02573 27.33850 104.37828
#
# Poissons Ratio (x) = 0.13333 0.22960
# Poissons Ratio (y) = 0.52197 0.49774
# Poissons Ratio (z) = 0.23543 0.13037
#
# Static dielectric constant tensor:
#      x y z
#    x 3.978850 0.000000 0.000000 
#    y 0.000000 3.247530 0.000000 
#    z 0.000000 0.000000 4.010990 
# 
# 
# High freq. dielectric constant tensor:
#      x y z
#    x 1.810370 0.000000 0.000000 
#    y 0.000000 1.750190 0.000000 
#    z 0.000000 0.000000 1.814260 
# 
# From -- ./inp_files/61977.got.cif
#   From: 2010.06.25/outbox.cif.g09.slc.cpg/sg71_31_cif.got.tgz:61977.got - 2010.06.28 04:59:45.
