data_PCOD8288407
_publ_section_title
;
Structure prediction by ZEFSAII (Michael W. Deem and Ramdas Pophale) SiO2 
 PCOD8288407
Probable space group: I M M M
;
_chemical_formula_sum "Si O2"
_cell_formula_units_Z 88
_cell_length_a 21.741320
_cell_length_b 23.593460
_cell_length_c 9.772335
_cell_angle_alpha 90.000000
_cell_angle_beta 90.000000
_cell_angle_gamma 90.000000
_cell_volume 5012.748201
_symmetry_space_group_name_H-M "I M M M"
_symmetry_group_IT_number 71
_symmetry_cell_setting 'orthorhombic'
loop_
_space_group_symop_operation_xyz
x,y,z
-x,-y,z
x,-y,-z
-x,y,-z
-x,-y,-z
x,y,-z
-x,y,z
x,-y,z
1/2+x,1/2+y,1/2+z
1/2-x,1/2-y,1/2+z
1/2+x,1/2-y,1/2-z
1/2-x,1/2+y,1/2-z
1/2-x,1/2-y,1/2-z
1/2+x,1/2+y,1/2-z
1/2-x,1/2+y,1/2+z
1/2+x,1/2-y,1/2+z
loop_
_atom_site_type_symbol
_atom_site_label
_atom_site_fract_x
_atom_site_fract_y
_atom_site_fract_z
Si Si1 0.433012 0.255951 0.152148
Si Si2 0.268882 0.196173 0.342548
Si Si3 0.903892 0.343118 0.160331
Si Si4 0.500000 0.063540 0.660820
Si Si5 0.931489 0.066777 0.153121
Si Si6 0.145525 0.859719 0.656501
O O1 0.500000 0.285055 0.145140
O O2 0.439005 0.204353 0.255476
O O3 0.384680 0.301277 0.209151
O O4 0.412888 0.235114 0.000000
O O5 0.271708 0.217530 0.500000
O O6 0.250000 0.250000 0.250000
O O7 0.331760 0.163736 0.300055
O O8 0.218474 0.146632 0.325901
O O9 0.936913 0.402658 0.202811
O O10 0.914143 0.332349 0.000000
O O11 0.500000 0.056179 0.500000
O O12 0.500000 0.000000 0.727755
O O13 0.878890 0.089181 0.252844
O O14 0.000000 0.085637 0.200829
O O15 0.926549 0.000000 0.154757
O O16 0.919342 0.089760 0.000000
O O17 0.126514 0.871507 0.500000
#
# Coordination Sequence:
#
# PCOD8288407 Si02
#       6
#    16  16  16   8  16  16
#     4  10  19  30  47  73 105 137 166 203 255 310
#     4  10  20  33  50  75 107 138 172 211 256 314
#     4  10  19  32  52  77 100 129 175 219 257 310
#     4   9  18  34  55  77 103 135 172 221 272 307
#     4   9  19  36  55  75 101 134 174 218 259 299
#     4  10  20  33  49  74 107 139 172 207 254 315
#
# _framework density 17.555242
#
# number of rings (size 3 to 8) (size 9 to 14) (size 15 to 20)
#    0.000    2.273    2.727    1.091    0.000    2.909 
#    0.000    1.818    0.000    4.364    0.000    0.000 
#    0.000    0.000    0.000    0.000    0.000    0.000 
#
# Total GULP energy -545247.404789 kJ/mol
# GULP energy per Si atom -12391.986472 kJ/mol
# Density = 1.751529 g / cm^3
# Si number density = 17.555242 Si / 1000 Ang^3
#
#
#
# Elastic Constant Matrix: (Units=GPa)
#
#
# Indices 1 2 3 4 5 6 
#
# 1 129.9586 48.4653 35.0772 0.0000 0.0000 0.0000
# 2 48.4653 74.4118 34.9875 0.0000 0.0000 0.0000
# 3 35.0772 34.9875 55.9276 0.0000 0.0000 0.0000
# 4 0.0000 0.0000 0.0000 27.6333 0.0000 0.0000
# 5 0.0000 0.0000 0.0000 0.0000 21.0648 0.0000
# 6 0.0000 0.0000 0.0000 0.0000 0.0000 21.6828
#
#
#
# Elastic Compliance Matrix: (Units=1/GPa)
#
#
# Indices 1 2 3 4 5 6 
#
# 1 0.010575 -0.005340 -0.003292 0.000000 0.000000 0.000000
# 2 -0.005340 0.021735 -0.010248 0.000000 0.000000 0.000000
# 3 -0.003292 -0.010248 0.026356 0.000000 0.000000 0.000000
# 4 0.000000 0.000000 0.000000 0.036188 0.000000 0.000000
# 5 0.000000 0.000000 0.000000 0.000000 0.047472 0.000000
# 6 0.000000 0.000000 0.000000 0.000000 0.000000 0.046120
#
#
# Mechanical properties :
#
#
# Convention : Reuss Voigt Hill
#
# Bulk Modulus (GPa) = 47.83248 55.26200 51.54724
# Shear Modulus (GPa) = 21.44324 23.52739 22.48532
#
# Velocity S-wave (km/s) = 3.49875 3.66483 3.58275
# Velocity P-wave (km/s) = 6.60512 7.03244 6.82213
#
# Compressibility (1/GPa) = 0.02090630
#
# Stress axis : x y z
#
# Youngs Moduli (GPa) = 94.56681 46.00879 37.94202
#
# Poissons Ratio (x) = 0.24566 0.12490
# Poissons Ratio (y) = 0.50494 0.38884
# Poissons Ratio (z) = 0.31131 0.47151
#
# Static dielectric constant tensor:
#      x y z
#    x 3.591030 0.000000 0.000000 
#    y 0.000000 3.099160 0.000000 
#    z 0.000000 0.000000 3.245890 
# 
# 
# High freq. dielectric constant tensor:
#      x y z
#    x 1.691960 0.000000 0.000000 
#    y 0.000000 1.649350 0.000000 
#    z 0.000000 0.000000 1.670430 
# 
# From -- ./inp_files/10408.got.cif
#   From: 2010.06.25/outbox.cif.g09.slc.cpg/sg71_6_cif.got.tgz:10408.got - 2010.06.28 04:59:45.
