data_PCOD8288879
_publ_section_title
;
Structure prediction by ZEFSAII (Michael W. Deem and Ramdas Pophale) SiO2 
 PCOD8288879
Probable space group: I M M M
;
_chemical_formula_sum "Si O2"
_cell_formula_units_Z 104
_cell_length_a 19.139308
_cell_length_b 14.991922
_cell_length_c 18.698878
_cell_angle_alpha 90.000000
_cell_angle_beta 90.000000
_cell_angle_gamma 90.000000
_cell_volume 5365.362796
_symmetry_space_group_name_H-M "I M M M"
_symmetry_group_IT_number 71
_symmetry_cell_setting 'orthorhombic'
loop_
_space_group_symop_operation_xyz
x,y,z
-x,-y,z
x,-y,-z
-x,y,-z
-x,-y,-z
x,y,-z
-x,y,z
x,-y,z
1/2+x,1/2+y,1/2+z
1/2-x,1/2-y,1/2+z
1/2+x,1/2-y,1/2-z
1/2-x,1/2+y,1/2-z
1/2-x,1/2-y,1/2-z
1/2+x,1/2+y,1/2-z
1/2-x,1/2+y,1/2+z
1/2+x,1/2-y,1/2+z
loop_
_atom_site_type_symbol
_atom_site_label
_atom_site_fract_x
_atom_site_fract_y
_atom_site_fract_z
Si Si1 0.866471 0.398439 0.339516
Si Si2 0.000000 0.393749 0.579336
Si Si3 0.155075 0.400471 0.819562
Si Si4 0.817737 0.102680 0.321300
Si Si5 0.795339 0.255714 0.579087
Si Si6 0.081213 0.103529 0.189808
Si Si7 0.631137 0.747780 0.419972
O O1 0.849189 0.500000 0.360551
O O2 0.883020 0.389452 0.256096
O O3 0.802902 0.339093 0.367461
O O4 0.932693 0.357672 0.380176
O O5 0.000000 0.500000 0.580449
O O6 0.000000 0.354641 0.500000
O O7 0.146940 0.500000 0.850763
O O8 0.236550 0.380924 0.801693
O O9 0.113869 0.336097 0.873874
O O10 0.832673 0.167171 0.388601
O O11 0.868228 0.130599 0.255704
O O12 0.831814 0.000000 0.343229
O O13 0.827525 0.272070 0.500000
O O14 0.713382 0.246712 0.571940
O O15 0.102422 0.160547 0.120257
O O16 0.000000 0.121272 0.210223
O O17 0.092877 0.000000 0.170072
O O18 0.597661 0.750887 0.500000
#
# Coordination Sequence:
#
# PCOD8288879 Si02
#       7
#    16   8  16  16  16  16  16
#     4  10  19  32  51  74 104 140 174 212 257 310
#     4   9  18  32  48  68 100 138 168 199 246 306
#     4   9  18  34  57  82 105 135 176 221 271 321
#     4   9  18  35  57  78 104 137 177 226 270 313
#     4  10  20  33  52  80 110 140 174 215 270 326
#     4  10  21  37  57  79 105 142 185 224 266 318
#     4  10  21  36  54  78 109 140 173 221 274 322
#
# _framework density 19.383590999999999
#
# number of rings (size 3 to 8) (size 9 to 14) (size 15 to 20)
#    0.000    2.385    0.000    2.308    0.000    6.462 
#    5.538    5.385    0.000    0.000    0.000    3.231 
#    0.000    0.000    0.000    0.000    0.000    0.000 
#
# Total GULP energy -644541.537292 kJ/mol
# GULP energy per Si atom -12395.029563 kJ/mol
# Density = 1.933947 g / cm^3
# Si number density = 19.383591 Si / 1000 Ang^3
#
#
#
# Elastic Constant Matrix: (Units=GPa)
#
#
# Indices 1 2 3 4 5 6 
#
# 1 39.2865 22.7520 29.5387 0.0000 0.0000 0.0000
# 2 22.7520 101.3450 60.2869 0.0000 0.0000 0.0000
# 3 29.5387 60.2869 116.4795 0.0000 0.0000 0.0000
# 4 0.0000 0.0000 0.0000 30.3953 0.0000 0.0000
# 5 0.0000 0.0000 0.0000 0.0000 -345.5687 0.0000
# 6 0.0000 0.0000 0.0000 0.0000 0.0000 19.0460
#
#
#
# Elastic Compliance Matrix: (Units=1/GPa)
#
#
# Indices 1 2 3 4 5 6 
#
# 1 0.032257 -0.003432 -0.006404 0.000000 0.000000 0.000000
# 2 -0.003432 0.014622 -0.006698 0.000000 0.000000 0.000000
# 3 -0.006404 -0.006698 0.013676 0.000000 0.000000 0.000000
# 4 0.000000 0.000000 0.000000 0.032900 0.000000 0.000000
# 5 0.000000 0.000000 0.000000 0.000000 -0.002894 0.000000
# 6 0.000000 0.000000 0.000000 0.000000 0.000000 0.052504
#
#
# Mechanical properties :
#
#
# Convention : Reuss Voigt Hill
#
# Bulk Modulus (GPa) = 36.38060 53.58513 44.98287
# Shear Modulus (GPa) = 26.98414 -49.58992 -11.30289
#
# Velocity S-wave (km/s) = 3.73515 -5.06350 -2.41740
# Velocity P-wave (km/s) = 6.11648 2.54573 3.93259
#
# Compressibility (1/GPa) = 0.02748718
#
# Stress axis : x y z
#
# Youngs Moduli (GPa) = 31.00142 68.39001 73.12270
#
# Poissons Ratio (x) = 0.23473 0.46825
# Poissons Ratio (y) = 0.10641 0.48974
# Poissons Ratio (z) = 0.19852 0.45805
#
# Static dielectric constant tensor:
#      x y z
#    x 3.426630 0.000000 0.000000 
#    y 0.000000 3.563560 0.000000 
#    z 0.000000 0.000000 3.813190 
# 
# 
# High freq. dielectric constant tensor:
#      x y z
#    x 1.734150 0.000000 0.000000 
#    y 0.000000 1.755920 0.000000 
#    z 0.000000 0.000000 1.755090 
# 
# From -- ./inp_files/47303.got.cif
#   From: 2010.06.25/outbox.cif.g09.slc.cpg/sg71_24_cif.got.tgz:47303.got - 2010.06.28 04:59:45.
