data_PCOD8288733
_publ_section_title
;
Structure prediction by ZEFSAII (Michael W. Deem and Ramdas Pophale) SiO2 
 PCOD8288733
Probable space group: I M M M
;
_chemical_formula_sum "Si O2"
_cell_formula_units_Z 88
_cell_length_a 22.767071
_cell_length_b 9.122543
_cell_length_c 22.432706
_cell_angle_alpha 90.000000
_cell_angle_beta 90.000000
_cell_angle_gamma 90.000000
_cell_volume 4659.129112
_symmetry_space_group_name_H-M "I M M M"
_symmetry_group_IT_number 71
_symmetry_cell_setting 'orthorhombic'
loop_
_space_group_symop_operation_xyz
x,y,z
-x,-y,z
x,-y,-z
-x,y,-z
-x,-y,-z
x,y,-z
-x,y,z
x,-y,z
1/2+x,1/2+y,1/2+z
1/2-x,1/2-y,1/2+z
1/2+x,1/2-y,1/2-z
1/2-x,1/2+y,1/2-z
1/2-x,1/2-y,1/2-z
1/2+x,1/2+y,1/2-z
1/2-x,1/2+y,1/2+z
1/2+x,1/2-y,1/2+z
loop_
_atom_site_type_symbol
_atom_site_label
_atom_site_fract_x
_atom_site_fract_y
_atom_site_fract_z
Si Si1 0.136044 0.165983 0.672639
Si Si2 0.069181 0.174678 0.000000
Si Si3 0.935263 0.667734 0.765563
Si Si4 0.934175 0.825433 0.564263
Si Si5 0.376329 0.831060 0.385815
Si Si6 0.734447 0.165708 0.689608
O O1 0.118150 0.249978 0.732881
O O2 0.104013 0.243394 0.617045
O O3 0.204161 0.170115 0.654717
O O4 0.114671 0.000000 0.682538
O O5 0.103491 0.235667 0.942201
O O6 0.000000 0.222513 0.000000
O O7 0.074214 0.000000 0.000000
O O8 0.931779 0.500000 0.745775
O O9 0.927123 0.682689 0.836455
O O10 0.000000 0.732140 0.749608
O O11 0.910365 0.770989 0.500000
O O12 0.000000 0.769119 0.573465
O O13 0.931452 0.000000 0.566450
O O14 0.315883 0.769985 0.354499
O O15 0.367711 0.000000 0.406279
O O16 0.750000 0.250000 0.750000
O O17 0.715404 0.000000 0.706750
#
# Coordination Sequence:
#
# PCOD8288733 Si02
#       6
#    16   8  16  16  16  16
#     4  10  19  31  51  80 107 136 177 227 277 322
#     4  11  25  43  63  89 117 147 192 251 306 349
#     4  10  20  33  52  79 109 143 182 223 273 337
#     4   8  14  26  44  68 100 134 166 205 257 313
#     4  10  21  39  60  82 112 153 193 229 282 353
#     4  10  20  35  56  82 110 143 182 224 274 332
#
# _framework density 18.887649
#
# number of rings (size 3 to 8) (size 9 to 14) (size 15 to 20)
#    0.000    2.273    1.818    1.909    0.000    4.000 
#    1.636    0.000    0.000    0.545    0.000    2.545 
#    0.000    0.000    0.000    0.000    0.000    0.000 
#
# Total GULP energy -545205.542140 kJ/mol
# GULP energy per Si atom -12391.035049 kJ/mol
# Density = 1.884466 g / cm^3
# Si number density = 18.887649 Si / 1000 Ang^3
#
#
#
# Elastic Constant Matrix: (Units=GPa)
#
#
# Indices 1 2 3 4 5 6 
#
# 1 113.0559 34.3571 53.5626 0.0000 0.0000 0.0000
# 2 34.3571 52.5463 42.0956 0.0000 0.0000 0.0000
# 3 53.5626 42.0956 126.1139 0.0000 0.0000 0.0000
# 4 0.0000 0.0000 0.0000 24.8206 0.0000 0.0000
# 5 0.0000 0.0000 0.0000 0.0000 32.2524 0.0000
# 6 0.0000 0.0000 0.0000 0.0000 0.0000 23.3536
#
#
#
# Elastic Compliance Matrix: (Units=1/GPa)
#
#
# Indices 1 2 3 4 5 6 
#
# 1 0.012012 -0.005142 -0.003385 0.000000 0.000000 0.000000
# 2 -0.005142 0.028178 -0.007222 0.000000 0.000000 0.000000
# 3 -0.003385 -0.007222 0.011778 0.000000 0.000000 0.000000
# 4 0.000000 0.000000 0.000000 0.040289 0.000000 0.000000
# 5 0.000000 0.000000 0.000000 0.000000 0.031005 0.000000
# 6 0.000000 0.000000 0.000000 0.000000 0.000000 0.042820
#
#
# Mechanical properties :
#
#
# Convention : Reuss Voigt Hill
#
# Bulk Modulus (GPa) = 48.85232 61.30519 55.07875
# Shear Modulus (GPa) = 24.46149 26.86538 25.66343
#
# Velocity S-wave (km/s) = 3.60266 3.77553 3.69011
# Velocity P-wave (km/s) = 6.57468 7.17875 6.88335
#
# Compressibility (1/GPa) = 0.02046986
#
# Stress axis : x y z
#
# Youngs Moduli (GPa) = 83.25322 35.48837 84.90624
#
# Poissons Ratio (x) = 0.18247 0.28743
# Poissons Ratio (y) = 0.42806 0.61318
# Poissons Ratio (z) = 0.28183 0.25629
#
# Static dielectric constant tensor:
#      x y z
#    x 3.786890 0.000000 0.000000 
#    y 0.000000 3.173030 0.000000 
#    z 0.000000 0.000000 3.589320 
# 
# 
# High freq. dielectric constant tensor:
#      x y z
#    x 1.746690 0.000000 0.000000 
#    y 0.000000 1.699340 0.000000 
#    z 0.000000 0.000000 1.731980 
# 
# From -- ./inp_files/55530.got.cif
#   From: 2010.06.25/outbox.cif.g09.slc.cpg/sg71_28_cif.got.tgz:55530.got - 2010.06.28 04:59:45.
