data_PCOD8288187
_publ_section_title
;
Structure prediction by ZEFSAII (Michael W. Deem and Ramdas Pophale) SiO2 
 PCOD8288187
Probable space group: I M M M
;
_chemical_formula_sum "Si O2"
_cell_formula_units_Z 112
_cell_length_a 7.986100
_cell_length_b 30.714709
_cell_length_c 27.970245
_cell_angle_alpha 90.000000
_cell_angle_beta 90.000000
_cell_angle_gamma 90.000000
_cell_volume 6860.842025
_symmetry_space_group_name_H-M "I M M M"
_symmetry_group_IT_number 71
_symmetry_cell_setting 'orthorhombic'
loop_
_space_group_symop_operation_xyz
x,y,z
-x,-y,z
x,-y,-z
-x,y,-z
-x,-y,-z
x,y,-z
-x,y,z
x,-y,z
1/2+x,1/2+y,1/2+z
1/2-x,1/2-y,1/2+z
1/2+x,1/2-y,1/2-z
1/2-x,1/2+y,1/2-z
1/2-x,1/2-y,1/2-z
1/2+x,1/2+y,1/2-z
1/2-x,1/2+y,1/2+z
1/2+x,1/2-y,1/2+z
loop_
_atom_site_type_symbol
_atom_site_label
_atom_site_fract_x
_atom_site_fract_y
_atom_site_fract_z
Si Si1 0.000000 0.948370 0.946630
Si Si2 0.196457 0.791739 0.803847
Si Si3 0.691943 0.948953 0.381979
Si Si4 0.189340 0.612936 0.796521
Si Si5 0.806866 0.797509 0.303894
Si Si6 0.191041 0.886889 0.808639
Si Si7 0.000000 0.051574 0.446682
Si Si8 0.687597 0.050199 0.116077
O O1 0.829485 0.932429 0.920532
O O2 0.000000 0.000000 0.949383
O O3 0.000000 0.928407 0.000000
O O4 0.264708 0.792141 0.749718
O O5 0.270097 0.748711 0.830909
O O6 0.249058 0.838345 0.826472
O O7 0.000000 0.787139 0.804259
O O8 0.500000 0.937692 0.398339
O O9 0.738616 0.925331 0.332654
O O10 0.828273 0.932874 0.420898
O O11 0.710474 0.000000 0.372428
O O12 0.215340 0.659392 0.824219
O O13 0.300252 0.609257 0.748790
O O14 0.000000 0.607887 0.779757
O O15 0.000000 0.808473 0.305835
O O16 0.304366 0.922512 0.834888
O O17 0.000000 0.895204 0.823635
O O18 0.000000 0.071652 0.500000
O O19 0.000000 0.000000 0.449308
O O20 0.500000 0.055672 0.094128
O O21 0.721994 0.000000 0.129147
#
# Coordination Sequence:
#
# PCOD8288187 Si02
#       8
#     8  16  16  16  16  16   8  16
#     4   9  18  34  53  71  93 119 150 194 245 287
#     4   8  15  26  39  57  83 116 154 191 228 266
#     4   9  19  33  47  67  94 123 155 191 228 271
#     4  10  19  29  43  63  91 128 161 191 226 267
#     4   9  16  25  39  58  82 116 155 191 228 266
#     4  10  19  30  45  65  92 129 163 193 229 268
#     4   9  18  32  51  71  89 115 148 188 243 287
#     4  10  20  33  49  70  96 126 158 193 231 275
#
# _framework density 16.324528000000001
#
# number of rings (size 3 to 8) (size 9 to 14) (size 15 to 20)
#    0.000    2.714    0.714    2.143    2.000    5.143 
#    0.000    4.286    0.000    0.000    0.000    0.000 
#    0.000    1.143    0.571    0.000    0.000    0.000 
#
# Total GULP energy -693831.027590 kJ/mol
# GULP energy per Si atom -12389.839778 kJ/mol
# Density = 1.628737 g / cm^3
# Si number density = 16.324528 Si / 1000 Ang^3
#
#
#
# Elastic Constant Matrix: (Units=GPa)
#
#
# Indices 1 2 3 4 5 6 
#
# 1 82.1502 35.7051 38.2922 0.0000 0.0000 0.0000
# 2 35.7051 76.2081 35.8965 0.0000 0.0000 0.0000
# 3 38.2922 35.8965 63.3774 0.0000 0.0000 0.0000
# 4 0.0000 0.0000 0.0000 1.9847 0.0000 0.0000
# 5 0.0000 0.0000 0.0000 0.0000 18.1274 0.0000
# 6 0.0000 0.0000 0.0000 0.0000 0.0000 22.6301
#
#
#
# Elastic Compliance Matrix: (Units=1/GPa)
#
#
# Indices 1 2 3 4 5 6 
#
# 1 0.018019 -0.004520 -0.008327 0.000000 0.000000 0.000000
# 2 -0.004520 0.019030 -0.008048 0.000000 0.000000 0.000000
# 3 -0.008327 -0.008048 0.025368 0.000000 0.000000 0.000000
# 4 0.000000 0.000000 0.000000 0.503851 0.000000 0.000000
# 5 0.000000 0.000000 0.000000 0.000000 0.055165 0.000000
# 6 0.000000 0.000000 0.000000 0.000000 0.000000 0.044189
#
#
# Mechanical properties :
#
#
# Convention : Reuss Voigt Hill
#
# Bulk Modulus (GPa) = 48.47808 49.05813 48.76811
# Shear Modulus (GPa) = 6.99999 16.00458 11.50229
#
# Velocity S-wave (km/s) = 2.07300 3.13453 2.65731
# Velocity P-wave (km/s) = 5.95741 6.57400 6.27328
#
# Compressibility (1/GPa) = 0.02062788
#
# Stress axis : x y z
#
# Youngs Moduli (GPa) = 55.49820 52.54749 39.42047
#
# Poissons Ratio (x) = 0.23751 0.32824
# Poissons Ratio (y) = 0.25085 0.31724
# Poissons Ratio (z) = 0.46211 0.42289
#
# Static dielectric constant tensor:
#      x y z
#    x 3.197200 0.000000 0.000000 
#    y 0.000000 3.297210 0.000000 
#    z 0.000000 0.000000 2.726950 
# 
# 
# High freq. dielectric constant tensor:
#      x y z
#    x 1.644760 0.000000 0.000000 
#    y 0.000000 1.626640 0.000000 
#    z 0.000000 0.000000 1.562240 
# 
# From -- ./inp_files/68686.got.cif
#   From: 2010.06.25/outbox.cif.g09.slc.cpg/sg71_35_cif.got.tgz:68686.got - 2010.06.28 04:59:45.
