data_PCOD8288874
_publ_section_title
;
Structure prediction by ZEFSAII (Michael W. Deem and Ramdas Pophale) SiO2 
 PCOD8288874
Probable space group: I M M M
;
_chemical_formula_sum "Si O2"
_cell_formula_units_Z 96
_cell_length_a 11.532739
_cell_length_b 21.791495
_cell_length_c 24.121448
_cell_angle_alpha 90.000000
_cell_angle_beta 90.000000
_cell_angle_gamma 90.000000
_cell_volume 6062.096762
_symmetry_space_group_name_H-M "I M M M"
_symmetry_group_IT_number 71
_symmetry_cell_setting 'orthorhombic'
loop_
_space_group_symop_operation_xyz
x,y,z
-x,-y,z
x,-y,-z
-x,y,-z
-x,-y,-z
x,y,-z
-x,y,z
x,-y,z
1/2+x,1/2+y,1/2+z
1/2-x,1/2-y,1/2+z
1/2+x,1/2-y,1/2-z
1/2-x,1/2+y,1/2-z
1/2-x,1/2-y,1/2-z
1/2+x,1/2+y,1/2-z
1/2-x,1/2+y,1/2+z
1/2+x,1/2-y,1/2+z
loop_
_atom_site_type_symbol
_atom_site_label
_atom_site_fract_x
_atom_site_fract_y
_atom_site_fract_z
Si Si1 0.288148 0.651214 0.263245
Si Si2 0.500000 0.430002 0.743134
Si Si3 0.000000 0.067890 0.888184
Si Si4 0.134892 0.570070 0.342411
Si Si5 0.867133 0.274227 0.818912
Si Si6 0.769409 0.880275 0.061658
Si Si7 0.368267 0.252882 0.440063
O O1 0.387316 0.607933 0.236831
O O2 0.200357 0.609650 0.297178
O O3 0.219479 0.680904 0.212403
O O4 0.341135 0.703325 0.303538
O O5 0.500000 0.500000 0.767050
O O6 0.500000 0.431872 0.677424
O O7 0.114171 0.100541 0.908229
O O8 0.000000 0.000000 0.912812
O O9 0.178992 0.500000 0.338543
O O10 0.159385 0.596010 0.403851
O O11 0.000000 0.575030 0.330068
O O12 0.846189 0.287139 0.884751
O O13 0.000000 0.288830 0.802543
O O14 0.773466 0.806816 0.059378
O O15 0.760432 0.908262 0.000000
O O16 0.354673 0.217287 0.500000
O O17 0.500000 0.279343 0.436422
#
# Coordination Sequence:
#
# PCOD8288874 Si02
#       7
#    16   8   8  16  16  16  16
#     4  11  20  33  50  73  98 129 165 205 251 292
#     4  11  20  33  54  75  99 128 164 208 252 292
#     4  11  19  28  45  68  92 119 160 213 253 280
#     4  11  23  36  47  62  91 132 174 211 250 294
#     4  10  19  32  51  74 102 129 161 201 243 305
#     4  11  20  31  46  65  91 125 167 211 252 290
#     4   9  16  29  49  72  97 123 154 197 247 291
#
# _framework density 15.836104000000001
#
# number of rings (size 3 to 8) (size 9 to 14) (size 15 to 20)
#    0.000    1.500    5.000    1.750    0.000    2.000 
#    0.000    0.833    0.000    0.000    0.000    0.000 
#    0.000    3.333    0.000   18.833    0.000    0.000 
#
# Total GULP energy -594969.732472 kJ/mol
# GULP energy per Si atom -12395.202760 kJ/mol
# Density = 1.580006 g / cm^3
# Si number density = 15.836104 Si / 1000 Ang^3
#
#
#
# Elastic Constant Matrix: (Units=GPa)
#
#
# Indices 1 2 3 4 5 6 
#
# 1 73.2718 36.8455 36.1736 0.0000 0.0000 0.0000
# 2 36.8455 64.6358 35.5709 0.0000 0.0000 0.0000
# 3 36.1736 35.5709 94.8198 0.0000 0.0000 0.0000
# 4 0.0000 0.0000 0.0000 17.2562 0.0000 0.0000
# 5 0.0000 0.0000 0.0000 0.0000 28.9376 0.0000
# 6 0.0000 0.0000 0.0000 0.0000 0.0000 25.5833
#
#
#
# Elastic Compliance Matrix: (Units=1/GPa)
#
#
# Indices 1 2 3 4 5 6 
#
# 1 0.020446 -0.009278 -0.004319 0.000000 0.000000 0.000000
# 2 -0.009278 0.023707 -0.005354 0.000000 0.000000 0.000000
# 3 -0.004319 -0.005354 0.014203 0.000000 0.000000 0.000000
# 4 0.000000 0.000000 0.000000 0.057950 0.000000 0.000000
# 5 0.000000 0.000000 0.000000 0.000000 0.034557 0.000000
# 6 0.000000 0.000000 0.000000 0.000000 0.000000 0.039088
#
#
# Mechanical properties :
#
#
# Convention : Reuss Voigt Hill
#
# Bulk Modulus (GPa) = 48.89377 49.98968 49.44172
# Shear Modulus (GPa) = 21.30650 22.63126 21.96888
#
# Velocity S-wave (km/s) = 3.67200 3.78444 3.72864
# Velocity P-wave (km/s) = 6.99428 7.12260 7.05873
#
# Compressibility (1/GPa) = 0.02045251
#
# Stress axis : x y z
#
# Youngs Moduli (GPa) = 48.90967 42.18242 70.40950
#
# Poissons Ratio (x) = 0.39137 0.30413
# Poissons Ratio (y) = 0.45378 0.37696
# Poissons Ratio (z) = 0.21126 0.22584
#
# Static dielectric constant tensor:
#      x y z
#    x 2.898670 0.000000 0.000000 
#    y 0.000000 2.906510 0.000000 
#    z 0.000000 0.000000 3.071510 
# 
# 
# High freq. dielectric constant tensor:
#      x y z
#    x 1.608550 0.000000 0.000000 
#    y 0.000000 1.579800 0.000000 
#    z 0.000000 0.000000 1.599590 
# 
# From -- ./inp_files/24253.got.cif
#   From: 2010.06.25/outbox.cif.g09.slc.cpg/sg71_13_cif.got.tgz:24253.got - 2010.06.28 04:59:45.
