data_PCOD8288654
_publ_section_title
;
Structure prediction by ZEFSAII (Michael W. Deem and Ramdas Pophale) SiO2 
 PCOD8288654
Probable space group: I M M M
;
_chemical_formula_sum "Si O2"
_cell_formula_units_Z 112
_cell_length_a 22.253202
_cell_length_b 15.660326
_cell_length_c 18.202222
_cell_angle_alpha 90.000000
_cell_angle_beta 90.000000
_cell_angle_gamma 90.000000
_cell_volume 6343.335991
_symmetry_space_group_name_H-M "I M M M"
_symmetry_group_IT_number 71
_symmetry_cell_setting 'orthorhombic'
loop_
_space_group_symop_operation_xyz
x,y,z
-x,-y,z
x,-y,-z
-x,y,-z
-x,-y,-z
x,y,-z
-x,y,z
x,-y,z
1/2+x,1/2+y,1/2+z
1/2-x,1/2-y,1/2+z
1/2+x,1/2-y,1/2-z
1/2-x,1/2+y,1/2-z
1/2-x,1/2-y,1/2-z
1/2+x,1/2+y,1/2-z
1/2-x,1/2+y,1/2+z
1/2+x,1/2-y,1/2+z
loop_
_atom_site_type_symbol
_atom_site_label
_atom_site_fract_x
_atom_site_fract_y
_atom_site_fract_z
Si Si1 0.931618 0.095724 0.183828
Si Si2 0.070868 0.252951 0.284070
Si Si3 0.354738 0.097564 0.717143
Si Si4 0.211204 0.592749 0.637332
Si Si5 0.669055 0.359158 0.417576
Si Si6 0.713220 0.170440 0.416718
Si Si7 0.659529 0.256510 0.917667
O O1 0.912705 0.164717 0.244408
O O2 0.896197 0.113261 0.109150
O O3 0.000000 0.108747 0.161062
O O4 0.919991 0.000000 0.214685
O O5 0.092336 0.334061 0.234680
O O6 0.103928 0.241536 0.362088
O O7 0.000000 0.263930 0.298445
O O8 0.304935 0.115277 0.778990
O O9 0.321179 0.108041 0.639145
O O10 0.380046 0.000000 0.720424
O O11 0.185402 0.500000 0.615804
O O12 0.283120 0.593092 0.633975
O O13 0.184273 0.659857 0.579883
O O14 0.677484 0.392032 0.500000
O O15 0.677049 0.258187 0.411883
O O16 0.709322 0.133735 0.500000
O O17 0.783827 0.183045 0.394973
O O18 0.637283 0.279892 0.000000
#
# Coordination Sequence:
#
# PCOD8288654 Si02
#       7
#    16  16  16  16  16  16  16
#     4  10  21  35  51  73 100 135 176 213 258 313
#     4  10  21  37  56  77 107 142 179 227 267 306
#     4  10  20  34  55  79 105 143 183 220 266 314
#     4   9  18  29  47  78 107 133 169 212 260 319
#     4  10  19  31  50  74 102 135 166 205 260 316
#     4   9  18  33  52  77 108 138 170 217 271 317
#     4   9  19  33  53  78 106 141 175 215 270 326
#
# _framework density 17.656326
#
# number of rings (size 3 to 8) (size 9 to 14) (size 15 to 20)
#    0.000    2.429    1.429    1.714    2.000    4.857 
#    0.000    0.714    0.000    1.714    0.000    7.000 
#    0.000    0.000    0.000    0.000    0.000    0.000 
#
# Total GULP energy -694039.668327 kJ/mol
# GULP energy per Si atom -12393.565506 kJ/mol
# Density = 1.761614 g / cm^3
# Si number density = 17.656326 Si / 1000 Ang^3
#
#
#
# Elastic Constant Matrix: (Units=GPa)
#
#
# Indices 1 2 3 4 5 6 
#
# 1 95.4810 38.5358 52.4817 0.0000 0.0000 0.0000
# 2 38.5358 89.2289 35.7585 0.0000 0.0000 0.0000
# 3 52.4817 35.7585 85.7627 0.0000 0.0000 0.0000
# 4 0.0000 0.0000 0.0000 19.0666 0.0000 0.0000
# 5 0.0000 0.0000 0.0000 0.0000 25.1516 0.0000
# 6 0.0000 0.0000 0.0000 0.0000 0.0000 19.6863
#
#
#
# Elastic Compliance Matrix: (Units=1/GPa)
#
#
# Indices 1 2 3 4 5 6 
#
# 1 0.016769 -0.003758 -0.008695 0.000000 0.000000 0.000000
# 2 -0.003758 0.014297 -0.003662 0.000000 0.000000 0.000000
# 3 -0.008695 -0.003662 0.018508 0.000000 0.000000 0.000000
# 4 0.000000 0.000000 0.000000 0.052448 0.000000 0.000000
# 5 0.000000 0.000000 0.000000 0.000000 0.039759 0.000000
# 6 0.000000 0.000000 0.000000 0.000000 0.000000 0.050797
#
#
# Mechanical properties :
#
#
# Convention : Reuss Voigt Hill
#
# Bulk Modulus (GPa) = 57.65233 58.22496 57.93864
# Shear Modulus (GPa) = 21.68368 22.36068 22.02218
#
# Velocity S-wave (km/s) = 3.50822 3.56257 3.53550
# Velocity P-wave (km/s) = 7.00953 7.06901 7.03934
#
# Compressibility (1/GPa) = 0.01734535
#
# Stress axis : x y z
#
# Youngs Moduli (GPa) = 59.63353 69.94258 54.03170
#
# Poissons Ratio (x) = 0.26282 0.46980
# Poissons Ratio (y) = 0.22408 0.19785
# Poissons Ratio (z) = 0.51851 0.25612
#
# Static dielectric constant tensor:
#      x y z
#    x 3.170570 0.000000 0.000000 
#    y 0.000000 3.350670 0.000000 
#    z 0.000000 0.000000 3.227870 
# 
# 
# High freq. dielectric constant tensor:
#      x y z
#    x 1.669470 0.000000 0.000000 
#    y 0.000000 1.680900 0.000000 
#    z 0.000000 0.000000 1.679200 
# 
# From -- ./inp_files/47509.got.cif
#   From: 2010.06.25/outbox.cif.g09.slc.cpg/sg71_24_cif.got.tgz:47509.got - 2010.06.28 04:59:45.
