data_PCOD8288656
_publ_section_title
;
Structure prediction by ZEFSAII (Michael W. Deem and Ramdas Pophale) SiO2 
 PCOD8288656
Probable space group: I M M M
;
_chemical_formula_sum "Si O2"
_cell_formula_units_Z 88
_cell_length_a 24.783487
_cell_length_b 25.093344
_cell_length_c 8.529578
_cell_angle_alpha 90.000000
_cell_angle_beta 90.000000
_cell_angle_gamma 90.000000
_cell_volume 5304.549376
_symmetry_space_group_name_H-M "I M M M"
_symmetry_group_IT_number 71
_symmetry_cell_setting 'orthorhombic'
loop_
_space_group_symop_operation_xyz
x,y,z
-x,-y,z
x,-y,-z
-x,y,-z
-x,-y,-z
x,y,-z
-x,y,z
x,-y,z
1/2+x,1/2+y,1/2+z
1/2-x,1/2-y,1/2+z
1/2+x,1/2-y,1/2-z
1/2-x,1/2+y,1/2-z
1/2-x,1/2-y,1/2-z
1/2+x,1/2+y,1/2-z
1/2-x,1/2+y,1/2+z
1/2+x,1/2-y,1/2+z
loop_
_atom_site_type_symbol
_atom_site_label
_atom_site_fract_x
_atom_site_fract_y
_atom_site_fract_z
Si Si1 0.000000 0.940280 0.170261
Si Si2 0.756016 0.169463 0.814543
Si Si3 0.101176 0.105408 0.680890
Si Si4 0.792458 0.941176 0.817157
Si Si5 0.336700 0.752499 0.816048
Si Si6 0.061769 0.214891 0.183025
O O1 0.050238 0.929996 0.280286
O O2 0.000000 0.000000 0.117761
O O3 0.000000 0.908113 0.000000
O O4 0.752315 0.106899 0.762355
O O5 0.700797 0.198085 0.762123
O O6 0.807313 0.197056 0.730777
O O7 0.765466 0.175187 0.000000
O O8 0.117575 0.101292 0.500000
O O9 0.148314 0.080813 0.784700
O O10 0.084672 0.165315 0.721149
O O11 0.781572 0.000000 0.737840
O O12 0.785969 0.949465 0.000000
O O13 0.394826 0.760641 0.729896
O O14 0.346654 0.752927 0.000000
O O15 0.000000 0.229045 0.233538
O O16 0.063949 0.203091 0.000000
#
# Coordination Sequence:
#
# PCOD8288656 Si02
#       6
#     8  16  16  16  16  16
#     4  11  23  37  49  59  79 119 165 203 244 289
#     4   9  18  32  50  71  97 127 159 195 238 290
#     4  12  23  33  47  67  90 119 160 206 245 278
#     4  10  20  34  51  69  94 129 163 194 233 284
#     4  10  19  31  50  74  96 122 158 200 243 286
#     4  11  22  35  51  68  93 127 161 199 244 294
#
# _framework density 16.589532999999999
#
# number of rings (size 3 to 8) (size 9 to 14) (size 15 to 20)
#    0.000    1.545    2.727    3.545    0.000    5.091 
#    0.000    0.000    0.000    0.000    0.000    0.000 
#    0.000    0.727    0.000    9.091    0.000    1.455 
#
# Total GULP energy -545186.025454 kJ/mol
# GULP energy per Si atom -12390.591488 kJ/mol
# Density = 1.655177 g / cm^3
# Si number density = 16.589533 Si / 1000 Ang^3
#
#
#
# Elastic Constant Matrix: (Units=GPa)
#
#
# Indices 1 2 3 4 5 6 
#
# 1 101.9827 56.3829 14.5223 0.0000 0.0000 0.0000
# 2 56.3829 99.2922 10.0828 0.0000 0.0000 0.0000
# 3 14.5223 10.0828 29.1893 0.0000 0.0000 0.0000
# 4 0.0000 0.0000 0.0000 16.0993 0.0000 0.0000
# 5 0.0000 0.0000 0.0000 0.0000 24.3787 0.0000
# 6 0.0000 0.0000 0.0000 0.0000 0.0000 22.4979
#
#
#
# Elastic Compliance Matrix: (Units=1/GPa)
#
#
# Indices 1 2 3 4 5 6 
#
# 1 0.014877 -0.007976 -0.004646 0.000000 0.000000 0.000000
# 2 -0.007976 0.014714 -0.001114 0.000000 0.000000 0.000000
# 3 -0.004646 -0.001114 0.036956 0.000000 0.000000 0.000000
# 4 0.000000 0.000000 0.000000 0.062114 0.000000 0.000000
# 5 0.000000 0.000000 0.000000 0.000000 0.041019 0.000000
# 6 0.000000 0.000000 0.000000 0.000000 0.000000 0.044448
#
#
# Mechanical properties :
#
#
# Convention : Reuss Voigt Hill
#
# Bulk Modulus (GPa) = 25.59324 43.60447 34.59886
# Shear Modulus (GPa) = 19.63663 22.56027 21.09845
#
# Velocity S-wave (km/s) = 3.44419 3.69170 3.57009
# Velocity P-wave (km/s) = 5.59262 6.67180 6.15590
#
# Compressibility (1/GPa) = 0.03907282
#
# Stress axis : x y z
#
# Youngs Moduli (GPa) = 67.21834 67.96446 27.05940
#
# Poissons Ratio (x) = 0.54208 0.12573
# Poissons Ratio (y) = 0.53613 0.03015
# Poissons Ratio (z) = 0.31233 0.07573
#
# Static dielectric constant tensor:
#      x y z
#    x 3.323860 0.000000 0.000000 
#    y 0.000000 3.412190 0.000000 
#    z 0.000000 0.000000 3.139670 
# 
# 
# High freq. dielectric constant tensor:
#      x y z
#    x 1.623020 0.000000 0.000000 
#    y 0.000000 1.616660 0.000000 
#    z 0.000000 0.000000 1.643470 
# 
# From -- ./inp_files/11374.got.cif
#   From: 2010.06.25/outbox.cif.g09.slc.cpg/sg71_6_cif.got.tgz:11374.got - 2010.06.28 04:59:45.
