data_PCOD8288674
_publ_section_title
;
Structure prediction by ZEFSAII (Michael W. Deem and Ramdas Pophale) SiO2 
 PCOD8288674
Probable space group: I M M M
;
_chemical_formula_sum "Si O2"
_cell_formula_units_Z 120
_cell_length_a 8.555390
_cell_length_b 28.765579
_cell_length_c 27.561958
_cell_angle_alpha 90.000000
_cell_angle_beta 90.000000
_cell_angle_gamma 90.000000
_cell_volume 6783.018450
_symmetry_space_group_name_H-M "I M M M"
_symmetry_group_IT_number 71
_symmetry_cell_setting 'orthorhombic'
loop_
_space_group_symop_operation_xyz
x,y,z
-x,-y,z
x,-y,-z
-x,y,-z
-x,-y,-z
x,y,-z
-x,y,z
x,-y,z
1/2+x,1/2+y,1/2+z
1/2-x,1/2-y,1/2+z
1/2+x,1/2-y,1/2-z
1/2-x,1/2+y,1/2-z
1/2-x,1/2-y,1/2-z
1/2+x,1/2+y,1/2-z
1/2-x,1/2+y,1/2+z
1/2+x,1/2-y,1/2+z
loop_
_atom_site_type_symbol
_atom_site_label
_atom_site_fract_x
_atom_site_fract_y
_atom_site_fract_z
Si Si1 0.816818 0.861835 0.734847
Si Si2 0.682077 0.914537 0.103981
Si Si3 0.315504 0.805605 0.655949
Si Si4 0.182308 0.727386 0.052654
Si Si5 0.827088 0.000000 0.943786
Si Si6 0.680092 0.212592 0.807515
Si Si7 0.315021 0.946699 0.210674
Si Si8 0.320896 0.678586 0.401344
O O1 0.769600 0.850706 0.678894
O O2 0.735602 0.820896 0.764894
O O3 0.758434 0.913465 0.748298
O O4 0.000000 0.859503 0.742687
O O5 0.500000 0.902747 0.102054
O O6 0.720797 0.956988 0.070072
O O7 0.736909 0.926694 0.158637
O O8 0.782927 0.872832 0.080102
O O9 0.500000 0.813416 0.655487
O O10 0.249872 0.798788 0.600494
O O11 0.278581 0.760223 0.688914
O O12 0.212542 0.782716 0.057863
O O13 0.000000 0.716762 0.050979
O O14 0.255743 0.712038 0.000000
O O15 0.000000 0.000000 0.918565
O O16 0.854780 0.000000 0.000000
O O17 0.500000 0.225477 0.799437
O O18 0.702286 0.184320 0.856832
O O19 0.500000 0.945436 0.215881
O O20 0.254915 0.000000 0.216901
O O21 0.500000 0.683135 0.383387
#
# Coordination Sequence:
#
# PCOD8288674 Si02
#       8
#    16  16  16  16   8  16  16  16
#     4  12  23  34  51  76 106 137 171 209 257 313
#     4  11  21  36  56  75  98 128 166 217 271 321
#     4  10  20  34  52  75 104 137 174 213 259 308
#     4   8  16  32  53  75 100 132 171 213 252 294
#     4  11  25  41  55  71  93 125 169 223 276 325
#     4  11  20  32  49  72 104 137 173 212 254 303
#     4  10  21  38  57  77 102 133 170 213 265 318
#     4  10  19  31  50  76 102 132 170 210 255 308
#
# _framework density 17.691237999999998
#
# number of rings (size 3 to 8) (size 9 to 14) (size 15 to 20)
#    0.000    1.667    2.000    5.000    0.000    1.867 
#    0.000    1.333    0.000   14.000    0.000    0.000 
#    0.000    0.533    0.000    6.133    0.000    1.733 
#
# Total GULP energy -743690.082479 kJ/mol
# GULP energy per Si atom -12394.834708 kJ/mol
# Density = 1.765097 g / cm^3
# Si number density = 17.691238 Si / 1000 Ang^3
#
#
#
# Elastic Constant Matrix: (Units=GPa)
#
#
# Indices 1 2 3 4 5 6 
#
# 1 54.4494 14.6869 23.8029 0.0000 0.0000 0.0000
# 2 14.6869 57.6686 43.0322 0.0000 0.0000 0.0000
# 3 23.8029 43.0322 86.2569 0.0000 0.0000 0.0000
# 4 0.0000 0.0000 0.0000 11.8856 0.0000 0.0000
# 5 0.0000 0.0000 0.0000 0.0000 18.4712 0.0000
# 6 0.0000 0.0000 0.0000 0.0000 0.0000 31.3162
#
#
#
# Elastic Compliance Matrix: (Units=1/GPa)
#
#
# Indices 1 2 3 4 5 6 
#
# 1 0.020981 -0.001630 -0.004977 0.000000 0.000000 0.000000
# 2 -0.001630 0.027751 -0.013395 0.000000 0.000000 0.000000
# 3 -0.004977 -0.013395 0.019649 0.000000 0.000000 0.000000
# 4 0.000000 0.000000 0.000000 0.084136 0.000000 0.000000
# 5 0.000000 0.000000 0.000000 0.000000 0.054138 0.000000
# 6 0.000000 0.000000 0.000000 0.000000 0.000000 0.031932
#
#
# Mechanical properties :
#
#
# Convention : Reuss Voigt Hill
#
# Bulk Modulus (GPa) = 35.23814 40.15765 37.69789
# Shear Modulus (GPa) = 17.35820 20.12478 18.74149
#
# Velocity S-wave (km/s) = 3.13577 3.37643 3.25832
# Velocity P-wave (km/s) = 5.75086 6.16026 5.95908
#
# Compressibility (1/GPa) = 0.02837835
#
# Stress axis : x y z
#
# Youngs Moduli (GPa) = 47.66246 36.03531 50.89328
#
# Poissons Ratio (x) = 0.05873 0.25328
# Poissons Ratio (y) = 0.07768 0.68169
# Poissons Ratio (z) = 0.23720 0.48268
#
# Static dielectric constant tensor:
#      x y z
#    x 3.212770 0.000000 0.000000 
#    y 0.000000 3.318180 0.000000 
#    z 0.000000 0.000000 3.462180 
# 
# 
# High freq. dielectric constant tensor:
#      x y z
#    x 1.682850 0.000000 0.000000 
#    y 0.000000 1.662480 0.000000 
#    z 0.000000 0.000000 1.667230 
# 
# From -- ./inp_files/63798.got.cif
#   From: 2010.06.25/outbox.cif.g09.slc.cpg/sg71_32_cif.got.tgz:63798.got - 2010.06.28 04:59:45.
