data_PCOD8288862
_publ_section_title
;
Structure prediction by ZEFSAII (Michael W. Deem and Ramdas Pophale) SiO2 
 PCOD8288862
Probable space group: I M M M
;
_chemical_formula_sum "Si O2"
_cell_formula_units_Z 104
_cell_length_a 29.471984
_cell_length_b 22.196883
_cell_length_c 8.921877
_cell_angle_alpha 90.000000
_cell_angle_beta 90.000000
_cell_angle_gamma 90.000000
_cell_volume 5836.568639
_symmetry_space_group_name_H-M "I M M M"
_symmetry_group_IT_number 71
_symmetry_cell_setting 'orthorhombic'
loop_
_space_group_symop_operation_xyz
x,y,z
-x,-y,z
x,-y,-z
-x,y,-z
-x,-y,-z
x,y,-z
-x,y,z
x,-y,z
1/2+x,1/2+y,1/2+z
1/2-x,1/2-y,1/2+z
1/2+x,1/2-y,1/2-z
1/2-x,1/2+y,1/2-z
1/2-x,1/2-y,1/2-z
1/2+x,1/2+y,1/2-z
1/2-x,1/2+y,1/2+z
1/2+x,1/2-y,1/2+z
loop_
_atom_site_type_symbol
_atom_site_label
_atom_site_fract_x
_atom_site_fract_y
_atom_site_fract_z
Si Si1 0.103466 0.890349 0.823412
Si Si2 0.125498 0.569168 0.174840
Si Si3 0.446303 0.500000 0.171559
Si Si4 0.806912 0.929109 0.325969
Si Si5 0.784051 0.428407 0.668694
Si Si6 0.052357 0.213174 0.672115
Si Si7 0.947653 0.647882 0.328443
O O1 0.154409 0.893799 0.762650
O O2 0.083620 0.825288 0.782265
O O3 0.071999 0.940759 0.750459
O O4 0.103819 0.899607 0.000000
O O5 0.116806 0.500000 0.220769
O O6 0.169551 0.596033 0.258731
O O7 0.081557 0.606888 0.218981
O O8 0.134806 0.575366 0.000000
O O9 0.500000 0.500000 0.182338
O O10 0.429344 0.500000 0.000000
O O11 0.809809 0.913057 0.500000
O O12 0.758827 0.905500 0.264008
O O13 0.813482 0.000000 0.297205
O O14 0.780130 0.403509 0.500000
O O15 0.784807 0.500000 0.671792
O O16 0.061896 0.195000 0.500000
O O17 0.064538 0.282630 0.699589
O O18 0.000000 0.200807 0.711057
O O19 0.937329 0.630312 0.500000
O O20 0.000000 0.635827 0.290262
#
# Coordination Sequence:
#
# PCOD8288862 Si02
#       7
#    16  16   8  16  16  16  16
#     4  12  23  33  50  76 105 134 172 220 266 314
#     4  10  20  33  51  79 113 144 173 206 254 312
#     4  11  23  37  51  69  99 139 177 217 270 321
#     4  10  19  32  51  73 102 138 175 213 261 315
#     4   9  17  30  50  75 104 136 172 214 257 303
#     4   9  19  37  57  74  97 134 178 218 260 314
#     4   9  19  36  57  79 103 136 178 219 257 303
#
# _framework density 17.818688999999999
#
# number of rings (size 3 to 8) (size 9 to 14) (size 15 to 20)
#    0.000    2.077    0.769    4.385    0.000    7.385 
#    0.000    3.077    0.000    0.923    0.000    0.000 
#    0.000    0.000    0.000    0.000    0.000    0.000 
#
# Total GULP energy -644971.217732 kJ/mol
# GULP energy per Si atom -12403.292649 kJ/mol
# Density = 1.777813 g / cm^3
# Si number density = 17.818689 Si / 1000 Ang^3
#
#
#
# Elastic Constant Matrix: (Units=GPa)
#
#
# Indices 1 2 3 4 5 6 
#
# 1 114.7630 47.2031 62.8086 0.0000 0.0000 0.0000
# 2 47.2031 58.1510 40.4350 0.0000 0.0000 0.0000
# 3 62.8086 40.4350 124.4880 0.0000 0.0000 0.0000
# 4 0.0000 0.0000 0.0000 24.2843 0.0000 0.0000
# 5 0.0000 0.0000 0.0000 0.0000 37.3431 0.0000
# 6 0.0000 0.0000 0.0000 0.0000 0.0000 14.3025
#
#
#
# Elastic Compliance Matrix: (Units=1/GPa)
#
#
# Indices 1 2 3 4 5 6 
#
# 1 0.014899 -0.008871 -0.004636 0.000000 0.000000 0.000000
# 2 -0.008871 0.027495 -0.004455 0.000000 0.000000 0.000000
# 3 -0.004636 -0.004455 0.011819 0.000000 0.000000 0.000000
# 4 0.000000 0.000000 0.000000 0.041179 0.000000 0.000000
# 5 0.000000 0.000000 0.000000 0.000000 0.026779 0.000000
# 6 0.000000 0.000000 0.000000 0.000000 0.000000 0.069918
#
#
# Mechanical properties :
#
#
# Convention : Reuss Voigt Hill
#
# Bulk Modulus (GPa) = 54.67508 66.47728 60.57618
# Shear Modulus (GPa) = 21.35753 24.98301 23.17027
#
# Velocity S-wave (km/s) = 3.46584 3.74848 3.60993
# Velocity P-wave (km/s) = 6.83863 7.49156 7.17252
#
# Compressibility (1/GPa) = 0.01828987
#
# Stress axis : x y z
#
# Youngs Moduli (GPa) = 67.11641 36.37009 84.60971
#
# Poissons Ratio (x) = 0.32263 0.39225
# Poissons Ratio (y) = 0.59538 0.37694
# Poissons Ratio (z) = 0.31115 0.16203
#
# Static dielectric constant tensor:
#      x y z
#    x 3.377920 0.000000 0.000000 
#    y 0.000000 3.020680 0.000000 
#    z 0.000000 0.000000 3.362650 
# 
# 
# High freq. dielectric constant tensor:
#      x y z
#    x 1.699100 0.000000 0.000000 
#    y 0.000000 1.655780 0.000000 
#    z 0.000000 0.000000 1.699310 
# 
# From -- ./inp_files/16973.got.cif
#   From: 2010.06.25/outbox.cif.g09.slc.cpg/sg71_9_cif.got.tgz:16973.got - 2010.06.28 04:59:45.
