data_PCOD8288945
_publ_section_title
;
Structure prediction by ZEFSAII (Michael W. Deem and Ramdas Pophale) SiO2 
 PCOD8288945
Probable space group: I M M M
;
_chemical_formula_sum "Si O2"
_cell_formula_units_Z 96
_cell_length_a 27.896130
_cell_length_b 8.720120
_cell_length_c 20.320277
_cell_angle_alpha 90.000000
_cell_angle_beta 90.000000
_cell_angle_gamma 90.000000
_cell_volume 4943.061837
_symmetry_space_group_name_H-M "I M M M"
_symmetry_group_IT_number 71
_symmetry_cell_setting 'orthorhombic'
loop_
_space_group_symop_operation_xyz
x,y,z
-x,-y,z
x,-y,-z
-x,y,-z
-x,-y,-z
x,y,-z
-x,y,z
x,-y,z
1/2+x,1/2+y,1/2+z
1/2-x,1/2-y,1/2+z
1/2+x,1/2-y,1/2-z
1/2-x,1/2+y,1/2-z
1/2-x,1/2-y,1/2-z
1/2+x,1/2+y,1/2-z
1/2-x,1/2+y,1/2+z
1/2+x,1/2-y,1/2+z
loop_
_atom_site_type_symbol
_atom_site_label
_atom_site_fract_x
_atom_site_fract_y
_atom_site_fract_z
Si Si1 0.053246 0.681302 0.819720
Si Si2 0.229562 0.819985 0.924659
Si Si3 0.553464 0.182041 0.072966
Si Si4 0.371233 0.178619 0.424675
Si Si5 0.716954 0.680619 0.806208
Si Si6 0.114109 0.318365 0.694406
O O1 0.049123 0.500000 0.824321
O O2 0.085296 0.741855 0.880387
O O3 0.077271 0.729361 0.751312
O O4 0.000000 0.754317 0.824070
O O5 0.176164 0.770558 0.904484
O O6 0.267812 0.736997 0.878470
O O7 0.234830 0.000000 0.914490
O O8 0.240296 0.771835 0.000000
O O9 0.500000 0.246066 0.087735
O O10 0.591340 0.243273 0.126193
O O11 0.551510 0.000000 0.077313
O O12 0.570099 0.234445 0.000000
O O13 0.385610 0.208758 0.500000
O O14 0.360913 0.000000 0.411018
O O15 0.721334 0.500000 0.802771
O O16 0.750000 0.750000 0.750000
O O17 0.663072 0.731301 0.792201
O O18 0.123780 0.500000 0.693379
#
# Coordination Sequence:
#
# PCOD8288945 Si02
#       6
#    16  16  16  16  16  16
#     4   9  17  29  48  75 104 135 174 220 265 309
#     4  10  21  38  60  84 111 144 182 224 272 328
#     4   8  14  26  47  76 107 138 174 216 259 305
#     4   9  17  30  50  76 106 140 177 218 264 313
#     4  12  25  40  58  80 109 144 184 230 278 330
#     4  10  19  32  52  77 104 136 176 222 269 316
#
# _framework density 19.421161999999999
#
# number of rings (size 3 to 8) (size 9 to 14) (size 15 to 20)
#    0.000    2.333    0.000    4.000    0.000    5.333 
#    0.000    3.333    0.000    3.500    0.000    3.500 
#    0.000    0.000    0.000    0.000    0.000    0.000 
#
# Total GULP energy -595219.537754 kJ/mol
# GULP energy per Si atom -12400.407037 kJ/mol
# Density = 1.937696 g / cm^3
# Si number density = 19.421162 Si / 1000 Ang^3
#
#
#
# Elastic Constant Matrix: (Units=GPa)
#
#
# Indices 1 2 3 4 5 6 
#
# 1 85.6188 25.0479 29.5140 0.0000 0.0000 0.0000
# 2 25.0479 59.9689 22.8001 0.0000 0.0000 0.0000
# 3 29.5140 22.8001 89.6630 0.0000 0.0000 0.0000
# 4 0.0000 0.0000 0.0000 18.3389 0.0000 0.0000
# 5 0.0000 0.0000 0.0000 0.0000 36.8972 0.0000
# 6 0.0000 0.0000 0.0000 0.0000 0.0000 23.5963
#
#
#
# Elastic Compliance Matrix: (Units=1/GPa)
#
#
# Indices 1 2 3 4 5 6 
#
# 1 0.014240 -0.004612 -0.003515 0.000000 0.000000 0.000000
# 2 -0.004612 0.019953 -0.003556 0.000000 0.000000 0.000000
# 3 -0.003515 -0.003556 0.013214 0.000000 0.000000 0.000000
# 4 0.000000 0.000000 0.000000 0.054529 0.000000 0.000000
# 5 0.000000 0.000000 0.000000 0.000000 0.027102 0.000000
# 6 0.000000 0.000000 0.000000 0.000000 0.000000 0.042380
#
#
# Mechanical properties :
#
#
# Convention : Reuss Voigt Hill
#
# Bulk Modulus (GPa) = 41.59170 43.33053 42.46111
# Shear Modulus (GPa) = 24.65511 26.29239 25.47375
#
# Velocity S-wave (km/s) = 3.56687 3.68340 3.62560
# Velocity P-wave (km/s) = 6.19883 6.35998 6.27992
#
# Compressibility (1/GPa) = 0.02404326
#
# Stress axis : x y z
#
# Youngs Moduli (GPa) = 70.22265 50.11656 75.67707
#
# Poissons Ratio (x) = 0.23112 0.26599
# Poissons Ratio (y) = 0.32384 0.26910
# Poissons Ratio (z) = 0.24682 0.17821
#
# Static dielectric constant tensor:
#      x y z
#    x 3.713100 0.000000 0.000000 
#    y 0.000000 3.177160 0.000000 
#    z 0.000000 0.000000 3.879920 
# 
# 
# High freq. dielectric constant tensor:
#      x y z
#    x 1.760220 0.000000 0.000000 
#    y 0.000000 1.714990 0.000000 
#    z 0.000000 0.000000 1.772860 
# 
# From -- ./inp_files/10920.got.cif
#   From: 2010.06.25/outbox.cif.g09.slc.cpg/sg71_6_cif.got.tgz:10920.got - 2010.06.28 04:59:45.
