data_PCOD8288158
_publ_section_title
;
Structure prediction by ZEFSAII (Michael W. Deem and Ramdas Pophale) SiO2 
 PCOD8288158
Probable space group: I M M M
;
_chemical_formula_sum "Si O2"
_cell_formula_units_Z 72
_cell_length_a 22.386844
_cell_length_b 23.756644
_cell_length_c 9.041898
_cell_angle_alpha 90.000000
_cell_angle_beta 90.000000
_cell_angle_gamma 90.000000
_cell_volume 4808.809425
_symmetry_space_group_name_H-M "I M M M"
_symmetry_group_IT_number 71
_symmetry_cell_setting 'orthorhombic'
loop_
_space_group_symop_operation_xyz
x,y,z
-x,-y,z
x,-y,-z
-x,y,-z
-x,-y,-z
x,y,-z
-x,y,z
x,-y,z
1/2+x,1/2+y,1/2+z
1/2-x,1/2-y,1/2+z
1/2+x,1/2-y,1/2-z
1/2-x,1/2+y,1/2-z
1/2-x,1/2-y,1/2-z
1/2+x,1/2+y,1/2-z
1/2-x,1/2+y,1/2+z
1/2+x,1/2-y,1/2+z
loop_
_atom_site_type_symbol
_atom_site_label
_atom_site_fract_x
_atom_site_fract_y
_atom_site_fract_z
Si Si1 0.118431 0.110874 0.175806
Si Si2 0.570206 0.500000 0.827057
Si Si3 0.431331 0.718466 0.169646
Si Si4 0.664892 0.218798 0.335652
Si Si5 0.737321 0.665982 0.663393
O O1 0.098622 0.053872 0.251231
O O2 0.078681 0.161499 0.238960
O O3 0.188515 0.120003 0.215465
O O4 0.108610 0.108553 0.000000
O O5 0.500000 0.500000 0.798369
O O6 0.585372 0.500000 0.000000
O O7 0.500000 0.736290 0.182071
O O8 0.393042 0.770318 0.234645
O O9 0.412338 0.707829 0.000000
O O10 0.644093 0.201656 0.500000
O O11 0.704180 0.274567 0.339956
O O12 0.705378 0.167990 0.270794
O O13 0.760996 0.651141 0.500000
#
# Coordination Sequence:
#
# PCOD8288158 Si02
#       5
#    16   8  16  16  16
#     4  10  20  32  46  61  77 103 139 177 212 244
#     4  11  23  35  45  59  81 109 140 175 214 249
#     4  10  19  29  41  58  82 111 139 168 204 244
#     4   9  16  25  40  60  79 102 131 163 199 240
#     4   8  15  27  41  58  78  99 127 164 205 245
#
# _framework density 14.972521
#
# number of rings (size 3 to 8) (size 9 to 14) (size 15 to 20)
#    0.000    2.556    0.000    4.333    0.000   11.556 
#    0.000    0.000    0.000    0.000    0.000    0.000 
#    0.000    0.000    0.000    1.000    0.000   19.333 
#
# Total GULP energy -446280.448937 kJ/mol
# GULP energy per Si atom -12396.679137 kJ/mol
# Density = 1.493844 g / cm^3
# Si number density = 14.972521 Si / 1000 Ang^3
#
#
#
# Elastic Constant Matrix: (Units=GPa)
#
#
# Indices 1 2 3 4 5 6 
#
# 1 93.6416 47.5775 67.0482 0.0000 0.0000 0.0000
# 2 47.5775 45.3146 44.8760 0.0000 0.0000 0.0000
# 3 67.0482 44.8760 120.8174 0.0000 0.0000 0.0000
# 4 0.0000 0.0000 0.0000 23.8726 0.0000 0.0000
# 5 0.0000 0.0000 0.0000 0.0000 26.8430 0.0000
# 6 0.0000 0.0000 0.0000 0.0000 0.0000 22.9953
#
#
#
# Elastic Compliance Matrix: (Units=1/GPa)
#
#
# Indices 1 2 3 4 5 6 
#
# 1 0.025983 -0.020566 -0.006781 0.000000 0.000000 0.000000
# 2 -0.020566 0.051187 -0.007600 0.000000 0.000000 0.000000
# 3 -0.006781 -0.007600 0.014863 0.000000 0.000000 0.000000
# 4 0.000000 0.000000 0.000000 0.041889 0.000000 0.000000
# 5 0.000000 0.000000 0.000000 0.000000 0.037254 0.000000
# 6 0.000000 0.000000 0.000000 0.000000 0.000000 0.043487
#
#
# Mechanical properties :
#
#
# Convention : Reuss Voigt Hill
#
# Bulk Modulus (GPa) = 45.16572 64.30856 54.73714
# Shear Modulus (GPa) = 17.12719 21.42697 19.27708
#
# Velocity S-wave (km/s) = 3.38584 3.78707 3.59206
# Velocity P-wave (km/s) = 6.74659 7.88460 7.33769
#
# Compressibility (1/GPa) = 0.02214069
#
# Stress axis : x y z
#
# Youngs Moduli (GPa) = 38.48688 19.53640 67.28291
#
# Poissons Ratio (x) = 0.40178 0.45621
# Poissons Ratio (y) = 0.79150 0.51132
# Poissons Ratio (z) = 0.26096 0.14847
#
# Static dielectric constant tensor:
#      x y z
#    x 2.979660 0.000000 0.000000 
#    y 0.000000 2.664190 0.000000 
#    z 0.000000 0.000000 3.195610 
# 
# 
# High freq. dielectric constant tensor:
#      x y z
#    x 1.567020 0.000000 0.000000 
#    y 0.000000 1.517250 0.000000 
#    z 0.000000 0.000000 1.595020 
# 
# From -- ./inp_files/10106.got.cif
#   From: 2010.06.25/outbox.cif.g09.slc.cpg/sg71_6_cif.got.tgz:10106.got - 2010.06.28 04:59:45.
