data_PCOD8288114
_publ_section_title
;
Structure prediction by ZEFSAII (Michael W. Deem and Ramdas Pophale) SiO2 
 PCOD8288114
Probable space group: I M M M
;
_chemical_formula_sum "Si O2"
_cell_formula_units_Z 120
_cell_length_a 31.103563
_cell_length_b 21.898195
_cell_length_c 10.184349
_cell_angle_alpha 90.000000
_cell_angle_beta 90.000000
_cell_angle_gamma 90.000000
_cell_volume 6936.681173
_symmetry_space_group_name_H-M "I M M M"
_symmetry_group_IT_number 71
_symmetry_cell_setting 'orthorhombic'
loop_
_space_group_symop_operation_xyz
x,y,z
-x,-y,z
x,-y,-z
-x,y,-z
-x,-y,-z
x,y,-z
-x,y,z
x,-y,z
1/2+x,1/2+y,1/2+z
1/2-x,1/2-y,1/2+z
1/2+x,1/2-y,1/2-z
1/2-x,1/2+y,1/2-z
1/2-x,1/2-y,1/2-z
1/2+x,1/2+y,1/2-z
1/2-x,1/2+y,1/2+z
1/2+x,1/2-y,1/2+z
loop_
_atom_site_type_symbol
_atom_site_label
_atom_site_fract_x
_atom_site_fract_y
_atom_site_fract_z
Si Si1 0.952173 0.767166 0.346228
Si Si2 0.738028 0.851244 0.753670
Si Si3 0.810877 0.066595 0.650838
Si Si4 0.807062 0.762465 0.145778
Si Si5 0.500000 0.067072 0.843706
Si Si6 0.337022 0.068427 0.848603
Si Si7 0.632530 0.674266 0.844988
Si Si8 0.081597 0.360421 0.656468
O O1 0.959071 0.758084 0.500000
O O2 0.918907 0.822628 0.317544
O O3 0.927829 0.707540 0.289076
O O4 0.000000 0.778016 0.283413
O O5 0.767005 0.896186 0.666804
O O6 0.767739 0.810627 0.848733
O O7 0.710729 0.806173 0.661333
O O8 0.707427 0.895471 0.836331
O O9 0.817906 0.053696 0.500000
O O10 0.851203 0.107472 0.700915
O O11 0.810191 0.000000 0.723326
O O12 0.842011 0.775131 0.259658
O O13 0.827587 0.767984 0.000000
O O14 0.542248 0.099752 0.790881
O O15 0.500000 0.000000 0.783748
O O16 0.500000 0.066555 0.000000
O O17 0.375060 0.109488 0.783864
O O18 0.334720 0.000000 0.784634
O O19 0.347935 0.059701 0.000000
O O20 0.642444 0.687089 0.000000
O O21 0.084566 0.358552 0.500000
#
# Coordination Sequence:
#
# PCOD8288114 Si02
#       8
#    16  16  16  16   8  16  16  16
#     4   9  15  25  43  67  93 119 149 187 233 281
#     4  10  19  30  45  63  89 121 159 195 230 274
#     4   9  17  30  47  65  87 118 155 191 226 269
#     4  10  20  32  48  69  94 124 157 195 237 279
#     4   9  14  20  30  44  68 104 142 176 212 259
#     4  10  19  28  39  59  89 123 156 191 232 273
#     4   9  18  31  49  72  95 122 156 192 233 281
#     4   9  15  23  34  52  79 113 147 181 222 270
#
# _framework density 17.299339
#
# number of rings (size 3 to 8) (size 9 to 14) (size 15 to 20)
#    0.000    2.600    0.667    2.400    0.000    6.400 
#    0.000    0.000    0.000    4.400    0.000    2.800 
#    0.000    0.000    0.000    6.000    0.000    4.267 
#
# Total GULP energy -743364.435091 kJ/mol
# GULP energy per Si atom -12389.407252 kJ/mol
# Density = 1.725997 g / cm^3
# Si number density = 17.299339 Si / 1000 Ang^3
#
#
#
# Elastic Constant Matrix: (Units=GPa)
#
#
# Indices 1 2 3 4 5 6 
#
# 1 127.8104 62.0366 13.2360 0.0000 0.0000 0.0000
# 2 62.0366 120.0673 11.9317 0.0000 0.0000 0.0000
# 3 13.2360 11.9317 38.0190 0.0000 0.0000 0.0000
# 4 0.0000 0.0000 0.0000 11.5084 0.0000 0.0000
# 5 0.0000 0.0000 0.0000 0.0000 12.9326 0.0000
# 6 0.0000 0.0000 0.0000 0.0000 0.0000 10.9025
#
#
#
# Elastic Compliance Matrix: (Units=1/GPa)
#
#
# Indices 1 2 3 4 5 6 
#
# 1 0.010593 -0.005271 -0.002034 0.000000 0.000000 0.000000
# 2 -0.005271 0.011220 -0.001686 0.000000 0.000000 0.000000
# 3 -0.002034 -0.001686 0.027540 0.000000 0.000000 0.000000
# 4 0.000000 0.000000 0.000000 0.086893 0.000000 0.000000
# 5 0.000000 0.000000 0.000000 0.000000 0.077324 0.000000
# 6 0.000000 0.000000 0.000000 0.000000 0.000000 0.091722
#
#
# Mechanical properties :
#
#
# Convention : Reuss Voigt Hill
#
# Bulk Modulus (GPa) = 31.87662 51.14504 41.51083
# Shear Modulus (GPa) = 14.98213 20.31486 17.64849
#
# Velocity S-wave (km/s) = 2.94607 3.43054 3.19750
# Velocity P-wave (km/s) = 5.48078 6.73204 6.13838
#
# Compressibility (1/GPa) = 0.03137096
#
# Stress axis : x y z
#
# Youngs Moduli (GPa) = 94.39976 89.12842 36.31113
#
# Poissons Ratio (x) = 0.46982 0.07384
# Poissons Ratio (y) = 0.49760 0.06122
# Poissons Ratio (z) = 0.19198 0.15027
#
# Static dielectric constant tensor:
#      x y z
#    x 3.378990 0.000000 0.000000 
#    y 0.000000 3.589410 0.000000 
#    z 0.000000 0.000000 2.638480 
# 
# 
# High freq. dielectric constant tensor:
#      x y z
#    x 1.670870 0.000000 0.000000 
#    y 0.000000 1.673410 0.000000 
#    z 0.000000 0.000000 1.599530 
# 
# From -- ./inp_files/30313.got.cif
#   From: 2010.06.25/outbox.cif.g09.slc.cpg/sg71_16_cif.got.tgz:30313.got - 2010.06.28 04:59:45.
