data_PCOD8288263
_publ_section_title
;
Structure prediction by ZEFSAII (Michael W. Deem and Ramdas Pophale) SiO2 
 PCOD8288263
Probable space group: I M M M
;
_chemical_formula_sum "Si O2"
_cell_formula_units_Z 96
_cell_length_a 27.613695
_cell_length_b 29.147631
_cell_length_c 8.884912
_cell_angle_alpha 90.000000
_cell_angle_beta 90.000000
_cell_angle_gamma 90.000000
_cell_volume 7151.232817
_symmetry_space_group_name_H-M "I M M M"
_symmetry_group_IT_number 71
_symmetry_cell_setting 'orthorhombic'
loop_
_space_group_symop_operation_xyz
x,y,z
-x,-y,z
x,-y,-z
-x,y,-z
-x,-y,-z
x,y,-z
-x,y,z
x,-y,z
1/2+x,1/2+y,1/2+z
1/2-x,1/2-y,1/2+z
1/2+x,1/2-y,1/2-z
1/2-x,1/2+y,1/2-z
1/2-x,1/2-y,1/2-z
1/2+x,1/2+y,1/2-z
1/2-x,1/2+y,1/2+z
1/2+x,1/2-y,1/2+z
loop_
_atom_site_type_symbol
_atom_site_label
_atom_site_fract_x
_atom_site_fract_y
_atom_site_fract_z
Si Si1 0.321719 0.769264 0.833096
Si Si2 0.847259 0.131498 0.677773
Si Si3 0.600033 0.552599 0.325215
Si Si4 0.254587 0.319448 0.833725
Si Si5 0.000000 0.100826 0.173496
Si Si6 0.598460 0.715384 0.678304
Si Si7 0.000000 0.801753 0.321641
O O1 0.285839 0.726617 0.836971
O O2 0.292164 0.813591 0.772728
O O3 0.366961 0.757429 0.726452
O O4 0.340896 0.780610 0.000000
O O5 0.854780 0.139436 0.500000
O O6 0.860868 0.080279 0.726633
O O7 0.790840 0.140264 0.721968
O O8 0.881875 0.166452 0.765783
O O9 0.612583 0.559038 0.500000
O O10 0.603827 0.500000 0.275488
O O11 0.546214 0.569838 0.289407
O O12 0.234834 0.330485 0.000000
O O13 0.000000 0.144718 0.279954
O O14 0.000000 0.117398 0.000000
O O15 0.593942 0.713971 0.500000
O O16 0.546394 0.723794 0.752378
O O17 0.000000 0.796502 0.500000
#
# Coordination Sequence:
#
# PCOD8288263 Si02
#       7
#    16  16  16  16   8  16   8
#     4   9  16  26  40  59  78  96 119 149 182 219
#     4  10  19  30  43  59  77  97 122 157 194 232
#     4  10  20  32  45  59  76  98 126 162 204 249
#     4   8  15  26  39  56  77  98 119 144 183 228
#     4  10  19  32  46  58  71  95 126 160 204 249
#     4  11  20  30  43  57  76 101 125 152 191 234
#     4  12  22  31  43  59  77  97 128 166 197 232
#
# _framework density 13.424258999999999
#
# number of rings (size 3 to 8) (size 9 to 14) (size 15 to 20)
#    0.000    2.167    1.667    4.500    0.000    6.000 
#    0.000    0.000    0.000    1.500    0.000    0.000 
#    0.000    0.000    0.000    0.000    0.000    0.000 
#
# Total GULP energy -595119.494085 kJ/mol
# GULP energy per Si atom -12398.322793 kJ/mol
# Density = 1.339370 g / cm^3
# Si number density = 13.424259 Si / 1000 Ang^3
#
#
#
# Elastic Constant Matrix: (Units=GPa)
#
#
# Indices 1 2 3 4 5 6 
#
# 1 83.5196 46.1772 47.8681 0.0000 0.0000 0.0000
# 2 46.1772 46.4547 28.1434 0.0000 0.0000 0.0000
# 3 47.8681 28.1434 94.8251 0.0000 0.0000 0.0000
# 4 0.0000 0.0000 0.0000 16.1121 0.0000 0.0000
# 5 0.0000 0.0000 0.0000 0.0000 22.8893 0.0000
# 6 0.0000 0.0000 0.0000 0.0000 0.0000 16.3552
#
#
#
# Elastic Compliance Matrix: (Units=1/GPa)
#
#
# Indices 1 2 3 4 5 6 
#
# 1 0.030741 -0.025794 -0.007863 0.000000 0.000000 0.000000
# 2 -0.025794 0.047888 -0.001192 0.000000 0.000000 0.000000
# 3 -0.007863 -0.001192 0.014869 0.000000 0.000000 0.000000
# 4 0.000000 0.000000 0.000000 0.062065 0.000000 0.000000
# 5 0.000000 0.000000 0.000000 0.000000 0.043689 0.000000
# 6 0.000000 0.000000 0.000000 0.000000 0.000000 0.061143
#
#
# Mechanical properties :
#
#
# Convention : Reuss Voigt Hill
#
# Bulk Modulus (GPa) = 42.01570 52.13074 47.07322
# Shear Modulus (GPa) = 14.79185 17.91204 16.35194
#
# Velocity S-wave (km/s) = 3.32305 3.65677 3.49390
# Velocity P-wave (km/s) = 6.78895 7.53305 7.17066
#
# Compressibility (1/GPa) = 0.02380063
#
# Stress axis : x y z
#
# Youngs Moduli (GPa) = 32.53020 20.88200 67.25561
#
# Poissons Ratio (x) = 0.53862 0.52881
# Poissons Ratio (y) = 0.83907 0.08018
# Poissons Ratio (z) = 0.25577 0.02489
#
# Static dielectric constant tensor:
#      x y z
#    x 2.779710 0.000000 0.000000 
#    y 0.000000 2.440030 0.000000 
#    z 0.000000 0.000000 2.807130 
# 
# 
# High freq. dielectric constant tensor:
#      x y z
#    x 1.500210 0.000000 0.000000 
#    y 0.000000 1.458820 0.000000 
#    z 0.000000 0.000000 1.525640 
# 
# From -- ./inp_files/17585.got.cif
#   From: 2010.06.25/outbox.cif.g09.slc.cpg/sg71_9_cif.got.tgz:17585.got - 2010.06.28 04:59:45.
