data_PCOD8288489
_publ_section_title
;
Structure prediction by ZEFSAII (Michael W. Deem and Ramdas Pophale) SiO2 
 PCOD8288489
Probable space group: I M M M
;
_chemical_formula_sum "Si O2"
_cell_formula_units_Z 88
_cell_length_a 9.042759
_cell_length_b 27.780217
_cell_length_c 25.452525
_cell_angle_alpha 90.000000
_cell_angle_beta 90.000000
_cell_angle_gamma 90.000000
_cell_volume 6393.923901
_symmetry_space_group_name_H-M "I M M M"
_symmetry_group_IT_number 71
_symmetry_cell_setting 'orthorhombic'
loop_
_space_group_symop_operation_xyz
x,y,z
-x,-y,z
x,-y,-z
-x,y,-z
-x,-y,-z
x,y,-z
-x,y,z
x,-y,z
1/2+x,1/2+y,1/2+z
1/2-x,1/2-y,1/2+z
1/2+x,1/2-y,1/2-z
1/2-x,1/2+y,1/2-z
1/2-x,1/2-y,1/2-z
1/2+x,1/2+y,1/2-z
1/2-x,1/2+y,1/2+z
1/2+x,1/2-y,1/2+z
loop_
_atom_site_type_symbol
_atom_site_label
_atom_site_fract_x
_atom_site_fract_y
_atom_site_fract_z
Si Si1 0.171185 0.056900 0.500000
Si Si2 0.664338 0.364639 0.254863
Si Si3 0.674468 0.730556 0.698108
Si Si4 0.673369 0.946517 0.707266
Si Si5 0.168693 0.190230 0.644943
Si Si6 0.324562 0.103870 0.599124
O O1 0.252522 0.077207 0.550585
O O2 0.000000 0.072672 0.500000
O O3 0.188091 0.000000 0.500000
O O4 0.500000 0.384994 0.261866
O O5 0.702186 0.327546 0.302649
O O6 0.769638 0.411124 0.253339
O O7 0.677478 0.334802 0.201288
O O8 0.500000 0.742124 0.699485
O O9 0.750000 0.750000 0.750000
O O10 0.750577 0.757452 0.648555
O O11 0.500000 0.948476 0.712648
O O12 0.720165 0.926843 0.650333
O O13 0.740956 0.000000 0.714402
O O14 0.256530 0.157464 0.603130
O O15 0.000000 0.197350 0.626228
O O16 0.500000 0.107588 0.591878
#
# Coordination Sequence:
#
# PCOD8288489 Si02
#       6
#     8  16  16  16  16  16
#     4  11  23  35  45  57  73  93 119 155 196 233
#     4   8  15  24  34  50  70  91 114 140 170 207
#     4   9  15  23  35  52  72  92 114 139 171 211
#     4   9  17  27  38  52  69  90 118 151 184 218
#     4   9  16  26  39  55  73  90 110 139 178 221
#     4  10  19  31  45  57  70  90 118 152 190 231
#
# _framework density 13.763066999999999
#
# number of rings (size 3 to 8) (size 9 to 14) (size 15 to 20)
#    0.000    2.818    0.000    3.545    0.000    7.636 
#    0.000    0.000    0.000    0.000    0.000    0.000 
#    0.000    0.000    0.000    0.000    0.000    0.000 
#
# Total GULP energy -545241.822095 kJ/mol
# GULP energy per Si atom -12391.859593 kJ/mol
# Density = 1.373174 g / cm^3
# Si number density = 13.763067 Si / 1000 Ang^3
#
#
#
# Elastic Constant Matrix: (Units=GPa)
#
#
# Indices 1 2 3 4 5 6 
#
# 1 78.8001 51.3568 24.6338 0.0000 0.0000 0.0000
# 2 51.3568 105.6602 36.8531 0.0000 0.0000 0.0000
# 3 24.6338 36.8531 23.0666 0.0000 0.0000 0.0000
# 4 0.0000 0.0000 0.0000 21.2265 0.0000 0.0000
# 5 0.0000 0.0000 0.0000 0.0000 13.5579 0.0000
# 6 0.0000 0.0000 0.0000 0.0000 0.0000 25.9649
#
#
#
# Elastic Compliance Matrix: (Units=1/GPa)
#
#
# Indices 1 2 3 4 5 6 
#
# 1 0.020237 -0.005191 -0.013318 0.000000 0.000000 0.000000
# 2 -0.005191 0.022708 -0.030736 0.000000 0.000000 0.000000
# 3 -0.013318 -0.030736 0.106682 0.000000 0.000000 0.000000
# 4 0.000000 0.000000 0.000000 0.047111 0.000000 0.000000
# 5 0.000000 0.000000 0.000000 0.000000 0.073758 0.000000
# 6 0.000000 0.000000 0.000000 0.000000 0.000000 0.038514
#
#
# Mechanical properties :
#
#
# Convention : Reuss Voigt Hill
#
# Bulk Modulus (GPa) = 19.55561 48.13491 33.84526
# Shear Modulus (GPa) = 11.77729 18.46205 15.11967
#
# Velocity S-wave (km/s) = 2.92844 3.66651 3.31806
# Velocity P-wave (km/s) = 5.06695 7.27835 6.27090
#
# Compressibility (1/GPa) = 0.05113622
#
# Stress axis : x y z
#
# Youngs Moduli (GPa) = 49.41447 44.03763 9.37363
#
# Poissons Ratio (x) = 0.22860 0.12484
# Poissons Ratio (y) = 0.25651 0.28811
# Poissons Ratio (z) = 0.65812 1.35355
#
# Static dielectric constant tensor:
#      x y z
#    x 2.869120 0.000000 0.000000 
#    y 0.000000 3.309040 0.000000 
#    z 0.000000 0.000000 1.656240 
# 
# 
# High freq. dielectric constant tensor:
#      x y z
#    x 1.541010 0.000000 0.000000 
#    y 0.000000 1.525490 0.000000 
#    z 0.000000 0.000000 1.456260 
# 
# From -- ./inp_files/11336.got.cif
#   From: 2010.06.25/outbox.cif.g09.slc.cpg/sg71_6_cif.got.tgz:11336.got - 2010.06.28 04:59:45.
