data_PCOD8288810
_publ_section_title
;
Structure prediction by ZEFSAII (Michael W. Deem and Ramdas Pophale) SiO2 
 PCOD8288810
Probable space group: I M M M
;
_chemical_formula_sum "Si O2"
_cell_formula_units_Z 120
_cell_length_a 21.736242
_cell_length_b 16.040388
_cell_length_c 20.104718
_cell_angle_alpha 90.000000
_cell_angle_beta 90.000000
_cell_angle_gamma 90.000000
_cell_volume 7009.665850
_symmetry_space_group_name_H-M "I M M M"
_symmetry_group_IT_number 71
_symmetry_cell_setting 'orthorhombic'
loop_
_space_group_symop_operation_xyz
x,y,z
-x,-y,z
x,-y,-z
-x,y,-z
-x,-y,-z
x,y,-z
-x,y,z
x,-y,z
1/2+x,1/2+y,1/2+z
1/2-x,1/2-y,1/2+z
1/2+x,1/2-y,1/2-z
1/2-x,1/2+y,1/2-z
1/2-x,1/2-y,1/2-z
1/2+x,1/2+y,1/2-z
1/2-x,1/2+y,1/2+z
1/2+x,1/2-y,1/2+z
loop_
_atom_site_type_symbol
_atom_site_label
_atom_site_fract_x
_atom_site_fract_y
_atom_site_fract_z
Si Si1 0.069566 0.596233 0.657852
Si Si2 0.812369 0.403995 0.826563
Si Si3 0.931172 0.320761 0.797755
Si Si4 0.224718 0.723484 0.073113
Si Si5 0.183839 0.365879 0.424431
Si Si6 0.129799 0.833137 0.857032
Si Si7 0.572897 0.500000 0.578163
Si Si8 0.257058 0.590498 0.698472
O O1 0.086471 0.500000 0.678484
O O2 0.076709 0.659113 0.719784
O O3 0.113013 0.629304 0.598671
O O4 0.000000 0.599259 0.630604
O O5 0.803169 0.500000 0.841909
O O6 0.883468 0.378910 0.837604
O O7 0.769753 0.353309 0.876863
O O8 0.792339 0.376352 0.752080
O O9 0.919184 0.223703 0.816965
O O10 0.000000 0.343737 0.820972
O O11 0.289332 0.772414 0.079128
O O12 0.164750 0.781854 0.085320
O O13 0.216814 0.686095 0.000000
O O14 0.189149 0.400813 0.500000
O O15 0.225190 0.419344 0.373712
O O16 0.099822 0.916717 0.887417
O O17 0.182633 0.852652 0.802755
O O18 0.500000 0.500000 0.588118
O O19 0.590235 0.500000 0.500000
O O20 0.279585 0.500000 0.721458
#
# Coordination Sequence:
#
# PCOD8288810 Si02
#       8
#    16  16  16  16  16  16   8  16
#     4  10  20  33  49  72 104 140 178 216 253 303
#     4  10  20  33  55  78 101 133 172 213 264 310
#     4  10  20  33  52  75 102 136 174 214 257 304
#     4   9  20  35  52  76 105 133 166 214 264 314
#     4  10  20  32  49  73 104 141 173 208 256 311
#     4  10  20  34  53  74 102 135 174 215 255 309
#     4  11  22  36  54  76 106 142 176 214 262 317
#     4  10  19  32  49  76 101 128 165 213 255 302
#
# _framework density 17.119218
#
# number of rings (size 3 to 8) (size 9 to 14) (size 15 to 20)
#    0.000    2.067    2.000    1.600    1.867    4.533 
#    0.000    0.667    0.000    3.600    0.000    3.733 
#    0.000    0.000    0.000    2.933    0.000    0.000 
#
# Total GULP energy -743531.938922 kJ/mol
# GULP energy per Si atom -12392.198982 kJ/mol
# Density = 1.708025 g / cm^3
# Si number density = 17.119218 Si / 1000 Ang^3
#
#
#
# Elastic Constant Matrix: (Units=GPa)
#
#
# Indices 1 2 3 4 5 6 
#
# 1 93.1821 41.9554 38.5250 0.0000 0.0000 0.0000
# 2 41.9554 102.7116 60.6529 0.0000 0.0000 0.0000
# 3 38.5250 60.6529 100.0141 0.0000 0.0000 0.0000
# 4 0.0000 0.0000 0.0000 6.7513 0.0000 0.0000
# 5 0.0000 0.0000 0.0000 0.0000 21.3544 0.0000
# 6 0.0000 0.0000 0.0000 0.0000 0.0000 21.5141
#
#
#
# Elastic Compliance Matrix: (Units=1/GPa)
#
#
# Indices 1 2 3 4 5 6 
#
# 1 0.013680 -0.003858 -0.002930 0.000000 0.000000 0.000000
# 2 -0.003858 0.016256 -0.008372 0.000000 0.000000 0.000000
# 3 -0.002930 -0.008372 0.016204 0.000000 0.000000 0.000000
# 4 0.000000 0.000000 0.000000 0.148119 0.000000 0.000000
# 5 0.000000 0.000000 0.000000 0.000000 0.046829 0.000000
# 6 0.000000 0.000000 0.000000 0.000000 0.000000 0.046481
#
#
# Mechanical properties :
#
#
# Convention : Reuss Voigt Hill
#
# Bulk Modulus (GPa) = 63.20973 64.24160 63.72566
# Shear Modulus (GPa) = 15.47211 20.24226 17.85719
#
# Velocity S-wave (km/s) = 3.00957 3.44238 3.23322
# Velocity P-wave (km/s) = 7.00572 7.30804 7.15847
#
# Compressibility (1/GPa) = 0.01582035
#
# Stress axis : x y z
#
# Youngs Moduli (GPa) = 73.09935 61.51677 61.71150
#
# Poissons Ratio (x) = 0.23732 0.18081
# Poissons Ratio (y) = 0.28200 0.51666
# Poissons Ratio (z) = 0.21418 0.51503
#
# Static dielectric constant tensor:
#      x y z
#    x 3.316810 0.000000 0.000000 
#    y 0.000000 3.166640 0.000000 
#    z 0.000000 0.000000 3.163560 
# 
# 
# High freq. dielectric constant tensor:
#      x y z
#    x 1.662180 0.000000 0.000000 
#    y 0.000000 1.654610 0.000000 
#    z 0.000000 0.000000 1.647220 
# 
# From -- ./inp_files/55137.got.cif
#   From: 2010.06.25/outbox.cif.g09.slc.cpg/sg71_28_cif.got.tgz:55137.got - 2010.06.28 04:59:45.
