data_PCOD8288298
_publ_section_title
;
Structure prediction by ZEFSAII (Michael W. Deem and Ramdas Pophale) SiO2 
 PCOD8288298
Probable space group: I M M M
;
_chemical_formula_sum "Si O2"
_cell_formula_units_Z 104
_cell_length_a 27.966500
_cell_length_b 9.390170
_cell_length_c 28.100795
_cell_angle_alpha 90.000000
_cell_angle_beta 90.000000
_cell_angle_gamma 90.000000
_cell_volume 7379.555095
_symmetry_space_group_name_H-M "I M M M"
_symmetry_group_IT_number 71
_symmetry_cell_setting 'orthorhombic'
loop_
_space_group_symop_operation_xyz
x,y,z
-x,-y,z
x,-y,-z
-x,y,-z
-x,-y,-z
x,y,-z
-x,y,z
x,-y,z
1/2+x,1/2+y,1/2+z
1/2-x,1/2-y,1/2+z
1/2+x,1/2-y,1/2-z
1/2-x,1/2+y,1/2-z
1/2-x,1/2-y,1/2-z
1/2+x,1/2+y,1/2-z
1/2-x,1/2+y,1/2+z
1/2+x,1/2-y,1/2+z
loop_
_atom_site_type_symbol
_atom_site_label
_atom_site_fract_x
_atom_site_fract_y
_atom_site_fract_z
Si Si1 0.219675 0.335173 0.287841
Si Si2 0.054207 0.650484 0.000000
Si Si3 0.193929 0.159793 0.055284
Si Si4 0.225152 0.330766 0.141536
Si Si5 0.414291 0.657338 0.583521
Si Si6 0.054479 0.832801 0.187719
Si Si7 0.141585 0.660980 0.784287
O O1 0.236481 0.500000 0.292147
O O2 0.250000 0.250000 0.250000
O O3 0.228251 0.251744 0.337382
O O4 0.165484 0.328558 0.268216
O O5 0.064516 0.735111 0.953126
O O6 0.083213 0.500000 0.000000
O O7 0.000000 0.610272 0.000000
O O8 0.222188 0.274251 0.087237
O O9 0.142132 0.155152 0.078503
O O10 0.216128 0.000000 0.058533
O O11 0.192491 0.209961 0.000000
O O12 0.233888 0.500000 0.141636
O O13 0.178490 0.290454 0.173643
O O14 0.435218 0.500000 0.573731
O O15 0.431581 0.711434 0.634465
O O16 0.093606 0.754547 0.220248
O O17 0.000000 0.783939 0.199175
O O18 0.060029 0.000000 0.196026
O O19 0.126146 0.500000 0.795456
#
# Coordination Sequence:
#
# PCOD8288298 Si02
#       7
#    16   8  16  16  16  16  16
#     4   9  17  29  45  66  86 104 131 165 206 254
#     4  11  23  33  41  55  71  91 125 173 225 265
#     4  10  19  31  46  62  79 106 141 175 215 256
#     4  10  19  30  45  65  85 107 134 167 213 258
#     4  10  19  33  47  57  71  98 136 175 214 255
#     4  10  20  31  44  61  79 104 138 173 211 252
#     4   9  18  30  44  63  84 106 132 166 209 253
#
# _framework density 14.09299
#
# number of rings (size 3 to 8) (size 9 to 14) (size 15 to 20)
#    0.000    2.231    2.308    2.538    0.000    6.154 
#    0.000    0.000    0.000    0.000    0.000    0.000 
#    0.000    0.000    0.000    0.000    0.000    0.769 
#
# Total GULP energy -644302.934069 kJ/mol
# GULP energy per Si atom -12390.441040 kJ/mol
# Density = 1.406091 g / cm^3
# Si number density = 14.092990 Si / 1000 Ang^3
#
#
#
# Elastic Constant Matrix: (Units=GPa)
#
#
# Indices 1 2 3 4 5 6 
#
# 1 59.5050 38.7656 37.1234 0.0000 0.0000 0.0000
# 2 38.7656 80.9557 36.6133 0.0000 0.0000 0.0000
# 3 37.1234 36.6133 49.7157 0.0000 0.0000 0.0000
# 4 0.0000 0.0000 0.0000 15.2083 0.0000 0.0000
# 5 0.0000 0.0000 0.0000 0.0000 27.1397 0.0000
# 6 0.0000 0.0000 0.0000 0.0000 0.0000 21.6365
#
#
#
# Elastic Compliance Matrix: (Units=1/GPa)
#
#
# Indices 1 2 3 4 5 6 
#
# 1 0.034052 -0.007206 -0.020120 0.000000 0.000000 0.000000
# 2 -0.007206 0.020046 -0.009382 0.000000 0.000000 0.000000
# 3 -0.020120 -0.009382 0.042048 0.000000 0.000000 0.000000
# 4 0.000000 0.000000 0.000000 0.065753 0.000000 0.000000
# 5 0.000000 0.000000 0.000000 0.000000 0.036846 0.000000
# 6 0.000000 0.000000 0.000000 0.000000 0.000000 0.046218
#
#
# Mechanical properties :
#
#
# Convention : Reuss Voigt Hill
#
# Bulk Modulus (GPa) = 43.99619 46.13123 45.06371
# Shear Modulus (GPa) = 15.33935 17.97518 16.65727
#
# Velocity S-wave (km/s) = 3.30273 3.57525 3.44169
# Velocity P-wave (km/s) = 6.76981 7.06029 6.91657
#
# Compressibility (1/GPa) = 0.02272924
#
# Stress axis : x y z
#
# Youngs Moduli (GPa) = 29.36645 49.88430 23.78232
#
# Poissons Ratio (x) = 0.35948 0.47851
# Poissons Ratio (y) = 0.21162 0.22313
# Poissons Ratio (z) = 0.59086 0.46802
#
# Static dielectric constant tensor:
#      x y z
#    x 2.760120 0.000000 0.000000 
#    y 0.000000 1.668670 0.000000 
#    z 0.000000 0.000000 2.928790 
# 
# 
# High freq. dielectric constant tensor:
#      x y z
#    x 1.500570 0.000000 0.000000 
#    y 0.000000 1.554050 0.000000 
#    z 0.000000 0.000000 1.512240 
# 
# From -- ./inp_files/15775.got.cif
#   From: 2010.06.25/outbox.cif.g09.slc.cpg/sg71_8_cif.got.tgz:15775.got - 2010.06.28 04:59:45.
