data_PCOD8288163
_publ_section_title
;
Structure prediction by ZEFSAII (Michael W. Deem and Ramdas Pophale) SiO2 
 PCOD8288163
Probable space group: I M M M
;
_chemical_formula_sum "Si O2"
_cell_formula_units_Z 104
_cell_length_a 24.981111
_cell_length_b 32.667018
_cell_length_c 9.184772
_cell_angle_alpha 90.000000
_cell_angle_beta 90.000000
_cell_angle_gamma 90.000000
_cell_volume 7495.310367
_symmetry_space_group_name_H-M "I M M M"
_symmetry_group_IT_number 71
_symmetry_cell_setting 'orthorhombic'
loop_
_space_group_symop_operation_xyz
x,y,z
-x,-y,z
x,-y,-z
-x,y,-z
-x,-y,-z
x,y,-z
-x,y,z
x,-y,z
1/2+x,1/2+y,1/2+z
1/2-x,1/2-y,1/2+z
1/2+x,1/2-y,1/2-z
1/2-x,1/2+y,1/2-z
1/2-x,1/2-y,1/2-z
1/2+x,1/2+y,1/2-z
1/2-x,1/2+y,1/2+z
1/2+x,1/2-y,1/2+z
loop_
_atom_site_type_symbol
_atom_site_label
_atom_site_fract_x
_atom_site_fract_y
_atom_site_fract_z
Si Si1 0.658031 0.885358 0.331497
Si Si2 0.776210 0.309313 0.170550
Si Si3 0.106711 0.452541 0.330199
Si Si4 0.000000 0.451580 0.163534
Si Si5 0.827923 0.765512 0.329417
Si Si6 0.557442 0.746102 0.171452
Si Si7 0.940888 0.329304 0.164230
O O1 0.663094 0.897908 0.500000
O O2 0.707096 0.855470 0.284409
O O3 0.656870 0.926516 0.234179
O O4 0.602615 0.862822 0.295950
O O5 0.813593 0.276518 0.249393
O O6 0.713860 0.301565 0.212485
O O7 0.786761 0.303365 0.000000
O O8 0.099525 0.443672 0.500000
O O9 0.119336 0.500000 0.300593
O O10 0.052936 0.437673 0.249174
O O11 0.000000 0.500000 0.152791
O O12 0.000000 0.432447 0.000000
O O13 0.824423 0.756070 0.500000
O O14 0.888724 0.779308 0.284337
O O15 0.500000 0.727645 0.230050
O O16 0.565214 0.791664 0.227952
O O17 0.554186 0.748672 0.000000
O O18 0.000000 0.349384 0.180555
O O19 0.931825 0.313038 0.000000
#
# Coordination Sequence:
#
# PCOD8288163 Si02
#       7
#    16  16  16   8  16  16  16
#     4  10  19  29  42  57  73  94 125 160 194 234
#     4   9  17  28  40  56  75  97 126 159 191 225
#     4  10  21  34  45  58  76  96 121 156 195 235
#     4   9  17  31  49  63  75  95 123 153 191 239
#     4   9  16  26  40  55  75 101 127 156 191 225
#     4   9  16  25  37  54  75  99 127 156 187 225
#     4   9  17  27  37  51  72  96 121 153 190 224
#
# _framework density 13.875343000000001
#
# number of rings (size 3 to 8) (size 9 to 14) (size 15 to 20)
#    0.000    2.692    1.538    0.692    1.077    3.077 
#    0.000    0.000    0.000    0.000    0.000    0.000 
#    0.000    0.000    0.000    0.000    0.000    0.769 
#
# Total GULP energy -644264.225110 kJ/mol
# GULP energy per Si atom -12389.696637 kJ/mol
# Density = 1.384376 g / cm^3
# Si number density = 13.875343 Si / 1000 Ang^3
#
#
#
# Elastic Constant Matrix: (Units=GPa)
#
#
# Indices 1 2 3 4 5 6 
#
# 1 109.0787 41.8473 29.1330 0.0000 0.0000 0.0000
# 2 41.8473 57.2112 28.0197 0.0000 0.0000 0.0000
# 3 29.1330 28.0197 38.2038 0.0000 0.0000 0.0000
# 4 0.0000 0.0000 0.0000 17.6979 0.0000 0.0000
# 5 0.0000 0.0000 0.0000 0.0000 13.5945 0.0000
# 6 0.0000 0.0000 0.0000 0.0000 0.0000 21.8912
#
#
#
# Elastic Compliance Matrix: (Units=1/GPa)
#
#
# Indices 1 2 3 4 5 6 
#
# 1 0.013259 -0.007407 -0.004678 0.000000 0.000000 0.000000
# 2 -0.007407 0.031415 -0.017392 0.000000 0.000000 0.000000
# 3 -0.004678 -0.017392 0.042499 0.000000 0.000000 0.000000
# 4 0.000000 0.000000 0.000000 0.056504 0.000000 0.000000
# 5 0.000000 0.000000 0.000000 0.000000 0.073559 0.000000
# 6 0.000000 0.000000 0.000000 0.000000 0.000000 0.045680
#
#
# Mechanical properties :
#
#
# Convention : Reuss Voigt Hill
#
# Bulk Modulus (GPa) = 35.43885 44.72153 40.08019
# Shear Modulus (GPa) = 15.09312 17.66964 16.38138
#
# Velocity S-wave (km/s) = 3.30171 3.57242 3.43973
# Velocity P-wave (km/s) = 6.33493 7.02262 6.68762
#
# Compressibility (1/GPa) = 0.02821762
#
# Stress axis : x y z
#
# Youngs Moduli (GPa) = 75.42157 31.83202 23.53006
#
# Poissons Ratio (x) = 0.23578 0.11008
# Poissons Ratio (y) = 0.55864 0.40924
# Poissons Ratio (z) = 0.35284 0.55363
#
# Static dielectric constant tensor:
#      x y z
#    x 3.170640 0.000000 0.000000 
#    y 0.000000 2.532440 0.000000 
#    z 0.000000 0.000000 2.792870 
# 
# 
# High freq. dielectric constant tensor:
#      x y z
#    x 1.519400 0.000000 0.000000 
#    y 0.000000 1.486220 0.000000 
#    z 0.000000 0.000000 1.534780 
# 
# From -- ./inp_files/15753.got.cif
#   From: 2010.06.25/outbox.cif.g09.slc.cpg/sg71_8_cif.got.tgz:15753.got - 2010.06.28 04:59:45.
