data_PCOD8288290
_publ_section_title
;
Structure prediction by ZEFSAII (Michael W. Deem and Ramdas Pophale) SiO2 
 PCOD8288290
Probable space group: I M M M
;
_chemical_formula_sum "Si O2"
_cell_formula_units_Z 104
_cell_length_a 13.617963
_cell_length_b 26.154662
_cell_length_c 17.656757
_cell_angle_alpha 90.000000
_cell_angle_beta 90.000000
_cell_angle_gamma 90.000000
_cell_volume 6288.863985
_symmetry_space_group_name_H-M "I M M M"
_symmetry_group_IT_number 71
_symmetry_cell_setting 'orthorhombic'
loop_
_space_group_symop_operation_xyz
x,y,z
-x,-y,z
x,-y,-z
-x,y,-z
-x,-y,-z
x,y,-z
-x,y,z
x,-y,z
1/2+x,1/2+y,1/2+z
1/2-x,1/2-y,1/2+z
1/2+x,1/2-y,1/2-z
1/2-x,1/2+y,1/2-z
1/2-x,1/2-y,1/2-z
1/2+x,1/2+y,1/2-z
1/2-x,1/2+y,1/2+z
1/2+x,1/2-y,1/2+z
loop_
_atom_site_type_symbol
_atom_site_label
_atom_site_fract_x
_atom_site_fract_y
_atom_site_fract_z
Si Si1 0.116055 0.500000 0.416820
Si Si2 0.385210 0.805989 0.087032
Si Si3 0.388260 0.402458 0.088347
Si Si4 0.383968 0.905343 0.817941
Si Si5 0.703848 0.940885 0.334952
Si Si6 0.393337 0.146828 0.411444
Si Si7 0.205604 0.202289 0.411009
O O1 0.164455 0.500000 0.500000
O O2 0.151453 0.550100 0.373487
O O3 0.000000 0.500000 0.424405
O O4 0.500000 0.794350 0.090113
O O5 0.356528 0.852707 0.140969
O O6 0.329832 0.756482 0.121918
O O7 0.354631 0.818197 0.000000
O O8 0.500000 0.417197 0.107250
O O9 0.318413 0.436866 0.141721
O O10 0.371838 0.342637 0.107291
O O11 0.364027 0.413268 0.000000
O O12 0.500000 0.909192 0.799028
O O13 0.319306 0.911005 0.742748
O O14 0.639511 0.911874 0.398261
O O15 0.671953 0.000000 0.329116
O O16 0.401107 0.155174 0.500000
O O17 0.500000 0.157444 0.373523
O O18 0.312368 0.186029 0.377255
O O19 0.213852 0.209259 0.500000
#
# Coordination Sequence:
#
# PCOD8288290 Si02
#       7
#     8  16  16  16  16  16  16
#     4   9  16  28  46  66  92 125 158 192 230 273
#     4   9  16  27  47  73  96 120 154 194 235 280
#     4   9  18  33  52  72  94 121 155 196 239 278
#     4  10  19  30  44  67  98 129 157 189 232 279
#     4  11  21  32  46  65  93 126 159 192 233 280
#     4   9  18  31  46  65  91 125 161 192 225 271
#     4   8  14  27  48  71  93 118 151 194 237 277
#
# _framework density 16.537168000000001
#
# number of rings (size 3 to 8) (size 9 to 14) (size 15 to 20)
#    0.000    2.692    0.769    2.769    0.000    6.154 
#    0.000    4.615    0.000    2.769    0.000    0.000 
#    0.000    2.462    0.000    0.000    0.000    0.308 
#
# Total GULP energy -644465.551890 kJ/mol
# GULP energy per Si atom -12393.568306 kJ/mol
# Density = 1.649953 g / cm^3
# Si number density = 16.537168 Si / 1000 Ang^3
#
#
#
# Elastic Constant Matrix: (Units=GPa)
#
#
# Indices 1 2 3 4 5 6 
#
# 1 90.4981 35.6888 32.6936 0.0000 0.0000 0.0000
# 2 35.6888 114.7353 26.0565 0.0001 0.0000 0.0000
# 3 32.6936 26.0565 50.4324 0.0002 0.0000 0.0000
# 4 0.0000 0.0001 0.0002 39.9777 0.0000 0.0000
# 5 0.0000 0.0000 0.0000 0.0000 19.3667 0.0000
# 6 0.0000 0.0000 0.0000 0.0000 0.0000 17.6038
#
#
#
# Elastic Compliance Matrix: (Units=1/GPa)
#
#
# Indices 1 2 3 4 5 6 
#
# 1 0.015194 -0.002820 -0.008393 0.000000 0.000000 0.000000
# 2 -0.002820 0.010398 -0.003544 0.000000 0.000000 0.000000
# 3 -0.008393 -0.003544 0.027100 0.000000 0.000000 0.000000
# 4 0.000000 0.000000 0.000000 0.025014 0.000000 0.000000
# 5 0.000000 0.000000 0.000000 0.000000 0.051635 0.000000
# 6 0.000000 0.000000 0.000000 0.000000 0.000000 0.056806
#
#
# Mechanical properties :
#
#
# Convention : Reuss Voigt Hill
#
# Bulk Modulus (GPa) = 43.14347 49.39373 46.26860
# Shear Modulus (GPa) = 22.38269 26.13810 24.26039
#
# Velocity S-wave (km/s) = 3.68296 3.97995 3.83433
# Velocity P-wave (km/s) = 6.65064 7.14515 6.90232
#
# Compressibility (1/GPa) = 0.02317848
#
# Stress axis : x y z
#
# Youngs Moduli (GPa) = 65.81498 96.17450 36.90001
#
# Poissons Ratio (x) = 0.27123 0.30969
# Poissons Ratio (y) = 0.18561 0.13077
# Poissons Ratio (z) = 0.55237 0.34083
#
# Static dielectric constant tensor:
#      x y z
#    x 3.275860 0.000000 0.000000 
#    y 0.000000 3.227200 0.000000 
#    z 0.000000 0.000000 2.987890 
# 
# 
# High freq. dielectric constant tensor:
#      x y z
#    x 1.616570 0.000000 0.000000 
#    y 0.000000 1.637930 0.000000 
#    z 0.000000 0.000000 1.615350 
# 
# From -- ./inp_files/45299.got.cif
#   From: 2010.06.25/outbox.cif.g09.slc.cpg/sg71_23_cif.got.tgz:45299.got - 2010.06.28 04:59:45.
