data_PCOD8288014
_publ_section_title
;
Structure prediction by ZEFSAII (Michael W. Deem and Ramdas Pophale) SiO2 
 PCOD8288014
Probable space group: I M M M
;
_chemical_formula_sum "Si O2"
_cell_formula_units_Z 104
_cell_length_a 27.353032
_cell_length_b 20.035390
_cell_length_c 9.195625
_cell_angle_alpha 90.000000
_cell_angle_beta 90.000000
_cell_angle_gamma 90.000000
_cell_volume 5039.466082
_symmetry_space_group_name_H-M "I M M M"
_symmetry_group_IT_number 71
_symmetry_cell_setting 'orthorhombic'
loop_
_space_group_symop_operation_xyz
x,y,z
-x,-y,z
x,-y,-z
-x,y,-z
-x,-y,-z
x,y,-z
-x,y,z
x,-y,z
1/2+x,1/2+y,1/2+z
1/2-x,1/2-y,1/2+z
1/2+x,1/2-y,1/2-z
1/2-x,1/2+y,1/2-z
1/2-x,1/2-y,1/2-z
1/2+x,1/2+y,1/2-z
1/2-x,1/2+y,1/2+z
1/2+x,1/2-y,1/2+z
loop_
_atom_site_type_symbol
_atom_site_label
_atom_site_fract_x
_atom_site_fract_y
_atom_site_fract_z
Si Si1 0.225230 0.139579 0.165902
Si Si2 0.924636 0.000000 0.670978
Si Si3 0.500000 0.921844 0.827156
Si Si4 0.672004 0.500000 0.662193
Si Si5 0.304787 0.073905 0.667571
Si Si6 0.946893 0.128373 0.834996
Si Si7 0.405109 0.866261 0.668765
Si Si8 0.863907 0.774541 0.827049
O O1 0.276384 0.134515 0.252239
O O2 0.188640 0.196926 0.230179
O O3 0.202687 0.066553 0.184093
O O4 0.237651 0.156328 0.000000
O O5 0.868166 0.000000 0.713649
O O6 0.951234 0.936087 0.735748
O O7 0.930858 0.000000 0.500000
O O8 0.452112 0.885994 0.762751
O O9 0.500000 0.000000 0.783395
O O10 0.500000 0.912782 0.000000
O O11 0.648797 0.500000 0.500000
O O12 0.291146 0.082400 0.500000
O O13 0.363206 0.078483 0.689335
O O14 0.289603 0.000000 0.723999
O O15 0.906273 0.176954 0.768596
O O16 0.000000 0.164352 0.832535
O O17 0.932756 0.107934 0.000000
O O18 0.421199 0.859138 0.500000
O O19 0.379014 0.798637 0.727553
O O20 0.862109 0.775963 0.000000
#
# Coordination Sequence:
#
# PCOD8288014 Si02
#       8
#    16   8   8   8  16  16  16  16
#     4  10  19  34  58  84 113 153 200 247 291 342
#     4  12  23  33  50  77 112 148 189 247 307 352
#     4  11  25  45  69  97 127 158 197 250 303 355
#     4  10  18  33  55  78 106 146 201 248 285 340
#     4  10  21  36  56  87 124 156 195 247 301 358
#     4  10  20  35  56  77 104 146 197 247 296 351
#     4  10  22  41  66  93 123 160 200 245 300 362
#     4   9  19  36  59  87 115 150 201 250 291 350
#
# _framework density 20.637108000000001
#
# number of rings (size 3 to 8) (size 9 to 14) (size 15 to 20)
#    0.000    1.923    2.308    1.615    1.077    4.308 
#    0.000    1.538    0.000    0.000    0.000    0.000 
#    0.000    0.000    0.000    0.000    0.000    0.000 
#
# Total GULP energy -644494.021989 kJ/mol
# GULP energy per Si atom -12394.115807 kJ/mol
# Density = 2.059014 g / cm^3
# Si number density = 20.637108 Si / 1000 Ang^3
#
#
#
# Elastic Constant Matrix: (Units=GPa)
#
#
# Indices 1 2 3 4 5 6 
#
# 1 124.2179 40.2725 43.8082 0.0000 0.0000 0.0000
# 2 40.2725 102.8432 34.1465 0.0000 0.0000 0.0000
# 3 43.8082 34.1465 73.0623 0.0000 0.0000 0.0000
# 4 0.0000 0.0000 0.0000 17.3785 0.0000 0.0000
# 5 0.0000 0.0000 0.0000 0.0000 30.9012 0.0000
# 6 0.0000 0.0000 0.0000 0.0000 0.0000 27.2085
#
#
#
# Elastic Compliance Matrix: (Units=1/GPa)
#
#
# Indices 1 2 3 4 5 6 
#
# 1 0.010702 -0.002439 -0.005277 0.000000 0.000000 0.000000
# 2 -0.002439 0.012065 -0.004177 0.000000 0.000000 0.000000
# 3 -0.005277 -0.004177 0.018803 0.000000 0.000000 0.000000
# 4 0.000000 0.000000 0.000000 0.057542 0.000000 0.000000
# 5 0.000000 0.000000 0.000000 0.000000 0.032361 0.000000
# 6 0.000000 0.000000 0.000000 0.000000 0.000000 0.036753
#
#
# Mechanical properties :
#
#
# Convention : Reuss Voigt Hill
#
# Bulk Modulus (GPa) = 56.22563 59.61975 57.92269
# Shear Modulus (GPa) = 25.26007 27.22406 26.24207
#
# Velocity S-wave (km/s) = 3.50238 3.63599 3.56981
# Velocity P-wave (km/s) = 6.60755 6.82492 6.71711
#
# Compressibility (1/GPa) = 0.01778548
#
# Stress axis : x y z
#
# Youngs Moduli (GPa) = 93.43904 82.88278 53.18251
#
# Poissons Ratio (x) = 0.20213 0.28066
# Poissons Ratio (y) = 0.22787 0.22212
# Poissons Ratio (z) = 0.49310 0.34617
#
# Static dielectric constant tensor:
#      x y z
#    x 3.828550 0.000000 0.000000 
#    y 0.000000 3.864700 0.000000 
#    z 0.000000 0.000000 3.414570 
# 
# 
# High freq. dielectric constant tensor:
#      x y z
#    x 1.821510 0.000000 0.000000 
#    y 0.000000 1.807820 0.000000 
#    z 0.000000 0.000000 1.769610 
# 
# From -- ./inp_files/15086.got.cif
#   From: 2010.06.25/outbox.cif.g09.slc.cpg/sg71_8_cif.got.tgz:15086.got - 2010.06.28 04:59:45.
