data_PCOD8288005
_publ_section_title
;
Structure prediction by ZEFSAII (Michael W. Deem and Ramdas Pophale) SiO2 
 PCOD8288005
Probable space group: I M M M
;
_chemical_formula_sum "Si O2"
_cell_formula_units_Z 88
_cell_length_a 12.949000
_cell_length_b 14.366865
_cell_length_c 25.310860
_cell_angle_alpha 90.000000
_cell_angle_beta 90.000000
_cell_angle_gamma 90.000000
_cell_volume 4708.744689
_symmetry_space_group_name_H-M "I M M M"
_symmetry_group_IT_number 71
_symmetry_cell_setting 'orthorhombic'
loop_
_space_group_symop_operation_xyz
x,y,z
-x,-y,z
x,-y,-z
-x,y,-z
-x,-y,-z
x,y,-z
-x,y,z
x,-y,z
1/2+x,1/2+y,1/2+z
1/2-x,1/2-y,1/2+z
1/2+x,1/2-y,1/2-z
1/2-x,1/2+y,1/2-z
1/2-x,1/2-y,1/2-z
1/2+x,1/2+y,1/2-z
1/2-x,1/2+y,1/2+z
1/2+x,1/2-y,1/2+z
loop_
_atom_site_type_symbol
_atom_site_label
_atom_site_fract_x
_atom_site_fract_y
_atom_site_fract_z
Si Si1 0.882651 0.695274 0.891395
Si Si2 0.814487 0.306695 0.400381
Si Si3 0.620975 0.000000 0.937929
Si Si4 0.613684 0.743048 0.209729
Si Si5 0.883114 0.808910 0.500000
Si Si6 0.828120 0.604730 0.000000
Si Si7 0.199602 0.390078 0.211983
O O1 0.806606 0.784004 0.891134
O O2 0.877902 0.650258 0.948773
O O3 0.843844 0.621685 0.847435
O O4 0.000000 0.727275 0.879494
O O5 0.821494 0.414920 0.410956
O O6 0.879120 0.280441 0.349317
O O7 0.866790 0.253532 0.448767
O O8 0.500000 0.000000 0.924798
O O9 0.640762 0.000000 0.000000
O O10 0.500000 0.703625 0.220037
O O11 0.686932 0.654276 0.218767
O O12 0.629327 0.831370 0.248119
O O13 0.797288 0.889992 0.500000
O O14 0.000000 0.849876 0.500000
O O15 0.863739 0.500000 0.000000
O O16 0.201371 0.500000 0.226010
#
# Coordination Sequence:
#
# PCOD8288005 Si02
#       7
#    16  16   8  16   8   8  16
#     4  10  21  38  57  75 105 143 177 223 274 314
#     4  10  21  35  53  81 110 137 181 222 259 321
#     4  11  20  32  55  83 113 145 176 215 267 321
#     4  10  21  37  57  82 113 146 180 225 277 326
#     4  10  18  33  53  73 108 145 168 209 268 315
#     4  10  21  33  51  81 104 129 178 222 257 318
#     4  10  22  38  57  83 111 142 186 230 271 328
#
# _framework density 18.688631999999998
#
# number of rings (size 3 to 8) (size 9 to 14) (size 15 to 20)
#    0.000    1.909    0.909    3.000    1.273    3.455 
#    0.000    0.455    0.000    7.091    0.000    0.000 
#    0.000    0.000    0.000    0.000    0.000    0.000 
#
# Total GULP energy -545517.994705 kJ/mol
# GULP energy per Si atom -12398.136243 kJ/mol
# Density = 1.864610 g / cm^3
# Si number density = 18.688632 Si / 1000 Ang^3
#
#
#
# Elastic Constant Matrix: (Units=GPa)
#
#
# Indices 1 2 3 4 5 6 
#
# 1 148.7722 34.9258 16.4642 0.0000 0.0000 0.0000
# 2 34.9258 92.4460 15.1799 0.0000 0.0000 0.0000
# 3 16.4642 15.1799 99.5613 0.0000 0.0000 0.0000
# 4 0.0000 0.0000 0.0000 32.3248 0.0000 0.0000
# 5 0.0000 0.0000 0.0000 0.0000 -10.7960 0.0000
# 6 0.0000 0.0000 0.0000 0.0000 0.0000 -5.4695
#
#
#
# Elastic Compliance Matrix: (Units=1/GPa)
#
#
# Indices 1 2 3 4 5 6 
#
# 1 0.007441 -0.002676 -0.000822 0.000000 0.000000 0.000000
# 2 -0.002676 0.012057 -0.001396 0.000000 0.000000 0.000000
# 3 -0.000822 -0.001396 0.010393 0.000000 0.000000 0.000000
# 4 0.000000 0.000000 0.000000 0.030936 0.000000 0.000000
# 5 0.000000 0.000000 0.000000 0.000000 -0.092627 0.000000
# 6 0.000000 0.000000 0.000000 0.000000 0.000000 -0.182832
#
#
# Mechanical properties :
#
#
# Convention : Reuss Voigt Hill
#
# Bulk Modulus (GPa) = 49.74534 52.65771 51.20153
# Shear Modulus (GPa) = -25.23449 21.49248 -1.87101
#
# Velocity S-wave (km/s) = -3.67857 3.39489 -1.00166
# Velocity P-wave (km/s) = 2.93823 6.60337 5.11066
#
# Compressibility (1/GPa) = 0.02010238
#
# Stress axis : x y z
#
# Youngs Moduli (GPa) = 134.39144 82.93691 96.21961
#
# Poissons Ratio (x) = 0.22195 0.07914
# Poissons Ratio (y) = 0.35965 0.13431
# Poissons Ratio (z) = 0.11053 0.11577
#
# Static dielectric constant tensor:
#      x y z
#    x 3.512680 0.000000 0.000000 
#    y 0.000000 3.199020 0.000000 
#    z 0.000000 0.000000 3.601960 
# 
# 
# High freq. dielectric constant tensor:
#      x y z
#    x 1.732310 0.000000 0.000000 
#    y 0.000000 1.702890 0.000000 
#    z 0.000000 0.000000 1.746650 
# 
# From -- ./inp_files/64481.got.cif
#   From: 2010.06.25/outbox.cif.g09.slc.cpg/sg71_33_cif.got.tgz:64481.got - 2010.06.28 04:59:45.
