data_PCOD8288577
_publ_section_title
;
Structure prediction by ZEFSAII (Michael W. Deem and Ramdas Pophale) SiO2 
 PCOD8288577
Probable space group: I M M M
;
_chemical_formula_sum "Si O2"
_cell_formula_units_Z 128
_cell_length_a 12.902645
_cell_length_b 23.428097
_cell_length_c 25.258454
_cell_angle_alpha 90.000000
_cell_angle_beta 90.000000
_cell_angle_gamma 90.000000
_cell_volume 7635.237083
_symmetry_space_group_name_H-M "I M M M"
_symmetry_group_IT_number 71
_symmetry_cell_setting 'orthorhombic'
loop_
_space_group_symop_operation_xyz
x,y,z
-x,-y,z
x,-y,-z
-x,y,-z
-x,-y,-z
x,y,-z
-x,y,z
x,-y,z
1/2+x,1/2+y,1/2+z
1/2-x,1/2-y,1/2+z
1/2+x,1/2-y,1/2-z
1/2-x,1/2+y,1/2-z
1/2-x,1/2-y,1/2-z
1/2+x,1/2+y,1/2-z
1/2-x,1/2+y,1/2+z
1/2+x,1/2-y,1/2+z
loop_
_atom_site_type_symbol
_atom_site_label
_atom_site_fract_x
_atom_site_fract_y
_atom_site_fract_z
Si Si1 0.618220 0.779171 0.355344
Si Si2 0.715403 0.435179 0.782809
Si Si3 0.880214 0.347586 0.249498
Si Si4 0.121476 0.933570 0.606480
Si Si5 0.881453 0.064913 0.172771
Si Si6 0.747731 0.832074 0.853765
Si Si7 0.259090 0.667142 0.940002
Si Si8 0.382260 0.219629 0.939710
O O1 0.500000 0.773690 0.372900
O O2 0.628767 0.799621 0.295149
O O3 0.666900 0.716884 0.356453
O O4 0.668391 0.823607 0.397122
O O5 0.749564 0.500000 0.789141
O O6 0.823087 0.403237 0.772785
O O7 0.655282 0.414151 0.834819
O O8 0.634190 0.426087 0.735388
O O9 0.823299 0.324901 0.301882
O O10 0.000000 0.362498 0.261982
O O11 0.185960 0.894327 0.566154
O O12 0.000000 0.922156 0.599095
O O13 0.147481 0.000000 0.595444
O O14 0.804568 0.106988 0.141861
O O15 0.000000 0.079406 0.158860
O O16 0.854100 0.000000 0.156332
O O17 0.676348 0.827529 0.905205
O O18 0.342931 0.716394 0.929702
O O19 0.214747 0.670662 0.000000
O O20 0.500000 0.219338 0.921610
O O21 0.367275 0.200747 0.000000
#
# Coordination Sequence:
#
# PCOD8288577 Si02
#       8
#    16  16  16  16  16  16  16  16
#     4  10  20  34  50  70  98 130 164 203 249 297
#     4   9  17  30  47  69  98 133 172 206 240 288
#     4  10  19  31  48  71 101 131 160 200 248 296
#     4  10  19  31  49  72  98 129 167 213 261 303
#     4   9  17  30  49  73 101 131 160 194 239 291
#     4  10  19  31  51  76 101 125 160 198 242 289
#     4  10  20  34  51  71  97 130 171 213 251 294
#     4   9  18  33  52  73  99 131 163 197 239 289
#
# _framework density 16.764379000000002
#
# number of rings (size 3 to 8) (size 9 to 14) (size 15 to 20)
#    0.000    2.375    1.250    1.875    0.000    3.000 
#    0.000    0.625    0.000    3.000    0.000    2.625 
#    0.000    0.000    0.000    0.000    0.000    0.000 
#
# Total GULP energy -793558.991800 kJ/mol
# GULP energy per Si atom -12399.359247 kJ/mol
# Density = 1.672622 g / cm^3
# Si number density = 16.764379 Si / 1000 Ang^3
#
#
#
# Elastic Constant Matrix: (Units=GPa)
#
#
# Indices 1 2 3 4 5 6 
#
# 1 122.2702 47.5850 48.7283 0.0000 0.0000 0.0000
# 2 47.5850 73.9130 38.6431 0.0000 0.0000 0.0000
# 3 48.7283 38.6431 71.7120 0.0000 0.0000 0.0000
# 4 0.0000 0.0000 0.0000 24.6010 0.0000 0.0000
# 5 0.0000 0.0000 0.0000 0.0000 23.8930 0.0000
# 6 0.0000 0.0000 0.0000 0.0000 0.0000 25.7395
#
#
#
# Elastic Compliance Matrix: (Units=1/GPa)
#
#
# Indices 1 2 3 4 5 6 
#
# 1 0.012408 -0.004985 -0.005745 0.000000 0.000000 0.000000
# 2 -0.004985 0.020838 -0.007842 0.000000 0.000000 0.000000
# 3 -0.005745 -0.007842 0.022074 0.000000 0.000000 0.000000
# 4 0.000000 0.000000 0.000000 0.040649 0.000000 0.000000
# 5 0.000000 0.000000 0.000000 0.000000 0.041853 0.000000
# 6 0.000000 0.000000 0.000000 0.000000 0.000000 0.038851
#
#
# Mechanical properties :
#
#
# Convention : Reuss Voigt Hill
#
# Bulk Modulus (GPa) = 55.01439 59.75645 57.38542
# Shear Modulus (GPa) = 22.73999 23.70930 23.22464
#
# Velocity S-wave (km/s) = 3.68699 3.76475 3.72608
# Velocity P-wave (km/s) = 7.14232 7.39054 7.26749
#
# Compressibility (1/GPa) = 0.01817706
#
# Stress axis : x y z
#
# Youngs Moduli (GPa) = 80.59192 47.98813 45.30122
#
# Poissons Ratio (x) = 0.23920 0.26027
# Poissons Ratio (y) = 0.40172 0.35526
# Poissons Ratio (z) = 0.46303 0.37633
#
# Static dielectric constant tensor:
#      x y z
#    x 3.175980 0.000000 0.000000 
#    y 0.000000 3.089690 0.000000 
#    z 0.000000 0.000000 3.123960 
# 
# 
# High freq. dielectric constant tensor:
#      x y z
#    x 1.648560 0.000000 0.000000 
#    y 0.000000 1.639940 0.000000 
#    z 0.000000 0.000000 1.638930 
# 
# From -- ./inp_files/27890.got.cif
#   From: 2010.06.25/outbox.cif.g09.slc.cpg/sg71_14_cif.got.tgz:27890.got - 2010.06.28 04:59:45.
