data_PCOD8288717
_publ_section_title
;
Structure prediction by ZEFSAII (Michael W. Deem and Ramdas Pophale) SiO2 
 PCOD8288717
Probable space group: I M M M
;
_chemical_formula_sum "Si O2"
_cell_formula_units_Z 88
_cell_length_a 22.199345
_cell_length_b 22.831685
_cell_length_c 9.463488
_cell_angle_alpha 90.000000
_cell_angle_beta 90.000000
_cell_angle_gamma 90.000000
_cell_volume 4796.554246
_symmetry_space_group_name_H-M "I M M M"
_symmetry_group_IT_number 71
_symmetry_cell_setting 'orthorhombic'
loop_
_space_group_symop_operation_xyz
x,y,z
-x,-y,z
x,-y,-z
-x,y,-z
-x,-y,-z
x,y,-z
-x,y,z
x,-y,z
1/2+x,1/2+y,1/2+z
1/2-x,1/2-y,1/2+z
1/2+x,1/2-y,1/2-z
1/2-x,1/2+y,1/2-z
1/2-x,1/2-y,1/2-z
1/2+x,1/2+y,1/2-z
1/2-x,1/2+y,1/2+z
1/2+x,1/2-y,1/2+z
loop_
_atom_site_type_symbol
_atom_site_label
_atom_site_fract_x
_atom_site_fract_y
_atom_site_fract_z
Si Si1 0.809962 0.239419 0.161351
Si Si2 0.879006 0.126935 0.837650
Si Si3 0.662110 0.131146 0.659922
Si Si4 0.069731 0.566152 0.341822
Si Si5 0.500000 0.567559 0.669368
Si Si6 0.241961 0.934171 0.837430
O O1 0.750000 0.250000 0.250000
O O2 0.852526 0.187972 0.227253
O O3 0.847286 0.299314 0.164608
O O4 0.791608 0.222498 0.000000
O O5 0.828959 0.076729 0.817697
O O6 0.941211 0.102423 0.769913
O O7 0.893048 0.139699 0.000000
O O8 0.668894 0.108519 0.500000
O O9 0.602448 0.105111 0.727291
O O10 0.721414 0.111984 0.744720
O O11 0.081803 0.590082 0.500000
O O12 0.094275 0.500000 0.331464
O O13 0.000000 0.568132 0.304780
O O14 0.500000 0.500000 0.723948
O O15 0.500000 0.566534 0.500000
O O16 0.256392 0.000000 0.787550
O O17 0.261045 0.925199 0.000000
#
# Coordination Sequence:
#
# PCOD8288717 Si02
#       6
#    16  16  16  16   8  16
#     4  10  20  35  53  75 103 140 178 213 259 314
#     4   9  17  31  50  74 105 138 172 216 267 314
#     4  11  22  33  49  77 108 138 173 215 267 321
#     4   9  19  37  58  77 100 135 178 217 257 312
#     4   9  16  28  50  80 109 135 170 221 276 324
#     4  10  19  31  51  77 103 135 175 216 261 316
#
# _framework density 18.346502999999998
#
# number of rings (size 3 to 8) (size 9 to 14) (size 15 to 20)
#    0.000    2.273    1.818    2.182    0.000    6.182 
#    1.636    0.909    0.000    0.000    0.000    1.909 
#    0.000    4.364    0.000    0.000    0.000    0.000 
#
# Total GULP energy -545426.955279 kJ/mol
# GULP energy per Si atom -12396.067165 kJ/mol
# Density = 1.830475 g / cm^3
# Si number density = 18.346503 Si / 1000 Ang^3
#
#
#
# Elastic Constant Matrix: (Units=GPa)
#
#
# Indices 1 2 3 4 5 6 
#
# 1 112.0856 56.9529 34.9805 0.0000 0.0000 0.0000
# 2 56.9529 117.7837 34.8871 0.0000 0.0000 0.0000
# 3 34.9805 34.8871 63.3411 0.0000 0.0000 0.0000
# 4 0.0000 0.0000 0.0000 21.2341 0.0000 0.0000
# 5 0.0000 0.0000 0.0000 0.0000 18.5867 0.0000
# 6 0.0000 0.0000 0.0000 0.0000 0.0000 32.8266
#
#
#
# Elastic Compliance Matrix: (Units=1/GPa)
#
#
# Indices 1 2 3 4 5 6 
#
# 1 0.012762 -0.004879 -0.004360 0.000000 0.000000 0.000000
# 2 -0.004879 0.012011 -0.003921 0.000000 0.000000 0.000000
# 3 -0.004360 -0.003921 0.020355 0.000000 0.000000 0.000000
# 4 0.000000 0.000000 0.000000 0.047094 0.000000 0.000000
# 5 0.000000 0.000000 0.000000 0.000000 0.053802 0.000000
# 6 0.000000 0.000000 0.000000 0.000000 0.000000 0.030463
#
#
# Mechanical properties :
#
#
# Convention : Reuss Voigt Hill
#
# Bulk Modulus (GPa) = 53.17198 60.76128 56.96663
# Shear Modulus (GPa) = 23.91469 25.62213 24.76841
#
# Velocity S-wave (km/s) = 3.61432 3.74112 3.67827
# Velocity P-wave (km/s) = 6.81636 7.20083 7.01123
#
# Compressibility (1/GPa) = 0.01880690
#
# Stress axis : x y z
#
# Youngs Moduli (GPa) = 78.35858 83.25863 49.12793
#
# Poissons Ratio (x) = 0.40624 0.21422
# Poissons Ratio (y) = 0.38234 0.19262
# Poissons Ratio (z) = 0.34167 0.32643
#
# Static dielectric constant tensor:
#      x y z
#    x 3.375190 0.000000 0.000000 
#    y 0.000000 3.628900 0.000000 
#    z 0.000000 0.000000 3.113740 
# 
# 
# High freq. dielectric constant tensor:
#      x y z
#    x 1.711100 0.000000 0.000000 
#    y 0.000000 1.721350 0.000000 
#    z 0.000000 0.000000 1.673220 
# 
# From -- ./inp_files/10510.got.cif
#   From: 2010.06.25/outbox.cif.g09.slc.cpg/sg71_6_cif.got.tgz:10510.got - 2010.06.28 04:59:45.
