data_PCOD8288106
_publ_section_title
;
Structure prediction by ZEFSAII (Michael W. Deem and Ramdas Pophale) SiO2 
 PCOD8288106
Probable space group: I M M M
;
_chemical_formula_sum "Si O2"
_cell_formula_units_Z 72
_cell_length_a 22.298529
_cell_length_b 24.242850
_cell_length_c 9.197809
_cell_angle_alpha 90.000000
_cell_angle_beta 90.000000
_cell_angle_gamma 90.000000
_cell_volume 4972.150612
_symmetry_space_group_name_H-M "I M M M"
_symmetry_group_IT_number 71
_symmetry_cell_setting 'orthorhombic'
loop_
_space_group_symop_operation_xyz
x,y,z
-x,-y,z
x,-y,-z
-x,y,-z
-x,-y,-z
x,y,-z
-x,y,z
x,-y,z
1/2+x,1/2+y,1/2+z
1/2-x,1/2-y,1/2+z
1/2+x,1/2-y,1/2-z
1/2-x,1/2+y,1/2-z
1/2-x,1/2-y,1/2-z
1/2+x,1/2+y,1/2-z
1/2-x,1/2+y,1/2+z
1/2+x,1/2-y,1/2+z
loop_
_atom_site_type_symbol
_atom_site_label
_atom_site_fract_x
_atom_site_fract_y
_atom_site_fract_z
Si Si1 0.259531 0.667883 0.160865
Si Si2 0.164285 0.721079 0.662206
Si Si3 0.878058 0.885800 0.327744
Si Si4 0.569442 0.716579 0.332823
Si Si5 0.567376 0.500000 0.172483
O O1 0.202820 0.670869 0.268680
O O2 0.294781 0.725187 0.157918
O O3 0.307549 0.621605 0.211643
O O4 0.235008 0.654230 0.000000
O O5 0.144593 0.703725 0.500000
O O6 0.105706 0.733379 0.758364
O O7 0.888177 0.877478 0.500000
O O8 0.918843 0.841266 0.246441
O O9 0.897749 0.945947 0.272213
O O10 0.590041 0.711391 0.500000
O O11 0.500000 0.731725 0.319892
O O12 0.500000 0.500000 0.236252
O O13 0.565139 0.500000 0.000000
#
# Coordination Sequence:
#
# PCOD8288106 Si02
#       5
#    16  16  16  16   8
#     4   8  14  24  37  54  74  94 120 155 193 229
#     4   9  16  25  39  56  72  94 123 154 188 227
#     4   9  17  28  42  57  73  99 133 166 197 226
#     4  10  19  28  38  54  77 103 128 156 191 229
#     4   9  16  26  41  59  77  99 132 171 200 221
#
# _framework density 14.480655
#
# number of rings (size 3 to 8) (size 9 to 14) (size 15 to 20)
#    0.000    3.000    0.000    3.333    0.000    8.000 
#    0.000    0.556    0.000    2.000    0.000    0.000 
#    0.000    0.000    0.000    1.000    0.000   22.889 
#
# Total GULP energy -446238.456595 kJ/mol
# GULP energy per Si atom -12395.512683 kJ/mol
# Density = 1.444770 g / cm^3
# Si number density = 14.480655 Si / 1000 Ang^3
#
#
#
# Elastic Constant Matrix: (Units=GPa)
#
#
# Indices 1 2 3 4 5 6 
#
# 1 90.6794 52.4878 50.8162 0.0000 0.0000 0.0000
# 2 52.4878 57.2235 26.8919 0.0000 0.0000 0.0000
# 3 50.8162 26.8919 83.6355 0.0000 0.0000 0.0000
# 4 0.0000 0.0000 0.0000 12.2976 0.0000 0.0000
# 5 0.0000 0.0000 0.0000 0.0000 23.1590 0.0000
# 6 0.0000 0.0000 0.0000 0.0000 0.0000 25.0947
#
#
#
# Elastic Compliance Matrix: (Units=1/GPa)
#
#
# Indices 1 2 3 4 5 6 
#
# 1 0.030392 -0.022616 -0.011194 0.000000 0.000000 0.000000
# 2 -0.022616 0.037416 0.001711 0.000000 0.000000 0.000000
# 3 -0.011194 0.001711 0.018208 0.000000 0.000000 0.000000
# 4 0.000000 0.000000 0.000000 0.081317 0.000000 0.000000
# 5 0.000000 0.000000 0.000000 0.000000 0.043180 0.000000
# 6 0.000000 0.000000 0.000000 0.000000 0.000000 0.039849
#
#
# Mechanical properties :
#
#
# Convention : Reuss Voigt Hill
#
# Bulk Modulus (GPa) = 45.83570 54.65892 50.24731
# Shear Modulus (GPa) = 15.53612 18.86643 17.20127
#
# Velocity S-wave (km/s) = 3.27905 3.61345 3.45030
# Velocity P-wave (km/s) = 6.78660 7.43219 7.11672
#
# Compressibility (1/GPa) = 0.02181705
#
# Stress axis : x y z
#
# Youngs Moduli (GPa) = 32.90393 26.72680 54.92138
#
# Poissons Ratio (x) = 0.60445 0.61478
# Poissons Ratio (y) = 0.74415 -0.09395
# Poissons Ratio (z) = 0.36832 -0.04572
#
# Static dielectric constant tensor:
#      x y z
#    x 2.880900 0.000000 0.000000 
#    y 0.000000 2.635260 0.000000 
#    z 0.000000 0.000000 2.953590 
# 
# 
# High freq. dielectric constant tensor:
#      x y z
#    x 1.546340 0.000000 0.000000 
#    y 0.000000 1.501100 0.000000 
#    z 0.000000 0.000000 1.556430 
# 
# From -- ./inp_files/8180.got.cif
#   From: 2010.06.25/outbox.cif.g09.slc.cpg/sg71_5_cif.got.tgz:8180.got - 2010.06.28 04:59:45.
