data_PCOD8288819
_publ_section_title
;
Structure prediction by ZEFSAII (Michael W. Deem and Ramdas Pophale) SiO2 
 PCOD8288819
Probable space group: I M M M
;
_chemical_formula_sum "Si O2"
_cell_formula_units_Z 120
_cell_length_a 28.101267
_cell_length_b 8.423740
_cell_length_c 28.823639
_cell_angle_alpha 90.000000
_cell_angle_beta 90.000000
_cell_angle_gamma 90.000000
_cell_volume 6823.067457
_symmetry_space_group_name_H-M "I M M M"
_symmetry_group_IT_number 71
_symmetry_cell_setting 'orthorhombic'
loop_
_space_group_symop_operation_xyz
x,y,z
-x,-y,z
x,-y,-z
-x,y,-z
-x,-y,-z
x,y,-z
-x,y,z
x,-y,z
1/2+x,1/2+y,1/2+z
1/2-x,1/2-y,1/2+z
1/2+x,1/2-y,1/2-z
1/2-x,1/2+y,1/2-z
1/2-x,1/2-y,1/2-z
1/2+x,1/2+y,1/2-z
1/2-x,1/2+y,1/2+z
1/2+x,1/2-y,1/2+z
loop_
_atom_site_type_symbol
_atom_site_label
_atom_site_fract_x
_atom_site_fract_y
_atom_site_fract_z
Si Si1 0.797816 0.316616 0.704113
Si Si2 0.053586 0.316293 0.776006
Si Si3 0.943807 0.500000 0.446956
Si Si4 0.944212 0.177455 0.599163
Si Si5 0.946907 0.187221 0.947934
Si Si6 0.392930 0.678532 0.191527
Si Si7 0.798644 0.686286 0.190895
Si Si8 0.387750 0.816610 0.365424
O O1 0.784823 0.500000 0.705123
O O2 0.847474 0.286172 0.677977
O O3 0.804449 0.247051 0.756492
O O4 0.755149 0.230029 0.675897
O O5 0.057545 0.500000 0.762169
O O6 0.086200 0.219461 0.741341
O O7 0.071005 0.287166 0.828024
O O8 0.000000 0.253304 0.772588
O O9 0.929483 0.500000 0.500000
O O10 0.922401 0.666886 0.426768
O O11 0.000000 0.500000 0.438148
O O12 0.933609 0.203352 0.653304
O O13 0.000000 0.175801 0.591005
O O14 0.924601 0.000000 0.583191
O O15 0.904995 0.239705 0.913289
O O16 0.000000 0.251349 0.933864
O O17 0.948460 0.000000 0.947652
O O18 0.934529 0.248134 0.000000
O O19 0.374133 0.500000 0.192865
O O20 0.807431 0.500000 0.192032
O O21 0.838133 0.757595 0.155163
O O22 0.379853 0.000000 0.376005
#
# Coordination Sequence:
#
# PCOD8288819 Si02
#       8
#    16  16   8  16  16  16  16  16
#     4  10  19  32  50  70  96 131 170 206 248 294
#     4  10  20  32  46  67  98 136 172 207 246 290
#     4   9  18  32  52  76  98 130 172 210 255 301
#     4   9  19  33  48  72 105 137 171 213 254 301
#     4   9  19  35  52  72 101 135 171 215 265 313
#     4  11  21  32  47  69 100 137 173 205 244 299
#     4   9  18  33  49  69  99 128 161 208 254 296
#     4  10  19  33  51  73 100 130 168 212 258 309
#
# _framework density 17.587398
#
# number of rings (size 3 to 8) (size 9 to 14) (size 15 to 20)
#    0.000    2.333    1.333    2.000    1.867    3.733 
#    0.000    2.000    0.000    0.000    0.000    0.933 
#    0.000    4.267    0.000    0.000    0.000    0.000 
#
# Total GULP energy -743511.627324 kJ/mol
# GULP energy per Si atom -12391.860455 kJ/mol
# Density = 1.754737 g / cm^3
# Si number density = 17.587398 Si / 1000 Ang^3
#
#
#
# Elastic Constant Matrix: (Units=GPa)
#
#
# Indices 1 2 3 4 5 6 
#
# 1 100.9610 20.5858 35.2926 0.0000 0.0000 0.0000
# 2 20.5858 63.9481 35.3286 0.0000 0.0000 0.0000
# 3 35.2926 35.3286 82.7073 0.0000 0.0000 0.0000
# 4 0.0000 0.0000 0.0000 20.6137 0.0000 0.0000
# 5 0.0000 0.0000 0.0000 0.0000 21.9885 0.0000
# 6 0.0000 0.0000 0.0000 0.0000 0.0000 24.2732
#
#
#
# Elastic Compliance Matrix: (Units=1/GPa)
#
#
# Indices 1 2 3 4 5 6 
#
# 1 0.011726 -0.001323 -0.004439 0.000000 0.000000 0.000000
# 2 -0.001323 0.020617 -0.008242 0.000000 0.000000 0.000000
# 3 -0.004439 -0.008242 0.017506 0.000000 0.000000 0.000000
# 4 0.000000 0.000000 0.000000 0.048512 0.000000 0.000000
# 5 0.000000 0.000000 0.000000 0.000000 0.045478 0.000000
# 6 0.000000 0.000000 0.000000 0.000000 0.000000 0.041198
#
#
# Mechanical properties :
#
#
# Convention : Reuss Voigt Hill
#
# Bulk Modulus (GPa) = 45.78432 47.78114 46.78273
# Shear Modulus (GPa) = 22.69389 23.80238 23.24813
#
# Velocity S-wave (km/s) = 3.59604 3.68282 3.63969
# Velocity P-wave (km/s) = 6.58263 6.73134 6.65740
#
# Compressibility (1/GPa) = 0.02184154
#
# Stress axis : x y z
#
# Youngs Moduli (GPa) = 85.27957 48.50396 57.12459
#
# Poissons Ratio (x) = 0.06415 0.25356
# Poissons Ratio (y) = 0.11279 0.47083
# Poissons Ratio (z) = 0.37854 0.39978
#
# Static dielectric constant tensor:
#      x y z
#    x 3.362450 0.000000 0.000000 
#    y 0.000000 3.380840 0.000000 
#    z 0.000000 0.000000 3.128770 
# 
# 
# High freq. dielectric constant tensor:
#      x y z
#    x 1.666800 0.000000 0.000000 
#    y 0.000000 1.682780 0.000000 
#    z 0.000000 0.000000 1.648100 
# 
# From -- ./inp_files/63781.got.cif
#   From: 2010.06.25/outbox.cif.g09.slc.cpg/sg71_32_cif.got.tgz:63781.got - 2010.06.28 04:59:45.
