data_PCOD8288345
_publ_section_title
;
Structure prediction by ZEFSAII (Michael W. Deem and Ramdas Pophale) SiO2 
 PCOD8288345
Probable space group: I M M M
;
_chemical_formula_sum "Si O2"
_cell_formula_units_Z 88
_cell_length_a 21.003731
_cell_length_b 8.291248
_cell_length_c 27.580867
_cell_angle_alpha 90.000000
_cell_angle_beta 90.000000
_cell_angle_gamma 90.000000
_cell_volume 4803.129180
_symmetry_space_group_name_H-M "I M M M"
_symmetry_group_IT_number 71
_symmetry_cell_setting 'orthorhombic'
loop_
_space_group_symop_operation_xyz
x,y,z
-x,-y,z
x,-y,-z
-x,y,-z
-x,-y,-z
x,y,-z
-x,y,z
x,-y,z
1/2+x,1/2+y,1/2+z
1/2-x,1/2-y,1/2+z
1/2+x,1/2-y,1/2-z
1/2-x,1/2+y,1/2-z
1/2-x,1/2-y,1/2-z
1/2+x,1/2+y,1/2-z
1/2-x,1/2+y,1/2+z
1/2+x,1/2-y,1/2+z
loop_
_atom_site_type_symbol
_atom_site_label
_atom_site_fract_x
_atom_site_fract_y
_atom_site_fract_z
Si Si1 0.070790 0.000000 0.557252
Si Si2 0.150055 0.315778 0.443887
Si Si3 0.263280 0.184458 0.142761
Si Si4 0.131493 0.190161 0.180317
Si Si5 0.000000 0.311567 0.820057
Si Si6 0.000000 0.312117 0.709424
Si Si7 0.869872 0.813387 0.711236
O O1 0.104084 0.168979 0.573604
O O2 0.066722 0.000000 0.500000
O O3 0.000000 0.000000 0.579942
O O4 0.168176 0.292806 0.500000
O O5 0.121570 0.500000 0.435791
O O6 0.214705 0.296644 0.412949
O O7 0.191552 0.253101 0.148554
O O8 0.309583 0.279550 0.178302
O O9 0.265941 0.000000 0.159795
O O10 0.065201 0.247054 0.155440
O O11 0.138560 0.263475 0.234905
O O12 0.131690 0.000000 0.181304
O O13 0.000000 0.500000 0.824263
O O14 0.000000 0.248679 0.764759
O O15 0.065503 0.250395 0.684995
O O16 0.000000 0.500000 0.705183
O O17 0.878515 0.000000 0.717782
#
# Coordination Sequence:
#
# PCOD8288345 Si02
#       7
#     8  16  16  16   8   8  16
#     4   9  18  34  56  78 100 129 167 211 257 302
#     4   9  19  36  55  75 101 131 166 210 254 299
#     4  10  20  33  49  71  97 127 162 200 245 295
#     4   9  18  32  49  69  97 130 161 196 240 289
#     4   9  17  29  47  71  94 123 160 200 239 282
#     4   9  17  31  47  61  90 131 166 199 240 284
#     4  10  19  30  46  69  96 127 164 202 240 286
#
# _framework density 18.321389
#
# number of rings (size 3 to 8) (size 9 to 14) (size 15 to 20)
#    0.000    2.636    0.000    1.636    1.273    4.000 
#    1.636    1.818    0.000    0.000    0.000    0.636 
#    0.000    5.091    0.000    0.000    0.000    0.000 
#
# Total GULP energy -545187.388658 kJ/mol
# GULP energy per Si atom -12390.622470 kJ/mol
# Density = 1.827969 g / cm^3
# Si number density = 18.321389 Si / 1000 Ang^3
#
#
#
# Elastic Constant Matrix: (Units=GPa)
#
#
# Indices 1 2 3 4 5 6 
#
# 1 183.8159 52.6119 46.9669 0.0000 0.0000 0.0000
# 2 52.6119 71.4496 25.1374 0.0000 0.0000 0.0000
# 3 46.9669 25.1374 47.3531 0.0000 0.0000 0.0000
# 4 0.0000 0.0000 0.0000 15.4660 0.0000 0.0000
# 5 0.0000 0.0000 0.0000 0.0000 14.7349 0.0000
# 6 0.0000 0.0000 0.0000 0.0000 0.0000 27.9024
#
#
#
# Elastic Compliance Matrix: (Units=1/GPa)
#
#
# Indices 1 2 3 4 5 6 
#
# 1 0.008061 -0.003840 -0.005957 0.000000 0.000000 0.000000
# 2 -0.003840 0.019039 -0.006298 0.000000 0.000000 0.000000
# 3 -0.005957 -0.006298 0.030370 0.000000 0.000000 0.000000
# 4 0.000000 0.000000 0.000000 0.064658 0.000000 0.000000
# 5 0.000000 0.000000 0.000000 0.000000 0.067866 0.000000
# 6 0.000000 0.000000 0.000000 0.000000 0.000000 0.035839
#
#
# Mechanical properties :
#
#
# Convention : Reuss Voigt Hill
#
# Bulk Modulus (GPa) = 39.55742 61.33899 50.44820
# Shear Modulus (GPa) = 18.76512 23.48083 21.12298
#
# Velocity S-wave (km/s) = 3.20381 3.58384 3.39914
# Velocity P-wave (km/s) = 5.94337 7.11880 6.55747
#
# Compressibility (1/GPa) = 0.02527971
#
# Stress axis : x y z
#
# Youngs Moduli (GPa) = 124.04644 52.52254 32.92737
#
# Poissons Ratio (x) = 0.20170 0.19615
# Poissons Ratio (y) = 0.47637 0.20738
# Poissons Ratio (z) = 0.73896 0.33080
#
# Static dielectric constant tensor:
#      x y z
#    x 3.735840 0.000000 0.000000 
#    y 0.000000 3.443280 0.000000 
#    z 0.000000 0.000000 3.120740 
# 
# 
# High freq. dielectric constant tensor:
#      x y z
#    x 1.712410 0.000000 0.000000 
#    y 0.000000 1.717620 0.000000 
#    z 0.000000 0.000000 1.662320 
# 
# From -- ./inp_files/51097.got.cif
#   From: 2010.06.25/outbox.cif.g09.slc.cpg/sg71_26_cif.got.tgz:51097.got - 2010.06.28 04:59:45.
