data_PCOD8288052
_publ_section_title
;
Structure prediction by ZEFSAII (Michael W. Deem and Ramdas Pophale) SiO2 
 PCOD8288052
Probable space group: I M M M
;
_chemical_formula_sum "Si O2"
_cell_formula_units_Z 88
_cell_length_a 13.016855
_cell_length_b 17.976640
_cell_length_c 20.778399
_cell_angle_alpha 90.000000
_cell_angle_beta 90.000000
_cell_angle_gamma 90.000000
_cell_volume 4862.131159
_symmetry_space_group_name_H-M "I M M M"
_symmetry_group_IT_number 71
_symmetry_cell_setting 'orthorhombic'
loop_
_space_group_symop_operation_xyz
x,y,z
-x,-y,z
x,-y,-z
-x,y,-z
-x,-y,-z
x,y,-z
-x,y,z
x,-y,z
1/2+x,1/2+y,1/2+z
1/2-x,1/2-y,1/2+z
1/2+x,1/2-y,1/2-z
1/2-x,1/2+y,1/2-z
1/2-x,1/2-y,1/2-z
1/2+x,1/2+y,1/2-z
1/2-x,1/2+y,1/2+z
1/2+x,1/2-y,1/2+z
loop_
_atom_site_type_symbol
_atom_site_label
_atom_site_fract_x
_atom_site_fract_y
_atom_site_fract_z
Si Si1 0.702276 0.412076 0.187246
Si Si2 0.381226 0.320253 0.927168
Si Si3 0.500000 0.912556 0.071832
Si Si4 0.385170 0.182859 0.270910
Si Si5 0.815545 0.672904 0.629372
Si Si6 0.886870 0.151986 0.815236
O O1 0.712102 0.500000 0.185591
O O2 0.651445 0.385740 0.120667
O O3 0.816034 0.377961 0.193185
O O4 0.631907 0.387761 0.247083
O O5 0.500000 0.299412 0.915169
O O6 0.316088 0.244913 0.916289
O O7 0.362479 0.348168 0.000000
O O8 0.602856 0.888083 0.107752
O O9 0.500000 0.000000 0.069903
O O10 0.500000 0.878517 0.000000
O O11 0.500000 0.149933 0.266291
O O12 0.341413 0.201815 0.200665
O O13 0.384217 0.259213 0.309518
O O14 0.702598 0.633372 0.632452
O O15 0.000000 0.126758 0.840004
#
# Coordination Sequence:
#
# PCOD8288052 Si02
#       6
#    16  16   8  16  16  16
#     4  11  22  35  52  79 115 149 181 224 278 330
#     4  11  21  34  55  79 105 145 191 227 267 324
#     4  11  24  38  56  86 117 143 178 232 287 326
#     4  10  18  34  58  81 108 138 177 230 280 327
#     4  11  18  35  58  83 109 142 181 225 275 331
#     4  10  20  35  58  82 110 143 179 226 279 331
#
# _framework density 18.099057999999999
#
# number of rings (size 3 to 8) (size 9 to 14) (size 15 to 20)
#    0.000    1.364    5.455    2.182    0.000    5.091 
#    0.000    0.909    0.000    3.818    0.000    2.545 
#    0.000    0.000    0.000    0.000    0.000    0.000 
#
# Total GULP energy -545598.548839 kJ/mol
# GULP energy per Si atom -12399.967019 kJ/mol
# Density = 1.805786 g / cm^3
# Si number density = 18.099058 Si / 1000 Ang^3
#
#
#
# Elastic Constant Matrix: (Units=GPa)
#
#
# Indices 1 2 3 4 5 6 
#
# 1 144.1225 19.1158 40.1665 0.0000 0.0000 0.0000
# 2 19.1158 79.5970 26.3667 0.0000 0.0000 0.0000
# 3 40.1665 26.3667 69.5173 0.0000 0.0000 0.0000
# 4 0.0000 0.0000 0.0000 16.2117 0.0000 0.0000
# 5 0.0000 0.0000 0.0000 0.0000 21.5862 0.0000
# 6 0.0000 0.0000 0.0000 0.0000 0.0000 15.3934
#
#
#
# Elastic Compliance Matrix: (Units=1/GPa)
#
#
# Indices 1 2 3 4 5 6 
#
# 1 0.008285 -0.000462 -0.004612 0.000000 0.000000 0.000000
# 2 -0.000462 0.014394 -0.005193 0.000000 0.000000 0.000000
# 3 -0.004612 -0.005193 0.019019 0.000000 0.000000 0.000000
# 4 0.000000 0.000000 0.000000 0.061684 0.000000 0.000000
# 5 0.000000 0.000000 0.000000 0.000000 0.046326 0.000000
# 6 0.000000 0.000000 0.000000 0.000000 0.000000 0.064963
#
#
# Mechanical properties :
#
#
# Convention : Reuss Voigt Hill
#
# Bulk Modulus (GPa) = 47.24647 51.61499 49.43073
# Shear Modulus (GPa) = 20.63907 24.47745 22.55826
#
# Velocity S-wave (km/s) = 3.38055 3.68151 3.53424
# Velocity P-wave (km/s) = 6.43417 6.83018 6.63513
#
# Compressibility (1/GPa) = 0.02116560
#
# Stress axis : x y z
#
# Youngs Moduli (GPa) = 120.69816 69.47201 52.57899
#
# Poissons Ratio (x) = 0.03210 0.24248
# Poissons Ratio (y) = 0.05577 0.27302
# Poissons Ratio (z) = 0.55664 0.36074
#
# Static dielectric constant tensor:
#      x y z
#    x 3.861400 0.000000 0.000000 
#    y 0.000000 3.075760 0.000000 
#    z 0.000000 0.000000 3.280400 
# 
# 
# High freq. dielectric constant tensor:
#      x y z
#    x 1.712520 0.000000 0.000000 
#    y 0.000000 1.685920 0.000000 
#    z 0.000000 0.000000 1.676840 
# 
# From -- ./inp_files/44700.got.cif
#   From: 2010.06.25/outbox.cif.g09.slc.cpg/sg71_23_cif.got.tgz:44700.got - 2010.06.28 04:59:45.
