data_PCOD8288145
_publ_section_title
;
Structure prediction by ZEFSAII (Michael W. Deem and Ramdas Pophale) SiO2 
 PCOD8288145
Probable space group: I M M M
;
_chemical_formula_sum "Si O2"
_cell_formula_units_Z 80
_cell_length_a 10.149597
_cell_length_b 14.203766
_cell_length_c 31.741168
_cell_angle_alpha 90.000000
_cell_angle_beta 90.000000
_cell_angle_gamma 90.000000
_cell_volume 4575.886157
_symmetry_space_group_name_H-M "I M M M"
_symmetry_group_IT_number 71
_symmetry_cell_setting 'orthorhombic'
loop_
_space_group_symop_operation_xyz
x,y,z
-x,-y,z
x,-y,-z
-x,y,-z
-x,-y,-z
x,y,-z
-x,y,z
x,-y,z
1/2+x,1/2+y,1/2+z
1/2-x,1/2-y,1/2+z
1/2+x,1/2-y,1/2-z
1/2-x,1/2+y,1/2-z
1/2-x,1/2-y,1/2-z
1/2+x,1/2+y,1/2-z
1/2-x,1/2+y,1/2+z
1/2+x,1/2-y,1/2+z
loop_
_atom_site_type_symbol
_atom_site_label
_atom_site_fract_x
_atom_site_fract_y
_atom_site_fract_z
Si Si1 0.150840 0.500000 0.139213
Si Si2 0.731799 0.500000 0.228734
Si Si3 0.347564 0.193175 0.863315
Si Si4 0.156766 0.682172 0.910591
Si Si5 0.642651 0.297027 0.221248
Si Si6 0.654562 0.000000 0.821745
Si Si7 0.654379 0.103947 0.500000
O O1 0.166664 0.500000 0.189638
O O2 0.208030 0.405484 0.117810
O O3 0.000000 0.500000 0.126718
O O4 0.640577 0.409053 0.225278
O O5 0.804073 0.500000 0.273268
O O6 0.500000 0.187869 0.879509
O O7 0.244700 0.226275 0.899005
O O8 0.333497 0.269717 0.826671
O O9 0.295751 0.092478 0.846269
O O10 0.000000 0.702814 0.904529
O O11 0.195347 0.661698 0.958757
O O12 0.500000 0.258930 0.236203
O O13 0.750000 0.250000 0.250000
O O14 0.500000 0.000000 0.821143
O O15 0.500000 0.088231 0.500000
O O16 0.721134 0.000000 0.500000
#
# Coordination Sequence:
#
# PCOD8288145 Si02
#       7
#     8   8  16  16  16   8   8
#     4  10  19  28  49  82 112 143 180 215 252 311
#     4  12  20  34  51  80 111 142 182 226 277 309
#     4  10  21  38  55  75 104 144 185 227 272 319
#     4  10  19  34  55  84 112 142 176 214 263 322
#     4  11  23  36  52  75 105 141 183 226 272 317
#     4  10  21  37  55  74 102 146 192 229 269 316
#     4   9  16  30  57  86 117 144 170 207 261 332
#
# _framework density 17.482952000000001
#
# number of rings (size 3 to 8) (size 9 to 14) (size 15 to 20)
#    0.000    1.700    5.000    0.600    0.000    1.600 
#    0.000    1.500    0.000    1.200    0.000    4.200 
#    0.000    0.000    0.000    0.000    0.000    0.000 
#
# Total GULP energy -495805.022992 kJ/mol
# GULP energy per Si atom -12395.125575 kJ/mol
# Density = 1.744316 g / cm^3
# Si number density = 17.482952 Si / 1000 Ang^3
#
#
#
# Elastic Constant Matrix: (Units=GPa)
#
#
# Indices 1 2 3 4 5 6 
#
# 1 61.5773 35.1141 47.4044 0.0000 0.0000 0.0000
# 2 35.1141 118.1022 61.9114 0.0000 0.0000 0.0000
# 3 47.4044 61.9114 121.2976 0.0000 0.0000 0.0000
# 4 0.0000 0.0000 0.0000 -9.4789 0.0000 0.0000
# 5 0.0000 0.0000 0.0000 0.0000 24.1490 0.0000
# 6 0.0000 0.0000 0.0000 0.0000 0.0000 27.2454
#
#
#
# Elastic Compliance Matrix: (Units=1/GPa)
#
#
# Indices 1 2 3 4 5 6 
#
# 1 0.023996 -0.003029 -0.007832 0.000000 0.000000 0.000000
# 2 -0.003029 0.011943 -0.004912 0.000000 0.000000 0.000000
# 3 -0.007832 -0.004912 0.013812 0.000000 0.000000 0.000000
# 4 0.000000 0.000000 0.000000 -0.105498 0.000000 0.000000
# 5 0.000000 0.000000 0.000000 0.000000 0.041410 0.000000
# 6 0.000000 0.000000 0.000000 0.000000 0.000000 0.036703
#
#
# Mechanical properties :
#
#
# Convention : Reuss Voigt Hill
#
# Bulk Modulus (GPa) = 54.92869 65.53745 60.23307
# Shear Modulus (GPa) = 83.36019 18.81959 51.08989
#
# Velocity S-wave (km/s) = 6.91262 3.28450 5.41167
# Velocity P-wave (km/s) = 9.75700 7.20776 8.57761
#
# Compressibility (1/GPa) = 0.01820542
#
# Stress axis : x y z
#
# Youngs Moduli (GPa) = 41.67306 83.73290 72.40007
#
# Poissons Ratio (x) = 0.25362 0.56704
# Poissons Ratio (y) = 0.12622 0.35563
# Poissons Ratio (z) = 0.32639 0.41129
#
# Static dielectric constant tensor:
#      x y z
#    x 3.077820 0.000000 0.000000 
#    y 0.000000 3.628900 0.000000 
#    z 0.000000 0.000000 3.256660 
# 
# 
# High freq. dielectric constant tensor:
#      x y z
#    x 1.658620 0.000000 0.000000 
#    y 0.000000 1.679280 0.000000 
#    z 0.000000 0.000000 1.661540 
# 
# From -- ./inp_files/64403.got.cif
#   From: 2010.06.25/outbox.cif.g09.slc.cpg/sg71_33_cif.got.tgz:64403.got - 2010.06.28 04:59:45.
