data_PCOD8288165
_publ_section_title
;
Structure prediction by ZEFSAII (Michael W. Deem and Ramdas Pophale) SiO2 
 PCOD8288165
Probable space group: I M M M
;
_chemical_formula_sum "Si O2"
_cell_formula_units_Z 104
_cell_length_a 9.414068
_cell_length_b 32.675459
_cell_length_c 24.457319
_cell_angle_alpha 90.000000
_cell_angle_beta 90.000000
_cell_angle_gamma 90.000000
_cell_volume 7523.291268
_symmetry_space_group_name_H-M "I M M M"
_symmetry_group_IT_number 71
_symmetry_cell_setting 'orthorhombic'
loop_
_space_group_symop_operation_xyz
x,y,z
-x,-y,z
x,-y,-z
-x,y,-z
-x,-y,-z
x,y,-z
-x,y,z
x,-y,z
1/2+x,1/2+y,1/2+z
1/2-x,1/2-y,1/2+z
1/2+x,1/2-y,1/2-z
1/2-x,1/2+y,1/2-z
1/2-x,1/2-y,1/2-z
1/2+x,1/2+y,1/2-z
1/2-x,1/2+y,1/2+z
1/2+x,1/2-y,1/2+z
loop_
_atom_site_type_symbol
_atom_site_label
_atom_site_fract_x
_atom_site_fract_y
_atom_site_fract_z
Si Si1 0.335276 0.453409 0.894790
Si Si2 0.835180 0.246251 0.059619
Si Si3 0.159716 0.826671 0.440077
Si Si4 0.659873 0.951534 0.500000
Si Si5 0.663925 0.726333 0.676461
Si Si6 0.838161 0.123646 0.334350
Si Si7 0.165833 0.312194 0.230494
O O1 0.500000 0.449475 0.912345
O O2 0.297154 0.500000 0.878336
O O3 0.241976 0.437363 0.945544
O O4 0.306358 0.424968 0.840959
O O5 0.760646 0.288799 0.069782
O O6 0.800942 0.217703 0.112186
O O7 0.000000 0.256550 0.060051
O O8 0.791484 0.226834 0.000000
O O9 0.187100 0.846229 0.500000
O O10 0.190149 0.860751 0.395538
O O11 0.000000 0.809685 0.435185
O O12 0.500000 0.933089 0.500000
O O13 0.654330 0.000000 0.500000
O O14 0.500000 0.716606 0.690455
O O15 0.764156 0.696467 0.710690
O O16 0.697152 0.773947 0.690461
O O17 0.733258 0.146054 0.292584
O O18 0.000000 0.131913 0.315116
O O19 0.000000 0.319693 0.239113
#
# Coordination Sequence:
#
# PCOD8288165 Si02
#       7
#    16  16  16   8  16  16  16
#     4   9  18  31  45  58  74 100 131 162 200 249
#     4   9  16  27  42  58  77 100 127 159 194 233
#     4   9  17  26  36  52  74  98 124 158 199 239
#     4   9  17  29  43  59  77  97 125 163 207 249
#     4   9  17  29  42  57  79 104 129 158 194 232
#     4  10  19  29  43  58  76  98 128 167 204 241
#     4  10  19  29  42  59  77 101 132 163 196 234
#
# _framework density 13.823736999999999
#
# number of rings (size 3 to 8) (size 9 to 14) (size 15 to 20)
#    0.000    2.692    1.538    0.692    1.077    2.769 
#    0.000    0.000    0.000    0.000    0.000    0.000 
#    0.000    0.000    0.000    0.000    0.000    0.769 
#
# Total GULP energy -644393.684148 kJ/mol
# GULP energy per Si atom -12392.186234 kJ/mol
# Density = 1.379227 g / cm^3
# Si number density = 13.823737 Si / 1000 Ang^3
#
#
#
# Elastic Constant Matrix: (Units=GPa)
#
#
# Indices 1 2 3 4 5 6 
#
# 1 60.8782 33.8649 42.7769 0.0000 0.0000 0.0000
# 2 33.8649 56.3310 36.9346 0.0000 0.0000 0.0000
# 3 42.7769 36.9346 85.4633 -0.0001 0.0000 0.0000
# 4 0.0000 0.0000 -0.0001 19.6457 0.0000 0.0000
# 5 0.0000 0.0000 0.0000 0.0000 18.7781 0.0000
# 6 0.0000 0.0000 0.0000 0.0000 0.0000 15.3860
#
#
#
# Elastic Compliance Matrix: (Units=1/GPa)
#
#
# Indices 1 2 3 4 5 6 
#
# 1 0.029754 -0.011334 -0.009994 0.000000 0.000000 0.000000
# 2 -0.011334 0.029089 -0.006898 0.000000 0.000000 0.000000
# 3 -0.009994 -0.006898 0.019685 0.000000 0.000000 0.000000
# 4 0.000000 0.000000 0.000000 0.050902 0.000000 0.000000
# 5 0.000000 0.000000 0.000000 0.000000 0.053254 0.000000
# 6 0.000000 0.000000 0.000000 0.000000 0.000000 0.064994
#
#
# Mechanical properties :
#
#
# Convention : Reuss Voigt Hill
#
# Bulk Modulus (GPa) = 45.30269 47.75837 46.53053
# Shear Modulus (GPa) = 16.05192 16.70168 16.37680
#
# Velocity S-wave (km/s) = 3.41131 3.47967 3.44566
# Velocity P-wave (km/s) = 6.95406 7.12511 7.04010
#
# Compressibility (1/GPa) = 0.02207374
#
# Stress axis : x y z
#
# Youngs Moduli (GPa) = 33.60901 34.37711 50.80111
#
# Poissons Ratio (x) = 0.38964 0.50772
# Poissons Ratio (y) = 0.38094 0.35044
# Poissons Ratio (z) = 0.33590 0.23714
#
# Static dielectric constant tensor:
#      x y z
#    x 2.839650 0.000000 0.000000 
#    y 0.000000 2.532190 0.000000 
#    z 0.000000 0.000000 2.812510 
# 
# 
# High freq. dielectric constant tensor:
#      x y z
#    x 1.536230 0.000000 0.000000 
#    y 0.000000 1.483680 0.000000 
#    z 0.000000 0.000000 1.510170 
# 
# From -- ./inp_files/15804.got.cif
#   From: 2010.06.25/outbox.cif.g09.slc.cpg/sg71_8_cif.got.tgz:15804.got - 2010.06.28 04:59:45.
