data_PCOD8288585
_publ_section_title
;
Structure prediction by ZEFSAII (Michael W. Deem and Ramdas Pophale) SiO2 
 PCOD8288585
Probable space group: I M M M
;
_chemical_formula_sum "Si O2"
_cell_formula_units_Z 104
_cell_length_a 17.666298
_cell_length_b 19.093099
_cell_length_c 16.912972
_cell_angle_alpha 90.000000
_cell_angle_beta 90.000000
_cell_angle_gamma 90.000000
_cell_volume 5704.819478
_symmetry_space_group_name_H-M "I M M M"
_symmetry_group_IT_number 71
_symmetry_cell_setting 'orthorhombic'
loop_
_space_group_symop_operation_xyz
x,y,z
-x,-y,z
x,-y,-z
-x,y,-z
-x,-y,-z
x,y,-z
-x,y,z
x,-y,z
1/2+x,1/2+y,1/2+z
1/2-x,1/2-y,1/2+z
1/2+x,1/2-y,1/2-z
1/2-x,1/2+y,1/2-z
1/2-x,1/2-y,1/2-z
1/2+x,1/2+y,1/2-z
1/2-x,1/2+y,1/2+z
1/2+x,1/2-y,1/2+z
loop_
_atom_site_type_symbol
_atom_site_label
_atom_site_fract_x
_atom_site_fract_y
_atom_site_fract_z
Si Si1 0.317814 0.081511 0.591192
Si Si2 0.413494 0.146674 0.271406
Si Si3 0.300078 0.922454 0.833502
Si Si4 0.170052 0.138059 0.089830
Si Si5 0.084126 0.000000 0.906449
Si Si6 0.413312 0.693493 0.272328
Si Si7 0.681517 0.577803 0.192379
O O1 0.330528 0.103416 0.500000
O O2 0.370852 0.129588 0.646504
O O3 0.228623 0.093159 0.611889
O O4 0.339212 0.000000 0.605279
O O5 0.500000 0.124454 0.283756
O O6 0.380809 0.105156 0.195846
O O7 0.406443 0.227145 0.243419
O O8 0.260649 0.872796 0.899966
O O9 0.244868 0.921319 0.759204
O O10 0.310767 0.000000 0.869039
O O11 0.134650 0.196581 0.145943
O O12 0.129662 0.067402 0.122623
O O13 0.150112 0.156521 0.000000
O O14 0.000000 0.000000 0.869520
O O15 0.079917 0.000000 0.000000
O O16 0.500000 0.672406 0.289218
O O17 0.379768 0.638989 0.207788
O O18 0.642938 0.500000 0.188966
#
# Coordination Sequence:
#
# PCOD8288585 Si02
#       7
#    16  16  16  16   8  16  16
#     4   9  18  33  54  78 101 124 154 200 255 305
#     4  10  21  35  49  70 100 132 167 207 249 292
#     4   9  17  31  51  71  93 125 167 210 246 288
#     4  10  19  31  48  72 101 131 162 199 243 292
#     4   9  16  26  42  66  97 129 154 181 225 281
#     4  10  21  33  47  70 102 137 169 203 241 286
#     4   8  16  31  50  72  96 125 164 203 240 290
#
# _framework density 18.2302
#
# number of rings (size 3 to 8) (size 9 to 14) (size 15 to 20)
#    0.000    2.692    0.769    1.846    1.077    8.923 
#    0.000    2.308    0.000    0.923    0.000    5.385 
#    0.000    0.000    0.000    0.000    0.000    0.000 
#
# Total GULP energy -644444.694664 kJ/mol
# GULP energy per Si atom -12393.167205 kJ/mol
# Density = 1.818871 g / cm^3
# Si number density = 18.230200 Si / 1000 Ang^3
#
#
#
# Elastic Constant Matrix: (Units=GPa)
#
#
# Indices 1 2 3 4 5 6 
#
# 1 97.8993 45.9508 40.0455 0.0000 0.0000 0.0000
# 2 45.9508 66.5026 12.1095 0.0000 0.0000 0.0000
# 3 40.0455 12.1095 35.6894 0.0000 0.0000 0.0000
# 4 0.0000 0.0000 0.0000 18.4382 0.0000 0.0000
# 5 0.0000 0.0000 0.0000 0.0000 19.9257 0.0000
# 6 0.0000 0.0000 0.0000 0.0000 0.0000 30.1730
#
#
#
# Elastic Compliance Matrix: (Units=1/GPa)
#
#
# Indices 1 2 3 4 5 6 
#
# 1 0.027640 -0.014337 -0.026149 0.000000 0.000000 0.000000
# 2 -0.014337 0.023464 0.008125 0.000000 0.000000 0.000000
# 3 -0.026149 0.008125 0.054603 0.000000 0.000000 0.000000
# 4 0.000000 0.000000 0.000000 0.054235 0.000000 0.000000
# 5 0.000000 0.000000 0.000000 0.000000 0.050186 0.000000
# 6 0.000000 0.000000 0.000000 0.000000 0.000000 0.033142
#
#
# Mechanical properties :
#
#
# Convention : Reuss Voigt Hill
#
# Bulk Modulus (GPa) = 24.39862 44.03365 34.21613
# Shear Modulus (GPa) = 15.54467 20.50643 18.02555
#
# Velocity S-wave (km/s) = 2.92325 3.35753 3.14789
# Velocity P-wave (km/s) = 4.98062 6.26397 5.65879
#
# Compressibility (1/GPa) = 0.04098593
#
# Stress axis : x y z
#
# Youngs Moduli (GPa) = 36.17947 42.61933 18.31387
#
# Poissons Ratio (x) = 0.61102 0.47889
# Poissons Ratio (y) = 0.51869 -0.14881
# Poissons Ratio (z) = 0.94606 -0.34630
#
# Static dielectric constant tensor:
#      x y z
#    x 3.448810 0.000000 0.000000 
#    y 0.000000 3.363700 0.000000 
#    z 0.000000 0.000000 3.284370 
# 
# 
# High freq. dielectric constant tensor:
#      x y z
#    x 1.693220 0.000000 0.000000 
#    y 0.000000 1.703730 0.000000 
#    z 0.000000 0.000000 1.677080 
# 
# From -- ./inp_files/46151.got.cif
#   From: 2010.06.25/outbox.cif.g09.slc.cpg/sg71_24_cif.got.tgz:46151.got - 2010.06.28 04:59:45.
