data_PCOD8288687
_publ_section_title
;
Structure prediction by ZEFSAII (Michael W. Deem and Ramdas Pophale) SiO2 
 PCOD8288687
Probable space group: I M M M
;
_chemical_formula_sum "Si O2"
_cell_formula_units_Z 104
_cell_length_a 22.578597
_cell_length_b 26.301298
_cell_length_c 9.033222
_cell_angle_alpha 90.000000
_cell_angle_beta 90.000000
_cell_angle_gamma 90.000000
_cell_volume 5364.346438
_symmetry_space_group_name_H-M "I M M M"
_symmetry_group_IT_number 71
_symmetry_cell_setting 'orthorhombic'
loop_
_space_group_symop_operation_xyz
x,y,z
-x,-y,z
x,-y,-z
-x,y,-z
-x,-y,-z
x,y,-z
-x,y,z
x,-y,z
1/2+x,1/2+y,1/2+z
1/2-x,1/2-y,1/2+z
1/2+x,1/2-y,1/2-z
1/2-x,1/2+y,1/2-z
1/2-x,1/2-y,1/2-z
1/2+x,1/2+y,1/2-z
1/2-x,1/2+y,1/2+z
1/2+x,1/2-y,1/2+z
loop_
_atom_site_type_symbol
_atom_site_label
_atom_site_fract_x
_atom_site_fract_y
_atom_site_fract_z
Si Si1 0.203517 0.815704 0.327367
Si Si2 0.679358 0.202553 0.174493
Si Si3 0.619003 0.058760 0.672120
Si Si4 0.850251 0.080639 0.673393
Si Si5 0.435046 0.856070 0.170569
Si Si6 0.930250 0.000000 0.173411
Si Si7 0.767019 0.557857 0.662274
O O1 0.218454 0.815246 0.500000
O O2 0.265279 0.828807 0.243860
O O3 0.180305 0.761236 0.271516
O O4 0.153124 0.858497 0.293413
O O5 0.615882 0.181922 0.229097
O O6 0.685879 0.199001 0.000000
O O7 0.629169 0.067860 0.500000
O O8 0.564818 0.092103 0.733571
O O9 0.676299 0.082161 0.756861
O O10 0.605860 0.000000 0.706007
O O11 0.857352 0.069340 0.500000
O O12 0.788895 0.058396 0.730427
O O13 0.903600 0.051837 0.756794
O O14 0.500000 0.830628 0.190933
O O15 0.423693 0.870227 0.000000
O O16 0.000000 0.000000 0.204032
O O17 0.915122 0.000000 0.000000
O O18 0.755817 0.583624 0.500000
O O19 0.783970 0.500000 0.635791
#
# Coordination Sequence:
#
# PCOD8288687 Si02
#       7
#    16  16  16  16  16   8  16
#     4   9  19  34  55  85 114 139 173 223 281 334
#     4   9  18  35  56  80 111 144 179 221 273 330
#     4  10  21  35  51  74 106 141 179 223 270 316
#     4  11  21  34  56  84 113 144 181 226 277 334
#     4  10  21  36  54  75 101 139 183 223 266 320
#     4  11  25  43  59  77 109 153 196 237 282 339
#     4  10  19  31  50  77 109 142 176 215 262 314
#
# _framework density 19.387263999999998
#
# number of rings (size 3 to 8) (size 9 to 14) (size 15 to 20)
#    0.000    2.077    0.769    2.538    0.000    7.077 
#    0.000    2.308    0.000    2.769    0.000    0.000 
#    0.000    0.000    0.000    0.000    0.000    0.000 
#
# Total GULP energy -644575.525459 kJ/mol
# GULP energy per Si atom -12395.683182 kJ/mol
# Density = 1.934314 g / cm^3
# Si number density = 19.387264 Si / 1000 Ang^3
#
#
#
# Elastic Constant Matrix: (Units=GPa)
#
#
# Indices 1 2 3 4 5 6 
#
# 1 125.3698 57.5395 44.8434 0.0000 0.0000 0.0000
# 2 57.5395 89.6469 40.1594 0.0000 0.0000 0.0000
# 3 44.8434 40.1594 77.3734 0.0000 0.0000 0.0000
# 4 0.0000 0.0000 0.0000 25.0016 0.0000 0.0000
# 5 0.0000 0.0000 0.0000 0.0000 25.4220 0.0000
# 6 0.0000 0.0000 0.0000 0.0000 0.0000 26.5144
#
#
#
# Elastic Compliance Matrix: (Units=1/GPa)
#
#
# Indices 1 2 3 4 5 6 
#
# 1 0.012148 -0.006050 -0.003901 0.000000 0.000000 0.000000
# 2 -0.006050 0.017547 -0.005601 0.000000 0.000000 0.000000
# 3 -0.003901 -0.005601 0.018092 0.000000 0.000000 0.000000
# 4 0.000000 0.000000 0.000000 0.039997 0.000000 0.000000
# 5 0.000000 0.000000 0.000000 0.000000 0.039336 0.000000
# 6 0.000000 0.000000 0.000000 0.000000 0.000000 0.037715
#
#
# Mechanical properties :
#
#
# Convention : Reuss Voigt Hill
#
# Bulk Modulus (GPa) = 59.93727 64.16385 62.05056
# Shear Modulus (GPa) = 24.81369 25.37745 25.09557
#
# Velocity S-wave (km/s) = 3.58145 3.62190 3.60173
# Velocity P-wave (km/s) = 6.93435 7.11749 7.02652
#
# Compressibility (1/GPa) = 0.01668411
#
# Stress axis : x y z
#
# Youngs Moduli (GPa) = 82.31598 56.98910 55.27218
#
# Poissons Ratio (x) = 0.34478 0.21560
# Poissons Ratio (y) = 0.49801 0.30959
# Poissons Ratio (z) = 0.32109 0.31921
#
# Static dielectric constant tensor:
#      x y z
#    x 3.424850 0.000000 0.000000 
#    y 0.000000 3.823370 0.000000 
#    z 0.000000 0.000000 3.612580 
# 
# 
# High freq. dielectric constant tensor:
#      x y z
#    x 1.733220 0.000000 0.000000 
#    y 0.000000 1.758650 0.000000 
#    z 0.000000 0.000000 1.758450 
# 
# From -- ./inp_files/11161.got.cif
#   From: 2010.06.25/outbox.cif.g09.slc.cpg/sg71_6_cif.got.tgz:11161.got - 2010.06.28 04:59:45.
