data_PCOD8288430
_publ_section_title
;
Structure prediction by ZEFSAII (Michael W. Deem and Ramdas Pophale) SiO2 
 PCOD8288430
Probable space group: I M M M
;
_chemical_formula_sum "Si O2"
_cell_formula_units_Z 64
_cell_length_a 7.815646
_cell_length_b 9.323035
_cell_length_c 48.146848
_cell_angle_alpha 90.000000
_cell_angle_beta 90.000000
_cell_angle_gamma 90.000000
_cell_volume 3508.246137
_symmetry_space_group_name_H-M "I M M M"
_symmetry_group_IT_number 71
_symmetry_cell_setting 'orthorhombic'
loop_
_space_group_symop_operation_xyz
x,y,z
-x,-y,z
x,-y,-z
-x,y,-z
-x,-y,-z
x,y,-z
-x,y,z
x,-y,z
1/2+x,1/2+y,1/2+z
1/2-x,1/2-y,1/2+z
1/2+x,1/2-y,1/2-z
1/2-x,1/2+y,1/2-z
1/2-x,1/2-y,1/2-z
1/2+x,1/2+y,1/2-z
1/2-x,1/2+y,1/2+z
1/2+x,1/2-y,1/2+z
loop_
_atom_site_type_symbol
_atom_site_label
_atom_site_fract_x
_atom_site_fract_y
_atom_site_fract_z
Si Si1 0.689445 0.830416 0.164552
Si Si2 0.299723 0.339013 0.723349
Si Si3 0.000000 0.671361 0.068794
Si Si4 0.190047 0.829881 0.531032
Si Si5 0.500000 0.671298 0.373107
O O1 0.500000 0.786108 0.153890
O O2 0.715961 0.769227 0.195716
O O3 0.832004 0.772928 0.143290
O O4 0.711300 0.000000 0.166595
O O5 0.500000 0.338695 0.718363
O O6 0.231030 0.500000 0.728082
O O7 0.250000 0.250000 0.750000
O O8 0.832633 0.726883 0.052276
O O9 0.000000 0.749829 0.097854
O O10 0.000000 0.500000 0.072798
O O11 0.228280 0.770784 0.500000
O O12 0.000000 0.779495 0.540669
O O13 0.198020 0.000000 0.530117
O O14 0.500000 0.500000 0.377287
#
# Coordination Sequence:
#
# PCOD8288430 Si02
#       5
#    16  16   8  16   8
#     4   9  17  32  53  71  91 124 164 202 238 281
#     4  10  19  32  51  76 102 125 156 200 247 299
#     4  10  19  30  48  74 100 126 160 204 250 284
#     4   8  14  26  46  72 100 129 162 199 239 288
#     4  10  20  35  51  69  94 130 172 204 232 288
#
# _framework density 18.242735
#
# number of rings (size 3 to 8) (size 9 to 14) (size 15 to 20)
#    0.000    2.750    1.250    1.875    0.000    4.000 
#    0.000    1.250    0.000    3.000    0.000    1.750 
#    0.000    0.000    0.000    0.000    0.000    0.000 
#
# Total GULP energy -396632.139710 kJ/mol
# GULP energy per Si atom -12394.754366 kJ/mol
# Density = 1.820121 g / cm^3
# Si number density = 18.242735 Si / 1000 Ang^3
#
#
#
# Elastic Constant Matrix: (Units=GPa)
#
#
# Indices 1 2 3 4 5 6 
#
# 1 162.2378 23.2042 97.8542 0.0000 0.0000 0.0000
# 2 23.2042 26.0839 32.7956 0.0000 0.0000 0.0000
# 3 97.8542 32.7956 165.9687 0.0000 0.0000 0.0000
# 4 0.0000 0.0000 0.0000 29.6402 0.0000 0.0000
# 5 0.0000 0.0000 0.0000 0.0000 27.8348 0.0000
# 6 0.0000 0.0000 0.0000 0.0000 0.0000 12.1692
#
#
#
# Elastic Compliance Matrix: (Units=1/GPa)
#
#
# Indices 1 2 3 4 5 6 
#
# 1 0.009636 -0.001901 -0.005305 0.000000 0.000000 0.000000
# 2 -0.001901 0.051387 -0.009033 0.000000 0.000000 0.000000
# 3 -0.005305 -0.009033 0.010938 0.000000 0.000000 0.000000
# 4 0.000000 0.000000 0.000000 0.033738 0.000000 0.000000
# 5 0.000000 0.000000 0.000000 0.000000 0.035926 0.000000
# 6 0.000000 0.000000 0.000000 0.000000 0.000000 0.082174
#
#
# Mechanical properties :
#
#
# Convention : Reuss Voigt Hill
#
# Bulk Modulus (GPa) = 25.32872 73.55538 49.44205
# Shear Modulus (GPa) = 18.55708 27.29128 22.92418
#
# Velocity S-wave (km/s) = 3.19287 3.87202 3.54873
# Velocity P-wave (km/s) = 5.24471 7.77161 6.62967
#
# Compressibility (1/GPa) = 0.03948087
#
# Stress axis : x y z
#
# Youngs Moduli (GPa) = 103.78026 19.46036 91.42239
#
# Poissons Ratio (x) = 0.03700 0.48504
# Poissons Ratio (y) = 0.19732 0.82582
# Poissons Ratio (z) = 0.55060 0.17579
#
# Static dielectric constant tensor:
#      x y z
#    x 3.780830 0.000000 0.000000 
#    y 0.000000 2.767450 0.000000 
#    z 0.000000 0.000000 3.286460 
# 
# 
# High freq. dielectric constant tensor:
#      x y z
#    x 1.728820 0.000000 0.000000 
#    y 0.000000 1.641070 0.000000 
#    z 0.000000 0.000000 1.709640 
# 
# From -- ./inp_files/67722.got.cif
#   From: 2010.06.25/outbox.cif.g09.slc.cpg/sg71_34_cif.got.tgz:67722.got - 2010.06.28 04:59:45.
