data_PCOD8288063
_publ_section_title
;
Structure prediction by ZEFSAII (Michael W. Deem and Ramdas Pophale) SiO2 
 PCOD8288063
Probable space group: I M M M
;
_chemical_formula_sum "Si O2"
_cell_formula_units_Z 104
_cell_length_a 21.725059
_cell_length_b 17.662675
_cell_length_c 14.640661
_cell_angle_alpha 90.000000
_cell_angle_beta 90.000000
_cell_angle_gamma 90.000000
_cell_volume 5617.953331
_symmetry_space_group_name_H-M "I M M M"
_symmetry_group_IT_number 71
_symmetry_cell_setting 'orthorhombic'
loop_
_space_group_symop_operation_xyz
x,y,z
-x,-y,z
x,-y,-z
-x,y,-z
-x,-y,-z
x,y,-z
-x,y,z
x,-y,z
1/2+x,1/2+y,1/2+z
1/2-x,1/2-y,1/2+z
1/2+x,1/2-y,1/2-z
1/2-x,1/2+y,1/2-z
1/2-x,1/2-y,1/2-z
1/2+x,1/2+y,1/2-z
1/2-x,1/2+y,1/2+z
1/2+x,1/2-y,1/2+z
loop_
_atom_site_type_symbol
_atom_site_label
_atom_site_fract_x
_atom_site_fract_y
_atom_site_fract_z
Si Si1 0.226958 0.696802 0.830479
Si Si2 0.279861 0.911233 0.818732
Si Si3 0.928349 0.087726 0.239008
Si Si4 0.340112 0.336678 0.394062
Si Si5 0.000000 0.584078 0.609754
Si Si6 0.857316 0.836817 0.395236
Si Si7 0.613427 0.173527 0.103705
O O1 0.250000 0.750000 0.750000
O O2 0.199172 0.622555 0.780266
O O3 0.177243 0.746808 0.886722
O O4 0.282971 0.666405 0.892701
O O5 0.210582 0.889775 0.845603
O O6 0.323842 0.874279 0.894399
O O7 0.288632 0.000000 0.816391
O O8 0.903289 0.142131 0.157965
O O9 0.888763 0.099974 0.331930
O O10 0.000000 0.107696 0.256229
O O11 0.920854 0.000000 0.210847
O O12 0.347085 0.357876 0.500000
O O13 0.059045 0.626740 0.651359
O O14 0.000000 0.500000 0.650028
O O15 0.000000 0.581516 0.500000
O O16 0.877061 0.851589 0.500000
O O17 0.880231 0.756628 0.352748
O O18 0.595441 0.187892 0.000000
#
# Coordination Sequence:
#
# PCOD8288063 Si02
#       7
#    16  16  16  16   8  16  16
#     4  10  18  35  56  81 112 142 179 231 285 337
#     4  11  20  31  53  81 111 144 180 224 280 342
#     4  11  25  42  57  80 116 153 195 246 291 338
#     4  11  21  37  61  84 110 147 190 238 292 342
#     4   9  18  30  42  64 105 141 164 207 265 317
#     4  11  21  37  59  81 107 147 192 230 278 336
#     4  10  19  31  48  75 106 140 181 221 265 331
#
# _framework density 18.512080000000001
#
# number of rings (size 3 to 8) (size 9 to 14) (size 15 to 20)
#    0.000    1.462    6.154    1.846    1.077    3.692 
#    0.000    1.538    0.000    1.385    0.000    0.000 
#    0.000    0.000    0.000    3.385    0.000    0.000 
#
# Total GULP energy -644494.812614 kJ/mol
# GULP energy per Si atom -12394.131012 kJ/mol
# Density = 1.846995 g / cm^3
# Si number density = 18.512080 Si / 1000 Ang^3
#
#
#
# Elastic Constant Matrix: (Units=GPa)
#
#
# Indices 1 2 3 4 5 6 
#
# 1 82.3590 17.8408 21.6739 0.0000 0.0000 0.0000
# 2 17.8408 65.3243 27.6991 0.0000 0.0000 0.0000
# 3 21.6739 27.6991 80.2445 0.0000 0.0000 0.0000
# 4 0.0000 0.0000 0.0000 18.3937 0.0000 0.0000
# 5 0.0000 0.0000 0.0000 0.0000 19.3324 0.0000
# 6 0.0000 0.0000 0.0000 0.0000 0.0000 28.2676
#
#
#
# Elastic Compliance Matrix: (Units=1/GPa)
#
#
# Indices 1 2 3 4 5 6 
#
# 1 0.013408 -0.002491 -0.002762 0.000000 0.000000 0.000000
# 2 -0.002491 0.018396 -0.005677 0.000000 0.000000 0.000000
# 3 -0.002762 -0.005677 0.015167 0.000000 0.000000 0.000000
# 4 0.000000 0.000000 0.000000 0.054367 0.000000 0.000000
# 5 0.000000 0.000000 0.000000 0.000000 0.051727 0.000000
# 6 0.000000 0.000000 0.000000 0.000000 0.000000 0.035376
#
#
# Mechanical properties :
#
#
# Convention : Reuss Voigt Hill
#
# Bulk Modulus (GPa) = 39.82155 40.26172 40.04164
# Shear Modulus (GPa) = 22.86536 23.91299 23.38917
#
# Velocity S-wave (km/s) = 3.51830 3.59799 3.55837
# Velocity P-wave (km/s) = 6.16947 6.24955 6.20964
#
# Compressibility (1/GPa) = 0.02511203
#
# Stress axis : x y z
#
# Youngs Moduli (GPa) = 74.58041 54.36034 65.93045
#
# Poissons Ratio (x) = 0.13541 0.18208
# Poissons Ratio (y) = 0.18577 0.37429
# Poissons Ratio (z) = 0.20597 0.30861
#
# Static dielectric constant tensor:
#      x y z
#    x 3.451150 0.000000 0.000000 
#    y 0.000000 3.696000 0.000000 
#    z 0.000000 0.000000 3.399300 
# 
# 
# High freq. dielectric constant tensor:
#      x y z
#    x 1.705300 0.000000 0.000000 
#    y 0.000000 1.716620 0.000000 
#    z 0.000000 0.000000 1.692090 
# 
# From -- ./inp_files/38109.got.cif
#   From: 2010.06.25/outbox.cif.g09.slc.cpg/sg71_20_cif.got.tgz:38109.got - 2010.06.28 04:59:45.
