data_PCOD8288925
_publ_section_title
;
Structure prediction by ZEFSAII (Michael W. Deem and Ramdas Pophale) SiO2 
 PCOD8288925
Probable space group: I M M M
;
_chemical_formula_sum "Si O2"
_cell_formula_units_Z 104
_cell_length_a 21.752864
_cell_length_b 27.158921
_cell_length_c 9.573213
_cell_angle_alpha 90.000000
_cell_angle_beta 90.000000
_cell_angle_gamma 90.000000
_cell_volume 5655.704084
_symmetry_space_group_name_H-M "I M M M"
_symmetry_group_IT_number 71
_symmetry_cell_setting 'orthorhombic'
loop_
_space_group_symop_operation_xyz
x,y,z
-x,-y,z
x,-y,-z
-x,y,-z
-x,-y,-z
x,y,-z
-x,y,z
x,-y,z
1/2+x,1/2+y,1/2+z
1/2-x,1/2-y,1/2+z
1/2+x,1/2-y,1/2-z
1/2-x,1/2+y,1/2-z
1/2-x,1/2-y,1/2-z
1/2+x,1/2+y,1/2-z
1/2-x,1/2+y,1/2+z
1/2+x,1/2-y,1/2+z
loop_
_atom_site_type_symbol
_atom_site_label
_atom_site_fract_x
_atom_site_fract_y
_atom_site_fract_z
Si Si1 0.569045 0.229567 0.334423
Si Si2 0.725975 0.611609 0.664464
Si Si3 0.000000 0.941160 0.655448
Si Si4 0.802997 0.778150 0.166625
Si Si5 0.428558 0.880866 0.345193
Si Si6 0.391927 0.558083 0.655959
Si Si7 0.344683 0.943106 0.164757
O O1 0.565183 0.229949 0.500000
O O2 0.500000 0.246184 0.278563
O O3 0.627203 0.263162 0.285410
O O4 0.583829 0.173966 0.283805
O O5 0.732016 0.609418 0.500000
O O6 0.707980 0.665879 0.713833
O O7 0.673455 0.574362 0.715378
O O8 0.789452 0.590733 0.725962
O O9 0.058347 0.920229 0.737988
O O10 0.000000 0.919150 0.500000
O O11 0.000000 0.000000 0.651490
O O12 0.750000 0.750000 0.250000
O O13 0.794876 0.770139 0.000000
O O14 0.398728 0.886021 0.500000
O O15 0.500000 0.890351 0.357400
O O16 0.404392 0.922731 0.241607
O O17 0.403929 0.579684 0.500000
O O18 0.395448 0.500000 0.649917
O O19 0.332961 0.000000 0.203405
O O20 0.353816 0.936975 0.000000
#
# Coordination Sequence:
#
# PCOD8288925 Si02
#       7
#    16  16   8  16  16  16  16
#     4   8  15  30  51  74  99 128 163 202 247 295
#     4   9  18  32  49  73  98 124 163 205 244 285
#     4   9  17  29  45  67  95 125 157 195 239 283
#     4  10  19  32  52  76 100 127 162 205 249 295
#     4   9  18  33  52  72  96 127 162 200 242 292
#     4   9  16  29  49  69  92 125 164 201 237 282
#     4  10  20  33  49  70 100 134 163 198 245 293
#
# _framework density 18.388514000000001
#
# number of rings (size 3 to 8) (size 9 to 14) (size 15 to 20)
#    0.000    2.846    0.000    2.538    0.000    3.692 
#    1.385    3.077    0.000    3.231    0.000    0.000 
#    0.000    0.000    0.000    0.000    0.000    0.000 
#
# Total GULP energy -644345.974195 kJ/mol
# GULP energy per Si atom -12391.268735 kJ/mol
# Density = 1.834666 g / cm^3
# Si number density = 18.388514 Si / 1000 Ang^3
#
#
#
# Elastic Constant Matrix: (Units=GPa)
#
#
# Indices 1 2 3 4 5 6 
#
# 1 103.7677 50.0315 33.8660 0.0000 0.0000 0.0000
# 2 50.0315 84.2186 28.8605 0.0000 0.0000 0.0000
# 3 33.8660 28.8605 49.1708 0.0000 0.0000 0.0000
# 4 0.0000 0.0000 0.0000 19.4247 0.0000 0.0000
# 5 0.0000 0.0000 0.0000 0.0000 18.9127 0.0000
# 6 0.0000 0.0000 0.0000 0.0000 0.0000 33.3004
#
#
#
# Elastic Compliance Matrix: (Units=1/GPa)
#
#
# Indices 1 2 3 4 5 6 
#
# 1 0.014941 -0.006697 -0.006360 0.000000 0.000000 0.000000
# 2 -0.006697 0.017865 -0.005873 0.000000 0.000000 0.000000
# 3 -0.006360 -0.005873 0.028165 0.000000 0.000000 0.000000
# 4 0.000000 0.000000 0.000000 0.051481 0.000000 0.000000
# 5 0.000000 0.000000 0.000000 0.000000 0.052874 0.000000
# 6 0.000000 0.000000 0.000000 0.000000 0.000000 0.030030
#
#
# Mechanical properties :
#
#
# Convention : Reuss Voigt Hill
#
# Bulk Modulus (GPa) = 43.26960 51.40809 47.33885
# Shear Modulus (GPa) = 20.75370 22.62082 21.68726
#
# Velocity S-wave (km/s) = 3.36314 3.51117 3.43795
# Velocity P-wave (km/s) = 6.21794 6.66746 6.44662
#
# Compressibility (1/GPa) = 0.02311091
#
# Stress axis : x y z
#
# Youngs Moduli (GPa) = 66.92792 55.97583 35.50482
#
# Poissons Ratio (x) = 0.37485 0.22582
# Poissons Ratio (y) = 0.44819 0.20853
# Poissons Ratio (z) = 0.42568 0.32877
#
# Static dielectric constant tensor:
#      x y z
#    x 3.686650 0.000000 0.000000 
#    y 0.000000 3.480550 0.000000 
#    z 0.000000 0.000000 3.159480 
# 
# 
# High freq. dielectric constant tensor:
#      x y z
#    x 1.725910 0.000000 0.000000 
#    y 0.000000 1.702550 0.000000 
#    z 0.000000 0.000000 1.675250 
# 
# From -- ./inp_files/11497.got.cif
#   From: 2010.06.25/outbox.cif.g09.slc.cpg/sg71_6_cif.got.tgz:11497.got - 2010.06.28 04:59:45.
