data_PCOD8288088
_publ_section_title
;
Structure prediction by ZEFSAII (Michael W. Deem and Ramdas Pophale) SiO2 
 PCOD8288088
Probable space group: I M M M
;
_chemical_formula_sum "Si O2"
_cell_formula_units_Z 112
_cell_length_a 16.426963
_cell_length_b 14.733693
_cell_length_c 31.254636
_cell_angle_alpha 90.000000
_cell_angle_beta 90.000000
_cell_angle_gamma 90.000000
_cell_volume 7564.554230
_symmetry_space_group_name_H-M "I M M M"
_symmetry_group_IT_number 71
_symmetry_cell_setting 'orthorhombic'
loop_
_space_group_symop_operation_xyz
x,y,z
-x,-y,z
x,-y,-z
-x,y,-z
-x,-y,-z
x,y,-z
-x,y,z
x,-y,z
1/2+x,1/2+y,1/2+z
1/2-x,1/2-y,1/2+z
1/2+x,1/2-y,1/2-z
1/2-x,1/2+y,1/2-z
1/2-x,1/2-y,1/2-z
1/2+x,1/2+y,1/2-z
1/2-x,1/2+y,1/2+z
1/2+x,1/2-y,1/2+z
loop_
_atom_site_type_symbol
_atom_site_label
_atom_site_fract_x
_atom_site_fract_y
_atom_site_fract_z
Si Si1 0.403605 0.103364 0.121852
Si Si2 0.404576 0.226990 0.953081
Si Si3 0.595873 0.398002 0.264358
Si Si4 0.406706 0.397616 0.098059
Si Si5 0.178559 0.273940 0.218846
Si Si6 0.404483 0.100098 0.215827
Si Si7 0.199252 0.103867 0.321083
O O1 0.500000 0.115117 0.120665
O O2 0.364492 0.164066 0.083898
O O3 0.371314 0.134174 0.169141
O O4 0.377893 0.000000 0.113222
O O5 0.500000 0.207000 0.955482
O O6 0.388120 0.332181 0.941754
O O7 0.365817 0.207185 0.000000
O O8 0.500000 0.383236 0.258694
O O9 0.613829 0.500000 0.282132
O O10 0.633038 0.319697 0.296015
O O11 0.638531 0.383327 0.218773
O O12 0.500000 0.387258 0.113448
O O13 0.388248 0.500000 0.083073
O O14 0.350604 0.367447 0.137309
O O15 0.250000 0.250000 0.250000
O O16 0.115083 0.333947 0.245414
O O17 0.219517 0.332696 0.180793
O O18 0.500000 0.090987 0.211804
O O19 0.367089 0.000000 0.225283
O O20 0.228932 0.000000 0.323820
#
# Coordination Sequence:
#
# PCOD8288088 Si02
#       7
#    16  16  16  16  16  16  16
#     4   8  15  26  39  54  71  94 124 159 197 232
#     4   9  17  26  38  56  75  95 123 164 207 240
#     4   9  17  28  40  54  73  98 131 164 192 228
#     4   9  17  28  42  57  75 102 134 167 201 236
#     4  10  19  26  38  57  77 101 125 163 205 234
#     4   9  17  29  43  57  74  99 133 169 200 232
#     4   9  17  28  40  56  76  99 130 167 203 234
#
# _framework density 14.805896000000001
#
# number of rings (size 3 to 8) (size 9 to 14) (size 15 to 20)
#    0.000    3.000    0.000    2.143    4.000    2.857 
#    0.000    2.857    0.000    0.000    0.000    0.000 
#    0.000    0.000    0.000    0.000    0.000    2.857 
#
# Total GULP energy -693737.689530 kJ/mol
# GULP energy per Si atom -12388.173027 kJ/mol
# Density = 1.477220 g / cm^3
# Si number density = 14.805896 Si / 1000 Ang^3
#
#
#
# Elastic Constant Matrix: (Units=GPa)
#
#
# Indices 1 2 3 4 5 6 
#
# 1 34.8942 28.8508 15.0007 0.0000 0.0000 0.0000
# 2 28.8508 86.1385 26.6931 0.0000 0.0000 0.0000
# 3 15.0007 26.6931 47.7218 0.0000 0.0000 0.0000
# 4 0.0000 0.0000 0.0000 16.7087 0.0000 0.0000
# 5 0.0000 0.0000 0.0000 0.0000 10.3906 0.0000
# 6 0.0000 0.0000 0.0000 0.0000 0.0000 20.9338
#
#
#
# Elastic Compliance Matrix: (Units=1/GPa)
#
#
# Indices 1 2 3 4 5 6 
#
# 1 0.041152 -0.011824 -0.006322 0.000000 0.000000 0.000000
# 2 -0.011824 0.017441 -0.006039 0.000000 0.000000 0.000000
# 3 -0.006322 -0.006039 0.026320 0.000000 0.000000 0.000000
# 4 0.000000 0.000000 0.000000 0.059849 0.000000 0.000000
# 5 0.000000 0.000000 0.000000 0.000000 0.096241 0.000000
# 6 0.000000 0.000000 0.000000 0.000000 0.000000 0.047770
#
#
# Mechanical properties :
#
#
# Convention : Reuss Voigt Hill
#
# Bulk Modulus (GPa) = 27.36486 34.42708 30.89597
# Shear Modulus (GPa) = 14.31339 16.15393 15.23366
#
# Velocity S-wave (km/s) = 3.11261 3.30668 3.21111
# Velocity P-wave (km/s) = 5.60717 6.15481 5.88736
#
# Compressibility (1/GPa) = 0.03654322
#
# Stress axis : x y z
#
# Youngs Moduli (GPa) = 24.30010 57.33650 37.99438
#
# Poissons Ratio (x) = 0.67796 0.24019
# Poissons Ratio (y) = 0.28733 0.22944
# Poissons Ratio (z) = 0.15362 0.34624
#
# Static dielectric constant tensor:
#      x y z
#    x 2.682940 0.000000 0.000000 
#    y 0.000000 3.361660 0.000000 
#    z 0.000000 0.000000 2.647710 
# 
# 
# High freq. dielectric constant tensor:
#      x y z
#    x 1.517520 0.000000 0.000000 
#    y 0.000000 1.591960 0.000000 
#    z 0.000000 0.000000 1.525250 
# 
# From -- ./inp_files/70061.got.cif
#   From: 2010.06.25/outbox.cif.g09.slc.cpg/sg71_36_cif.got.tgz:70061.got - 2010.06.28 04:59:45.
