data_PCOD8288456
_publ_section_title
;
Structure prediction by ZEFSAII (Michael W. Deem and Ramdas Pophale) SiO2 
 PCOD8288456
Probable space group: I M M M
;
_chemical_formula_sum "Si O2"
_cell_formula_units_Z 72
_cell_length_a 9.192876
_cell_length_b 22.625147
_cell_length_c 17.817119
_cell_angle_alpha 90.000000
_cell_angle_beta 90.000000
_cell_angle_gamma 90.000000
_cell_volume 3705.785625
_symmetry_space_group_name_H-M "I M M M"
_symmetry_group_IT_number 71
_symmetry_cell_setting 'orthorhombic'
loop_
_space_group_symop_operation_xyz
x,y,z
-x,-y,z
x,-y,-z
-x,y,-z
-x,-y,-z
x,y,-z
-x,y,z
x,-y,z
1/2+x,1/2+y,1/2+z
1/2-x,1/2-y,1/2+z
1/2+x,1/2-y,1/2-z
1/2-x,1/2+y,1/2-z
1/2-x,1/2-y,1/2-z
1/2+x,1/2+y,1/2-z
1/2-x,1/2+y,1/2+z
1/2+x,1/2-y,1/2+z
loop_
_atom_site_type_symbol
_atom_site_label
_atom_site_fract_x
_atom_site_fract_y
_atom_site_fract_z
Si Si1 0.172736 0.064952 0.082584
Si Si2 0.167214 0.378004 0.159096
Si Si3 0.167770 0.739826 0.918187
Si Si4 0.173219 0.500000 0.085661
Si Si5 0.827130 0.836965 0.805781
O O1 0.232692 0.110219 0.142859
O O2 0.000000 0.065627 0.082138
O O3 0.230351 0.000000 0.104616
O O4 0.230162 0.082661 0.000000
O O5 0.183870 0.330498 0.092469
O O6 0.228718 0.441301 0.129925
O O7 0.256578 0.348551 0.225960
O O8 0.000000 0.385044 0.184016
O O9 0.231960 0.777364 0.847603
O O10 0.000000 0.758582 0.922004
O O11 0.238409 0.755357 0.000000
O O12 0.000000 0.500000 0.082299
O O13 0.234023 0.500000 0.000000
O O14 0.000000 0.836182 0.794663
#
# Coordination Sequence:
#
# PCOD8288456 Si02
#       5
#    16  16  16   8  16
#     4   8  14  25  42  65  92 123 161 199 231 272
#     4  10  20  33  51  74 100 129 163 206 250 289
#     4   9  17  31  52  75  97 126 167 209 243 282
#     4   9  18  34  55  75  94 127 176 214 237 275
#     4  10  19  30  49  75 102 128 157 198 249 300
#
# _framework density 19.429078000000001
#
# number of rings (size 3 to 8) (size 9 to 14) (size 15 to 20)
#    0.000    2.778    0.000    2.667    1.556    5.333 
#    0.000    0.000    0.000    7.333    0.000    1.556 
#    0.000    0.000    0.000    0.000    0.000    0.000 
#
# Total GULP energy -446009.013498 kJ/mol
# GULP energy per Si atom -12389.139264 kJ/mol
# Density = 1.938486 g / cm^3
# Si number density = 19.429078 Si / 1000 Ang^3
#
#
#
# Elastic Constant Matrix: (Units=GPa)
#
#
# Indices 1 2 3 4 5 6 
#
# 1 21.6391 20.2438 24.9947 0.0000 0.0000 0.0000
# 2 20.2438 126.9744 62.7950 0.0000 0.0000 0.0000
# 3 24.9947 62.7950 124.1641 -0.0001 0.0000 0.0000
# 4 0.0000 0.0000 -0.0001 21.8876 0.0000 0.0000
# 5 0.0000 0.0000 0.0000 0.0000 18.5716 0.0000
# 6 0.0000 0.0000 0.0000 0.0000 0.0000 14.0820
#
#
#
# Elastic Compliance Matrix: (Units=1/GPa)
#
#
# Indices 1 2 3 4 5 6 
#
# 1 0.062498 -0.004990 -0.010057 0.000000 0.000000 0.000000
# 2 -0.004990 0.010901 -0.004508 0.000000 0.000000 0.000000
# 3 -0.010057 -0.004508 0.012359 0.000000 0.000000 0.000000
# 4 0.000000 0.000000 0.000000 0.045688 0.000000 0.000000
# 5 0.000000 0.000000 0.000000 0.000000 0.053846 0.000000
# 6 0.000000 0.000000 0.000000 0.000000 0.000000 0.071013
#
#
# Mechanical properties :
#
#
# Convention : Reuss Voigt Hill
#
# Bulk Modulus (GPa) = 21.43833 54.31605 37.87719
# Shear Modulus (GPa) = 16.07899 21.89117 18.98508
#
# Velocity S-wave (km/s) = 2.87988 3.36031 3.12933
# Velocity P-wave (km/s) = 4.70280 6.56295 5.70915
#
# Compressibility (1/GPa) = 0.04664542
#
# Stress axis : x y z
#
# Youngs Moduli (GPa) = 16.00045 91.73578 80.91578
#
# Poissons Ratio (x) = 0.45780 0.81379
# Poissons Ratio (y) = 0.07985 0.36480
# Poissons Ratio (z) = 0.16092 0.41359
#
# Static dielectric constant tensor:
#      x y z
#    x 2.837270 0.000000 0.000000 
#    y 0.000000 3.962040 0.000000 
#    z 0.000000 0.000000 3.690330 
# 
# 
# High freq. dielectric constant tensor:
#      x y z
#    x 1.675420 0.000000 0.000000 
#    y 0.000000 1.778290 0.000000 
#    z 0.000000 0.000000 1.767640 
# 
# From -- ./inp_files/27026.got.cif
#   From: 2010.06.25/outbox.cif.g09.slc.cpg/sg71_14_cif.got.tgz:27026.got - 2010.06.28 04:59:45.
