data_PCOD8288079
_publ_section_title
;
Structure prediction by ZEFSAII (Michael W. Deem and Ramdas Pophale) SiO2 
 PCOD8288079
Probable space group: I M M M
;
_chemical_formula_sum "Si O2"
_cell_formula_units_Z 96
_cell_length_a 8.797882
_cell_length_b 22.873543
_cell_length_c 24.188339
_cell_angle_alpha 90.000000
_cell_angle_beta 90.000000
_cell_angle_gamma 90.000000
_cell_volume 4867.630675
_symmetry_space_group_name_H-M "I M M M"
_symmetry_group_IT_number 71
_symmetry_cell_setting 'orthorhombic'
loop_
_space_group_symop_operation_xyz
x,y,z
-x,-y,z
x,-y,-z
-x,y,-z
-x,-y,-z
x,y,-z
-x,y,z
x,-y,z
1/2+x,1/2+y,1/2+z
1/2-x,1/2-y,1/2+z
1/2+x,1/2-y,1/2-z
1/2-x,1/2+y,1/2-z
1/2-x,1/2-y,1/2-z
1/2+x,1/2+y,1/2-z
1/2-x,1/2+y,1/2+z
1/2+x,1/2-y,1/2+z
loop_
_atom_site_type_symbol
_atom_site_label
_atom_site_fract_x
_atom_site_fract_y
_atom_site_fract_z
Si Si1 0.175270 0.000000 0.106478
Si Si2 0.336238 0.802724 0.000000
Si Si3 0.823872 0.000000 0.763283
Si Si4 0.821483 0.805277 0.183945
Si Si5 0.822949 0.689821 0.878697
Si Si6 0.329141 0.114201 0.102158
Si Si7 0.672290 0.191773 0.500000
Si Si8 0.323387 0.121236 0.273707
O O1 0.204548 0.000000 0.171847
O O2 0.258857 0.054713 0.079196
O O3 0.000000 0.000000 0.090132
O O4 0.328322 0.841064 0.946590
O O5 0.189366 0.761665 0.000000
O O6 0.500000 0.768850 0.000000
O O7 0.753185 0.059115 0.738231
O O8 0.000000 0.000000 0.747861
O O9 0.754596 0.748424 0.151276
O O10 0.783444 0.863597 0.149751
O O11 0.742357 0.820591 0.242655
O O12 0.000000 0.798704 0.194293
O O13 0.797753 0.634377 0.838932
O O14 0.000000 0.703321 0.888741
O O15 0.751795 0.673876 0.940071
O O16 0.500000 0.105070 0.125631
O O17 0.500000 0.170040 0.500000
O O18 0.500000 0.116656 0.258965
#
# Coordination Sequence:
#
# PCOD8288079 Si02
#       8
#     8   8   8  16  16  16   8  16
#     4  11  23  38  56  77 106 142 192 240 276 326
#     4  10  22  37  53  80 112 145 188 233 273 321
#     4  11  23  39  58  81 109 145 185 229 277 332
#     4  11  20  34  55  84 116 148 184 226 272 326
#     4   9  20  35  57  87 116 146 185 225 270 326
#     4  11  22  36  55  78 109 147 188 233 278 323
#     4  10  18  36  61  82 111 150 182 221 270 325
#     4  11  22  37  57  85 115 147 184 226 276 332
#
# _framework density 19.72212
#
# number of rings (size 3 to 8) (size 9 to 14) (size 15 to 20)
#    0.000    1.500    3.333    2.500    0.000    1.667 
#    0.000    5.833    0.000    0.500    0.000    3.500 
#    0.000    0.000    0.000    0.000    0.000    0.000 
#
# Total GULP energy -594695.361948 kJ/mol
# GULP energy per Si atom -12389.486707 kJ/mol
# Density = 1.967723 g / cm^3
# Si number density = 19.722120 Si / 1000 Ang^3
#
#
#
# Elastic Constant Matrix: (Units=GPa)
#
#
# Indices 1 2 3 4 5 6 
#
# 1 75.7850 18.0628 26.8459 0.0000 0.0000 0.0000
# 2 18.0628 44.7712 8.7927 0.0000 0.0000 0.0000
# 3 26.8459 8.7927 105.8646 0.0000 0.0000 0.0000
# 4 0.0000 0.0000 0.0000 6.2747 0.0000 0.0000
# 5 0.0000 0.0000 0.0000 0.0000 21.2885 0.0000
# 6 0.0000 0.0000 0.0000 0.0000 0.0000 24.9749
#
#
#
# Elastic Compliance Matrix: (Units=1/GPa)
#
#
# Indices 1 2 3 4 5 6 
#
# 1 0.015802 -0.005681 -0.003535 0.000000 0.000000 0.000000
# 2 -0.005681 0.024748 -0.000615 0.000000 0.000000 0.000000
# 3 -0.003535 -0.000615 0.010394 0.000000 0.000000 0.000000
# 4 0.000000 0.000000 0.000000 0.159370 0.000000 0.000000
# 5 0.000000 0.000000 0.000000 0.000000 0.046974 0.000000
# 6 0.000000 0.000000 0.000000 0.000000 0.000000 0.040040
#
#
# Mechanical properties :
#
#
# Convention : Reuss Voigt Hill
#
# Bulk Modulus (GPa) = 31.96765 37.09152 34.52958
# Shear Modulus (GPa) = 15.27108 22.02225 18.64666
#
# Velocity S-wave (km/s) = 2.78567 3.34522 3.07818
# Velocity P-wave (km/s) = 5.15663 5.81107 5.49360
#
# Compressibility (1/GPa) = 0.03128163
#
# Stress axis : x y z
#
# Youngs Moduli (GPa) = 63.28512 40.40661 96.21313
#
# Poissons Ratio (x) = 0.22954 0.34014
# Poissons Ratio (y) = 0.35951 0.05917
# Poissons Ratio (z) = 0.22373 0.02485
#
# Static dielectric constant tensor:
#      x y z
#    x 3.651850 0.000000 0.000000 
#    y 0.000000 3.423860 0.000000 
#    z 0.000000 0.000000 3.572690 
# 
# 
# High freq. dielectric constant tensor:
#      x y z
#    x 1.756640 0.000000 0.000000 
#    y 0.000000 1.746720 0.000000 
#    z 0.000000 0.000000 1.776830 
# 
# From -- ./inp_files/57825.got.cif
#   From: 2010.06.25/outbox.cif.g09.slc.cpg/sg71_29_cif.got.tgz:57825.got - 2010.06.28 04:59:45.
