data_PCOD8288027
_publ_section_title
;
Structure prediction by ZEFSAII (Michael W. Deem and Ramdas Pophale) SiO2 
 PCOD8288027
Probable space group: I M M M
;
_chemical_formula_sum "Si O2"
_cell_formula_units_Z 96
_cell_length_a 27.494747
_cell_length_b 15.273201
_cell_length_c 12.208537
_cell_angle_alpha 90.000000
_cell_angle_beta 90.000000
_cell_angle_gamma 90.000000
_cell_volume 5126.765094
_symmetry_space_group_name_H-M "I M M M"
_symmetry_group_IT_number 71
_symmetry_cell_setting 'orthorhombic'
loop_
_space_group_symop_operation_xyz
x,y,z
-x,-y,z
x,-y,-z
-x,y,-z
-x,-y,-z
x,y,-z
-x,y,z
x,-y,z
1/2+x,1/2+y,1/2+z
1/2-x,1/2-y,1/2+z
1/2+x,1/2-y,1/2-z
1/2-x,1/2+y,1/2-z
1/2-x,1/2-y,1/2-z
1/2+x,1/2+y,1/2-z
1/2-x,1/2+y,1/2+z
1/2+x,1/2-y,1/2+z
loop_
_atom_site_type_symbol
_atom_site_label
_atom_site_fract_x
_atom_site_fract_y
_atom_site_fract_z
Si Si1 0.857908 0.272785 0.374795
Si Si2 0.186128 0.901331 0.704529
Si Si3 0.553054 0.146310 0.500000
Si Si4 0.390948 0.598736 0.378494
Si Si5 0.657495 0.095679 0.500000
Si Si6 0.200182 0.397668 0.776532
Si Si7 0.945589 0.246662 0.222628
O O1 0.866284 0.299170 0.500000
O O2 0.838115 0.172838 0.371504
O O3 0.819424 0.340379 0.323633
O O4 0.909166 0.286061 0.312641
O O5 0.162459 0.894156 0.825000
O O6 0.242683 0.882660 0.717010
O O7 0.177257 0.000000 0.656136
O O8 0.500000 0.097913 0.500000
O O9 0.599116 0.082356 0.500000
O O10 0.557517 0.203098 0.608698
O O11 0.387110 0.639985 0.500000
O O12 0.409473 0.500000 0.384740
O O13 0.430486 0.647428 0.303974
O O14 0.676334 0.141670 0.611277
O O15 0.682044 0.000000 0.500000
O O16 0.186612 0.500000 0.758740
O O17 0.000000 0.248927 0.271521
#
# Coordination Sequence:
#
# PCOD8288027 Si02
#       7
#    16  16   8  16   8  16  16
#     4  11  23  37  56  82 110 148 190 225 268 322
#     4   9  20  37  55  80 114 150 186 223 267 323
#     4  10  18  33  57  80 104 135 173 229 289 328
#     4   9  17  30  50  78 110 141 177 224 275 327
#     4  10  20  35  58  83 107 138 177 229 287 329
#     4  10  21  38  58  82 112 146 184 227 275 326
#     4  10  20  35  54  77 105 140 180 225 280 330
#
# _framework density 18.725258
#
# number of rings (size 3 to 8) (size 9 to 14) (size 15 to 20)
#    0.000    2.167    2.500    0.500    1.167    2.167 
#    0.000    2.500    0.000    0.500    0.000    5.833 
#    0.000    0.000    0.000    0.000    0.000    0.000 
#
# Total GULP energy -594939.873598 kJ/mol
# GULP energy per Si atom -12394.580700 kJ/mol
# Density = 1.868264 g / cm^3
# Si number density = 18.725258 Si / 1000 Ang^3
#
#
#
# Elastic Constant Matrix: (Units=GPa)
#
#
# Indices 1 2 3 4 5 6 
#
# 1 123.4877 28.1630 36.2266 0.0000 0.0000 0.0000
# 2 28.1630 56.8229 28.1638 0.0000 0.0000 0.0000
# 3 36.2266 28.1638 112.6839 0.0000 0.0000 0.0000
# 4 0.0000 0.0000 0.0000 18.0626 0.0000 0.0000
# 5 0.0000 0.0000 0.0000 0.0000 22.2075 0.0000
# 6 0.0000 0.0000 0.0000 0.0000 0.0000 23.1545
#
#
#
# Elastic Compliance Matrix: (Units=1/GPa)
#
#
# Indices 1 2 3 4 5 6 
#
# 1 0.009569 -0.003673 -0.002158 0.000000 0.000000 0.000000
# 2 -0.003673 0.021497 -0.004192 0.000000 0.000000 0.000000
# 3 -0.002158 -0.004192 0.010616 0.000000 0.000000 0.000000
# 4 0.000000 0.000000 0.000000 0.055363 0.000000 0.000000
# 5 0.000000 0.000000 0.000000 0.000000 0.045030 0.000000
# 6 0.000000 0.000000 0.000000 0.000000 0.000000 0.043188
#
#
# Mechanical properties :
#
#
# Convention : Reuss Voigt Hill
#
# Bulk Modulus (GPa) = 46.22107 53.12237 49.67172
# Shear Modulus (GPa) = 23.52716 26.04766 24.78741
#
# Velocity S-wave (km/s) = 3.54847 3.73372 3.64227
# Velocity P-wave (km/s) = 6.44409 6.85700 6.65375
#
# Compressibility (1/GPa) = 0.02163516
#
# Stress axis : x y z
#
# Youngs Moduli (GPa) = 104.50675 46.51894 94.19765
#
# Poissons Ratio (x) = 0.17086 0.20331
# Poissons Ratio (y) = 0.38383 0.39488
# Poissons Ratio (z) = 0.22556 0.19501
#
# Static dielectric constant tensor:
#      x y z
#    x 3.535440 0.000000 0.000000 
#    y 0.000000 3.407110 0.000000 
#    z 0.000000 0.000000 3.368580 
# 
# 
# High freq. dielectric constant tensor:
#      x y z
#    x 1.730060 0.000000 0.000000 
#    y 0.000000 1.720810 0.000000 
#    z 0.000000 0.000000 1.714530 
# 
# From -- ./inp_files/29992.got.cif
#   From: 2010.06.25/outbox.cif.g09.slc.cpg/sg71_15_cif.got.tgz:29992.got - 2010.06.28 04:59:45.
