data_PCOD8288614
_publ_section_title
;
Structure prediction by ZEFSAII (Michael W. Deem and Ramdas Pophale) SiO2 
 PCOD8288614
Probable space group: I M M M
;
_chemical_formula_sum "Si O2"
_cell_formula_units_Z 80
_cell_length_a 10.176502
_cell_length_b 21.822620
_cell_length_c 19.398446
_cell_angle_alpha 90.000000
_cell_angle_beta 90.000000
_cell_angle_gamma 90.000000
_cell_volume 4307.966851
_symmetry_space_group_name_H-M "I M M M"
_symmetry_group_IT_number 71
_symmetry_cell_setting 'orthorhombic'
loop_
_space_group_symop_operation_xyz
x,y,z
-x,-y,z
x,-y,-z
-x,y,-z
-x,-y,-z
x,y,-z
-x,y,z
x,-y,z
1/2+x,1/2+y,1/2+z
1/2-x,1/2-y,1/2+z
1/2+x,1/2-y,1/2-z
1/2-x,1/2+y,1/2-z
1/2-x,1/2-y,1/2-z
1/2+x,1/2+y,1/2-z
1/2-x,1/2+y,1/2+z
1/2+x,1/2-y,1/2+z
loop_
_atom_site_type_symbol
_atom_site_label
_atom_site_fract_x
_atom_site_fract_y
_atom_site_fract_z
Si Si1 0.144138 0.669474 0.731689
Si Si2 0.648915 0.568021 0.733742
Si Si3 0.856978 0.093495 0.389416
Si Si4 0.774796 0.776105 0.638526
Si Si5 0.148103 0.409238 0.000000
Si Si6 0.356039 0.764403 0.500000
O O1 0.250289 0.619200 0.706109
O O2 0.141424 0.725167 0.677786
O O3 0.167378 0.695795 0.808530
O O4 0.000000 0.638858 0.731528
O O5 0.500000 0.587598 0.713363
O O6 0.680690 0.500000 0.703761
O O7 0.663194 0.563409 0.815565
O O8 0.864643 0.167456 0.385413
O O9 0.734032 0.069509 0.434343
O O10 0.000000 0.073329 0.419621
O O11 0.713948 0.743612 0.570694
O O12 0.133440 0.337183 0.000000
O O13 0.000000 0.438490 0.000000
O O14 0.500000 0.734365 0.500000
#
# Coordination Sequence:
#
# PCOD8288614 Si02
#       6
#    16  16  16  16   8   8
#     4  10  19  31  49  73 100 129 161 197 239 288
#     4   9  19  34  49  66  89 119 157 200 242 282
#     4   9  16  28  46  64  87 121 157 190 227 276
#     4   9  18  29  46  72 102 128 156 194 238 282
#     4   9  17  27  40  62  91 121 153 190 231 272
#     4   9  16  27  43  66  97 130 160 190 229 279
#
# _framework density 18.570243999999999
#
# number of rings (size 3 to 8) (size 9 to 14) (size 15 to 20)
#    0.000    2.800    0.000    1.500    0.000   10.800 
#    0.000    2.000    0.000    3.000    0.000    0.700 
#    0.000    4.000    0.000    0.000    0.000    0.000 
#
# Total GULP energy -495597.054004 kJ/mol
# GULP energy per Si atom -12389.926350 kJ/mol
# Density = 1.852798 g / cm^3
# Si number density = 18.570244 Si / 1000 Ang^3
#
#
#
# Elastic Constant Matrix: (Units=GPa)
#
#
# Indices 1 2 3 4 5 6 
#
# 1 133.7411 32.9128 16.0906 0.0000 0.0000 0.0000
# 2 32.9128 72.9410 7.7399 0.0000 0.0000 0.0000
# 3 16.0906 7.7399 58.0720 0.0000 0.0000 0.0000
# 4 0.0000 0.0000 0.0000 4.2787 0.0000 0.0000
# 5 0.0000 0.0000 0.0000 0.0000 11.1437 0.0000
# 6 0.0000 0.0000 0.0000 0.0000 0.0000 5.3618
#
#
#
# Elastic Compliance Matrix: (Units=1/GPa)
#
#
# Indices 1 2 3 4 5 6 
#
# 1 0.008612 -0.003685 -0.001895 0.000000 0.000000 0.000000
# 2 -0.003685 0.015483 -0.001043 0.000000 0.000000 0.000000
# 3 -0.001895 -0.001043 0.017884 0.000000 0.000000 0.000000
# 4 0.000000 0.000000 0.000000 0.233718 0.000000 0.000000
# 5 0.000000 0.000000 0.000000 0.000000 0.089737 0.000000
# 6 0.000000 0.000000 0.000000 0.000000 0.000000 0.186506
#
#
# Mechanical properties :
#
#
# Convention : Reuss Voigt Hill
#
# Bulk Modulus (GPa) = 34.80197 42.02673 38.41435
# Shear Modulus (GPa) = 8.69924 18.02421 13.36173
#
# Velocity S-wave (km/s) = 2.16672 3.11882 2.68530
# Velocity P-wave (km/s) = 5.00410 5.97074 5.50866
#
# Compressibility (1/GPa) = 0.02873401
#
# Stress axis : x y z
#
# Youngs Moduli (GPa) = 116.11778 64.58681 55.91575
#
# Poissons Ratio (x) = 0.23799 0.10596
# Poissons Ratio (y) = 0.42788 0.05830
# Poissons Ratio (z) = 0.22005 0.06734
#
# Static dielectric constant tensor:
#      x y z
#    x 3.577180 0.000000 0.000000 
#    y 0.000000 3.161910 0.000000 
#    z 0.000000 0.000000 3.213070 
# 
# 
# High freq. dielectric constant tensor:
#      x y z
#    x 1.726680 0.000000 0.000000 
#    y 0.000000 1.694760 0.000000 
#    z 0.000000 0.000000 1.684680 
# 
# From -- ./inp_files/50416.got.cif
#   From: 2010.06.25/outbox.cif.g09.slc.cpg/sg71_26_cif.got.tgz:50416.got - 2010.06.28 04:59:45.
