data_PCOD8288435
_publ_section_title
;
Structure prediction by ZEFSAII (Michael W. Deem and Ramdas Pophale) SiO2 
 PCOD8288435
Probable space group: I M M M
;
_chemical_formula_sum "Si O2"
_cell_formula_units_Z 96
_cell_length_a 31.374390
_cell_length_b 19.249895
_cell_length_c 8.952262
_cell_angle_alpha 90.000000
_cell_angle_beta 90.000000
_cell_angle_gamma 90.000000
_cell_volume 5406.751876
_symmetry_space_group_name_H-M "I M M M"
_symmetry_group_IT_number 71
_symmetry_cell_setting 'orthorhombic'
loop_
_space_group_symop_operation_xyz
x,y,z
-x,-y,z
x,-y,-z
-x,y,-z
-x,-y,-z
x,y,-z
-x,y,z
x,-y,z
1/2+x,1/2+y,1/2+z
1/2-x,1/2-y,1/2+z
1/2+x,1/2-y,1/2-z
1/2-x,1/2+y,1/2-z
1/2-x,1/2-y,1/2-z
1/2+x,1/2+y,1/2-z
1/2-x,1/2+y,1/2+z
1/2+x,1/2-y,1/2+z
loop_
_atom_site_type_symbol
_atom_site_label
_atom_site_fract_x
_atom_site_fract_y
_atom_site_fract_z
Si Si1 0.792110 0.418543 0.328094
Si Si2 0.544923 0.160548 0.666966
Si Si3 0.630467 0.317716 0.174689
Si Si4 0.363974 0.170542 0.678658
Si Si5 0.953411 0.825523 0.832927
Si Si6 0.794143 0.079602 0.327589
O O1 0.796750 0.396814 0.500000
O O2 0.798849 0.500000 0.303519
O O3 0.827176 0.379917 0.231088
O O4 0.745684 0.395591 0.271454
O O5 0.542914 0.130331 0.500000
O O6 0.500000 0.136857 0.748676
O O7 0.590370 0.138508 0.739516
O O8 0.546132 0.243050 0.662232
O O9 0.643438 0.247386 0.258470
O O10 0.584832 0.349486 0.225053
O O11 0.665486 0.374661 0.217364
O O12 0.628836 0.302046 0.000000
O O13 0.364849 0.175266 0.500000
O O14 0.000000 0.852201 0.775453
O O15 0.945083 0.854292 0.000000
O O16 0.781529 0.089840 0.500000
O O17 0.805967 0.000000 0.293023
#
# Coordination Sequence:
#
# PCOD8288435 Si02
#       6
#    16  16  16  16  16  16
#     4  10  21  36  53  72  94 122 159 203 246 288
#     4   7  11  22  41  65  91 119 153 189 222 262
#     4  10  19  30  48  75 102 125 156 203 249 284
#     4  10  19  31  50  74 100 130 160 193 238 290
#     4   8  14  26  44  66  95 130 163 194 232 283
#     4   9  19  36  54  70  92 126 165 200 240 295
#
# _framework density 17.755576999999999
#
# number of rings (size 3 to 8) (size 9 to 14) (size 15 to 20)
#    0.000    3.000    0.000    3.500    0.000    3.333 
#    0.000    0.000    0.000    2.500    0.000    7.000 
#    0.000    0.000    0.000    0.000    0.000    0.000 
#
# Total GULP energy -594649.251631 kJ/mol
# GULP energy per Si atom -12388.526076 kJ/mol
# Density = 1.771516 g / cm^3
# Si number density = 17.755577 Si / 1000 Ang^3
#
#
#
# Elastic Constant Matrix: (Units=GPa)
#
#
# Indices 1 2 3 4 5 6 
#
# 1 176.7300 56.5742 61.8310 0.0000 0.0000 0.0000
# 2 56.5742 40.1189 29.7265 0.0000 0.0000 0.0000
# 3 61.8310 29.7265 73.3870 0.0000 0.0000 0.0000
# 4 0.0000 0.0000 0.0000 17.3063 0.0000 0.0000
# 5 0.0000 0.0000 0.0000 0.0000 30.5569 0.0000
# 6 0.0000 0.0000 0.0000 0.0000 0.0000 -6.8006
#
#
#
# Elastic Compliance Matrix: (Units=1/GPa)
#
#
# Indices 1 2 3 4 5 6 
#
# 1 0.011207 -0.012584 -0.004345 0.000000 0.000000 0.000000
# 2 -0.012584 0.049746 -0.009548 0.000000 0.000000 0.000000
# 3 -0.004345 -0.009548 0.021154 0.000000 0.000000 0.000000
# 4 0.000000 0.000000 0.000000 0.057782 0.000000 0.000000
# 5 0.000000 0.000000 0.000000 0.000000 0.032726 0.000000
# 6 0.000000 0.000000 0.000000 0.000000 0.000000 -0.147047
#
#
# Mechanical properties :
#
#
# Convention : Reuss Voigt Hill
#
# Bulk Modulus (GPa) = 34.30062 65.16658 49.73360
# Shear Modulus (GPa) = 56.66360 17.68615 37.17488
#
# Velocity S-wave (km/s) = 5.65530 3.15951 4.58066
# Velocity P-wave (km/s) = 7.87422 7.07755 7.48649
#
# Compressibility (1/GPa) = 0.02915399
#
# Stress axis : x y z
#
# Youngs Moduli (GPa) = 89.23176 20.10208 47.27143
#
# Poissons Ratio (x) = 0.25297 0.20538
# Poissons Ratio (y) = 1.12290 0.45134
# Poissons Ratio (z) = 0.38768 0.19193
#
# Static dielectric constant tensor:
#      x y z
#    x 4.011570 0.000000 0.000000 
#    y 0.000000 2.882800 0.000000 
#    z 0.000000 0.000000 3.210580 
# 
# 
# High freq. dielectric constant tensor:
#      x y z
#    x 1.713750 0.000000 0.000000 
#    y 0.000000 1.639300 0.000000 
#    z 0.000000 0.000000 1.672570 
# 
# From -- ./inp_files/10830.got.cif
#   From: 2010.06.25/outbox.cif.g09.slc.cpg/sg71_6_cif.got.tgz:10830.got - 2010.06.28 04:59:45.
