data_PCOD8288788
_publ_section_title
;
Structure prediction by ZEFSAII (Michael W. Deem and Ramdas Pophale) SiO2 
 PCOD8288788
Probable space group: I M M M
;
_chemical_formula_sum "Si O2"
_cell_formula_units_Z 96
_cell_length_a 29.434441
_cell_length_b 7.944318
_cell_length_c 23.851222
_cell_angle_alpha 90.000000
_cell_angle_beta 90.000000
_cell_angle_gamma 90.000000
_cell_volume 5577.287691
_symmetry_space_group_name_H-M "I M M M"
_symmetry_group_IT_number 71
_symmetry_cell_setting 'orthorhombic'
loop_
_space_group_symop_operation_xyz
x,y,z
-x,-y,z
x,-y,-z
-x,y,-z
-x,-y,-z
x,y,-z
-x,y,z
x,-y,z
1/2+x,1/2+y,1/2+z
1/2-x,1/2-y,1/2+z
1/2+x,1/2-y,1/2-z
1/2-x,1/2+y,1/2-z
1/2-x,1/2-y,1/2-z
1/2+x,1/2+y,1/2-z
1/2-x,1/2+y,1/2+z
1/2+x,1/2-y,1/2+z
loop_
_atom_site_type_symbol
_atom_site_label
_atom_site_fract_x
_atom_site_fract_y
_atom_site_fract_z
Si Si1 0.054034 0.000000 0.342236
Si Si2 0.053839 0.314249 0.730271
Si Si3 0.949331 0.808287 0.152551
Si Si4 0.380226 0.192287 0.564180
Si Si5 0.714266 0.303333 0.437462
Si Si6 0.625134 0.500000 0.066331
Si Si7 0.313410 0.188432 0.066783
O O1 0.072167 0.833248 0.310105
O O2 0.076486 0.000000 0.403670
O O3 0.000000 0.000000 0.350544
O O4 0.069116 0.500000 0.708524
O O5 0.071119 0.292817 0.794251
O O6 0.000000 0.297988 0.731470
O O7 0.916971 0.795063 0.099135
O O8 0.000000 0.743224 0.136512
O O9 0.952114 0.000000 0.172283
O O10 0.380946 0.259406 0.500000
O O11 0.329629 0.216019 0.591186
O O12 0.394791 0.000000 0.567211
O O13 0.717072 0.228719 0.500000
O O14 0.704712 0.500000 0.438032
O O15 0.763124 0.267006 0.408054
O O16 0.651828 0.667764 0.086258
O O17 0.616772 0.500000 0.000000
O O18 0.328623 0.000000 0.087030
O O19 0.309336 0.185690 0.000000
#
# Coordination Sequence:
#
# PCOD8288788 Si02
#       7
#     8  16  16  16  16   8  16
#     4  10  20  35  52  76 105 130 164 200 238 288
#     4   9  17  32  54  74  93 121 163 216 255 279
#     4  10  19  32  49  67  92 125 167 216 256 295
#     4  10  20  29  40  65 100 133 166 204 249 306
#     4   8  14  26  43  62  89 124 161 205 246 281
#     4  10  20  31  50  78 106 137 162 190 234 290
#     4   8  15  28  46  69  98 130 164 201 237 277
#
# _framework density 17.212669000000002
#
# number of rings (size 3 to 8) (size 9 to 14) (size 15 to 20)
#    0.000    2.833    0.833    2.000    1.167    3.167 
#    0.000    1.667    0.000    0.000    0.000    5.833 
#    0.000    0.000    0.000    0.000    0.000    0.000 
#
# Total GULP energy -594742.453207 kJ/mol
# GULP energy per Si atom -12390.467775 kJ/mol
# Density = 1.717349 g / cm^3
# Si number density = 17.212669 Si / 1000 Ang^3
#
#
#
# Elastic Constant Matrix: (Units=GPa)
#
#
# Indices 1 2 3 4 5 6 
#
# 1 79.1223 38.1486 38.5032 0.0000 0.0000 0.0000
# 2 38.1486 102.6091 31.3471 0.0000 0.0000 0.0000
# 3 38.5032 31.3471 54.5652 0.0000 0.0000 0.0000
# 4 0.0000 0.0000 0.0000 14.0088 0.0000 0.0000
# 5 0.0000 0.0000 0.0000 0.0000 4.4154 0.0000
# 6 0.0000 0.0000 0.0000 0.0000 0.0000 18.9250
#
#
#
# Elastic Compliance Matrix: (Units=1/GPa)
#
#
# Indices 1 2 3 4 5 6 
#
# 1 0.020443 -0.003873 -0.012200 0.000000 0.000000 0.000000
# 2 -0.003873 0.012554 -0.004479 0.000000 0.000000 0.000000
# 3 -0.012200 -0.004479 0.029509 0.000000 0.000000 0.000000
# 4 0.000000 0.000000 0.000000 0.071384 0.000000 0.000000
# 5 0.000000 0.000000 0.000000 0.000000 0.226479 0.000000
# 6 0.000000 0.000000 0.000000 0.000000 0.000000 0.052840
#
#
# Mechanical properties :
#
#
# Convention : Reuss Voigt Hill
#
# Bulk Modulus (GPa) = 46.72710 50.25492 48.49101
# Shear Modulus (GPa) = 10.83545 16.02302 13.42924
#
# Velocity S-wave (km/s) = 2.51171 3.05435 2.79623
# Velocity P-wave (km/s) = 5.96804 6.45745 6.21756
#
# Compressibility (1/GPa) = 0.02140086
#
# Stress axis : x y z
#
# Youngs Moduli (GPa) = 48.91610 79.65517 33.88815
#
# Poissons Ratio (x) = 0.30853 0.41344
# Poissons Ratio (y) = 0.18947 0.15179
# Poissons Ratio (z) = 0.59679 0.35678
#
# Static dielectric constant tensor:
#      x y z
#    x 3.116860 0.000000 0.000000 
#    y 0.000000 3.387570 0.000000 
#    z 0.000000 0.000000 2.758040 
# 
# 
# High freq. dielectric constant tensor:
#      x y z
#    x 1.649010 0.000000 0.000000 
#    y 0.000000 1.680160 0.000000 
#    z 0.000000 0.000000 1.608310 
# 
# From -- ./inp_files/61906.got.cif
#   From: 2010.06.25/outbox.cif.g09.slc.cpg/sg71_31_cif.got.tgz:61906.got - 2010.06.28 04:59:45.
