data_PCOD8288518
_publ_section_title
;
Structure prediction by ZEFSAII (Michael W. Deem and Ramdas Pophale) SiO2 
 PCOD8288518
Probable space group: I M M M
;
_chemical_formula_sum "Si O2"
_cell_formula_units_Z 96
_cell_length_a 26.693184
_cell_length_b 14.066476
_cell_length_c 14.469065
_cell_angle_alpha 90.000000
_cell_angle_beta 90.000000
_cell_angle_gamma 90.000000
_cell_volume 5432.830522
_symmetry_space_group_name_H-M "I M M M"
_symmetry_group_IT_number 71
_symmetry_cell_setting 'orthorhombic'
loop_
_space_group_symop_operation_xyz
x,y,z
-x,-y,z
x,-y,-z
-x,y,-z
-x,-y,-z
x,y,-z
-x,y,z
x,-y,z
1/2+x,1/2+y,1/2+z
1/2-x,1/2-y,1/2+z
1/2+x,1/2-y,1/2-z
1/2-x,1/2+y,1/2-z
1/2-x,1/2-y,1/2-z
1/2+x,1/2+y,1/2-z
1/2-x,1/2+y,1/2+z
1/2+x,1/2-y,1/2+z
loop_
_atom_site_type_symbol
_atom_site_label
_atom_site_fract_x
_atom_site_fract_y
_atom_site_fract_z
Si Si1 0.795364 0.388413 0.898410
Si Si2 0.943902 0.390380 0.267446
Si Si3 0.658283 0.392590 0.393008
Si Si4 0.854508 0.613038 0.603525
Si Si5 0.099590 0.285866 0.103654
Si Si6 0.243573 0.612552 0.707660
O O1 0.804829 0.500000 0.888885
O O2 0.848728 0.341201 0.884607
O O3 0.758288 0.355397 0.815672
O O4 0.772736 0.362870 0.000000
O O5 0.932887 0.500000 0.241945
O O6 0.904312 0.352459 0.342814
O O7 0.940467 0.327499 0.174720
O O8 0.000000 0.378608 0.307693
O O9 0.674289 0.389746 0.500000
O O10 0.644704 0.500000 0.361839
O O11 0.610178 0.325838 0.375404
O O12 0.705334 0.348321 0.336948
O O13 0.856304 0.655087 0.500000
O O14 0.853310 0.500000 0.600335
O O15 0.805188 0.653174 0.654764
O O16 0.078133 0.298079 0.000000
O O17 0.244211 0.500000 0.696515
#
# Coordination Sequence:
#
# PCOD8288518 Si02
#       6
#    16  16  16  16  16  16
#     4   9  16  26  41  62  91 125 157 186 219 264
#     4  10  20  33  48  68  94 122 153 188 227 273
#     4   9  18  31  47  68  92 120 154 191 231 273
#     4   9  16  27  44  66  93 125 156 184 217 259
#     4  10  19  31  47  66  90 121 155 191 230 273
#     4   9  15  26  45  66  90 123 158 188 219 259
#
# _framework density 17.670345999999999
#
# number of rings (size 3 to 8) (size 9 to 14) (size 15 to 20)
#    0.000    2.667    1.667    1.000    0.000    4.333 
#    0.000    2.500    0.000    0.500    0.000    2.333 
#    0.000    0.000    0.000    1.500    0.000    0.167 
#
# Total GULP energy -594993.095209 kJ/mol
# GULP energy per Si atom -12395.689484 kJ/mol
# Density = 1.763013 g / cm^3
# Si number density = 17.670346 Si / 1000 Ang^3
#
#
#
# Elastic Constant Matrix: (Units=GPa)
#
#
# Indices 1 2 3 4 5 6 
#
# 1 42.7913 16.2499 24.8445 0.0000 0.0000 0.0000
# 2 16.2499 33.3291 21.9534 0.0000 0.0000 0.0000
# 3 24.8445 21.9534 104.8099 0.0000 0.0000 0.0000
# 4 0.0000 0.0000 0.0000 13.4428 0.0000 0.0000
# 5 0.0000 0.0000 0.0000 0.0000 22.2265 0.0000
# 6 0.0000 0.0000 0.0000 0.0000 0.0000 15.9844
#
#
#
# Elastic Compliance Matrix: (Units=1/GPa)
#
#
# Indices 1 2 3 4 5 6 
#
# 1 0.030623 -0.011773 -0.004793 0.000000 0.000000 0.000000
# 2 -0.011773 0.039332 -0.005448 0.000000 0.000000 0.000000
# 3 -0.004793 -0.005448 0.011818 0.000000 0.000000 0.000000
# 4 0.000000 0.000000 0.000000 0.074389 0.000000 0.000000
# 5 0.000000 0.000000 0.000000 0.000000 0.044991 0.000000
# 6 0.000000 0.000000 0.000000 0.000000 0.000000 0.062561
#
#
# Mechanical properties :
#
#
# Convention : Reuss Voigt Hill
#
# Bulk Modulus (GPa) = 26.49328 34.11400 30.30364
# Shear Modulus (GPa) = 15.60914 18.18957 16.89935
#
# Velocity S-wave (km/s) = 2.97535 3.21188 3.09587
# Velocity P-wave (km/s) = 5.17969 5.75349 5.47411
#
# Compressibility (1/GPa) = 0.03774542
#
# Stress axis : x y z
#
# Youngs Moduli (GPa) = 32.65522 25.42437 84.61456
#
# Poissons Ratio (x) = 0.29933 0.40555
# Poissons Ratio (y) = 0.38446 0.46096
# Poissons Ratio (z) = 0.15651 0.13850
#
# Static dielectric constant tensor:
#      x y z
#    x 3.038460 0.000000 0.000000 
#    y 0.000000 3.223970 0.000000 
#    z 0.000000 0.000000 3.590210 
# 
# 
# High freq. dielectric constant tensor:
#      x y z
#    x 1.647590 0.000000 0.000000 
#    y 0.000000 1.661160 0.000000 
#    z 0.000000 0.000000 1.690030 
# 
# From -- ./inp_files/35240.got.cif
#   From: 2010.06.25/outbox.cif.g09.slc.cpg/sg71_18_cif.got.tgz:35240.got - 2010.06.28 04:59:45.
