data_PCOD8288680
_publ_section_title
;
Structure prediction by ZEFSAII (Michael W. Deem and Ramdas Pophale) SiO2 
 PCOD8288680
Probable space group: I M M M
;
_chemical_formula_sum "Si O2"
_cell_formula_units_Z 120
_cell_length_a 23.956048
_cell_length_b 13.047685
_cell_length_c 21.326439
_cell_angle_alpha 90.000000
_cell_angle_beta 90.000000
_cell_angle_gamma 90.000000
_cell_volume 6666.025685
_symmetry_space_group_name_H-M "I M M M"
_symmetry_group_IT_number 71
_symmetry_cell_setting 'orthorhombic'
loop_
_space_group_symop_operation_xyz
x,y,z
-x,-y,z
x,-y,-z
-x,y,-z
-x,-y,-z
x,y,-z
-x,y,z
x,-y,z
1/2+x,1/2+y,1/2+z
1/2-x,1/2-y,1/2+z
1/2+x,1/2-y,1/2-z
1/2-x,1/2+y,1/2-z
1/2-x,1/2-y,1/2-z
1/2+x,1/2+y,1/2-z
1/2-x,1/2+y,1/2+z
1/2+x,1/2-y,1/2+z
loop_
_atom_site_type_symbol
_atom_site_label
_atom_site_fract_x
_atom_site_fract_y
_atom_site_fract_z
Si Si1 0.199584 0.613005 0.644395
Si Si2 0.117146 0.883486 0.626293
Si Si3 0.825994 0.113989 0.829304
Si Si4 0.938085 0.878209 0.500000
Si Si5 0.348307 0.225742 0.426523
Si Si6 0.936124 0.619323 0.160355
Si Si7 0.221647 0.805690 0.571640
Si Si8 0.879116 0.263079 0.732194
O O1 0.180153 0.500000 0.621742
O O2 0.259994 0.605832 0.675094
O O3 0.203048 0.688110 0.584481
O O4 0.157991 0.651733 0.698166
O O5 0.092339 0.838375 0.562018
O O6 0.184826 0.876569 0.618438
O O7 0.092290 0.810981 0.680606
O O8 0.099308 0.000000 0.640441
O O9 0.848418 0.161814 0.894839
O O10 0.841329 0.188079 0.772947
O O11 0.852486 0.000000 0.822450
O O12 0.000000 0.832840 0.500000
O O13 0.937902 0.000000 0.500000
O O14 0.360847 0.238218 0.500000
O O15 0.395471 0.154307 0.395773
O O16 0.287198 0.175481 0.414515
O O17 0.925842 0.500000 0.173169
O O18 0.924637 0.680852 0.224656
O O19 0.000000 0.640661 0.140105
O O20 0.208257 0.833893 0.500000
#
# Coordination Sequence:
#
# PCOD8288680 Si02
#       8
#    16  16  16   8  16  16  16  16
#     4   9  17  28  45  70 101 135 170 207 250 300
#     4  10  19  31  50  76 106 137 168 207 254 302
#     4   9  17  30  48  73 105 136 164 200 250 309
#     4   9  18  32  48  68  97 133 170 204 241 290
#     4   9  19  34  53  78 104 133 169 212 255 309
#     4  10  22  39  56  74  98 130 170 216 263 306
#     4   9  17  30  48  74 108 138 170 205 253 308
#     4  10  19  32  50  72  98 129 170 211 255 298
#
# _framework density 18.001730999999999
#
# number of rings (size 3 to 8) (size 9 to 14) (size 15 to 20)
#    0.000    2.600    0.667    1.200    0.000    3.200 
#    0.000    4.667    0.000    9.600    0.000    3.733 
#    0.000    4.267    0.000    0.000    0.000    0.000 
#
# Total GULP energy -743690.005639 kJ/mol
# GULP energy per Si atom -12394.833427 kJ/mol
# Density = 1.796076 g / cm^3
# Si number density = 18.001731 Si / 1000 Ang^3
#
#
#
# Elastic Constant Matrix: (Units=GPa)
#
#
# Indices 1 2 3 4 5 6 
#
# 1 71.2969 23.2898 27.1621 0.0000 0.0000 0.0000
# 2 23.2898 82.8796 22.7368 0.0000 0.0000 0.0000
# 3 27.1621 22.7368 93.7099 0.0000 0.0000 0.0000
# 4 0.0000 0.0000 0.0000 24.2225 0.0000 0.0000
# 5 0.0000 0.0000 0.0000 0.0000 21.2148 0.0000
# 6 0.0000 0.0000 0.0000 0.0000 0.0000 19.1828
#
#
#
# Elastic Compliance Matrix: (Units=1/GPa)
#
#
# Indices 1 2 3 4 5 6 
#
# 1 0.016717 -0.003609 -0.003970 0.000000 0.000000 0.000000
# 2 -0.003609 0.013705 -0.002279 0.000000 0.000000 0.000000
# 3 -0.003970 -0.002279 0.012375 0.000000 0.000000 0.000000
# 4 0.000000 0.000000 0.000000 0.041284 0.000000 0.000000
# 5 0.000000 0.000000 0.000000 0.000000 0.047137 0.000000
# 6 0.000000 0.000000 0.000000 0.000000 0.000000 0.052130
#
#
# Mechanical properties :
#
#
# Convention : Reuss Voigt Hill
#
# Bulk Modulus (GPa) = 43.32479 43.80709 43.56594
# Shear Modulus (GPa) = 23.72398 24.57054 24.14726
#
# Velocity S-wave (km/s) = 3.63419 3.69846 3.66647
# Velocity P-wave (km/s) = 6.45980 6.52885 6.49442
#
# Compressibility (1/GPa) = 0.02308147
#
# Stress axis : x y z
#
# Youngs Moduli (GPa) = 59.81922 72.96598 80.80837
#
# Poissons Ratio (x) = 0.26330 0.32080
# Poissons Ratio (y) = 0.21586 0.18419
# Poissons Ratio (z) = 0.23748 0.16631
#
# Static dielectric constant tensor:
#      x y z
#    x 3.209760 0.000000 0.000000 
#    y 0.000000 3.424650 0.000000 
#    z 0.000000 0.000000 3.394360 
# 
# 
# High freq. dielectric constant tensor:
#      x y z
#    x 1.677080 0.000000 0.000000 
#    y 0.000000 1.692780 0.000000 
#    z 0.000000 0.000000 1.698770 
# 
# From -- ./inp_files/56833.got.cif
#   From: 2010.06.25/outbox.cif.g09.slc.cpg/sg71_29_cif.got.tgz:56833.got - 2010.06.28 04:59:45.
