data_PCOD8288950
_publ_section_title
;
Structure prediction by ZEFSAII (Michael W. Deem and Ramdas Pophale) SiO2 
 PCOD8288950
Probable space group: I M M M
;
_chemical_formula_sum "Si O2"
_cell_formula_units_Z 104
_cell_length_a 18.448799
_cell_length_b 27.248972
_cell_length_c 11.751377
_cell_angle_alpha 90.000000
_cell_angle_beta 90.000000
_cell_angle_gamma 90.000000
_cell_volume 5907.544220
_symmetry_space_group_name_H-M "I M M M"
_symmetry_group_IT_number 71
_symmetry_cell_setting 'orthorhombic'
loop_
_space_group_symop_operation_xyz
x,y,z
-x,-y,z
x,-y,-z
-x,y,-z
-x,-y,-z
x,y,-z
-x,y,z
x,-y,z
1/2+x,1/2+y,1/2+z
1/2-x,1/2-y,1/2+z
1/2+x,1/2-y,1/2-z
1/2-x,1/2+y,1/2-z
1/2-x,1/2-y,1/2-z
1/2+x,1/2+y,1/2-z
1/2-x,1/2+y,1/2+z
1/2+x,1/2-y,1/2+z
loop_
_atom_site_type_symbol
_atom_site_label
_atom_site_fract_x
_atom_site_fract_y
_atom_site_fract_z
Si Si1 0.668087 0.594181 0.634607
Si Si2 0.083200 0.858916 0.500000
Si Si3 0.585722 0.774239 0.374584
Si Si4 0.081017 0.000000 0.135330
Si Si5 0.584741 0.679735 0.243356
Si Si6 0.290059 0.943006 0.722229
Si Si7 0.582910 0.883321 0.366412
Si Si8 0.195940 0.944421 0.500000
O O1 0.667118 0.598000 0.500000
O O2 0.621875 0.547952 0.681189
O O3 0.632503 0.642552 0.684610
O O4 0.750363 0.586298 0.676074
O O5 0.101374 0.825754 0.390243
O O6 0.127448 0.908994 0.500000
O O7 0.000000 0.875301 0.500000
O O8 0.616085 0.759585 0.500000
O O9 0.500000 0.777630 0.382894
O O10 0.609597 0.734235 0.281086
O O11 0.613337 0.828469 0.340191
O O12 0.000000 0.000000 0.185489
O O13 0.079759 0.000000 0.000000
O O14 0.500000 0.670688 0.271270
O O15 0.370274 0.921510 0.706396
O O16 0.244769 0.933700 0.608635
O O17 0.296985 0.000000 0.753870
O O18 0.589714 0.894868 0.500000
O O19 0.500000 0.889372 0.326322
O O20 0.166458 0.000000 0.500000
#
# Coordination Sequence:
#
# PCOD8288950 Si02
#       8
#    16   8  16   8  16  16  16   8
#     4  11  21  33  51  74 104 144 183 221 259 306
#     4  10  20  33  50  75 109 150 185 215 251 300
#     4   8  15  30  53  79 105 133 168 215 269 315
#     4   9  18  32  48  71 100 133 178 225 259 286
#     4  10  19  32  52  77 107 142 180 220 259 307
#     4  11  21  35  55  77 107 143 172 214 269 324
#     4   9  18  34  58  86 108 129 167 219 273 327
#     4  10  20  35  51  72 102 145 183 209 259 320
#
# _framework density 17.604607999999999
#
# number of rings (size 3 to 8) (size 9 to 14) (size 15 to 20)
#    0.000    2.231    3.077    1.846    0.000    2.000 
#    0.000    1.538    1.692    0.462    0.000    1.077 
#    0.000    0.000    0.000    0.000    0.000    0.000 
#
# Total GULP energy -644773.566737 kJ/mol
# GULP energy per Si atom -12399.491668 kJ/mol
# Density = 1.756454 g / cm^3
# Si number density = 17.604608 Si / 1000 Ang^3
#
#
#
# Elastic Constant Matrix: (Units=GPa)
#
#
# Indices 1 2 3 4 5 6 
#
# 1 80.1048 41.5812 33.8192 0.0000 0.0000 0.0000
# 2 41.5812 83.2153 38.3713 0.0000 0.0000 0.0000
# 3 33.8192 38.3713 83.9034 0.0001 0.0000 0.0000
# 4 0.0000 0.0000 0.0001 15.1433 0.0000 0.0000
# 5 0.0000 0.0000 0.0000 0.0000 22.1768 0.0000
# 6 0.0000 0.0000 0.0000 0.0000 0.0000 21.4476
#
#
#
# Elastic Compliance Matrix: (Units=1/GPa)
#
#
# Indices 1 2 3 4 5 6 
#
# 1 0.017829 -0.007090 -0.003944 0.000000 0.000000 0.000000
# 2 -0.007090 0.018048 -0.005396 0.000000 0.000000 0.000000
# 3 -0.003944 -0.005396 0.015976 0.000000 0.000000 0.000000
# 4 0.000000 0.000000 0.000000 0.066036 0.000000 0.000000
# 5 0.000000 0.000000 0.000000 0.000000 0.045092 0.000000
# 6 0.000000 0.000000 0.000000 0.000000 0.000000 0.046625
#
#
# Mechanical properties :
#
#
# Convention : Reuss Voigt Hill
#
# Bulk Modulus (GPa) = 52.65158 52.75187 52.70173
# Shear Modulus (GPa) = 20.09668 20.65034 20.37351
#
# Velocity S-wave (km/s) = 3.38236 3.42864 3.40558
# Velocity P-wave (km/s) = 6.72507 6.76047 6.74279
#
# Compressibility (1/GPa) = 0.01899278
#
# Stress axis : x y z
#
# Youngs Moduli (GPa) = 56.08778 55.40767 62.59460
#
# Poissons Ratio (x) = 0.39286 0.24686
# Poissons Ratio (y) = 0.39768 0.33775
# Poissons Ratio (z) = 0.22120 0.29897
#
# Static dielectric constant tensor:
#      x y z
#    x 3.106090 0.000000 0.000000 
#    y 0.000000 3.402100 0.000000 
#    z 0.000000 0.000000 3.231060 
# 
# 
# High freq. dielectric constant tensor:
#      x y z
#    x 1.659830 0.000000 0.000000 
#    y 0.000000 1.682990 0.000000 
#    z 0.000000 0.000000 1.667590 
# 
# From -- ./inp_files/24591.got.cif
#   From: 2010.06.25/outbox.cif.g09.slc.cpg/sg71_13_cif.got.tgz:24591.got - 2010.06.28 04:59:45.
