data_PCOD8288170
_publ_section_title
;
Structure prediction by ZEFSAII (Michael W. Deem and Ramdas Pophale) SiO2 
 PCOD8288170
Probable space group: I M M M
;
_chemical_formula_sum "Si O2"
_cell_formula_units_Z 128
_cell_length_a 26.435296
_cell_length_b 18.207312
_cell_length_c 17.229974
_cell_angle_alpha 90.000000
_cell_angle_beta 90.000000
_cell_angle_gamma 90.000000
_cell_volume 8293.056688
_symmetry_space_group_name_H-M "I M M M"
_symmetry_group_IT_number 71
_symmetry_cell_setting 'orthorhombic'
loop_
_space_group_symop_operation_xyz
x,y,z
-x,-y,z
x,-y,-z
-x,y,-z
-x,-y,-z
x,y,-z
-x,y,z
x,-y,z
1/2+x,1/2+y,1/2+z
1/2-x,1/2-y,1/2+z
1/2+x,1/2-y,1/2-z
1/2-x,1/2+y,1/2-z
1/2-x,1/2-y,1/2-z
1/2+x,1/2+y,1/2-z
1/2-x,1/2+y,1/2+z
1/2+x,1/2-y,1/2+z
loop_
_atom_site_type_symbol
_atom_site_label
_atom_site_fract_x
_atom_site_fract_y
_atom_site_fract_z
Si Si1 0.215743 0.917041 0.325417
Si Si2 0.112429 0.080382 0.412590
Si Si3 0.324226 0.582374 0.412633
Si Si4 0.745037 0.290991 0.087588
Si Si5 0.688048 0.694162 0.299210
Si Si6 0.653900 0.782141 0.157190
Si Si7 0.443541 0.274419 0.909263
Si Si8 0.795966 0.417066 0.588073
O O1 0.157729 0.917102 0.351429
O O2 0.250528 0.877609 0.391408
O O3 0.220670 0.865681 0.249460
O O4 0.235348 0.000000 0.309604
O O5 0.133778 0.093128 0.500000
O O6 0.071003 0.141190 0.391003
O O7 0.086380 0.000000 0.407218
O O8 0.343906 0.594795 0.500000
O O9 0.338660 0.500000 0.384902
O O10 0.348344 0.644292 0.355392
O O11 0.264040 0.594067 0.408141
O O12 0.774552 0.240421 0.147403
O O13 0.685607 0.270655 0.098760
O O14 0.763294 0.276167 0.000000
O O15 0.657870 0.751139 0.245234
O O16 0.595107 0.780303 0.133754
O O17 0.674902 0.864820 0.148926
O O18 0.500000 0.260505 0.876903
O O19 0.441548 0.257700 0.000000
O O20 0.813574 0.398941 0.500000
O O21 0.810593 0.500000 0.610354
#
# Coordination Sequence:
#
# PCOD8288170 Si02
#       8
#    16  16  16  16  16  16  16  16
#     4  10  19  29  42  60  85 117 148 179 216 259
#     4   9  16  27  42  59  81 112 146 177 212 250
#     4   9  17  28  42  61  87 118 149 181 212 247
#     4  11  20  30  44  61  85 117 149 178 212 256
#     4  11  20  29  41  65  86 115 147 183 217 258
#     4  11  19  30  45  62  88 111 139 181 227 259
#     4  10  19  30  45  63  82 112 150 182 217 258
#     4   9  17  28  44  62  81 112 147 177 213 256
#
# _framework density 15.434597999999999
#
# number of rings (size 3 to 8) (size 9 to 14) (size 15 to 20)
#    0.000    2.000    3.750    4.500    0.000    1.000 
#    0.000    1.250    0.000    0.375    0.000    1.750 
#    0.000    2.000    0.000    1.375    0.000    0.000 
#
# Total GULP energy -793017.634026 kJ/mol
# GULP energy per Si atom -12390.900532 kJ/mol
# Density = 1.539947 g / cm^3
# Si number density = 15.434598 Si / 1000 Ang^3
#
#
#
# Elastic Constant Matrix: (Units=GPa)
#
#
# Indices 1 2 3 4 5 6 
#
# 1 31.6723 9.0238 21.8238 0.0000 0.0000 0.0000
# 2 9.0238 94.2797 39.9450 0.0000 0.0000 0.0000
# 3 21.8238 39.9450 82.4598 0.0000 0.0000 0.0000
# 4 0.0000 0.0000 0.0000 30.0319 0.0000 0.0000
# 5 0.0000 0.0000 0.0000 0.0000 10.4121 0.0000
# 6 0.0000 0.0000 0.0000 0.0000 0.0000 12.6463
#
#
#
# Elastic Compliance Matrix: (Units=1/GPa)
#
#
# Indices 1 2 3 4 5 6 
#
# 1 0.038663 0.000799 -0.010620 0.000000 0.000000 0.000000
# 2 0.000799 0.013362 -0.006684 0.000000 0.000000 0.000000
# 3 -0.010620 -0.006684 0.018176 0.000000 0.000000 0.000000
# 4 0.000000 0.000000 0.000000 0.033298 0.000000 0.000000
# 5 0.000000 0.000000 0.000000 0.000000 0.096042 0.000000
# 6 0.000000 0.000000 0.000000 0.000000 0.000000 0.079075
#
#
# Mechanical properties :
#
#
# Convention : Reuss Voigt Hill
#
# Bulk Modulus (GPa) = 26.88823 38.88856 32.88840
# Shear Modulus (GPa) = 15.43098 19.79267 17.61182
#
# Velocity S-wave (km/s) = 3.16534 3.58489 3.38162
# Velocity P-wave (km/s) = 5.55137 6.51042 6.04993
#
# Compressibility (1/GPa) = 0.03719099
#
# Stress axis : x y z
#
# Youngs Moduli (GPa) = 25.86440 74.83716 55.01847
#
# Poissons Ratio (x) = -0.05978 0.58427
# Poissons Ratio (y) = -0.02066 0.36776
# Poissons Ratio (z) = 0.27467 0.50024
#
# Static dielectric constant tensor:
#      x y z
#    x 2.462610 0.000000 0.000000 
#    y 0.000000 3.314640 0.000000 
#    z 0.000000 0.000000 3.133380 
# 
# 
# High freq. dielectric constant tensor:
#      x y z
#    x 1.514030 0.000000 0.000000 
#    y 0.000000 1.607430 0.000000 
#    z 0.000000 0.000000 1.593130 
# 
# From -- ./inp_files/48418.got.cif
#   From: 2010.06.25/outbox.cif.g09.slc.cpg/sg71_25_cif.got.tgz:48418.got - 2010.06.28 04:59:45.
