data_PCOD8288778
_publ_section_title
;
Structure prediction by ZEFSAII (Michael W. Deem and Ramdas Pophale) SiO2 
 PCOD8288778
Probable space group: I M M M
;
_chemical_formula_sum "Si O2"
_cell_formula_units_Z 88
_cell_length_a 10.349033
_cell_length_b 23.364149
_cell_length_c 22.366063
_cell_angle_alpha 90.000000
_cell_angle_beta 90.000000
_cell_angle_gamma 90.000000
_cell_volume 5408.032375
_symmetry_space_group_name_H-M "I M M M"
_symmetry_group_IT_number 71
_symmetry_cell_setting 'orthorhombic'
loop_
_space_group_symop_operation_xyz
x,y,z
-x,-y,z
x,-y,-z
-x,y,-z
-x,-y,-z
x,y,-z
-x,y,z
x,-y,z
1/2+x,1/2+y,1/2+z
1/2-x,1/2-y,1/2+z
1/2+x,1/2-y,1/2-z
1/2-x,1/2+y,1/2-z
1/2-x,1/2-y,1/2-z
1/2+x,1/2+y,1/2-z
1/2-x,1/2+y,1/2+z
1/2+x,1/2-y,1/2+z
loop_
_atom_site_type_symbol
_atom_site_label
_atom_site_fract_x
_atom_site_fract_y
_atom_site_fract_z
Si Si1 0.644701 0.180413 0.790021
Si Si2 0.773396 0.646322 0.069925
Si Si3 0.644948 0.063867 0.741234
Si Si4 0.148695 0.737605 0.836853
Si Si5 0.857651 0.063613 0.357219
Si Si6 0.000000 0.562881 0.070211
O O1 0.500000 0.199158 0.811324
O O2 0.659188 0.111400 0.793510
O O3 0.755281 0.208194 0.831071
O O4 0.664448 0.197525 0.720740
O O5 0.804776 0.704865 0.103853
O O6 0.644365 0.613758 0.092141
O O7 0.876676 0.598630 0.089677
O O8 0.769638 0.660683 0.000000
O O9 0.500000 0.069554 0.712714
O O10 0.752983 0.077573 0.692815
O O11 0.664119 0.000000 0.768318
O O12 0.000000 0.758212 0.844329
O O13 0.000000 0.066061 0.327935
O O14 0.833386 0.000000 0.384927
O O15 0.000000 0.500000 0.101549
O O16 0.000000 0.554396 0.000000
#
# Coordination Sequence:
#
# PCOD8288778 Si02
#       6
#    16  16  16  16  16   8
#     4   9  18  32  49  70  93 121 154 190 237 290
#     4  11  21  33  48  66  91 124 165 206 239 274
#     4   9  17  31  52  74  95 120 156 200 240 282
#     4  10  19  32  48  68  92 121 159 197 236 280
#     4  10  21  33  45  65  95 128 161 198 241 284
#     4   9  18  30  46  68  90 118 159 205 240 264
#
# _framework density 16.272092000000001
#
# number of rings (size 3 to 8) (size 9 to 14) (size 15 to 20)
#    0.000    2.273    2.727    0.545    1.273    2.909 
#    0.000    0.909    0.000    0.000    0.000    0.000 
#    0.000    0.727    0.000    6.182    0.000    0.000 
#
# Total GULP energy -545239.870965 kJ/mol
# GULP energy per Si atom -12391.815249 kJ/mol
# Density = 1.623506 g / cm^3
# Si number density = 16.272092 Si / 1000 Ang^3
#
#
#
# Elastic Constant Matrix: (Units=GPa)
#
#
# Indices 1 2 3 4 5 6 
#
# 1 109.1515 62.5781 39.0549 0.0000 0.0000 0.0000
# 2 62.5781 106.0284 47.0090 0.0000 0.0000 0.0000
# 3 39.0549 47.0090 52.6001 0.0000 0.0000 0.0000
# 4 0.0000 0.0000 0.0000 26.6274 0.0000 0.0000
# 5 0.0000 0.0000 0.0000 0.0000 10.7023 0.0000
# 6 0.0000 0.0000 0.0000 0.0000 0.0000 26.7638
#
#
#
# Elastic Compliance Matrix: (Units=1/GPa)
#
#
# Indices 1 2 3 4 5 6 
#
# 1 0.014665 -0.006340 -0.005223 0.000000 0.000000 0.000000
# 2 -0.006340 0.018362 -0.011703 0.000000 0.000000 0.000000
# 3 -0.005223 -0.011703 0.033348 0.000000 0.000000 0.000000
# 4 0.000000 0.000000 0.000000 0.037555 0.000000 0.000000
# 5 0.000000 0.000000 0.000000 0.000000 0.093438 0.000000
# 6 0.000000 0.000000 0.000000 0.000000 0.000000 0.037364
#
#
# Mechanical properties :
#
#
# Convention : Reuss Voigt Hill
#
# Bulk Modulus (GPa) = 50.39247 62.78489 56.58868
# Shear Modulus (GPa) = 17.36854 20.76125 19.06489
#
# Velocity S-wave (km/s) = 3.27063 3.57582 3.42662
# Velocity P-wave (km/s) = 6.73042 7.46437 7.10688
#
# Compressibility (1/GPa) = 0.01984424
#
# Stress axis : x y z
#
# Youngs Moduli (GPa) = 68.19000 54.46107 29.98681
#
# Poissons Ratio (x) = 0.34527 0.15661
# Poissons Ratio (y) = 0.43231 0.35093
# Poissons Ratio (z) = 0.35613 0.63735
#
# Static dielectric constant tensor:
#      x y z
#    x 3.301730 0.000000 0.000000 
#    y 0.000000 3.168160 0.000000 
#    z 0.000000 0.000000 2.592220 
# 
# 
# High freq. dielectric constant tensor:
#      x y z
#    x 1.641800 0.000000 0.000000 
#    y 0.000000 1.620930 0.000000 
#    z 0.000000 0.000000 1.563530 
# 
# From -- ./inp_files/50526.got.cif
#   From: 2010.06.25/outbox.cif.g09.slc.cpg/sg71_26_cif.got.tgz:50526.got - 2010.06.28 04:59:45.
