data_PCOD8288236
_publ_section_title
;
Structure prediction by ZEFSAII (Michael W. Deem and Ramdas Pophale) SiO2 
 PCOD8288236
Probable space group: I M M M
;
_chemical_formula_sum "Si O2"
_cell_formula_units_Z 100
_cell_length_a 7.874725
_cell_length_b 23.474111
_cell_length_c 27.972575
_cell_angle_alpha 90.000000
_cell_angle_beta 90.000000
_cell_angle_gamma 90.000000
_cell_volume 5170.791154
_symmetry_space_group_name_H-M "I M M M"
_symmetry_group_IT_number 71
_symmetry_cell_setting 'orthorhombic'
loop_
_space_group_symop_operation_xyz
x,y,z
-x,-y,z
x,-y,-z
-x,y,-z
-x,-y,-z
x,y,-z
-x,y,z
x,-y,z
1/2+x,1/2+y,1/2+z
1/2-x,1/2-y,1/2+z
1/2+x,1/2-y,1/2-z
1/2-x,1/2+y,1/2-z
1/2-x,1/2-y,1/2-z
1/2+x,1/2+y,1/2-z
1/2-x,1/2+y,1/2+z
1/2+x,1/2-y,1/2+z
loop_
_atom_site_type_symbol
_atom_site_label
_atom_site_fract_x
_atom_site_fract_y
_atom_site_fract_z
Si Si1 0.000000 0.500000 0.368523
Si Si2 0.308312 0.672810 0.151226
Si Si3 0.193996 0.828173 0.925548
Si Si4 0.201556 0.117618 0.255739
Si Si5 0.000000 0.406854 0.448446
Si Si6 0.697502 0.201405 0.551292
Si Si7 0.693146 0.705099 0.678423
Si Si8 0.297203 0.500000 0.707451
O O1 0.000000 0.554140 0.402427
O O2 0.824379 0.500000 0.338695
O O3 0.500000 0.654562 0.146237
O O4 0.225146 0.630402 0.190919
O O5 0.235008 0.663029 0.097935
O O6 0.297545 0.737193 0.170773
O O7 0.326456 0.870942 0.948660
O O8 0.260509 0.765444 0.939666
O O9 0.200094 0.834426 0.868415
O O10 0.000000 0.839685 0.943686
O O11 0.274405 0.166691 0.220448
O O12 0.254055 0.054762 0.239007
O O13 0.000000 0.123549 0.254625
O O14 0.000000 0.439068 0.500000
O O15 0.775653 0.179247 0.500000
O O16 0.500000 0.202842 0.545383
O O17 0.500000 0.723584 0.689080
O O18 0.500000 0.500000 0.693482
#
# Coordination Sequence:
#
# PCOD8288236 Si02
#       8
#     4  16  16  16   8  16  16   8
#     4  12  27  44  56  84 100 126 195 234 272 342
#     4  10  19  29  46  79 110 134 168 209 260 323
#     4   9  19  35  55  78 104 139 185 220 258 320
#     4   9  18  34  55  75 101 136 172 211 268 326
#     4  12  25  38  56  76 106 142 176 234 289 313
#     4   9  18  33  50  71 104 144 180 210 248 312
#     4   9  17  31  49  74 105 140 172 207 258 322
#     4  10  22  45  65  77 103 141 179 232 281 315
#
# _framework density 19.339399
#
# number of rings (size 3 to 8) (size 9 to 14) (size 15 to 20)
#    0.000    2.400    0.000    3.480    4.480    3.200 
#    4.320    0.000    0.000    1.440    0.000    0.560 
#    0.000    4.480    0.000    0.000    0.000    0.000 
#
# Total GULP energy -619405.728297 kJ/mol
# GULP energy per Si atom -12388.114566 kJ/mol
# Density = 1.929538 g / cm^3
# Si number density = 19.339399 Si / 1000 Ang^3
#
#
#
# Elastic Constant Matrix: (Units=GPa)
#
#
# Indices 1 2 3 4 5 6 
#
# 1 54.3479 18.4756 25.7600 0.0000 0.0000 0.0000
# 2 18.4756 58.1372 55.2141 0.0000 0.0000 0.0000
# 3 25.7600 55.2141 190.6394 0.0000 0.0000 0.0000
# 4 0.0000 0.0000 0.0000 215.8765 0.0000 0.0000
# 5 0.0000 0.0000 0.0000 0.0000 -0.9828 0.0000
# 6 0.0000 0.0000 0.0000 0.0000 0.0000 14.8940
#
#
#
# Elastic Compliance Matrix: (Units=1/GPa)
#
#
# Indices 1 2 3 4 5 6 
#
# 1 0.020838 -0.005446 -0.001238 0.000000 0.000000 0.000000
# 2 -0.005446 0.025151 -0.006548 0.000000 0.000000 0.000000
# 3 -0.001238 -0.006548 0.007309 0.000000 0.000000 0.000000
# 4 0.000000 0.000000 0.000000 0.004632 0.000000 0.000000
# 5 0.000000 0.000000 0.000000 0.000000 -1.017523 0.000000
# 6 0.000000 0.000000 0.000000 0.000000 0.000000 0.067141
#
#
# Mechanical properties :
#
#
# Convention : Reuss Voigt Hill
#
# Bulk Modulus (GPa) = 37.26817 55.78044 46.52431
# Shear Modulus (GPa) = -5.83402 59.53587 26.85092
#
# Velocity S-wave (km/s) = -1.73874 5.55442 3.73017
# Velocity P-wave (km/s) = 3.90916 8.36905 6.53156
#
# Compressibility (1/GPa) = 0.02683255
#
# Stress axis : x y z
#
# Youngs Moduli (GPa) = 47.98836 39.76059 136.80979
#
# Poissons Ratio (x) = 0.21654 0.16943
# Poissons Ratio (y) = 0.26135 0.89588
# Poissons Ratio (z) = 0.05943 0.26037
#
# Static dielectric constant tensor:
#      x y z
#    x 3.375410 0.000000 0.000000 
#    y 0.000000 3.331020 0.000000 
#    z 0.000000 0.000000 4.624430 
# 
# 
# High freq. dielectric constant tensor:
#      x y z
#    x 1.742970 0.000000 0.000000 
#    y 0.000000 1.698310 0.000000 
#    z 0.000000 0.000000 1.773030 
# 
# From -- ./inp_files/68312.got.cif
#   From: 2010.06.25/outbox.cif.g09.slc.cpg/sg71_35_cif.got.tgz:68312.got - 2010.06.28 04:59:45.
