data_PCOD8288143
_publ_section_title
;
Structure prediction by ZEFSAII (Michael W. Deem and Ramdas Pophale) SiO2 
 PCOD8288143
Probable space group: I M M M
;
_chemical_formula_sum "Si O2"
_cell_formula_units_Z 128
_cell_length_a 23.013106
_cell_length_b 22.817563
_cell_length_c 14.841082
_cell_angle_alpha 90.000000
_cell_angle_beta 90.000000
_cell_angle_gamma 90.000000
_cell_volume 7793.096622
_symmetry_space_group_name_H-M "I M M M"
_symmetry_group_IT_number 71
_symmetry_cell_setting 'orthorhombic'
loop_
_space_group_symop_operation_xyz
x,y,z
-x,-y,z
x,-y,-z
-x,y,-z
-x,-y,-z
x,y,-z
-x,y,z
x,-y,z
1/2+x,1/2+y,1/2+z
1/2-x,1/2-y,1/2+z
1/2+x,1/2-y,1/2-z
1/2-x,1/2+y,1/2-z
1/2-x,1/2-y,1/2-z
1/2+x,1/2+y,1/2-z
1/2-x,1/2+y,1/2+z
1/2+x,1/2-y,1/2+z
loop_
_atom_site_type_symbol
_atom_site_label
_atom_site_fract_x
_atom_site_fract_y
_atom_site_fract_z
Si Si1 0.727427 0.834239 0.600393
Si Si2 0.565218 0.777191 0.893804
Si Si3 0.331952 0.141180 0.895510
Si Si4 0.862498 0.835868 0.601162
Si Si5 0.340996 0.607201 0.276054
Si Si6 0.282971 0.933532 0.253859
Si Si7 0.562308 0.432399 0.403164
Si Si8 0.212207 0.796044 0.103735
O O1 0.709623 0.854477 0.500000
O O2 0.795215 0.817752 0.603812
O O3 0.707145 0.886357 0.666154
O O4 0.698254 0.772068 0.625562
O O5 0.500000 0.782414 0.851149
O O6 0.607230 0.830106 0.862893
O O7 0.595486 0.716303 0.867072
O O8 0.560113 0.779712 0.000000
O O9 0.321458 0.084473 0.832745
O O10 0.279948 0.187840 0.881109
O O11 0.334930 0.121198 0.000000
O O12 0.879046 0.857927 0.500000
O O13 0.868224 0.886149 0.676059
O O14 0.284415 0.566443 0.273809
O O15 0.389618 0.574292 0.329249
O O16 0.326780 0.668672 0.325091
O O17 0.299965 0.000000 0.283237
O O18 0.581471 0.404901 0.500000
O O19 0.500000 0.404320 0.373680
O O20 0.552530 0.500000 0.417363
O O21 0.195255 0.810526 0.000000
#
# Coordination Sequence:
#
# PCOD8288143 Si02
#       8
#    16  16  16  16  16  16  16  16
#     4   9  17  30  47  64  92 124 152 187 228 272
#     4   9  16  27  44  65  90 120 154 185 217 269
#     4   9  17  29  46  66  95 123 146 184 234 278
#     4   9  17  28  42  65  94 125 152 180 219 265
#     4  10  19  28  48  68  96 120 153 192 229 271
#     4  10  21  31  44  67  92 122 160 190 225 273
#     4   9  18  33  50  65  86 120 158 194 232 273
#     4   9  16  27  45  71  94 119 148 179 232 289
#
# _framework density 16.424793000000001
#
# number of rings (size 3 to 8) (size 9 to 14) (size 15 to 20)
#    0.000    2.750    1.250    1.125    1.750    3.000 
#    0.000    0.000    0.000    1.500    0.000    2.625 
#    0.000    0.500    0.000    1.125    0.000    0.125 
#
# Total GULP energy -792877.463319 kJ/mol
# GULP energy per Si atom -12388.710364 kJ/mol
# Density = 1.638741 g / cm^3
# Si number density = 16.424793 Si / 1000 Ang^3
#
#
#
# Elastic Constant Matrix: (Units=GPa)
#
#
# Indices 1 2 3 4 5 6 
#
# 1 58.3025 18.3255 24.3794 0.0000 0.0000 0.0000
# 2 18.3255 77.3217 30.6192 0.0000 0.0000 0.0000
# 3 24.3794 30.6192 75.5049 0.0000 0.0000 0.0000
# 4 0.0000 0.0000 0.0000 19.2506 0.0000 0.0000
# 5 0.0000 0.0000 0.0000 0.0000 21.8277 0.0000
# 6 0.0000 0.0000 0.0000 0.0000 0.0000 13.3080
#
#
#
# Elastic Compliance Matrix: (Units=1/GPa)
#
#
# Indices 1 2 3 4 5 6 
#
# 1 0.020270 -0.002636 -0.005476 0.000000 0.000000 0.000000
# 2 -0.002636 0.015750 -0.005536 0.000000 0.000000 0.000000
# 3 -0.005476 -0.005536 0.017257 0.000000 0.000000 0.000000
# 4 0.000000 0.000000 0.000000 0.051946 0.000000 0.000000
# 5 0.000000 0.000000 0.000000 0.000000 0.045813 0.000000
# 6 0.000000 0.000000 0.000000 0.000000 0.000000 0.075143
#
#
# Mechanical properties :
#
#
# Convention : Reuss Voigt Hill
#
# Bulk Modulus (GPa) = 38.48825 39.75305 39.12065
# Shear Modulus (GPa) = 19.07407 20.06425 19.56916
#
# Velocity S-wave (km/s) = 3.41148 3.49891 3.45547
# Velocity P-wave (km/s) = 6.24512 6.37015 6.30794
#
# Compressibility (1/GPa) = 0.02598195
#
# Stress axis : x y z
#
# Youngs Moduli (GPa) = 49.33350 63.49262 57.94630
#
# Poissons Ratio (x) = 0.16734 0.31732
# Poissons Ratio (y) = 0.13002 0.32079
# Poissons Ratio (z) = 0.27016 0.35150
#
# Static dielectric constant tensor:
#      x y z
#    x 3.136090 0.000000 0.000000 
#    y 0.000000 2.851230 0.000000 
#    z 0.000000 0.000000 3.343860 
# 
# 
# High freq. dielectric constant tensor:
#      x y z
#    x 1.603750 0.000000 0.000000 
#    y 0.000000 1.605950 0.000000 
#    z 0.000000 0.000000 1.633890 
# 
# From -- ./inp_files/48415.got.cif
#   From: 2010.06.25/outbox.cif.g09.slc.cpg/sg71_25_cif.got.tgz:48415.got - 2010.06.28 04:59:45.
