data_PCOD8288237
_publ_section_title
;
Structure prediction by ZEFSAII (Michael W. Deem and Ramdas Pophale) SiO2 
 PCOD8288237
Probable space group: I M M M
;
_chemical_formula_sum "Si O2"
_cell_formula_units_Z 72
_cell_length_a 29.023302
_cell_length_b 15.479747
_cell_length_c 9.382850
_cell_angle_alpha 90.000000
_cell_angle_beta 90.000000
_cell_angle_gamma 90.000000
_cell_volume 4215.464659
_symmetry_space_group_name_H-M "I M M M"
_symmetry_group_IT_number 71
_symmetry_cell_setting 'orthorhombic'
loop_
_space_group_symop_operation_xyz
x,y,z
-x,-y,z
x,-y,-z
-x,y,-z
-x,-y,-z
x,y,-z
-x,y,z
x,-y,z
1/2+x,1/2+y,1/2+z
1/2-x,1/2-y,1/2+z
1/2+x,1/2-y,1/2-z
1/2-x,1/2+y,1/2-z
1/2-x,1/2-y,1/2-z
1/2+x,1/2+y,1/2-z
1/2-x,1/2+y,1/2+z
1/2+x,1/2-y,1/2+z
loop_
_atom_site_type_symbol
_atom_site_label
_atom_site_fract_x
_atom_site_fract_y
_atom_site_fract_z
Si Si1 0.554447 0.000000 0.841566
Si Si2 0.855944 0.257990 0.834895
Si Si3 0.802421 0.400501 0.334934
Si Si4 0.448339 0.163755 0.663303
Si Si5 0.197839 0.905495 0.169170
O O1 0.570281 0.085078 0.758543
O O2 0.500000 0.000000 0.851678
O O3 0.576653 0.000000 0.000000
O O4 0.835070 0.340177 0.756653
O O5 0.911650 0.258583 0.815461
O O6 0.836214 0.168432 0.770071
O O7 0.842148 0.265652 0.000000
O O8 0.807843 0.375907 0.500000
O O9 0.816812 0.500000 0.309285
O O10 0.749976 0.384833 0.283702
O O11 0.448667 0.132017 0.500000
O O12 0.500000 0.194407 0.707978
O O13 0.182957 0.000000 0.229459
O O14 0.195352 0.908997 0.000000
#
# Coordination Sequence:
#
# PCOD8288237 Si02
#       5
#     8  16  16  16  16
#     4   9  17  29  45  63  83 113 153 187 215 257
#     4  10  19  29  47  70  88 116 156 189 217 261
#     4   9  18  31  46  66  94 123 145 176 227 274
#     4   9  18  31  44  61  90 122 148 180 224 266
#     4   8  15  30  49  67  89 117 149 184 226 273
#
# _framework density 17.079968999999998
#
# number of rings (size 3 to 8) (size 9 to 14) (size 15 to 20)
#    0.000    3.000    0.000    2.333    1.556    2.667 
#    0.000    0.000    0.000    2.667    0.000    4.667 
#    0.000    0.000    0.000    7.556    0.000    8.000 
#
# Total GULP energy -446171.246342 kJ/mol
# GULP energy per Si atom -12393.645732 kJ/mol
# Density = 1.704109 g / cm^3
# Si number density = 17.079969 Si / 1000 Ang^3
#
#
#
# Elastic Constant Matrix: (Units=GPa)
#
#
# Indices 1 2 3 4 5 6 
#
# 1 100.0223 69.2536 27.2750 0.0000 0.0000 0.0000
# 2 69.2536 100.6160 30.0200 0.0000 0.0000 0.0000
# 3 27.2750 30.0200 43.9510 0.0000 0.0000 0.0000
# 4 0.0000 0.0000 0.0000 16.7488 0.0000 0.0000
# 5 0.0000 0.0000 0.0000 0.0000 16.4649 0.0000
# 6 0.0000 0.0000 0.0000 0.0000 0.0000 26.2840
#
#
#
# Elastic Compliance Matrix: (Units=1/GPa)
#
#
# Indices 1 2 3 4 5 6 
#
# 1 0.019567 -0.012365 -0.003697 0.000000 0.000000 0.000000
# 2 -0.012365 0.020296 -0.006190 0.000000 0.000000 0.000000
# 3 -0.003697 -0.006190 0.029275 0.000000 0.000000 0.000000
# 4 0.000000 0.000000 0.000000 0.059706 0.000000 0.000000
# 5 0.000000 0.000000 0.000000 0.000000 0.060735 0.000000
# 6 0.000000 0.000000 0.000000 0.000000 0.000000 0.038046
#
#
# Mechanical properties :
#
#
# Convention : Reuss Voigt Hill
#
# Bulk Modulus (GPa) = 40.59339 55.29849 47.94594
# Shear Modulus (GPa) = 17.83544 19.76891 18.80218
#
# Velocity S-wave (km/s) = 3.23496 3.40580 3.32148
# Velocity P-wave (km/s) = 6.14586 6.92188 6.54538
#
# Compressibility (1/GPa) = 0.02463455
#
# Stress axis : x y z
#
# Youngs Moduli (GPa) = 51.10585 49.27021 34.15901
#
# Poissons Ratio (x) = 0.60922 0.12630
# Poissons Ratio (y) = 0.63192 0.21143
# Poissons Ratio (z) = 0.18896 0.30496
#
# Static dielectric constant tensor:
#      x y z
#    x 3.322270 0.000000 0.000000 
#    y 0.000000 3.373210 0.000000 
#    z 0.000000 0.000000 3.041980 
# 
# 
# High freq. dielectric constant tensor:
#      x y z
#    x 1.660850 0.000000 0.000000 
#    y 0.000000 1.640020 0.000000 
#    z 0.000000 0.000000 1.635210 
# 
# From -- ./inp_files/6423.got.cif
#   From: 2010.06.25/outbox.cif.g09.slc.cpg/sg71_4_cif.got.tgz:6423.got - 2010.06.28 04:59:45.
