data_PCOD8288209
_publ_section_title
;
Structure prediction by ZEFSAII (Michael W. Deem and Ramdas Pophale) SiO2 
 PCOD8288209
Probable space group: I M M M
;
_chemical_formula_sum "Si O2"
_cell_formula_units_Z 88
_cell_length_a 9.196150
_cell_length_b 24.714669
_cell_length_c 20.022988
_cell_angle_alpha 90.000000
_cell_angle_beta 90.000000
_cell_angle_gamma 90.000000
_cell_volume 4550.820775
_symmetry_space_group_name_H-M "I M M M"
_symmetry_group_IT_number 71
_symmetry_cell_setting 'orthorhombic'
loop_
_space_group_symop_operation_xyz
x,y,z
-x,-y,z
x,-y,-z
-x,y,-z
-x,-y,-z
x,y,-z
-x,y,z
x,-y,z
1/2+x,1/2+y,1/2+z
1/2-x,1/2-y,1/2+z
1/2+x,1/2-y,1/2-z
1/2-x,1/2+y,1/2-z
1/2-x,1/2-y,1/2-z
1/2+x,1/2+y,1/2-z
1/2-x,1/2+y,1/2+z
1/2+x,1/2-y,1/2+z
loop_
_atom_site_type_symbol
_atom_site_label
_atom_site_fract_x
_atom_site_fract_y
_atom_site_fract_z
Si Si1 0.330773 0.166705 0.924718
Si Si2 0.659597 0.063393 0.376937
Si Si3 0.838646 0.064743 0.500000
Si Si4 0.666396 0.710681 0.300105
Si Si5 0.340175 0.590965 0.248344
Si Si6 0.667460 0.560079 0.394027
O O1 0.500000 0.165201 0.904099
O O2 0.245564 0.205148 0.872302
O O3 0.270713 0.105205 0.925878
O O4 0.311788 0.190052 0.000000
O O5 0.500000 0.089622 0.382434
O O6 0.759565 0.088670 0.434710
O O7 0.719798 0.075680 0.304493
O O8 0.649589 0.000000 0.388593
O O9 0.000000 0.088675 0.500000
O O10 0.840968 0.000000 0.500000
O O11 0.500000 0.730416 0.311742
O O12 0.750000 0.750000 0.250000
O O13 0.668062 0.653799 0.263737
O O14 0.500000 0.575892 0.220049
O O15 0.307960 0.557160 0.314712
O O16 0.500000 0.576039 0.409649
O O17 0.702976 0.500000 0.422809
#
# Coordination Sequence:
#
# PCOD8288209 Si02
#       6
#    16  16   8  16  16  16
#     4  10  21  36  55  81 113 148 185 226 272 324
#     4  10  19  29  44  69 100 132 167 209 254 301
#     4   9  17  29  45  63  87 127 171 205 245 299
#     4  10  21  38  61  84 106 135 174 222 273 326
#     4   9  18  32  50  73 100 132 170 211 258 312
#     4   9  18  32  50  75 109 148 188 227 265 311
#
# _framework density 19.337171000000001
#
# number of rings (size 3 to 8) (size 9 to 14) (size 15 to 20)
#    0.000    2.455    0.000    3.545    0.000    8.727 
#    0.000    1.818    2.000    0.000    0.000    0.000 
#    0.000    0.000    0.000    0.000    0.000    0.000 
#
# Total GULP energy -545432.878198 kJ/mol
# GULP energy per Si atom -12396.201777 kJ/mol
# Density = 1.929316 g / cm^3
# Si number density = 19.337171 Si / 1000 Ang^3
#
#
#
# Elastic Constant Matrix: (Units=GPa)
#
#
# Indices 1 2 3 4 5 6 
#
# 1 162.4833 22.8148 72.3642 0.0000 0.0000 0.0000
# 2 22.8148 47.3804 20.9572 0.0000 0.0000 0.0000
# 3 72.3642 20.9572 106.5179 -0.0001 0.0000 0.0000
# 4 0.0000 0.0000 -0.0001 6.4985 0.0000 0.0000
# 5 0.0000 0.0000 0.0000 0.0000 33.8583 0.0000
# 6 0.0000 0.0000 0.0000 0.0000 0.0000 26.3241
#
#
#
# Elastic Compliance Matrix: (Units=1/GPa)
#
#
# Indices 1 2 3 4 5 6 
#
# 1 0.008959 -0.001776 -0.005737 0.000000 0.000000 0.000000
# 2 -0.001776 0.023470 -0.003411 0.000000 0.000000 0.000000
# 3 -0.005737 -0.003411 0.013957 0.000000 0.000000 0.000000
# 4 0.000000 0.000000 0.000000 0.153882 0.000000 0.000000
# 5 0.000000 0.000000 0.000000 0.000000 0.029535 0.000000
# 6 0.000000 0.000000 0.000000 0.000000 0.000000 0.037988
#
#
# Mechanical properties :
#
#
# Convention : Reuss Voigt Hill
#
# Bulk Modulus (GPa) = 40.75455 60.96154 50.85804
# Shear Modulus (GPa) = 16.78884 26.68588 21.73736
#
# Velocity S-wave (km/s) = 2.94975 3.71891 3.35643
# Velocity P-wave (km/s) = 5.72039 7.07350 6.43262
#
# Compressibility (1/GPa) = 0.02453714
#
# Stress axis : x y z
#
# Youngs Moduli (GPa) = 111.62109 42.60793 71.65100
#
# Poissons Ratio (x) = 0.07569 0.41105
# Poissons Ratio (y) = 0.19829 0.24439
# Poissons Ratio (z) = 0.64035 0.14533
#
# Static dielectric constant tensor:
#      x y z
#    x 3.821010 0.000000 0.000000 
#    y 0.000000 3.244360 0.000000 
#    z 0.000000 0.000000 3.571750 
# 
# 
# High freq. dielectric constant tensor:
#      x y z
#    x 1.764070 0.000000 0.000000 
#    y 0.000000 1.712400 0.000000 
#    z 0.000000 0.000000 1.759250 
# 
# From -- ./inp_files/50541.got.cif
#   From: 2010.06.25/outbox.cif.g09.slc.cpg/sg71_26_cif.got.tgz:50541.got - 2010.06.28 04:59:45.
