data_PCOD8288103
_publ_section_title
;
Structure prediction by ZEFSAII (Michael W. Deem and Ramdas Pophale) SiO2 
 PCOD8288103
Probable space group: I M M M
;
_chemical_formula_sum "Si O2"
_cell_formula_units_Z 88
_cell_length_a 9.149406
_cell_length_b 27.214118
_cell_length_c 26.170463
_cell_angle_alpha 90.000000
_cell_angle_beta 90.000000
_cell_angle_gamma 90.000000
_cell_volume 6516.262474
_symmetry_space_group_name_H-M "I M M M"
_symmetry_group_IT_number 71
_symmetry_cell_setting 'orthorhombic'
loop_
_space_group_symop_operation_xyz
x,y,z
-x,-y,z
x,-y,-z
-x,y,-z
-x,-y,-z
x,y,-z
-x,y,z
x,-y,z
1/2+x,1/2+y,1/2+z
1/2-x,1/2-y,1/2+z
1/2+x,1/2-y,1/2-z
1/2-x,1/2+y,1/2-z
1/2-x,1/2-y,1/2-z
1/2+x,1/2+y,1/2-z
1/2-x,1/2+y,1/2+z
1/2+x,1/2-y,1/2+z
loop_
_atom_site_type_symbol
_atom_site_label
_atom_site_fract_x
_atom_site_fract_y
_atom_site_fract_z
Si Si1 0.167274 0.556490 0.803521
Si Si2 0.169886 0.441971 0.000000
Si Si3 0.661639 0.695374 0.148895
Si Si4 0.329579 0.728417 0.701276
Si Si5 0.161698 0.132435 0.248189
Si Si6 0.173631 0.902252 0.400482
O O1 0.181964 0.500000 0.787637
O O2 0.222456 0.588466 0.754855
O O3 0.265023 0.566566 0.853101
O O4 0.000000 0.570549 0.815820
O O5 0.247985 0.419961 0.951013
O O6 0.190031 0.500000 0.000000
O O7 0.000000 0.427202 0.000000
O O8 0.500000 0.715409 0.136993
O O9 0.767253 0.743222 0.151207
O O10 0.663215 0.666064 0.201759
O O11 0.709900 0.655918 0.105847
O O12 0.500000 0.739830 0.705859
O O13 0.250000 0.750000 0.750000
O O14 0.300814 0.669147 0.700504
O O15 0.000000 0.109549 0.240694
O O16 0.000000 0.911220 0.403471
#
# Coordination Sequence:
#
# PCOD8288103 Si02
#       6
#    16   8  16  16  16  16
#     4  10  19  28  38  53  71  91 118 151 183 213
#     4  11  23  35  45  57  71  87 113 151 190 225
#     4   8  15  26  38  53  70  86 107 135 168 209
#     4   9  15  22  34  52  71  89 109 133 164 203
#     4   8  15  25  35  50  70  91 115 139 166 205
#     4  10  20  32  44  56  69  88 115 145 181 225
#
# _framework density 13.504673
#
# number of rings (size 3 to 8) (size 9 to 14) (size 15 to 20)
#    0.000    2.818    0.000    4.636    0.000   12.364 
#    0.000    0.000    0.000    0.000    0.000    0.000 
#    0.000    0.000    0.000    0.000    0.000    0.000 
#
# Total GULP energy -545146.605244 kJ/mol
# GULP energy per Si atom -12389.695574 kJ/mol
# Density = 1.347394 g / cm^3
# Si number density = 13.504673 Si / 1000 Ang^3
#
#
#
# Elastic Constant Matrix: (Units=GPa)
#
#
# Indices 1 2 3 4 5 6 
#
# 1 103.9092 63.3362 33.3618 0.0000 0.0000 0.0000
# 2 63.3362 87.7135 39.2925 0.0000 0.0000 0.0000
# 3 33.3618 39.2925 27.9033 0.0000 0.0000 0.0000
# 4 0.0000 0.0000 0.0000 22.2883 0.0000 0.0000
# 5 0.0000 0.0000 0.0000 0.0000 20.7833 0.0000
# 6 0.0000 0.0000 0.0000 0.0000 0.0000 25.1234
#
#
#
# Elastic Compliance Matrix: (Units=1/GPa)
#
#
# Indices 1 2 3 4 5 6 
#
# 1 0.017934 -0.009059 -0.008686 0.000000 0.000000 0.000000
# 2 -0.009059 0.035456 -0.039097 0.000000 0.000000 0.000000
# 3 -0.008686 -0.039097 0.101278 0.000000 0.000000 0.000000
# 4 0.000000 0.000000 0.000000 0.044867 0.000000 0.000000
# 5 0.000000 0.000000 0.000000 0.000000 0.048116 0.000000
# 6 0.000000 0.000000 0.000000 0.000000 0.000000 0.039804
#
#
# Mechanical properties :
#
#
# Convention : Reuss Voigt Hill
#
# Bulk Modulus (GPa) = 24.39939 54.61189 39.50564
# Shear Modulus (GPa) = 12.05398 19.20801 15.63100
#
# Velocity S-wave (km/s) = 2.99085 3.77546 3.40582
# Velocity P-wave (km/s) = 5.48028 7.71573 6.69201
#
# Compressibility (1/GPa) = 0.04098463
#
# Stress axis : x y z
#
# Youngs Moduli (GPa) = 55.75877 28.20391 9.87377
#
# Poissons Ratio (x) = 0.25550 0.08577
# Poissons Ratio (y) = 0.50512 0.38603
# Poissons Ratio (z) = 0.48433 1.10269
#
# Static dielectric constant tensor:
#      x y z
#    x 2.999080 0.000000 0.000000 
#    y 0.000000 3.165960 0.000000 
#    z 0.000000 0.000000 4.918000 
# 
# 
# High freq. dielectric constant tensor:
#      x y z
#    x 1.532710 0.000000 0.000000 
#    y 0.000000 1.510150 0.000000 
#    z 0.000000 0.000000 1.449850 
# 
# From -- ./inp_files/16845.got.cif
#   From: 2010.06.25/outbox.cif.g09.slc.cpg/sg71_9_cif.got.tgz:16845.got - 2010.06.28 04:59:45.
