data_PCOD8288593
_publ_section_title
;
Structure prediction by ZEFSAII (Michael W. Deem and Ramdas Pophale) SiO2 
 PCOD8288593
Probable space group: I M M M
;
_chemical_formula_sum "Si O2"
_cell_formula_units_Z 104
_cell_length_a 26.175108
_cell_length_b 9.214506
_cell_length_c 24.120634
_cell_angle_alpha 90.000000
_cell_angle_beta 90.000000
_cell_angle_gamma 90.000000
_cell_volume 5817.672351
_symmetry_space_group_name_H-M "I M M M"
_symmetry_group_IT_number 71
_symmetry_cell_setting 'orthorhombic'
loop_
_space_group_symop_operation_xyz
x,y,z
-x,-y,z
x,-y,-z
-x,y,-z
-x,-y,-z
x,y,-z
-x,y,z
x,-y,z
1/2+x,1/2+y,1/2+z
1/2-x,1/2-y,1/2+z
1/2+x,1/2-y,1/2-z
1/2-x,1/2+y,1/2-z
1/2-x,1/2-y,1/2-z
1/2+x,1/2+y,1/2-z
1/2-x,1/2+y,1/2+z
1/2+x,1/2-y,1/2+z
loop_
_atom_site_type_symbol
_atom_site_label
_atom_site_fract_x
_atom_site_fract_y
_atom_site_fract_z
Si Si1 0.140411 0.169524 0.936327
Si Si2 0.682031 0.827903 0.841912
Si Si3 0.628928 0.835454 0.269855
Si Si4 0.109022 0.673332 0.561673
Si Si5 0.557901 0.670430 0.346687
Si Si6 0.214385 0.666177 0.138132
Si Si7 0.000000 0.657945 0.434414
O O1 0.090441 0.215274 0.901049
O O2 0.190168 0.256615 0.915757
O O3 0.152465 0.000000 0.929039
O O4 0.129339 0.209790 0.000000
O O5 0.647988 0.778578 0.789636
O O6 0.652676 0.774805 0.896811
O O7 0.735361 0.746608 0.841285
O O8 0.691968 0.000000 0.840597
O O9 0.581323 0.741392 0.291355
O O10 0.675867 0.821086 0.311297
O O11 0.609548 0.000000 0.265368
O O12 0.123467 0.728842 0.500000
O O13 0.104246 0.500000 0.561820
O O14 0.053440 0.738354 0.581261
O O15 0.500000 0.725653 0.355510
O O16 0.559431 0.500000 0.337426
O O17 0.226652 0.500000 0.122996
O O18 0.000000 0.500000 0.405199
O O19 0.000000 0.636490 0.500000
#
# Coordination Sequence:
#
# PCOD8288593 Si02
#       7
#    16  16  16  16  16  16   8
#     4   9  18  33  53  76 101 131 167 206 249 297
#     4  10  19  31  48  73  98 123 164 209 247 290
#     4   9  19  34  49  69  97 130 167 205 246 294
#     4   8  14  25  42  65  92 118 145 185 236 283
#     4   9  18  33  53  76 102 132 165 204 252 304
#     4  10  20  33  49  68  96 133 166 200 247 297
#     4   7  10  20  38  58  83 113 139 167 214 271
#
# _framework density 17.876563999999998
#
# number of rings (size 3 to 8) (size 9 to 14) (size 15 to 20)
#    0.000    3.000    0.000    1.846    0.000    2.769 
#    1.385    3.077    0.000    0.000    0.000    4.308 
#    0.000    1.846    0.000    0.000    0.000    0.000 
#
# Total GULP energy -644548.498815 kJ/mol
# GULP energy per Si atom -12395.163439 kJ/mol
# Density = 1.783588 g / cm^3
# Si number density = 17.876564 Si / 1000 Ang^3
#
#
#
# Elastic Constant Matrix: (Units=GPa)
#
#
# Indices 1 2 3 4 5 6 
#
# 1 78.8985 37.3950 49.2642 0.0000 0.0000 0.0000
# 2 37.3950 44.4914 34.4908 0.0000 0.0000 0.0000
# 3 49.2642 34.4908 109.9815 0.0000 0.0000 0.0000
# 4 0.0000 0.0000 0.0000 20.2202 0.0000 0.0000
# 5 0.0000 0.0000 0.0000 0.0000 15.9842 0.0000
# 6 0.0000 0.0000 0.0000 0.0000 0.0000 21.2473
#
#
#
# Elastic Compliance Matrix: (Units=1/GPa)
#
#
# Indices 1 2 3 4 5 6 
#
# 1 0.023513 -0.015323 -0.005727 0.000000 0.000000 0.000000
# 2 -0.015323 0.039681 -0.005581 0.000000 0.000000 0.000000
# 3 -0.005727 -0.005581 0.013408 0.000000 0.000000 0.000000
# 4 0.000000 0.000000 0.000000 0.049456 0.000000 0.000000
# 5 0.000000 0.000000 0.000000 0.000000 0.062562 0.000000
# 6 0.000000 0.000000 0.000000 0.000000 0.000000 0.047065
#
#
# Mechanical properties :
#
#
# Convention : Reuss Voigt Hill
#
# Bulk Modulus (GPa) = 42.84269 52.85238 47.84753
# Shear Modulus (GPa) = 16.85058 18.97176 17.91117
#
# Velocity S-wave (km/s) = 3.07352 3.26124 3.16877
# Velocity P-wave (km/s) = 6.05089 6.61893 6.34127
#
# Compressibility (1/GPa) = 0.02334121
#
# Stress axis : x y z
#
# Youngs Moduli (GPa) = 42.52992 25.20067 74.58362
#
# Poissons Ratio (x) = 0.38615 0.42712
# Poissons Ratio (y) = 0.65169 0.41623
# Poissons Ratio (z) = 0.24356 0.14064
#
# Static dielectric constant tensor:
#      x y z
#    x 3.501260 0.000000 0.000000 
#    y 0.000000 3.085190 0.000000 
#    z 0.000000 0.000000 3.363620 
# 
# 
# High freq. dielectric constant tensor:
#      x y z
#    x 1.697980 0.000000 0.000000 
#    y 0.000000 1.658570 0.000000 
#    z 0.000000 0.000000 1.687410 
# 
# From -- ./inp_files/66786.got.cif
#   From: 2010.06.25/outbox.cif.g09.slc.cpg/sg71_34_cif.got.tgz:66786.got - 2010.06.28 04:59:45.
