data_PCOD8288122
_publ_section_title
;
Structure prediction by ZEFSAII (Michael W. Deem and Ramdas Pophale) SiO2 
 PCOD8288122
Probable space group: I M M M
;
_chemical_formula_sum "Si O2"
_cell_formula_units_Z 128
_cell_length_a 28.149793
_cell_length_b 18.143797
_cell_length_c 15.329751
_cell_angle_alpha 90.000000
_cell_angle_beta 90.000000
_cell_angle_gamma 90.000000
_cell_volume 7829.580334
_symmetry_space_group_name_H-M "I M M M"
_symmetry_group_IT_number 71
_symmetry_cell_setting 'orthorhombic'
loop_
_space_group_symop_operation_xyz
x,y,z
-x,-y,z
x,-y,-z
-x,y,-z
-x,-y,-z
x,y,-z
-x,y,z
x,-y,z
1/2+x,1/2+y,1/2+z
1/2-x,1/2-y,1/2+z
1/2+x,1/2-y,1/2-z
1/2-x,1/2+y,1/2-z
1/2-x,1/2-y,1/2-z
1/2+x,1/2+y,1/2-z
1/2-x,1/2+y,1/2+z
1/2+x,1/2-y,1/2+z
loop_
_atom_site_type_symbol
_atom_site_label
_atom_site_fract_x
_atom_site_fract_y
_atom_site_fract_z
Si Si1 0.361362 0.267603 0.771676
Si Si2 0.220300 0.722714 0.400138
Si Si3 0.446103 0.198059 0.299591
Si Si4 0.112833 0.416352 0.100197
Si Si5 0.629489 0.581391 0.286778
Si Si6 0.182219 0.290358 0.900824
Si Si7 0.223076 0.081033 0.099452
Si Si8 0.553773 0.346571 0.402078
O O1 0.324752 0.237026 0.840704
O O2 0.411057 0.222297 0.780286
O O3 0.368646 0.355237 0.787972
O O4 0.344047 0.260451 0.670407
O O5 0.203125 0.722734 0.500000
O O6 0.261007 0.784867 0.384885
O O7 0.239548 0.642832 0.370706
O O8 0.500000 0.187380 0.265110
O O9 0.428186 0.121990 0.342589
O O10 0.442614 0.262169 0.371128
O O11 0.120047 0.500000 0.133043
O O12 0.163449 0.374005 0.111104
O O13 0.096154 0.414940 0.000000
O O14 0.624569 0.500000 0.244067
O O15 0.676649 0.585869 0.343226
O O16 0.583939 0.596156 0.346258
O O17 0.171166 0.262085 0.000000
O O18 0.246804 0.000000 0.108980
O O19 0.208015 0.096964 0.000000
O O20 0.572965 0.348401 0.500000
O O21 0.500000 0.374587 0.395487
#
# Coordination Sequence:
#
# PCOD8288122 Si02
#       8
#    16  16  16  16  16  16  16  16
#     4  10  19  32  51  67  92 121 158 198 234 280
#     4  10  19  32  51  71  90 122 163 198 238 286
#     4   9  18  31  46  64  87 120 160 201 244 286
#     4   9  17  28  42  64  96 132 168 202 232 268
#     4  10  19  28  41  63  91 122 153 185 225 272
#     4   9  17  29  46  67  93 125 157 187 227 280
#     4   9  17  28  43  67  96 120 146 186 232 277
#     4   9  17  28  42  62  89 122 158 191 224 272
#
# _framework density 16.348258000000001
#
# number of rings (size 3 to 8) (size 9 to 14) (size 15 to 20)
#    0.000    2.625    1.250    1.125    0.000    5.000 
#    0.000    4.375    0.000    1.500    0.000    0.000 
#    0.000    0.000    0.000   13.875    0.000    0.000 
#
# Total GULP energy -793126.522579 kJ/mol
# GULP energy per Si atom -12392.601915 kJ/mol
# Density = 1.631105 g / cm^3
# Si number density = 16.348258 Si / 1000 Ang^3
#
#
#
# Elastic Constant Matrix: (Units=GPa)
#
#
# Indices 1 2 3 4 5 6 
#
# 1 114.7821 53.5859 36.8147 0.0000 0.0000 0.0000
# 2 53.5859 131.3727 23.3277 0.0000 0.0000 0.0000
# 3 36.8147 23.3277 34.0272 0.0000 0.0000 0.0000
# 4 0.0000 0.0000 0.0000 11.3040 0.0000 0.0000
# 5 0.0000 0.0000 0.0000 0.0000 16.9442 0.0000
# 6 0.0000 0.0000 0.0000 0.0000 0.0000 17.4421
#
#
#
# Elastic Compliance Matrix: (Units=1/GPa)
#
#
# Indices 1 2 3 4 5 6 
#
# 1 0.014709 -0.003614 -0.013436 0.000000 0.000000 0.000000
# 2 -0.003614 0.009555 -0.002641 0.000000 0.000000 0.000000
# 3 -0.013436 -0.002641 0.045735 0.000000 0.000000 0.000000
# 4 0.000000 0.000000 0.000000 0.088464 0.000000 0.000000
# 5 0.000000 0.000000 0.000000 0.000000 0.059017 0.000000
# 6 0.000000 0.000000 0.000000 0.000000 0.000000 0.057332
#
#
# Mechanical properties :
#
#
# Convention : Reuss Voigt Hill
#
# Bulk Modulus (GPa) = 32.66073 56.40431 44.53252
# Shear Modulus (GPa) = 15.41305 20.23496 17.82400
#
# Velocity S-wave (km/s) = 3.07383 3.52198 3.30550
# Velocity P-wave (km/s) = 5.71134 7.14952 6.47051
#
# Compressibility (1/GPa) = 0.03061781
#
# Stress axis : x y z
#
# Youngs Moduli (GPa) = 67.98700 104.65898 21.86486
#
# Poissons Ratio (x) = 0.37821 0.29378
# Poissons Ratio (y) = 0.24569 0.05774
# Poissons Ratio (z) = 0.91349 0.27637
#
# Static dielectric constant tensor:
#      x y z
#    x 3.193520 0.000000 0.000000 
#    y 0.000000 3.325670 0.000000 
#    z 0.000000 0.000000 2.669420 
# 
# 
# High freq. dielectric constant tensor:
#      x y z
#    x 1.623050 0.000000 0.000000 
#    y 0.000000 1.634660 0.000000 
#    z 0.000000 0.000000 1.576830 
# 
# From -- ./inp_files/48426.got.cif
#   From: 2010.06.25/outbox.cif.g09.slc.cpg/sg71_25_cif.got.tgz:48426.got - 2010.06.28 04:59:45.
