data_PCOD8288822
_publ_section_title
;
Structure prediction by ZEFSAII (Michael W. Deem and Ramdas Pophale) SiO2 
 PCOD8288822
Probable space group: I M M M
;
_chemical_formula_sum "Si O2"
_cell_formula_units_Z 120
_cell_length_a 9.251271
_cell_length_b 25.631508
_cell_length_c 27.757820
_cell_angle_alpha 90.000000
_cell_angle_beta 90.000000
_cell_angle_gamma 90.000000
_cell_volume 6582.046049
_symmetry_space_group_name_H-M "I M M M"
_symmetry_group_IT_number 71
_symmetry_cell_setting 'orthorhombic'
loop_
_space_group_symop_operation_xyz
x,y,z
-x,-y,z
x,-y,-z
-x,y,-z
-x,-y,-z
x,y,-z
-x,y,z
x,-y,z
1/2+x,1/2+y,1/2+z
1/2-x,1/2-y,1/2+z
1/2+x,1/2-y,1/2-z
1/2-x,1/2+y,1/2-z
1/2-x,1/2-y,1/2-z
1/2+x,1/2+y,1/2-z
1/2-x,1/2+y,1/2+z
1/2+x,1/2-y,1/2+z
loop_
_atom_site_type_symbol
_atom_site_label
_atom_site_fract_x
_atom_site_fract_y
_atom_site_fract_z
Si Si1 0.828351 0.500000 0.054317
Si Si2 0.669693 0.104030 0.608187
Si Si3 0.838820 0.438059 0.550650
Si Si4 0.669009 0.789764 0.445361
Si Si5 0.329018 0.155234 0.211657
Si Si6 0.663015 0.346978 0.190470
Si Si7 0.171994 0.442282 0.346968
Si Si8 0.338481 0.239193 0.865064
O O1 0.774506 0.448511 0.082322
O O2 0.000000 0.500000 0.051411
O O3 0.764512 0.500000 0.000000
O O4 0.500000 0.101252 0.619823
O O5 0.706540 0.152234 0.573185
O O6 0.753144 0.109611 0.658967
O O7 0.759131 0.420928 0.500000
O O8 0.848020 0.500000 0.552784
O O9 0.763574 0.421217 0.601267
O O10 0.000000 0.414519 0.548618
O O11 0.725727 0.785156 0.500000
O O12 0.500000 0.779463 0.442273
O O13 0.743875 0.744829 0.413357
O O14 0.500000 0.161786 0.220624
O O15 0.245253 0.165598 0.260460
O O16 0.284750 0.097093 0.195119
O O17 0.274615 0.195456 0.170774
O O18 0.500000 0.366539 0.200735
O O19 0.661265 0.293598 0.161954
O O20 0.231855 0.500000 0.333798
O O21 0.000000 0.444424 0.352962
O O22 0.500000 0.223058 0.880692
#
# Coordination Sequence:
#
# PCOD8288822 Si02
#       8
#     8  16  16  16  16  16  16  16
#     4   9  16  28  51  81 107 131 165 209 250 289
#     4   9  17  31  51  75 101 130 165 205 245 289
#     4   7   9  15  30  52  78 107 135 163 201 252
#     4   9  17  30  50  75 102 132 164 197 238 292
#     4  10  19  32  50  71  94 121 159 205 249 292
#     4  10  20  34  50  68  93 126 165 204 247 294
#     4   8  14  25  41  63  90 117 146 183 229 284
#     4   9  19  33  49  71  97 125 159 202 247 292
#
# _framework density 18.231414000000001
#
# number of rings (size 3 to 8) (size 9 to 14) (size 15 to 20)
#    0.000    3.133    0.000    2.400    0.000    2.933 
#    1.200    1.000    0.000    4.000    0.000    0.000 
#    0.000    0.000    0.000    4.800    0.000    3.733 
#
# Total GULP energy -743421.295348 kJ/mol
# GULP energy per Si atom -12390.354922 kJ/mol
# Density = 1.818992 g / cm^3
# Si number density = 18.231414 Si / 1000 Ang^3
#
#
#
# Elastic Constant Matrix: (Units=GPa)
#
#
# Indices 1 2 3 4 5 6 
#
# 1 48.2863 25.0546 49.1389 0.0000 0.0000 0.0000
# 2 25.0546 66.0984 38.0133 0.0000 0.0000 0.0000
# 3 49.1389 38.0133 124.0712 0.0000 0.0000 0.0000
# 4 0.0000 0.0000 0.0000 21.0486 0.0000 0.0000
# 5 0.0000 0.0000 0.0000 0.0000 22.2456 0.0000
# 6 0.0000 0.0000 0.0000 0.0000 0.0000 12.7559
#
#
#
# Elastic Compliance Matrix: (Units=1/GPa)
#
#
# Indices 1 2 3 4 5 6 
#
# 1 0.037053 -0.006804 -0.012590 0.000000 0.000000 0.000000
# 2 -0.006804 0.019614 -0.003315 0.000000 0.000000 0.000000
# 3 -0.012590 -0.003315 0.014062 0.000000 0.000000 0.000000
# 4 0.000000 0.000000 0.000000 0.047509 0.000000 0.000000
# 5 0.000000 0.000000 0.000000 0.000000 0.044953 0.000000
# 6 0.000000 0.000000 0.000000 0.000000 0.000000 0.078395
#
#
# Mechanical properties :
#
#
# Convention : Reuss Voigt Hill
#
# Bulk Modulus (GPa) = 39.50876 51.42995 45.46935
# Shear Modulus (GPa) = 16.92383 19.62663 18.27523
#
# Velocity S-wave (km/s) = 3.05007 3.28461 3.16951
# Velocity P-wave (km/s) = 5.84138 6.53113 6.19586
#
# Compressibility (1/GPa) = 0.02531084
#
# Stress axis : x y z
#
# Youngs Moduli (GPa) = 26.98835 50.98303 71.11422
#
# Poissons Ratio (x) = 0.34690 0.89535
# Poissons Ratio (y) = 0.18364 0.23572
# Poissons Ratio (z) = 0.33979 0.16899
#
# Static dielectric constant tensor:
#      x y z
#    x 3.056670 0.000000 0.000000 
#    y 0.000000 3.309720 0.000000 
#    z 0.000000 0.000000 3.668880 
# 
# 
# High freq. dielectric constant tensor:
#      x y z
#    x 1.657510 0.000000 0.000000 
#    y 0.000000 1.690640 0.000000 
#    z 0.000000 0.000000 1.720950 
# 
# From -- ./inp_files/63832.got.cif
#   From: 2010.06.25/outbox.cif.g09.slc.cpg/sg71_32_cif.got.tgz:63832.got - 2010.06.28 04:59:45.
