data_PCOD8288302
_publ_section_title
;
Structure prediction by ZEFSAII (Michael W. Deem and Ramdas Pophale) SiO2 
 PCOD8288302
Probable space group: I M M M
;
_chemical_formula_sum "Si O2"
_cell_formula_units_Z 104
_cell_length_a 24.184932
_cell_length_b 33.279371
_cell_length_c 8.718826
_cell_angle_alpha 90.000000
_cell_angle_beta 90.000000
_cell_angle_gamma 90.000000
_cell_volume 7017.428406
_symmetry_space_group_name_H-M "I M M M"
_symmetry_group_IT_number 71
_symmetry_cell_setting 'orthorhombic'
loop_
_space_group_symop_operation_xyz
x,y,z
-x,-y,z
x,-y,-z
-x,y,-z
-x,-y,-z
x,y,-z
-x,y,z
x,-y,z
1/2+x,1/2+y,1/2+z
1/2-x,1/2-y,1/2+z
1/2+x,1/2-y,1/2-z
1/2-x,1/2+y,1/2-z
1/2-x,1/2-y,1/2-z
1/2+x,1/2+y,1/2-z
1/2-x,1/2+y,1/2+z
1/2+x,1/2-y,1/2+z
loop_
_atom_site_type_symbol
_atom_site_label
_atom_site_fract_x
_atom_site_fract_y
_atom_site_fract_z
Si Si1 0.267810 0.310355 0.679291
Si Si2 0.437909 0.338114 0.324750
Si Si3 0.837441 0.121077 0.678770
Si Si4 0.939044 0.752822 0.324162
Si Si5 0.500000 0.452672 0.333741
Si Si6 0.332910 0.769662 0.321144
Si Si7 0.379763 0.454429 0.316918
O O1 0.255775 0.311307 0.500000
O O2 0.291744 0.352757 0.733702
O O3 0.310803 0.274909 0.721291
O O4 0.210115 0.303111 0.765194
O O5 0.416933 0.342270 0.500000
O O6 0.500000 0.355540 0.305792
O O7 0.398526 0.362579 0.212894
O O8 0.436533 0.291611 0.282702
O O9 0.824495 0.122668 0.500000
O O10 0.835031 0.075133 0.739420
O O11 0.928155 0.765163 0.500000
O O12 0.891077 0.722874 0.266038
O O13 0.000000 0.732607 0.307377
O O14 0.500000 0.500000 0.360455
O O15 0.500000 0.431114 0.500000
O O16 0.441440 0.442018 0.252152
O O17 0.342580 0.775059 0.500000
O O18 0.379010 0.449614 0.500000
O O19 0.364631 0.500000 0.269617
#
# Coordination Sequence:
#
# PCOD8288302 Si02
#       7
#    16  16  16  16   8  16  16
#     4  10  20  33  48  64  84 112 145 180 216 259
#     4  10  20  32  44  58  79 109 144 180 219 262
#     4  12  23  32  45  64  88 109 137 178 222 268
#     4  10  19  30  45  65  89 115 143 177 216 257
#     4   7  12  26  47  65  77  97 133 173 213 261
#     4  10  19  31  48  66  87 114 143 178 218 257
#     4   9  18  33  50  64  80 106 140 176 216 265
#
# _framework density 14.820243
#
# number of rings (size 3 to 8) (size 9 to 14) (size 15 to 20)
#    0.000    2.077    1.538    4.154    1.077    3.385 
#    0.000    0.000    0.000    1.385    0.000    0.000 
#    0.000    0.000    0.000    0.000    0.000    0.769 
#
# Total GULP energy -644617.793872 kJ/mol
# GULP energy per Si atom -12396.496036 kJ/mol
# Density = 1.478651 g / cm^3
# Si number density = 14.820243 Si / 1000 Ang^3
#
#
#
# Elastic Constant Matrix: (Units=GPa)
#
#
# Indices 1 2 3 4 5 6 
#
# 1 80.5312 33.9408 26.6043 0.0000 0.0000 0.0000
# 2 33.9408 62.7370 14.5812 0.0000 0.0000 0.0000
# 3 26.6043 14.5812 51.2475 0.0000 0.0000 0.0000
# 4 0.0000 0.0000 0.0000 19.1914 0.0000 0.0000
# 5 0.0000 0.0000 0.0000 0.0000 22.2150 0.0000
# 6 0.0000 0.0000 0.0000 0.0000 0.0000 22.7411
#
#
#
# Elastic Compliance Matrix: (Units=1/GPa)
#
#
# Indices 1 2 3 4 5 6 
#
# 1 0.018232 -0.008206 -0.007130 0.000000 0.000000 0.000000
# 2 -0.008206 0.020762 -0.001647 0.000000 0.000000 0.000000
# 3 -0.007130 -0.001647 0.023683 0.000000 0.000000 0.000000
# 4 0.000000 0.000000 0.000000 0.052107 0.000000 0.000000
# 5 0.000000 0.000000 0.000000 0.000000 0.045015 0.000000
# 6 0.000000 0.000000 0.000000 0.000000 0.000000 0.043973
#
#
# Mechanical properties :
#
#
# Convention : Reuss Voigt Hill
#
# Bulk Modulus (GPa) = 34.83068 38.30761 36.56914
# Shear Modulus (GPa) = 20.21774 20.78878 20.50326
#
# Velocity S-wave (km/s) = 3.69751 3.74936 3.72353
# Velocity P-wave (km/s) = 6.46389 6.68191 6.57381
#
# Compressibility (1/GPa) = 0.02871032
#
# Stress axis : x y z
#
# Youngs Moduli (GPa) = 54.85005 48.16502 42.22424
#
# Poissons Ratio (x) = 0.39525 0.30105
# Poissons Ratio (y) = 0.45011 0.06955
# Poissons Ratio (z) = 0.39107 0.07934
#
# Static dielectric constant tensor:
#      x y z
#    x 2.908520 0.000000 0.000000 
#    y 0.000000 2.691250 0.000000 
#    z 0.000000 0.000000 2.847950 
# 
# 
# High freq. dielectric constant tensor:
#      x y z
#    x 1.545440 0.000000 0.000000 
#    y 0.000000 1.530270 0.000000 
#    z 0.000000 0.000000 1.573200 
# 
# From -- ./inp_files/13653.got.cif
#   From: 2010.06.25/outbox.cif.g09.slc.cpg/sg71_7_cif.got.tgz:13653.got - 2010.06.28 04:59:45.
