data_PCOD8288453
_publ_section_title
;
Structure prediction by ZEFSAII (Michael W. Deem and Ramdas Pophale) SiO2 
 PCOD8288453
Probable space group: I M M M
;
_chemical_formula_sum "Si O2"
_cell_formula_units_Z 120
_cell_length_a 17.841826
_cell_length_b 18.925141
_cell_length_c 21.452267
_cell_angle_alpha 90.000000
_cell_angle_beta 90.000000
_cell_angle_gamma 90.000000
_cell_volume 7243.552584
_symmetry_space_group_name_H-M "I M M M"
_symmetry_group_IT_number 71
_symmetry_cell_setting 'orthorhombic'
loop_
_space_group_symop_operation_xyz
x,y,z
-x,-y,z
x,-y,-z
-x,y,-z
-x,-y,-z
x,y,-z
-x,y,z
x,-y,z
1/2+x,1/2+y,1/2+z
1/2-x,1/2-y,1/2+z
1/2+x,1/2-y,1/2-z
1/2-x,1/2+y,1/2-z
1/2-x,1/2-y,1/2-z
1/2+x,1/2+y,1/2-z
1/2-x,1/2+y,1/2+z
1/2+x,1/2-y,1/2+z
loop_
_atom_site_type_symbol
_atom_site_label
_atom_site_fract_x
_atom_site_fract_y
_atom_site_fract_z
Si Si1 0.500000 0.417141 0.073252
Si Si2 0.416064 0.326077 0.289830
Si Si3 0.871362 0.155341 0.650511
Si Si4 0.585259 0.836717 0.280524
Si Si5 0.272673 0.917914 0.693230
Si Si6 0.709424 0.419728 0.670909
Si Si7 0.332488 0.079952 0.928787
Si Si8 0.915067 0.307800 0.640412
O O1 0.500000 0.500000 0.087578
O O2 0.575547 0.384519 0.101914
O O3 0.500000 0.400799 0.000000
O O4 0.500000 0.341834 0.311615
O O5 0.407257 0.351850 0.218842
O O6 0.396870 0.243984 0.297430
O O7 0.362363 0.369729 0.335191
O O8 0.788409 0.120933 0.649518
O O9 0.863386 0.238252 0.632855
O O10 0.500000 0.857425 0.299669
O O11 0.644205 0.885797 0.317549
O O12 0.596255 0.846410 0.206498
O O13 0.253106 0.904902 0.765246
O O14 0.274012 0.000000 0.675262
O O15 0.681433 0.500000 0.667817
O O16 0.761639 0.400180 0.613152
O O17 0.398490 0.134682 0.912908
O O18 0.360198 0.000000 0.914937
O O19 0.308210 0.088686 0.000000
O O20 0.000000 0.280569 0.633634
#
# Coordination Sequence:
#
# PCOD8288453 Si02
#       8
#     8  16  16  16  16  16  16  16
#     4  11  22  36  52  70 103 143 166 196 251 297
#     4   9  17  30  49  73  97 126 157 200 250 298
#     4  10  19  34  50  72 101 128 167 208 241 292
#     4   9  18  30  47  72 102 130 158 196 253 304
#     4  10  19  30  49  74  98 130 166 202 245 299
#     4   9  18  30  46  70  95 125 165 204 248 295
#     4  10  21  35  48  66  97 134 173 214 250 287
#     4  10  19  32  50  70  94 131 172 206 244 293
#
# _framework density 16.566457
#
# number of rings (size 3 to 8) (size 9 to 14) (size 15 to 20)
#    0.000    2.333    2.667    1.200    1.867    3.733 
#    0.000    2.000    0.000    0.400    0.000    1.867 
#    0.000    0.533    0.000    2.800    0.000    0.000 
#
# Total GULP energy -743992.720358 kJ/mol
# GULP energy per Si atom -12399.878673 kJ/mol
# Density = 1.652875 g / cm^3
# Si number density = 16.566457 Si / 1000 Ang^3
#
#
#
# Elastic Constant Matrix: (Units=GPa)
#
#
# Indices 1 2 3 4 5 6 
#
# 1 113.0186 64.6865 30.4839 0.0000 0.0000 0.0000
# 2 64.6865 91.5479 30.6190 0.0000 0.0000 0.0000
# 3 30.4839 30.6190 49.2774 0.0000 0.0000 0.0000
# 4 0.0000 0.0000 0.0000 20.2042 0.0000 0.0000
# 5 0.0000 0.0000 0.0000 0.0000 19.2483 0.0000
# 6 0.0000 0.0000 0.0000 0.0000 0.0000 33.0027
#
#
#
# Elastic Compliance Matrix: (Units=1/GPa)
#
#
# Indices 1 2 3 4 5 6 
#
# 1 0.015313 -0.009659 -0.003471 0.000000 0.000000 0.000000
# 2 -0.009659 0.019881 -0.006378 0.000000 0.000000 0.000000
# 3 -0.003471 -0.006378 0.026404 0.000000 0.000000 0.000000
# 4 0.000000 0.000000 0.000000 0.049495 0.000000 0.000000
# 5 0.000000 0.000000 0.000000 0.000000 0.051953 0.000000
# 6 0.000000 0.000000 0.000000 0.000000 0.000000 0.030301
#
#
# Mechanical properties :
#
#
# Convention : Reuss Voigt Hill
#
# Bulk Modulus (GPa) = 44.28442 56.15807 50.22125
# Shear Modulus (GPa) = 20.84299 23.02800 21.93549
#
# Velocity S-wave (km/s) = 3.55088 3.73237 3.64275
# Velocity P-wave (km/s) = 6.60311 7.24888 6.93352
#
# Compressibility (1/GPa) = 0.02258130
#
# Stress axis : x y z
#
# Youngs Moduli (GPa) = 65.30612 50.29869 37.87336
#
# Poissons Ratio (x) = 0.48582 0.13146
# Poissons Ratio (y) = 0.63077 0.24157
# Poissons Ratio (z) = 0.22668 0.32082
#
# Static dielectric constant tensor:
#      x y z
#    x 3.133050 0.000000 0.000000 
#    y 0.000000 3.188010 0.000000 
#    z 0.000000 0.000000 2.805950 
# 
# 
# High freq. dielectric constant tensor:
#      x y z
#    x 1.636750 0.000000 0.000000 
#    y 0.000000 1.649650 0.000000 
#    z 0.000000 0.000000 1.589310 
# 
# From -- ./inp_files/47579.got.cif
#   From: 2010.06.25/outbox.cif.g09.slc.cpg/sg71_24_cif.got.tgz:47579.got - 2010.06.28 04:59:45.
