data_PCOD8288522
_publ_section_title
;
Structure prediction by ZEFSAII (Michael W. Deem and Ramdas Pophale) SiO2 
 PCOD8288522
Probable space group: I M M M
;
_chemical_formula_sum "Si O2"
_cell_formula_units_Z 104
_cell_length_a 9.106462
_cell_length_b 27.890313
_cell_length_c 24.291770
_cell_angle_alpha 90.000000
_cell_angle_beta 90.000000
_cell_angle_gamma 90.000000
_cell_volume 6169.674162
_symmetry_space_group_name_H-M "I M M M"
_symmetry_group_IT_number 71
_symmetry_cell_setting 'orthorhombic'
loop_
_space_group_symop_operation_xyz
x,y,z
-x,-y,z
x,-y,-z
-x,y,-z
-x,-y,-z
x,y,-z
-x,y,z
x,-y,z
1/2+x,1/2+y,1/2+z
1/2-x,1/2-y,1/2+z
1/2+x,1/2-y,1/2-z
1/2-x,1/2+y,1/2-z
1/2-x,1/2-y,1/2-z
1/2+x,1/2+y,1/2-z
1/2-x,1/2+y,1/2+z
1/2+x,1/2-y,1/2+z
loop_
_atom_site_type_symbol
_atom_site_label
_atom_site_fract_x
_atom_site_fract_y
_atom_site_fract_z
Si Si1 0.664372 0.552674 0.434503
Si Si2 0.173468 0.403933 0.936199
Si Si3 0.325954 0.287731 0.366826
Si Si4 0.165466 0.000000 0.434785
Si Si5 0.162591 0.357740 0.435184
Si Si6 0.672728 0.799906 0.761275
Si Si7 0.170878 0.679294 0.142623
O O1 0.663274 0.554751 0.500000
O O2 0.500000 0.562734 0.412503
O O3 0.717782 0.500000 0.414821
O O4 0.772888 0.592804 0.410113
O O5 0.250143 0.452441 0.914662
O O6 0.238554 0.360654 0.898372
O O7 0.000000 0.410699 0.928410
O O8 0.211905 0.392807 0.000000
O O9 0.500000 0.290109 0.360226
O O10 0.270805 0.313665 0.421773
O O11 0.250189 0.318459 0.316960
O O12 0.268042 0.232803 0.369600
O O13 0.163329 0.000000 0.500000
O O14 0.000000 0.000000 0.410943
O O15 0.154123 0.361674 0.500000
O O16 0.000000 0.349608 0.410290
O O17 0.500000 0.792345 0.770517
O O18 0.750000 0.750000 0.750000
O O19 0.700229 0.833521 0.707315
O O20 0.000000 0.680655 0.129756
#
# Coordination Sequence:
#
# PCOD8288522 Si02
#       7
#    16  16  16   8  16  16  16
#     4   8  14  26  44  64  85 111 146 186 224 263
#     4   9  16  28  47  69  92 120 155 190 225 270
#     4  10  19  31  47  67  92 123 158 194 235 279
#     4   9  17  29  43  63  93 123 151 185 226 271
#     4  10  20  31  43  64  94 125 155 186 226 278
#     4   9  16  29  47  66  90 118 152 194 232 270
#     4   8  16  29  46  69  92 117 153 193 229 268
#
# _framework density 16.856643999999999
#
# number of rings (size 3 to 8) (size 9 to 14) (size 15 to 20)
#    0.000    3.000    0.000    3.000    0.000    2.769 
#    0.000    7.692    0.000    1.846    2.000    0.000 
#    0.000    0.000    0.000    0.000    0.000    0.000 
#
# Total GULP energy -644272.379949 kJ/mol
# GULP energy per Si atom -12389.853461 kJ/mol
# Density = 1.681828 g / cm^3
# Si number density = 16.856644 Si / 1000 Ang^3
#
#
#
# Elastic Constant Matrix: (Units=GPa)
#
#
# Indices 1 2 3 4 5 6 
#
# 1 83.5778 46.5529 30.0388 0.0000 0.0000 0.0000
# 2 46.5529 115.7053 45.2212 0.0000 0.0000 0.0000
# 3 30.0388 45.2212 48.6171 0.0000 0.0000 0.0000
# 4 0.0000 0.0000 0.0000 11.2427 0.0000 0.0000
# 5 0.0000 0.0000 0.0000 0.0000 22.2261 0.0000
# 6 0.0000 0.0000 0.0000 0.0000 0.0000 21.3511
#
#
#
# Elastic Compliance Matrix: (Units=1/GPa)
#
#
# Indices 1 2 3 4 5 6 
#
# 1 0.016580 -0.004190 -0.006347 0.000000 0.000000 0.000000
# 2 -0.004190 0.014638 -0.011027 0.000000 0.000000 0.000000
# 3 -0.006347 -0.011027 0.034747 0.000000 0.000000 0.000000
# 4 0.000000 0.000000 0.000000 0.088947 0.000000 0.000000
# 5 0.000000 0.000000 0.000000 0.000000 0.044992 0.000000
# 6 0.000000 0.000000 0.000000 0.000000 0.000000 0.046836
#
#
# Mechanical properties :
#
#
# Convention : Reuss Voigt Hill
#
# Bulk Modulus (GPa) = 43.78718 54.61400 49.20059
# Shear Modulus (GPa) = 16.80790 19.36979 18.08885
#
# Velocity S-wave (km/s) = 3.16113 3.39350 3.27937
# Velocity P-wave (km/s) = 6.27346 6.91548 6.60228
#
# Compressibility (1/GPa) = 0.02283774
#
# Stress axis : x y z
#
# Youngs Moduli (GPa) = 60.31380 68.31473 28.77980
#
# Poissons Ratio (x) = 0.28626 0.18265
# Poissons Ratio (y) = 0.25274 0.31734
# Poissons Ratio (z) = 0.38278 0.75328
#
# Static dielectric constant tensor:
#      x y z
#    x 3.289930 0.000000 0.000000 
#    y 0.000000 3.232720 0.000000 
#    z 0.000000 0.000000 3.015120 
# 
# 
# High freq. dielectric constant tensor:
#      x y z
#    x 1.646650 0.000000 0.000000 
#    y 0.000000 1.636960 0.000000 
#    z 0.000000 0.000000 1.621300 
# 
# From -- ./inp_files/58192.got.cif
#   From: 2010.06.25/outbox.cif.g09.slc.cpg/sg71_30_cif.got.tgz:58192.got - 2010.06.28 04:59:45.
