data_PCOD8288115
_publ_section_title
;
Structure prediction by ZEFSAII (Michael W. Deem and Ramdas Pophale) SiO2 
 PCOD8288115
Probable space group: I M M M
;
_chemical_formula_sum "Si O2"
_cell_formula_units_Z 88
_cell_length_a 20.897553
_cell_length_b 9.299196
_cell_length_c 31.878563
_cell_angle_alpha 90.000000
_cell_angle_beta 90.000000
_cell_angle_gamma 90.000000
_cell_volume 6194.975215
_symmetry_space_group_name_H-M "I M M M"
_symmetry_group_IT_number 71
_symmetry_cell_setting 'orthorhombic'
loop_
_space_group_symop_operation_xyz
x,y,z
-x,-y,z
x,-y,-z
-x,y,-z
-x,-y,-z
x,y,-z
-x,y,z
x,-y,z
1/2+x,1/2+y,1/2+z
1/2-x,1/2-y,1/2+z
1/2+x,1/2-y,1/2-z
1/2-x,1/2+y,1/2-z
1/2-x,1/2-y,1/2-z
1/2+x,1/2+y,1/2-z
1/2-x,1/2+y,1/2+z
1/2+x,1/2-y,1/2+z
loop_
_atom_site_type_symbol
_atom_site_label
_atom_site_fract_x
_atom_site_fract_y
_atom_site_fract_z
Si Si1 0.573890 0.832117 0.679112
Si Si2 0.654980 0.159074 0.754228
Si Si3 0.878367 0.835972 0.047008
Si Si4 0.231595 0.838871 0.312731
Si Si5 0.000000 0.340800 0.049578
Si Si6 0.818570 0.833636 0.869085
O O1 0.500000 0.794231 0.671295
O O2 0.591430 0.798878 0.727981
O O3 0.616273 0.733533 0.649044
O O4 0.588734 0.000000 0.669789
O O5 0.712780 0.162185 0.721315
O O6 0.667922 0.268607 0.792400
O O7 0.648541 0.000000 0.773808
O O8 0.820451 0.817900 0.080157
O O9 0.936721 0.740829 0.064382
O O10 0.902525 0.000000 0.046189
O O11 0.856090 0.789118 0.000000
O O12 0.255317 0.747773 0.352850
O O13 0.214603 0.000000 0.327278
O O14 0.000000 0.500000 0.069991
O O15 0.000000 0.349964 0.000000
O O16 0.814830 0.000000 0.855203
#
# Coordination Sequence:
#
# PCOD8288115 Si02
#       6
#    16  16  16  16   8  16
#     4   9  18  30  41  55  76 100 122 150 188 222
#     4   8  14  25  40  55  72  94 119 145 176 217
#     4   9  18  31  42  51  68  94 122 153 190 229
#     4   9  16  26  40  56  73  92 116 148 186 219
#     4   9  17  27  39  53  65  83 115 151 185 223
#     4  10  19  28  40  56  72  93 124 158 190 224
#
# _framework density 14.205061000000001
#
# number of rings (size 3 to 8) (size 9 to 14) (size 15 to 20)
#    0.000    3.000    0.000    2.455    1.273    7.273 
#    0.000    0.000    0.000    0.000    0.000    0.000 
#    0.000    0.000    0.000    0.000    0.000    0.909 
#
# Total GULP energy -545308.842112 kJ/mol
# GULP energy per Si atom -12393.382775 kJ/mol
# Density = 1.417273 g / cm^3
# Si number density = 14.205061 Si / 1000 Ang^3
#
#
#
# Elastic Constant Matrix: (Units=GPa)
#
#
# Indices 1 2 3 4 5 6 
#
# 1 14.0361 15.1353 19.5710 0.0000 0.0000 0.0000
# 2 15.1353 87.8178 40.2213 0.0000 0.0000 0.0000
# 3 19.5710 40.2213 67.3568 0.0000 0.0000 0.0000
# 4 0.0000 0.0000 0.0000 16.2123 0.0000 0.0000
# 5 0.0000 0.0000 0.0000 0.0000 19.6528 0.0000
# 6 0.0000 0.0000 0.0000 0.0000 0.0000 16.8385
#
#
#
# Elastic Compliance Matrix: (Units=1/GPa)
#
#
# Indices 1 2 3 4 5 6 
#
# 1 0.122501 -0.006622 -0.031639 0.000000 0.000000 0.000000
# 2 -0.006622 0.016032 -0.007649 0.000000 0.000000 0.000000
# 3 -0.031639 -0.007649 0.028607 0.000000 0.000000 0.000000
# 4 0.000000 0.000000 0.000000 0.061681 0.000000 0.000000
# 5 0.000000 0.000000 0.000000 0.000000 0.050883 0.000000
# 6 0.000000 0.000000 0.000000 0.000000 0.000000 0.059388
#
#
# Mechanical properties :
#
#
# Convention : Reuss Voigt Hill
#
# Bulk Modulus (GPa) = 13.27690 35.45176 24.36433
# Shear Modulus (GPa) = 10.96446 16.82628 13.89537
#
# Velocity S-wave (km/s) = 2.78127 3.44543 3.13101
# Velocity P-wave (km/s) = 4.43631 6.39056 5.50091
#
# Compressibility (1/GPa) = 0.07531881
#
# Stress axis : x y z
#
# Youngs Moduli (GPa) = 8.16323 62.37572 34.95647
#
# Poissons Ratio (x) = 0.41303 1.10600
# Poissons Ratio (y) = 0.05405 0.26739
# Poissons Ratio (z) = 0.25828 0.47713
#
# Static dielectric constant tensor:
#      x y z
#    x 2.550440 0.000000 0.000000 
#    y 0.000000 3.013400 0.000000 
#    z 0.000000 0.000000 2.770080 
# 
# 
# High freq. dielectric constant tensor:
#      x y z
#    x 1.488210 0.000000 0.000000 
#    y 0.000000 1.556970 0.000000 
#    z 0.000000 0.000000 1.524410 
# 
# From -- ./inp_files/13532.got.cif
#   From: 2010.06.25/outbox.cif.g09.slc.cpg/sg71_7_cif.got.tgz:13532.got - 2010.06.28 04:59:45.
