data_PCOD8288129
_publ_section_title
;
Structure prediction by ZEFSAII (Michael W. Deem and Ramdas Pophale) SiO2 
 PCOD8288129
Probable space group: I M M M
;
_chemical_formula_sum "Si O2"
_cell_formula_units_Z 120
_cell_length_a 20.914890
_cell_length_b 32.232714
_cell_length_c 10.559974
_cell_angle_alpha 90.000000
_cell_angle_beta 90.000000
_cell_angle_gamma 90.000000
_cell_volume 7118.939603
_symmetry_space_group_name_H-M "I M M M"
_symmetry_group_IT_number 71
_symmetry_cell_setting 'orthorhombic'
loop_
_space_group_symop_operation_xyz
x,y,z
-x,-y,z
x,-y,-z
-x,y,-z
-x,-y,-z
x,y,-z
-x,y,z
x,-y,z
1/2+x,1/2+y,1/2+z
1/2-x,1/2-y,1/2+z
1/2+x,1/2-y,1/2-z
1/2-x,1/2+y,1/2-z
1/2-x,1/2-y,1/2-z
1/2+x,1/2+y,1/2-z
1/2-x,1/2+y,1/2+z
1/2+x,1/2-y,1/2+z
loop_
_atom_site_type_symbol
_atom_site_label
_atom_site_fract_x
_atom_site_fract_y
_atom_site_fract_z
Si Si1 0.572542 0.327604 0.141033
Si Si2 0.195446 0.045441 0.644590
Si Si3 0.700142 0.196125 0.645539
Si Si4 0.571520 0.046953 0.349550
Si Si5 0.809870 0.600473 0.849870
Si Si6 0.575222 0.545776 0.500000
Si Si7 0.666686 0.741855 0.855244
Si Si8 0.074039 0.084835 0.740728
O O1 0.500000 0.313632 0.139437
O O2 0.609472 0.287559 0.188163
O O3 0.583630 0.365960 0.234498
O O4 0.595321 0.341129 0.000000
O O5 0.215033 0.040300 0.500000
O O6 0.247683 0.076503 0.707185
O O7 0.122686 0.062230 0.646680
O O8 0.199018 0.000000 0.710561
O O9 0.674321 0.201962 0.500000
O O10 0.695044 0.148482 0.690091
O O11 0.661717 0.221528 0.752334
O O12 0.771783 0.212656 0.653662
O O13 0.572422 0.048158 0.500000
O O14 0.500000 0.059718 0.301844
O O15 0.625062 0.078955 0.296128
O O16 0.587590 0.000000 0.303937
O O17 0.809368 0.597814 0.000000
O O18 0.606827 0.500000 0.500000
O O19 0.500000 0.540842 0.500000
O O20 0.597195 0.571464 0.379039
O O21 0.659187 0.758897 0.000000
O O22 0.000000 0.072548 0.709235
#
# Coordination Sequence:
#
# PCOD8288129 Si02
#       8
#    16  16  16  16  16   8  16  16
#     4   9  17  30  49  70  91 117 150 188 231 275
#     4  10  19  28  42  66  92 119 151 190 235 273
#     4   9  17  29  47  69  90 119 153 185 227 277
#     4   8  13  22  38  61  89 121 152 179 212 263
#     4   9  16  27  43  62  90 122 150 183 226 277
#     4   9  18  32  46  58  80 120 163 195 227 271
#     4   9  17  31  49  67  90 120 152 188 230 279
#     4  10  19  31  46  64  86 119 160 195 226 266
#
# _framework density 16.856442999999999
#
# number of rings (size 3 to 8) (size 9 to 14) (size 15 to 20)
#    0.000    2.867    0.000    2.400    0.000    5.333 
#    1.200    1.333    4.400    0.800    0.000    0.000 
#    0.000    0.000    0.000    1.467    1.600    1.333 
#
# Total GULP energy -743426.817850 kJ/mol
# GULP energy per Si atom -12390.446964 kJ/mol
# Density = 1.681808 g / cm^3
# Si number density = 16.856443 Si / 1000 Ang^3
#
#
#
# Elastic Constant Matrix: (Units=GPa)
#
#
# Indices 1 2 3 4 5 6 
#
# 1 82.8995 64.9703 24.0561 0.0001 0.0001 0.0000
# 2 64.9703 144.8960 47.5779 0.0001 0.0002 0.0000
# 3 24.0561 47.5779 52.1564 0.0014 0.0014 0.0001
# 4 0.0001 0.0001 0.0014 22.2400 0.0003 0.0001
# 5 0.0001 0.0002 0.0014 0.0003 9.6730 0.0001
# 6 0.0000 0.0000 0.0001 0.0001 0.0001 28.0778
#
#
#
# Elastic Compliance Matrix: (Units=1/GPa)
#
#
# Indices 1 2 3 4 5 6 
#
# 1 0.018669 -0.007914 -0.001391 0.000000 0.000000 0.000000
# 2 -0.007914 0.013208 -0.008398 0.000001 0.000001 0.000000
# 3 -0.001391 -0.008398 0.027476 -0.000002 -0.000004 0.000000
# 4 0.000000 0.000001 -0.000002 0.044964 -0.000001 0.000000
# 5 0.000000 0.000001 -0.000004 -0.000001 0.103380 0.000000
# 6 0.000000 0.000000 0.000000 0.000000 0.000000 0.035615
#
#
# Mechanical properties :
#
#
# Convention : Reuss Voigt Hill
#
# Bulk Modulus (GPa) = 41.76164 61.46228 51.61196
# Shear Modulus (GPa) = 17.43977 21.55468 19.49723
#
# Velocity S-wave (km/s) = 3.22002 3.57980 3.40466
# Velocity P-wave (km/s) = 6.21718 7.32311 6.79269
#
# Compressibility (1/GPa) = 0.02394542
#
# Stress axis : x y z
#
# Youngs Moduli (GPa) = 53.56436 75.71291 36.39592
#
# Poissons Ratio (x) = 0.59921 0.05063
# Poissons Ratio (y) = 0.42392 0.30565
# Poissons Ratio (z) = 0.07452 0.63584
#
# Static dielectric constant tensor:
#      x y z
#    x 3.252600 0.000000 0.000000 
#    y 0.000000 3.285350 0.000000 
#    z 0.000000 0.000000 2.989190 
# 
# 
# High freq. dielectric constant tensor:
#      x y z
#    x 1.645050 0.000000 0.000000 
#    y 0.000000 1.652450 0.000000 
#    z 0.000000 0.000000 1.603390 
# 
# From -- ./inp_files/26541.got.cif
#   From: 2010.06.25/outbox.cif.g09.slc.cpg/sg71_14_cif.got.tgz:26541.got - 2010.06.28 04:59:45.
