data_PCOD8288140
_publ_section_title
;
Structure prediction by ZEFSAII (Michael W. Deem and Ramdas Pophale) SiO2 
 PCOD8288140
Probable space group: I M M M
;
_chemical_formula_sum "Si O2"
_cell_formula_units_Z 128
_cell_length_a 18.666340
_cell_length_b 17.546966
_cell_length_c 23.162367
_cell_angle_alpha 90.000000
_cell_angle_beta 90.000000
_cell_angle_gamma 90.000000
_cell_volume 7586.546869
_symmetry_space_group_name_H-M "I M M M"
_symmetry_group_IT_number 71
_symmetry_cell_setting 'orthorhombic'
loop_
_space_group_symop_operation_xyz
x,y,z
-x,-y,z
x,-y,-z
-x,y,-z
-x,-y,-z
x,y,-z
-x,y,z
x,-y,z
1/2+x,1/2+y,1/2+z
1/2-x,1/2-y,1/2+z
1/2+x,1/2-y,1/2-z
1/2-x,1/2+y,1/2-z
1/2-x,1/2-y,1/2-z
1/2+x,1/2+y,1/2-z
1/2-x,1/2+y,1/2+z
1/2+x,1/2-y,1/2+z
loop_
_atom_site_type_symbol
_atom_site_label
_atom_site_fract_x
_atom_site_fract_y
_atom_site_fract_z
Si Si1 0.684724 0.410941 0.567654
Si Si2 0.812191 0.653598 0.363903
Si Si3 0.583844 0.356238 0.660519
Si Si4 0.079548 0.695656 0.206354
Si Si5 0.301059 0.087947 0.260312
Si Si6 0.076607 0.412995 0.561700
Si Si7 0.079943 0.229058 0.668786
Si Si8 0.859505 0.914630 0.278933
O O1 0.675868 0.393870 0.500000
O O2 0.705261 0.500000 0.577787
O O3 0.743422 0.353094 0.594638
O O4 0.610476 0.390611 0.599668
O O5 0.790600 0.633088 0.299346
O O6 0.869446 0.592875 0.385775
O O7 0.855259 0.734513 0.369296
O O8 0.500000 0.373317 0.667359
O O9 0.598815 0.265182 0.663242
O O10 0.625964 0.398275 0.711686
O O11 0.137962 0.628255 0.200453
O O12 0.080233 0.727135 0.270901
O O13 0.000000 0.663444 0.191955
O O14 0.225077 0.094679 0.292213
O O15 0.322535 0.000000 0.249783
O O16 0.105642 0.378966 0.500000
O O17 0.062202 0.500000 0.551570
O O18 0.000000 0.373881 0.577306
O O19 0.096563 0.140359 0.678916
O O20 0.000000 0.235382 0.640858
O O21 0.884513 0.000000 0.293239
#
# Coordination Sequence:
#
# PCOD8288140 Si02
#       8
#    16  16  16  16  16  16  16  16
#     4  11  23  35  48  70  97 126 164 206 243 277
#     4  11  19  30  47  63  95 127 159 195 231 277
#     4  10  20  34  52  69  90 128 169 201 240 285
#     4   8  17  31  46  67  97 128 161 197 236 283
#     4  10  19  28  45  71  99 129 162 192 230 287
#     4   9  17  28  42  60  84 119 159 194 229 266
#     4   9  19  31  46  70  94 124 162 196 233 281
#     4  10  19  31  48  72  98 126 160 200 239 282
#
# _framework density 16.871970999999998
#
# number of rings (size 3 to 8) (size 9 to 14) (size 15 to 20)
#    0.000    2.250    1.250    3.750    1.750    5.250 
#    0.000    0.625    0.000    0.000    0.000    0.000 
#    0.000    3.500    0.000    8.875    0.000    0.000 
#
# Total GULP energy -792992.955551 kJ/mol
# GULP energy per Si atom -12390.514930 kJ/mol
# Density = 1.683357 g / cm^3
# Si number density = 16.871971 Si / 1000 Ang^3
#
#
#
# Elastic Constant Matrix: (Units=GPa)
#
#
# Indices 1 2 3 4 5 6 
#
# 1 89.9404 47.3244 19.1759 0.0000 0.0000 0.0000
# 2 47.3244 88.6385 20.1248 0.0000 0.0000 0.0000
# 3 19.1759 20.1248 41.3239 0.0000 0.0000 0.0000
# 4 0.0000 0.0000 0.0000 17.5193 0.0000 0.0000
# 5 0.0000 0.0000 0.0000 0.0000 12.9409 0.0000
# 6 0.0000 0.0000 0.0000 0.0000 0.0000 17.9962
#
#
#
# Elastic Compliance Matrix: (Units=1/GPa)
#
#
# Indices 1 2 3 4 5 6 
#
# 1 0.015939 -0.007680 -0.003656 0.000000 0.000000 0.000000
# 2 -0.007680 0.016385 -0.004416 0.000000 0.000000 0.000000
# 3 -0.003656 -0.004416 0.028046 0.000000 0.000000 0.000000
# 4 0.000000 0.000000 0.000000 0.057080 0.000000 0.000000
# 5 0.000000 0.000000 0.000000 0.000000 0.077275 0.000000
# 6 0.000000 0.000000 0.000000 0.000000 0.000000 0.055567
#
#
# Mechanical properties :
#
#
# Convention : Reuss Voigt Hill
#
# Bulk Modulus (GPa) = 34.64232 43.68367 39.16299
# Shear Modulus (GPa) = 17.15759 18.57647 17.86703
#
# Velocity S-wave (km/s) = 3.19239 3.32177 3.25772
# Velocity P-wave (km/s) = 5.84513 6.37649 6.11658
#
# Compressibility (1/GPa) = 0.02886643
#
# Stress axis : x y z
#
# Youngs Moduli (GPa) = 62.73979 61.03323 35.65557
#
# Poissons Ratio (x) = 0.46872 0.13036
# Poissons Ratio (y) = 0.48182 0.15744
# Poissons Ratio (z) = 0.22939 0.26950
#
# Static dielectric constant tensor:
#      x y z
#    x 3.378920 0.000000 0.000000 
#    y 0.000000 3.166030 0.000000 
#    z 0.000000 0.000000 2.881080 
# 
# 
# High freq. dielectric constant tensor:
#      x y z
#    x 1.670400 0.000000 0.000000 
#    y 0.000000 1.633750 0.000000 
#    z 0.000000 0.000000 1.598710 
# 
# From -- ./inp_files/60887.got.cif
#   From: 2010.06.25/outbox.cif.g09.slc.cpg/sg71_31_cif.got.tgz:60887.got - 2010.06.28 04:59:45.
