data_PCOD8288108
_publ_section_title
;
Structure prediction by ZEFSAII (Michael W. Deem and Ramdas Pophale) SiO2 
 PCOD8288108
Probable space group: I M M M
;
_chemical_formula_sum "Si O2"
_cell_formula_units_Z 112
_cell_length_a 8.983634
_cell_length_b 31.682276
_cell_length_c 32.417026
_cell_angle_alpha 90.000000
_cell_angle_beta 90.000000
_cell_angle_gamma 90.000000
_cell_volume 9226.597862
_symmetry_space_group_name_H-M "I M M M"
_symmetry_group_IT_number 71
_symmetry_cell_setting 'orthorhombic'
loop_
_space_group_symop_operation_xyz
x,y,z
-x,-y,z
x,-y,-z
-x,y,-z
-x,-y,-z
x,y,-z
-x,y,z
x,-y,z
1/2+x,1/2+y,1/2+z
1/2-x,1/2-y,1/2+z
1/2+x,1/2-y,1/2-z
1/2-x,1/2+y,1/2-z
1/2-x,1/2-y,1/2-z
1/2+x,1/2+y,1/2-z
1/2-x,1/2+y,1/2+z
1/2+x,1/2-y,1/2+z
loop_
_atom_site_type_symbol
_atom_site_label
_atom_site_fract_x
_atom_site_fract_y
_atom_site_fract_z
Si Si1 0.676208 0.047971 0.584822
Si Si2 0.831403 0.748508 0.847130
Si Si3 0.677327 0.182710 0.500000
Si Si4 0.324149 0.701750 0.083678
Si Si5 0.165081 0.338182 0.797469
Si Si6 0.674820 0.213824 0.223649
Si Si7 0.323477 0.913704 0.500000
Si Si8 0.327038 0.381475 0.134383
O O1 0.500000 0.052851 0.585789
O O2 0.739675 0.062989 0.540500
O O3 0.743260 0.076348 0.620941
O O4 0.726275 0.000000 0.592392
O O5 0.739403 0.740011 0.888851
O O6 0.827806 0.706839 0.819591
O O7 0.751904 0.786543 0.821536
O O8 0.000000 0.761794 0.858014
O O9 0.500000 0.186554 0.500000
O O10 0.744250 0.205553 0.539818
O O11 0.731946 0.134331 0.500000
O O12 0.500000 0.707008 0.078844
O O13 0.282209 0.656758 0.104038
O O14 0.200922 0.330240 0.748777
O O15 0.280361 0.370261 0.818658
O O16 0.000000 0.357471 0.802444
O O17 0.500000 0.223422 0.218851
O O18 0.750000 0.250000 0.250000
O O19 0.500000 0.916044 0.500000
O O20 0.500000 0.390723 0.133564
#
# Coordination Sequence:
#
# PCOD8288108 Si02
#       8
#    16  16   8  16  16  16   8  16
#     4  10  19  31  45  56  66  82 105 133 169 214
#     4   9  16  25  37  52  69  89 110 131 155 188
#     4  11  19  28  43  55  66  86 110 141 173 207
#     4  10  19  29  39  52  69  88 109 135 166 202
#     4   8  15  25  37  51  68  88 108 126 149 185
#     4   9  15  23  35  52  71  90 108 129 153 182
#     4   9  17  29  44  57  65  77 101 135 169 209
#     4  10  19  28  39  53  69  85 104 131 163 199
#
# _framework density 12.138819
#
# number of rings (size 3 to 8) (size 9 to 14) (size 15 to 20)
#    0.000    2.571    1.429    3.000    0.000    6.286 
#    0.000    0.357    0.000    0.857    0.000    0.000 
#    0.000    0.000    0.000    0.000    0.000    0.000 
#
# Total GULP energy -694142.728342 kJ/mol
# GULP energy per Si atom -12395.405863 kJ/mol
# Density = 1.211119 g / cm^3
# Si number density = 12.138819 Si / 1000 Ang^3
#
#
#
# Elastic Constant Matrix: (Units=GPa)
#
#
# Indices 1 2 3 4 5 6 
#
# 1 58.2627 19.3816 38.8408 0.0000 0.0000 0.0000
# 2 19.3816 30.6083 40.1507 0.0000 0.0000 0.0000
# 3 38.8408 40.1507 84.3824 0.0000 0.0000 0.0000
# 4 0.0000 0.0000 0.0000 14.5342 0.0000 0.0000
# 5 0.0000 0.0000 0.0000 0.0000 20.8521 0.0000
# 6 0.0000 0.0000 0.0000 0.0000 0.0000 13.0128
#
#
#
# Elastic Compliance Matrix: (Units=1/GPa)
#
#
# Indices 1 2 3 4 5 6 
#
# 1 0.024805 -0.001941 -0.010494 0.000000 0.000000 0.000000
# 2 -0.001941 0.087079 -0.040540 0.000000 0.000000 0.000000
# 3 -0.010494 -0.040540 0.035971 0.000000 0.000000 0.000000
# 4 0.000000 0.000000 0.000000 0.068803 0.000000 0.000000
# 5 0.000000 0.000000 0.000000 0.000000 0.047957 0.000000
# 6 0.000000 0.000000 0.000000 0.000000 0.000000 0.076848
#
#
# Mechanical properties :
#
#
# Convention : Reuss Voigt Hill
#
# Bulk Modulus (GPa) = 23.86402 41.11107 32.48754
# Shear Modulus (GPa) = 10.83698 14.67182 12.75440
#
# Velocity S-wave (km/s) = 2.99114 3.48036 3.24499
# Velocity P-wave (km/s) = 5.62416 7.07754 6.39229
#
# Compressibility (1/GPa) = 0.04190410
#
# Stress axis : x y z
#
# Youngs Moduli (GPa) = 40.31396 11.48377 27.80020
#
# Poissons Ratio (x) = 0.02230 0.29173
# Poissons Ratio (y) = 0.07827 1.12703
# Poissons Ratio (z) = 0.42305 0.46556
#
# Static dielectric constant tensor:
#      x y z
#    x 2.566450 0.000000 0.000000 
#    y 0.000000 2.353980 0.000000 
#    z 0.000000 0.000000 2.411830 
# 
# 
# High freq. dielectric constant tensor:
#      x y z
#    x 1.471560 0.000000 0.000000 
#    y 0.000000 1.401750 0.000000 
#    z 0.000000 0.000000 1.450880 
# 
# From -- ./inp_files/17620.got.cif
#   From: 2010.06.25/outbox.cif.g09.slc.cpg/sg71_9_cif.got.tgz:17620.got - 2010.06.28 04:59:45.
