data_PCOD8288551
_publ_section_title
;
Structure prediction by ZEFSAII (Michael W. Deem and Ramdas Pophale) SiO2 
 PCOD8288551
Probable space group: I M M M
;
_chemical_formula_sum "Si O2"
_cell_formula_units_Z 128
_cell_length_a 27.963044
_cell_length_b 27.295272
_cell_length_c 9.842361
_cell_angle_alpha 90.000000
_cell_angle_beta 90.000000
_cell_angle_gamma 90.000000
_cell_volume 7512.269551
_symmetry_space_group_name_H-M "I M M M"
_symmetry_group_IT_number 71
_symmetry_cell_setting 'orthorhombic'
loop_
_space_group_symop_operation_xyz
x,y,z
-x,-y,z
x,-y,-z
-x,y,-z
-x,-y,-z
x,y,-z
-x,y,z
x,-y,z
1/2+x,1/2+y,1/2+z
1/2-x,1/2-y,1/2+z
1/2+x,1/2-y,1/2-z
1/2-x,1/2+y,1/2-z
1/2-x,1/2-y,1/2-z
1/2+x,1/2+y,1/2-z
1/2-x,1/2+y,1/2+z
1/2+x,1/2-y,1/2+z
loop_
_atom_site_type_symbol
_atom_site_label
_atom_site_fract_x
_atom_site_fract_y
_atom_site_fract_z
Si Si1 0.628299 0.098831 0.151912
Si Si2 0.445073 0.055819 0.346076
Si Si3 0.273330 0.946374 0.838613
Si Si4 0.767695 0.152375 0.839794
Si Si5 0.359914 0.289062 0.658238
Si Si6 0.443262 0.554242 0.152344
Si Si7 0.326377 0.796526 0.153626
Si Si8 0.055062 0.140997 0.156817
O O1 0.583837 0.091964 0.250284
O O2 0.672366 0.065722 0.203840
O O3 0.641511 0.155486 0.153953
O O4 0.613583 0.082907 0.000000
O O5 0.427132 0.062402 0.500000
O O6 0.500000 0.071107 0.334445
O O7 0.437673 0.000000 0.298513
O O8 0.239242 0.902892 0.780172
O O9 0.258979 0.000000 0.778689
O O10 0.269432 0.947594 0.000000
O O11 0.819810 0.171239 0.798954
O O12 0.726496 0.189924 0.787612
O O13 0.759863 0.149000 0.000000
O O14 0.354581 0.274897 0.500000
O O15 0.352765 0.241441 0.748554
O O16 0.412081 0.311897 0.688443
O O17 0.500000 0.553305 0.156945
O O18 0.424028 0.500000 0.193722
O O19 0.424703 0.595193 0.256877
O O20 0.425812 0.567437 0.000000
O O21 0.323058 0.775077 0.000000
O O22 0.000000 0.154161 0.193630
O O23 0.059863 0.125596 0.000000
#
# Coordination Sequence:
#
# PCOD8288551 Si02
#       8
#    16  16  16  16  16  16  16  16
#     4   9  17  29  46  68  90 114 150 192 229 269
#     4   9  18  31  45  64  93 126 156 186 222 265
#     4   8  13  23  42  67  93 118 142 175 224 275
#     4   8  15  28  45  67  93 117 145 184 225 267
#     4  10  19  31  48  68  90 119 156 192 225 268
#     4   8  14  26  45  67  88 112 146 185 221 261
#     4   9  18  32  49  69  92 115 144 189 240 279
#     4   9  18  31  45  64  92 122 151 186 226 265
#
# _framework density 17.038792000000001
#
# number of rings (size 3 to 8) (size 9 to 14) (size 15 to 20)
#    0.000    3.250    0.000    3.000    0.000    2.250 
#    0.000    3.125    0.000    5.250    0.000    0.000 
#    0.000    2.000    0.000    0.000    0.000    0.000 
#
# Total GULP energy -793198.250381 kJ/mol
# GULP energy per Si atom -12393.722662 kJ/mol
# Density = 1.700001 g / cm^3
# Si number density = 17.038792 Si / 1000 Ang^3
#
#
#
# Elastic Constant Matrix: (Units=GPa)
#
#
# Indices 1 2 3 4 5 6 
#
# 1 73.4326 38.0484 33.5071 0.0000 0.0000 0.0000
# 2 38.0484 95.1177 38.2327 0.0000 0.0000 0.0000
# 3 33.5071 38.2327 52.4266 0.0000 0.0000 0.0000
# 4 0.0000 0.0000 0.0000 30.0917 0.0000 0.0000
# 5 0.0000 0.0000 0.0000 0.0000 15.5784 0.0000
# 6 0.0000 0.0000 0.0000 0.0000 0.0000 19.6386
#
#
#
# Elastic Compliance Matrix: (Units=1/GPa)
#
#
# Indices 1 2 3 4 5 6 
#
# 1 0.020300 -0.004110 -0.009977 0.000000 0.000000 0.000000
# 2 -0.004110 0.015705 -0.008826 0.000000 0.000000 0.000000
# 3 -0.009977 -0.008826 0.031887 0.000000 0.000000 0.000000
# 4 0.000000 0.000000 0.000000 0.033232 0.000000 0.000000
# 5 0.000000 0.000000 0.000000 0.000000 0.064191 0.000000
# 6 0.000000 0.000000 0.000000 0.000000 0.000000 0.050920
#
#
# Mechanical properties :
#
#
# Convention : Reuss Voigt Hill
#
# Bulk Modulus (GPa) = 45.31856 48.95038 47.13447
# Shear Modulus (GPa) = 18.55855 20.47431 19.51643
#
# Velocity S-wave (km/s) = 3.30387 3.47021 3.38806
# Velocity P-wave (km/s) = 6.41943 6.69684 6.55960
#
# Compressibility (1/GPa) = 0.02206602
#
# Stress axis : x y z
#
# Youngs Moduli (GPa) = 49.26125 63.67362 31.36035
#
# Poissons Ratio (x) = 0.26170 0.31288
# Poissons Ratio (y) = 0.20247 0.27680
# Poissons Ratio (z) = 0.49147 0.56200
#
# Static dielectric constant tensor:
#      x y z
#    x 3.040010 0.000000 0.000000 
#    y 0.000000 3.299360 0.000000 
#    z 0.000000 0.000000 3.012210 
# 
# 
# High freq. dielectric constant tensor:
#      x y z
#    x 1.640360 0.000000 0.000000 
#    y 0.000000 1.655570 0.000000 
#    z 0.000000 0.000000 1.631850 
# 
# From -- ./inp_files/29264.got.cif
#   From: 2010.06.25/outbox.cif.g09.slc.cpg/sg71_15_cif.got.tgz:29264.got - 2010.06.28 04:59:45.
