data_PCOD8288580
_publ_section_title
;
Structure prediction by ZEFSAII (Michael W. Deem and Ramdas Pophale) SiO2 
 PCOD8288580
Probable space group: I M M M
;
_chemical_formula_sum "Si O2"
_cell_formula_units_Z 104
_cell_length_a 29.595756
_cell_length_b 8.985357
_cell_length_c 22.188127
_cell_angle_alpha 90.000000
_cell_angle_beta 90.000000
_cell_angle_gamma 90.000000
_cell_volume 5900.453852
_symmetry_space_group_name_H-M "I M M M"
_symmetry_group_IT_number 71
_symmetry_cell_setting 'orthorhombic'
loop_
_space_group_symop_operation_xyz
x,y,z
-x,-y,z
x,-y,-z
-x,y,-z
-x,-y,-z
x,y,-z
-x,y,z
x,-y,z
1/2+x,1/2+y,1/2+z
1/2-x,1/2-y,1/2+z
1/2+x,1/2-y,1/2-z
1/2-x,1/2+y,1/2-z
1/2-x,1/2-y,1/2-z
1/2+x,1/2+y,1/2-z
1/2-x,1/2+y,1/2+z
1/2+x,1/2-y,1/2+z
loop_
_atom_site_type_symbol
_atom_site_label
_atom_site_fract_x
_atom_site_fract_y
_atom_site_fract_z
Si Si1 0.785394 0.167747 0.928390
Si Si2 0.550506 0.823259 0.000000
Si Si3 0.607339 0.824076 0.113820
Si Si4 0.125022 0.673621 0.930572
Si Si5 0.195005 0.824791 0.569883
Si Si6 0.552139 0.670069 0.646952
Si Si7 0.948094 0.828813 0.713712
O O1 0.831148 0.242655 0.903794
O O2 0.742153 0.259621 0.905441
O O3 0.782370 0.000000 0.903524
O O4 0.786335 0.171335 0.000000
O O5 0.576332 0.765179 0.059038
O O6 0.500000 0.755801 0.000000
O O7 0.548387 0.000000 0.000000
O O8 0.655848 0.747033 0.109820
O O9 0.584013 0.779112 0.176071
O O10 0.614051 0.000000 0.111154
O O11 0.133883 0.500000 0.923078
O O12 0.081167 0.719795 0.893482
O O13 0.116670 0.716930 0.000000
O O14 0.187430 0.781582 0.500000
O O15 0.195517 0.000000 0.579419
O O16 0.500000 0.704747 0.633548
O O17 0.563518 0.500000 0.629960
O O18 0.563160 0.699320 0.716660
O O19 0.000000 0.787577 0.700102
O O20 0.938836 0.000000 0.696353
#
# Coordination Sequence:
#
# PCOD8288580 Si02
#       7
#    16   8  16  16  16  16  16
#     4   9  17  30  50  74 101 134 171 207 247 300
#     4   9  18  30  43  65  99 133 165 209 260 303
#     4  11  20  31  49  72 101 134 172 215 259 308
#     4  10  20  33  51  79 112 139 165 202 251 301
#     4  10  19  31  48  71 102 135 170 212 260 306
#     4   9  19  36  56  76 101 136 175 212 249 296
#     4   9  19  36  54  72  97 131 173 217 258 302
#
# _framework density 17.625764
#
# number of rings (size 3 to 8) (size 9 to 14) (size 15 to 20)
#    0.000    2.385    0.769    3.231    0.000    5.538 
#    0.000    3.077    0.000    2.769    0.000    0.000 
#    0.000    0.000    0.000    0.000    0.000    0.000 
#
# Total GULP energy -644930.056112 kJ/mol
# GULP energy per Si atom -12402.501079 kJ/mol
# Density = 1.758565 g / cm^3
# Si number density = 17.625764 Si / 1000 Ang^3
#
#
#
# Elastic Constant Matrix: (Units=GPa)
#
#
# Indices 1 2 3 4 5 6 
#
# 1 126.2941 54.5697 48.8728 0.0000 0.0000 0.0000
# 2 54.5697 88.1649 34.5974 0.0000 0.0000 0.0000
# 3 48.8728 34.5974 56.1554 0.0000 0.0000 0.0000
# 4 0.0000 0.0000 0.0000 25.9560 0.0000 0.0000
# 5 0.0000 0.0000 0.0000 0.0000 18.2567 0.0000
# 6 0.0000 0.0000 0.0000 0.0000 0.0000 35.9510
#
#
#
# Elastic Compliance Matrix: (Units=1/GPa)
#
#
# Indices 1 2 3 4 5 6 
#
# 1 0.013367 -0.004891 -0.008620 0.000000 0.000000 0.000000
# 2 -0.004891 0.016748 -0.006062 0.000000 0.000000 0.000000
# 3 -0.008620 -0.006062 0.029045 0.000000 0.000000 0.000000
# 4 0.000000 0.000000 0.000000 0.038527 0.000000 0.000000
# 5 0.000000 0.000000 0.000000 0.000000 0.054774 0.000000
# 6 0.000000 0.000000 0.000000 0.000000 0.000000 0.027816
#
#
# Mechanical properties :
#
#
# Convention : Reuss Voigt Hill
#
# Bulk Modulus (GPa) = 49.96524 60.74380 55.35452
# Shear Modulus (GPa) = 22.11453 24.87104 23.49279
#
# Velocity S-wave (km/s) = 3.54598 3.76049 3.65480
# Velocity P-wave (km/s) = 6.72121 7.30704 7.02024
#
# Compressibility (1/GPa) = 0.02001391
#
# Stress axis : x y z
#
# Youngs Moduli (GPa) = 74.81030 59.70690 34.42922
#
# Poissons Ratio (x) = 0.29202 0.29679
# Poissons Ratio (y) = 0.36588 0.20872
# Poissons Ratio (z) = 0.64489 0.36196
#
# Static dielectric constant tensor:
#      x y z
#    x 3.350200 0.000000 0.000000 
#    y 0.000000 3.214580 0.000000 
#    z 0.000000 0.000000 2.965880 
# 
# 
# High freq. dielectric constant tensor:
#      x y z
#    x 1.691110 0.000000 0.000000 
#    y 0.000000 1.684440 0.000000 
#    z 0.000000 0.000000 1.647100 
# 
# From -- ./inp_files/15041.got.cif
#   From: 2010.06.25/outbox.cif.g09.slc.cpg/sg71_8_cif.got.tgz:15041.got - 2010.06.28 04:59:45.
