data_PCOD8288579
_publ_section_title
;
Structure prediction by ZEFSAII (Michael W. Deem and Ramdas Pophale) SiO2 
 PCOD8288579
Probable space group: I M M M
;
_chemical_formula_sum "Si O2"
_cell_formula_units_Z 104
_cell_length_a 29.641347
_cell_length_b 8.914395
_cell_length_c 22.528915
_cell_angle_alpha 90.000000
_cell_angle_beta 90.000000
_cell_angle_gamma 90.000000
_cell_volume 5952.920544
_symmetry_space_group_name_H-M "I M M M"
_symmetry_group_IT_number 71
_symmetry_cell_setting 'orthorhombic'
loop_
_space_group_symop_operation_xyz
x,y,z
-x,-y,z
x,-y,-z
-x,y,-z
-x,-y,-z
x,y,-z
-x,y,z
x,-y,z
1/2+x,1/2+y,1/2+z
1/2-x,1/2-y,1/2+z
1/2+x,1/2-y,1/2-z
1/2-x,1/2+y,1/2-z
1/2-x,1/2-y,1/2-z
1/2+x,1/2+y,1/2-z
1/2-x,1/2+y,1/2+z
1/2+x,1/2-y,1/2+z
loop_
_atom_site_type_symbol
_atom_site_label
_atom_site_fract_x
_atom_site_fract_y
_atom_site_fract_z
Si Si1 0.784299 0.168923 0.929488
Si Si2 0.550469 0.821676 0.000000
Si Si3 0.605887 0.177881 0.112972
Si Si4 0.125821 0.675514 0.932476
Si Si5 0.193657 0.823355 0.568699
Si Si6 0.551398 0.826939 0.661030
Si Si7 0.947849 0.825375 0.716813
O O1 0.830377 0.242080 0.905410
O O2 0.741376 0.263019 0.906903
O O3 0.780393 0.000000 0.905229
O O4 0.785491 0.173514 0.000000
O O5 0.575991 0.761806 0.941864
O O6 0.500000 0.754676 0.000000
O O7 0.548915 0.000000 0.000000
O O8 0.655335 0.248140 0.108572
O O9 0.582966 0.229235 0.173400
O O10 0.610160 0.000000 0.111982
O O11 0.135839 0.500000 0.929479
O O12 0.082583 0.721411 0.893853
O O13 0.115939 0.726272 0.000000
O O14 0.186450 0.777187 0.500000
O O15 0.192290 0.000000 0.577254
O O16 0.500000 0.799219 0.640887
O O17 0.564170 0.723867 0.716663
O O18 0.559114 0.000000 0.678892
O O19 0.000000 0.789428 0.702699
O O20 0.936997 0.000000 0.709088
#
# Coordination Sequence:
#
# PCOD8288579 Si02
#       7
#    16   8  16  16  16  16  16
#     4   9  17  29  47  71 100 134 171 206 244 296
#     4   9  18  30  45  69  99 129 161 203 254 301
#     4  11  20  32  51  73 100 131 169 213 256 305
#     4   9  17  30  50  78 109 136 164 202 251 299
#     4  10  19  31  48  71 102 134 167 208 256 303
#     4   9  18  33  53  76 102 135 173 208 244 294
#     4  10  21  36  52  71  97 132 174 215 254 297
#
# _framework density 17.470417000000001
#
# number of rings (size 3 to 8) (size 9 to 14) (size 15 to 20)
#    0.000    2.385    0.769    2.308    0.000    4.923 
#    0.000    1.538    0.000    2.769    0.000    4.308 
#    0.000    0.000    0.000    0.000    0.000    0.000 
#
# Total GULP energy -644916.944932 kJ/mol
# GULP energy per Si atom -12402.248941 kJ/mol
# Density = 1.743065 g / cm^3
# Si number density = 17.470417 Si / 1000 Ang^3
#
#
#
# Elastic Constant Matrix: (Units=GPa)
#
#
# Indices 1 2 3 4 5 6 
#
# 1 140.1896 50.7897 61.5867 0.0000 0.0000 0.0000
# 2 50.7897 73.9571 31.6606 0.0000 0.0000 0.0000
# 3 61.5867 31.6606 70.4073 0.0000 0.0000 0.0000
# 4 0.0000 0.0000 0.0000 20.7226 0.0000 0.0000
# 5 0.0000 0.0000 0.0000 0.0000 18.8065 0.0000
# 6 0.0000 0.0000 0.0000 0.0000 0.0000 30.3085
#
#
#
# Elastic Compliance Matrix: (Units=1/GPa)
#
#
# Indices 1 2 3 4 5 6 
#
# 1 0.012922 -0.004997 -0.009056 0.000000 0.000000 0.000000
# 2 -0.004997 0.018677 -0.004028 0.000000 0.000000 0.000000
# 3 -0.009056 -0.004028 0.023936 0.000000 0.000000 0.000000
# 4 0.000000 0.000000 0.000000 0.048257 0.000000 0.000000
# 5 0.000000 0.000000 0.000000 0.000000 0.053173 0.000000
# 6 0.000000 0.000000 0.000000 0.000000 0.000000 0.032994
#
#
# Mechanical properties :
#
#
# Convention : Reuss Voigt Hill
#
# Bulk Modulus (GPa) = 51.61728 63.62533 57.62130
# Shear Modulus (GPa) = 21.49810 23.33530 22.41670
#
# Velocity S-wave (km/s) = 3.51172 3.65869 3.58596
# Velocity P-wave (km/s) = 6.78620 7.37197 7.08514
#
# Compressibility (1/GPa) = 0.01937336
#
# Stress axis : x y z
#
# Youngs Moduli (GPa) = 77.38673 53.54057 41.77864
#
# Poissons Ratio (x) = 0.26756 0.37835
# Poissons Ratio (y) = 0.38673 0.16826
# Poissons Ratio (z) = 0.70082 0.21564
#
# Static dielectric constant tensor:
#      x y z
#    x 3.383660 0.000000 0.000000 
#    y 0.000000 3.228260 0.000000 
#    z 0.000000 0.000000 3.002830 
# 
# 
# High freq. dielectric constant tensor:
#      x y z
#    x 1.683380 0.000000 0.000000 
#    y 0.000000 1.676880 0.000000 
#    z 0.000000 0.000000 1.641750 
# 
# From -- ./inp_files/11049.got.cif
#   From: 2010.06.25/outbox.cif.g09.slc.cpg/sg71_6_cif.got.tgz:11049.got - 2010.06.28 04:59:45.
