data_PCOD8288960
_publ_section_title
;
Structure prediction by ZEFSAII (Michael W. Deem and Ramdas Pophale) SiO2 
 PCOD8288960
Probable space group: I M M M
;
_chemical_formula_sum "Si O2"
_cell_formula_units_Z 104
_cell_length_a 21.688408
_cell_length_b 14.245958
_cell_length_c 17.387366
_cell_angle_alpha 90.000000
_cell_angle_beta 90.000000
_cell_angle_gamma 90.000000
_cell_volume 5372.211846
_symmetry_space_group_name_H-M "I M M M"
_symmetry_group_IT_number 71
_symmetry_cell_setting 'orthorhombic'
loop_
_space_group_symop_operation_xyz
x,y,z
-x,-y,z
x,-y,-z
-x,y,-z
-x,-y,-z
x,y,-z
-x,y,z
x,-y,z
1/2+x,1/2+y,1/2+z
1/2-x,1/2-y,1/2+z
1/2+x,1/2-y,1/2-z
1/2-x,1/2+y,1/2-z
1/2-x,1/2-y,1/2-z
1/2+x,1/2+y,1/2-z
1/2-x,1/2+y,1/2+z
1/2+x,1/2-y,1/2+z
loop_
_atom_site_type_symbol
_atom_site_label
_atom_site_fract_x
_atom_site_fract_y
_atom_site_fract_z
Si Si1 0.572422 0.397502 0.914695
Si Si2 0.228008 0.099946 0.246928
Si Si3 0.257896 0.667646 0.585401
Si Si4 0.000000 0.892674 0.909371
Si Si5 0.393539 0.250046 0.413149
Si Si6 0.635746 0.892647 0.287446
Si Si7 0.150987 0.245425 0.331040
O O1 0.500000 0.391372 0.916810
O O2 0.593451 0.500000 0.883868
O O3 0.595080 0.315602 0.860484
O O4 0.599390 0.383112 0.000000
O O5 0.244100 0.094220 0.155720
O O6 0.290154 0.110477 0.297264
O O7 0.184100 0.187685 0.262323
O O8 0.196953 0.000000 0.268651
O O9 0.248957 0.621983 0.500000
O O10 0.323021 0.719084 0.587212
O O11 0.200293 0.737659 0.600847
O O12 0.938670 0.834469 0.883736
O O13 0.000000 0.000000 0.873972
O O14 0.000000 0.904363 0.000000
O O15 0.413165 0.220772 0.500000
O O16 0.399135 0.159405 0.357730
O O17 0.621720 0.838825 0.206845
O O18 0.611635 0.000000 0.282953
#
# Coordination Sequence:
#
# PCOD8288960 Si02
#       7
#    16  16  16   8  16  16  16
#     4   9  19  36  58  85 116 148 182 224 279 339
#     4  10  19  32  52  78 112 148 179 225 287 342
#     4  10  19  32  53  80 108 142 186 228 273 326
#     4   9  20  38  59  81 109 145 179 218 276 345
#     4  10  19  36  57  79 110 144 183 234 284 331
#     4  10  20  36  54  76 109 148 189 234 282 329
#     4  11  18  35  55  81 111 151 183 231 279 337
#
# _framework density 19.358879000000002
#
# number of rings (size 3 to 8) (size 9 to 14) (size 15 to 20)
#    0.000    2.077    3.077    2.308    0.000    1.231 
#    1.385    1.923    0.000    2.769    0.000    1.077 
#    0.000    0.000    0.000    0.000    0.000    0.000 
#
# Total GULP energy -644210.440263 kJ/mol
# GULP energy per Si atom -12388.662313 kJ/mol
# Density = 1.931482 g / cm^3
# Si number density = 19.358879 Si / 1000 Ang^3
#
#
#
# Elastic Constant Matrix: (Units=GPa)
#
#
# Indices 1 2 3 4 5 6 
#
# 1 45.0508 41.6439 37.1438 0.0000 0.0000 0.0000
# 2 41.6439 150.3921 49.7043 0.0000 0.0000 0.0000
# 3 37.1438 49.7043 86.5992 0.0000 0.0000 0.0000
# 4 0.0000 0.0000 0.0000 24.1928 0.0000 0.0000
# 5 0.0000 0.0000 0.0000 0.0000 20.7940 0.0000
# 6 0.0000 0.0000 0.0000 0.0000 0.0000 29.2117
#
#
#
# Elastic Compliance Matrix: (Units=1/GPa)
#
#
# Indices 1 2 3 4 5 6 
#
# 1 0.038866 -0.006482 -0.012950 0.000000 0.000000 0.000000
# 2 -0.006482 0.009287 -0.002550 0.000000 0.000000 0.000000
# 3 -0.012950 -0.002550 0.018565 0.000000 0.000000 0.000000
# 4 0.000000 0.000000 0.000000 0.041335 0.000000 0.000000
# 5 0.000000 0.000000 0.000000 0.000000 0.048091 0.000000
# 6 0.000000 0.000000 0.000000 0.000000 0.000000 0.034233
#
#
# Mechanical properties :
#
#
# Convention : Reuss Voigt Hill
#
# Bulk Modulus (GPa) = 43.94740 59.89178 51.91959
# Shear Modulus (GPa) = 20.66752 25.07639 22.87195
#
# Velocity S-wave (km/s) = 3.27096 3.60299 3.44098
# Velocity P-wave (km/s) = 6.08410 6.95079 6.53184
#
# Compressibility (1/GPa) = 0.02275448
#
# Stress axis : x y z
#
# Youngs Moduli (GPa) = 25.72939 107.67730 53.86366
#
# Poissons Ratio (x) = 0.69799 0.69752
# Poissons Ratio (y) = 0.16678 0.13735
# Poissons Ratio (z) = 0.33319 0.27458
#
# Static dielectric constant tensor:
#      x y z
#    x 3.296930 0.000000 0.000000 
#    y 0.000000 3.620180 0.000000 
#    z 0.000000 0.000000 3.665710 
# 
# 
# High freq. dielectric constant tensor:
#      x y z
#    x 1.730090 0.000000 0.000000 
#    y 0.000000 1.748210 0.000000 
#    z 0.000000 0.000000 1.747310 
# 
# From -- ./inp_files/47353.got.cif
#   From: 2010.06.25/outbox.cif.g09.slc.cpg/sg71_24_cif.got.tgz:47353.got - 2010.06.28 04:59:45.
