data_PCOD8288480
_publ_section_title
;
Structure prediction by ZEFSAII (Michael W. Deem and Ramdas Pophale) SiO2 
 PCOD8288480
Probable space group: I M M M
;
_chemical_formula_sum "Si O2"
_cell_formula_units_Z 88
_cell_length_a 9.411256
_cell_length_b 27.310453
_cell_length_c 18.759358
_cell_angle_alpha 90.000000
_cell_angle_beta 90.000000
_cell_angle_gamma 90.000000
_cell_volume 4821.636459
_symmetry_space_group_name_H-M "I M M M"
_symmetry_group_IT_number 71
_symmetry_cell_setting 'orthorhombic'
loop_
_space_group_symop_operation_xyz
x,y,z
-x,-y,z
x,-y,-z
-x,y,-z
-x,-y,-z
x,y,-z
-x,y,z
x,-y,z
1/2+x,1/2+y,1/2+z
1/2-x,1/2-y,1/2+z
1/2+x,1/2-y,1/2-z
1/2-x,1/2+y,1/2-z
1/2-x,1/2-y,1/2-z
1/2+x,1/2+y,1/2-z
1/2-x,1/2+y,1/2+z
1/2+x,1/2-y,1/2+z
loop_
_atom_site_type_symbol
_atom_site_label
_atom_site_fract_x
_atom_site_fract_y
_atom_site_fract_z
Si Si1 0.833961 0.850755 0.171691
Si Si2 0.834925 0.760043 0.079257
Si Si3 0.663714 0.054805 0.183139
Si Si4 0.835990 0.681735 0.808763
Si Si5 0.343272 0.925814 0.346563
Si Si6 0.847352 0.000000 0.417670
O O1 0.812371 0.816051 0.103364
O O2 0.763995 0.903001 0.150250
O O3 0.759220 0.823740 0.238270
O O4 0.000000 0.858461 0.189718
O O5 0.770755 0.723637 0.139513
O O6 0.000000 0.747074 0.074290
O O7 0.766424 0.753184 0.000000
O O8 0.500000 0.067017 0.164229
O O9 0.687144 0.055647 0.267263
O O10 0.703964 0.000000 0.155117
O O11 0.827126 0.632126 0.853897
O O12 0.000000 0.692434 0.785923
O O13 0.500000 0.942450 0.369900
O O14 0.232995 0.950493 0.398672
O O15 0.872437 0.000000 0.500000
O O16 0.000000 0.000000 0.378370
#
# Coordination Sequence:
#
# PCOD8288480 Si02
#       6
#    16  16  16  16  16   8
#     4  10  19  30  50  80 107 131 163 208 258 303
#     4   9  18  33  52  74 102 136 173 210 248 295
#     4   9  17  32  53  74  98 126 160 204 249 294
#     4   9  18  33  54  75  97 130 170 211 250 292
#     4   9  17  31  49  69  89 116 163 209 240 279
#     4  11  23  33  41  59  93 133 162 193 246 299
#
# _framework density 18.251065000000001
#
# number of rings (size 3 to 8) (size 9 to 14) (size 15 to 20)
#    0.000    2.636    0.909    2.455    0.000    4.727 
#    0.000    2.727    0.000    5.455    0.000    3.818 
#    0.000    0.000    0.000    0.000    0.000    0.000 
#
# Total GULP energy -545332.741967 kJ/mol
# GULP energy per Si atom -12393.925954 kJ/mol
# Density = 1.820952 g / cm^3
# Si number density = 18.251065 Si / 1000 Ang^3
#
#
#
# Elastic Constant Matrix: (Units=GPa)
#
#
# Indices 1 2 3 4 5 6 
#
# 1 74.4477 30.9806 21.0535 0.0001 0.0000 0.0000
# 2 30.9806 109.9956 25.6453 0.0001 0.0000 0.0000
# 3 21.0535 25.6453 47.6662 0.0001 0.0000 0.0000
# 4 0.0001 0.0001 0.0001 -3.1541 0.0000 0.0000
# 5 0.0000 0.0000 0.0000 0.0000 16.3617 0.0000
# 6 0.0000 0.0000 0.0000 0.0000 0.0000 28.0578
#
#
#
# Elastic Compliance Matrix: (Units=1/GPa)
#
#
# Indices 1 2 3 4 5 6 
#
# 1 0.016358 -0.003342 -0.005427 0.000000 0.000000 0.000000
# 2 -0.003342 0.011078 -0.004484 0.000000 0.000000 0.000000
# 3 -0.005427 -0.004484 0.025789 0.000000 0.000000 0.000000
# 4 0.000000 0.000000 0.000000 -0.317049 0.000000 0.000000
# 5 0.000000 0.000000 0.000000 0.000000 0.061119 0.000000
# 6 0.000000 0.000000 0.000000 0.000000 0.000000 0.035641
#
#
# Mechanical properties :
#
#
# Convention : Reuss Voigt Hill
#
# Bulk Modulus (GPa) = 37.42723 43.05204 40.23964
# Shear Modulus (GPa) = -37.97864 18.54841 -9.71511
#
# Velocity S-wave (km/s) = -4.56664 3.19139 -2.30967
# Velocity P-wave (km/s) = 2.69336 6.10082 3.87078
#
# Compressibility (1/GPa) = 0.02671851
#
# Stress axis : x y z
#
# Youngs Moduli (GPa) = 61.13344 90.26919 38.77658
#
# Poissons Ratio (x) = 0.30167 0.21044
# Poissons Ratio (y) = 0.20430 0.17388
# Poissons Ratio (z) = 0.33177 0.40477
#
# Static dielectric constant tensor:
#      x y z
#    x 3.310150 0.000000 0.000000 
#    y 0.000000 3.600230 0.000000 
#    z 0.000000 0.000000 3.073680 
# 
# 
# High freq. dielectric constant tensor:
#      x y z
#    x 1.691080 0.000000 0.000000 
#    y 0.000000 1.723140 0.000000 
#    z 0.000000 0.000000 1.669860 
# 
# From -- ./inp_files/58158.got.cif
#   From: 2010.06.25/outbox.cif.g09.slc.cpg/sg71_30_cif.got.tgz:58158.got - 2010.06.28 04:59:45.
