data_PCOD8288207
_publ_section_title
;
Structure prediction by ZEFSAII (Michael W. Deem and Ramdas Pophale) SiO2 
 PCOD8288207
Probable space group: I M M M
;
_chemical_formula_sum "Si O2"
_cell_formula_units_Z 112
_cell_length_a 18.443497
_cell_length_b 17.736997
_cell_length_c 20.285136
_cell_angle_alpha 90.000000
_cell_angle_beta 90.000000
_cell_angle_gamma 90.000000
_cell_volume 6635.922201
_symmetry_space_group_name_H-M "I M M M"
_symmetry_group_IT_number 71
_symmetry_cell_setting 'orthorhombic'
loop_
_space_group_symop_operation_xyz
x,y,z
-x,-y,z
x,-y,-z
-x,y,-z
-x,-y,-z
x,y,-z
-x,y,z
x,-y,z
1/2+x,1/2+y,1/2+z
1/2-x,1/2-y,1/2+z
1/2+x,1/2-y,1/2-z
1/2-x,1/2+y,1/2-z
1/2-x,1/2-y,1/2-z
1/2+x,1/2+y,1/2-z
1/2-x,1/2+y,1/2+z
1/2+x,1/2-y,1/2+z
loop_
_atom_site_type_symbol
_atom_site_label
_atom_site_fract_x
_atom_site_fract_y
_atom_site_fract_z
Si Si1 0.295071 0.209860 0.575455
Si Si2 0.080115 0.362563 0.761104
Si Si3 0.774120 0.635994 0.428077
Si Si4 0.082957 0.218845 0.158577
Si Si5 0.184521 0.914471 0.192681
Si Si6 0.277593 0.914986 0.319546
Si Si7 0.419807 0.087472 0.883082
O O1 0.302744 0.182994 0.500000
O O2 0.235362 0.275027 0.584624
O O3 0.372524 0.243695 0.598446
O O4 0.266239 0.139999 0.618585
O O5 0.088751 0.274770 0.779496
O O6 0.138383 0.413781 0.798395
O O7 0.091134 0.365747 0.683440
O O8 0.000000 0.392428 0.781267
O O9 0.740240 0.615321 0.500000
O O10 0.737187 0.587759 0.370615
O O11 0.859382 0.617062 0.433156
O O12 0.115796 0.139086 0.181311
O O13 0.000000 0.206356 0.135692
O O14 0.228195 0.888438 0.257895
O O15 0.156608 0.000000 0.200868
O O16 0.257700 0.000000 0.340990
O O17 0.500000 0.101301 0.913365
O O18 0.408495 0.000000 0.866540
#
# Coordination Sequence:
#
# PCOD8288207 Si02
#       7
#    16  16  16  16  16  16  16
#     4   9  20  35  52  73  97 128 167 207 248 298
#     4   9  17  29  47  71  97 127 159 191 232 288
#     4  10  20  33  49  68  96 133 166 197 236 288
#     4   9  19  33  51  72  96 128 164 206 252 294
#     4  10  20  32  49  74 100 128 165 205 248 296
#     4  10  19  31  51  75 100 129 161 204 251 293
#     4  10  19  29  44  68  98 128 158 193 231 277
#
# _framework density 16.877834
#
# number of rings (size 3 to 8) (size 9 to 14) (size 15 to 20)
#    0.000    2.429    1.429    0.857    2.000    4.857 
#    0.000    0.714    0.000    0.000    0.000    8.000 
#    0.000    0.000    0.000    6.286    0.000    0.000 
#
# Total GULP energy -694228.231390 kJ/mol
# GULP energy per Si atom -12396.932703 kJ/mol
# Density = 1.683942 g / cm^3
# Si number density = 16.877834 Si / 1000 Ang^3
#
#
#
# Elastic Constant Matrix: (Units=GPa)
#
#
# Indices 1 2 3 4 5 6 
#
# 1 82.3241 37.6594 30.6576 0.0000 0.0000 0.0000
# 2 37.6594 84.1615 47.2626 0.0000 0.0000 0.0000
# 3 30.6576 47.2626 102.0549 0.0000 0.0000 0.0000
# 4 0.0000 0.0000 0.0000 19.4224 0.0000 0.0000
# 5 0.0000 0.0000 0.0000 0.0000 15.2351 0.0000
# 6 0.0000 0.0000 0.0000 0.0000 0.0000 23.8773
#
#
#
# Elastic Compliance Matrix: (Units=1/GPa)
#
#
# Indices 1 2 3 4 5 6 
#
# 1 0.015558 -0.005861 -0.001959 0.000000 0.000000 0.000000
# 2 -0.005861 0.018266 -0.006699 0.000000 0.000000 0.000000
# 3 -0.001959 -0.006699 0.013489 0.000000 0.000000 0.000000
# 4 0.000000 0.000000 0.000000 0.051487 0.000000 0.000000
# 5 0.000000 0.000000 0.000000 0.000000 0.065638 0.000000
# 6 0.000000 0.000000 0.000000 0.000000 0.000000 0.041881
#
#
# Mechanical properties :
#
#
# Convention : Reuss Voigt Hill
#
# Bulk Modulus (GPa) = 54.71831 55.52220 55.12025
# Shear Modulus (GPa) = 20.70824 21.90435 21.30630
#
# Velocity S-wave (km/s) = 3.50658 3.60643 3.55686
# Velocity P-wave (km/s) = 6.99181 7.09294 7.04256
#
# Compressibility (1/GPa) = 0.01827542
#
# Stress axis : x y z
#
# Youngs Moduli (GPa) = 64.27538 54.74521 74.13249
#
# Poissons Ratio (x) = 0.32089 0.14524
# Poissons Ratio (y) = 0.37675 0.49658
# Poissons Ratio (z) = 0.12593 0.36671
#
# Static dielectric constant tensor:
#      x y z
#    x 3.207280 0.000000 0.000000 
#    y 0.000000 3.102040 0.000000 
#    z 0.000000 0.000000 3.092480 
# 
# 
# High freq. dielectric constant tensor:
#      x y z
#    x 1.642790 0.000000 0.000000 
#    y 0.000000 1.646820 0.000000 
#    z 0.000000 0.000000 1.643520 
# 
# From -- ./inp_files/46375.got.cif
#   From: 2010.06.25/outbox.cif.g09.slc.cpg/sg71_24_cif.got.tgz:46375.got - 2010.06.28 04:59:45.
