data_PCOD8288297
_publ_section_title
;
Structure prediction by ZEFSAII (Michael W. Deem and Ramdas Pophale) SiO2 
 PCOD8288297
Probable space group: I M M M
;
_chemical_formula_sum "Si O2"
_cell_formula_units_Z 96
_cell_length_a 14.303100
_cell_length_b 14.952662
_cell_length_c 26.198533
_cell_angle_alpha 90.000000
_cell_angle_beta 90.000000
_cell_angle_gamma 90.000000
_cell_volume 5603.065054
_symmetry_space_group_name_H-M "I M M M"
_symmetry_group_IT_number 71
_symmetry_cell_setting 'orthorhombic'
loop_
_space_group_symop_operation_xyz
x,y,z
-x,-y,z
x,-y,-z
-x,y,-z
-x,-y,-z
x,y,-z
-x,y,z
x,-y,z
1/2+x,1/2+y,1/2+z
1/2-x,1/2-y,1/2+z
1/2+x,1/2-y,1/2-z
1/2-x,1/2+y,1/2-z
1/2-x,1/2-y,1/2-z
1/2+x,1/2+y,1/2-z
1/2-x,1/2+y,1/2+z
1/2+x,1/2-y,1/2+z
loop_
_atom_site_type_symbol
_atom_site_label
_atom_site_fract_x
_atom_site_fract_y
_atom_site_fract_z
Si Si1 0.892088 0.100495 0.845868
Si Si2 0.104767 0.894553 0.352883
Si Si3 0.892881 0.720529 0.103072
Si Si4 0.719593 0.649677 0.245933
Si Si5 0.258451 0.602733 0.942573
Si Si6 0.102153 0.402572 0.198127
O O1 0.865648 0.174573 0.888911
O O2 0.831713 0.112339 0.795262
O O3 0.000000 0.114661 0.830159
O O4 0.875727 0.000000 0.867814
O O5 0.152861 0.856283 0.302780
O O6 0.161224 0.866115 0.403553
O O7 0.000000 0.855328 0.357457
O O8 0.101910 0.000000 0.347771
O O9 0.828714 0.671088 0.061705
O O10 0.875044 0.672949 0.157082
O O11 0.000000 0.710835 0.084979
O O12 0.750000 0.750000 0.250000
O O13 0.816199 0.594902 0.240032
O O14 0.227104 0.500000 0.931355
O O15 0.298009 0.610585 0.000000
O O16 0.101016 0.500000 0.171065
O O17 0.000000 0.383777 0.223333
#
# Coordination Sequence:
#
# PCOD8288297 Si02
#       6
#    16  16  16  16  16  16
#     4  10  20  33  50  72  99 133 169 205 245 290
#     4  10  20  33  49  70  98 133 169 203 241 290
#     4  10  19  33  50  71  98 129 164 201 244 295
#     4  12  20  30  48  70 100 133 169 209 241 282
#     4  10  20  34  52  75 102 130 163 204 251 301
#     4  10  19  30  45  64  91 127 163 197 236 284
#
# _framework density 17.133479000000001
#
# number of rings (size 3 to 8) (size 9 to 14) (size 15 to 20)
#    0.000    1.667    3.333    2.500    0.000    3.667 
#    0.000    2.500    0.000    0.500    0.000    2.333 
#    0.000    0.000    0.000    6.000    0.000    0.333 
#
# Total GULP energy -594953.245981 kJ/mol
# GULP energy per Si atom -12394.859291 kJ/mol
# Density = 1.709448 g / cm^3
# Si number density = 17.133479 Si / 1000 Ang^3
#
#
#
# Elastic Constant Matrix: (Units=GPa)
#
#
# Indices 1 2 3 4 5 6 
#
# 1 102.7942 25.5211 33.0492 0.0000 0.0000 0.0000
# 2 25.5211 86.1620 6.6949 0.0000 0.0000 0.0000
# 3 33.0492 6.6949 50.1722 0.0000 0.0000 0.0000
# 4 0.0000 0.0000 0.0000 21.0163 0.0000 0.0000
# 5 0.0000 0.0000 0.0000 0.0000 13.8418 0.0000
# 6 0.0000 0.0000 0.0000 0.0000 0.0000 20.7407
#
#
#
# Elastic Compliance Matrix: (Units=1/GPa)
#
#
# Indices 1 2 3 4 5 6 
#
# 1 0.013193 -0.003266 -0.008255 0.000000 0.000000 0.000000
# 2 -0.003266 0.012536 0.000479 0.000000 0.000000 0.000000
# 3 -0.008255 0.000479 0.025305 0.000000 0.000000 0.000000
# 4 0.000000 0.000000 0.000000 0.047582 0.000000 0.000000
# 5 0.000000 0.000000 0.000000 0.000000 0.072245 0.000000
# 6 0.000000 0.000000 0.000000 0.000000 0.000000 0.048214
#
#
# Mechanical properties :
#
#
# Convention : Reuss Voigt Hill
#
# Bulk Modulus (GPa) = 34.54244 41.07321 37.80782
# Shear Modulus (GPa) = 19.93542 22.71066 21.32304
#
# Velocity S-wave (km/s) = 3.41476 3.64471 3.53161
# Velocity P-wave (km/s) = 5.97930 6.46037 6.22449
#
# Compressibility (1/GPa) = 0.02894990
#
# Stress axis : x y z
#
# Youngs Moduli (GPa) = 75.79746 79.76813 39.51802
#
# Poissons Ratio (x) = 0.26055 0.32621
# Poissons Ratio (y) = 0.24758 -0.01892
# Poissons Ratio (z) = 0.62568 -0.03819
#
# Static dielectric constant tensor:
#      x y z
#    x 4.312040 0.000000 0.000000 
#    y 0.000000 3.100430 0.000000 
#    z 0.000000 0.000000 2.934140 
# 
# 
# High freq. dielectric constant tensor:
#      x y z
#    x 1.670490 0.000000 0.000000 
#    y 0.000000 1.662220 0.000000 
#    z 0.000000 0.000000 1.622460 
# 
# From -- ./inp_files/52995.got.cif
#   From: 2010.06.25/outbox.cif.g09.slc.cpg/sg71_27_cif.got.tgz:52995.got - 2010.06.28 04:59:45.
