data_PCOD8288306
_publ_section_title
;
Structure prediction by ZEFSAII (Michael W. Deem and Ramdas Pophale) SiO2 
 PCOD8288306
Probable space group: I M M M
;
_chemical_formula_sum "Si O2"
_cell_formula_units_Z 72
_cell_length_a 33.383749
_cell_length_b 9.181461
_cell_length_c 14.230461
_cell_angle_alpha 90.000000
_cell_angle_beta 90.000000
_cell_angle_gamma 90.000000
_cell_volume 4361.801220
_symmetry_space_group_name_H-M "I M M M"
_symmetry_group_IT_number 71
_symmetry_cell_setting 'orthorhombic'
loop_
_space_group_symop_operation_xyz
x,y,z
-x,-y,z
x,-y,-z
-x,y,-z
-x,-y,-z
x,y,-z
-x,y,z
x,-y,z
1/2+x,1/2+y,1/2+z
1/2-x,1/2-y,1/2+z
1/2+x,1/2-y,1/2-z
1/2-x,1/2+y,1/2-z
1/2-x,1/2-y,1/2-z
1/2+x,1/2+y,1/2-z
1/2-x,1/2+y,1/2+z
1/2+x,1/2-y,1/2+z
loop_
_atom_site_type_symbol
_atom_site_label
_atom_site_fract_x
_atom_site_fract_y
_atom_site_fract_z
Si Si1 0.191132 0.168645 0.104802
Si Si2 0.850324 0.830822 0.711313
Si Si3 0.579095 0.828774 0.890860
Si Si4 0.000000 0.835851 0.388631
Si Si5 0.269948 0.332001 0.891640
O O1 0.154328 0.196360 0.176490
O O2 0.230882 0.246609 0.143391
O O3 0.202090 0.000000 0.102795
O O4 0.179046 0.224217 0.000000
O O5 0.884945 0.729152 0.672282
O O6 0.808915 0.780569 0.664341
O O7 0.859897 0.000000 0.688388
O O8 0.539144 0.749743 0.853598
O O9 0.573786 0.000000 0.875684
O O10 0.587521 0.791754 0.000000
O O11 0.000000 0.840004 0.500000
O O12 0.000000 0.000000 0.347343
O O13 0.261111 0.500000 0.872908
O O14 0.278481 0.297813 0.000000
#
# Coordination Sequence:
#
# PCOD8288306 Si02
#       5
#    16  16  16   8  16
#     4   9  18  31  45  62  86 118 157 198 235 269
#     4  10  19  30  45  65  90 121 155 190 228 271
#     4  10  20  32  47  70  98 123 148 181 219 261
#     4   9  17  31  51  71  94 125 152 173 207 262
#     4   9  17  28  42  61  86 117 153 192 232 274
#
# _framework density 16.506941999999999
#
# number of rings (size 3 to 8) (size 9 to 14) (size 15 to 20)
#    0.000    2.556    0.000    2.333    0.000    5.333 
#    0.000    2.222    0.000    0.000    0.000    0.778 
#    0.000    6.222    0.000    0.000    0.000    0.000 
#
# Total GULP energy -446370.089264 kJ/mol
# GULP energy per Si atom -12399.169146 kJ/mol
# Density = 1.646937 g / cm^3
# Si number density = 16.506942 Si / 1000 Ang^3
#
#
#
# Elastic Constant Matrix: (Units=GPa)
#
#
# Indices 1 2 3 4 5 6 
#
# 1 107.1963 60.4642 54.8769 0.0000 0.0000 0.0000
# 2 60.4642 78.2333 36.1143 0.0000 0.0000 0.0000
# 3 54.8769 36.1143 64.0684 0.0000 0.0000 0.0000
# 4 0.0000 0.0000 0.0000 18.8664 0.0000 0.0000
# 5 0.0000 0.0000 0.0000 0.0000 20.3396 0.0000
# 6 0.0000 0.0000 0.0000 0.0000 0.0000 34.3507
#
#
#
# Elastic Compliance Matrix: (Units=1/GPa)
#
#
# Indices 1 2 3 4 5 6 
#
# 1 0.022161 -0.011308 -0.012608 0.000000 0.000000 0.000000
# 2 -0.011308 0.023048 -0.003306 0.000000 0.000000 0.000000
# 3 -0.012608 -0.003306 0.028271 0.000000 0.000000 0.000000
# 4 0.000000 0.000000 0.000000 0.053004 0.000000 0.000000
# 5 0.000000 0.000000 0.000000 0.000000 0.049165 0.000000
# 6 0.000000 0.000000 0.000000 0.000000 0.000000 0.029111
#
#
# Mechanical properties :
#
#
# Convention : Reuss Voigt Hill
#
# Bulk Modulus (GPa) = 52.53067 61.37877 56.95472
# Shear Modulus (GPa) = 18.82883 21.24751 20.03817
#
# Velocity S-wave (km/s) = 3.38103 3.59163 3.48792
# Velocity P-wave (km/s) = 6.86544 7.37998 7.12735
#
# Compressibility (1/GPa) = 0.01903650
#
# Stress axis : x y z
#
# Youngs Moduli (GPa) = 45.12418 43.38802 35.37175
#
# Poissons Ratio (x) = 0.49061 0.44596
# Poissons Ratio (y) = 0.51024 0.11695
# Poissons Ratio (z) = 0.56892 0.14346
#
# Static dielectric constant tensor:
#      x y z
#    x 3.069850 0.000000 0.000000 
#    y 0.000000 3.144180 0.000000 
#    z 0.000000 0.000000 3.204150 
# 
# 
# High freq. dielectric constant tensor:
#      x y z
#    x 1.618210 0.000000 0.000000 
#    y 0.000000 1.639380 0.000000 
#    z 0.000000 0.000000 1.620730 
# 
# From -- ./inp_files/6031.got.cif
#   From: 2010.06.25/outbox.cif.g09.slc.cpg/sg71_4_cif.got.tgz:6031.got - 2010.06.28 04:59:45.
