data_PCOD8288015
_publ_section_title
;
Structure prediction by ZEFSAII (Michael W. Deem and Ramdas Pophale) SiO2 
 PCOD8288015
Probable space group: I M M M
;
_chemical_formula_sum "Si O2"
_cell_formula_units_Z 80
_cell_length_a 11.535363
_cell_length_b 18.904685
_cell_length_c 19.967569
_cell_angle_alpha 90.000000
_cell_angle_beta 90.000000
_cell_angle_gamma 90.000000
_cell_volume 4354.375771
_symmetry_space_group_name_H-M "I M M M"
_symmetry_group_IT_number 71
_symmetry_cell_setting 'orthorhombic'
loop_
_space_group_symop_operation_xyz
x,y,z
-x,-y,z
x,-y,-z
-x,y,-z
-x,-y,-z
x,y,-z
-x,y,z
x,-y,z
1/2+x,1/2+y,1/2+z
1/2-x,1/2-y,1/2+z
1/2+x,1/2-y,1/2-z
1/2-x,1/2+y,1/2-z
1/2-x,1/2-y,1/2-z
1/2+x,1/2+y,1/2-z
1/2-x,1/2+y,1/2+z
1/2+x,1/2-y,1/2+z
loop_
_atom_site_type_symbol
_atom_site_label
_atom_site_fract_x
_atom_site_fract_y
_atom_site_fract_z
Si Si1 0.714734 0.194639 0.577354
Si Si2 0.133314 0.677899 0.577288
Si Si3 0.364437 0.917596 0.324839
Si Si4 0.500000 0.715327 0.578372
Si Si5 0.500000 0.421180 0.341782
Si Si6 0.245313 0.418843 0.686931
O O1 0.696826 0.173181 0.500000
O O2 0.832199 0.239678 0.587905
O O3 0.713213 0.123088 0.620412
O O4 0.612790 0.244722 0.605699
O O5 0.156668 0.656843 0.500000
O O6 0.210006 0.626345 0.622438
O O7 0.000000 0.669238 0.597173
O O8 0.500000 0.901273 0.335025
O O9 0.325277 0.891786 0.251402
O O10 0.336922 0.000000 0.334268
O O11 0.500000 0.717703 0.500000
O O12 0.500000 0.633787 0.598024
O O13 0.500000 0.500000 0.373287
O O14 0.616835 0.410399 0.297906
O O15 0.212832 0.500000 0.671467
#
# Coordination Sequence:
#
# PCOD8288015 Si02
#       6
#    16  16  16   8   8  16
#     4  10  20  36  57  81 110 140 175 224 275 322
#     4  10  21  37  56  80 110 144 182 221 264 318
#     4  10  21  37  57  81 109 141 178 222 273 326
#     4  10  18  33  55  80 108 140 174 218 272 321
#     4  10  20  35  54  79 112 146 182 219 261 318
#     4  10  21  37  55  79 111 145 181 223 266 315
#
# _framework density 18.372323000000002
#
# number of rings (size 3 to 8) (size 9 to 14) (size 15 to 20)
#    0.000    2.000    3.000    0.600    0.000    3.000 
#    1.800    4.000    0.000    0.000    0.000    2.800 
#    0.000    0.000    0.000    0.000    0.000    0.000 
#
# Total GULP energy -495940.781320 kJ/mol
# GULP energy per Si atom -12398.519533 kJ/mol
# Density = 1.833051 g / cm^3
# Si number density = 18.372323 Si / 1000 Ang^3
#
#
#
# Elastic Constant Matrix: (Units=GPa)
#
#
# Indices 1 2 3 4 5 6 
#
# 1 79.2553 29.6230 36.2152 0.0000 0.0000 0.0000
# 2 29.6230 84.9149 56.7571 0.0000 0.0000 0.0000
# 3 36.2152 56.7571 92.0108 0.0000 0.0000 0.0000
# 4 0.0000 0.0000 0.0000 35.5646 0.0000 0.0000
# 5 0.0000 0.0000 0.0000 0.0000 22.8855 0.0000
# 6 0.0000 0.0000 0.0000 0.0000 0.0000 23.7393
#
#
#
# Elastic Compliance Matrix: (Units=1/GPa)
#
#
# Indices 1 2 3 4 5 6 
#
# 1 0.015640 -0.002283 -0.004748 0.000000 0.000000 0.000000
# 2 -0.002283 0.020372 -0.011668 0.000000 0.000000 0.000000
# 3 -0.004748 -0.011668 0.019934 0.000000 0.000000 0.000000
# 4 0.000000 0.000000 0.000000 0.028118 0.000000 0.000000
# 5 0.000000 0.000000 0.000000 0.000000 0.043696 0.000000
# 6 0.000000 0.000000 0.000000 0.000000 0.000000 0.042124
#
#
# Mechanical properties :
#
#
# Convention : Reuss Voigt Hill
#
# Bulk Modulus (GPa) = 53.91010 55.70797 54.80903
# Shear Modulus (GPa) = 23.42319 25.34360 24.38339
#
# Velocity S-wave (km/s) = 3.57447 3.71812 3.64700
# Velocity P-wave (km/s) = 6.81488 6.98713 6.90154
#
# Compressibility (1/GPa) = 0.01854940
#
# Stress axis : x y z
#
# Youngs Moduli (GPa) = 63.93801 49.08798 50.16473
#
# Poissons Ratio (x) = 0.11205 0.23817
# Poissons Ratio (y) = 0.14595 0.58531
# Poissons Ratio (z) = 0.30357 0.57275
#
# Static dielectric constant tensor:
#      x y z
#    x 3.631850 0.000000 0.000000 
#    y 0.000000 3.328670 0.000000 
#    z 0.000000 0.000000 3.183860 
# 
# 
# High freq. dielectric constant tensor:
#      x y z
#    x 1.718970 0.000000 0.000000 
#    y 0.000000 1.709500 0.000000 
#    z 0.000000 0.000000 1.695290 
# 
# From -- ./inp_files/23828.got.cif
#   From: 2010.06.25/outbox.cif.g09.slc.cpg/sg71_12_cif.got.tgz:23828.got - 2010.06.28 04:59:45.
