data_PCOD8288288
_publ_section_title
;
Structure prediction by ZEFSAII (Michael W. Deem and Ramdas Pophale) SiO2 
 PCOD8288288
Probable space group: I M M M
;
_chemical_formula_sum "Si O2"
_cell_formula_units_Z 104
_cell_length_a 25.030026
_cell_length_b 8.139379
_cell_length_c 25.153172
_cell_angle_alpha 90.000000
_cell_angle_beta 90.000000
_cell_angle_gamma 90.000000
_cell_volume 5124.427258
_symmetry_space_group_name_H-M "I M M M"
_symmetry_group_IT_number 71
_symmetry_cell_setting 'orthorhombic'
loop_
_space_group_symop_operation_xyz
x,y,z
-x,-y,z
x,-y,-z
-x,y,-z
-x,-y,-z
x,y,-z
-x,y,z
x,-y,z
1/2+x,1/2+y,1/2+z
1/2-x,1/2-y,1/2+z
1/2+x,1/2-y,1/2-z
1/2-x,1/2+y,1/2-z
1/2-x,1/2-y,1/2-z
1/2+x,1/2+y,1/2-z
1/2-x,1/2+y,1/2+z
1/2+x,1/2-y,1/2+z
loop_
_atom_site_type_symbol
_atom_site_label
_atom_site_fract_x
_atom_site_fract_y
_atom_site_fract_z
Si Si1 0.343028 0.809135 0.666744
Si Si2 0.151111 0.814195 0.943091
Si Si3 0.721919 0.186966 0.942401
Si Si4 0.936379 0.500000 0.439933
Si Si5 0.374972 0.188004 0.778048
Si Si6 0.723707 0.688891 0.167143
Si Si7 0.437365 0.315095 0.873583
O O1 0.371603 0.773626 0.610020
O O2 0.379158 0.748909 0.716553
O O3 0.283197 0.732608 0.669460
O O4 0.334157 0.000000 0.673271
O O5 0.214443 0.803010 0.942829
O O6 0.131190 0.000000 0.940100
O O7 0.130681 0.737738 0.000000
O O8 0.700420 0.295923 0.893443
O O9 0.702490 0.000000 0.933972
O O10 0.700879 0.251818 0.000000
O O11 0.914042 0.500000 0.500000
O O12 0.915181 0.668221 0.411647
O O13 0.000000 0.500000 0.440169
O O14 0.312712 0.203364 0.793967
O O15 0.411260 0.301386 0.815285
O O16 0.394028 0.000000 0.783528
O O17 0.720866 0.500000 0.184436
O O18 0.500000 0.290724 0.866145
O O19 0.425123 0.500000 0.895926
#
# Coordination Sequence:
#
# PCOD8288288 Si02
#       7
#    16  16  16   8  16  16  16
#     4   9  19  31  45  69  98 132 172 214 256 305
#     4   8  14  25  42  63  88 121 161 204 247 291
#     4   8  14  26  42  58  80 116 160 201 245 295
#     4   9  18  36  62  88 112 138 169 213 271 325
#     4  11  21  34  51  70  99 136 173 211 260 313
#     4  10  19  30  44  66  96 128 168 213 259 304
#     4  10  21  38  60  85 110 137 172 215 268 325
#
# _framework density 20.294951999999999
#
# number of rings (size 3 to 8) (size 9 to 14) (size 15 to 20)
#    0.000    2.692    0.769    2.308    0.000    2.769 
#    0.000    5.385    0.000    1.846    0.000    0.000 
#    0.000    0.615    0.000    6.769    0.000    5.231 
#
# Total GULP energy -644237.794263 kJ/mol
# GULP energy per Si atom -12389.188351 kJ/mol
# Density = 2.024876 g / cm^3
# Si number density = 20.294952 Si / 1000 Ang^3
#
#
#
# Elastic Constant Matrix: (Units=GPa)
#
#
# Indices 1 2 3 4 5 6 
#
# 1 12.1927 15.2976 16.1694 0.0000 0.0000 0.0000
# 2 15.2976 78.0962 48.1961 0.0000 0.0000 0.0000
# 3 16.1694 48.1961 177.5293 0.0000 0.0000 0.0000
# 4 0.0000 0.0000 0.0000 29.3137 0.0000 0.0000
# 5 0.0000 0.0000 0.0000 0.0000 17.4517 0.0000
# 6 0.0000 0.0000 0.0000 0.0000 0.0000 16.8804
#
#
#
# Elastic Compliance Matrix: (Units=1/GPa)
#
#
# Indices 1 2 3 4 5 6 
#
# 1 0.112489 -0.018874 -0.005122 0.000000 0.000000 0.000000
# 2 -0.018874 0.018549 -0.003317 0.000000 0.000000 0.000000
# 3 -0.005122 -0.003317 0.007000 0.000000 0.000000 0.000000
# 4 0.000000 0.000000 0.000000 0.034114 0.000000 0.000000
# 5 0.000000 0.000000 0.000000 0.000000 0.057301 0.000000
# 6 0.000000 0.000000 0.000000 0.000000 0.000000 0.059240
#
#
# Mechanical properties :
#
#
# Convention : Reuss Voigt Hill
#
# Bulk Modulus (GPa) = 11.98853 47.46048 29.72450
# Shear Modulus (GPa) = 13.47273 25.27282 19.37278
#
# Velocity S-wave (km/s) = 2.57932 3.53268 3.09295
# Velocity P-wave (km/s) = 3.84584 6.33055 5.23767
#
# Compressibility (1/GPa) = 0.08341309
#
# Stress axis : x y z
#
# Youngs Moduli (GPa) = 8.88979 53.91265 142.86233
#
# Poissons Ratio (x) = 1.01753 0.73169
# Poissons Ratio (y) = 0.16778 0.47381
# Poissons Ratio (z) = 0.04553 0.17881
#
# Static dielectric constant tensor:
#      x y z
#    x 3.087420 0.000000 0.000000 
#    y 0.000000 3.606140 0.000000 
#    z 0.000000 0.000000 4.602620 
# 
# 
# High freq. dielectric constant tensor:
#      x y z
#    x 1.720110 0.000000 0.000000 
#    y 0.000000 1.781120 0.000000 
#    z 0.000000 0.000000 1.812350 
# 
# From -- ./inp_files/61974.got.cif
#   From: 2010.06.25/outbox.cif.g09.slc.cpg/sg71_31_cif.got.tgz:61974.got - 2010.06.28 04:59:45.
