data_PCOD8288596
_publ_section_title
;
Structure prediction by ZEFSAII (Michael W. Deem and Ramdas Pophale) SiO2 
 PCOD8288596
Probable space group: I M M M
;
_chemical_formula_sum "Si O2"
_cell_formula_units_Z 112
_cell_length_a 15.301652
_cell_length_b 32.526340
_cell_length_c 13.696978
_cell_angle_alpha 90.000000
_cell_angle_beta 90.000000
_cell_angle_gamma 90.000000
_cell_volume 6817.078207
_symmetry_space_group_name_H-M "I M M M"
_symmetry_group_IT_number 71
_symmetry_cell_setting 'orthorhombic'
loop_
_space_group_symop_operation_xyz
x,y,z
-x,-y,z
x,-y,-z
-x,y,-z
-x,-y,-z
x,y,-z
-x,y,z
x,-y,z
1/2+x,1/2+y,1/2+z
1/2-x,1/2-y,1/2+z
1/2+x,1/2-y,1/2-z
1/2-x,1/2+y,1/2-z
1/2-x,1/2-y,1/2-z
1/2+x,1/2+y,1/2-z
1/2-x,1/2+y,1/2+z
1/2+x,1/2-y,1/2+z
loop_
_atom_site_type_symbol
_atom_site_label
_atom_site_fract_x
_atom_site_fract_y
_atom_site_fract_z
Si Si1 0.735004 0.548165 0.886103
Si Si2 0.595943 0.904543 0.384173
Si Si3 0.401525 0.605686 0.211532
Si Si4 0.641915 0.686248 0.891868
Si Si5 0.602255 0.660558 0.389522
Si Si6 0.649878 0.183777 0.611008
Si Si7 0.846038 0.237903 0.219013
O O1 0.731052 0.500000 0.868040
O O2 0.829501 0.564063 0.848594
O O3 0.660477 0.568608 0.820461
O O4 0.720181 0.559266 0.000000
O O5 0.598304 0.902622 0.500000
O O6 0.500000 0.919320 0.347568
O O7 0.614341 0.858720 0.343783
O O8 0.500000 0.588312 0.216595
O O9 0.398313 0.642045 0.132250
O O10 0.371645 0.623146 0.317484
O O11 0.745875 0.682765 0.883552
O O12 0.605019 0.720350 0.815693
O O13 0.612322 0.699357 0.000000
O O14 0.626111 0.647650 0.500000
O O15 0.500000 0.670735 0.377801
O O16 0.655734 0.701675 0.361816
O O17 0.618018 0.189679 0.500000
O O18 0.609111 0.221390 0.673946
O O19 0.750000 0.250000 0.250000
#
# Coordination Sequence:
#
# PCOD8288596 Si02
#       7
#    16  16  16  16  16  16  16
#     4  10  20  33  49  70  98 126 153 192 237 287
#     4   9  17  29  46  67  91 123 158 190 233 285
#     4  10  19  31  49  70  94 125 159 191 231 282
#     4   9  16  27  41  59  89 128 163 193 225 266
#     4   9  18  32  49  70  96 125 161 203 241 278
#     4   9  15  25  41  60  88 121 155 197 237 272
#     4   9  17  26  41  65  93 126 162 194 231 271
#
# _framework density 16.429326
#
# number of rings (size 3 to 8) (size 9 to 14) (size 15 to 20)
#    0.000    2.714    1.429    0.857    0.000    2.857 
#    0.000    3.571    0.000    0.429    0.000    2.000 
#    0.000    0.571    0.000    1.286    0.000    0.143 
#
# Total GULP energy -694067.588718 kJ/mol
# GULP energy per Si atom -12394.064084 kJ/mol
# Density = 1.639193 g / cm^3
# Si number density = 16.429326 Si / 1000 Ang^3
#
#
#
# Elastic Constant Matrix: (Units=GPa)
#
#
# Indices 1 2 3 4 5 6 
#
# 1 76.3742 50.3894 29.0633 0.0002 -0.0001 -0.0001
# 2 50.3894 109.8147 48.3540 -0.0002 0.0002 0.0000
# 3 29.0633 48.3540 95.9691 -0.0040 0.0006 0.0004
# 4 0.0002 -0.0002 -0.0040 23.2243 0.0003 0.0002
# 5 -0.0001 0.0002 0.0006 0.0003 11.8950 0.0001
# 6 -0.0001 0.0000 0.0004 0.0002 0.0001 8.3116
#
#
#
# Elastic Compliance Matrix: (Units=1/GPa)
#
#
# Indices 1 2 3 4 5 6 
#
# 1 0.019004 -0.007950 -0.001750 -0.000001 0.000000 0.000000
# 2 -0.007950 0.015028 -0.005164 -0.000001 0.000000 0.000000
# 3 -0.001750 -0.005164 0.013552 0.000002 -0.000001 -0.000001
# 4 -0.000001 -0.000001 0.000002 0.043058 -0.000001 -0.000001
# 5 0.000000 0.000000 -0.000001 -0.000001 0.084069 -0.000001
# 6 0.000000 0.000000 -0.000001 -0.000001 -0.000001 0.120314
#
#
# Mechanical properties :
#
#
# Convention : Reuss Voigt Hill
#
# Bulk Modulus (GPa) = 56.00208 59.75240 57.87724
# Shear Modulus (GPa) = 15.11918 18.97626 17.04772
#
# Velocity S-wave (km/s) = 3.03686 3.40225 3.22474
# Velocity P-wave (km/s) = 6.81596 7.20292 7.01211
#
# Compressibility (1/GPa) = 0.01785648
#
# Stress axis : x y z
#
# Youngs Moduli (GPa) = 52.61955 66.54202 73.78999
#
# Poissons Ratio (x) = 0.52900 0.12911
# Poissons Ratio (y) = 0.41832 0.38108
# Poissons Ratio (z) = 0.09207 0.34365
#
# Static dielectric constant tensor:
#      x y z
#    x 3.113490 0.000000 0.000000 
#    y 0.000000 3.094150 0.000000 
#    z 0.000000 0.000000 3.219360 
# 
# 
# High freq. dielectric constant tensor:
#      x y z
#    x 1.626250 0.000000 0.000000 
#    y 0.000000 1.619470 0.000000 
#    z 0.000000 0.000000 1.606880 
# 
# From -- ./inp_files/35387.got.cif
#   From: 2010.06.25/outbox.cif.g09.slc.cpg/sg71_18_cif.got.tgz:35387.got - 2010.06.28 04:59:45.
