data_PCOD8288547
_publ_section_title
;
Structure prediction by ZEFSAII (Michael W. Deem and Ramdas Pophale) SiO2 
 PCOD8288547
Probable space group: I M M M
;
_chemical_formula_sum "Si O2"
_cell_formula_units_Z 88
_cell_length_a 19.260458
_cell_length_b 18.235013
_cell_length_c 14.078335
_cell_angle_alpha 90.000000
_cell_angle_beta 90.000000
_cell_angle_gamma 90.000000
_cell_volume 4944.518232
_symmetry_space_group_name_H-M "I M M M"
_symmetry_group_IT_number 71
_symmetry_cell_setting 'orthorhombic'
loop_
_space_group_symop_operation_xyz
x,y,z
-x,-y,z
x,-y,-z
-x,y,-z
-x,-y,-z
x,y,-z
-x,y,z
x,-y,z
1/2+x,1/2+y,1/2+z
1/2-x,1/2-y,1/2+z
1/2+x,1/2-y,1/2-z
1/2-x,1/2+y,1/2-z
1/2-x,1/2-y,1/2-z
1/2+x,1/2+y,1/2-z
1/2-x,1/2+y,1/2+z
1/2+x,1/2-y,1/2+z
loop_
_atom_site_type_symbol
_atom_site_label
_atom_site_fract_x
_atom_site_fract_y
_atom_site_fract_z
Si Si1 0.181213 0.805602 0.109347
Si Si2 0.922876 0.585668 0.500000
Si Si3 0.876846 0.581939 0.296690
Si Si4 0.078552 0.729475 0.238062
Si Si5 0.718164 0.582718 0.758971
Si Si6 0.182571 0.210090 0.610417
O O1 0.116512 0.756370 0.142748
O O2 0.180577 0.881073 0.168240
O O3 0.252145 0.762435 0.130764
O O4 0.171751 0.825190 0.000000
O O5 0.933942 0.500000 0.500000
O O6 0.878883 0.608299 0.407190
O O7 0.000000 0.622809 0.500000
O O8 0.909055 0.500000 0.285462
O O9 0.921514 0.640529 0.237340
O O10 0.799568 0.582511 0.258929
O O11 0.117230 0.759321 0.331700
O O12 0.000000 0.758649 0.238189
O O13 0.690084 0.500000 0.771697
O O14 0.701369 0.628343 0.854088
O O15 0.162919 0.206713 0.500000
#
# Coordination Sequence:
#
# PCOD8288547 Si02
#       6
#    16   8  16  16  16  16
#     4  10  20  37  56  76 107 144 183 226 267 309
#     4   9  18  28  38  62 106 152 178 200 248 307
#     4  10  19  31  47  75 114 146 177 214 256 314
#     4  11  21  34  54  80 109 144 185 219 263 321
#     4  10  19  33  56  83 107 135 178 223 270 321
#     4  10  20  37  56  77 108 143 181 224 268 314
#
# _framework density 17.797488000000001
#
# number of rings (size 3 to 8) (size 9 to 14) (size 15 to 20)
#    0.000    1.909    3.636    1.636    2.545    2.545 
#    0.000    0.000    0.000    9.273    0.000   11.455 
#    0.000    0.000    0.000    0.000    0.000    0.000 
#
# Total GULP energy -545522.780874 kJ/mol
# GULP energy per Si atom -12398.245020 kJ/mol
# Density = 1.775698 g / cm^3
# Si number density = 17.797488 Si / 1000 Ang^3
#
#
#
# Elastic Constant Matrix: (Units=GPa)
#
#
# Indices 1 2 3 4 5 6 
#
# 1 87.2918 12.3278 16.1402 0.0000 0.0000 0.0000
# 2 12.3278 92.1807 13.8829 0.0000 0.0000 0.0000
# 3 16.1402 13.8829 69.5415 0.0000 0.0000 0.0000
# 4 0.0000 0.0000 0.0000 21.0271 0.0000 0.0000
# 5 0.0000 0.0000 0.0000 0.0000 7.1781 0.0000
# 6 0.0000 0.0000 0.0000 0.0000 0.0000 12.7222
#
#
#
# Elastic Compliance Matrix: (Units=1/GPa)
#
#
# Indices 1 2 3 4 5 6 
#
# 1 0.012104 -0.001233 -0.002563 0.000000 0.000000 0.000000
# 2 -0.001233 0.011310 -0.001972 0.000000 0.000000 0.000000
# 3 -0.002563 -0.001972 0.015368 0.000000 0.000000 0.000000
# 4 0.000000 0.000000 0.000000 0.047558 0.000000 0.000000
# 5 0.000000 0.000000 0.000000 0.000000 0.139313 0.000000
# 6 0.000000 0.000000 0.000000 0.000000 0.000000 0.078603
#
#
# Mechanical properties :
#
#
# Convention : Reuss Voigt Hill
#
# Bulk Modulus (GPa) = 36.70114 37.07954 36.89034
# Shear Modulus (GPa) = 15.39063 21.96302 18.67682
#
# Velocity S-wave (km/s) = 2.94388 3.51672 3.24297
# Velocity P-wave (km/s) = 5.67640 6.11303 5.89876
#
# Compressibility (1/GPa) = 0.02724711
#
# Stress axis : x y z
#
# Youngs Moduli (GPa) = 82.61841 88.41673 65.06844
#
# Poissons Ratio (x) = 0.10899 0.16678
# Poissons Ratio (y) = 0.10184 0.12830
# Poissons Ratio (z) = 0.21176 0.17434
#
# Static dielectric constant tensor:
#      x y z
#    x 3.182090 0.000000 0.000000 
#    y 0.000000 3.572910 0.000000 
#    z 0.000000 0.000000 3.299000 
# 
# 
# High freq. dielectric constant tensor:
#      x y z
#    x 1.669880 0.000000 0.000000 
#    y 0.000000 1.688610 0.000000 
#    z 0.000000 0.000000 1.680430 
# 
# From -- ./inp_files/36361.got.cif
#   From: 2010.06.25/outbox.cif.g09.slc.cpg/sg71_19_cif.got.tgz:36361.got - 2010.06.28 04:59:45.
