data_PCOD8288465
_publ_section_title
;
Structure prediction by ZEFSAII (Michael W. Deem and Ramdas Pophale) SiO2 
 PCOD8288465
Probable space group: I M M M
;
_chemical_formula_sum "Si O2"
_cell_formula_units_Z 88
_cell_length_a 8.727665
_cell_length_b 28.742438
_cell_length_c 18.660951
_cell_angle_alpha 90.000000
_cell_angle_beta 90.000000
_cell_angle_gamma 90.000000
_cell_volume 4681.181109
_symmetry_space_group_name_H-M "I M M M"
_symmetry_group_IT_number 71
_symmetry_cell_setting 'orthorhombic'
loop_
_space_group_symop_operation_xyz
x,y,z
-x,-y,z
x,-y,-z
-x,y,-z
-x,-y,-z
x,y,-z
-x,y,z
x,-y,z
1/2+x,1/2+y,1/2+z
1/2-x,1/2-y,1/2+z
1/2+x,1/2-y,1/2-z
1/2-x,1/2+y,1/2-z
1/2-x,1/2-y,1/2-z
1/2+x,1/2+y,1/2-z
1/2-x,1/2+y,1/2+z
1/2+x,1/2-y,1/2+z
loop_
_atom_site_type_symbol
_atom_site_label
_atom_site_fract_x
_atom_site_fract_y
_atom_site_fract_z
Si Si1 0.180509 0.000000 0.265379
Si Si2 0.180426 0.813365 0.293922
Si Si3 0.817745 0.052646 0.500000
Si Si4 0.819072 0.500000 0.612643
Si Si5 0.817695 0.911925 0.650397
Si Si6 0.820877 0.775711 0.859338
Si Si7 0.318284 0.179332 0.000000
Si Si8 0.680684 0.075023 0.000000
O O1 0.221138 0.000000 0.183248
O O2 0.250122 0.046003 0.302262
O O3 0.000000 0.000000 0.276132
O O4 0.243818 0.863514 0.317953
O O5 0.220366 0.807134 0.209957
O O6 0.267277 0.776551 0.343595
O O7 0.000000 0.807313 0.307108
O O8 0.758868 0.080802 0.430731
O O9 0.000000 0.049747 0.500000
O O10 0.752087 0.000000 0.500000
O O11 0.768081 0.453692 0.569989
O O12 0.000000 0.500000 0.628161
O O13 0.000000 0.911984 0.653390
O O14 0.000000 0.776020 0.875542
O O15 0.735432 0.794682 0.928804
O O16 0.500000 0.178286 0.000000
O O17 0.248387 0.126843 0.000000
O O18 0.500000 0.078486 0.000000
#
# Coordination Sequence:
#
# PCOD8288465 Si02
#       8
#     8  16   8   8  16  16   8   8
#     4  10  19  30  49  80 113 140 172 222 270 312
#     4   9  19  36  56  78 107 143 180 221 268 322
#     4   9  14  25  44  69 102 134 163 201 250 303
#     4   9  18  36  55  73 104 142 182 221 262 316
#     4   9  17  29  48  76 108 140 176 217 262 311
#     4  10  21  37  55  78 110 141 176 225 277 321
#     4  11  22  36  57  82 107 141 183 223 269 328
#     4   8  18  36  55  75 103 142 182 223 263 314
#
# _framework density 18.798674999999999
#
# number of rings (size 3 to 8) (size 9 to 14) (size 15 to 20)
#    0.000    2.636    0.909    1.364    2.545    1.455 
#    0.000    4.545    0.000    0.000    0.000    2.545 
#    0.000    0.000    0.000    0.000    0.000    0.000 
#
# Total GULP energy -545521.684516 kJ/mol
# GULP energy per Si atom -12398.220103 kJ/mol
# Density = 1.875589 g / cm^3
# Si number density = 18.798675 Si / 1000 Ang^3
#
#
#
# Elastic Constant Matrix: (Units=GPa)
#
#
# Indices 1 2 3 4 5 6 
#
# 1 29.9878 28.6534 25.0218 0.0000 0.0000 0.0000
# 2 28.6534 178.2208 97.7525 0.0001 0.0000 0.0000
# 3 25.0218 97.7525 160.3789 -0.0001 -0.0001 0.0000
# 4 0.0000 0.0001 -0.0001 34.9425 -0.0001 0.0000
# 5 0.0000 0.0000 -0.0001 -0.0001 21.1782 0.0000
# 6 0.0000 0.0000 0.0000 0.0000 0.0000 15.9999
#
#
#
# Elastic Compliance Matrix: (Units=1/GPa)
#
#
# Indices 1 2 3 4 5 6 
#
# 1 0.040700 -0.004598 -0.003548 0.000000 0.000000 0.000000
# 2 -0.004598 0.008948 -0.004737 0.000000 0.000000 0.000000
# 3 -0.003548 -0.004737 0.009676 0.000000 0.000000 0.000000
# 4 0.000000 0.000000 0.000000 0.028618 0.000000 0.000000
# 5 0.000000 0.000000 0.000000 0.000000 0.047218 0.000000
# 6 0.000000 0.000000 0.000000 0.000000 0.000000 0.062500
#
#
# Mechanical properties :
#
#
# Convention : Reuss Voigt Hill
#
# Bulk Modulus (GPa) = 29.79724 74.60477 52.20101
# Shear Modulus (GPa) = 21.31179 28.90145 25.10662
#
# Velocity S-wave (km/s) = 3.37068 3.92525 3.65849
# Velocity P-wave (km/s) = 5.57079 7.76632 6.75831
#
# Compressibility (1/GPa) = 0.03356015
#
# Stress axis : x y z
#
# Youngs Moduli (GPa) = 24.56996 111.75332 103.35071
#
# Poissons Ratio (x) = 0.51382 0.36664
# Poissons Ratio (y) = 0.11297 0.48955
# Poissons Ratio (z) = 0.08716 0.52935
#
# Static dielectric constant tensor:
#      x y z
#    x 3.023280 0.000000 0.000000 
#    y 0.000000 3.820590 0.000000 
#    z 0.000000 0.000000 3.523690 
# 
# 
# High freq. dielectric constant tensor:
#      x y z
#    x 1.690220 0.000000 0.000000 
#    y 0.000000 1.740330 0.000000 
#    z 0.000000 0.000000 1.740160 
# 
# From -- ./inp_files/42573.got.cif
#   From: 2010.06.25/outbox.cif.g09.slc.cpg/sg71_22_cif.got.tgz:42573.got - 2010.06.28 04:59:45.
