data_PCOD8288124
_publ_section_title
;
Structure prediction by ZEFSAII (Michael W. Deem and Ramdas Pophale) SiO2 
 PCOD8288124
Probable space group: I M M M
;
_chemical_formula_sum "Si O2"
_cell_formula_units_Z 120
_cell_length_a 18.758064
_cell_length_b 18.167040
_cell_length_c 22.482929
_cell_angle_alpha 90.000000
_cell_angle_beta 90.000000
_cell_angle_gamma 90.000000
_cell_volume 7661.698798
_symmetry_space_group_name_H-M "I M M M"
_symmetry_group_IT_number 71
_symmetry_cell_setting 'orthorhombic'
loop_
_space_group_symop_operation_xyz
x,y,z
-x,-y,z
x,-y,-z
-x,y,-z
-x,-y,-z
x,y,-z
-x,y,z
x,-y,z
1/2+x,1/2+y,1/2+z
1/2-x,1/2-y,1/2+z
1/2+x,1/2-y,1/2-z
1/2-x,1/2+y,1/2-z
1/2-x,1/2-y,1/2-z
1/2+x,1/2+y,1/2-z
1/2-x,1/2+y,1/2+z
1/2+x,1/2-y,1/2+z
loop_
_atom_site_type_symbol
_atom_site_label
_atom_site_fract_x
_atom_site_fract_y
_atom_site_fract_z
Si Si1 0.418497 0.278794 0.702721
Si Si2 0.672467 0.918377 0.228549
Si Si3 0.416175 0.000000 0.566008
Si Si4 0.919703 0.082324 0.648842
Si Si5 0.418059 0.801558 0.174336
Si Si6 0.416132 0.121702 0.659051
Si Si7 0.164232 0.915586 0.230161
Si Si8 0.583934 0.294699 0.934964
O O1 0.500000 0.301192 0.692632
O O2 0.404375 0.254755 0.771176
O O3 0.398781 0.209979 0.658387
O O4 0.372346 0.352594 0.688489
O O5 0.633914 0.870334 0.178967
O O6 0.629819 0.915516 0.289830
O O7 0.753712 0.893070 0.237553
O O8 0.671552 0.000000 0.202925
O O9 0.394337 0.076322 0.599661
O O10 0.500000 0.000000 0.559325
O O11 0.380946 0.000000 0.500000
O O12 0.870314 0.090289 0.705472
O O13 0.888586 0.129409 0.594184
O O14 0.000000 0.109473 0.666315
O O15 0.921523 0.000000 0.624830
O O16 0.500000 0.827444 0.175620
O O17 0.395621 0.769004 0.110934
O O18 0.500000 0.111278 0.673658
O O19 0.154089 0.000000 0.205454
O O20 0.500000 0.298442 0.943240
O O21 0.619840 0.282506 0.000000
#
# Coordination Sequence:
#
# PCOD8288124 Si02
#       8
#    16  16   8  16  16  16  16  16
#     4   9  16  28  44  64  89 116 148 184 220 264
#     4  10  19  29  43  65  88 115 146 183 224 267
#     4   9  16  28  48  72  96 120 146 176 214 260
#     4   9  16  27  42  60  86 119 151 184 219 257
#     4   9  17  28  43  64  87 114 146 182 228 269
#     4   9  17  28  45  68  90 116 149 180 213 260
#     4  10  19  28  41  65  90 119 149 182 230 270
#     4   9  16  27  43  62  84 111 149 190 221 257
#
# _framework density 15.662323000000001
#
# number of rings (size 3 to 8) (size 9 to 14) (size 15 to 20)
#    0.000    2.733    2.000    1.600    0.000    4.000 
#    0.000    1.333    0.000    1.200    0.000    1.867 
#    0.000    1.600    0.000    5.200    0.000    0.133 
#
# Total GULP energy -743351.148223 kJ/mol
# GULP energy per Si atom -12389.185804 kJ/mol
# Density = 1.562668 g / cm^3
# Si number density = 15.662323 Si / 1000 Ang^3
#
#
#
# Elastic Constant Matrix: (Units=GPa)
#
#
# Indices 1 2 3 4 5 6 
#
# 1 68.5764 51.4650 23.8111 0.0000 0.0000 0.0000
# 2 51.4650 116.4961 52.8475 0.0000 0.0000 0.0000
# 3 23.8111 52.8475 74.7146 0.0000 0.0000 0.0000
# 4 0.0000 0.0000 0.0000 45.5464 0.0000 0.0000
# 5 0.0000 0.0000 0.0000 0.0000 3.3808 0.0000
# 6 0.0000 0.0000 0.0000 0.0000 0.0000 22.0644
#
#
#
# Elastic Compliance Matrix: (Units=1/GPa)
#
#
# Indices 1 2 3 4 5 6 
#
# 1 0.021817 -0.009548 -0.000200 0.000000 0.000000 0.000000
# 2 -0.009548 0.016818 -0.008853 0.000000 0.000000 0.000000
# 3 -0.000200 -0.008853 0.019710 0.000000 0.000000 0.000000
# 4 0.000000 0.000000 0.000000 0.021956 0.000000 0.000000
# 5 0.000000 0.000000 0.000000 0.000000 0.295785 0.000000
# 6 0.000000 0.000000 0.000000 0.000000 0.000000 0.045322
#
#
# Mechanical properties :
#
#
# Convention : Reuss Voigt Hill
#
# Bulk Modulus (GPa) = 47.29438 57.33716 52.31577
# Shear Modulus (GPa) = 10.73755 22.97590 16.85672
#
# Velocity S-wave (km/s) = 2.62117 3.83424 3.28420
# Velocity P-wave (km/s) = 6.27874 7.50264 6.91781
#
# Compressibility (1/GPa) = 0.02114416
#
# Stress axis : x y z
#
# Youngs Moduli (GPa) = 45.83623 59.46041 50.73604
#
# Poissons Ratio (x) = 0.56770 0.01013
# Poissons Ratio (y) = 0.43762 0.44917
# Poissons Ratio (z) = 0.00915 0.52640
#
# Static dielectric constant tensor:
#      x y z
#    x 2.883930 0.000000 0.000000 
#    y 0.000000 3.286270 0.000000 
#    z 0.000000 0.000000 2.861150 
# 
# 
# High freq. dielectric constant tensor:
#      x y z
#    x 1.583540 0.000000 0.000000 
#    y 0.000000 1.612540 0.000000 
#    z 0.000000 0.000000 1.556220 
# 
# From -- ./inp_files/61422.got.cif
#   From: 2010.06.25/outbox.cif.g09.slc.cpg/sg71_31_cif.got.tgz:61422.got - 2010.06.28 04:59:45.
