data_PCOD8288678
_publ_section_title
;
Structure prediction by ZEFSAII (Michael W. Deem and Ramdas Pophale) SiO2 
 PCOD8288678
Probable space group: I M M M
;
_chemical_formula_sum "Si O2"
_cell_formula_units_Z 72
_cell_length_a 9.157358
_cell_length_b 13.202163
_cell_length_c 31.793612
_cell_angle_alpha 90.000000
_cell_angle_beta 90.000000
_cell_angle_gamma 90.000000
_cell_volume 3843.750179
_symmetry_space_group_name_H-M "I M M M"
_symmetry_group_IT_number 71
_symmetry_cell_setting 'orthorhombic'
loop_
_space_group_symop_operation_xyz
x,y,z
-x,-y,z
x,-y,-z
-x,y,-z
-x,-y,-z
x,y,-z
-x,y,z
x,-y,z
1/2+x,1/2+y,1/2+z
1/2-x,1/2-y,1/2+z
1/2+x,1/2-y,1/2-z
1/2-x,1/2+y,1/2-z
1/2-x,1/2-y,1/2-z
1/2+x,1/2+y,1/2-z
1/2-x,1/2+y,1/2+z
1/2+x,1/2-y,1/2+z
loop_
_atom_site_type_symbol
_atom_site_label
_atom_site_fract_x
_atom_site_fract_y
_atom_site_fract_z
Si Si1 0.826605 0.112584 0.047294
Si Si2 0.665590 0.616643 0.729638
Si Si3 0.330533 0.283141 0.815909
Si Si4 0.326249 0.805282 0.598559
Si Si5 0.826734 0.500000 0.047008
O O1 0.766943 0.200139 0.078177
O O2 0.000000 0.118026 0.046509
O O3 0.776632 0.000000 0.062701
O O4 0.767668 0.132144 0.000000
O O5 0.500000 0.651673 0.719880
O O6 0.688024 0.500000 0.720198
O O7 0.701786 0.638090 0.778383
O O8 0.774589 0.673245 0.698375
O O9 0.500000 0.276066 0.827315
O O10 0.242918 0.321718 0.856007
O O11 0.500000 0.803929 0.603011
O O12 0.271806 0.898956 0.570317
O O13 0.000000 0.500000 0.045157
O O14 0.761218 0.500000 0.000000
#
# Coordination Sequence:
#
# PCOD8288678 Si02
#       5
#    16  16  16  16   8
#     4   8  14  26  46  71  96 125 165 211 254 297
#     4   9  19  37  58  75  98 136 177 217 260 311
#     4  10  21  35  52  78 107 135 170 213 263 317
#     4  10  19  31  50  76 104 135 173 217 263 315
#     4   9  18  32  51  77 107 141 183 231 273 305
#
# _framework density 18.731707
#
# number of rings (size 3 to 8) (size 9 to 14) (size 15 to 20)
#    0.000    2.778    0.000    2.000    1.556    4.889 
#    0.000    2.222    0.000    3.333    0.000    1.556 
#    0.000    0.000    0.000    0.000    0.000    0.000 
#
# Total GULP energy -446340.206828 kJ/mol
# GULP energy per Si atom -12398.339079 kJ/mol
# Density = 1.868907 g / cm^3
# Si number density = 18.731707 Si / 1000 Ang^3
#
#
#
# Elastic Constant Matrix: (Units=GPa)
#
#
# Indices 1 2 3 4 5 6 
#
# 1 36.3392 24.8506 32.8397 0.0000 0.0000 0.0000
# 2 24.8506 108.5917 48.0877 0.0000 0.0000 0.0000
# 3 32.8397 48.0877 116.1909 0.0000 0.0000 0.0000
# 4 0.0000 0.0000 0.0000 18.1347 0.0000 0.0000
# 5 0.0000 0.0000 0.0000 0.0000 22.5036 0.0000
# 6 0.0000 0.0000 0.0000 0.0000 0.0000 15.7437
#
#
#
# Elastic Compliance Matrix: (Units=1/GPa)
#
#
# Indices 1 2 3 4 5 6 
#
# 1 0.039020 -0.004954 -0.008978 0.000000 0.000000 0.000000
# 2 -0.004954 0.011904 -0.003527 0.000000 0.000000 0.000000
# 3 -0.008978 -0.003527 0.012604 0.000000 0.000000 0.000000
# 4 0.000000 0.000000 0.000000 0.055143 0.000000 0.000000
# 5 0.000000 0.000000 0.000000 0.000000 0.044437 0.000000
# 6 0.000000 0.000000 0.000000 0.000000 0.000000 0.063517
#
#
# Mechanical properties :
#
#
# Convention : Reuss Voigt Hill
#
# Bulk Modulus (GPa) = 34.95224 52.51976 43.73600
# Shear Modulus (GPa) = 18.44482 21.63266 20.03874
#
# Velocity S-wave (km/s) = 3.14137 3.40202 3.27429
# Velocity P-wave (km/s) = 5.64425 6.59776 6.13954
#
# Compressibility (1/GPa) = 0.02861047
#
# Stress axis : x y z
#
# Youngs Moduli (GPa) = 25.62812 84.00451 79.34201
#
# Poissons Ratio (x) = 0.41612 0.71235
# Poissons Ratio (y) = 0.12695 0.27981
# Poissons Ratio (z) = 0.23009 0.29626
#
# Static dielectric constant tensor:
#      x y z
#    x 3.070670 0.000000 0.000000 
#    y 0.000000 3.628500 0.000000 
#    z 0.000000 0.000000 3.464200 
# 
# 
# High freq. dielectric constant tensor:
#      x y z
#    x 1.683140 0.000000 0.000000 
#    y 0.000000 1.736720 0.000000 
#    z 0.000000 0.000000 1.730300 
# 
# From -- ./inp_files/14296.got.cif
#   From: 2010.06.25/outbox.cif.g09.slc.cpg/sg71_8_cif.got.tgz:14296.got - 2010.06.28 04:59:45.
