data_PCOD8288589
_publ_section_title
;
Structure prediction by ZEFSAII (Michael W. Deem and Ramdas Pophale) SiO2 
 PCOD8288589
Probable space group: I M M M
;
_chemical_formula_sum "Si O2"
_cell_formula_units_Z 88
_cell_length_a 13.689901
_cell_length_b 20.920199
_cell_length_c 16.929583
_cell_angle_alpha 90.000000
_cell_angle_beta 90.000000
_cell_angle_gamma 90.000000
_cell_volume 4848.555596
_symmetry_space_group_name_H-M "I M M M"
_symmetry_group_IT_number 71
_symmetry_cell_setting 'orthorhombic'
loop_
_space_group_symop_operation_xyz
x,y,z
-x,-y,z
x,-y,-z
-x,y,-z
-x,-y,-z
x,y,-z
-x,y,z
x,-y,z
1/2+x,1/2+y,1/2+z
1/2-x,1/2-y,1/2+z
1/2+x,1/2-y,1/2-z
1/2-x,1/2+y,1/2-z
1/2-x,1/2-y,1/2-z
1/2+x,1/2+y,1/2-z
1/2-x,1/2+y,1/2+z
1/2+x,1/2-y,1/2+z
loop_
_atom_site_type_symbol
_atom_site_label
_atom_site_fract_x
_atom_site_fract_y
_atom_site_fract_z
Si Si1 0.293330 0.928566 0.839250
Si Si2 0.244491 0.841651 0.298241
Si Si3 0.891011 0.111069 0.910625
Si Si4 0.887969 0.234590 0.182468
Si Si5 0.110929 0.424193 0.500000
Si Si6 0.389321 0.425750 0.908000
O O1 0.308911 0.882837 0.764469
O O2 0.176918 0.931576 0.854506
O O3 0.333251 0.000000 0.821482
O O4 0.341860 0.897950 0.918447
O O5 0.160109 0.798918 0.258744
O O6 0.324960 0.797021 0.340736
O O7 0.192170 0.886557 0.361305
O O8 0.883145 0.186283 0.891160
O O9 0.000000 0.085810 0.896529
O O10 0.857159 0.100700 0.000000
O O11 0.000000 0.253208 0.201977
O O12 0.123158 0.500000 0.500000
O O13 0.000000 0.401337 0.500000
O O14 0.500000 0.407002 0.882285
O O15 0.371262 0.500000 0.889973
O O16 0.375264 0.411007 0.000000
#
# Coordination Sequence:
#
# PCOD8288589 Si02
#       6
#    16  16  16  16   8  16
#     4  10  19  31  48  72  99 129 167 205 247 301
#     4  10  19  32  52  75  99 136 169 215 251 303
#     4   9  17  30  48  70  97 127 159 199 245 295
#     4   9  19  33  48  70  99 133 171 210 252 294
#     4   9  18  32  47  65  95 133 168 204 242 285
#     4   9  18  33  54  80 107 133 164 208 263 317
#
# _framework density 18.149735
#
# number of rings (size 3 to 8) (size 9 to 14) (size 15 to 20)
#    0.000    2.636    0.909    1.636    0.000    2.545 
#    0.000    0.909    0.000    1.636    0.000    1.273 
#    0.000    0.000    0.000    0.000    0.000    0.000 
#
# Total GULP energy -545390.375509 kJ/mol
# GULP energy per Si atom -12395.235807 kJ/mol
# Density = 1.810843 g / cm^3
# Si number density = 18.149735 Si / 1000 Ang^3
#
#
#
# Elastic Constant Matrix: (Units=GPa)
#
#
# Indices 1 2 3 4 5 6 
#
# 1 79.0732 29.8425 18.6951 0.0000 0.0000 0.0000
# 2 29.8425 63.7331 20.9475 -0.0001 0.0000 0.0000
# 3 18.6951 20.9475 47.1610 -0.0001 0.0000 0.0000
# 4 0.0000 -0.0001 -0.0001 17.2935 0.0000 0.0000
# 5 0.0000 0.0000 0.0000 0.0000 23.1288 0.0000
# 6 0.0000 0.0000 0.0000 0.0000 0.0000 32.4769
#
#
#
# Elastic Compliance Matrix: (Units=1/GPa)
#
#
# Indices 1 2 3 4 5 6 
#
# 1 0.015838 -0.006267 -0.003495 0.000000 0.000000 0.000000
# 2 -0.006267 0.020853 -0.006778 0.000000 0.000000 0.000000
# 3 -0.003495 -0.006778 0.025600 0.000000 0.000000 0.000000
# 4 0.000000 0.000000 0.000000 0.057825 0.000000 0.000000
# 5 0.000000 0.000000 0.000000 0.000000 0.043236 0.000000
# 6 0.000000 0.000000 0.000000 0.000000 0.000000 0.030791
#
#
# Mechanical properties :
#
#
# Convention : Reuss Voigt Hill
#
# Bulk Modulus (GPa) = 34.23354 36.54861 35.39107
# Shear Modulus (GPa) = 21.10066 22.61200 21.85633
#
# Velocity S-wave (km/s) = 3.41337 3.53350 3.47396
# Velocity P-wave (km/s) = 5.86835 6.06865 5.96934
#
# Compressibility (1/GPa) = 0.02921112
#
# Stress axis : x y z
#
# Youngs Moduli (GPa) = 63.13898 47.95526 39.06292
#
# Poissons Ratio (x) = 0.30056 0.13651
# Poissons Ratio (y) = 0.39572 0.26476
# Poissons Ratio (z) = 0.22064 0.32503
#
# Static dielectric constant tensor:
#      x y z
#    x 3.366680 0.000000 0.000000 
#    y 0.000000 3.227930 0.000000 
#    z 0.000000 0.000000 3.222490 
# 
# 
# High freq. dielectric constant tensor:
#      x y z
#    x 1.700740 0.000000 0.000000 
#    y 0.000000 1.687860 0.000000 
#    z 0.000000 0.000000 1.690680 
# 
# From -- ./inp_files/45082.got.cif
#   From: 2010.06.25/outbox.cif.g09.slc.cpg/sg71_23_cif.got.tgz:45082.got - 2010.06.28 04:59:45.
