data_PCOD8288375
_publ_section_title
;
Structure prediction by ZEFSAII (Michael W. Deem and Ramdas Pophale) SiO2 
 PCOD8288375
Probable space group: I M M M
;
_chemical_formula_sum "Si O2"
_cell_formula_units_Z 104
_cell_length_a 17.693079
_cell_length_b 20.894703
_cell_length_c 17.338154
_cell_angle_alpha 90.000000
_cell_angle_beta 90.000000
_cell_angle_gamma 90.000000
_cell_volume 6409.770428
_symmetry_space_group_name_H-M "I M M M"
_symmetry_group_IT_number 71
_symmetry_cell_setting 'orthorhombic'
loop_
_space_group_symop_operation_xyz
x,y,z
-x,-y,z
x,-y,-z
-x,y,-z
-x,-y,-z
x,y,-z
-x,y,z
x,-y,z
1/2+x,1/2+y,1/2+z
1/2-x,1/2-y,1/2+z
1/2+x,1/2-y,1/2-z
1/2-x,1/2+y,1/2-z
1/2-x,1/2-y,1/2-z
1/2+x,1/2+y,1/2-z
1/2-x,1/2+y,1/2+z
1/2+x,1/2-y,1/2+z
loop_
_atom_site_type_symbol
_atom_site_label
_atom_site_fract_x
_atom_site_fract_y
_atom_site_fract_z
Si Si1 0.339395 0.254812 0.176327
Si Si2 0.650583 0.135287 0.910292
Si Si3 0.206939 0.337906 0.187941
Si Si4 0.500000 0.928490 0.908200
Si Si5 0.914230 0.166313 0.200705
Si Si6 0.727464 0.424392 0.698068
Si Si7 0.586801 0.782017 0.589046
O O1 0.362469 0.211469 0.103466
O O2 0.277205 0.304625 0.144509
O O3 0.305511 0.203471 0.235555
O O4 0.405924 0.294317 0.218852
O O5 0.575377 0.103546 0.874476
O O6 0.724254 0.103102 0.872815
O O7 0.658654 0.121692 0.000000
O O8 0.230537 0.407972 0.220161
O O9 0.135560 0.338281 0.130235
O O10 0.500000 0.000000 0.877469
O O11 0.500000 0.923657 0.000000
O O12 0.855750 0.107829 0.196116
O O13 0.896804 0.214071 0.129489
O O14 0.000000 0.140002 0.195951
O O15 0.717322 0.500000 0.690741
O O16 0.610128 0.775856 0.500000
O O17 0.500000 0.802304 0.598589
#
# Coordination Sequence:
#
# PCOD8288375 Si02
#       7
#    16  16  16   8  16  16  16
#     4   8  15  27  45  65  88 117 148 190 236 270
#     4  10  19  30  47  69  93 123 156 190 226 270
#     4   8  15  29  43  63  91 116 151 193 228 266
#     4   9  18  30  40  56  88 124 154 182 210 251
#     4   9  18  31  48  70  95 120 150 191 234 279
#     4  10  20  33  47  64  91 128 164 192 222 265
#     4   9  16  27  47  73  98 120 143 181 236 287
#
# _framework density 16.22523
#
# number of rings (size 3 to 8) (size 9 to 14) (size 15 to 20)
#    0.000    3.000    0.000    3.231    1.077    3.692 
#    4.154    0.000    0.000    0.462    0.000    4.308 
#    0.000    0.000    0.000    6.769    0.000    0.154 
#
# Total GULP energy -644298.368442 kJ/mol
# GULP energy per Si atom -12390.353239 kJ/mol
# Density = 1.618830 g / cm^3
# Si number density = 16.225230 Si / 1000 Ang^3
#
#
#
# Elastic Constant Matrix: (Units=GPa)
#
#
# Indices 1 2 3 4 5 6 
#
# 1 107.0112 46.4464 45.3723 0.0000 0.0000 0.0000
# 2 46.4464 77.7289 40.6957 0.0000 0.0000 0.0000
# 3 45.3723 40.6957 60.5127 0.0000 0.0000 0.0000
# 4 0.0000 0.0000 0.0000 16.5363 0.0000 0.0000
# 5 0.0000 0.0000 0.0000 0.0000 19.9518 0.0000
# 6 0.0000 0.0000 0.0000 0.0000 0.0000 19.3422
#
#
#
# Elastic Compliance Matrix: (Units=1/GPa)
#
#
# Indices 1 2 3 4 5 6 
#
# 1 0.014717 -0.004656 -0.007903 0.000000 0.000000 0.000000
# 2 -0.004656 0.021330 -0.010854 0.000000 0.000000 0.000000
# 3 -0.007903 -0.010854 0.029750 0.000000 0.000000 0.000000
# 4 0.000000 0.000000 0.000000 0.060473 0.000000 0.000000
# 5 0.000000 0.000000 0.000000 0.000000 0.050121 0.000000
# 6 0.000000 0.000000 0.000000 0.000000 0.000000 0.051700
#
#
# Mechanical properties :
#
#
# Convention : Reuss Voigt Hill
#
# Bulk Modulus (GPa) = 52.71124 56.69795 54.70459
# Shear Modulus (GPa) = 17.77836 18.68195 18.23016
#
# Velocity S-wave (km/s) = 3.31376 3.39693 3.35560
# Velocity P-wave (km/s) = 6.87016 7.09970 6.98587
#
# Compressibility (1/GPa) = 0.01897129
#
# Stress axis : x y z
#
# Youngs Moduli (GPa) = 67.95041 46.88257 33.61288
#
# Poissons Ratio (x) = 0.21828 0.26565
# Poissons Ratio (y) = 0.31638 0.36482
# Poissons Ratio (z) = 0.53703 0.50885
#
# Static dielectric constant tensor:
#      x y z
#    x 3.204500 0.000000 0.000000 
#    y 0.000000 2.961310 0.000000 
#    z 0.000000 0.000000 2.940790 
# 
# 
# High freq. dielectric constant tensor:
#      x y z
#    x 1.633480 0.000000 0.000000 
#    y 0.000000 1.595130 0.000000 
#    z 0.000000 0.000000 1.599650 
# 
# From -- ./inp_files/46121.got.cif
#   From: 2010.06.25/outbox.cif.g09.slc.cpg/sg71_24_cif.got.tgz:46121.got - 2010.06.28 04:59:45.
