data_PCOD8288864
_publ_section_title
;
Structure prediction by ZEFSAII (Michael W. Deem and Ramdas Pophale) SiO2 
 PCOD8288864
Probable space group: I M M M
;
_chemical_formula_sum "Si O2"
_cell_formula_units_Z 88
_cell_length_a 25.108851
_cell_length_b 8.857553
_cell_length_c 24.589611
_cell_angle_alpha 90.000000
_cell_angle_beta 90.000000
_cell_angle_gamma 90.000000
_cell_volume 5468.802727
_symmetry_space_group_name_H-M "I M M M"
_symmetry_group_IT_number 71
_symmetry_cell_setting 'orthorhombic'
loop_
_space_group_symop_operation_xyz
x,y,z
-x,-y,z
x,-y,-z
-x,y,-z
-x,-y,-z
x,y,-z
-x,y,z
x,-y,z
1/2+x,1/2+y,1/2+z
1/2-x,1/2-y,1/2+z
1/2+x,1/2-y,1/2-z
1/2-x,1/2+y,1/2-z
1/2-x,1/2-y,1/2-z
1/2+x,1/2+y,1/2-z
1/2-x,1/2+y,1/2+z
1/2+x,1/2-y,1/2+z
loop_
_atom_site_type_symbol
_atom_site_label
_atom_site_fract_x
_atom_site_fract_y
_atom_site_fract_z
Si Si1 0.203771 0.821366 0.437914
Si Si2 0.440939 0.821793 0.222044
Si Si3 0.903404 0.678360 0.605310
Si Si4 0.751961 0.675416 0.662894
Si Si5 0.329292 0.823961 0.740072
Si Si6 0.500000 0.662652 0.939863
O O1 0.215602 0.766601 0.500000
O O2 0.148751 0.757815 0.416326
O O3 0.247546 0.761229 0.395029
O O4 0.202465 0.000000 0.436039
O O5 0.500000 0.755415 0.238220
O O6 0.422091 0.760165 0.163959
O O7 0.392287 0.779777 0.262672
O O8 0.446387 0.000000 0.218383
O O9 0.893442 0.500000 0.605297
O O10 0.949996 0.728441 0.566385
O O11 0.748367 0.500000 0.649968
O O12 0.698998 0.725319 0.694391
O O13 0.804167 0.711281 0.700117
O O14 0.320412 0.000000 0.727077
O O15 0.500000 0.500000 0.906517
O O16 0.500000 0.604858 0.000000
#
# Coordination Sequence:
#
# PCOD8288864 Si02
#       6
#    16  16  16  16  16   8
#     4  11  23  36  49  68  97 129 161 203 252 296
#     4   9  16  29  49  71  95 123 159 202 242 282
#     4  11  20  33  50  67  88 121 167 209 244 285
#     4  10  19  32  51  73  95 124 163 203 243 293
#     4   9  17  31  50  72  97 125 158 200 248 292
#     4  11  23  35  43  57  85 121 163 209 254 291
#
# _framework density 16.091273000000001
#
# number of rings (size 3 to 8) (size 9 to 14) (size 15 to 20)
#    0.000    1.909    2.727    2.455    0.000    5.091 
#    0.000    0.000    0.000    0.000    0.000    0.000 
#    0.000    0.727    0.000    8.364    0.000    2.364 
#
# Total GULP energy -545140.802131 kJ/mol
# GULP energy per Si atom -12389.563685 kJ/mol
# Density = 1.605465 g / cm^3
# Si number density = 16.091273 Si / 1000 Ang^3
#
#
#
# Elastic Constant Matrix: (Units=GPa)
#
#
# Indices 1 2 3 4 5 6 
#
# 1 99.6880 29.9336 46.7134 0.0000 0.0000 0.0000
# 2 29.9336 45.4150 35.0978 0.0000 0.0000 0.0000
# 3 46.7134 35.0978 73.1989 0.0000 0.0000 0.0000
# 4 0.0000 0.0000 0.0000 21.8716 0.0000 0.0000
# 5 0.0000 0.0000 0.0000 0.0000 15.1298 0.0000
# 6 0.0000 0.0000 0.0000 0.0000 0.0000 25.9856
#
#
#
# Elastic Compliance Matrix: (Units=1/GPa)
#
#
# Indices 1 2 3 4 5 6 
#
# 1 0.014730 -0.003883 -0.007538 0.000000 0.000000 0.000000
# 2 -0.003883 0.036006 -0.014786 0.000000 0.000000 0.000000
# 3 -0.007538 -0.014786 0.025562 0.000000 0.000000 0.000000
# 4 0.000000 0.000000 0.000000 0.045721 0.000000 0.000000
# 5 0.000000 0.000000 0.000000 0.000000 0.066095 0.000000
# 6 0.000000 0.000000 0.000000 0.000000 0.000000 0.038483
#
#
# Mechanical properties :
#
#
# Convention : Reuss Voigt Hill
#
# Bulk Modulus (GPa) = 41.87170 49.08795 45.47982
# Shear Modulus (GPa) = 17.42332 19.70119 18.56226
#
# Velocity S-wave (km/s) = 3.29413 3.50285 3.40010
# Velocity P-wave (km/s) = 6.36760 6.85070 6.61356
#
# Compressibility (1/GPa) = 0.02388248
#
# Stress axis : x y z
#
# Youngs Moduli (GPa) = 67.89063 27.77351 39.12064
#
# Poissons Ratio (x) = 0.10784 0.29490
# Poissons Ratio (y) = 0.26360 0.57845
# Poissons Ratio (z) = 0.51178 0.41067
#
# Static dielectric constant tensor:
#      x y z
#    x 3.179640 0.000000 0.000000 
#    y 0.000000 2.995360 0.000000 
#    z 0.000000 0.000000 3.057850 
# 
# 
# High freq. dielectric constant tensor:
#      x y z
#    x 1.607970 0.000000 0.000000 
#    y 0.000000 1.618960 0.000000 
#    z 0.000000 0.000000 1.589550 
# 
# From -- ./inp_files/56141.got.cif
#   From: 2010.06.25/outbox.cif.g09.slc.cpg/sg71_29_cif.got.tgz:56141.got - 2010.06.28 04:59:45.
