data_PCOD8288222
_publ_section_title
;
Structure prediction by ZEFSAII (Michael W. Deem and Ramdas Pophale) SiO2 
 PCOD8288222
Probable space group: I M M M
;
_chemical_formula_sum "Si O2"
_cell_formula_units_Z 72
_cell_length_a 9.577375
_cell_length_b 25.054264
_cell_length_c 17.665260
_cell_angle_alpha 90.000000
_cell_angle_beta 90.000000
_cell_angle_gamma 90.000000
_cell_volume 4238.851241
_symmetry_space_group_name_H-M "I M M M"
_symmetry_group_IT_number 71
_symmetry_cell_setting 'orthorhombic'
loop_
_space_group_symop_operation_xyz
x,y,z
-x,-y,z
x,-y,-z
-x,y,-z
-x,-y,-z
x,y,-z
-x,y,z
x,-y,z
1/2+x,1/2+y,1/2+z
1/2-x,1/2-y,1/2+z
1/2+x,1/2-y,1/2-z
1/2-x,1/2+y,1/2-z
1/2-x,1/2-y,1/2-z
1/2+x,1/2+y,1/2-z
1/2-x,1/2+y,1/2+z
1/2+x,1/2-y,1/2+z
loop_
_atom_site_type_symbol
_atom_site_label
_atom_site_fract_x
_atom_site_fract_y
_atom_site_fract_z
Si Si1 0.657550 0.857256 0.417090
Si Si2 0.164054 0.500000 0.415576
Si Si3 0.163828 0.414919 0.293205
Si Si4 0.842911 0.059485 0.349094
Si Si5 0.658819 0.198844 0.736055
O O1 0.674423 0.830193 0.500000
O O2 0.500000 0.879325 0.406123
O O3 0.766026 0.905663 0.412412
O O4 0.690438 0.815573 0.351058
O O5 0.233136 0.500000 0.500000
O O6 0.207299 0.445455 0.370841
O O7 0.000000 0.500000 0.425373
O O8 0.255793 0.441035 0.228197
O O9 0.194631 0.350903 0.292637
O O10 0.000000 0.424512 0.275508
O O11 0.000000 0.081286 0.334340
O O12 0.849572 0.000000 0.381425
O O13 0.500000 0.215983 0.748099
O O14 0.750000 0.250000 0.750000
#
# Coordination Sequence:
#
# PCOD8288222 Si02
#       5
#    16   8  16  16  16
#     4   9  19  35  52  70  94 126 165 205 242 286
#     4   9  16  28  51  79 102 127 164 215 263 298
#     4   9  17  31  51  72  97 131 171 207 245 300
#     4  10  19  29  45  71 101 131 160 193 238 293
#     4   9  18  32  51  74  96 125 166 206 244 294
#
# _framework density 16.985734999999998
#
# number of rings (size 3 to 8) (size 9 to 14) (size 15 to 20)
#    0.000    2.778    1.111    2.000    0.000    5.778 
#    0.000    3.333    0.000    2.667    0.000    0.000 
#    0.000    0.000    0.000    0.000    0.000    0.000 
#
# Total GULP energy -446035.308408 kJ/mol
# GULP energy per Si atom -12389.869678 kJ/mol
# Density = 1.694707 g / cm^3
# Si number density = 16.985735 Si / 1000 Ang^3
#
#
#
# Elastic Constant Matrix: (Units=GPa)
#
#
# Indices 1 2 3 4 5 6 
#
# 1 80.0181 55.4440 33.4451 0.0000 0.0000 0.0000
# 2 55.4440 129.3970 59.3737 0.0000 0.0000 0.0000
# 3 33.4451 59.3737 122.5384 -0.0001 0.0001 0.0000
# 4 0.0000 0.0000 -0.0001 15.2953 0.0000 0.0000
# 5 0.0000 0.0000 0.0001 0.0000 10.4524 0.0000
# 6 0.0000 0.0000 0.0000 0.0000 0.0000 30.9717
#
#
#
# Elastic Compliance Matrix: (Units=1/GPa)
#
#
# Indices 1 2 3 4 5 6 
#
# 1 0.017989 -0.007015 -0.001511 0.000000 0.000000 0.000000
# 2 -0.007015 0.012673 -0.004226 0.000000 0.000000 0.000000
# 3 -0.001511 -0.004226 0.010621 0.000000 0.000000 0.000000
# 4 0.000000 0.000000 0.000000 0.065380 0.000000 0.000000
# 5 0.000000 0.000000 0.000000 0.000000 0.095672 0.000000
# 6 0.000000 0.000000 0.000000 0.000000 0.000000 0.032287
#
#
# Mechanical properties :
#
#
# Convention : Reuss Voigt Hill
#
# Bulk Modulus (GPa) = 63.37313 69.83103 66.60208
# Shear Modulus (GPa) = 18.84058 23.58993 21.21525
#
# Velocity S-wave (km/s) = 3.33408 3.73071 3.53796
# Velocity P-wave (km/s) = 7.22579 7.73036 7.48233
#
# Compressibility (1/GPa) = 0.01577956
#
# Stress axis : x y z
#
# Youngs Moduli (GPa) = 55.58915 78.90923 94.15592
#
# Poissons Ratio (x) = 0.55352 0.14228
# Poissons Ratio (y) = 0.38994 0.39789
# Poissons Ratio (z) = 0.08400 0.33346
#
# Static dielectric constant tensor:
#      x y z
#    x 3.196790 0.000000 0.000000 
#    y 0.000000 3.064480 0.000000 
#    z 0.000000 0.000000 3.604760 
# 
# 
# High freq. dielectric constant tensor:
#      x y z
#    x 1.650840 0.000000 0.000000 
#    y 0.000000 1.640560 0.000000 
#    z 0.000000 0.000000 1.642590 
# 
# From -- ./inp_files/8145.got.cif
#   From: 2010.06.25/outbox.cif.g09.slc.cpg/sg71_5_cif.got.tgz:8145.got - 2010.06.28 04:59:45.
