data_PCOD8288802
_publ_section_title
;
Structure prediction by ZEFSAII (Michael W. Deem and Ramdas Pophale) SiO2 
 PCOD8288802
Probable space group: I M M M
;
_chemical_formula_sum "Si O2"
_cell_formula_units_Z 120
_cell_length_a 22.191266
_cell_length_b 14.333703
_cell_length_c 22.196252
_cell_angle_alpha 90.000000
_cell_angle_beta 90.000000
_cell_angle_gamma 90.000000
_cell_volume 7060.250781
_symmetry_space_group_name_H-M "I M M M"
_symmetry_group_IT_number 71
_symmetry_cell_setting 'orthorhombic'
loop_
_space_group_symop_operation_xyz
x,y,z
-x,-y,z
x,-y,-z
-x,y,-z
-x,-y,-z
x,y,-z
-x,y,z
x,-y,z
1/2+x,1/2+y,1/2+z
1/2-x,1/2-y,1/2+z
1/2+x,1/2-y,1/2-z
1/2-x,1/2+y,1/2-z
1/2-x,1/2-y,1/2-z
1/2+x,1/2+y,1/2-z
1/2-x,1/2+y,1/2+z
1/2+x,1/2-y,1/2+z
loop_
_atom_site_type_symbol
_atom_site_label
_atom_site_fract_x
_atom_site_fract_y
_atom_site_fract_z
Si Si1 0.566822 0.610519 0.000000
Si Si2 0.347235 0.733100 0.786206
Si Si3 0.633314 0.895197 0.629579
Si Si4 0.333177 0.391725 0.429229
Si Si5 0.782861 0.762344 0.163804
Si Si6 0.570330 0.389814 0.131767
Si Si7 0.430894 0.104180 0.754239
Si Si8 0.435335 0.258269 0.569166
O O1 0.595292 0.642214 0.064642
O O2 0.564017 0.500000 0.000000
O O3 0.500000 0.651985 0.000000
O O4 0.286696 0.755100 0.821539
O O5 0.326676 0.703859 0.718603
O O6 0.386567 0.652507 0.817042
O O7 0.387706 0.825940 0.789831
O O8 0.695200 0.840969 0.644455
O O9 0.587292 0.896542 0.684717
O O10 0.599080 0.839525 0.577211
O O11 0.649578 0.000000 0.608400
O O12 0.320437 0.375038 0.500000
O O13 0.333931 0.500000 0.412813
O O14 0.283360 0.338126 0.389943
O O15 0.396307 0.345943 0.407770
O O16 0.500000 0.359827 0.140250
O O17 0.575664 0.500000 0.138541
O O18 0.500000 0.137243 0.760068
O O19 0.422770 0.000000 0.781237
O O20 0.447516 0.272296 0.500000
O O21 0.500000 0.259203 0.603216
#
# Coordination Sequence:
#
# PCOD8288802 Si02
#       8
#     8  16  16  16  16  16  16  16
#     4   7  12  26  46  68  97 127 153 183 223 284
#     4  10  19  32  49  71  98 128 158 197 249 293
#     4   9  17  30  46  62  88 126 160 190 230 279
#     4   9  18  34  53  68  89 127 167 203 245 287
#     4   9  20  34  47  69  97 125 164 208 243 282
#     4   9  17  30  50  76 104 131 158 192 240 302
#     4   9  17  29  46  67  89 117 154 192 232 283
#     4   9  17  28  44  69  95 117 151 199 242 283
#
# _framework density 16.996563999999999
#
# number of rings (size 3 to 8) (size 9 to 14) (size 15 to 20)
#    0.000    3.000    0.000    1.600    0.000    2.933 
#    1.200    5.333    0.000    0.000    0.000    0.000 
#    0.000    2.667    0.000    0.000    0.000    0.000 
#
# Total GULP energy -743307.324296 kJ/mol
# GULP energy per Si atom -12388.455405 kJ/mol
# Density = 1.695788 g / cm^3
# Si number density = 16.996564 Si / 1000 Ang^3
#
#
#
# Elastic Constant Matrix: (Units=GPa)
#
#
# Indices 1 2 3 4 5 6 
#
# 1 101.3720 47.3563 30.1685 0.0000 0.0000 0.0000
# 2 47.3563 104.6683 35.4675 0.0000 0.0000 0.0000
# 3 30.1685 35.4675 46.2785 0.0000 0.0000 0.0000
# 4 0.0000 0.0000 0.0000 24.1230 0.0000 0.0000
# 5 0.0000 0.0000 0.0000 0.0000 20.2345 0.0000
# 6 0.0000 0.0000 0.0000 0.0000 0.0000 15.0279
#
#
#
# Elastic Compliance Matrix: (Units=1/GPa)
#
#
# Indices 1 2 3 4 5 6 
#
# 1 0.013491 -0.004219 -0.005561 0.000000 0.000000 0.000000
# 2 -0.004219 0.014225 -0.008152 0.000000 0.000000 0.000000
# 3 -0.005561 -0.008152 0.031481 0.000000 0.000000 0.000000
# 4 0.000000 0.000000 0.000000 0.041454 0.000000 0.000000
# 5 0.000000 0.000000 0.000000 0.000000 0.049421 0.000000
# 6 0.000000 0.000000 0.000000 0.000000 0.000000 0.066543
#
#
# Mechanical properties :
#
#
# Convention : Reuss Voigt Hill
#
# Bulk Modulus (GPa) = 42.85745 53.14483 48.00114
# Shear Modulus (GPa) = 19.21191 21.16550 20.18870
#
# Velocity S-wave (km/s) = 3.36570 3.53268 3.45020
# Velocity P-wave (km/s) = 6.35406 6.92645 6.64642
#
# Compressibility (1/GPa) = 0.02333317
#
# Stress axis : x y z
#
# Youngs Moduli (GPa) = 74.12534 70.29752 31.76567
#
# Poissons Ratio (x) = 0.29662 0.17664
# Poissons Ratio (y) = 0.31277 0.25894
# Poissons Ratio (z) = 0.41219 0.57303
#
# Static dielectric constant tensor:
#      x y z
#    x 0.526260 0.000000 0.000000 
#    y 0.000000 3.164210 0.000000 
#    z 0.000000 0.000000 3.248380 
# 
# 
# High freq. dielectric constant tensor:
#      x y z
#    x 1.648980 0.000000 0.000000 
#    y 0.000000 1.645110 0.000000 
#    z 0.000000 0.000000 1.645350 
# 
# From -- ./inp_files/61348.got.cif
#   From: 2010.06.25/outbox.cif.g09.slc.cpg/sg71_31_cif.got.tgz:61348.got - 2010.06.28 04:59:45.
