data_PCOD8288171
_publ_section_title
;
Structure prediction by ZEFSAII (Michael W. Deem and Ramdas Pophale) SiO2 
 PCOD8288171
Probable space group: I M M M
;
_chemical_formula_sum "Si O2"
_cell_formula_units_Z 88
_cell_length_a 18.296250
_cell_length_b 9.348020
_cell_length_c 29.622157
_cell_angle_alpha 90.000000
_cell_angle_beta 90.000000
_cell_angle_gamma 90.000000
_cell_volume 5066.387437
_symmetry_space_group_name_H-M "I M M M"
_symmetry_group_IT_number 71
_symmetry_cell_setting 'orthorhombic'
loop_
_space_group_symop_operation_xyz
x,y,z
-x,-y,z
x,-y,-z
-x,y,-z
-x,-y,-z
x,y,-z
-x,y,z
x,-y,z
1/2+x,1/2+y,1/2+z
1/2-x,1/2-y,1/2+z
1/2+x,1/2-y,1/2-z
1/2-x,1/2+y,1/2-z
1/2-x,1/2-y,1/2-z
1/2+x,1/2+y,1/2-z
1/2-x,1/2+y,1/2+z
1/2+x,1/2-y,1/2+z
loop_
_atom_site_type_symbol
_atom_site_label
_atom_site_fract_x
_atom_site_fract_y
_atom_site_fract_z
Si Si1 0.415724 0.166483 0.587251
Si Si2 0.000000 0.340068 0.655990
Si Si3 0.361122 0.334448 0.265482
Si Si4 0.000000 0.661691 0.763481
Si Si5 0.204088 0.334697 0.160681
Si Si6 0.913588 0.160256 0.000000
Si Si7 0.363315 0.338854 0.840300
O O1 0.500000 0.202886 0.600433
O O2 0.361335 0.209834 0.627486
O O3 0.387714 0.255726 0.544360
O O4 0.408132 0.000000 0.575102
O O5 0.000000 0.338080 0.709639
O O6 0.926029 0.262550 0.638884
O O7 0.000000 0.500000 0.636365
O O8 0.370760 0.500000 0.277904
O O9 0.431012 0.245614 0.282529
O O10 0.295988 0.265271 0.294733
O O11 0.349463 0.312203 0.212646
O O12 0.000000 0.500000 0.782795
O O13 0.197291 0.500000 0.175996
O O14 0.283849 0.311107 0.136931
O O15 0.000000 0.153491 0.000000
O O16 0.880256 0.000000 0.000000
O O17 0.390914 0.500000 0.848577
#
# Coordination Sequence:
#
# PCOD8288171 Si02
#       7
#    16   8  16   8  16   8  16
#     4   9  18  32  49  69  93 123 157 190 225 269
#     4   9  17  29  47  65  79 106 151 196 235 275
#     4  10  19  29  42  61  86 120 156 196 239 276
#     4   9  17  29  43  57  77 108 151 196 231 275
#     4  10  20  31  45  66  92 123 156 190 230 277
#     4   9  17  31  51  71  91 118 151 186 229 277
#     4   9  18  32  46  62  88 121 157 195 236 279
#
# _framework density 17.369378000000001
#
# number of rings (size 3 to 8) (size 9 to 14) (size 15 to 20)
#    0.000    2.636    0.000    1.909    1.273    5.455 
#    0.000    0.000    0.000    0.000    0.000    0.000 
#    0.000    0.727    0.000    8.364    0.000    3.273 
#
# Total GULP energy -545398.059627 kJ/mol
# GULP energy per Si atom -12395.410446 kJ/mol
# Density = 1.732984 g / cm^3
# Si number density = 17.369378 Si / 1000 Ang^3
#
#
#
# Elastic Constant Matrix: (Units=GPa)
#
#
# Indices 1 2 3 4 5 6 
#
# 1 105.5037 46.4082 18.0438 0.0000 0.0000 0.0000
# 2 46.4082 94.9405 21.4480 0.0000 0.0000 0.0000
# 3 18.0438 21.4480 32.0073 0.0000 0.0000 0.0000
# 4 0.0000 0.0000 0.0000 16.0344 0.0000 0.0000
# 5 0.0000 0.0000 0.0000 0.0000 10.4839 0.0000
# 6 0.0000 0.0000 0.0000 0.0000 0.0000 24.0321
#
#
#
# Elastic Compliance Matrix: (Units=1/GPa)
#
#
# Indices 1 2 3 4 5 6 
#
# 1 0.012389 -0.005277 -0.003448 0.000000 0.000000 0.000000
# 2 -0.005277 0.014660 -0.006848 0.000000 0.000000 0.000000
# 3 -0.003448 -0.006848 0.037776 0.000000 0.000000 0.000000
# 4 0.000000 0.000000 0.000000 0.062366 0.000000 0.000000
# 5 0.000000 0.000000 0.000000 0.000000 0.095385 0.000000
# 6 0.000000 0.000000 0.000000 0.000000 0.000000 0.041611
#
#
# Mechanical properties :
#
#
# Convention : Reuss Voigt Hill
#
# Bulk Modulus (GPa) = 29.69358 44.91685 37.30521
# Shear Modulus (GPa) = 16.31005 19.88016 18.09510
#
# Velocity S-wave (km/s) = 3.06765 3.38679 3.23117
# Velocity P-wave (km/s) = 5.44792 6.41948 5.95355
#
# Compressibility (1/GPa) = 0.03367731
#
# Stress axis : x y z
#
# Youngs Moduli (GPa) = 80.71471 68.21489 26.47197
#
# Poissons Ratio (x) = 0.35998 0.09128
# Poissons Ratio (y) = 0.42594 0.18129
# Poissons Ratio (z) = 0.27832 0.46716
#
# Static dielectric constant tensor:
#      x y z
#    x 3.380570 0.000000 0.000000 
#    y 0.000000 3.385060 0.000000 
#    z 0.000000 0.000000 2.753890 
# 
# 
# High freq. dielectric constant tensor:
#      x y z
#    x 1.672680 0.000000 0.000000 
#    y 0.000000 1.678380 0.000000 
#    z 0.000000 0.000000 1.607610 
# 
# From -- ./inp_files/49300.got.cif
#   From: 2010.06.25/outbox.cif.g09.slc.cpg/sg71_25_cif.got.tgz:49300.got - 2010.06.28 04:59:45.
