data_PCOD8288138
_publ_section_title
;
Structure prediction by ZEFSAII (Michael W. Deem and Ramdas Pophale) SiO2 
 PCOD8288138
Probable space group: I M M M
;
_chemical_formula_sum "Si O2"
_cell_formula_units_Z 72
_cell_length_a 14.451181
_cell_length_b 24.905707
_cell_length_c 11.909889
_cell_angle_alpha 90.000000
_cell_angle_beta 90.000000
_cell_angle_gamma 90.000000
_cell_volume 4286.570088
_symmetry_space_group_name_H-M "I M M M"
_symmetry_group_IT_number 71
_symmetry_cell_setting 'orthorhombic'
loop_
_space_group_symop_operation_xyz
x,y,z
-x,-y,z
x,-y,-z
-x,y,-z
-x,-y,-z
x,y,-z
-x,y,z
x,-y,z
1/2+x,1/2+y,1/2+z
1/2-x,1/2-y,1/2+z
1/2+x,1/2-y,1/2-z
1/2-x,1/2+y,1/2-z
1/2-x,1/2-y,1/2-z
1/2+x,1/2+y,1/2-z
1/2-x,1/2+y,1/2+z
1/2+x,1/2-y,1/2+z
loop_
_atom_site_type_symbol
_atom_site_label
_atom_site_fract_x
_atom_site_fract_y
_atom_site_fract_z
Si Si1 0.602275 0.559221 0.366776
Si Si2 0.601211 0.260019 0.372044
Si Si3 0.237692 0.150663 0.133293
Si Si4 0.109969 0.438621 0.000000
Si Si5 0.892760 0.640820 0.806490
O O1 0.600554 0.560175 0.500000
O O2 0.500000 0.574398 0.321554
O O3 0.630486 0.500000 0.323581
O O4 0.676164 0.601395 0.322371
O O5 0.592865 0.278607 0.500000
O O6 0.500000 0.271126 0.314476
O O7 0.684535 0.295877 0.321147
O O8 0.624403 0.197265 0.368099
O O9 0.336986 0.142954 0.190320
O O10 0.254471 0.151339 0.000000
O O11 0.143412 0.406670 0.111391
O O12 0.148417 0.500000 0.000000
O O13 0.000000 0.438661 0.000000
O O14 0.000000 0.631996 0.775767
#
# Coordination Sequence:
#
# PCOD8288138 Si02
#       5
#    16  16  16   8  16
#     4   8  14  26  43  63  89 118 148 183 220 263
#     4   9  16  29  49  70  93 121 157 201 243 276
#     4  10  19  28  44  72 100 126 152 182 233 297
#     4   9  18  34  54  70  83 113 168 218 243 260
#     4  10  19  32  48  66  93 126 158 199 240 275
#
# _framework density 16.796645999999999
#
# number of rings (size 3 to 8) (size 9 to 14) (size 15 to 20)
#    0.000    2.778    1.111    2.000    0.000    4.000 
#    0.000    0.000    0.000    0.000    0.000    8.556 
#    0.000    5.333    0.000    0.000    0.000    0.000 
#
# Total GULP energy -446063.444214 kJ/mol
# GULP energy per Si atom -12390.651228 kJ/mol
# Density = 1.675842 g / cm^3
# Si number density = 16.796646 Si / 1000 Ang^3
#
#
#
# Elastic Constant Matrix: (Units=GPa)
#
#
# Indices 1 2 3 4 5 6 
#
# 1 86.2867 52.9984 40.1597 -0.0001 0.0000 0.0000
# 2 52.9984 118.6659 32.3835 0.0003 -0.0001 0.0000
# 3 40.1597 32.3835 52.4806 0.0002 -0.0002 -0.0001
# 4 -0.0001 0.0003 0.0002 12.5695 -0.0001 0.0000
# 5 0.0000 -0.0001 -0.0002 -0.0001 18.1716 0.0000
# 6 0.0000 0.0000 -0.0001 0.0000 0.0000 15.7207
#
#
#
# Elastic Compliance Matrix: (Units=1/GPa)
#
#
# Indices 1 2 3 4 5 6 
#
# 1 0.021058 -0.006021 -0.012399 0.000000 0.000000 0.000000
# 2 -0.006021 0.011855 -0.002708 0.000000 0.000000 0.000000
# 3 -0.012399 -0.002708 0.030213 0.000000 0.000000 0.000000
# 4 0.000000 0.000000 0.000000 0.079558 0.000000 0.000000
# 5 0.000000 0.000000 0.000000 0.000000 0.055031 0.000000
# 6 0.000000 0.000000 0.000000 0.000000 0.000000 0.063610
#
#
# Mechanical properties :
#
#
# Convention : Reuss Voigt Hill
#
# Bulk Modulus (GPa) = 47.91304 56.50183 52.20743
# Shear Modulus (GPa) = 16.10103 18.08512 17.09308
#
# Velocity S-wave (km/s) = 3.09946 3.28489 3.19352
# Velocity P-wave (km/s) = 6.43399 6.93535 6.68937
#
# Compressibility (1/GPa) = 0.02087115
#
# Stress axis : x y z
#
# Youngs Moduli (GPa) = 47.48682 84.35114 33.09790
#
# Poissons Ratio (x) = 0.50792 0.41038
# Poissons Ratio (y) = 0.28594 0.08961
# Poissons Ratio (z) = 0.58879 0.22838
#
# Static dielectric constant tensor:
#      x y z
#    x 3.154550 0.000000 0.000000 
#    y 0.000000 3.506710 0.000000 
#    z 0.000000 0.000000 2.683800 
# 
# 
# High freq. dielectric constant tensor:
#      x y z
#    x 1.637670 0.000000 0.000000 
#    y 0.000000 1.663830 0.000000 
#    z 0.000000 0.000000 1.594690 
# 
# From -- ./inp_files/6087.got.cif
#   From: 2010.06.25/outbox.cif.g09.slc.cpg/sg71_4_cif.got.tgz:6087.got - 2010.06.28 04:59:45.
