data_PCOD8288909
_publ_section_title
;
Structure prediction by ZEFSAII (Michael W. Deem and Ramdas Pophale) SiO2 
 PCOD8288909
Probable space group: I M M M
;
_chemical_formula_sum "Si O2"
_cell_formula_units_Z 96
_cell_length_a 17.132072
_cell_length_b 25.267684
_cell_length_c 12.425091
_cell_angle_alpha 90.000000
_cell_angle_beta 90.000000
_cell_angle_gamma 90.000000
_cell_volume 5378.670079
_symmetry_space_group_name_H-M "I M M M"
_symmetry_group_IT_number 71
_symmetry_cell_setting 'orthorhombic'
loop_
_space_group_symop_operation_xyz
x,y,z
-x,-y,z
x,-y,-z
-x,y,-z
-x,-y,-z
x,y,-z
-x,y,z
x,-y,z
1/2+x,1/2+y,1/2+z
1/2-x,1/2-y,1/2+z
1/2+x,1/2-y,1/2-z
1/2-x,1/2+y,1/2-z
1/2-x,1/2-y,1/2-z
1/2+x,1/2+y,1/2-z
1/2-x,1/2+y,1/2+z
1/2+x,1/2-y,1/2+z
loop_
_atom_site_type_symbol
_atom_site_label
_atom_site_fract_x
_atom_site_fract_y
_atom_site_fract_z
Si Si1 0.000000 0.939006 0.713954
Si Si2 0.683998 0.206191 0.874385
Si Si3 0.411256 0.104586 0.123800
Si Si4 0.760266 0.500000 0.124519
Si Si5 0.000000 0.154849 0.872655
Si Si6 0.839637 0.903934 0.375040
Si Si7 0.153935 0.803008 0.768465
Si Si8 0.911275 0.500000 0.243589
O O1 0.073513 0.925885 0.639693
O O2 0.000000 0.903802 0.822024
O O3 0.000000 0.000000 0.750217
O O4 0.645825 0.150975 0.836985
O O5 0.776403 0.205409 0.853151
O O6 0.641887 0.251575 0.805405
O O7 0.668135 0.216837 0.000000
O O8 0.500000 0.123135 0.143908
O O9 0.392208 0.051352 0.186894
O O10 0.396444 0.091042 0.000000
O O11 0.720445 0.447354 0.172878
O O12 0.852995 0.500000 0.142867
O O13 0.740882 0.500000 0.000000
O O14 0.075553 0.187367 0.835309
O O15 0.000000 0.148282 0.000000
O O16 0.824534 0.891456 0.500000
O O17 0.824337 0.851033 0.309250
O O18 0.000000 0.500000 0.200626
#
# Coordination Sequence:
#
# PCOD8288909 Si02
#       8
#     8  16  16   8   8  16  16   8
#     4  10  19  33  54  79 105 138 176 215 262 310
#     4  10  20  35  55  79 106 135 172 220 266 309
#     4   9  18  32  53  78 102 127 160 207 263 314
#     4  10  20  31  49  72  98 137 173 210 253 296
#     4  10  22  38  55  76 108 144 176 212 258 316
#     4  10  19  32  51  77 108 137 174 218 261 307
#     4  10  21  35  54  78 104 142 177 213 258 319
#     4  10  19  33  51  72  99 135 166 209 254 312
#
# _framework density 17.848279000000002
#
# number of rings (size 3 to 8) (size 9 to 14) (size 15 to 20)
#    0.000    2.167    0.833    2.500    1.167    1.667 
#    0.000    0.833    0.000    2.000    0.000    0.000 
#    0.000    0.000    0.000    0.000    0.000    0.000 
#
# Total GULP energy -595290.562532 kJ/mol
# GULP energy per Si atom -12401.886719 kJ/mol
# Density = 1.780766 g / cm^3
# Si number density = 17.848279 Si / 1000 Ang^3
#
#
#
# Elastic Constant Matrix: (Units=GPa)
#
#
# Indices 1 2 3 4 5 6 
#
# 1 77.2948 27.8876 18.9469 0.0000 0.0000 0.0000
# 2 27.8876 105.0138 27.6090 -0.0001 0.0000 0.0000
# 3 18.9469 27.6090 63.9152 -0.0011 0.0001 0.0000
# 4 0.0000 -0.0001 -0.0011 13.1441 0.0000 -0.0001
# 5 0.0000 0.0000 0.0001 0.0000 25.8914 0.0000
# 6 0.0000 0.0000 0.0000 -0.0001 0.0000 28.9364
#
#
#
# Elastic Compliance Matrix: (Units=1/GPa)
#
#
# Indices 1 2 3 4 5 6 
#
# 1 0.014813 -0.003135 -0.003037 0.000000 0.000000 0.000000
# 2 -0.003135 0.011406 -0.003998 0.000000 0.000000 0.000000
# 3 -0.003037 -0.003998 0.018273 0.000002 0.000000 0.000000
# 4 0.000000 0.000000 0.000002 0.076080 0.000000 0.000000
# 5 0.000000 0.000000 0.000000 0.000000 0.038623 0.000000
# 6 0.000000 0.000000 0.000000 0.000000 0.000000 0.034559
#
#
# Mechanical properties :
#
#
# Convention : Reuss Voigt Hill
#
# Bulk Modulus (GPa) = 41.40359 43.90120 42.65239
# Shear Modulus (GPa) = 22.50794 25.04640 23.77717
#
# Velocity S-wave (km/s) = 3.55501 3.75012 3.65387
# Velocity P-wave (km/s) = 6.33235 6.58798 6.46143
#
# Compressibility (1/GPa) = 0.02415249
#
# Stress axis : x y z
#
# Youngs Moduli (GPa) = 67.50782 87.67168 54.72629
#
# Poissons Ratio (x) = 0.27488 0.16619
# Poissons Ratio (y) = 0.21166 0.21877
# Poissons Ratio (z) = 0.20501 0.35048
#
# Static dielectric constant tensor:
#      x y z
#    x 3.330870 0.000000 0.000000 
#    y 0.000000 3.452910 0.000000 
#    z 0.000000 0.000000 3.073460 
# 
# 
# High freq. dielectric constant tensor:
#      x y z
#    x 1.696900 0.000000 0.000000 
#    y 0.000000 1.702560 0.000000 
#    z 0.000000 0.000000 1.677540 
# 
# From -- ./inp_files/24288.got.cif
#   From: 2010.06.25/outbox.cif.g09.slc.cpg/sg71_13_cif.got.tgz:24288.got - 2010.06.28 04:59:45.
