data_PCOD8288321
_publ_section_title
;
Structure prediction by ZEFSAII (Michael W. Deem and Ramdas Pophale) SiO2 
 PCOD8288321
Probable space group: I M M M
;
_chemical_formula_sum "Si O2"
_cell_formula_units_Z 104
_cell_length_a 28.024537
_cell_length_b 9.557986
_cell_length_c 22.853642
_cell_angle_alpha 90.000000
_cell_angle_beta 90.000000
_cell_angle_gamma 90.000000
_cell_volume 6121.533862
_symmetry_space_group_name_H-M "I M M M"
_symmetry_group_IT_number 71
_symmetry_cell_setting 'orthorhombic'
loop_
_space_group_symop_operation_xyz
x,y,z
-x,-y,z
x,-y,-z
-x,y,-z
-x,-y,-z
x,y,-z
-x,y,z
x,-y,z
1/2+x,1/2+y,1/2+z
1/2-x,1/2-y,1/2+z
1/2+x,1/2-y,1/2-z
1/2-x,1/2+y,1/2-z
1/2-x,1/2-y,1/2-z
1/2+x,1/2+y,1/2-z
1/2-x,1/2+y,1/2+z
1/2+x,1/2-y,1/2+z
loop_
_atom_site_type_symbol
_atom_site_label
_atom_site_fract_x
_atom_site_fract_y
_atom_site_fract_z
Si Si1 0.800856 0.836725 0.680998
Si Si2 0.696976 0.842907 0.706216
Si Si3 0.443974 0.659872 0.768158
Si Si4 0.608370 0.335236 0.884506
Si Si5 0.595919 0.840878 0.663000
Si Si6 0.555879 0.655194 0.566552
Si Si7 0.555529 0.667240 0.000000
O O1 0.744939 0.801912 0.669615
O O2 0.815180 0.758947 0.740434
O O3 0.835824 0.790087 0.627130
O O4 0.809653 0.000000 0.692476
O O5 0.653135 0.833961 0.662195
O O6 0.703041 0.000000 0.731606
O O7 0.500000 0.671337 0.775538
O O8 0.428275 0.500000 0.755536
O O9 0.421085 0.716224 0.828178
O O10 0.427370 0.756275 0.715563
O O11 0.604387 0.500000 0.891172
O O12 0.584485 0.271788 0.943445
O O13 0.581881 0.775669 0.601619
O O14 0.577586 0.000000 0.667087
O O15 0.572313 0.670471 0.500000
O O16 0.500000 0.677870 0.573105
O O17 0.569450 0.500000 0.589939
O O18 0.555720 0.500000 0.000000
O O19 0.500000 0.719099 0.000000
#
# Coordination Sequence:
#
# PCOD8288321 Si02
#       7
#    16  16  16  16  16  16   8
#     4   9  16  29  49  69  92 122 161 200 236 285
#     4   9  18  30  45  69  99 125 154 194 239 284
#     4  10  19  30  45  68  97 126 159 198 239 284
#     4   9  16  27  45  68  94 126 161 198 244 291
#     4  11  21  31  46  71 101 128 156 192 241 294
#     4   9  19  36  55  72  92 123 163 201 234 275
#     4   9  16  26  42  68 101 129 157 201 252 295
#
# _framework density 16.989204999999998
#
# number of rings (size 3 to 8) (size 9 to 14) (size 15 to 20)
#    0.000    2.538    1.538    1.846    0.000    5.231 
#    0.000    0.769    1.692    0.000    0.000    2.154 
#    0.000    3.692    0.000    0.000    0.000    0.000 
#
# Total GULP energy -644411.868775 kJ/mol
# GULP energy per Si atom -12392.535938 kJ/mol
# Density = 1.695054 g / cm^3
# Si number density = 16.989205 Si / 1000 Ang^3
#
#
#
# Elastic Constant Matrix: (Units=GPa)
#
#
# Indices 1 2 3 4 5 6 
#
# 1 58.9061 24.6769 47.6691 0.0000 0.0000 0.0000
# 2 24.6769 60.5583 38.1182 0.0000 0.0000 0.0000
# 3 47.6691 38.1182 95.6435 0.0000 0.0000 0.0000
# 4 0.0000 0.0000 0.0000 10.2649 0.0000 0.0000
# 5 0.0000 0.0000 0.0000 0.0000 30.7056 0.0000
# 6 0.0000 0.0000 0.0000 0.0000 0.0000 19.6569
#
#
#
# Elastic Compliance Matrix: (Units=1/GPa)
#
#
# Indices 1 2 3 4 5 6 
#
# 1 0.029039 -0.003635 -0.013024 0.000000 0.000000 0.000000
# 2 -0.003635 0.022498 -0.007155 0.000000 0.000000 0.000000
# 3 -0.013024 -0.007155 0.019798 0.000000 0.000000 0.000000
# 4 0.000000 0.000000 0.000000 0.097420 0.000000 0.000000
# 5 0.000000 0.000000 0.000000 0.000000 0.032567 0.000000
# 6 0.000000 0.000000 0.000000 0.000000 0.000000 0.050873
#
#
# Mechanical properties :
#
#
# Convention : Reuss Voigt Hill
#
# Bulk Modulus (GPa) = 42.18178 48.44847 45.31513
# Shear Modulus (GPa) = 16.24830 19.10171 17.67501
#
# Velocity S-wave (km/s) = 3.09591 3.35676 3.22897
# Velocity P-wave (km/s) = 6.13694 6.60325 6.37436
#
# Compressibility (1/GPa) = 0.02370692
#
# Stress axis : x y z
#
# Youngs Moduli (GPa) = 34.43682 44.44898 50.50921
#
# Poissons Ratio (x) = 0.16157 0.65785
# Poissons Ratio (y) = 0.12517 0.36138
# Poissons Ratio (z) = 0.44852 0.31802
#
# Static dielectric constant tensor:
#      x y z
#    x 3.468380 0.000000 0.000000 
#    y 0.000000 3.091340 0.000000 
#    z 0.000000 0.000000 3.170730 
# 
# 
# High freq. dielectric constant tensor:
#      x y z
#    x 1.668380 0.000000 0.000000 
#    y 0.000000 1.632100 0.000000 
#    z 0.000000 0.000000 1.634420 
# 
# From -- ./inp_files/56696.got.cif
#   From: 2010.06.25/outbox.cif.g09.slc.cpg/sg71_29_cif.got.tgz:56696.got - 2010.06.28 04:59:45.
