data_PCOD8288019
_publ_section_title
;
Structure prediction by ZEFSAII (Michael W. Deem and Ramdas Pophale) SiO2 
 PCOD8288019
Probable space group: I M M M
;
_chemical_formula_sum "Si O2"
_cell_formula_units_Z 72
_cell_length_a 25.730761
_cell_length_b 14.957076
_cell_length_c 10.306445
_cell_angle_alpha 90.000000
_cell_angle_beta 90.000000
_cell_angle_gamma 90.000000
_cell_volume 3966.506966
_symmetry_space_group_name_H-M "I M M M"
_symmetry_group_IT_number 71
_symmetry_cell_setting 'orthorhombic'
loop_
_space_group_symop_operation_xyz
x,y,z
-x,-y,z
x,-y,-z
-x,y,-z
-x,-y,-z
x,y,-z
-x,y,z
x,-y,z
1/2+x,1/2+y,1/2+z
1/2-x,1/2-y,1/2+z
1/2+x,1/2-y,1/2-z
1/2-x,1/2+y,1/2-z
1/2-x,1/2-y,1/2-z
1/2+x,1/2+y,1/2-z
1/2-x,1/2+y,1/2+z
1/2+x,1/2-y,1/2+z
loop_
_atom_site_type_symbol
_atom_site_label
_atom_site_fract_x
_atom_site_fract_y
_atom_site_fract_z
Si Si1 0.694315 0.705597 0.749727
Si Si2 0.057492 0.199684 0.500000
Si Si3 0.091845 0.689297 0.742121
Si Si4 0.661933 0.396192 0.000000
Si Si5 0.342467 0.606443 0.500000
Si Si6 0.938520 0.500000 0.651433
Si Si7 0.057902 0.221745 0.000000
O O1 0.750000 0.750000 0.750000
O O2 0.652406 0.785063 0.753028
O O3 0.687470 0.642887 0.625096
O O4 0.689254 0.644321 0.875083
O O5 0.062694 0.261138 0.374197
O O6 0.099968 0.121282 0.500000
O O7 0.000000 0.156061 0.500000
O O8 0.087526 0.584040 0.721500
O O9 0.064609 0.715565 0.875646
O O10 0.672147 0.500000 0.000000
O O11 0.342076 0.500000 0.500000
O O12 0.402216 0.639002 0.500000
O O13 0.924206 0.500000 0.500000
O O14 0.000000 0.500000 0.672929
O O15 0.000000 0.180533 0.000000
#
# Coordination Sequence:
#
# PCOD8288019 Si02
#       7
#    16   8  16   8   8   8   8
#     4  10  21  40  60  77 112 148 183 230 282 323
#     4  10  18  33  56  79 111 146 176 217 274 329
#     4  10  21  35  53  81 108 144 191 226 270 337
#     4  10  21  36  57  86 110 139 184 226 268 327
#     4  10  21  38  59  86 112 141 186 226 266 333
#     4  11  20  33  55  81 115 145 183 235 276 323
#     4  10  20  35  56  79 113 150 178 219 278 329
#
# _framework density 18.151992
#
# number of rings (size 3 to 8) (size 9 to 14) (size 15 to 20)
#    0.000    1.889    1.111    3.333    0.000    0.889 
#    4.000    1.111    0.000    8.000    0.000    0.000 
#    0.000    0.000    0.000    0.000    0.000    0.000 
#
# Total GULP energy -446527.051210 kJ/mol
# GULP energy per Si atom -12403.529200 kJ/mol
# Density = 1.811068 g / cm^3
# Si number density = 18.151992 Si / 1000 Ang^3
#
#
#
# Elastic Constant Matrix: (Units=GPa)
#
#
# Indices 1 2 3 4 5 6 
#
# 1 154.6791 71.6502 60.0862 0.0000 0.0000 0.0000
# 2 71.6502 155.1509 70.2785 0.0000 0.0000 0.0000
# 3 60.0862 70.2785 169.2143 0.0000 0.0000 0.0000
# 4 0.0000 0.0000 0.0000 30.9620 0.0000 0.0000
# 5 0.0000 0.0000 0.0000 0.0000 10.9293 0.0000
# 6 0.0000 0.0000 0.0000 0.0000 0.0000 14.3993
#
#
#
# Elastic Compliance Matrix: (Units=1/GPa)
#
#
# Indices 1 2 3 4 5 6 
#
# 1 0.008618 -0.003195 -0.001733 0.000000 0.000000 0.000000
# 2 -0.003195 0.009123 -0.002655 0.000000 0.000000 0.000000
# 3 -0.001733 -0.002655 0.007628 0.000000 0.000000 0.000000
# 4 0.000000 0.000000 0.000000 0.032298 0.000000 0.000000
# 5 0.000000 0.000000 0.000000 0.000000 0.091497 0.000000
# 6 0.000000 0.000000 0.000000 0.000000 0.000000 0.069448
#
#
# Mechanical properties :
#
#
# Convention : Reuss Voigt Hill
#
# Bulk Modulus (GPa) = 98.00552 98.11935 98.06243
# Shear Modulus (GPa) = 21.08117 29.72674 25.40395
#
# Velocity S-wave (km/s) = 3.41158 4.05119 3.74507
# Velocity P-wave (km/s) = 8.34430 8.72092 8.53469
#
# Compressibility (1/GPa) = 0.01020351
#
# Stress axis : x y z
#
# Youngs Moduli (GPa) = 116.03303 109.61059 131.10131
#
# Poissons Ratio (x) = 0.35019 0.22725
# Poissons Ratio (y) = 0.37071 0.34802
# Poissons Ratio (z) = 0.20113 0.29098
#
# Static dielectric constant tensor:
#      x y z
#    x 3.351760 0.000000 0.000000 
#    y 0.000000 3.201790 0.000000 
#    z 0.000000 0.000000 3.615060 
# 
# 
# High freq. dielectric constant tensor:
#      x y z
#    x 1.705210 0.000000 0.000000 
#    y 0.000000 1.692350 0.000000 
#    z 0.000000 0.000000 1.726370 
# 
# From -- ./inp_files/6240.got.cif
#   From: 2010.06.25/outbox.cif.g09.slc.cpg/sg71_4_cif.got.tgz:6240.got - 2010.06.28 04:59:45.
