data_PCOD8288366
_publ_section_title
;
Structure prediction by ZEFSAII (Michael W. Deem and Ramdas Pophale) SiO2 
 PCOD8288366
Probable space group: I M M M
;
_chemical_formula_sum "Si O2"
_cell_formula_units_Z 96
_cell_length_a 14.383344
_cell_length_b 25.869583
_cell_length_c 15.105436
_cell_angle_alpha 90.000000
_cell_angle_beta 90.000000
_cell_angle_gamma 90.000000
_cell_volume 5620.598470
_symmetry_space_group_name_H-M "I M M M"
_symmetry_group_IT_number 71
_symmetry_cell_setting 'orthorhombic'
loop_
_space_group_symop_operation_xyz
x,y,z
-x,-y,z
x,-y,-z
-x,y,-z
-x,-y,-z
x,y,-z
-x,y,z
x,-y,z
1/2+x,1/2+y,1/2+z
1/2-x,1/2-y,1/2+z
1/2+x,1/2-y,1/2-z
1/2-x,1/2+y,1/2-z
1/2-x,1/2-y,1/2-z
1/2+x,1/2+y,1/2-z
1/2-x,1/2+y,1/2+z
1/2+x,1/2-y,1/2+z
loop_
_atom_site_type_symbol
_atom_site_label
_atom_site_fract_x
_atom_site_fract_y
_atom_site_fract_z
Si Si1 0.895056 0.943422 0.276683
Si Si2 0.103889 0.837381 0.781965
Si Si3 0.793351 0.242304 0.899223
Si Si4 0.222214 0.557556 0.896771
Si Si5 0.604557 0.153558 0.394840
Si Si6 0.396808 0.288518 0.901804
O O1 0.877862 0.898605 0.203053
O O2 0.824442 0.936820 0.357103
O O3 0.000000 0.937278 0.314578
O O4 0.882382 0.000000 0.231548
O O5 0.176257 0.804806 0.838057
O O6 0.116480 0.830118 0.675887
O O7 0.000000 0.821257 0.812000
O O8 0.838527 0.295765 0.864036
O O9 0.681602 0.244532 0.890658
O O10 0.824805 0.231461 0.000000
O O11 0.181040 0.500000 0.876894
O O12 0.153614 0.601580 0.857232
O O13 0.234150 0.566728 0.000000
O O14 0.601694 0.151160 0.500000
O O15 0.500000 0.156579 0.356194
O O16 0.500000 0.263209 0.895350
O O17 0.383199 0.314398 0.000000
#
# Coordination Sequence:
#
# PCOD8288366 Si02
#       6
#    16  16  16  16  16  16
#     4   9  18  31  45  62  85 113 145 183 227 271
#     4  10  19  30  47  68  90 121 155 185 224 273
#     4  10  19  31  48  69  94 121 151 190 231 271
#     4   9  17  28  42  61  85 115 151 186 219 259
#     4   9  17  28  41  59  86 118 149 183 222 261
#     4   9  18  31  46  67  96 126 153 182 218 264
#
# _framework density 17.080031999999999
#
# number of rings (size 3 to 8) (size 9 to 14) (size 15 to 20)
#    0.000    2.667    0.000    2.000    0.000    3.667 
#    0.000    5.000    0.000    0.500    0.000    2.333 
#    0.000    0.000    0.000    4.167    0.000    0.000 
#
# Total GULP energy -594775.761550 kJ/mol
# GULP energy per Si atom -12391.161699 kJ/mol
# Density = 1.704116 g / cm^3
# Si number density = 17.080032 Si / 1000 Ang^3
#
#
#
# Elastic Constant Matrix: (Units=GPa)
#
#
# Indices 1 2 3 4 5 6 
#
# 1 113.3232 68.3375 29.3587 0.0000 0.0000 0.0000
# 2 68.3375 131.5880 43.6743 -0.0002 0.0000 0.0000
# 3 29.3587 43.6743 45.2429 -0.0001 0.0000 0.0000
# 4 0.0000 -0.0002 -0.0001 17.6798 0.0000 0.0000
# 5 0.0000 0.0000 0.0000 0.0000 19.5157 0.0000
# 6 0.0000 0.0000 0.0000 0.0000 0.0000 20.0077
#
#
#
# Elastic Compliance Matrix: (Units=1/GPa)
#
#
# Indices 1 2 3 4 5 6 
#
# 1 0.013092 -0.005855 -0.002843 0.000000 0.000000 0.000000
# 2 -0.005855 0.013801 -0.009523 0.000000 0.000000 0.000000
# 3 -0.002843 -0.009523 0.033141 0.000000 0.000000 0.000000
# 4 0.000000 0.000000 0.000000 0.056562 0.000000 0.000000
# 5 0.000000 0.000000 0.000000 0.000000 0.051241 0.000000
# 6 0.000000 0.000000 0.000000 0.000000 0.000000 0.049981
#
#
# Mechanical properties :
#
#
# Convention : Reuss Voigt Hill
#
# Bulk Modulus (GPa) = 42.38961 63.65502 53.02232
# Shear Modulus (GPa) = 19.07502 21.35956 20.21729
#
# Velocity S-wave (km/s) = 3.34549 3.54016 3.44420
# Velocity P-wave (km/s) = 6.30834 7.35254 6.85037
#
# Compressibility (1/GPa) = 0.02359068
#
# Stress axis : x y z
#
# Youngs Moduli (GPa) = 76.38343 72.45854 30.17445
#
# Poissons Ratio (x) = 0.42427 0.08579
# Poissons Ratio (y) = 0.44725 0.28735
# Poissons Ratio (z) = 0.21717 0.69002
#
# Static dielectric constant tensor:
#      x y z
#    x 3.437300 0.000000 0.000000 
#    y 0.000000 3.300010 0.000000 
#    z 0.000000 0.000000 2.795570 
# 
# 
# High freq. dielectric constant tensor:
#      x y z
#    x 1.671320 0.000000 0.000000 
#    y 0.000000 1.652360 0.000000 
#    z 0.000000 0.000000 1.607480 
# 
# From -- ./inp_files/34529.got.cif
#   From: 2010.06.25/outbox.cif.g09.slc.cpg/sg71_18_cif.got.tgz:34529.got - 2010.06.28 04:59:45.
