data_PCOD8288641
_publ_section_title
;
Structure prediction by ZEFSAII (Michael W. Deem and Ramdas Pophale) SiO2 
 PCOD8288641
Probable space group: I M M M
;
_chemical_formula_sum "Si O2"
_cell_formula_units_Z 80
_cell_length_a 23.602501
_cell_length_b 11.895484
_cell_length_c 18.202111
_cell_angle_alpha 90.000000
_cell_angle_beta 90.000000
_cell_angle_gamma 90.000000
_cell_volume 5110.482440
_symmetry_space_group_name_H-M "I M M M"
_symmetry_group_IT_number 71
_symmetry_cell_setting 'orthorhombic'
loop_
_space_group_symop_operation_xyz
x,y,z
-x,-y,z
x,-y,-z
-x,y,-z
-x,-y,-z
x,y,-z
-x,y,z
x,-y,z
1/2+x,1/2+y,1/2+z
1/2-x,1/2-y,1/2+z
1/2+x,1/2-y,1/2-z
1/2-x,1/2+y,1/2-z
1/2-x,1/2-y,1/2-z
1/2+x,1/2+y,1/2-z
1/2-x,1/2+y,1/2+z
1/2+x,1/2-y,1/2+z
loop_
_atom_site_type_symbol
_atom_site_label
_atom_site_fract_x
_atom_site_fract_y
_atom_site_fract_z
Si Si1 0.435179 0.000000 0.233690
Si Si2 0.333804 0.771254 0.868868
Si Si3 0.620022 0.000000 0.917929
Si Si4 0.229655 0.369632 0.081271
Si Si5 0.935705 0.129154 0.585700
Si Si6 0.334990 0.124902 0.277848
O O1 0.428707 0.000000 0.144658
O O2 0.403562 0.889836 0.268361
O O3 0.500000 0.000000 0.257377
O O4 0.287192 0.699329 0.910684
O O5 0.393616 0.706475 0.868026
O O6 0.313616 0.788811 0.784389
O O7 0.340292 0.890992 0.908787
O O8 0.592964 0.000000 0.000000
O O9 0.245452 0.500000 0.090554
O O10 0.182790 0.331447 0.141395
O O11 0.204352 0.346631 0.000000
O O12 0.923205 0.147221 0.500000
O O13 0.000000 0.165629 0.604164
O O14 0.926095 0.000000 0.607681
O O15 0.308028 0.000000 0.263933
#
# Coordination Sequence:
#
# PCOD8288641 Si02
#       6
#     8  16   8  16  16  16
#     4   8  16  31  47  62  88 123 152 180 231 285
#     4  11  18  30  46  67  94 128 159 183 229 278
#     4  10  20  29  40  67 105 130 157 189 211 267
#     4  10  19  31  50  69  87 116 157 202 238 274
#     4   9  18  31  45  65  94 124 158 197 226 256
#     4   8  18  33  45  66  95 119 148 191 235 275
#
# _framework density 15.654099
#
# number of rings (size 3 to 8) (size 9 to 14) (size 15 to 20)
#    0.600    2.000    1.000    3.600    0.000    5.000 
#    0.000    0.000    0.000    1.200    0.000    0.000 
#    0.000    0.000    0.000    2.200    0.000    0.000 
#
# Total GULP energy -495611.952663 kJ/mol
# GULP energy per Si atom -12390.298817 kJ/mol
# Density = 1.561847 g / cm^3
# Si number density = 15.654099 Si / 1000 Ang^3
#
#
#
# Elastic Constant Matrix: (Units=GPa)
#
#
# Indices 1 2 3 4 5 6 
#
# 1 73.1058 26.6295 49.5092 0.0000 0.0000 0.0000
# 2 26.6295 59.4096 39.0227 0.0000 0.0000 0.0000
# 3 49.5092 39.0227 113.7791 0.0000 0.0000 0.0000
# 4 0.0000 0.0000 0.0000 19.1343 0.0000 0.0000
# 5 0.0000 0.0000 0.0000 0.0000 13.9966 0.0000
# 6 0.0000 0.0000 0.0000 0.0000 0.0000 17.7635
#
#
#
# Elastic Compliance Matrix: (Units=1/GPa)
#
#
# Indices 1 2 3 4 5 6 
#
# 1 0.020186 -0.004232 -0.007332 0.000000 0.000000 0.000000
# 2 -0.004232 0.022614 -0.005914 0.000000 0.000000 0.000000
# 3 -0.007332 -0.005914 0.014008 0.000000 0.000000 0.000000
# 4 0.000000 0.000000 0.000000 0.052262 0.000000 0.000000
# 5 0.000000 0.000000 0.000000 0.000000 0.071446 0.000000
# 6 0.000000 0.000000 0.000000 0.000000 0.000000 0.056295
#
#
# Mechanical properties :
#
#
# Convention : Reuss Voigt Hill
#
# Bulk Modulus (GPa) = 45.76506 52.95746 49.36126
# Shear Modulus (GPa) = 17.91784 18.92111 18.41948
#
# Velocity S-wave (km/s) = 3.38688 3.48041 3.43396
# Velocity P-wave (km/s) = 6.67782 7.07490 6.87922
#
# Compressibility (1/GPa) = 0.02185073
#
# Stress axis : x y z
#
# Youngs Moduli (GPa) = 49.53974 44.22030 71.38843
#
# Poissons Ratio (x) = 0.18714 0.52343
# Poissons Ratio (y) = 0.20965 0.42222
# Poissons Ratio (z) = 0.36323 0.26154
#
# Static dielectric constant tensor:
#      x y z
#    x 2.758400 0.000000 0.000000 
#    y 0.000000 2.967490 0.000000 
#    z 0.000000 0.000000 3.037200 
# 
# 
# High freq. dielectric constant tensor:
#      x y z
#    x 1.573900 0.000000 0.000000 
#    y 0.000000 1.595680 0.000000 
#    z 0.000000 0.000000 1.592000 
# 
# From -- ./inp_files/48029.got.cif
#   From: 2010.06.25/outbox.cif.g09.slc.cpg/sg71_25_cif.got.tgz:48029.got - 2010.06.28 04:59:45.
