data_PCOD8288783
_publ_section_title
;
Structure prediction by ZEFSAII (Michael W. Deem and Ramdas Pophale) SiO2 
 PCOD8288783
Probable space group: I M M M
;
_chemical_formula_sum "Si O2"
_cell_formula_units_Z 72
_cell_length_a 13.255518
_cell_length_b 9.822742
_cell_length_c 29.393613
_cell_angle_alpha 90.000000
_cell_angle_beta 90.000000
_cell_angle_gamma 90.000000
_cell_volume 3827.211059
_symmetry_space_group_name_H-M "I M M M"
_symmetry_group_IT_number 71
_symmetry_cell_setting 'orthorhombic'
loop_
_space_group_symop_operation_xyz
x,y,z
-x,-y,z
x,-y,-z
-x,y,-z
-x,-y,-z
x,y,-z
-x,y,z
x,-y,z
1/2+x,1/2+y,1/2+z
1/2-x,1/2-y,1/2+z
1/2+x,1/2-y,1/2-z
1/2-x,1/2+y,1/2-z
1/2-x,1/2-y,1/2-z
1/2+x,1/2+y,1/2-z
1/2-x,1/2+y,1/2+z
1/2+x,1/2-y,1/2+z
loop_
_atom_site_type_symbol
_atom_site_label
_atom_site_fract_x
_atom_site_fract_y
_atom_site_fract_z
Si Si1 0.383324 0.216755 0.327641
Si Si2 0.618963 0.500000 0.052479
Si Si3 0.384584 0.500000 0.190235
Si Si4 0.806604 0.210197 0.378450
Si Si5 0.381574 0.500000 0.288604
Si Si6 0.617809 0.000000 0.747097
Si Si7 0.878993 0.500000 0.350444
O O1 0.500000 0.194278 0.341351
O O2 0.313055 0.180768 0.370786
O O3 0.351653 0.370307 0.317662
O O4 0.353813 0.131708 0.282816
O O5 0.500000 0.500000 0.060416
O O6 0.663505 0.638138 0.074381
O O7 0.649174 0.500000 0.000000
O O8 0.500000 0.500000 0.203054
O O9 0.363132 0.362704 0.163125
O O10 0.325414 0.500000 0.239026
O O11 0.838532 0.368214 0.377908
O O12 0.500000 0.500000 0.279943
O O13 0.500000 0.000000 0.756999
O O14 0.666624 0.000000 0.798212
O O15 0.000000 0.500000 0.351071
#
# Coordination Sequence:
#
# PCOD8288783 Si02
#       7
#    16   8   8  16   8   8   8
#     4  10  20  33  47  70 106 145 184 216 243 283
#     4  10  22  43  65  81 100 125 157 201 258 328
#     4  10  19  32  48  70 103 142 187 222 244 291
#     4  11  21  33  55  78 100 136 173 211 261 309
#     4   9  18  31  46  67 103 150 188 214 240 280
#     4   9  18  30  44  67 106 149 180 217 257 283
#     4  11  21  32  48  78 113 135 168 220 264 301
#
# _framework density 18.812653999999998
#
# number of rings (size 3 to 8) (size 9 to 14) (size 15 to 20)
#    0.000    1.889    0.000    6.000    0.000    8.889 
#    0.000    0.556    0.000    3.333    0.000    0.000 
#    0.000    4.444    0.000    0.000    0.000    0.000 
#
# Total GULP energy -446274.496747 kJ/mol
# GULP energy per Si atom -12396.513799 kJ/mol
# Density = 1.876984 g / cm^3
# Si number density = 18.812654 Si / 1000 Ang^3
#
#
#
# Elastic Constant Matrix: (Units=GPa)
#
#
# Indices 1 2 3 4 5 6 
#
# 1 85.0601 32.0898 49.4963 0.0000 0.0000 0.0000
# 2 32.0898 144.4201 49.4082 0.0000 0.0000 0.0000
# 3 49.4963 49.4082 119.7256 0.0000 0.0000 0.0000
# 4 0.0000 0.0000 0.0000 13.6157 0.0000 0.0000
# 5 0.0000 0.0000 0.0000 0.0000 22.8658 0.0000
# 6 0.0000 0.0000 0.0000 0.0000 0.0000 8.7297
#
#
#
# Elastic Compliance Matrix: (Units=1/GPa)
#
#
# Indices 1 2 3 4 5 6 
#
# 1 0.015748 -0.001481 -0.005899 0.000000 0.000000 0.000000
# 2 -0.001481 0.008202 -0.002772 0.000000 0.000000 0.000000
# 3 -0.005899 -0.002772 0.011935 0.000000 0.000000 0.000000
# 4 0.000000 0.000000 0.000000 0.073445 0.000000 0.000000
# 5 0.000000 0.000000 0.000000 0.000000 0.043734 0.000000
# 6 0.000000 0.000000 0.000000 0.000000 0.000000 0.114552
#
#
# Mechanical properties :
#
#
# Convention : Reuss Voigt Hill
#
# Bulk Modulus (GPa) = 64.18577 67.91049 66.04813
# Shear Modulus (GPa) = 17.05824 23.58965 20.32395
#
# Velocity S-wave (km/s) = 3.01448 3.54492 3.29041
# Velocity P-wave (km/s) = 6.80504 7.27544 7.04417
#
# Compressibility (1/GPa) = 0.01557978
#
# Stress axis : x y z
#
# Youngs Moduli (GPa) = 63.50078 121.92434 83.78428
#
# Poissons Ratio (x) = 0.18056 0.49426
# Poissons Ratio (y) = 0.09404 0.23229
# Poissons Ratio (z) = 0.37461 0.33803
#
# Static dielectric constant tensor:
#      x y z
#    x 3.643160 0.000000 0.000000 
#    y 0.000000 3.548540 0.000000 
#    z 0.000000 0.000000 3.024410 
# 
# 
# High freq. dielectric constant tensor:
#      x y z
#    x 1.754350 0.000000 0.000000 
#    y 0.000000 1.745230 0.000000 
#    z 0.000000 0.000000 1.668620 
# 
# From -- ./inp_files/65202.got.cif
#   From: 2010.06.25/outbox.cif.g09.slc.cpg/sg71_33_cif.got.tgz:65202.got - 2010.06.28 04:59:45.
