data_PCOD8288642
_publ_section_title
;
Structure prediction by ZEFSAII (Michael W. Deem and Ramdas Pophale) SiO2 
 PCOD8288642
Probable space group: I M M M
;
_chemical_formula_sum "Si O2"
_cell_formula_units_Z 104
_cell_length_a 34.346072
_cell_length_b 17.965197
_cell_length_c 9.221733
_cell_angle_alpha 90.000000
_cell_angle_beta 90.000000
_cell_angle_gamma 90.000000
_cell_volume 5690.122336
_symmetry_space_group_name_H-M "I M M M"
_symmetry_group_IT_number 71
_symmetry_cell_setting 'orthorhombic'
loop_
_space_group_symop_operation_xyz
x,y,z
-x,-y,z
x,-y,-z
-x,y,-z
-x,-y,-z
x,y,-z
-x,y,z
x,-y,z
1/2+x,1/2+y,1/2+z
1/2-x,1/2-y,1/2+z
1/2+x,1/2-y,1/2-z
1/2-x,1/2+y,1/2-z
1/2-x,1/2-y,1/2-z
1/2+x,1/2+y,1/2-z
1/2-x,1/2+y,1/2+z
1/2+x,1/2-y,1/2+z
loop_
_atom_site_type_symbol
_atom_site_label
_atom_site_fract_x
_atom_site_fract_y
_atom_site_fract_z
Si Si1 0.543844 0.797844 0.172855
Si Si2 0.761900 0.912986 0.833371
Si Si3 0.043952 0.000000 0.672964
Si Si4 0.915567 0.851386 0.672504
Si Si5 0.106190 0.416089 0.672940
Si Si6 0.683713 0.162703 0.827728
Si Si7 0.172085 0.169879 0.328199
O O1 0.500000 0.808157 0.232157
O O2 0.561249 0.720247 0.232962
O O3 0.570185 0.866241 0.229817
O O4 0.544065 0.796330 0.000000
O O5 0.723426 0.873524 0.768949
O O6 0.799180 0.889232 0.742314
O O7 0.755399 0.000000 0.816151
O O8 0.768534 0.890141 0.000000
O O9 0.065115 0.073476 0.734370
O O10 0.045010 0.000000 0.500000
O O11 0.000000 0.000000 0.730768
O O12 0.917212 0.850288 0.500000
O O13 0.871198 0.849022 0.726057
O O14 0.107024 0.415624 0.500000
O O15 0.101118 0.500000 0.732142
O O16 0.146480 0.381915 0.734246
O O17 0.682597 0.247537 0.773771
O O18 0.682220 0.158594 0.000000
O O19 0.175526 0.163176 0.500000
#
# Coordination Sequence:
#
# PCOD8288642 Si02
#       7
#    16  16   8  16  16  16  16
#     4   9  15  23  35  53  83 120 153 187 228 274
#     4  10  21  34  48  68  94 123 156 194 234 279
#     4   9  16  24  36  56  85 121 155 185 223 277
#     4   9  16  26  39  59  86 118 152 187 231 279
#     4   9  15  23  37  57  83 119 160 192 223 273
#     4   9  16  30  47  64  86 118 157 193 230 275
#     4  10  19  31  50  71  93 122 157 195 236 278
#
# _framework density 18.277286
#
# number of rings (size 3 to 8) (size 9 to 14) (size 15 to 20)
#    0.000    2.692    1.538    1.385    1.077    4.308 
#    0.000    1.538    0.000    0.000    0.000    0.000 
#    0.000    3.077    0.000    0.000    0.000    2.308 
#
# Total GULP energy -644736.097310 kJ/mol
# GULP energy per Si atom -12398.771102 kJ/mol
# Density = 1.823569 g / cm^3
# Si number density = 18.277286 Si / 1000 Ang^3
#
#
#
# Elastic Constant Matrix: (Units=GPa)
#
#
# Indices 1 2 3 4 5 6 
#
# 1 167.7844 62.7120 18.1640 0.0000 0.0000 0.0000
# 2 62.7120 117.1464 14.1471 0.0000 0.0000 0.0000
# 3 18.1640 14.1471 9.8610 0.0000 0.0000 0.0000
# 4 0.0000 0.0000 0.0000 11.6322 0.0000 0.0000
# 5 0.0000 0.0000 0.0000 0.0000 14.3615 0.0000
# 6 0.0000 0.0000 0.0000 0.0000 0.0000 39.2826
#
#
#
# Elastic Compliance Matrix: (Units=1/GPa)
#
#
# Indices 1 2 3 4 5 6 
#
# 1 0.008302 -0.003142 -0.010785 0.000000 0.000000 0.000000
# 2 -0.003142 0.011514 -0.010732 0.000000 0.000000 0.000000
# 3 -0.010785 -0.010732 0.136671 0.000000 0.000000 0.000000
# 4 0.000000 0.000000 0.000000 0.085968 0.000000 0.000000
# 5 0.000000 0.000000 0.000000 0.000000 0.069631 0.000000
# 6 0.000000 0.000000 0.000000 0.000000 0.000000 0.025457
#
#
# Mechanical properties :
#
#
# Convention : Reuss Voigt Hill
#
# Bulk Modulus (GPa) = 9.33087 53.87088 31.60088
# Shear Modulus (GPa) = 11.83200 26.37316 19.10258
#
# Velocity S-wave (km/s) = 2.54709 3.80274 3.23639
# Velocity P-wave (km/s) = 3.71032 6.98708 5.59400
#
# Compressibility (1/GPa) = 0.10717109
#
# Stress axis : x y z
#
# Youngs Moduli (GPa) = 120.45487 86.84888 7.31683
#
# Poissons Ratio (x) = 0.27287 0.07891
# Poissons Ratio (y) = 0.37845 0.07852
# Poissons Ratio (z) = 1.29906 0.93203
#
# Static dielectric constant tensor:
#      x y z
#    x 3.615310 0.000000 0.000000 
#    y 0.000000 3.592790 0.000000 
#    z 0.000000 0.000000 2.559670 
# 
# 
# High freq. dielectric constant tensor:
#      x y z
#    x 1.727360 0.000000 0.000000 
#    y 0.000000 1.725790 0.000000 
#    z 0.000000 0.000000 1.616740 
# 
# From -- ./inp_files/30180.got.cif
#   From: 2010.06.25/outbox.cif.g09.slc.cpg/sg71_16_cif.got.tgz:30180.got - 2010.06.28 04:59:45.
