data_PCOD8288293
_publ_section_title
;
Structure prediction by ZEFSAII (Michael W. Deem and Ramdas Pophale) SiO2 
 PCOD8288293
Probable space group: I M M M
;
_chemical_formula_sum "Si O2"
_cell_formula_units_Z 104
_cell_length_a 24.358894
_cell_length_b 32.801633
_cell_length_c 8.830538
_cell_angle_alpha 90.000000
_cell_angle_beta 90.000000
_cell_angle_gamma 90.000000
_cell_volume 7055.701424
_symmetry_space_group_name_H-M "I M M M"
_symmetry_group_IT_number 71
_symmetry_cell_setting 'orthorhombic'
loop_
_space_group_symop_operation_xyz
x,y,z
-x,-y,z
x,-y,-z
-x,y,-z
-x,-y,-z
x,y,-z
-x,y,z
x,-y,z
1/2+x,1/2+y,1/2+z
1/2-x,1/2-y,1/2+z
1/2+x,1/2-y,1/2-z
1/2-x,1/2+y,1/2-z
1/2-x,1/2-y,1/2-z
1/2+x,1/2+y,1/2-z
1/2-x,1/2+y,1/2+z
1/2+x,1/2-y,1/2+z
loop_
_atom_site_type_symbol
_atom_site_label
_atom_site_fract_x
_atom_site_fract_y
_atom_site_fract_z
Si Si1 0.000000 0.951604 0.670343
Si Si2 0.059183 0.163328 0.678731
Si Si3 0.560788 0.244328 0.177340
Si Si4 0.731067 0.687175 0.322365
Si Si5 0.170464 0.269381 0.822696
Si Si6 0.334868 0.381927 0.179920
Si Si7 0.112616 0.953045 0.178119
O O1 0.055087 0.936577 0.753491
O O2 0.000000 0.933489 0.500000
O O3 0.000000 0.000000 0.668360
O O4 0.065187 0.164270 0.500000
O O5 0.061014 0.209479 0.737745
O O6 0.109527 0.138358 0.747118
O O7 0.000000 0.143580 0.724921
O O8 0.500000 0.225394 0.208916
O O9 0.608184 0.221229 0.270603
O O10 0.574723 0.241800 0.000000
O O11 0.732685 0.679524 0.500000
O O12 0.791333 0.698861 0.265196
O O13 0.688232 0.723159 0.278889
O O14 0.715412 0.644909 0.240597
O O15 0.177072 0.277086 0.000000
O O16 0.336665 0.427491 0.249685
O O17 0.331696 0.384395 0.000000
O O18 0.122755 0.000000 0.221839
O O19 0.110663 0.946783 0.000000
#
# Coordination Sequence:
#
# PCOD8288293 Si02
#       7
#     8  16  16  16  16  16  16
#     4   9  17  31  49  65  79 101 137 175 215 265
#     4   8  15  26  39  57  80 105 134 171 213 255
#     4   9  16  28  45  62  83 112 142 171 210 259
#     4  10  20  32  45  61  84 112 142 176 216 260
#     4  10  19  30  45  63  85 111 142 178 213 250
#     4  11  20  30  48  66  83 104 139 181 218 263
#     4  10  21  35  47  60  82 109 136 172 219 267
#
# _framework density 14.739853
#
# number of rings (size 3 to 8) (size 9 to 14) (size 15 to 20)
#    0.000    2.385    1.538    3.000    1.077    3.385 
#    0.000    0.000    0.000    0.000    0.000    0.000 
#    0.000    0.000    0.000    0.000    0.000    0.769 
#
# Total GULP energy -644634.302006 kJ/mol
# GULP energy per Si atom -12396.813500 kJ/mol
# Density = 1.470630 g / cm^3
# Si number density = 14.739853 Si / 1000 Ang^3
#
#
#
# Elastic Constant Matrix: (Units=GPa)
#
#
# Indices 1 2 3 4 5 6 
#
# 1 78.0122 31.9101 29.9467 0.0000 0.0000 0.0000
# 2 31.9101 60.5641 33.1157 0.0000 0.0000 0.0000
# 3 29.9467 33.1157 67.8924 0.0000 0.0000 0.0000
# 4 0.0000 0.0000 0.0000 19.4330 0.0000 0.0000
# 5 0.0000 0.0000 0.0000 0.0000 24.7277 0.0000
# 6 0.0000 0.0000 0.0000 0.0000 0.0000 24.6778
#
#
#
# Elastic Compliance Matrix: (Units=1/GPa)
#
#
# Indices 1 2 3 4 5 6 
#
# 1 0.017223 -0.006710 -0.004324 0.000000 0.000000 0.000000
# 2 -0.006710 0.025131 -0.009298 0.000000 0.000000 0.000000
# 3 -0.004324 -0.009298 0.021172 0.000000 0.000000 0.000000
# 4 0.000000 0.000000 0.000000 0.051459 0.000000 0.000000
# 5 0.000000 0.000000 0.000000 0.000000 0.040440 0.000000
# 6 0.000000 0.000000 0.000000 0.000000 0.000000 0.040522
#
#
# Mechanical properties :
#
#
# Convention : Reuss Voigt Hill
#
# Bulk Modulus (GPa) = 43.74241 44.04597 43.89419
# Shear Modulus (GPa) = 20.47224 21.20076 20.83650
#
# Velocity S-wave (km/s) = 3.73084 3.79665 3.76389
# Velocity P-wave (km/s) = 6.94979 7.01188 6.98091
#
# Compressibility (1/GPa) = 0.02286111
#
# Stress axis : x y z
#
# Youngs Moduli (GPa) = 58.06149 39.79123 47.23260
#
# Poissons Ratio (x) = 0.26701 0.20423
# Poissons Ratio (y) = 0.38961 0.43918
# Poissons Ratio (z) = 0.25105 0.36999
#
# Static dielectric constant tensor:
#      x y z
#    x 2.806710 0.000000 0.000000 
#    y 0.000000 2.681760 0.000000 
#    z 0.000000 0.000000 2.759810 
# 
# 
# High freq. dielectric constant tensor:
#      x y z
#    x 1.541690 0.000000 0.000000 
#    y 0.000000 1.528230 0.000000 
#    z 0.000000 0.000000 1.566850 
# 
# From -- ./inp_files/13616.got.cif
#   From: 2010.06.25/outbox.cif.g09.slc.cpg/sg71_7_cif.got.tgz:13616.got - 2010.06.28 04:59:45.
