data_PCOD8288911
_publ_section_title
;
Structure prediction by ZEFSAII (Michael W. Deem and Ramdas Pophale) SiO2 
 PCOD8288911
Probable space group: I M M M
;
_chemical_formula_sum "Si O2"
_cell_formula_units_Z 72
_cell_length_a 31.394008
_cell_length_b 13.539975
_cell_length_c 8.044705
_cell_angle_alpha 90.000000
_cell_angle_beta 90.000000
_cell_angle_gamma 90.000000
_cell_volume 3419.595605
_symmetry_space_group_name_H-M "I M M M"
_symmetry_group_IT_number 71
_symmetry_cell_setting 'orthorhombic'
loop_
_space_group_symop_operation_xyz
x,y,z
-x,-y,z
x,-y,-z
-x,y,-z
-x,-y,-z
x,y,-z
-x,y,z
x,-y,z
1/2+x,1/2+y,1/2+z
1/2-x,1/2-y,1/2+z
1/2+x,1/2-y,1/2-z
1/2-x,1/2+y,1/2-z
1/2-x,1/2-y,1/2-z
1/2+x,1/2+y,1/2-z
1/2-x,1/2+y,1/2+z
1/2+x,1/2-y,1/2+z
loop_
_atom_site_type_symbol
_atom_site_label
_atom_site_fract_x
_atom_site_fract_y
_atom_site_fract_z
Si Si1 0.644498 0.390793 0.692800
Si Si2 0.949692 0.612773 0.500000
Si Si3 0.179517 0.384562 0.312834
Si Si4 0.767095 0.113107 0.309582
Si Si5 0.096820 0.295379 0.187936
O O1 0.654569 0.398490 0.500000
O O2 0.634569 0.500000 0.767421
O O3 0.686425 0.338911 0.775307
O O4 0.603547 0.321326 0.725595
O O5 0.933507 0.500000 0.500000
O O6 0.933936 0.662132 0.329097
O O7 0.000000 0.620138 0.500000
O O8 0.163873 0.364100 0.500000
O O9 0.184381 0.500000 0.274107
O O10 0.226905 0.336752 0.286631
O O11 0.143624 0.343817 0.190018
O O12 0.754788 0.120119 0.500000
O O13 0.772693 0.000000 0.248805
O O14 0.078178 0.311676 0.000000
#
# Coordination Sequence:
#
# PCOD8288911 Si02
#       5
#    16   8  16  16  16
#     4   9  19  36  56  82 120 165 211 254 297 344
#     4  11  26  48  71  97 127 153 186 242 311 381
#     4  10  19  32  51  77 117 164 206 255 306 353
#     4   9  17  28  46  76 114 161 212 257 298 342
#     4  11  23  39  64  94 121 158 203 248 301 366
#
# _framework density 21.055121
#
# number of rings (size 3 to 8) (size 9 to 14) (size 15 to 20)
#    0.000    2.111    1.111    2.000    1.556    6.667 
#    0.000    1.111    0.000    1.333    0.000    3.111 
#    0.000    0.000    0.000    0.000    0.000    0.000 
#
# Total GULP energy -446272.230893 kJ/mol
# GULP energy per Si atom -12396.450858 kJ/mol
# Density = 2.100720 g / cm^3
# Si number density = 21.055121 Si / 1000 Ang^3
#
#
#
# Elastic Constant Matrix: (Units=GPa)
#
#
# Indices 1 2 3 4 5 6 
#
# 1 68.8617 34.7934 38.7656 0.0000 0.0000 0.0000
# 2 34.7934 64.6015 43.3502 0.0000 0.0000 0.0000
# 3 38.7656 43.3502 104.3641 0.0000 0.0000 0.0000
# 4 0.0000 0.0000 0.0000 24.6964 0.0000 0.0000
# 5 0.0000 0.0000 0.0000 0.0000 26.2315 0.0000
# 6 0.0000 0.0000 0.0000 0.0000 0.0000 26.3918
#
#
#
# Elastic Compliance Matrix: (Units=1/GPa)
#
#
# Indices 1 2 3 4 5 6 
#
# 1 0.021293 -0.008541 -0.004361 0.000000 0.000000 0.000000
# 2 -0.008541 0.024888 -0.007165 0.000000 0.000000 0.000000
# 3 -0.004361 -0.007165 0.014178 0.000000 0.000000 0.000000
# 4 0.000000 0.000000 0.000000 0.040492 0.000000 0.000000
# 5 0.000000 0.000000 0.000000 0.000000 0.038122 0.000000
# 6 0.000000 0.000000 0.000000 0.000000 0.000000 0.037891
#
#
# Mechanical properties :
#
#
# Convention : Reuss Voigt Hill
#
# Bulk Modulus (GPa) = 49.44837 52.40508 50.92673
# Shear Modulus (GPa) = 22.34745 23.52516 22.93630
#
# Velocity S-wave (km/s) = 3.26141 3.34625 3.30410
# Velocity P-wave (km/s) = 6.14155 6.31453 6.22864
#
# Compressibility (1/GPa) = 0.02022311
#
# Stress axis : x y z
#
# Youngs Moduli (GPa) = 46.96460 40.18025 70.53188
#
# Poissons Ratio (x) = 0.34319 0.30760
# Poissons Ratio (y) = 0.40114 0.50537
# Poissons Ratio (z) = 0.20482 0.28790
#
# Static dielectric constant tensor:
#      x y z
#    x 3.392570 0.000000 0.000000 
#    y 0.000000 4.098390 0.000000 
#    z 0.000000 0.000000 3.638790 
# 
# 
# High freq. dielectric constant tensor:
#      x y z
#    x 1.780680 0.000000 0.000000 
#    y 0.000000 1.836400 0.000000 
#    z 0.000000 0.000000 1.826260 
# 
# From -- ./inp_files/6424.got.cif
#   From: 2010.06.25/outbox.cif.g09.slc.cpg/sg71_4_cif.got.tgz:6424.got - 2010.06.28 04:59:45.
