data_PCOD8288630
_publ_section_title
;
Structure prediction by ZEFSAII (Michael W. Deem and Ramdas Pophale) SiO2 
 PCOD8288630
Probable space group: I M M M
;
_chemical_formula_sum "Si O2"
_cell_formula_units_Z 96
_cell_length_a 14.687424
_cell_length_b 12.958019
_cell_length_c 27.710638
_cell_angle_alpha 90.000000
_cell_angle_beta 90.000000
_cell_angle_gamma 90.000000
_cell_volume 5273.886387
_symmetry_space_group_name_H-M "I M M M"
_symmetry_group_IT_number 71
_symmetry_cell_setting 'orthorhombic'
loop_
_space_group_symop_operation_xyz
x,y,z
-x,-y,z
x,-y,-z
-x,y,-z
-x,-y,-z
x,y,-z
-x,y,z
x,-y,z
1/2+x,1/2+y,1/2+z
1/2-x,1/2-y,1/2+z
1/2+x,1/2-y,1/2-z
1/2-x,1/2+y,1/2-z
1/2-x,1/2-y,1/2-z
1/2+x,1/2+y,1/2-z
1/2-x,1/2+y,1/2+z
1/2+x,1/2-y,1/2+z
loop_
_atom_site_type_symbol
_atom_site_label
_atom_site_fract_x
_atom_site_fract_y
_atom_site_fract_z
Si Si1 0.609658 0.230010 0.779299
Si Si2 0.766084 0.620966 0.791598
Si Si3 0.000000 0.375872 0.945486
Si Si4 0.109254 0.500000 0.553961
Si Si5 0.857649 0.883774 0.555306
Si Si6 0.175561 0.383282 0.105339
Si Si7 0.100838 0.312340 0.386045
O O1 0.500000 0.250127 0.774077
O O2 0.671271 0.332443 0.770719
O O3 0.645351 0.145418 0.741253
O O4 0.639910 0.191285 0.832211
O O5 0.749477 0.500000 0.793668
O O6 0.787595 0.667604 0.845127
O O7 0.086156 0.329521 0.916474
O O8 0.000000 0.500000 0.947033
O O9 0.000000 0.332875 0.000000
O O10 0.149401 0.500000 0.500000
O O11 0.150459 0.601845 0.580779
O O12 0.000000 0.500000 0.551319
O O13 0.881397 0.858292 0.500000
O O14 0.749798 0.876700 0.563027
O O15 0.904660 0.800753 0.589745
O O16 0.891860 0.000000 0.568500
O O17 0.150044 0.500000 0.118376
O O18 0.000000 0.354934 0.380254
#
# Coordination Sequence:
#
# PCOD8288630 Si02
#       7
#    16  16   8   8  16  16  16
#     4  10  22  37  55  81 108 139 181 231 285 338
#     4  10  21  37  56  79 108 141 180 228 282 340
#     4   9  16  26  44  70 102 139 177 209 249 315
#     4   9  18  32  50  70  98 137 181 223 257 296
#     4  10  19  31  49  74 107 142 172 209 261 318
#     4   9  17  30  47  71 103 135 170 210 258 317
#     4  10  20  34  51  73 104 138 177 219 262 314
#
# _framework density 18.202894000000001
#
# number of rings (size 3 to 8) (size 9 to 14) (size 15 to 20)
#    0.000    2.333    1.667    1.000    2.333    4.000 
#    0.000    2.500    0.000    0.000    0.000    0.000 
#    0.000    0.667    0.000    3.333    0.000    1.083 
#
# Total GULP energy -594710.869671 kJ/mol
# GULP energy per Si atom -12389.809785 kJ/mol
# Density = 1.816146 g / cm^3
# Si number density = 18.202894 Si / 1000 Ang^3
#
#
#
# Elastic Constant Matrix: (Units=GPa)
#
#
# Indices 1 2 3 4 5 6 
#
# 1 91.5115 13.8114 23.0967 0.0000 0.0000 0.0000
# 2 13.8114 66.3690 27.5069 0.0000 0.0000 0.0000
# 3 23.0967 27.5069 98.4808 0.0000 0.0000 0.0000
# 4 0.0000 0.0000 0.0000 26.0022 0.0000 0.0000
# 5 0.0000 0.0000 0.0000 0.0000 23.8892 0.0000
# 6 0.0000 0.0000 0.0000 0.0000 0.0000 15.8799
#
#
#
# Elastic Compliance Matrix: (Units=1/GPa)
#
#
# Indices 1 2 3 4 5 6 
#
# 1 0.011741 -0.001473 -0.002342 0.000000 0.000000 0.000000
# 2 -0.001473 0.017225 -0.004466 0.000000 0.000000 0.000000
# 3 -0.002342 -0.004466 0.011951 0.000000 0.000000 0.000000
# 4 0.000000 0.000000 0.000000 0.038458 0.000000 0.000000
# 5 0.000000 0.000000 0.000000 0.000000 0.041860 0.000000
# 6 0.000000 0.000000 0.000000 0.000000 0.000000 0.062973
#
#
# Mechanical properties :
#
#
# Convention : Reuss Voigt Hill
#
# Bulk Modulus (GPa) = 41.05859 42.79901 41.92880
# Shear Modulus (GPa) = 23.93640 25.95068 24.94354
#
# Velocity S-wave (km/s) = 3.63020 3.77985 3.70578
# Velocity P-wave (km/s) = 6.33847 6.52786 6.43386
#
# Compressibility (1/GPa) = 0.02435544
#
# Stress axis : x y z
#
# Youngs Moduli (GPa) = 85.17149 58.05676 83.67552
#
# Poissons Ratio (x) = 0.08549 0.19600
# Poissons Ratio (y) = 0.12542 0.37367
# Poissons Ratio (z) = 0.19950 0.25926
#
# Static dielectric constant tensor:
#      x y z
#    x 3.243780 0.000000 0.000000 
#    y 0.000000 3.178970 0.000000 
#    z 0.000000 0.000000 3.601820 
# 
# 
# High freq. dielectric constant tensor:
#      x y z
#    x 1.688200 0.000000 0.000000 
#    y 0.000000 1.671300 0.000000 
#    z 0.000000 0.000000 1.718280 
# 
# From -- ./inp_files/69906.got.cif
#   From: 2010.06.25/outbox.cif.g09.slc.cpg/sg71_35_cif.got.tgz:69906.got - 2010.06.28 04:59:45.
