data_PCOD8288611
_publ_section_title
;
Structure prediction by ZEFSAII (Michael W. Deem and Ramdas Pophale) SiO2 
 PCOD8288611
Probable space group: I M M M
;
_chemical_formula_sum "Si O2"
_cell_formula_units_Z 120
_cell_length_a 12.780017
_cell_length_b 20.388643
_cell_length_c 27.103044
_cell_angle_alpha 90.000000
_cell_angle_beta 90.000000
_cell_angle_gamma 90.000000
_cell_volume 7062.164399
_symmetry_space_group_name_H-M "I M M M"
_symmetry_group_IT_number 71
_symmetry_cell_setting 'orthorhombic'
loop_
_space_group_symop_operation_xyz
x,y,z
-x,-y,z
x,-y,-z
-x,y,-z
-x,-y,-z
x,y,-z
-x,y,z
x,-y,z
1/2+x,1/2+y,1/2+z
1/2-x,1/2-y,1/2+z
1/2+x,1/2-y,1/2-z
1/2-x,1/2+y,1/2-z
1/2-x,1/2-y,1/2-z
1/2+x,1/2+y,1/2-z
1/2-x,1/2+y,1/2+z
1/2+x,1/2-y,1/2+z
loop_
_atom_site_type_symbol
_atom_site_label
_atom_site_fract_x
_atom_site_fract_y
_atom_site_fract_z
Si Si1 0.375973 0.500000 0.058537
Si Si2 0.123564 0.574373 0.603686
Si Si3 0.249308 0.888932 0.615263
Si Si4 0.124059 0.354192 0.299063
Si Si5 0.382084 0.270760 0.854018
Si Si6 0.883605 0.287891 0.942732
Si Si7 0.697334 0.197948 0.943873
Si Si8 0.618491 0.073015 0.704757
O O1 0.500000 0.500000 0.069418
O O2 0.324817 0.564588 0.082625
O O3 0.354076 0.500000 0.000000
O O4 0.157506 0.500000 0.593306
O O5 0.157400 0.593759 0.659072
O O6 0.186913 0.620197 0.565380
O O7 0.000000 0.584363 0.595500
O O8 0.182149 0.837373 0.646808
O O9 0.330390 0.851759 0.580358
O O10 0.313683 0.929493 0.655317
O O11 0.165021 0.281464 0.314157
O O12 0.167531 0.377836 0.245999
O O13 0.000000 0.352569 0.296437
O O14 0.500000 0.288755 0.840193
O O15 0.381307 0.237221 0.908201
O O16 0.815735 0.222346 0.932289
O O17 0.000000 0.277101 0.920453
O O18 0.891230 0.302967 0.000000
O O19 0.666573 0.214779 0.000000
O O20 0.500000 0.094434 0.691463
O O21 0.618724 0.000000 0.727542
#
# Coordination Sequence:
#
# PCOD8288611 Si02
#       8
#     8  16  16  16  16  16  16  16
#     4  11  24  40  55  73 103 141 172 198 238 299
#     4   9  16  26  42  67 100 133 163 197 240 293
#     4  11  20  34  51  74  99 123 162 204 244 291
#     4   8  15  29  47  69  96 126 159 198 243 291
#     4   9  18  31  48  69  96 128 163 202 244 292
#     4   9  18  33  51  68  89 120 157 200 249 294
#     4   9  17  28  44  67  95 125 161 202 243 292
#     4  10  19  31  49  72  99 126 156 199 246 292
#
# _framework density 16.991959000000001
#
# number of rings (size 3 to 8) (size 9 to 14) (size 15 to 20)
#    0.000    2.600    0.667    2.800    0.000    4.000 
#    0.000    0.667    0.000    2.000    0.000    5.600 
#    0.000    0.000    0.000    0.000    0.000    0.000 
#
# Total GULP energy -743677.075150 kJ/mol
# GULP energy per Si atom -12394.617919 kJ/mol
# Density = 1.695328 g / cm^3
# Si number density = 16.991959 Si / 1000 Ang^3
#
#
#
# Elastic Constant Matrix: (Units=GPa)
#
#
# Indices 1 2 3 4 5 6 
#
# 1 76.3317 43.3874 33.3949 0.0000 0.0000 0.0000
# 2 43.3874 108.1916 35.9158 0.0000 0.0000 0.0000
# 3 33.3949 35.9158 80.1962 0.0000 0.0000 0.0000
# 4 0.0000 0.0000 0.0000 25.8983 0.0000 0.0000
# 5 0.0000 0.0000 0.0000 0.0000 20.5792 0.0000
# 6 0.0000 0.0000 0.0000 0.0000 0.0000 23.7345
#
#
#
# Elastic Compliance Matrix: (Units=1/GPa)
#
#
# Indices 1 2 3 4 5 6 
#
# 1 0.018640 -0.005754 -0.005185 0.000000 0.000000 0.000000
# 2 -0.005754 0.012633 -0.003262 0.000000 0.000000 0.000000
# 3 -0.005185 -0.003262 0.016089 0.000000 0.000000 0.000000
# 4 0.000000 0.000000 0.000000 0.038613 0.000000 0.000000
# 5 0.000000 0.000000 0.000000 0.000000 0.048593 0.000000
# 6 0.000000 0.000000 0.000000 0.000000 0.000000 0.042133
#
#
# Mechanical properties :
#
#
# Convention : Reuss Voigt Hill
#
# Bulk Modulus (GPa) = 52.73987 54.45730 53.59858
# Shear Modulus (GPa) = 23.64947 24.17716 23.91332
#
# Velocity S-wave (km/s) = 3.73474 3.77617 3.75551
# Velocity P-wave (km/s) = 7.05005 7.15060 7.10050
#
# Compressibility (1/GPa) = 0.01896099
#
# Stress axis : x y z
#
# Youngs Moduli (GPa) = 53.64935 79.15776 62.15311
#
# Poissons Ratio (x) = 0.45545 0.32226
# Poissons Ratio (y) = 0.30868 0.20273
# Poissons Ratio (z) = 0.27817 0.25819
#
# Static dielectric constant tensor:
#      x y z
#    x 3.058540 0.000000 0.000000 
#    y 0.000000 3.229110 0.000000 
#    z 0.000000 0.000000 3.195280 
# 
# 
# High freq. dielectric constant tensor:
#      x y z
#    x 1.628640 0.000000 0.000000 
#    y 0.000000 1.657540 0.000000 
#    z 0.000000 0.000000 1.652600 
# 
# From -- ./inp_files/29169.got.cif
#   From: 2010.06.25/outbox.cif.g09.slc.cpg/sg71_15_cif.got.tgz:29169.got - 2010.06.28 04:59:45.
