data_PCOD8288157
_publ_section_title
;
Structure prediction by ZEFSAII (Michael W. Deem and Ramdas Pophale) SiO2 
 PCOD8288157
Probable space group: I M M M
;
_chemical_formula_sum "Si O2"
_cell_formula_units_Z 72
_cell_length_a 8.999338
_cell_length_b 13.578492
_cell_length_c 39.282581
_cell_angle_alpha 90.000000
_cell_angle_beta 90.000000
_cell_angle_gamma 90.000000
_cell_volume 4800.230797
_symmetry_space_group_name_H-M "I M M M"
_symmetry_group_IT_number 71
_symmetry_cell_setting 'orthorhombic'
loop_
_space_group_symop_operation_xyz
x,y,z
-x,-y,z
x,-y,-z
-x,y,-z
-x,-y,-z
x,y,-z
-x,y,z
x,-y,z
1/2+x,1/2+y,1/2+z
1/2-x,1/2-y,1/2+z
1/2+x,1/2-y,1/2-z
1/2-x,1/2+y,1/2-z
1/2-x,1/2-y,1/2-z
1/2+x,1/2+y,1/2-z
1/2-x,1/2+y,1/2+z
1/2+x,1/2-y,1/2+z
loop_
_atom_site_type_symbol
_atom_site_label
_atom_site_fract_x
_atom_site_fract_y
_atom_site_fract_z
Si Si1 0.832198 0.617546 0.000000
Si Si2 0.674968 0.886646 0.365007
Si Si3 0.327352 0.285278 0.802488
Si Si4 0.167432 0.882866 0.566736
Si Si5 0.828343 0.886681 0.767646
O O1 0.749598 0.659224 0.033386
O O2 0.830526 0.500000 0.000000
O O3 0.000000 0.657526 0.000000
O O4 0.500000 0.874165 0.368199
O O5 0.734265 0.821543 0.334372
O O6 0.747209 0.846238 0.399725
O O7 0.720184 0.000000 0.358622
O O8 0.500000 0.283237 0.812131
O O9 0.274427 0.175646 0.792961
O O10 0.294177 0.358731 0.771333
O O11 0.000000 0.841668 0.567440
O O12 0.167955 0.000000 0.565353
O O13 0.000000 0.864807 0.776105
O O14 0.787072 0.000000 0.773111
#
# Coordination Sequence:
#
# PCOD8288157 Si02
#       5
#     8  16  16  16  16
#     4   9  15  23  35  51  73 101 134 169 202 239
#     4  10  19  29  41  58  81 109 140 173 209 248
#     4  10  19  30  45  64  84 106 135 171 209 248
#     4   9  16  25  37  53  74 102 136 171 205 240
#     4   9  18  32  47  62  82 108 137 169 206 248
#
# _framework density 14.999279
#
# number of rings (size 3 to 8) (size 9 to 14) (size 15 to 20)
#    0.000    2.556    0.000    3.000    0.000    7.556 
#    0.000    0.000    0.000    0.000    0.000    0.000 
#    0.000    0.000    0.000    1.000    0.000   18.556 
#
# Total GULP energy -446449.253203 kJ/mol
# GULP energy per Si atom -12401.368145 kJ/mol
# Density = 1.496514 g / cm^3
# Si number density = 14.999279 Si / 1000 Ang^3
#
#
#
# Elastic Constant Matrix: (Units=GPa)
#
#
# Indices 1 2 3 4 5 6 
#
# 1 96.2934 25.6891 57.4597 0.0000 0.0000 0.0000
# 2 25.6891 47.3462 29.8518 0.0000 0.0000 0.0000
# 3 57.4597 29.8518 115.6303 0.0000 0.0000 0.0000
# 4 0.0000 0.0000 0.0000 12.2971 0.0000 0.0000
# 5 0.0000 0.0000 0.0000 0.0000 33.4000 0.0000
# 6 0.0000 0.0000 0.0000 0.0000 0.0000 18.3233
#
#
#
# Elastic Compliance Matrix: (Units=1/GPa)
#
#
# Indices 1 2 3 4 5 6 
#
# 1 0.015440 -0.004228 -0.006581 0.000000 0.000000 0.000000
# 2 -0.004228 0.026385 -0.004711 0.000000 0.000000 0.000000
# 3 -0.006581 -0.004711 0.013135 0.000000 0.000000 0.000000
# 4 0.000000 0.000000 0.000000 0.081320 0.000000 0.000000
# 5 0.000000 0.000000 0.000000 0.000000 0.029940 0.000000
# 6 0.000000 0.000000 0.000000 0.000000 0.000000 0.054575
#
#
# Mechanical properties :
#
#
# Convention : Reuss Voigt Hill
#
# Bulk Modulus (GPa) = 41.80555 53.91898 47.86227
# Shear Modulus (GPa) = 19.24498 22.55536 20.90017
#
# Velocity S-wave (km/s) = 3.58587 3.88205 3.73689
# Velocity P-wave (km/s) = 6.71393 7.49129 7.11324
#
# Compressibility (1/GPa) = 0.02392027
#
# Stress axis : x y z
#
# Youngs Moduli (GPa) = 64.76768 37.90002 76.13478
#
# Poissons Ratio (x) = 0.16024 0.50103
# Poissons Ratio (y) = 0.27384 0.35865
# Poissons Ratio (z) = 0.42623 0.17854
#
# Static dielectric constant tensor:
#      x y z
#    x 3.055210 0.000000 0.000000 
#    y 0.000000 2.499180 0.000000 
#    z 0.000000 0.000000 2.941810 
# 
# 
# High freq. dielectric constant tensor:
#      x y z
#    x 1.593450 0.000000 0.000000 
#    y 0.000000 1.514090 0.000000 
#    z 0.000000 0.000000 1.577670 
# 
# From -- ./inp_files/67843.got.cif
#   From: 2010.06.25/outbox.cif.g09.slc.cpg/sg71_34_cif.got.tgz:67843.got - 2010.06.28 04:59:45.
