data_PCOD8288271
_publ_section_title
;
Structure prediction by ZEFSAII (Michael W. Deem and Ramdas Pophale) SiO2 
 PCOD8288271
Probable space group: I M M M
;
_chemical_formula_sum "Si O2"
_cell_formula_units_Z 88
_cell_length_a 9.126945
_cell_length_b 27.723026
_cell_length_c 25.107564
_cell_angle_alpha 90.000000
_cell_angle_beta 90.000000
_cell_angle_gamma 90.000000
_cell_volume 6352.879884
_symmetry_space_group_name_H-M "I M M M"
_symmetry_group_IT_number 71
_symmetry_cell_setting 'orthorhombic'
loop_
_space_group_symop_operation_xyz
x,y,z
-x,-y,z
x,-y,-z
-x,y,-z
-x,-y,-z
x,y,-z
-x,y,z
x,-y,z
1/2+x,1/2+y,1/2+z
1/2-x,1/2-y,1/2+z
1/2+x,1/2-y,1/2-z
1/2-x,1/2+y,1/2-z
1/2-x,1/2-y,1/2-z
1/2+x,1/2+y,1/2-z
1/2-x,1/2+y,1/2+z
1/2+x,1/2-y,1/2+z
loop_
_atom_site_type_symbol
_atom_site_label
_atom_site_fract_x
_atom_site_fract_y
_atom_site_fract_z
Si Si1 0.172920 0.055741 0.500000
Si Si2 0.665305 0.362034 0.260858
Si Si3 0.828443 0.723251 0.702191
Si Si4 0.670227 0.944812 0.711228
Si Si5 0.162602 0.185401 0.645227
Si Si6 0.329830 0.102982 0.599003
O O1 0.238232 0.080268 0.551882
O O2 0.000000 0.062864 0.500000
O O3 0.218310 0.000000 0.500000
O O4 0.500000 0.368800 0.281482
O O5 0.754363 0.329554 0.304066
O O6 0.739950 0.414321 0.254752
O O7 0.670723 0.335680 0.204431
O O8 0.750000 0.750000 0.750000
O O9 0.805601 0.756861 0.649481
O O10 0.000000 0.717198 0.715271
O O11 0.500000 0.937481 0.723552
O O12 0.705546 0.928075 0.651323
O O13 0.719259 0.000000 0.716959
O O14 0.279705 0.158550 0.607762
O O15 0.000000 0.176684 0.621665
O O16 0.500000 0.102543 0.584082
#
# Coordination Sequence:
#
# PCOD8288271 Si02
#       6
#     8  16  16  16  16  16
#     4  11  23  35  45  55  69  91 117 149 190 231
#     4   9  16  24  35  52  72  93 116 142 172 208
#     4   9  15  23  36  53  72  92 112 136 168 207
#     4   9  17  28  40  53  70  93 120 151 186 220
#     4   8  15  26  38  53  72  91 110 135 172 216
#     4  10  19  30  44  58  70  86 113 150 188 225
#
# _framework density 13.851986
#
# number of rings (size 3 to 8) (size 9 to 14) (size 15 to 20)
#    0.000    2.818    0.000    3.545    0.000    7.636 
#    0.000    0.000    0.000    0.000    0.000    0.000 
#    0.000    0.000    0.000    0.000    0.000    0.000 
#
# Total GULP energy -545322.556196 kJ/mol
# GULP energy per Si atom -12393.694459 kJ/mol
# Density = 1.382046 g / cm^3
# Si number density = 13.851986 Si / 1000 Ang^3
#
#
#
# Elastic Constant Matrix: (Units=GPa)
#
#
# Indices 1 2 3 4 5 6 
#
# 1 88.0503 60.5243 27.5917 0.0000 0.0000 0.0000
# 2 60.5243 115.4719 38.2337 0.0000 0.0000 0.0000
# 3 27.5917 38.2337 24.8122 0.0000 0.0000 0.0000
# 4 0.0000 0.0000 0.0000 16.6625 0.0000 0.0000
# 5 0.0000 0.0000 0.0000 0.0000 16.1272 0.0000
# 6 0.0000 0.0000 0.0000 0.0000 0.0000 24.4799
#
#
#
# Elastic Compliance Matrix: (Units=1/GPa)
#
#
# Indices 1 2 3 4 5 6 
#
# 1 0.019367 -0.006166 -0.012035 0.000000 0.000000 0.000000
# 2 -0.006166 0.019645 -0.023414 0.000000 0.000000 0.000000
# 3 -0.012035 -0.023414 0.089765 0.000000 0.000000 0.000000
# 4 0.000000 0.000000 0.000000 0.060015 0.000000 0.000000
# 5 0.000000 0.000000 0.000000 0.000000 0.062007 0.000000
# 6 0.000000 0.000000 0.000000 0.000000 0.000000 0.040850
#
#
# Mechanical properties :
#
#
# Convention : Reuss Voigt Hill
#
# Bulk Modulus (GPa) = 21.95556 53.44821 37.70189
# Shear Modulus (GPa) = 12.81853 18.25290 15.53572
#
# Velocity S-wave (km/s) = 3.04533 3.63397 3.35259
# Velocity P-wave (km/s) = 5.31506 7.50177 6.50102
#
# Compressibility (1/GPa) = 0.04554655
#
# Stress axis : x y z
#
# Youngs Moduli (GPa) = 51.63402 50.90409 11.14025
#
# Poissons Ratio (x) = 0.31390 0.13407
# Poissons Ratio (y) = 0.31840 0.26084
# Poissons Ratio (z) = 0.62139 1.19186
#
# Static dielectric constant tensor:
#      x y z
#    x 2.913530 0.000000 0.000000 
#    y 0.000000 3.194600 0.000000 
#    z 0.000000 0.000000 2.347750 
# 
# 
# High freq. dielectric constant tensor:
#      x y z
#    x 1.546090 0.000000 0.000000 
#    y 0.000000 1.530340 0.000000 
#    z 0.000000 0.000000 1.456450 
# 
# From -- ./inp_files/13513.got.cif
#   From: 2010.06.25/outbox.cif.g09.slc.cpg/sg71_7_cif.got.tgz:13513.got - 2010.06.28 04:59:45.
