data_PCOD8288442
_publ_section_title
;
Structure prediction by ZEFSAII (Michael W. Deem and Ramdas Pophale) SiO2 
 PCOD8288442
Probable space group: I M M M
;
_chemical_formula_sum "Si O2"
_cell_formula_units_Z 104
_cell_length_a 22.697312
_cell_length_b 9.395303
_cell_length_c 26.384839
_cell_angle_alpha 90.000000
_cell_angle_beta 90.000000
_cell_angle_gamma 90.000000
_cell_volume 5626.517406
_symmetry_space_group_name_H-M "I M M M"
_symmetry_group_IT_number 71
_symmetry_cell_setting 'orthorhombic'
loop_
_space_group_symop_operation_xyz
x,y,z
-x,-y,z
x,-y,-z
-x,y,-z
-x,-y,-z
x,y,-z
-x,y,z
x,-y,z
1/2+x,1/2+y,1/2+z
1/2-x,1/2-y,1/2+z
1/2+x,1/2-y,1/2-z
1/2-x,1/2+y,1/2-z
1/2-x,1/2-y,1/2-z
1/2+x,1/2+y,1/2-z
1/2-x,1/2+y,1/2+z
1/2+x,1/2-y,1/2+z
loop_
_atom_site_type_symbol
_atom_site_label
_atom_site_fract_x
_atom_site_fract_y
_atom_site_fract_z
Si Si1 0.431682 0.165585 0.292033
Si Si2 0.367088 0.168508 0.901440
Si Si3 0.107654 0.840573 0.306699
Si Si4 0.739905 0.334536 0.441326
Si Si5 0.837871 0.334243 0.874788
Si Si6 0.256582 0.347064 0.796704
Si Si7 0.934382 0.669056 0.500000
O O1 0.500000 0.191658 0.303822
O O2 0.412562 0.261372 0.244424
O O3 0.396405 0.210806 0.343268
O O4 0.418752 0.000000 0.279206
O O5 0.403878 0.243653 0.855862
O O6 0.297982 0.210048 0.908418
O O7 0.373010 0.000000 0.893029
O O8 0.400352 0.224165 0.950946
O O9 0.176579 0.861575 0.310852
O O10 0.078547 0.000000 0.308909
O O11 0.752808 0.298756 0.500000
O O12 0.727361 0.500000 0.433849
O O13 0.678554 0.254250 0.425330
O O14 0.840475 0.500000 0.889096
O O15 0.781794 0.286330 0.841945
O O16 0.229240 0.500000 0.782095
O O17 0.250000 0.250000 0.750000
O O18 0.935316 0.500000 0.500000
O O19 0.000000 0.732607 0.500000
#
# Coordination Sequence:
#
# PCOD8288442 Si02
#       7
#    16  16  16  16  16  16   8
#     4  10  22  40  59  78 105 144 187 226 265 319
#     4  10  19  33  54  79 108 143 184 229 270 312
#     4  11  22  34  51  80 114 144 175 216 269 322
#     4  10  20  34  54  82 113 142 177 224 278 330
#     4  10  20  35  55  81 109 138 176 222 275 330
#     4  10  19  30  48  76 107 136 170 211 257 309
#     4   9  18  34  55  75  97 135 188 233 262 300
#
# _framework density 18.483903000000002
#
# number of rings (size 3 to 8) (size 9 to 14) (size 15 to 20)
#    0.000    1.923    3.846    0.462    0.000    3.077 
#    0.000    1.923    0.000    0.923    0.000    3.231 
#    0.000    0.000    0.000    0.000    0.000    0.000 
#
# Total GULP energy -644199.392825 kJ/mol
# GULP energy per Si atom -12388.449862 kJ/mol
# Density = 1.844183 g / cm^3
# Si number density = 18.483903 Si / 1000 Ang^3
#
#
#
# Elastic Constant Matrix: (Units=GPa)
#
#
# Indices 1 2 3 4 5 6 
#
# 1 101.7644 29.8089 32.8146 0.0000 0.0000 0.0000
# 2 29.8089 63.5480 38.8552 0.0000 0.0000 0.0000
# 3 32.8146 38.8552 69.6353 0.0000 0.0000 0.0000
# 4 0.0000 0.0000 0.0000 31.4312 0.0000 0.0000
# 5 0.0000 0.0000 0.0000 0.0000 18.9180 0.0000
# 6 0.0000 0.0000 0.0000 0.0000 0.0000 17.2519
#
#
#
# Elastic Compliance Matrix: (Units=1/GPa)
#
#
# Indices 1 2 3 4 5 6 
#
# 1 0.012027 -0.003303 -0.003825 0.000000 0.000000 0.000000
# 2 -0.003303 0.024792 -0.012277 0.000000 0.000000 0.000000
# 3 -0.003825 -0.012277 0.023013 0.000000 0.000000 0.000000
# 4 0.000000 0.000000 0.000000 0.031815 0.000000 0.000000
# 5 0.000000 0.000000 0.000000 0.000000 0.052860 0.000000
# 6 0.000000 0.000000 0.000000 0.000000 0.000000 0.057965
#
#
# Mechanical properties :
#
#
# Convention : Reuss Voigt Hill
#
# Bulk Modulus (GPa) = 47.56678 48.65612 48.11145
# Shear Modulus (GPa) = 20.13774 22.41815 21.27794
#
# Velocity S-wave (km/s) = 3.30430 3.48637 3.39656
# Velocity P-wave (km/s) = 6.35200 6.52588 6.43952
#
# Compressibility (1/GPa) = 0.02102308
#
# Stress axis : x y z
#
# Youngs Moduli (GPa) = 83.14282 40.33537 43.45358
#
# Poissons Ratio (x) = 0.13324 0.16619
# Poissons Ratio (y) = 0.27465 0.53347
# Poissons Ratio (z) = 0.31798 0.49519
#
# Static dielectric constant tensor:
#      x y z
#    x 3.372950 0.000000 0.000000 
#    y 0.000000 3.564530 0.000000 
#    z 0.000000 0.000000 3.388870 
# 
# 
# High freq. dielectric constant tensor:
#      x y z
#    x 1.704840 0.000000 0.000000 
#    y 0.000000 1.708460 0.000000 
#    z 0.000000 0.000000 1.711720 
# 
# From -- ./inp_files/57989.got.cif
#   From: 2010.06.25/outbox.cif.g09.slc.cpg/sg71_29_cif.got.tgz:57989.got - 2010.06.28 04:59:45.
