data_PCOD8288588
_publ_section_title
;
Structure prediction by ZEFSAII (Michael W. Deem and Ramdas Pophale) SiO2 
 PCOD8288588
Probable space group: I M M M
;
_chemical_formula_sum "Si O2"
_cell_formula_units_Z 104
_cell_length_a 22.518620
_cell_length_b 8.945127
_cell_length_c 29.290280
_cell_angle_alpha 90.000000
_cell_angle_beta 90.000000
_cell_angle_gamma 90.000000
_cell_volume 5899.997214
_symmetry_space_group_name_H-M "I M M M"
_symmetry_group_IT_number 71
_symmetry_cell_setting 'orthorhombic'
loop_
_space_group_symop_operation_xyz
x,y,z
-x,-y,z
x,-y,-z
-x,y,-z
-x,-y,-z
x,y,-z
-x,y,z
x,-y,z
1/2+x,1/2+y,1/2+z
1/2-x,1/2-y,1/2+z
1/2+x,1/2-y,1/2-z
1/2-x,1/2+y,1/2-z
1/2-x,1/2-y,1/2-z
1/2+x,1/2+y,1/2-z
1/2-x,1/2+y,1/2+z
1/2+x,1/2-y,1/2+z
loop_
_atom_site_type_symbol
_atom_site_label
_atom_site_fract_x
_atom_site_fract_y
_atom_site_fract_z
Si Si1 0.273757 0.827372 0.552327
Si Si2 0.346560 0.173021 0.053318
Si Si3 0.430239 0.674176 0.694323
Si Si4 0.500000 0.328913 0.446027
Si Si5 0.892706 0.676074 0.895747
Si Si6 0.569052 0.674576 0.877253
Si Si7 0.429438 0.168460 0.786005
O O1 0.290794 0.792184 0.500000
O O2 0.218258 0.728845 0.568658
O O3 0.328999 0.782765 0.583637
O O4 0.256330 0.000000 0.558409
O O5 0.397227 0.264605 0.078814
O O6 0.352569 0.000000 0.065887
O O7 0.356066 0.203587 0.000000
O O8 0.500000 0.704411 0.687118
O O9 0.415350 0.500000 0.692890
O O10 0.394549 0.758748 0.655012
O O11 0.407029 0.739202 0.742280
O O12 0.500000 0.500000 0.428910
O O13 0.500000 0.317255 0.500000
O O14 0.441802 0.249531 0.427559
O O15 0.904084 0.500000 0.894461
O O16 0.500000 0.711309 0.884353
O O17 0.580478 0.500000 0.871625
O O18 0.594604 0.753952 0.831879
O O19 0.500000 0.169949 0.786697
O O20 0.404619 0.000000 0.783365
#
# Coordination Sequence:
#
# PCOD8288588 Si02
#       7
#    16  16  16   8  16  16  16
#     4   9  19  36  55  74  98 133 177 220 261 309
#     4  10  21  36  55  79 106 138 175 214 255 303
#     4  10  19  31  48  72 105 139 174 215 263 314
#     4  11  23  35  47  69 103 139 173 217 274 325
#     4  11  21  33  52  75 101 134 176 222 267 315
#     4  10  20  34  54  81 111 141 172 207 254 307
#     4   9  17  30  50  75 104 137 173 212 255 305
#
# _framework density 17.627127000000002
#
# number of rings (size 3 to 8) (size 9 to 14) (size 15 to 20)
#    0.000    2.077    0.769    3.000    0.000    7.077 
#    0.000    3.077    0.000    0.923    0.000    0.000 
#    0.000    0.000    0.000    0.000    0.000    0.000 
#
# Total GULP energy -644996.789445 kJ/mol
# GULP energy per Si atom -12403.784412 kJ/mol
# Density = 1.758701 g / cm^3
# Si number density = 17.627127 Si / 1000 Ang^3
#
#
#
# Elastic Constant Matrix: (Units=GPa)
#
#
# Indices 1 2 3 4 5 6 
#
# 1 74.6785 55.1248 56.8801 0.0000 0.0000 0.0000
# 2 55.1248 114.3173 60.1000 0.0000 0.0000 0.0000
# 3 56.8801 60.1000 105.8371 0.0000 0.0000 0.0000
# 4 0.0000 0.0000 0.0000 37.0325 0.0000 0.0000
# 5 0.0000 0.0000 0.0000 0.0000 15.2515 0.0000
# 6 0.0000 0.0000 0.0000 0.0000 0.0000 23.7830
#
#
#
# Elastic Compliance Matrix: (Units=1/GPa)
#
#
# Indices 1 2 3 4 5 6 
#
# 1 0.026587 -0.007568 -0.009991 0.000000 0.000000 0.000000
# 2 -0.007568 0.014625 -0.004237 0.000000 0.000000 0.000000
# 3 -0.009991 -0.004237 0.017224 0.000000 0.000000 0.000000
# 4 0.000000 0.000000 0.000000 0.027003 0.000000 0.000000
# 5 0.000000 0.000000 0.000000 0.000000 0.065567 0.000000
# 6 0.000000 0.000000 0.000000 0.000000 0.000000 0.042047
#
#
# Mechanical properties :
#
#
# Convention : Reuss Voigt Hill
#
# Bulk Modulus (GPa) = 67.37230 71.00476 69.18853
# Shear Modulus (GPa) = 20.69588 23.39528 22.04558
#
# Velocity S-wave (km/s) = 3.43022 3.64707 3.54031
# Velocity P-wave (km/s) = 7.34795 7.62259 7.48653
#
# Compressibility (1/GPa) = 0.01484290
#
# Stress axis : x y z
#
# Youngs Moduli (GPa) = 37.61240 68.37792 58.05735
#
# Poissons Ratio (x) = 0.51747 0.58007
# Poissons Ratio (y) = 0.28464 0.24602
# Poissons Ratio (z) = 0.37580 0.28975
#
# Static dielectric constant tensor:
#      x y z
#    x 3.028370 0.000000 0.000000 
#    y 0.000000 3.450350 0.000000 
#    z 0.000000 0.000000 3.368340 
# 
# 
# High freq. dielectric constant tensor:
#      x y z
#    x 1.649260 0.000000 0.000000 
#    y 0.000000 1.699430 0.000000 
#    z 0.000000 0.000000 1.689700 
# 
# From -- ./inp_files/17049.got.cif
#   From: 2010.06.25/outbox.cif.g09.slc.cpg/sg71_9_cif.got.tgz:17049.got - 2010.06.28 04:59:45.
