data_PCOD8288774
_publ_section_title
;
Structure prediction by ZEFSAII (Michael W. Deem and Ramdas Pophale) SiO2 
 PCOD8288774
Probable space group: I M M M
;
_chemical_formula_sum "Si O2"
_cell_formula_units_Z 72
_cell_length_a 19.164263
_cell_length_b 8.667968
_cell_length_c 27.652008
_cell_angle_alpha 90.000000
_cell_angle_beta 90.000000
_cell_angle_gamma 90.000000
_cell_volume 4593.419349
_symmetry_space_group_name_H-M "I M M M"
_symmetry_group_IT_number 71
_symmetry_cell_setting 'orthorhombic'
loop_
_space_group_symop_operation_xyz
x,y,z
-x,-y,z
x,-y,-z
-x,y,-z
-x,-y,-z
x,y,-z
-x,y,z
x,-y,z
1/2+x,1/2+y,1/2+z
1/2-x,1/2-y,1/2+z
1/2+x,1/2-y,1/2-z
1/2-x,1/2+y,1/2-z
1/2-x,1/2-y,1/2-z
1/2+x,1/2+y,1/2-z
1/2-x,1/2+y,1/2+z
1/2+x,1/2-y,1/2+z
loop_
_atom_site_type_symbol
_atom_site_label
_atom_site_fract_x
_atom_site_fract_y
_atom_site_fract_z
Si Si1 0.000000 0.182016 0.738531
Si Si2 0.279724 0.320907 0.674884
Si Si3 0.871533 0.318292 0.901850
Si Si4 0.152226 0.819263 0.276264
Si Si5 0.918837 0.816995 0.000000
Si Si6 0.000000 0.183629 0.845702
O O1 0.072006 0.231719 0.712165
O O2 0.000000 0.252266 0.792007
O O3 0.000000 0.000000 0.744456
O O4 0.284573 0.500000 0.662283
O O5 0.301029 0.225970 0.626966
O O6 0.200284 0.277238 0.687563
O O7 0.329549 0.279524 0.720432
O O8 0.878779 0.500000 0.906446
O O9 0.932807 0.245912 0.871452
O O10 0.875041 0.245504 0.954822
O O11 0.164601 0.000000 0.285582
O O12 0.000000 0.758713 0.000000
O O13 0.918043 0.000000 0.000000
O O14 0.000000 0.000000 0.847971
#
# Coordination Sequence:
#
# PCOD8288774 Si02
#       6
#     8  16  16  16   8   8
#     4   9  16  29  48  68  93 126 162 200 240 285
#     4  10  19  32  48  66  93 128 162 197 240 287
#     4  12  23  34  49  70  95 124 162 206 242 281
#     4   9  17  30  47  68  93 124 162 200 239 283
#     4  11  23  37  53  69  92 127 162 199 242 284
#     4  11  19  32  48  67  93 129 165 197 240 287
#
# _framework density 15.674597
#
# number of rings (size 3 to 8) (size 9 to 14) (size 15 to 20)
#    0.000    1.667    3.333    3.333    0.000    1.333 
#    0.000    0.556    0.000    0.000    0.000    0.000 
#    0.000    0.889    0.000    9.556    0.000    4.222 
#
# Total GULP energy -446307.621682 kJ/mol
# GULP energy per Si atom -12397.433936 kJ/mol
# Density = 1.563892 g / cm^3
# Si number density = 15.674597 Si / 1000 Ang^3
#
#
#
# Elastic Constant Matrix: (Units=GPa)
#
#
# Indices 1 2 3 4 5 6 
#
# 1 104.4733 24.4207 37.8970 0.0000 0.0000 0.0000
# 2 24.4207 70.1177 30.8703 0.0000 0.0000 0.0000
# 3 37.8970 30.8703 81.3345 0.0000 0.0000 0.0000
# 4 0.0000 0.0000 0.0000 21.3076 0.0000 0.0000
# 5 0.0000 0.0000 0.0000 0.0000 24.2455 0.0000
# 6 0.0000 0.0000 0.0000 0.0000 0.0000 25.6304
#
#
#
# Elastic Compliance Matrix: (Units=1/GPa)
#
#
# Indices 1 2 3 4 5 6 
#
# 1 0.011752 -0.002020 -0.004709 0.000000 0.000000 0.000000
# 2 -0.002020 0.017470 -0.005690 0.000000 0.000000 0.000000
# 3 -0.004709 -0.005690 0.016649 0.000000 0.000000 0.000000
# 4 0.000000 0.000000 0.000000 0.046932 0.000000 0.000000
# 5 0.000000 0.000000 0.000000 0.000000 0.041245 0.000000
# 6 0.000000 0.000000 0.000000 0.000000 0.000000 0.039016
#
#
# Mechanical properties :
#
#
# Convention : Reuss Voigt Hill
#
# Bulk Modulus (GPa) = 47.54286 49.14462 48.34374
# Shear Modulus (GPa) = 24.40071 25.08585 24.74328
#
# Velocity S-wave (km/s) = 3.94979 4.00486 3.97742
# Velocity P-wave (km/s) = 7.15529 7.26679 7.21126
#
# Compressibility (1/GPa) = 0.02103365
#
# Stress axis : x y z
#
# Youngs Moduli (GPa) = 85.09059 57.24054 60.06510
#
# Poissons Ratio (x) = 0.11561 0.28286
# Poissons Ratio (y) = 0.17186 0.34175
# Poissons Ratio (z) = 0.40071 0.32568
#
# Static dielectric constant tensor:
#      x y z
#    x 2.965890 0.000000 0.000000 
#    y 0.000000 2.979280 0.000000 
#    z 0.000000 0.000000 3.748750 
# 
# 
# High freq. dielectric constant tensor:
#      x y z
#    x 1.593250 0.000000 0.000000 
#    y 0.000000 1.605870 0.000000 
#    z 0.000000 0.000000 1.570950 
# 
# From -- ./inp_files/12341.got.cif
#   From: 2010.06.25/outbox.cif.g09.slc.cpg/sg71_7_cif.got.tgz:12341.got - 2010.06.28 04:59:45.
