data_PCOD8288921
_publ_section_title
;
Structure prediction by ZEFSAII (Michael W. Deem and Ramdas Pophale) SiO2 
 PCOD8288921
Probable space group: I M M M
;
_chemical_formula_sum "Si O2"
_cell_formula_units_Z 88
_cell_length_a 8.221109
_cell_length_b 30.924629
_cell_length_c 16.713358
_cell_angle_alpha 90.000000
_cell_angle_beta 90.000000
_cell_angle_gamma 90.000000
_cell_volume 4249.116322
_symmetry_space_group_name_H-M "I M M M"
_symmetry_group_IT_number 71
_symmetry_cell_setting 'orthorhombic'
loop_
_space_group_symop_operation_xyz
x,y,z
-x,-y,z
x,-y,-z
-x,y,-z
-x,-y,-z
x,y,-z
-x,y,z
x,-y,z
1/2+x,1/2+y,1/2+z
1/2-x,1/2-y,1/2+z
1/2+x,1/2-y,1/2-z
1/2-x,1/2+y,1/2-z
1/2-x,1/2-y,1/2-z
1/2+x,1/2+y,1/2-z
1/2-x,1/2+y,1/2+z
1/2+x,1/2-y,1/2+z
loop_
_atom_site_type_symbol
_atom_site_label
_atom_site_fract_x
_atom_site_fract_y
_atom_site_fract_z
Si Si1 0.193488 0.222735 0.671863
Si Si2 0.192288 0.500000 0.589282
Si Si3 0.306429 0.547253 0.909453
Si Si4 0.186679 0.873669 0.310855
Si Si5 0.191966 0.644381 0.500000
Si Si6 0.306343 0.759635 0.000000
Si Si7 0.692337 0.091214 0.848576
O O1 0.250000 0.250000 0.750000
O O2 0.265108 0.173838 0.677829
O O3 0.256533 0.239006 0.584302
O O4 0.000000 0.223614 0.674160
O O5 0.269471 0.500000 0.500000
O O6 0.247550 0.458230 0.639043
O O7 0.000000 0.500000 0.578505
O O8 0.500000 0.549005 0.903232
O O9 0.247417 0.500000 0.876095
O O10 0.227928 0.588020 0.862612
O O11 0.247590 0.551844 0.000000
O O12 0.202517 0.887963 0.220357
O O13 0.000000 0.870059 0.336553
O O14 0.266429 0.692170 0.500000
O O15 0.251478 0.618157 0.424094
O O16 0.000000 0.647934 0.500000
O O17 0.500000 0.758019 0.000000
O O18 0.500000 0.095332 0.831994
#
# Coordination Sequence:
#
# PCOD8288921 Si02
#       7
#    16   8  16  16   8   8  16
#     4  10  21  37  56  80 110 140 177 225 273 322
#     4   9  16  30  51  77 104 133 178 226 259 297
#     4   8  15  29  49  72  99 131 165 202 246 297
#     4  10  21  33  51  79 107 134 169 214 260 306
#     4   9  16  29  51  74  94 127 176 212 243 298
#     4   9  18  32  54  79 101 134 178 221 265 318
#     4  10  19  32  52  75 103 139 173 210 255 306
#
# _framework density 20.710189
#
# number of rings (size 3 to 8) (size 9 to 14) (size 15 to 20)
#    0.000    2.636    0.909    1.636    2.545    2.182 
#    0.000    0.909    0.000    4.364    0.000    1.273 
#    0.000    0.000    0.000    0.000    0.000    0.000 
#
# Total GULP energy -545147.468913 kJ/mol
# GULP energy per Si atom -12389.715203 kJ/mol
# Density = 2.066305 g / cm^3
# Si number density = 20.710189 Si / 1000 Ang^3
#
#
#
# Elastic Constant Matrix: (Units=GPa)
#
#
# Indices 1 2 3 4 5 6 
#
# 1 9.0946 7.6744 2.4917 0.0000 0.0000 0.0000
# 2 7.6744 239.0683 102.8770 0.0001 0.0000 0.0000
# 3 2.4917 102.8770 152.8815 0.0002 -0.0002 0.0000
# 4 0.0000 0.0001 0.0002 46.0682 -0.0001 0.0000
# 5 0.0000 0.0000 -0.0002 -0.0001 11.7917 0.0000
# 6 0.0000 0.0000 0.0000 0.0000 0.0000 15.1215
#
#
#
# Elastic Compliance Matrix: (Units=1/GPa)
#
#
# Indices 1 2 3 4 5 6 
#
# 1 0.113094 -0.003994 0.000844 0.000000 0.000000 0.000000
# 2 -0.003994 0.006029 -0.003992 0.000000 0.000000 0.000000
# 3 0.000844 -0.003992 0.009213 0.000000 0.000000 0.000000
# 4 0.000000 0.000000 0.000000 0.021707 0.000000 0.000000
# 5 0.000000 0.000000 0.000000 0.000000 0.084806 0.000000
# 6 0.000000 0.000000 0.000000 0.000000 0.000000 0.066131
#
#
# Mechanical properties :
#
#
# Convention : Reuss Voigt Hill
#
# Bulk Modulus (GPa) = 8.76784 69.68118 39.22451
# Shear Modulus (GPa) = 14.15307 33.79637 23.97472
#
# Velocity S-wave (km/s) = 2.61700 4.04403 3.40609
# Velocity P-wave (km/s) = 3.65710 7.45147 5.86936
#
# Compressibility (1/GPa) = 0.11405324
#
# Stress axis : x y z
#
# Youngs Moduli (GPa) = 8.84223 165.86729 108.53674
#
# Poissons Ratio (x) = 0.66243 -0.09163
# Poissons Ratio (y) = 0.03531 0.43327
# Poissons Ratio (z) = -0.00747 0.66212
#
# Static dielectric constant tensor:
#      x y z
#    x 3.065550 0.000000 0.000000 
#    y 0.000000 4.477640 0.000000 
#    z 0.000000 0.000000 3.807710 
# 
# 
# High freq. dielectric constant tensor:
#      x y z
#    x 1.746060 0.000000 0.000000 
#    y 0.000000 1.835580 0.000000 
#    z 0.000000 0.000000 1.817590 
# 
# From -- ./inp_files/42545.got.cif
#   From: 2010.06.25/outbox.cif.g09.slc.cpg/sg71_22_cif.got.tgz:42545.got - 2010.06.28 04:59:45.
