data_PCOD8288606
_publ_section_title
;
Structure prediction by ZEFSAII (Michael W. Deem and Ramdas Pophale) SiO2 
 PCOD8288606
Probable space group: I M M M
;
_chemical_formula_sum "Si O2"
_cell_formula_units_Z 80
_cell_length_a 20.649170
_cell_length_b 8.789845
_cell_length_c 23.250333
_cell_angle_alpha 90.000000
_cell_angle_beta 90.000000
_cell_angle_gamma 90.000000
_cell_volume 4220.005276
_symmetry_space_group_name_H-M "I M M M"
_symmetry_group_IT_number 71
_symmetry_cell_setting 'orthorhombic'
loop_
_space_group_symop_operation_xyz
x,y,z
-x,-y,z
x,-y,-z
-x,y,-z
-x,-y,-z
x,y,-z
-x,y,z
x,-y,z
1/2+x,1/2+y,1/2+z
1/2-x,1/2-y,1/2+z
1/2+x,1/2-y,1/2-z
1/2-x,1/2+y,1/2-z
1/2-x,1/2-y,1/2-z
1/2+x,1/2+y,1/2-z
1/2-x,1/2+y,1/2+z
1/2+x,1/2-y,1/2+z
loop_
_atom_site_type_symbol
_atom_site_label
_atom_site_fract_x
_atom_site_fract_y
_atom_site_fract_z
Si Si1 0.122777 0.319140 0.368269
Si Si2 0.500000 0.319035 0.563699
Si Si3 0.376045 0.319319 0.368108
Si Si4 0.751277 0.318714 0.434190
Si Si5 0.425236 0.180463 0.745349
Si Si6 0.000000 0.681671 0.563986
O O1 0.123791 0.500000 0.370632
O O2 0.188425 0.254855 0.396977
O O3 0.111605 0.264289 0.302972
O O4 0.063327 0.253898 0.404962
O O5 0.500000 0.500000 0.561311
O O6 0.500000 0.249770 0.500000
O O7 0.563028 0.258200 0.596019
O O8 0.375692 0.500000 0.362607
O O9 0.312629 0.260048 0.401385
O O10 0.381398 0.249308 0.304956
O O11 0.753209 0.256492 0.500000
O O12 0.752166 0.500000 0.436142
O O13 0.500000 0.240044 0.744019
O O14 0.425652 0.000000 0.740967
O O15 0.000000 0.500000 0.565230
O O16 0.000000 0.746157 0.500000
#
# Coordination Sequence:
#
# PCOD8288606 Si02
#       6
#    16   8  16  16  16   8
#     4   9  16  27  43  66  96 129 159 191 236 287
#     4   9  16  27  45  67  89 117 156 197 236 278
#     4  10  19  31  49  72  96 125 161 200 241 283
#     4   9  17  29  46  70  98 124 155 200 247 286
#     4  10  19  32  49  69  98 131 162 197 236 280
#     4   9  14  21  38  64  93 125 158 191 234 286
#
# _framework density 18.957322999999999
#
# number of rings (size 3 to 8) (size 9 to 14) (size 15 to 20)
#    0.000    2.600    2.000    1.200    0.000    5.600 
#    0.000    0.000    0.000    3.000    0.000    0.000 
#    0.000    3.200    0.000    0.000    0.000    0.000 
#
# Total GULP energy -495865.428096 kJ/mol
# GULP energy per Si atom -12396.635702 kJ/mol
# Density = 1.891417 g / cm^3
# Si number density = 18.957323 Si / 1000 Ang^3
#
#
#
# Elastic Constant Matrix: (Units=GPa)
#
#
# Indices 1 2 3 4 5 6 
#
# 1 186.7814 10.1389 106.2145 0.0000 0.0000 0.0000
# 2 10.1389 6.5867 14.6776 0.0000 0.0000 0.0000
# 3 106.2145 14.6776 208.1907 0.0000 0.0000 0.0000
# 4 0.0000 0.0000 0.0000 23.4717 0.0000 0.0000
# 5 0.0000 0.0000 0.0000 0.0000 44.7208 0.0000
# 6 0.0000 0.0000 0.0000 0.0000 0.0000 6.1326
#
#
#
# Elastic Compliance Matrix: (Units=1/GPa)
#
#
# Indices 1 2 3 4 5 6 
#
# 1 0.007615 -0.003635 -0.003628 0.000000 0.000000 0.000000
# 2 -0.003635 0.181853 -0.010966 0.000000 0.000000 0.000000
# 3 -0.003628 -0.010966 0.007428 0.000000 0.000000 0.000000
# 4 0.000000 0.000000 0.000000 0.042605 0.000000 0.000000
# 5 0.000000 0.000000 0.000000 0.000000 0.022361 0.000000
# 6 0.000000 0.000000 0.000000 0.000000 0.000000 0.163064
#
#
# Mechanical properties :
#
#
# Convention : Reuss Voigt Hill
#
# Bulk Modulus (GPa) = 6.23304 73.73565 39.98434
# Shear Modulus (GPa) = 9.71132 32.90019 21.30575
#
# Velocity S-wave (km/s) = 2.26580 4.17044 3.35607
# Velocity P-wave (km/s) = 3.18437 7.88480 6.01292
#
# Compressibility (1/GPa) = 0.16043544
#
# Stress axis : x y z
#
# Youngs Moduli (GPa) = 131.32748 5.49894 134.63344
#
# Poissons Ratio (x) = 0.01999 0.48851
# Poissons Ratio (y) = 0.47744 1.47640
# Poissons Ratio (z) = 0.47652 0.06030
#
# Static dielectric constant tensor:
#      x y z
#    x 3.730460 0.000000 0.000000 
#    y 0.000000 2.718670 0.000000 
#    z 0.000000 0.000000 3.721480 
# 
# 
# High freq. dielectric constant tensor:
#      x y z
#    x 1.747080 0.000000 0.000000 
#    y 0.000000 1.659740 0.000000 
#    z 0.000000 0.000000 1.757170 
# 
# From -- ./inp_files/25560.got.cif
#   From: 2010.06.25/outbox.cif.g09.slc.cpg/sg71_13_cif.got.tgz:25560.got - 2010.06.28 04:59:45.
