data_PCOD8288488
_publ_section_title
;
Structure prediction by ZEFSAII (Michael W. Deem and Ramdas Pophale) SiO2 
 PCOD8288488
Probable space group: I M M M
;
_chemical_formula_sum "Si O2"
_cell_formula_units_Z 104
_cell_length_a 9.051842
_cell_length_b 27.582429
_cell_length_c 32.250148
_cell_angle_alpha 90.000000
_cell_angle_beta 90.000000
_cell_angle_gamma 90.000000
_cell_volume 8051.952156
_symmetry_space_group_name_H-M "I M M M"
_symmetry_group_IT_number 71
_symmetry_cell_setting 'orthorhombic'
loop_
_space_group_symop_operation_xyz
x,y,z
-x,-y,z
x,-y,-z
-x,y,-z
-x,-y,-z
x,y,-z
-x,y,z
x,-y,z
1/2+x,1/2+y,1/2+z
1/2-x,1/2-y,1/2+z
1/2+x,1/2-y,1/2-z
1/2-x,1/2+y,1/2-z
1/2-x,1/2-y,1/2-z
1/2+x,1/2+y,1/2-z
1/2-x,1/2+y,1/2+z
1/2+x,1/2-y,1/2+z
loop_
_atom_site_type_symbol
_atom_site_label
_atom_site_fract_x
_atom_site_fract_y
_atom_site_fract_z
Si Si1 0.826507 0.908776 0.089234
Si Si2 0.332971 0.676956 0.735916
Si Si3 0.828184 0.807350 0.952698
Si Si4 0.328410 0.000000 0.951167
Si Si5 0.833927 0.262205 0.380597
Si Si6 0.832774 0.634506 0.336557
Si Si7 0.166702 0.719739 0.808530
O O1 0.792068 0.861756 0.061597
O O2 0.748677 0.953002 0.067043
O O3 0.758806 0.902748 0.135110
O O4 0.000000 0.918659 0.093374
O O5 0.500000 0.658671 0.742488
O O6 0.245353 0.637802 0.708212
O O7 0.254059 0.681035 0.780451
O O8 0.332405 0.728479 0.713466
O O9 0.740179 0.768041 0.925588
O O10 0.000000 0.796286 0.946889
O O11 0.776927 0.801546 0.000000
O O12 0.500000 0.000000 0.938917
O O13 0.305000 0.000000 0.000000
O O14 0.832130 0.313197 0.357457
O O15 0.744330 0.223181 0.353361
O O16 0.000000 0.243027 0.386380
O O17 0.000000 0.615561 0.330915
O O18 0.000000 0.701176 0.814738
#
# Coordination Sequence:
#
# PCOD8288488 Si02
#       7
#    16  16  16   8  16  16  16
#     4  10  19  31  45  57  68  83 104 131 164 203
#     4   9  15  22  33  49  67  86 107 127 147 177
#     4   9  17  28  40  52  65  82 105 133 165 201
#     4  11  23  35  45  57  71  85 103 131 169 211
#     4   9  16  24  34  48  65  84 105 129 156 187
#     4   9  16  26  38  52  69  86 103 124 153 189
#     4   9  15  22  32  46  65  87 107 127 151 179
#
# _framework density 12.916123000000001
#
# number of rings (size 3 to 8) (size 9 to 14) (size 15 to 20)
#    0.000    2.692    0.000    3.000    0.000    9.538 
#    0.000    0.000    0.000    0.000    0.000    0.000 
#    0.000    0.000    0.000    0.000    0.000    0.000 
#
# Total GULP energy -644750.352041 kJ/mol
# GULP energy per Si atom -12399.045232 kJ/mol
# Density = 1.288673 g / cm^3
# Si number density = 12.916123 Si / 1000 Ang^3
#
#
#
# Elastic Constant Matrix: (Units=GPa)
#
#
# Indices 1 2 3 4 5 6 
#
# 1 119.3559 28.1186 67.8931 0.0000 0.0000 0.0000
# 2 28.1186 17.6879 34.4198 0.0000 0.0000 0.0000
# 3 67.8931 34.4198 105.6298 0.0000 0.0000 0.0000
# 4 0.0000 0.0000 0.0000 16.0637 0.0000 0.0000
# 5 0.0000 0.0000 0.0000 0.0000 25.4219 0.0000
# 6 0.0000 0.0000 0.0000 0.0000 0.0000 9.6744
#
#
#
# Elastic Compliance Matrix: (Units=1/GPa)
#
#
# Indices 1 2 3 4 5 6 
#
# 1 0.014252 -0.013202 -0.004859 0.000000 0.000000 0.000000
# 2 -0.013202 0.166738 -0.045846 0.000000 0.000000 0.000000
# 3 -0.004859 -0.045846 0.027529 0.000000 0.000000 0.000000
# 4 0.000000 0.000000 0.000000 0.062252 0.000000 0.000000
# 5 0.000000 0.000000 0.000000 0.000000 0.039336 0.000000
# 6 0.000000 0.000000 0.000000 0.000000 0.000000 0.103366
#
#
# Mechanical properties :
#
#
# Convention : Reuss Voigt Hill
#
# Bulk Modulus (GPa) = 12.39086 55.94849 34.16967
# Shear Modulus (GPa) = 8.79989 17.71482 13.25736
#
# Velocity S-wave (km/s) = 2.61302 3.70743 3.20725
# Velocity P-wave (km/s) = 4.32643 7.85732 6.34254
#
# Compressibility (1/GPa) = 0.08070467
#
# Stress axis : x y z
#
# Youngs Moduli (GPa) = 70.16417 5.99744 36.32540
#
# Poissons Ratio (x) = 0.07918 0.17649
# Poissons Ratio (y) = 0.92634 1.66538
# Poissons Ratio (z) = 0.34090 0.27496
#
# Static dielectric constant tensor:
#      x y z
#    x 2.835050 0.000000 0.000000 
#    y 0.000000 2.164110 0.000000 
#    z 0.000000 0.000000 2.691390 
# 
# 
# High freq. dielectric constant tensor:
#      x y z
#    x 1.513660 0.000000 0.000000 
#    y 0.000000 1.416120 0.000000 
#    z 0.000000 0.000000 1.487070 
# 
# From -- ./inp_files/15761.got.cif
#   From: 2010.06.25/outbox.cif.g09.slc.cpg/sg71_8_cif.got.tgz:15761.got - 2010.06.28 04:59:45.
