data_PCOD8288568
_publ_section_title
;
Structure prediction by ZEFSAII (Michael W. Deem and Ramdas Pophale) SiO2 
 PCOD8288568
Probable space group: I M M M
;
_chemical_formula_sum "Si O2"
_cell_formula_units_Z 88
_cell_length_a 20.878198
_cell_length_b 13.262562
_cell_length_c 18.930305
_cell_angle_alpha 90.000000
_cell_angle_beta 90.000000
_cell_angle_gamma 90.000000
_cell_volume 5241.771079
_symmetry_space_group_name_H-M "I M M M"
_symmetry_group_IT_number 71
_symmetry_cell_setting 'orthorhombic'
loop_
_space_group_symop_operation_xyz
x,y,z
-x,-y,z
x,-y,-z
-x,y,-z
-x,-y,-z
x,y,-z
-x,y,z
x,-y,z
1/2+x,1/2+y,1/2+z
1/2-x,1/2-y,1/2+z
1/2+x,1/2-y,1/2-z
1/2-x,1/2+y,1/2-z
1/2-x,1/2-y,1/2-z
1/2+x,1/2+y,1/2-z
1/2-x,1/2+y,1/2+z
1/2+x,1/2-y,1/2+z
loop_
_atom_site_type_symbol
_atom_site_label
_atom_site_fract_x
_atom_site_fract_y
_atom_site_fract_z
Si Si1 0.500000 0.113331 0.084056
Si Si2 0.702398 0.388292 0.080691
Si Si3 0.132712 0.692085 0.582251
Si Si4 0.814165 0.697077 0.828587
Si Si5 0.769017 0.614642 0.314298
Si Si6 0.074163 0.617459 0.081497
O O1 0.562737 0.169169 0.113825
O O2 0.500000 0.000000 0.113044
O O3 0.500000 0.115742 0.000000
O O4 0.675616 0.500000 0.096575
O O5 0.646112 0.309694 0.098517
O O6 0.764185 0.368033 0.127037
O O7 0.724688 0.377014 0.000000
O O8 0.135442 0.666216 0.500000
O O9 0.186373 0.621506 0.616950
O O10 0.813838 0.651415 0.750140
O O11 0.793700 0.814836 0.824117
O O12 0.883309 0.685916 0.865679
O O13 0.745326 0.500000 0.303932
O O14 0.088939 0.500000 0.095463
O O15 0.000000 0.641170 0.097750
O O16 0.089913 0.644379 0.000000
#
# Coordination Sequence:
#
# PCOD8288568 Si02
#       6
#     8  16  16  16  16  16
#     4   9  16  28  45  59  79 115 149 181 224 267
#     4   9  16  27  46  69  91 117 149 186 228 273
#     4   9  18  31  45  64  89 118 155 192 227 271
#     4  10  19  31  48  70  96 124 153 190 234 283
#     4  10  20  32  47  69  94 122 156 195 237 275
#     4   9  17  30  50  75 101 128 157 193 241 292
#
# _framework density 16.788219999999999
#
# number of rings (size 3 to 8) (size 9 to 14) (size 15 to 20)
#    0.000    2.636    0.000    3.273    0.000    3.273 
#    1.636    0.455    0.000    3.273    0.000    1.273 
#    0.000    0.000    0.000    0.000    0.000    0.000 
#
# Total GULP energy -545505.509256 kJ/mol
# GULP energy per Si atom -12397.852483 kJ/mol
# Density = 1.675001 g / cm^3
# Si number density = 16.788220 Si / 1000 Ang^3
#
#
#
# Elastic Constant Matrix: (Units=GPa)
#
#
# Indices 1 2 3 4 5 6 
#
# 1 101.7758 53.0170 41.5640 0.0000 0.0000 0.0000
# 2 53.0170 115.7300 33.4693 0.0000 0.0000 0.0000
# 3 41.5640 33.4693 60.3132 0.0000 0.0000 0.0000
# 4 0.0000 0.0000 0.0000 17.7421 0.0000 0.0000
# 5 0.0000 0.0000 0.0000 0.0000 21.6540 0.0000
# 6 0.0000 0.0000 0.0000 0.0000 0.0000 23.0688
#
#
#
# Elastic Compliance Matrix: (Units=1/GPa)
#
#
# Indices 1 2 3 4 5 6 
#
# 1 0.015650 -0.004825 -0.008108 0.000000 0.000000 0.000000
# 2 -0.004825 0.011780 -0.003212 0.000000 0.000000 0.000000
# 3 -0.008108 -0.003212 0.023950 0.000000 0.000000 0.000000
# 4 0.000000 0.000000 0.000000 0.056363 0.000000 0.000000
# 5 0.000000 0.000000 0.000000 0.000000 0.046181 0.000000
# 6 0.000000 0.000000 0.000000 0.000000 0.000000 0.043349
#
#
# Mechanical properties :
#
#
# Convention : Reuss Voigt Hill
#
# Bulk Modulus (GPa) = 52.38092 59.32442 55.85267
# Shear Modulus (GPa) = 21.19322 22.47755 21.83539
#
# Velocity S-wave (km/s) = 3.55686 3.66305 3.61035
# Velocity P-wave (km/s) = 6.93809 7.30098 7.12184
#
# Compressibility (1/GPa) = 0.01909092
#
# Stress axis : x y z
#
# Youngs Moduli (GPa) = 63.89868 84.88988 41.75395
#
# Poissons Ratio (x) = 0.40956 0.33852
# Poissons Ratio (y) = 0.30829 0.13412
# Poissons Ratio (z) = 0.51806 0.27268
#
# Static dielectric constant tensor:
#      x y z
#    x 3.119440 0.000000 0.000000 
#    y 0.000000 3.170550 0.000000 
#    z 0.000000 0.000000 3.215100 
# 
# 
# High freq. dielectric constant tensor:
#      x y z
#    x 1.627860 0.000000 0.000000 
#    y 0.000000 1.639920 0.000000 
#    z 0.000000 0.000000 1.647220 
# 
# From -- ./inp_files/36594.got.cif
#   From: 2010.06.25/outbox.cif.g09.slc.cpg/sg71_19_cif.got.tgz:36594.got - 2010.06.28 04:59:45.
