data_PCOD8288961
_publ_section_title
;
Structure prediction by ZEFSAII (Michael W. Deem and Ramdas Pophale) SiO2 
 PCOD8288961
Probable space group: I M M M
;
_chemical_formula_sum "Si O2"
_cell_formula_units_Z 104
_cell_length_a 7.876304
_cell_length_b 28.593209
_cell_length_c 24.390809
_cell_angle_alpha 90.000000
_cell_angle_beta 90.000000
_cell_angle_gamma 90.000000
_cell_volume 5493.024982
_symmetry_space_group_name_H-M "I M M M"
_symmetry_group_IT_number 71
_symmetry_cell_setting 'orthorhombic'
loop_
_space_group_symop_operation_xyz
x,y,z
-x,-y,z
x,-y,-z
-x,y,-z
-x,-y,-z
x,y,-z
-x,y,z
x,-y,z
1/2+x,1/2+y,1/2+z
1/2-x,1/2-y,1/2+z
1/2+x,1/2-y,1/2-z
1/2-x,1/2+y,1/2-z
1/2-x,1/2-y,1/2-z
1/2+x,1/2+y,1/2-z
1/2-x,1/2+y,1/2+z
1/2+x,1/2-y,1/2+z
loop_
_atom_site_type_symbol
_atom_site_label
_atom_site_fract_x
_atom_site_fract_y
_atom_site_fract_z
Si Si1 0.809314 0.611825 0.158680
Si Si2 0.000000 0.444890 0.434953
Si Si3 0.795169 0.101780 0.133287
Si Si4 0.804744 0.949228 0.757532
Si Si5 0.696830 0.446915 0.937638
Si Si6 0.306539 0.695116 0.686993
Si Si7 0.804382 0.206676 0.691590
O O1 0.713804 0.581106 0.203290
O O2 0.805724 0.587141 0.099953
O O3 0.722559 0.662466 0.152244
O O4 0.000000 0.618610 0.178498
O O5 0.825484 0.420093 0.413670
O O6 0.000000 0.500000 0.418796
O O7 0.000000 0.438757 0.500000
O O8 0.735214 0.076255 0.188821
O O9 0.739090 0.156115 0.144067
O O10 0.000000 0.096305 0.119646
O O11 0.000000 0.957675 0.767721
O O12 0.714452 0.000000 0.750261
O O13 0.500000 0.442040 0.922314
O O14 0.756914 0.500000 0.927866
O O15 0.730014 0.432066 0.000000
O O16 0.500000 0.680931 0.695632
O O17 0.283767 0.747781 0.663950
O O18 0.223388 0.694470 0.748297
O O19 0.000000 0.219553 0.697479
#
# Coordination Sequence:
#
# PCOD8288961 Si02
#       7
#    16   8  16  16  16  16  16
#     4  12  23  32  48  78 116 149 184 233 286 339
#     4  11  26  44  64  92 122 156 203 253 296 356
#     4  10  21  39  63  88 120 158 195 241 298 354
#     4  10  20  34  52  77 112 152 190 230 283 347
#     4   9  19  37  58  75  97 140 194 238 278 331
#     4   9  18  33  54  83 115 147 186 230 281 342
#     4  10  19  32  52  78 114 152 186 225 277 341
#
# _framework density 18.933102999999999
#
# number of rings (size 3 to 8) (size 9 to 14) (size 15 to 20)
#    0.000    1.923    1.538    3.231    2.154    4.615 
#    0.000    1.538    0.000    0.923    0.000    2.154 
#    0.000    0.000    0.000    0.000    0.000    0.000 
#
# Total GULP energy -644459.331915 kJ/mol
# GULP energy per Si atom -12393.448691 kJ/mol
# Density = 1.889001 g / cm^3
# Si number density = 18.933103 Si / 1000 Ang^3
#
#
#
# Elastic Constant Matrix: (Units=GPa)
#
#
# Indices 1 2 3 4 5 6 
#
# 1 55.7342 29.8012 25.1407 0.0000 0.0000 0.0000
# 2 29.8012 157.3761 54.7002 0.0000 0.0000 0.0000
# 3 25.1407 54.7002 86.1388 0.0000 0.0000 0.0000
# 4 0.0000 0.0000 0.0000 27.9004 0.0000 0.0000
# 5 0.0000 0.0000 0.0000 0.0000 23.6502 0.0000
# 6 0.0000 0.0000 0.0000 0.0000 0.0000 26.6251
#
#
#
# Elastic Compliance Matrix: (Units=1/GPa)
#
#
# Indices 1 2 3 4 5 6 
#
# 1 0.021351 -0.002409 -0.004702 0.000000 0.000000 0.000000
# 2 -0.002409 0.008426 -0.004647 0.000000 0.000000 0.000000
# 3 -0.004702 -0.004647 0.015933 0.000000 0.000000 0.000000
# 4 0.000000 0.000000 0.000000 0.035842 0.000000 0.000000
# 5 0.000000 0.000000 0.000000 0.000000 0.042283 0.000000
# 6 0.000000 0.000000 0.000000 0.000000 0.000000 0.037559
#
#
# Mechanical properties :
#
#
# Convention : Reuss Voigt Hill
#
# Bulk Modulus (GPa) = 45.05890 57.61481 51.33686
# Shear Modulus (GPa) = 26.00005 28.27560 27.13783
#
# Velocity S-wave (km/s) = 3.70977 3.86871 3.79007
# Velocity P-wave (km/s) = 6.49619 7.10300 6.80636
#
# Compressibility (1/GPa) = 0.02219317
#
# Stress axis : x y z
#
# Youngs Moduli (GPa) = 46.83563 118.68436 62.76379
#
# Poissons Ratio (x) = 0.28589 0.29511
# Poissons Ratio (y) = 0.11282 0.29169
# Poissons Ratio (z) = 0.22022 0.55158
#
# Static dielectric constant tensor:
#      x y z
#    x 3.380420 0.000000 0.000000 
#    y 0.000000 3.794710 0.000000 
#    z 0.000000 0.000000 3.172880 
# 
# 
# High freq. dielectric constant tensor:
#      x y z
#    x 1.732270 0.000000 0.000000 
#    y 0.000000 1.750690 0.000000 
#    z 0.000000 0.000000 1.693690 
# 
# From -- ./inp_files/50910.got.cif
#   From: 2010.06.25/outbox.cif.g09.slc.cpg/sg71_26_cif.got.tgz:50910.got - 2010.06.28 04:59:45.
