data_PCOD8288796
_publ_section_title
;
Structure prediction by ZEFSAII (Michael W. Deem and Ramdas Pophale) SiO2 
 PCOD8288796
Probable space group: I M M M
;
_chemical_formula_sum "Si O2"
_cell_formula_units_Z 104
_cell_length_a 23.730960
_cell_length_b 27.768983
_cell_length_c 7.992395
_cell_angle_alpha 90.000000
_cell_angle_beta 90.000000
_cell_angle_gamma 90.000000
_cell_volume 5266.865420
_symmetry_space_group_name_H-M "I M M M"
_symmetry_group_IT_number 71
_symmetry_cell_setting 'orthorhombic'
loop_
_space_group_symop_operation_xyz
x,y,z
-x,-y,z
x,-y,-z
-x,y,-z
-x,-y,-z
x,y,-z
-x,y,z
x,-y,z
1/2+x,1/2+y,1/2+z
1/2-x,1/2-y,1/2+z
1/2+x,1/2-y,1/2-z
1/2-x,1/2+y,1/2-z
1/2-x,1/2-y,1/2-z
1/2+x,1/2+y,1/2-z
1/2-x,1/2+y,1/2+z
1/2+x,1/2-y,1/2+z
loop_
_atom_site_type_symbol
_atom_site_label
_atom_site_fract_x
_atom_site_fract_y
_atom_site_fract_z
Si Si1 0.932940 0.947182 0.500000
Si Si2 0.335503 0.945492 0.301596
Si Si3 0.065490 0.887188 0.186932
Si Si4 0.765978 0.640585 0.696333
Si Si5 0.363450 0.205756 0.691347
Si Si6 0.845888 0.809790 0.191534
Si Si7 0.563221 0.879073 0.300217
O O1 0.911096 0.922630 0.670449
O O2 0.000000 0.948856 0.500000
O O3 0.906491 0.000000 0.500000
O O4 0.334405 0.946296 0.500000
O O5 0.281316 0.915012 0.237820
O O6 0.394013 0.920918 0.237659
O O7 0.332071 0.000000 0.230151
O O8 0.094749 0.836079 0.212365
O O9 0.000000 0.877420 0.211285
O O10 0.078328 0.908223 0.000000
O O11 0.773185 0.649235 0.500000
O O12 0.806751 0.675274 0.798603
O O13 0.703675 0.655583 0.762654
O O14 0.378930 0.216187 0.500000
O O15 0.353539 0.257619 0.782347
O O16 0.414085 0.172899 0.767907
O O17 0.829896 0.800177 0.000000
O O18 0.563008 0.878568 0.500000
O O19 0.500000 0.888370 0.230521
#
# Coordination Sequence:
#
# PCOD8288796 Si02
#       7
#     8  16  16  16  16  16  16
#     4   9  18  34  54  76 102 132 170 210 250 306
#     4   9  18  33  51  70  95 128 166 208 254 303
#     4   9  18  34  54  77 106 136 169 213 264 316
#     4  10  19  32  49  70  99 129 166 210 251 302
#     4   9  17  31  49  71 100 130 166 207 246 297
#     4   9  18  32  50  73 100 132 168 205 252 306
#     4   8  14  25  45  74 101 124 156 201 247 291
#
# _framework density 19.746089999999999
#
# number of rings (size 3 to 8) (size 9 to 14) (size 15 to 20)
#    0.000    3.000    0.000    1.846    0.000    1.538 
#    4.154    6.923    0.000   10.154    0.000    4.308 
#    0.000    0.000    0.000    0.000    0.000    0.000 
#
# Total GULP energy -644271.135715 kJ/mol
# GULP energy per Si atom -12389.829533 kJ/mol
# Density = 1.970115 g / cm^3
# Si number density = 19.746090 Si / 1000 Ang^3
#
#
#
# Elastic Constant Matrix: (Units=GPa)
#
#
# Indices 1 2 3 4 5 6 
#
# 1 74.7821 65.1378 12.4775 0.0000 0.0000 0.0000
# 2 65.1378 184.4209 29.2948 0.0000 0.0000 0.0000
# 3 12.4775 29.2948 43.2211 0.0000 0.0000 0.0000
# 4 0.0000 0.0000 0.0000 20.5790 0.0000 0.0000
# 5 0.0000 0.0000 0.0000 0.0000 16.2478 0.0000
# 6 0.0000 0.0000 0.0000 0.0000 0.0000 20.8513
#
#
#
# Elastic Compliance Matrix: (Units=1/GPa)
#
#
# Indices 1 2 3 4 5 6 
#
# 1 0.019358 -0.006668 -0.001069 0.000000 0.000000 0.000000
# 2 -0.006668 0.008373 -0.003750 0.000000 0.000000 0.000000
# 3 -0.001069 -0.003750 0.025988 0.000000 0.000000 0.000000
# 4 0.000000 0.000000 0.000000 0.048593 0.000000 0.000000
# 5 0.000000 0.000000 0.000000 0.000000 0.061547 0.000000
# 6 0.000000 0.000000 0.000000 0.000000 0.000000 0.047959
#
#
# Mechanical properties :
#
#
# Convention : Reuss Voigt Hill
#
# Bulk Modulus (GPa) = 32.52621 57.36047 44.94334
# Shear Modulus (GPa) = 20.40483 24.56989 22.48736
#
# Velocity S-wave (km/s) = 3.21808 3.53128 3.37831
# Velocity P-wave (km/s) = 5.50600 6.76304 6.16663
#
# Compressibility (1/GPa) = 0.03074444
#
# Stress axis : x y z
#
# Youngs Moduli (GPa) = 51.65759 119.43023 38.47998
#
# Poissons Ratio (x) = 0.79630 0.04115
# Poissons Ratio (y) = 0.34443 0.14431
# Poissons Ratio (z) = 0.05524 0.44791
#
# Static dielectric constant tensor:
#      x y z
#    x 3.630120 0.000000 0.000000 
#    y 0.000000 3.879310 0.000000 
#    z 0.000000 0.000000 3.395020 
# 
# 
# High freq. dielectric constant tensor:
#      x y z
#    x 1.757210 0.000000 0.000000 
#    y 0.000000 1.769340 0.000000 
#    z 0.000000 0.000000 1.740910 
# 
# From -- ./inp_files/13294.got.cif
#   From: 2010.06.25/outbox.cif.g09.slc.cpg/sg71_7_cif.got.tgz:13294.got - 2010.06.28 04:59:45.
