data_PCOD8288214
_publ_section_title
;
Structure prediction by ZEFSAII (Michael W. Deem and Ramdas Pophale) SiO2 
 PCOD8288214
Probable space group: I M M M
;
_chemical_formula_sum "Si O2"
_cell_formula_units_Z 80
_cell_length_a 27.599236
_cell_length_b 13.522998
_cell_length_c 14.107090
_cell_angle_alpha 90.000000
_cell_angle_beta 90.000000
_cell_angle_gamma 90.000000
_cell_volume 5265.110388
_symmetry_space_group_name_H-M "I M M M"
_symmetry_group_IT_number 71
_symmetry_cell_setting 'orthorhombic'
loop_
_space_group_symop_operation_xyz
x,y,z
-x,-y,z
x,-y,-z
-x,y,-z
-x,-y,-z
x,y,-z
-x,y,z
x,-y,z
1/2+x,1/2+y,1/2+z
1/2-x,1/2-y,1/2+z
1/2+x,1/2-y,1/2-z
1/2-x,1/2+y,1/2-z
1/2-x,1/2-y,1/2-z
1/2+x,1/2+y,1/2-z
1/2-x,1/2+y,1/2+z
1/2+x,1/2-y,1/2+z
loop_
_atom_site_type_symbol
_atom_site_label
_atom_site_fract_x
_atom_site_fract_y
_atom_site_fract_z
Si Si1 0.446747 0.116780 0.782778
Si Si2 0.241569 0.385313 0.708775
Si Si3 0.644077 0.117137 0.104840
Si Si4 0.213390 0.712633 0.891017
Si Si5 0.112316 0.612303 0.105525
O O1 0.500000 0.163663 0.802109
O O2 0.406551 0.160514 0.854696
O O3 0.430506 0.143548 0.676024
O O4 0.450123 0.000000 0.795706
O O5 0.252818 0.500000 0.693372
O O6 0.188105 0.353061 0.673113
O O7 0.244956 0.357281 0.820372
O O8 0.280320 0.325450 0.645189
O O9 0.640563 0.000000 0.100111
O O10 0.652659 0.161454 0.000000
O O11 0.157248 0.685426 0.882785
O O12 0.231328 0.699903 0.000000
O O13 0.130376 0.500000 0.128316
O O14 0.090700 0.618684 0.000000
#
# Coordination Sequence:
#
# PCOD8288214 Si02
#       5
#    16  16  16  16  16
#     4   9  16  25  37  55  79 107 141 177 210 248
#     4  10  19  31  45  63  89 118 146 177 214 255
#     4   9  16  26  39  54  77 110 142 170 204 246
#     4  10  19  29  45  66  85 113 150 180 211 256
#     4   9  16  27  42  59  83 113 142 173 211 254
#
# _framework density 15.194362999999999
#
# number of rings (size 3 to 8) (size 9 to 14) (size 15 to 20)
#    0.000    2.600    2.000    1.200    0.000    3.200 
#    0.000    4.000    0.000    0.000    0.000    0.000 
#    0.000    0.800    0.000    4.400    0.000   11.600 
#
# Total GULP energy -495719.268958 kJ/mol
# GULP energy per Si atom -12392.981724 kJ/mol
# Density = 1.515978 g / cm^3
# Si number density = 15.194363 Si / 1000 Ang^3
#
#
#
# Elastic Constant Matrix: (Units=GPa)
#
#
# Indices 1 2 3 4 5 6 
#
# 1 61.4672 30.5716 25.2618 0.0000 0.0000 0.0000
# 2 30.5716 52.3314 24.6232 0.0000 0.0000 0.0000
# 3 25.2618 24.6232 112.0068 0.0000 0.0000 0.0000
# 4 0.0000 0.0000 0.0000 14.5118 0.0000 0.0000
# 5 0.0000 0.0000 0.0000 0.0000 19.5807 0.0000
# 6 0.0000 0.0000 0.0000 0.0000 0.0000 12.7973
#
#
#
# Elastic Compliance Matrix: (Units=1/GPa)
#
#
# Indices 1 2 3 4 5 6 
#
# 1 0.023569 -0.012567 -0.002553 0.000000 0.000000 0.000000
# 2 -0.012567 0.028015 -0.003324 0.000000 0.000000 0.000000
# 3 -0.002553 -0.003324 0.010235 0.000000 0.000000 0.000000
# 4 0.000000 0.000000 0.000000 0.068909 0.000000 0.000000
# 5 0.000000 0.000000 0.000000 0.000000 0.051071 0.000000
# 6 0.000000 0.000000 0.000000 0.000000 0.000000 0.078142
#
#
# Mechanical properties :
#
#
# Convention : Reuss Voigt Hill
#
# Bulk Modulus (GPa) = 40.11384 42.96873 41.54129
# Shear Modulus (GPa) = 16.38601 19.06788 17.72694
#
# Velocity S-wave (km/s) = 3.28750 3.54634 3.41937
# Velocity P-wave (km/s) = 6.39281 6.71636 6.55658
#
# Compressibility (1/GPa) = 0.02492905
#
# Stress axis : x y z
#
# Youngs Moduli (GPa) = 42.42936 35.69531 97.70789
#
# Poissons Ratio (x) = 0.44860 0.24943
# Poissons Ratio (y) = 0.53323 0.32481
# Poissons Ratio (z) = 0.10832 0.11866
#
# Static dielectric constant tensor:
#      x y z
#    x 2.939760 0.000000 0.000000 
#    y 0.000000 2.560920 0.000000 
#    z 0.000000 0.000000 3.299110 
# 
# 
# High freq. dielectric constant tensor:
#      x y z
#    x 1.565040 0.000000 0.000000 
#    y 0.000000 1.522010 0.000000 
#    z 0.000000 0.000000 1.606570 
# 
# From -- ./inp_files/21866.got.cif
#   From: 2010.06.25/outbox.cif.g09.slc.cpg/sg71_11_cif.got.tgz:21866.got - 2010.06.28 04:59:45.
