data_PCOD8288384
_publ_section_title
;
Structure prediction by ZEFSAII (Michael W. Deem and Ramdas Pophale) SiO2 
 PCOD8288384
Probable space group: I M M M
;
_chemical_formula_sum "Si O2"
_cell_formula_units_Z 96
_cell_length_a 18.695557
_cell_length_b 12.766886
_cell_length_c 22.046536
_cell_angle_alpha 90.000000
_cell_angle_beta 90.000000
_cell_angle_gamma 90.000000
_cell_volume 5262.156389
_symmetry_space_group_name_H-M "I M M M"
_symmetry_group_IT_number 71
_symmetry_cell_setting 'orthorhombic'
loop_
_space_group_symop_operation_xyz
x,y,z
-x,-y,z
x,-y,-z
-x,y,-z
-x,-y,-z
x,y,-z
-x,y,z
x,-y,z
1/2+x,1/2+y,1/2+z
1/2-x,1/2-y,1/2+z
1/2+x,1/2-y,1/2-z
1/2-x,1/2+y,1/2-z
1/2-x,1/2-y,1/2-z
1/2+x,1/2+y,1/2-z
1/2-x,1/2+y,1/2+z
1/2+x,1/2-y,1/2+z
loop_
_atom_site_type_symbol
_atom_site_label
_atom_site_fract_x
_atom_site_fract_y
_atom_site_fract_z
Si Si1 0.415685 0.500000 0.274700
Si Si2 0.309364 0.619677 0.430749
Si Si3 0.583578 0.705117 0.654278
Si Si4 0.158930 0.380969 0.373781
Si Si5 0.582312 0.120387 0.750255
Si Si6 0.580851 0.697740 0.930770
Si Si7 0.585769 0.500000 0.860015
O O1 0.500000 0.500000 0.268639
O O2 0.389855 0.604173 0.308158
O O3 0.382874 0.500000 0.207568
O O4 0.288468 0.649871 0.500000
O O5 0.337411 0.500000 0.429015
O O6 0.371497 0.699305 0.408188
O O7 0.243219 0.632461 0.384481
O O8 0.500000 0.700464 0.638017
O O9 0.602388 0.809020 0.692315
O O10 0.134746 0.500000 0.387367
O O11 0.135208 0.350015 0.305487
O O12 0.120756 0.306776 0.421797
O O13 0.500000 0.142691 0.770155
O O14 0.592391 0.000000 0.730655
O O15 0.500000 0.715601 0.909376
O O16 0.616339 0.604061 0.892156
O O17 0.585400 0.662956 0.000000
O O18 0.500000 0.500000 0.864256
#
# Coordination Sequence:
#
# PCOD8288384 Si02
#       7
#     8  16  16  16  16  16   8
#     4   9  16  27  47  75  99 120 154 207 262 311
#     4  10  21  36  53  75 107 143 175 215 267 315
#     4  10  19  33  55  81 105 131 170 218 269 323
#     4  10  20  34  52  75 103 140 177 213 257 313
#     4   9  18  33  54  79 108 139 170 210 261 313
#     4  10  19  30  47  71 100 137 180 221 256 299
#     4   9  17  30  47  69 100 135 170 209 260 311
#
# _framework density 18.243471
#
# number of rings (size 3 to 8) (size 9 to 14) (size 15 to 20)
#    0.000    2.333    0.833    2.250    0.000    6.667 
#    0.000    1.667    1.833    0.500    0.000    2.333 
#    0.000    0.000    0.000    0.000    0.000    0.000 
#
# Total GULP energy -595139.719286 kJ/mol
# GULP energy per Si atom -12398.744152 kJ/mol
# Density = 1.820195 g / cm^3
# Si number density = 18.243471 Si / 1000 Ang^3
#
#
#
# Elastic Constant Matrix: (Units=GPa)
#
#
# Indices 1 2 3 4 5 6 
#
# 1 67.4186 32.0275 46.1490 0.0000 0.0000 0.0000
# 2 32.0275 86.1116 38.2188 0.0000 0.0000 0.0000
# 3 46.1490 38.2188 89.7159 0.0000 0.0000 0.0000
# 4 0.0000 0.0000 0.0000 29.6897 0.0000 0.0000
# 5 0.0000 0.0000 0.0000 0.0000 28.7199 0.0000
# 6 0.0000 0.0000 0.0000 0.0000 0.0000 19.0956
#
#
#
# Elastic Compliance Matrix: (Units=1/GPa)
#
#
# Indices 1 2 3 4 5 6 
#
# 1 0.024103 -0.004269 -0.010580 0.000000 0.000000 0.000000
# 2 -0.004269 0.015077 -0.004227 0.000000 0.000000 0.000000
# 3 -0.010580 -0.004227 0.018389 0.000000 0.000000 0.000000
# 4 0.000000 0.000000 0.000000 0.033682 0.000000 0.000000
# 5 0.000000 0.000000 0.000000 0.000000 0.034819 0.000000
# 6 0.000000 0.000000 0.000000 0.000000 0.000000 0.052368
#
#
# Mechanical properties :
#
#
# Convention : Reuss Voigt Hill
#
# Bulk Modulus (GPa) = 51.49971 52.89298 52.19634
# Shear Modulus (GPa) = 22.41553 23.95776 23.18664
#
# Velocity S-wave (km/s) = 3.50907 3.62777 3.56891
# Velocity P-wave (km/s) = 6.68644 6.82667 6.75692
#
# Compressibility (1/GPa) = 0.01941758
#
# Stress axis : x y z
#
# Youngs Moduli (GPa) = 41.48942 66.32836 54.38076
#
# Poissons Ratio (x) = 0.28315 0.57532
# Poissons Ratio (y) = 0.17712 0.22985
# Poissons Ratio (z) = 0.43894 0.28035
#
# Static dielectric constant tensor:
#      x y z
#    x 3.120070 0.000000 0.000000 
#    y 0.000000 3.416710 0.000000 
#    z 0.000000 0.000000 3.301460 
# 
# 
# High freq. dielectric constant tensor:
#      x y z
#    x 1.678040 0.000000 0.000000 
#    y 0.000000 1.706420 0.000000 
#    z 0.000000 0.000000 1.701200 
# 
# From -- ./inp_files/27447.got.cif
#   From: 2010.06.25/outbox.cif.g09.slc.cpg/sg71_14_cif.got.tgz:27447.got - 2010.06.28 04:59:45.
