data_PCOD8288241
_publ_section_title
;
Structure prediction by ZEFSAII (Michael W. Deem and Ramdas Pophale) SiO2 
 PCOD8288241
Probable space group: I M M M
;
_chemical_formula_sum "Si O2"
_cell_formula_units_Z 120
_cell_length_a 13.469952
_cell_length_b 24.369931
_cell_length_c 22.059837
_cell_angle_alpha 90.000000
_cell_angle_beta 90.000000
_cell_angle_gamma 90.000000
_cell_volume 7241.401819
_symmetry_space_group_name_H-M "I M M M"
_symmetry_group_IT_number 71
_symmetry_cell_setting 'orthorhombic'
loop_
_space_group_symop_operation_xyz
x,y,z
-x,-y,z
x,-y,-z
-x,y,-z
-x,-y,-z
x,y,-z
-x,y,z
x,-y,z
1/2+x,1/2+y,1/2+z
1/2-x,1/2-y,1/2+z
1/2+x,1/2-y,1/2-z
1/2-x,1/2+y,1/2-z
1/2-x,1/2-y,1/2-z
1/2+x,1/2+y,1/2-z
1/2-x,1/2+y,1/2+z
1/2+x,1/2-y,1/2+z
loop_
_atom_site_type_symbol
_atom_site_label
_atom_site_fract_x
_atom_site_fract_y
_atom_site_fract_z
Si Si1 0.114463 0.245756 0.376529
Si Si2 0.383957 0.644305 0.672683
Si Si3 0.885396 0.935177 0.500000
Si Si4 0.612572 0.190368 0.625286
Si Si5 0.615709 0.562888 0.774080
Si Si6 0.796137 0.202883 0.069274
Si Si7 0.694884 0.627094 0.885969
Si Si8 0.113191 0.248136 0.756511
O O1 0.180348 0.281118 0.422840
O O2 0.126555 0.181094 0.388861
O O3 0.160712 0.259555 0.309504
O O4 0.000000 0.262898 0.385304
O O5 0.500000 0.653005 0.658892
O O6 0.363714 0.586958 0.706783
O O7 0.325109 0.649108 0.608978
O O8 0.341548 0.692623 0.715801
O O9 0.832300 0.912335 0.440762
O O10 0.000000 0.917481 0.500000
O O11 0.873543 0.000000 0.500000
O O12 0.500000 0.171537 0.610852
O O13 0.634422 0.246138 0.588726
O O14 0.688820 0.142669 0.607018
O O15 0.625901 0.201341 0.697394
O O16 0.500000 0.569168 0.791202
O O17 0.649427 0.500000 0.773164
O O18 0.679425 0.595127 0.823434
O O19 0.816096 0.187654 0.000000
O O20 0.000000 0.235369 0.741212
#
# Coordination Sequence:
#
# PCOD8288241 Si02
#       8
#    16  16   8  16  16  16  16  16
#     4  10  19  29  47  73 106 132 156 193 239 295
#     4   9  17  30  48  69  95 125 160 202 242 283
#     4  11  24  40  53  69  97 131 172 214 248 291
#     4   9  20  33  49  73 102 129 164 202 233 283
#     4  10  19  32  52  77  98 118 154 204 254 298
#     4  10  21  31  45  70  98 137 172 191 232 289
#     4  11  21  32  53  73  96 132 167 198 248 290
#     4   8  14  28  46  69  97 129 155 184 237 290
#
# _framework density 16.571376999999998
#
# number of rings (size 3 to 8) (size 9 to 14) (size 15 to 20)
#    0.000    2.333    1.333    2.800    5.600    4.000 
#    0.000    0.000    0.000    2.400    0.000    1.867 
#    0.000    0.000    0.000    1.200    0.000    0.000 
#
# Total GULP energy -743814.539365 kJ/mol
# GULP energy per Si atom -12396.908989 kJ/mol
# Density = 1.653366 g / cm^3
# Si number density = 16.571377 Si / 1000 Ang^3
#
#
#
# Elastic Constant Matrix: (Units=GPa)
#
#
# Indices 1 2 3 4 5 6 
#
# 1 93.1337 25.1677 25.9363 0.0000 0.0000 0.0000
# 2 25.1677 49.3308 23.5526 0.0000 0.0000 0.0000
# 3 25.9363 23.5526 96.7834 0.0000 0.0000 0.0000
# 4 0.0000 0.0000 0.0000 18.1937 0.0000 0.0000
# 5 0.0000 0.0000 0.0000 0.0000 19.3623 0.0000
# 6 0.0000 0.0000 0.0000 0.0000 0.0000 18.9869
#
#
#
# Elastic Compliance Matrix: (Units=1/GPa)
#
#
# Indices 1 2 3 4 5 6 
#
# 1 0.012816 -0.005543 -0.002086 0.000000 0.000000 0.000000
# 2 -0.005543 0.025333 -0.004680 0.000000 0.000000 0.000000
# 3 -0.002086 -0.004680 0.012030 0.000000 0.000000 0.000000
# 4 0.000000 0.000000 0.000000 0.054964 0.000000 0.000000
# 5 0.000000 0.000000 0.000000 0.000000 0.051647 0.000000
# 6 0.000000 0.000000 0.000000 0.000000 0.000000 0.052668
#
#
# Mechanical properties :
#
#
# Convention : Reuss Voigt Hill
#
# Bulk Modulus (GPa) = 39.11830 43.17343 41.14587
# Shear Modulus (GPa) = 20.61049 22.28134 21.44591
#
# Velocity S-wave (km/s) = 3.53050 3.67081 3.60134
# Velocity P-wave (km/s) = 6.34637 6.63898 6.49432
#
# Compressibility (1/GPa) = 0.02556348
#
# Stress axis : x y z
#
# Youngs Moduli (GPa) = 78.02830 39.47368 83.12509
#
# Poissons Ratio (x) = 0.21879 0.17337
# Poissons Ratio (y) = 0.43248 0.38899
# Poissons Ratio (z) = 0.16274 0.18472
#
# Static dielectric constant tensor:
#      x y z
#    x 3.095780 0.000000 0.000000 
#    y 0.000000 2.835000 0.000000 
#    z 0.000000 0.000000 3.196350 
# 
# 
# High freq. dielectric constant tensor:
#      x y z
#    x 1.636650 0.000000 0.000000 
#    y 0.000000 1.593720 0.000000 
#    z 0.000000 0.000000 1.641030 
# 
# From -- ./inp_files/53521.got.cif
#   From: 2010.06.25/outbox.cif.g09.slc.cpg/sg71_27_cif.got.tgz:53521.got - 2010.06.28 04:59:45.
