data_PCOD8288219
_publ_section_title
;
Structure prediction by ZEFSAII (Michael W. Deem and Ramdas Pophale) SiO2 
 PCOD8288219
Probable space group: I M M M
;
_chemical_formula_sum "Si O2"
_cell_formula_units_Z 96
_cell_length_a 19.670016
_cell_length_b 12.270653
_cell_length_c 24.041531
_cell_angle_alpha 90.000000
_cell_angle_beta 90.000000
_cell_angle_gamma 90.000000
_cell_volume 5802.758666
_symmetry_space_group_name_H-M "I M M M"
_symmetry_group_IT_number 71
_symmetry_cell_setting 'orthorhombic'
loop_
_space_group_symop_operation_xyz
x,y,z
-x,-y,z
x,-y,-z
-x,y,-z
-x,-y,-z
x,y,-z
-x,y,z
x,-y,z
1/2+x,1/2+y,1/2+z
1/2-x,1/2-y,1/2+z
1/2+x,1/2-y,1/2-z
1/2-x,1/2+y,1/2-z
1/2-x,1/2-y,1/2-z
1/2+x,1/2+y,1/2-z
1/2-x,1/2+y,1/2+z
1/2+x,1/2-y,1/2+z
loop_
_atom_site_type_symbol
_atom_site_label
_atom_site_fract_x
_atom_site_fract_y
_atom_site_fract_z
Si Si1 0.218479 0.372296 0.562156
Si Si2 0.189599 0.125745 0.272386
Si Si3 0.573310 0.124142 0.091219
Si Si4 0.575230 0.207225 0.789924
Si Si5 0.795011 0.755098 0.160738
Si Si6 0.922536 0.623992 0.829039
O O1 0.247861 0.355505 0.500000
O O2 0.220126 0.500000 0.579089
O O3 0.140419 0.326619 0.562088
O O4 0.262946 0.302817 0.604800
O O5 0.124964 0.191056 0.294271
O O6 0.202434 0.150114 0.207174
O O7 0.253043 0.156184 0.311670
O O8 0.173788 0.000000 0.279673
O O9 0.500000 0.180562 0.074730
O O10 0.584815 0.130122 0.157228
O O11 0.567778 0.000000 0.072840
O O12 0.500000 0.257617 0.786735
O O13 0.589956 0.131071 0.737086
O O14 0.869080 0.707631 0.142886
O O15 0.909016 0.500000 0.848265
O O16 0.000000 0.658402 0.844673
#
# Coordination Sequence:
#
# PCOD8288219 Si02
#       6
#    16  16  16  16  16  16
#     4  10  20  33  50  71  96 127 162 199 238 280
#     4  10  19  29  45  69  96 127 160 194 233 281
#     4   9  16  27  45  69  97 127 160 196 231 268
#     4   9  16  27  43  68 100 131 158 187 229 276
#     4  10  19  32  47  70  96 126 155 196 242 292
#     4   9  17  29  48  73  98 123 153 192 241 295
#
# _framework density 16.543855000000001
#
# number of rings (size 3 to 8) (size 9 to 14) (size 15 to 20)
#    0.000    2.500    1.667    1.500    0.000    2.667 
#    0.000    1.667    0.000    4.000    0.000    2.333 
#    0.000    2.667    0.000    0.000    0.000    0.000 
#
# Total GULP energy -594809.039804 kJ/mol
# GULP energy per Si atom -12391.854996 kJ/mol
# Density = 1.650620 g / cm^3
# Si number density = 16.543855 Si / 1000 Ang^3
#
#
#
# Elastic Constant Matrix: (Units=GPa)
#
#
# Indices 1 2 3 4 5 6 
#
# 1 116.8937 41.7560 39.7195 0.0000 0.0000 0.0000
# 2 41.7560 63.2862 19.0494 0.0000 0.0000 0.0000
# 3 39.7195 19.0494 66.5668 0.0000 0.0000 0.0000
# 4 0.0000 0.0000 0.0000 13.9694 0.0000 0.0000
# 5 0.0000 0.0000 0.0000 0.0000 16.8302 0.0000
# 6 0.0000 0.0000 0.0000 0.0000 0.0000 23.7656
#
#
#
# Elastic Compliance Matrix: (Units=1/GPa)
#
#
# Indices 1 2 3 4 5 6 
#
# 1 0.012949 -0.006804 -0.005779 0.000000 0.000000 0.000000
# 2 -0.006804 0.020866 -0.001911 0.000000 0.000000 0.000000
# 3 -0.005779 -0.001911 0.019018 0.000000 0.000000 0.000000
# 4 0.000000 0.000000 0.000000 0.071585 0.000000 0.000000
# 5 0.000000 0.000000 0.000000 0.000000 0.059417 0.000000
# 6 0.000000 0.000000 0.000000 0.000000 0.000000 0.042078
#
#
# Mechanical properties :
#
#
# Convention : Reuss Voigt Hill
#
# Bulk Modulus (GPa) = 41.94046 49.75516 45.84781
# Shear Modulus (GPa) = 19.02229 20.66119 19.84174
#
# Velocity S-wave (km/s) = 3.39456 3.53777 3.46691
# Velocity P-wave (km/s) = 6.38515 6.84308 6.61808
#
# Compressibility (1/GPa) = 0.02384333
#
# Stress axis : x y z
#
# Youngs Moduli (GPa) = 77.22542 47.92515 52.58196
#
# Poissons Ratio (x) = 0.32609 0.30389
# Poissons Ratio (y) = 0.52545 0.10050
# Poissons Ratio (z) = 0.44632 0.09160
#
# Static dielectric constant tensor:
#      x y z
#    x 3.467290 0.000000 0.000000 
#    y 0.000000 2.793090 0.000000 
#    z 0.000000 0.000000 2.869880 
# 
# 
# High freq. dielectric constant tensor:
#      x y z
#    x 1.652680 0.000000 0.000000 
#    y 0.000000 1.604430 0.000000 
#    z 0.000000 0.000000 1.608480 
# 
# From -- ./inp_files/24241.got.cif
#   From: 2010.06.25/outbox.cif.g09.slc.cpg/sg71_13_cif.got.tgz:24241.got - 2010.06.28 04:59:45.
