data_PCOD8288048
_publ_section_title
;
Structure prediction by ZEFSAII (Michael W. Deem and Ramdas Pophale) SiO2 
 PCOD8288048
Probable space group: I M M M
;
_chemical_formula_sum "Si O2"
_cell_formula_units_Z 96
_cell_length_a 25.132223
_cell_length_b 23.690073
_cell_length_c 8.789224
_cell_angle_alpha 90.000000
_cell_angle_beta 90.000000
_cell_angle_gamma 90.000000
_cell_volume 5232.965078
_symmetry_space_group_name_H-M "I M M M"
_symmetry_group_IT_number 71
_symmetry_cell_setting 'orthorhombic'
loop_
_space_group_symop_operation_xyz
x,y,z
-x,-y,z
x,-y,-z
-x,y,-z
-x,-y,-z
x,y,-z
-x,y,z
x,-y,z
1/2+x,1/2+y,1/2+z
1/2-x,1/2-y,1/2+z
1/2+x,1/2-y,1/2-z
1/2-x,1/2+y,1/2-z
1/2-x,1/2-y,1/2-z
1/2+x,1/2+y,1/2-z
1/2-x,1/2+y,1/2+z
1/2+x,1/2-y,1/2+z
loop_
_atom_site_type_symbol
_atom_site_label
_atom_site_fract_x
_atom_site_fract_y
_atom_site_fract_z
Si Si1 0.252807 0.688884 0.820172
Si Si2 0.061352 0.179602 0.677818
Si Si3 0.848449 0.619936 0.819413
Si Si4 0.654365 0.619125 0.677422
Si Si5 0.439344 0.797923 0.321823
Si Si6 0.183686 0.500000 0.180314
Si Si7 0.202181 0.000000 0.175216
O O1 0.250000 0.750000 0.750000
O O2 0.202881 0.653170 0.757094
O O3 0.306763 0.659212 0.770822
O O4 0.251126 0.694048 0.000000
O O5 0.073052 0.174895 0.500000
O O6 0.094709 0.132475 0.767610
O O7 0.077940 0.241967 0.732658
O O8 0.000000 0.168054 0.717170
O O9 0.902278 0.650708 0.763864
O O10 0.846055 0.555806 0.755084
O O11 0.846735 0.618540 0.000000
O O12 0.660534 0.632418 0.500000
O O13 0.666422 0.554110 0.714951
O O14 0.430899 0.785971 0.500000
O O15 0.500000 0.815025 0.285265
O O16 0.245283 0.500000 0.224144
O O17 0.181551 0.500000 0.000000
O O18 0.220011 0.000000 0.000000
#
# Coordination Sequence:
#
# PCOD8288048 Si02
#       7
#    16  16  16  16  16   8   8
#     4  11  21  33  51  78 110 142 179 225 277 329
#     4  10  21  37  57  82 109 139 179 223 269 326
#     4   9  18  31  50  76 104 137 180 221 263 317
#     4  11  22  37  56  79 108 141 180 224 274 330
#     4   9  17  32  54  79 109 144 179 219 270 324
#     4  10  18  34  55  73 101 144 184 222 268 321
#     4  10  22  38  55  78 107 140 182 227 270 323
#
# _framework density 18.345241000000001
#
# number of rings (size 3 to 8) (size 9 to 14) (size 15 to 20)
#    0.000    2.000    1.667    2.500    0.000    3.000 
#    0.000    2.500    0.000    5.000    0.000    0.000 
#    0.000    3.333    0.000    0.000    0.000    0.000 
#
# Total GULP energy -595288.813315 kJ/mol
# GULP energy per Si atom -12401.850277 kJ/mol
# Density = 1.830349 g / cm^3
# Si number density = 18.345241 Si / 1000 Ang^3
#
#
#
# Elastic Constant Matrix: (Units=GPa)
#
#
# Indices 1 2 3 4 5 6 
#
# 1 99.8371 61.2311 21.9455 0.0000 0.0000 0.0000
# 2 61.2311 146.9243 33.8635 0.0000 0.0000 0.0000
# 3 21.9455 33.8635 45.2714 0.0000 0.0000 0.0000
# 4 0.0000 0.0000 0.0000 22.2862 0.0000 0.0000
# 5 0.0000 0.0000 0.0000 0.0000 23.5117 0.0000
# 6 0.0000 0.0000 0.0000 0.0000 0.0000 29.9425
#
#
#
# Elastic Compliance Matrix: (Units=1/GPa)
#
#
# Indices 1 2 3 4 5 6 
#
# 1 0.013759 -0.005071 -0.002876 0.000000 0.000000 0.000000
# 2 -0.005071 0.010093 -0.005092 0.000000 0.000000 0.000000
# 3 -0.002876 -0.005092 0.027292 0.000000 0.000000 0.000000
# 4 0.000000 0.000000 0.000000 0.044871 0.000000 0.000000
# 5 0.000000 0.000000 0.000000 0.000000 0.042532 0.000000
# 6 0.000000 0.000000 0.000000 0.000000 0.000000 0.033397
#
#
# Mechanical properties :
#
#
# Convention : Reuss Voigt Hill
#
# Bulk Modulus (GPa) = 39.89514 58.45699 49.17607
# Shear Modulus (GPa) = 24.22750 26.81425 25.52088
#
# Velocity S-wave (km/s) = 3.63801 3.82730 3.73385
# Velocity P-wave (km/s) = 6.28020 7.17391 6.74188
#
# Compressibility (1/GPa) = 0.02506571
#
# Stress axis : x y z
#
# Youngs Moduli (GPa) = 72.68131 99.07769 36.64095
#
# Poissons Ratio (x) = 0.50242 0.10540
# Poissons Ratio (y) = 0.36857 0.18656
# Poissons Ratio (z) = 0.20906 0.50446
#
# Static dielectric constant tensor:
#      x y z
#    x 3.382890 0.000000 0.000000 
#    y 0.000000 3.631880 0.000000 
#    z 0.000000 0.000000 3.254400 
# 
# 
# High freq. dielectric constant tensor:
#      x y z
#    x 1.711960 0.000000 0.000000 
#    y 0.000000 1.715530 0.000000 
#    z 0.000000 0.000000 1.699240 
# 
# From -- ./inp_files/12909.got.cif
#   From: 2010.06.25/outbox.cif.g09.slc.cpg/sg71_7_cif.got.tgz:12909.got - 2010.06.28 04:59:45.
