data_PCOD8288850
_publ_section_title
;
Structure prediction by ZEFSAII (Michael W. Deem and Ramdas Pophale) SiO2 
 PCOD8288850
Probable space group: I M M M
;
_chemical_formula_sum "Si O2"
_cell_formula_units_Z 88
_cell_length_a 26.971481
_cell_length_b 12.890055
_cell_length_c 13.433337
_cell_angle_alpha 90.000000
_cell_angle_beta 90.000000
_cell_angle_gamma 90.000000
_cell_volume 4670.285976
_symmetry_space_group_name_H-M "I M M M"
_symmetry_group_IT_number 71
_symmetry_cell_setting 'orthorhombic'
loop_
_space_group_symop_operation_xyz
x,y,z
-x,-y,z
x,-y,-z
-x,y,-z
-x,-y,-z
x,y,-z
-x,y,z
x,-y,z
1/2+x,1/2+y,1/2+z
1/2-x,1/2-y,1/2+z
1/2+x,1/2-y,1/2-z
1/2-x,1/2+y,1/2-z
1/2-x,1/2-y,1/2-z
1/2+x,1/2+y,1/2-z
1/2-x,1/2+y,1/2+z
1/2+x,1/2-y,1/2+z
loop_
_atom_site_type_symbol
_atom_site_label
_atom_site_fract_x
_atom_site_fract_y
_atom_site_fract_z
Si Si1 0.767746 0.117672 0.887400
Si Si2 0.000000 0.386346 0.617818
Si Si3 0.558322 0.380267 0.292685
Si Si4 0.335219 0.119377 0.203345
Si Si5 0.587631 0.741899 0.113619
Si Si6 0.139017 0.256926 0.886119
O O1 0.723465 0.138073 0.809389
O O2 0.814865 0.184795 0.857190
O O3 0.785964 0.000000 0.879804
O O4 0.749692 0.142728 0.000000
O O5 0.048170 0.325528 0.653516
O O6 0.000000 0.500000 0.667720
O O7 0.000000 0.396390 0.500000
O O8 0.500000 0.354387 0.299134
O O9 0.568008 0.500000 0.319820
O O10 0.580090 0.359741 0.181613
O O11 0.587926 0.305901 0.368647
O O12 0.360014 0.200650 0.126749
O O13 0.354906 0.143105 0.314925
O O14 0.348509 0.000000 0.176654
O O15 0.579648 0.707315 0.000000
O O16 0.140397 0.294655 0.000000
#
# Coordination Sequence:
#
# PCOD8288850 Si02
#       6
#    16   8  16  16  16  16
#     4   9  17  31  53  80 106 132 166 208 257 311
#     4   9  16  26  43  67  96 131 167 199 233 281
#     4  10  21  36  54  77 103 132 171 218 265 312
#     4  10  20  33  52  78 107 139 174 213 254 301
#     4  10  19  32  50  76 107 137 169 204 250 309
#     4  10  21  36  54  75 102 137 177 219 262 305
#
# _framework density 18.842528999999999
#
# number of rings (size 3 to 8) (size 9 to 14) (size 15 to 20)
#    0.000    2.273    0.909    2.182    0.000    4.000 
#    0.000    1.818    0.000    0.000    0.000    7.636 
#    0.000    0.000    0.000    0.000    0.000    0.000 
#
# Total GULP energy -545479.909569 kJ/mol
# GULP energy per Si atom -12397.270672 kJ/mol
# Density = 1.879964 g / cm^3
# Si number density = 18.842529 Si / 1000 Ang^3
#
#
#
# Elastic Constant Matrix: (Units=GPa)
#
#
# Indices 1 2 3 4 5 6 
#
# 1 82.7925 20.0311 12.3673 0.0000 0.0000 0.0000
# 2 20.0311 44.3254 3.9300 0.0000 0.0000 0.0000
# 3 12.3673 3.9300 73.3426 0.0000 0.0000 0.0000
# 4 0.0000 0.0000 0.0000 18.9931 0.0000 0.0000
# 5 0.0000 0.0000 0.0000 0.0000 24.1661 0.0000
# 6 0.0000 0.0000 0.0000 0.0000 0.0000 33.2119
#
#
#
# Elastic Compliance Matrix: (Units=1/GPa)
#
#
# Indices 1 2 3 4 5 6 
#
# 1 0.013850 -0.006081 -0.002010 0.000000 0.000000 0.000000
# 2 -0.006081 0.025338 -0.000332 0.000000 0.000000 0.000000
# 3 -0.002010 -0.000332 0.013991 0.000000 0.000000 0.000000
# 4 0.000000 0.000000 0.000000 0.052651 0.000000 0.000000
# 5 0.000000 0.000000 0.000000 0.000000 0.041380 0.000000
# 6 0.000000 0.000000 0.000000 0.000000 0.000000 0.030110
#
#
# Mechanical properties :
#
#
# Convention : Reuss Voigt Hill
#
# Bulk Modulus (GPa) = 27.52266 30.34636 28.93451
# Shear Modulus (GPa) = 24.23936 26.21636 25.22786
#
# Velocity S-wave (km/s) = 3.59056 3.73411 3.66304
# Velocity P-wave (km/s) = 5.64162 5.89336 5.76886
#
# Compressibility (1/GPa) = 0.03633369
#
# Stress axis : x y z
#
# Youngs Moduli (GPa) = 72.20353 39.46671 71.47296
#
# Poissons Ratio (x) = 0.23998 0.14363
# Poissons Ratio (y) = 0.43904 0.02375
# Poissons Ratio (z) = 0.14510 0.01312
#
# Static dielectric constant tensor:
#      x y z
#    x 3.493790 0.000000 0.000000 
#    y 0.000000 3.364630 0.000000 
#    z 0.000000 0.000000 3.259860 
# 
# 
# High freq. dielectric constant tensor:
#      x y z
#    x 1.741150 0.000000 0.000000 
#    y 0.000000 1.719050 0.000000 
#    z 0.000000 0.000000 1.715630 
# 
# From -- ./inp_files/22309.got.cif
#   From: 2010.06.25/outbox.cif.g09.slc.cpg/sg71_12_cif.got.tgz:22309.got - 2010.06.28 04:59:45.
