data_PCOD8288861
_publ_section_title
;
Structure prediction by ZEFSAII (Michael W. Deem and Ramdas Pophale) SiO2 
 PCOD8288861
Probable space group: I M M M
;
_chemical_formula_sum "Si O2"
_cell_formula_units_Z 104
_cell_length_a 29.495338
_cell_length_b 8.870165
_cell_length_c 22.513879
_cell_angle_alpha 90.000000
_cell_angle_beta 90.000000
_cell_angle_gamma 90.000000
_cell_volume 5890.272725
_symmetry_space_group_name_H-M "I M M M"
_symmetry_group_IT_number 71
_symmetry_cell_setting 'orthorhombic'
loop_
_space_group_symop_operation_xyz
x,y,z
-x,-y,z
x,-y,-z
-x,y,-z
-x,-y,-z
x,y,-z
-x,y,z
x,-y,z
1/2+x,1/2+y,1/2+z
1/2-x,1/2-y,1/2+z
1/2+x,1/2-y,1/2-z
1/2-x,1/2+y,1/2-z
1/2-x,1/2-y,1/2-z
1/2+x,1/2+y,1/2-z
1/2-x,1/2+y,1/2+z
1/2+x,1/2-y,1/2+z
loop_
_atom_site_type_symbol
_atom_site_label
_atom_site_fract_x
_atom_site_fract_y
_atom_site_fract_z
Si Si1 0.783011 0.169565 0.929425
Si Si2 0.446360 0.671798 0.000000
Si Si3 0.602271 0.177932 0.109415
Si Si4 0.126214 0.676543 0.932497
Si Si5 0.191816 0.824817 0.569786
Si Si6 0.551681 0.825896 0.661330
Si Si7 0.947410 0.825034 0.716125
O O1 0.829526 0.241877 0.905537
O O2 0.740205 0.265691 0.906800
O O3 0.778713 0.000000 0.905018
O O4 0.783883 0.173323 0.000000
O O5 0.428550 0.751399 0.941490
O O6 0.428662 0.500000 0.000000
O O7 0.500000 0.679353 0.000000
O O8 0.653587 0.235039 0.105187
O O9 0.582725 0.225154 0.172728
O O10 0.601322 0.000000 0.102554
O O11 0.135954 0.500000 0.929811
O O12 0.082937 0.723236 0.893628
O O13 0.116312 0.728323 0.000000
O O14 0.185312 0.793241 0.500000
O O15 0.188007 0.000000 0.584747
O O16 0.500000 0.797469 0.641427
O O17 0.564726 0.723043 0.717138
O O18 0.559397 0.000000 0.678812
O O19 0.000000 0.792491 0.702480
O O20 0.935688 0.000000 0.707189
#
# Coordination Sequence:
#
# PCOD8288861 Si02
#       7
#    16   8  16  16  16  16  16
#     4   9  17  29  47  72 103 136 172 212 253 301
#     4  11  23  37  51  71 103 139 173 213 264 315
#     4  12  23  34  52  76 103 133 171 218 264 311
#     4   9  17  30  50  78 110 141 172 206 254 310
#     4  10  19  32  51  73 102 136 171 211 259 312
#     4   9  18  33  53  77 105 137 175 217 255 299
#     4  10  21  37  55  73  97 134 178 218 258 309
#
# _framework density 17.656227999999999
#
# number of rings (size 3 to 8) (size 9 to 14) (size 15 to 20)
#    0.000    2.077    0.769    3.462    0.000    6.769 
#    0.000    1.538    0.000    0.923    0.000    4.308 
#    0.000    0.000    0.000    0.000    0.000    0.000 
#
# Total GULP energy -644961.195347 kJ/mol
# GULP energy per Si atom -12403.099911 kJ/mol
# Density = 1.761604 g / cm^3
# Si number density = 17.656228 Si / 1000 Ang^3
#
#
#
# Elastic Constant Matrix: (Units=GPa)
#
#
# Indices 1 2 3 4 5 6 
#
# 1 127.9190 64.8242 60.4030 0.0000 0.0000 0.0000
# 2 64.8242 115.1592 42.8372 0.0000 0.0000 0.0000
# 3 60.4030 42.8372 72.3667 0.0000 0.0000 0.0000
# 4 0.0000 0.0000 0.0000 22.5286 0.0000 0.0000
# 5 0.0000 0.0000 0.0000 0.0000 13.1824 0.0000
# 6 0.0000 0.0000 0.0000 0.0000 0.0000 27.7008
#
#
#
# Elastic Compliance Matrix: (Units=1/GPa)
#
#
# Indices 1 2 3 4 5 6 
#
# 1 0.014686 -0.004754 -0.009444 0.000000 0.000000 0.000000
# 2 -0.004754 0.012674 -0.003535 0.000000 0.000000 0.000000
# 3 -0.009444 -0.003535 0.023794 0.000000 0.000000 0.000000
# 4 0.000000 0.000000 0.000000 0.044388 0.000000 0.000000
# 5 0.000000 0.000000 0.000000 0.000000 0.075859 0.000000
# 6 0.000000 0.000000 0.000000 0.000000 0.000000 0.036100
#
#
# Mechanical properties :
#
#
# Convention : Reuss Voigt Hill
#
# Bulk Modulus (GPa) = 63.73932 72.39707 68.06820
# Shear Modulus (GPa) = 20.14539 22.50772 21.32656
#
# Velocity S-wave (km/s) = 3.38150 3.57427 3.47922
# Velocity P-wave (km/s) = 7.17110 7.62408 7.40106
#
# Compressibility (1/GPa) = 0.01568890
#
# Stress axis : x y z
#
# Youngs Moduli (GPa) = 68.09226 78.89899 42.02807
#
# Poissons Ratio (x) = 0.37507 0.39692
# Poissons Ratio (y) = 0.32370 0.14855
# Poissons Ratio (z) = 0.64307 0.27888
#
# Static dielectric constant tensor:
#      x y z
#    x 3.417100 0.000000 0.000000 
#    y 0.000000 3.401610 0.000000 
#    z 0.000000 0.000000 3.075850 
# 
# 
# High freq. dielectric constant tensor:
#      x y z
#    x 1.691180 0.000000 0.000000 
#    y 0.000000 1.693790 0.000000 
#    z 0.000000 0.000000 1.649660 
# 
# From -- ./inp_files/11479.got.cif
#   From: 2010.06.25/outbox.cif.g09.slc.cpg/sg71_6_cif.got.tgz:11479.got - 2010.06.28 04:59:45.
