data_PCOD8288403
_publ_section_title
;
Structure prediction by ZEFSAII (Michael W. Deem and Ramdas Pophale) SiO2 
 PCOD8288403
Probable space group: I M M M
;
_chemical_formula_sum "Si O2"
_cell_formula_units_Z 104
_cell_length_a 17.861928
_cell_length_b 13.338214
_cell_length_c 24.433698
_cell_angle_alpha 90.000000
_cell_angle_beta 90.000000
_cell_angle_gamma 90.000000
_cell_volume 5821.236143
_symmetry_space_group_name_H-M "I M M M"
_symmetry_group_IT_number 71
_symmetry_cell_setting 'orthorhombic'
loop_
_space_group_symop_operation_xyz
x,y,z
-x,-y,z
x,-y,-z
-x,y,-z
-x,-y,-z
x,y,-z
-x,y,z
x,-y,z
1/2+x,1/2+y,1/2+z
1/2-x,1/2-y,1/2+z
1/2+x,1/2-y,1/2-z
1/2-x,1/2+y,1/2-z
1/2-x,1/2-y,1/2-z
1/2+x,1/2+y,1/2-z
1/2-x,1/2+y,1/2+z
1/2+x,1/2-y,1/2+z
loop_
_atom_site_type_symbol
_atom_site_label
_atom_site_fract_x
_atom_site_fract_y
_atom_site_fract_z
Si Si1 0.500000 0.379527 0.933803
Si Si2 0.845076 0.113353 0.752542
Si Si3 0.739274 0.887201 0.440005
Si Si4 0.417109 0.194719 0.289144
Si Si5 0.418711 0.115015 0.405503
Si Si6 0.183148 0.386762 0.299580
Si Si7 0.356071 0.302533 0.134913
O O1 0.500000 0.500000 0.926045
O O2 0.572005 0.331478 0.902599
O O3 0.500000 0.354685 0.000000
O O4 0.906760 0.187895 0.776184
O O5 0.767187 0.142889 0.782068
O O6 0.845284 0.124745 0.686774
O O7 0.867330 0.000000 0.766879
O O8 0.774492 0.876498 0.500000
O O9 0.650527 0.862937 0.445533
O O10 0.781430 0.810841 0.401007
O O11 0.751934 0.000000 0.417906
O O12 0.500000 0.163373 0.271356
O O13 0.404549 0.183275 0.353165
O O14 0.362164 0.121680 0.256703
O O15 0.500000 0.140324 0.432905
O O16 0.418633 0.000000 0.386359
O O17 0.178934 0.500000 0.322455
O O18 0.145122 0.312946 0.344348
#
# Coordination Sequence:
#
# PCOD8288403 Si02
#       7
#     8  16  16  16  16  16  16
#     4  11  24  40  57  79 107 139 182 232 276 319
#     4  10  20  33  51  75 106 138 169 209 255 312
#     4  10  19  31  50  73  96 126 166 210 257 309
#     4  10  19  30  47  73 102 135 166 199 244 299
#     4   9  17  29  46  70 101 134 164 199 246 302
#     4  10  21  35  52  76 104 137 174 210 253 309
#     4  11  21  35  54  76 101 138 174 217 266 309
#
# _framework density 17.865621999999998
#
# number of rings (size 3 to 8) (size 9 to 14) (size 15 to 20)
#    0.000    1.923    0.000    6.000    4.308    5.231 
#    0.000    1.538    0.000    2.308    0.000    0.000 
#    0.000    0.000    0.000   13.231    0.000    0.308 
#
# Total GULP energy -644335.002008 kJ/mol
# GULP energy per Si atom -12391.057731 kJ/mol
# Density = 1.782496 g / cm^3
# Si number density = 17.865622 Si / 1000 Ang^3
#
#
#
# Elastic Constant Matrix: (Units=GPa)
#
#
# Indices 1 2 3 4 5 6 
#
# 1 70.7494 15.1442 29.9007 0.0000 0.0000 0.0000
# 2 15.1442 72.6478 31.9438 0.0000 0.0000 0.0000
# 3 29.9007 31.9438 70.9511 0.0000 0.0000 0.0000
# 4 0.0000 0.0000 0.0000 20.3729 0.0000 0.0000
# 5 0.0000 0.0000 0.0000 0.0000 25.5475 0.0000
# 6 0.0000 0.0000 0.0000 0.0000 0.0000 24.1889
#
#
#
# Elastic Compliance Matrix: (Units=1/GPa)
#
#
# Indices 1 2 3 4 5 6 
#
# 1 0.017212 -0.000497 -0.007030 0.000000 0.000000 0.000000
# 2 -0.000497 0.017177 -0.007524 0.000000 0.000000 0.000000
# 3 -0.007030 -0.007524 0.020444 0.000000 0.000000 0.000000
# 4 0.000000 0.000000 0.000000 0.049085 0.000000 0.000000
# 5 0.000000 0.000000 0.000000 0.000000 0.039143 0.000000
# 6 0.000000 0.000000 0.000000 0.000000 0.000000 0.041341
#
#
# Mechanical properties :
#
#
# Convention : Reuss Voigt Hill
#
# Bulk Modulus (GPa) = 40.43426 40.92508 40.67967
# Shear Modulus (GPa) = 22.44698 23.17917 22.81308
#
# Velocity S-wave (km/s) = 3.54847 3.60588 3.57729
# Velocity P-wave (km/s) = 6.28255 6.34770 6.31521
#
# Compressibility (1/GPa) = 0.02473150
#
# Stress axis : x y z
#
# Youngs Moduli (GPa) = 58.09984 58.21731 48.91353
#
# Poissons Ratio (x) = 0.02893 0.34385
# Poissons Ratio (y) = 0.02887 0.36803
# Poissons Ratio (z) = 0.40843 0.43803
#
# Static dielectric constant tensor:
#      x y z
#    x 3.523420 0.000000 0.000000 
#    y 0.000000 3.177860 0.000000 
#    z 0.000000 0.000000 3.207640 
# 
# 
# High freq. dielectric constant tensor:
#      x y z
#    x 1.707510 0.000000 0.000000 
#    y 0.000000 1.670590 0.000000 
#    z 0.000000 0.000000 1.678180 
# 
# From -- ./inp_files/60720.got.cif
#   From: 2010.06.25/outbox.cif.g09.slc.cpg/sg71_31_cif.got.tgz:60720.got - 2010.06.28 04:59:45.
