data_PCOD8288323
_publ_section_title
;
Structure prediction by ZEFSAII (Michael W. Deem and Ramdas Pophale) SiO2 
 PCOD8288323
Probable space group: I M M M
;
_chemical_formula_sum "Si O2"
_cell_formula_units_Z 104
_cell_length_a 9.066582
_cell_length_b 29.456967
_cell_length_c 22.917865
_cell_angle_alpha 90.000000
_cell_angle_beta 90.000000
_cell_angle_gamma 90.000000
_cell_volume 6120.766032
_symmetry_space_group_name_H-M "I M M M"
_symmetry_group_IT_number 71
_symmetry_cell_setting 'orthorhombic'
loop_
_space_group_symop_operation_xyz
x,y,z
-x,-y,z
x,-y,-z
-x,y,-z
-x,-y,-z
x,y,-z
-x,y,z
x,-y,z
1/2+x,1/2+y,1/2+z
1/2-x,1/2-y,1/2+z
1/2+x,1/2-y,1/2-z
1/2-x,1/2+y,1/2-z
1/2-x,1/2-y,1/2-z
1/2+x,1/2+y,1/2-z
1/2-x,1/2+y,1/2+z
1/2+x,1/2-y,1/2+z
loop_
_atom_site_type_symbol
_atom_site_label
_atom_site_fract_x
_atom_site_fract_y
_atom_site_fract_z
Si Si1 0.825877 0.103085 0.895363
Si Si2 0.828804 0.051803 0.221367
Si Si3 0.836505 0.279560 0.069187
Si Si4 0.669003 0.946319 0.000000
Si Si5 0.330306 0.191436 0.068999
Si Si6 0.825618 0.551638 0.838643
Si Si7 0.175728 0.620609 0.934990
O O1 0.783662 0.083313 0.832483
O O2 0.748465 0.071933 0.942960
O O3 0.766407 0.154146 0.897951
O O4 0.000000 0.102454 0.906770
O O5 0.740105 0.068970 0.277671
O O6 0.000000 0.056159 0.236064
O O7 0.786502 0.000000 0.205728
O O8 0.725287 0.240616 0.090897
O O9 0.775732 0.329284 0.087711
O O10 0.000000 0.270691 0.095523
O O11 0.847909 0.278832 0.000000
O O12 0.500000 0.929164 0.000000
O O13 0.679193 0.000000 0.000000
O O14 0.500000 0.186222 0.086806
O O15 0.307601 0.185089 0.000000
O O16 0.776050 0.500000 0.851451
O O17 0.761990 0.582850 0.890708
O O18 0.000000 0.555860 0.834503
O O19 0.000000 0.619109 0.937517
O O20 0.238985 0.610749 0.000000
#
# Coordination Sequence:
#
# PCOD8288323 Si02
#       7
#    16  16  16   8  16  16  16
#     4  11  21  33  51  70  91 124 166 204 239 290
#     4   9  19  35  51  67  90 124 165 203 237 277
#     4   8  14  26  45  66  91 126 163 193 228 281
#     4  11  23  35  47  69 101 129 153 195 254 297
#     4  10  19  30  45  68  99 125 151 195 250 295
#     4   9  17  29  48  74 100 128 162 197 237 285
#     4   8  14  26  46  74 104 130 158 195 236 281
#
# _framework density 16.991337999999999
#
# number of rings (size 3 to 8) (size 9 to 14) (size 15 to 20)
#    0.000    2.692    0.769    2.538    0.000    3.385 
#    0.000    3.846    0.000    2.308    0.000    2.154 
#    0.000    0.000    0.000    0.000    0.000    0.000 
#
# Total GULP energy -644712.811166 kJ/mol
# GULP energy per Si atom -12398.323292 kJ/mol
# Density = 1.695266 g / cm^3
# Si number density = 16.991338 Si / 1000 Ang^3
#
#
#
# Elastic Constant Matrix: (Units=GPa)
#
#
# Indices 1 2 3 4 5 6 
#
# 1 64.5553 47.4970 43.6458 0.0000 0.0000 0.0000
# 2 47.4970 125.0882 73.6563 0.0000 0.0000 0.0000
# 3 43.6458 73.6563 101.8420 0.0000 0.0000 0.0000
# 4 0.0000 0.0000 0.0000 17.7325 0.0000 0.0000
# 5 0.0000 0.0000 0.0000 0.0000 20.1342 0.0000
# 6 0.0000 0.0000 0.0000 0.0000 0.0000 20.2995
#
#
#
# Elastic Compliance Matrix: (Units=1/GPa)
#
#
# Indices 1 2 3 4 5 6 
#
# 1 0.023631 -0.005242 -0.006336 0.000000 0.000000 0.000000
# 2 -0.005242 0.015087 -0.008665 0.000000 0.000000 0.000000
# 3 -0.006336 -0.008665 0.018802 0.000000 0.000000 0.000000
# 4 0.000000 0.000000 0.000000 0.056394 0.000000 0.000000
# 5 0.000000 0.000000 0.000000 0.000000 0.049667 0.000000
# 6 0.000000 0.000000 0.000000 0.000000 0.000000 0.049262
#
#
# Mechanical properties :
#
#
# Convention : Reuss Voigt Hill
#
# Bulk Modulus (GPa) = 58.70855 69.00930 63.85892
# Shear Modulus (GPa) = 19.30446 20.07899 19.69173
#
# Velocity S-wave (km/s) = 3.37432 3.44134 3.40800
# Velocity P-wave (km/s) = 7.05751 7.51618 7.29045
#
# Compressibility (1/GPa) = 0.01703330
#
# Stress axis : x y z
#
# Youngs Moduli (GPa) = 42.31650 66.28193 53.18700
#
# Poissons Ratio (x) = 0.34745 0.33701
# Poissons Ratio (y) = 0.22182 0.46087
# Poissons Ratio (z) = 0.26813 0.57434
#
# Static dielectric constant tensor:
#      x y z
#    x 3.103970 0.000000 0.000000 
#    y 0.000000 3.466090 0.000000 
#    z 0.000000 0.000000 3.071180 
# 
# 
# High freq. dielectric constant tensor:
#      x y z
#    x 1.644280 0.000000 0.000000 
#    y 0.000000 1.663980 0.000000 
#    z 0.000000 0.000000 1.625860 
# 
# From -- ./inp_files/58017.got.cif
#   From: 2010.06.25/outbox.cif.g09.slc.cpg/sg71_30_cif.got.tgz:58017.got - 2010.06.28 04:59:45.
