data_PCOD8288773
_publ_section_title
;
Structure prediction by ZEFSAII (Michael W. Deem and Ramdas Pophale) SiO2 
 PCOD8288773
Probable space group: I M M M
;
_chemical_formula_sum "Si O2"
_cell_formula_units_Z 96
_cell_length_a 8.096936
_cell_length_b 25.898165
_cell_length_c 22.159197
_cell_angle_alpha 90.000000
_cell_angle_beta 90.000000
_cell_angle_gamma 90.000000
_cell_volume 4646.690199
_symmetry_space_group_name_H-M "I M M M"
_symmetry_group_IT_number 71
_symmetry_cell_setting 'orthorhombic'
loop_
_space_group_symop_operation_xyz
x,y,z
-x,-y,z
x,-y,-z
-x,y,-z
-x,-y,-z
x,y,-z
-x,y,z
x,-y,z
1/2+x,1/2+y,1/2+z
1/2-x,1/2-y,1/2+z
1/2+x,1/2-y,1/2-z
1/2-x,1/2+y,1/2-z
1/2-x,1/2-y,1/2-z
1/2+x,1/2+y,1/2-z
1/2-x,1/2+y,1/2+z
1/2+x,1/2-y,1/2+z
loop_
_atom_site_type_symbol
_atom_site_label
_atom_site_fract_x
_atom_site_fract_y
_atom_site_fract_z
Si Si1 0.804361 0.700570 0.500000
Si Si2 0.804135 0.253876 0.625543
Si Si3 0.195922 0.555874 0.628610
Si Si4 0.196926 0.585823 0.500000
Si Si5 0.802731 0.349600 0.294453
Si Si6 0.803576 0.558231 0.932083
Si Si7 0.691325 0.143321 0.339869
O O1 0.742209 0.728876 0.440139
O O2 0.730792 0.643408 0.500000
O O3 0.000000 0.697487 0.500000
O O4 0.743963 0.295662 0.675523
O O5 0.714389 0.199959 0.634044
O O6 0.000000 0.246574 0.628664
O O7 0.246938 0.500000 0.655987
O O8 0.262999 0.557847 0.560043
O O9 0.271335 0.602379 0.667752
O O10 0.000000 0.562219 0.628228
O O11 0.000000 0.586107 0.500000
O O12 0.729176 0.356506 0.227153
O O13 0.000000 0.350438 0.294345
O O14 0.747670 0.500000 0.913979
O O15 0.728543 0.599667 0.884060
O O16 0.000000 0.561620 0.932055
O O17 0.739322 0.571174 0.000000
O O18 0.500000 0.130145 0.333910
#
# Coordination Sequence:
#
# PCOD8288773 Si02
#       7
#     8  16  16   8  16  16  16
#     4   9  16  27  45  64  86 123 158 182 217 272
#     4  10  19  32  48  66  93 126 155 183 223 272
#     4   9  15  22  36  60  90 122 155 190 226 266
#     4   9  13  22  37  57  87 123 157 185 223 270
#     4   9  17  29  42  61  92 126 153 182 226 274
#     4   8  15  29  47  66  90 118 145 179 228 277
#     4  10  20  31  48  72  93 117 153 191 224 267
#
# _framework density 20.659867999999999
#
# number of rings (size 3 to 8) (size 9 to 14) (size 15 to 20)
#    0.000    2.833    1.667    1.250    1.167    1.667 
#    0.000    3.333    0.000    0.500    0.000    1.167 
#    0.000    2.000    0.000    1.500    0.000    1.667 
#
# Total GULP energy -594828.351373 kJ/mol
# GULP energy per Si atom -12392.257320 kJ/mol
# Density = 2.061285 g / cm^3
# Si number density = 20.659868 Si / 1000 Ang^3
#
#
#
# Elastic Constant Matrix: (Units=GPa)
#
#
# Indices 1 2 3 4 5 6 
#
# 1 4.3979 -2.7802 2.1003 0.0000 0.0000 0.0000
# 2 -2.7802 177.8794 91.6336 0.0000 0.0000 0.0000
# 3 2.1003 91.6336 168.5082 0.0001 0.0000 0.0000
# 4 0.0000 0.0000 0.0001 30.9551 0.0000 0.0000
# 5 0.0000 0.0000 0.0000 0.0000 4.7070 0.0000
# 6 0.0000 0.0000 0.0000 0.0000 0.0000 17.3393
#
#
#
# Elastic Compliance Matrix: (Units=1/GPa)
#
#
# Indices 1 2 3 4 5 6 
#
# 1 0.235207 0.007205 -0.006849 0.000000 0.000000 0.000000
# 2 0.007205 0.008030 -0.004457 0.000000 0.000000 0.000000
# 3 -0.006849 -0.004457 0.008443 0.000000 0.000000 0.000000
# 4 0.000000 0.000000 0.000000 0.032305 0.000000 0.000000
# 5 0.000000 0.000000 0.000000 0.000000 0.212450 0.000000
# 6 0.000000 0.000000 0.000000 0.000000 0.000000 0.057672
#
#
# Mechanical properties :
#
#
# Convention : Reuss Voigt Hill
#
# Bulk Modulus (GPa) = 4.10715 59.18808 31.64762
# Shear Modulus (GPa) = 7.77038 27.92240 17.84639
#
# Velocity S-wave (km/s) = 1.94146 3.68030 2.94227
# Velocity P-wave (km/s) = 2.64915 6.83890 5.18597
#
# Compressibility (1/GPa) = 0.24347769
#
# Stress axis : x y z
#
# Youngs Moduli (GPa) = 4.25158 124.53053 118.43795
#
# Poissons Ratio (x) = -0.89720 0.81123
# Poissons Ratio (y) = -0.03063 0.52782
# Poissons Ratio (z) = 0.02912 0.55498
#
# Static dielectric constant tensor:
#      x y z
#    x 2.911250 0.000000 0.000000 
#    y 0.000000 3.910540 0.000000 
#    z 0.000000 0.000000 4.197700 
# 
# 
# High freq. dielectric constant tensor:
#      x y z
#    x 1.731140 0.000000 0.000000 
#    y 0.000000 1.820570 0.000000 
#    z 0.000000 0.000000 1.817590 
# 
# From -- ./inp_files/25999.got.cif
#   From: 2010.06.25/outbox.cif.g09.slc.cpg/sg71_13_cif.got.tgz:25999.got - 2010.06.28 04:59:45.
