data_PCOD8288273
_publ_section_title
;
Structure prediction by ZEFSAII (Michael W. Deem and Ramdas Pophale) SiO2 
 PCOD8288273
Probable space group: I M M M
;
_chemical_formula_sum "Si O2"
_cell_formula_units_Z 112
_cell_length_a 9.501690
_cell_length_b 31.271451
_cell_length_c 27.467844
_cell_angle_alpha 90.000000
_cell_angle_beta 90.000000
_cell_angle_gamma 90.000000
_cell_volume 8161.565350
_symmetry_space_group_name_H-M "I M M M"
_symmetry_group_IT_number 71
_symmetry_cell_setting 'orthorhombic'
loop_
_space_group_symop_operation_xyz
x,y,z
-x,-y,z
x,-y,-z
-x,y,-z
-x,-y,-z
x,y,-z
-x,y,z
x,-y,z
1/2+x,1/2+y,1/2+z
1/2-x,1/2-y,1/2+z
1/2+x,1/2-y,1/2-z
1/2-x,1/2+y,1/2-z
1/2-x,1/2-y,1/2-z
1/2+x,1/2+y,1/2-z
1/2-x,1/2+y,1/2+z
1/2+x,1/2-y,1/2+z
loop_
_atom_site_type_symbol
_atom_site_label
_atom_site_fract_x
_atom_site_fract_y
_atom_site_fract_z
Si Si1 0.343007 0.500000 0.338029
Si Si2 0.836177 0.225902 0.291212
Si Si3 0.838269 0.779057 0.856002
Si Si4 0.339893 0.080235 0.814843
Si Si5 0.153264 0.407791 0.425812
Si Si6 0.342863 0.650573 0.272732
Si Si7 0.840467 0.830932 0.053382
Si Si8 0.263322 0.500000 0.445508
O O1 0.500000 0.500000 0.316537
O O2 0.258711 0.460688 0.315998
O O3 0.361440 0.500000 0.397321
O O4 0.750000 0.250000 0.250000
O O5 0.761460 0.238576 0.342242
O O6 0.824682 0.175249 0.279045
O O7 0.000000 0.240280 0.291132
O O8 0.822773 0.815943 0.816229
O O9 0.779484 0.797694 0.907189
O O10 0.000000 0.763340 0.860118
O O11 0.500000 0.068948 0.798887
O O12 0.338405 0.100121 0.868328
O O13 0.273953 0.113789 0.776681
O O14 0.266020 0.376842 0.449863
O O15 0.171107 0.457162 0.441243
O O16 0.000000 0.393985 0.444741
O O17 0.500000 0.630627 0.276015
O O18 0.000000 0.841406 0.068489
O O19 0.830528 0.809453 0.000000
O O20 0.336623 0.500000 0.500000
#
# Coordination Sequence:
#
# PCOD8288273 Si02
#       8
#     8  16  16  16  16  16  16   8
#     4  10  21  34  46  56  72  98 124 156 195 233
#     4   9  17  27  41  62  82 100 121 148 185 231
#     4   9  17  29  42  57  79 102 125 156 192 231
#     4  10  19  30  44  60  77  97 123 155 191 234
#     4  10  20  32  44  57  72  92 119 156 201 244
#     4   9  16  27  43  61  79  99 122 150 188 233
#     4  10  20  32  44  57  75 100 130 162 195 234
#     4  10  21  33  43  57  71  87 117 159 205 246
#
# _framework density 13.722858
#
# number of rings (size 3 to 8) (size 9 to 14) (size 15 to 20)
#    0.000    2.429    1.429    2.571    0.000    9.000 
#    0.000    0.000    0.000    0.000    0.000    0.000 
#    0.000    0.000    0.000    0.000    0.000    0.000 
#
# Total GULP energy -693830.610029 kJ/mol
# GULP energy per Si atom -12389.832322 kJ/mol
# Density = 1.369162 g / cm^3
# Si number density = 13.722858 Si / 1000 Ang^3
#
#
#
# Elastic Constant Matrix: (Units=GPa)
#
#
# Indices 1 2 3 4 5 6 
#
# 1 98.7440 45.6138 30.3782 0.0000 0.0000 0.0000
# 2 45.6138 63.1677 41.6075 0.0000 0.0000 0.0000
# 3 30.3782 41.6075 53.8919 0.0000 0.0000 0.0000
# 4 0.0000 0.0000 0.0000 15.0400 0.0000 0.0000
# 5 0.0000 0.0000 0.0000 0.0000 11.3788 0.0000
# 6 0.0000 0.0000 0.0000 0.0000 0.0000 19.8047
#
#
#
# Elastic Compliance Matrix: (Units=1/GPa)
#
#
# Indices 1 2 3 4 5 6 
#
# 1 0.015197 -0.010848 -0.000191 0.000000 0.000000 0.000000
# 2 -0.010848 0.039955 -0.024733 0.000000 0.000000 0.000000
# 3 -0.000191 -0.024733 0.037759 0.000000 0.000000 0.000000
# 4 0.000000 0.000000 0.000000 0.066489 0.000000 0.000000
# 5 0.000000 0.000000 0.000000 0.000000 0.087883 0.000000
# 6 0.000000 0.000000 0.000000 0.000000 0.000000 0.050493
#
#
# Mechanical properties :
#
#
# Convention : Reuss Voigt Hill
#
# Bulk Modulus (GPa) = 46.80119 50.11141 48.45630
# Shear Modulus (GPa) = 13.28225 15.79166 14.53695
#
# Velocity S-wave (km/s) = 3.11447 3.39596 3.25826
# Velocity P-wave (km/s) = 6.86381 7.20921 7.03863
#
# Compressibility (1/GPa) = 0.02136698
#
# Stress axis : x y z
#
# Youngs Moduli (GPa) = 65.80184 25.02790 26.48405
#
# Poissons Ratio (x) = 0.27150 0.00506
# Poissons Ratio (y) = 0.71382 0.65503
# Poissons Ratio (z) = 0.01258 0.61901
#
# Static dielectric constant tensor:
#      x y z
#    x 2.855230 0.000000 0.000000 
#    y 0.000000 2.688450 0.000000 
#    z 0.000000 0.000000 2.748370 
# 
# 
# High freq. dielectric constant tensor:
#      x y z
#    x 1.535540 0.000000 0.000000 
#    y 0.000000 1.495120 0.000000 
#    z 0.000000 0.000000 1.484920 
# 
# From -- ./inp_files/68692.got.cif
#   From: 2010.06.25/outbox.cif.g09.slc.cpg/sg71_35_cif.got.tgz:68692.got - 2010.06.28 04:59:45.
