data_PCOD8288294
_publ_section_title
;
Structure prediction by ZEFSAII (Michael W. Deem and Ramdas Pophale) SiO2 
 PCOD8288294
Probable space group: I M M M
;
_chemical_formula_sum "Si O2"
_cell_formula_units_Z 104
_cell_length_a 8.862545
_cell_length_b 33.082378
_cell_length_c 24.133254
_cell_angle_alpha 90.000000
_cell_angle_beta 90.000000
_cell_angle_gamma 90.000000
_cell_volume 7075.726811
_symmetry_space_group_name_H-M "I M M M"
_symmetry_group_IT_number 71
_symmetry_cell_setting 'orthorhombic'
loop_
_space_group_symop_operation_xyz
x,y,z
-x,-y,z
x,-y,-z
-x,y,-z
-x,-y,-z
x,y,-z
-x,y,z
x,-y,z
1/2+x,1/2+y,1/2+z
1/2-x,1/2-y,1/2+z
1/2+x,1/2-y,1/2-z
1/2-x,1/2+y,1/2-z
1/2-x,1/2-y,1/2-z
1/2+x,1/2+y,1/2-z
1/2-x,1/2+y,1/2+z
1/2+x,1/2-y,1/2+z
loop_
_atom_site_type_symbol
_atom_site_label
_atom_site_fract_x
_atom_site_fract_y
_atom_site_fract_z
Si Si1 0.672766 0.837206 0.937930
Si Si2 0.824990 0.689647 0.733626
Si Si3 0.826063 0.875376 0.163313
Si Si4 0.673229 0.252181 0.439025
Si Si5 0.675411 0.269644 0.833520
Si Si6 0.667826 0.951987 0.000000
Si Si7 0.824857 0.954968 0.888950
O O1 0.500000 0.839866 0.916376
O O2 0.784988 0.860642 0.897993
O O3 0.719415 0.790729 0.938412
O O4 0.687059 0.855598 0.000000
O O5 0.775443 0.646317 0.709509
O O6 0.731806 0.697664 0.789243
O O7 0.789834 0.724280 0.688319
O O8 0.000000 0.688777 0.749034
O O9 0.795679 0.923967 0.162250
O O10 0.000000 0.865362 0.175755
O O11 0.685527 0.231342 0.500000
O O12 0.500000 0.264285 0.426803
O O13 0.734107 0.222676 0.390715
O O14 0.500000 0.276719 0.843998
O O15 0.745832 0.936970 0.056260
O O16 0.500000 0.934023 0.000000
O O17 0.670591 0.000000 0.000000
O O18 0.000000 0.956912 0.903405
O O19 0.765092 0.000000 0.872799
#
# Coordination Sequence:
#
# PCOD8288294 Si02
#       7
#    16  16  16  16  16   8  16
#     4  10  20  31  41  56  80 108 136 172 216 258
#     4  10  20  32  46  63  84 110 137 173 213 252
#     4  11  21  31  46  63  80 103 137 176 214 259
#     4  10  19  30  45  64  86 112 141 173 208 250
#     4  10  19  31  47  64  85 112 140 172 208 248
#     4   9  17  29  45  63  79  99 131 171 215 261
#     4   9  19  34  47  59  78 105 135 169 212 261
#
# _framework density 14.698136999999999
#
# number of rings (size 3 to 8) (size 9 to 14) (size 15 to 20)
#    0.000    2.077    1.538    2.538    1.077    5.231 
#    0.000    0.000    0.000    0.000    0.000    0.000 
#    0.000    0.000    0.000    0.000    0.000    0.769 
#
# Total GULP energy -644680.511045 kJ/mol
# GULP energy per Si atom -12397.702135 kJ/mol
# Density = 1.466468 g / cm^3
# Si number density = 14.698137 Si / 1000 Ang^3
#
#
#
# Elastic Constant Matrix: (Units=GPa)
#
#
# Indices 1 2 3 4 5 6 
#
# 1 58.3365 16.8544 27.6048 0.0000 0.0000 0.0000
# 2 16.8544 53.3701 28.4853 0.0000 0.0000 0.0000
# 3 27.6048 28.4853 75.0338 0.0000 0.0000 0.0000
# 4 0.0000 0.0000 0.0000 20.1957 0.0000 0.0000
# 5 0.0000 0.0000 0.0000 0.0000 25.5564 0.0000
# 6 0.0000 0.0000 0.0000 0.0000 0.0000 15.2740
#
#
#
# Elastic Compliance Matrix: (Units=1/GPa)
#
#
# Indices 1 2 3 4 5 6 
#
# 1 0.021175 -0.003172 -0.006586 0.000000 0.000000 0.000000
# 2 -0.003172 0.023974 -0.007934 0.000000 0.000000 0.000000
# 3 -0.006586 -0.007934 0.018762 0.000000 0.000000 0.000000
# 4 0.000000 0.000000 0.000000 0.049515 0.000000 0.000000
# 5 0.000000 0.000000 0.000000 0.000000 0.039129 0.000000
# 6 0.000000 0.000000 0.000000 0.000000 0.000000 0.065471
#
#
# Mechanical properties :
#
#
# Convention : Reuss Voigt Hill
#
# Bulk Modulus (GPa) = 35.05512 36.95882 36.00697
# Shear Modulus (GPa) = 19.01725 19.79161 19.40443
#
# Velocity S-wave (km/s) = 3.60092 3.67350 3.63739
# Velocity P-wave (km/s) = 6.41800 6.57211 6.49551
#
# Compressibility (1/GPa) = 0.02852650
#
# Stress axis : x y z
#
# Youngs Moduli (GPa) = 47.22583 41.71270 53.29813
#
# Poissons Ratio (x) = 0.13231 0.35102
# Poissons Ratio (y) = 0.14980 0.42288
# Poissons Ratio (z) = 0.31103 0.33096
#
# Static dielectric constant tensor:
#      x y z
#    x 2.950340 0.000000 0.000000 
#    y 0.000000 2.712670 0.000000 
#    z 0.000000 0.000000 2.827480 
# 
# 
# High freq. dielectric constant tensor:
#      x y z
#    x 1.580680 0.000000 0.000000 
#    y 0.000000 1.523710 0.000000 
#    z 0.000000 0.000000 1.537690 
# 
# From -- ./inp_files/17464.got.cif
#   From: 2010.06.25/outbox.cif.g09.slc.cpg/sg71_9_cif.got.tgz:17464.got - 2010.06.28 04:59:45.
