data_PCOD8288814
_publ_section_title
;
Structure prediction by ZEFSAII (Michael W. Deem and Ramdas Pophale) SiO2 
 PCOD8288814
Probable space group: I M M M
;
_chemical_formula_sum "Si O2"
_cell_formula_units_Z 80
_cell_length_a 32.185114
_cell_length_b 8.902887
_cell_length_c 17.880669
_cell_angle_alpha 90.000000
_cell_angle_beta 90.000000
_cell_angle_gamma 90.000000
_cell_volume 5123.534638
_symmetry_space_group_name_H-M "I M M M"
_symmetry_group_IT_number 71
_symmetry_cell_setting 'orthorhombic'
loop_
_space_group_symop_operation_xyz
x,y,z
-x,-y,z
x,-y,-z
-x,y,-z
-x,-y,-z
x,y,-z
-x,y,z
x,-y,z
1/2+x,1/2+y,1/2+z
1/2-x,1/2-y,1/2+z
1/2+x,1/2-y,1/2-z
1/2-x,1/2+y,1/2-z
1/2-x,1/2-y,1/2-z
1/2+x,1/2+y,1/2-z
1/2-x,1/2+y,1/2+z
1/2+x,1/2-y,1/2+z
loop_
_atom_site_type_symbol
_atom_site_label
_atom_site_fract_x
_atom_site_fract_y
_atom_site_fract_z
Si Si1 0.819484 0.828370 0.219768
Si Si2 0.046893 0.676137 0.585200
Si Si3 0.622566 0.670168 0.845813
Si Si4 0.715654 0.173214 0.415934
Si Si5 0.203575 0.321885 0.638373
O O1 0.865918 0.823623 0.256587
O O2 0.818188 0.748312 0.139320
O O3 0.788987 0.738875 0.276872
O O4 0.803805 0.000000 0.211328
O O5 0.057798 0.720463 0.500000
O O6 0.051660 0.500000 0.596802
O O7 0.077604 0.758666 0.641956
O O8 0.000000 0.727012 0.604194
O O9 0.622299 0.500000 0.875182
O O10 0.658723 0.760426 0.891060
O O11 0.698266 0.190007 0.500000
O O12 0.759667 0.257950 0.412329
O O13 0.722024 0.000000 0.394266
O O14 0.203622 0.500000 0.635389
#
# Coordination Sequence:
#
# PCOD8288814 Si02
#       5
#    16  16  16  16  16
#     4   9  19  34  49  66  89 118 153 191 230 272
#     4   9  18  32  49  70  96 124 153 186 225 269
#     4   9  19  32  48  68  89 119 155 191 227 268
#     4  11  22  33  46  66  91 119 154 194 233 273
#     4  10  19  32  50  66  87 121 156 192 232 272
#
# _framework density 15.61422
#
# number of rings (size 3 to 8) (size 9 to 14) (size 15 to 20)
#    1.200    1.200    0.000    4.200    0.000    3.200 
#    0.000    1.000    0.000    0.000    0.000    0.000 
#    0.000    0.800    0.000    8.800    0.000    6.400 
#
# Total GULP energy -495605.642479 kJ/mol
# GULP energy per Si atom -12390.141062 kJ/mol
# Density = 1.557868 g / cm^3
# Si number density = 15.614220 Si / 1000 Ang^3
#
#
#
# Elastic Constant Matrix: (Units=GPa)
#
#
# Indices 1 2 3 4 5 6 
#
# 1 91.8525 44.3090 33.6456 0.0000 0.0000 0.0000
# 2 44.3090 122.0781 37.6619 0.0000 0.0000 0.0000
# 3 33.6456 37.6619 59.7685 0.0000 0.0000 0.0000
# 4 0.0000 0.0000 0.0000 21.6317 0.0000 0.0000
# 5 0.0000 0.0000 0.0000 0.0000 2.8991 0.0000
# 6 0.0000 0.0000 0.0000 0.0000 0.0000 26.8336
#
#
#
# Elastic Compliance Matrix: (Units=1/GPa)
#
#
# Indices 1 2 3 4 5 6 
#
# 1 0.014819 -0.003482 -0.006148 0.000000 0.000000 0.000000
# 2 -0.003482 0.010986 -0.004963 0.000000 0.000000 0.000000
# 3 -0.006148 -0.004963 0.023319 0.000000 0.000000 0.000000
# 4 0.000000 0.000000 0.000000 0.046228 0.000000 0.000000
# 5 0.000000 0.000000 0.000000 0.000000 0.344932 0.000000
# 6 0.000000 0.000000 0.000000 0.000000 0.000000 0.037267
#
#
# Mechanical properties :
#
#
# Convention : Reuss Voigt Hill
#
# Bulk Modulus (GPa) = 50.15240 56.10354 53.12797
# Shear Modulus (GPa) = 9.73933 20.81173 15.27553
#
# Velocity S-wave (km/s) = 2.50020 3.65481 3.13119
# Velocity P-wave (km/s) = 6.36585 7.33616 6.86816
#
# Compressibility (1/GPa) = 0.01993923
#
# Stress axis : x y z
#
# Youngs Moduli (GPa) = 67.48283 91.02272 42.88317
#
# Poissons Ratio (x) = 0.31693 0.26364
# Poissons Ratio (y) = 0.23497 0.21282
# Poissons Ratio (z) = 0.41487 0.45172
#
# Static dielectric constant tensor:
#      x y z
#    x 2.787240 0.000000 0.000000 
#    y 0.000000 3.038140 0.000000 
#    z 0.000000 0.000000 2.790130 
# 
# 
# High freq. dielectric constant tensor:
#      x y z
#    x 1.568700 0.000000 0.000000 
#    y 0.000000 1.618770 0.000000 
#    z 0.000000 0.000000 1.573100 
# 
# From -- ./inp_files/42377.got.cif
#   From: 2010.06.25/outbox.cif.g09.slc.cpg/sg71_22_cif.got.tgz:42377.got - 2010.06.28 04:59:45.
