data_PCOD8288305
_publ_section_title
;
Structure prediction by ZEFSAII (Michael W. Deem and Ramdas Pophale) SiO2 
 PCOD8288305
Probable space group: I M M M
;
_chemical_formula_sum "Si O2"
_cell_formula_units_Z 96
_cell_length_a 27.262945
_cell_length_b 20.739366
_cell_length_c 9.581212
_cell_angle_alpha 90.000000
_cell_angle_beta 90.000000
_cell_angle_gamma 90.000000
_cell_volume 5417.372429
_symmetry_space_group_name_H-M "I M M M"
_symmetry_group_IT_number 71
_symmetry_cell_setting 'orthorhombic'
loop_
_space_group_symop_operation_xyz
x,y,z
-x,-y,z
x,-y,-z
-x,y,-z
-x,-y,-z
x,y,-z
-x,y,z
x,-y,z
1/2+x,1/2+y,1/2+z
1/2-x,1/2-y,1/2+z
1/2+x,1/2-y,1/2-z
1/2-x,1/2+y,1/2-z
1/2-x,1/2-y,1/2-z
1/2+x,1/2+y,1/2-z
1/2-x,1/2+y,1/2+z
1/2+x,1/2-y,1/2+z
loop_
_atom_site_type_symbol
_atom_site_label
_atom_site_fract_x
_atom_site_fract_y
_atom_site_fract_z
Si Si1 0.057130 0.687818 0.837939
Si Si2 0.613290 0.429129 0.156201
Si Si3 0.271096 0.308906 0.337765
Si Si4 0.387213 0.313206 0.658856
Si Si5 0.729853 0.428070 0.842865
Si Si6 0.941707 0.570905 0.343467
O O1 0.086567 0.749545 0.781750
O O2 0.079037 0.625432 0.759312
O O3 0.000000 0.698597 0.805444
O O4 0.067041 0.675969 0.000000
O O5 0.595159 0.500000 0.205836
O O6 0.591910 0.374410 0.257016
O O7 0.671598 0.427649 0.159224
O O8 0.594334 0.415333 0.000000
O O9 0.254360 0.306012 0.500000
O O10 0.250000 0.250000 0.250000
O O11 0.329371 0.305073 0.325333
O O12 0.250746 0.375265 0.268301
O O13 0.402867 0.324671 0.500000
O O14 0.748648 0.500000 0.800940
O O15 0.748091 0.410771 0.000000
O O16 0.923613 0.586154 0.500000
O O17 0.922535 0.500000 0.296778
O O18 0.000000 0.570996 0.337729
#
# Coordination Sequence:
#
# PCOD8288305 Si02
#       6
#    16  16  16  16  16  16
#     4   9  17  29  45  65  89 115 143 176 213 254
#     4   8  14  25  42  64  87 111 142 179 216 254
#     4  10  19  30  45  65  90 117 146 180 216 257
#     4   9  18  30  44  65  90 115 144 178 215 255
#     4   8  14  26  44  65  88 112 140 177 220 261
#     4   8  14  25  41  62  87 112 140 176 215 253
#
# _framework density 17.720768
#
# number of rings (size 3 to 8) (size 9 to 14) (size 15 to 20)
#    0.000    3.333    0.000    2.000    0.000    2.333 
#    0.000    5.000    0.000    1.500    0.000    5.833 
#    0.000    0.000    0.000    0.000    0.000    0.000 
#
# Total GULP energy -594880.617909 kJ/mol
# GULP energy per Si atom -12393.346206 kJ/mol
# Density = 1.768044 g / cm^3
# Si number density = 17.720768 Si / 1000 Ang^3
#
#
#
# Elastic Constant Matrix: (Units=GPa)
#
#
# Indices 1 2 3 4 5 6 
#
# 1 10.5969 23.1605 17.6092 0.0000 0.0000 0.0000
# 2 23.1605 194.6024 105.0102 0.0000 0.0000 0.0000
# 3 17.6092 105.0102 112.2196 0.0000 0.0000 0.0000
# 4 0.0000 0.0000 0.0000 43.7734 0.0000 0.0000
# 5 0.0000 0.0000 0.0000 0.0000 13.0803 0.0000
# 6 0.0000 0.0000 0.0000 0.0000 0.0000 23.7957
#
#
#
# Elastic Compliance Matrix: (Units=1/GPa)
#
#
# Indices 1 2 3 4 5 6 
#
# 1 0.135681 -0.009412 -0.012484 0.000000 0.000000 0.000000
# 2 -0.009412 0.011033 -0.008847 0.000000 0.000000 0.000000
# 3 -0.012484 -0.008847 0.019149 0.000000 0.000000 0.000000
# 4 0.000000 0.000000 0.000000 0.022845 0.000000 0.000000
# 5 0.000000 0.000000 0.000000 0.000000 0.076451 0.000000
# 6 0.000000 0.000000 0.000000 0.000000 0.000000 0.042024
#
#
# Mechanical properties :
#
#
# Convention : Reuss Voigt Hill
#
# Bulk Modulus (GPa) = 9.58059 67.66430 38.62245
# Shear Modulus (GPa) = 12.39278 27.57249 19.98263
#
# Velocity S-wave (km/s) = 2.64737 3.94882 3.36168
# Velocity P-wave (km/s) = 3.84225 7.68488 6.07537
#
# Compressibility (1/GPa) = 0.10437770
#
# Stress axis : x y z
#
# Youngs Moduli (GPa) = 7.37022 90.63791 52.22230
#
# Poissons Ratio (x) = 0.85304 0.65193
# Poissons Ratio (y) = 0.06937 0.46203
# Poissons Ratio (z) = 0.09201 0.80190
#
# Static dielectric constant tensor:
#      x y z
#    x 2.744500 0.000000 0.000000 
#    y 0.000000 3.781190 0.000000 
#    z 0.000000 0.000000 3.458850 
# 
# 
# High freq. dielectric constant tensor:
#      x y z
#    x 1.622080 0.000000 0.000000 
#    y 0.000000 1.703070 0.000000 
#    z 0.000000 0.000000 1.685890 
# 
# From -- ./inp_files/10940.got.cif
#   From: 2010.06.25/outbox.cif.g09.slc.cpg/sg71_6_cif.got.tgz:10940.got - 2010.06.28 04:59:45.
