data_PCOD8288166
_publ_section_title
;
Structure prediction by ZEFSAII (Michael W. Deem and Ramdas Pophale) SiO2 
 PCOD8288166
Probable space group: I M M M
;
_chemical_formula_sum "Si O2"
_cell_formula_units_Z 104
_cell_length_a 32.958249
_cell_length_b 9.032947
_cell_length_c 24.764155
_cell_angle_alpha 90.000000
_cell_angle_beta 90.000000
_cell_angle_gamma 90.000000
_cell_volume 7372.539468
_symmetry_space_group_name_H-M "I M M M"
_symmetry_group_IT_number 71
_symmetry_cell_setting 'orthorhombic'
loop_
_space_group_symop_operation_xyz
x,y,z
-x,-y,z
x,-y,-z
-x,y,-z
-x,-y,-z
x,y,-z
-x,y,z
x,-y,z
1/2+x,1/2+y,1/2+z
1/2-x,1/2-y,1/2+z
1/2+x,1/2-y,1/2-z
1/2-x,1/2+y,1/2-z
1/2-x,1/2-y,1/2-z
1/2+x,1/2+y,1/2-z
1/2-x,1/2+y,1/2+z
1/2+x,1/2-y,1/2+z
loop_
_atom_site_type_symbol
_atom_site_label
_atom_site_fract_x
_atom_site_fract_y
_atom_site_fract_z
Si Si1 0.835272 0.670156 0.439605
Si Si2 0.548200 0.165181 0.000000
Si Si3 0.811450 0.673850 0.724968
Si Si4 0.125010 0.828831 0.341125
Si Si5 0.763373 0.329375 0.826370
Si Si6 0.545363 0.671306 0.893401
Si Si7 0.752195 0.831727 0.557974
O O1 0.853981 0.688986 0.500000
O O2 0.838036 0.500000 0.420474
O O3 0.858405 0.774387 0.398340
O O4 0.788519 0.716428 0.440462
O O5 0.563116 0.243992 0.054502
O O6 0.500000 0.166364 0.000000
O O7 0.566230 0.000000 0.000000
O O8 0.814577 0.500000 0.716931
O O9 0.854928 0.743110 0.709276
O O10 0.800191 0.718253 0.786791
O O11 0.776954 0.734967 0.684970
O O12 0.076178 0.801765 0.343146
O O13 0.135745 0.000000 0.334142
O O14 0.752451 0.500000 0.814610
O O15 0.776272 0.303564 0.889199
O O16 0.500000 0.725822 0.876956
O O17 0.544382 0.500000 0.909497
O O18 0.728815 0.810986 0.500000
O O19 0.769160 0.000000 0.561529
#
# Coordination Sequence:
#
# PCOD8288166 Si02
#       7
#    16   8  16  16  16  16  16
#     4  10  20  30  39  55  78 101 126 161 203 242
#     4   9  17  29  45  63  79  95 119 155 201 249
#     4  10  19  29  42  59  79 104 131 162 196 229
#     4  11  21  31  44  59  75  97 130 165 201 242
#     4   9  17  29  43  59  80 105 132 159 192 232
#     4   9  19  34  47  57  72  97 128 161 198 243
#     4   9  16  27  43  60  78 101 129 161 194 231
#
# _framework density 14.106401
#
# number of rings (size 3 to 8) (size 9 to 14) (size 15 to 20)
#    0.000    2.385    1.538    1.615    1.077    3.692 
#    0.000    0.000    0.000    0.000    0.000    0.000 
#    0.000    0.000    0.000    0.000    0.000    0.769 
#
# Total GULP energy -644342.641046 kJ/mol
# GULP energy per Si atom -12391.204636 kJ/mol
# Density = 1.407429 g / cm^3
# Si number density = 14.106401 Si / 1000 Ang^3
#
#
#
# Elastic Constant Matrix: (Units=GPa)
#
#
# Indices 1 2 3 4 5 6 
#
# 1 58.6212 25.7259 40.5874 0.0000 0.0000 0.0000
# 2 25.7259 57.4997 24.1322 0.0000 0.0000 0.0000
# 3 40.5874 24.1322 102.6444 0.0000 0.0000 0.0000
# 4 0.0000 0.0000 0.0000 17.9849 0.0000 0.0000
# 5 0.0000 0.0000 0.0000 0.0000 21.1538 0.0000
# 6 0.0000 0.0000 0.0000 0.0000 0.0000 13.9996
#
#
#
# Elastic Compliance Matrix: (Units=1/GPa)
#
#
# Indices 1 2 3 4 5 6 
#
# 1 0.026653 -0.008323 -0.008582 0.000000 0.000000 0.000000
# 2 -0.008323 0.021894 -0.001856 0.000000 0.000000 0.000000
# 3 -0.008582 -0.001856 0.013572 0.000000 0.000000 0.000000
# 4 0.000000 0.000000 0.000000 0.055602 0.000000 0.000000
# 5 0.000000 0.000000 0.000000 0.000000 0.047273 0.000000
# 6 0.000000 0.000000 0.000000 0.000000 0.000000 0.071431
#
#
# Mechanical properties :
#
#
# Convention : Reuss Voigt Hill
#
# Bulk Modulus (GPa) = 40.65619 44.40624 42.53121
# Shear Modulus (GPa) = 17.72117 19.18232 18.45174
#
# Velocity S-wave (km/s) = 3.54821 3.69159 3.62061
# Velocity P-wave (km/s) = 6.75796 7.05112 6.90610
#
# Compressibility (1/GPa) = 0.02459650
#
# Stress axis : x y z
#
# Youngs Moduli (GPa) = 37.51857 45.67391 73.67861
#
# Poissons Ratio (x) = 0.38015 0.63234
# Poissons Ratio (y) = 0.31227 0.13678
# Poissons Ratio (z) = 0.32200 0.08479
#
# Static dielectric constant tensor:
#      x y z
#    x 2.652470 0.000000 0.000000 
#    y 0.000000 2.881450 0.000000 
#    z 0.000000 0.000000 2.937540 
# 
# 
# High freq. dielectric constant tensor:
#      x y z
#    x 1.495950 0.000000 0.000000 
#    y 0.000000 1.552350 0.000000 
#    z 0.000000 0.000000 1.521940 
# 
# From -- ./inp_files/17434.got.cif
#   From: 2010.06.25/outbox.cif.g09.slc.cpg/sg71_9_cif.got.tgz:17434.got - 2010.06.28 04:59:45.
