data_PCOD8288741
_publ_section_title
;
Structure prediction by ZEFSAII (Michael W. Deem and Ramdas Pophale) SiO2 
 PCOD8288741
Probable space group: I M M M
;
_chemical_formula_sum "Si O2"
_cell_formula_units_Z 104
_cell_length_a 32.496344
_cell_length_b 9.486271
_cell_length_c 18.555195
_cell_angle_alpha 90.000000
_cell_angle_beta 90.000000
_cell_angle_gamma 90.000000
_cell_volume 5719.993740
_symmetry_space_group_name_H-M "I M M M"
_symmetry_group_IT_number 71
_symmetry_cell_setting 'orthorhombic'
loop_
_space_group_symop_operation_xyz
x,y,z
-x,-y,z
x,-y,-z
-x,y,-z
-x,-y,-z
x,y,-z
-x,y,z
x,-y,z
1/2+x,1/2+y,1/2+z
1/2-x,1/2-y,1/2+z
1/2+x,1/2-y,1/2-z
1/2-x,1/2+y,1/2-z
1/2-x,1/2-y,1/2-z
1/2+x,1/2+y,1/2-z
1/2-x,1/2+y,1/2+z
1/2+x,1/2-y,1/2+z
loop_
_atom_site_type_symbol
_atom_site_label
_atom_site_fract_x
_atom_site_fract_y
_atom_site_fract_z
Si Si1 0.737784 0.335033 0.079967
Si Si2 0.834241 0.164733 0.317137
Si Si3 0.110639 0.338722 0.918081
Si Si4 0.952230 0.162307 0.837922
Si Si5 0.688131 0.166499 0.677758
Si Si6 0.500000 0.668392 0.081264
Si Si7 0.427402 0.333115 0.181610
O O1 0.745947 0.500000 0.072662
O O2 0.692555 0.304745 0.111794
O O3 0.772607 0.274669 0.133513
O O4 0.740576 0.266153 0.000000
O O5 0.814105 0.252056 0.252688
O O6 0.880714 0.214828 0.335051
O O7 0.833410 0.000000 0.295789
O O8 0.098360 0.500000 0.905040
O O9 0.071156 0.245386 0.900206
O O10 0.148194 0.293416 0.867947
O O11 0.124272 0.312244 0.000000
O O12 0.940378 0.225582 0.759819
O O13 0.000000 0.182701 0.852380
O O14 0.938981 0.000000 0.842378
O O15 0.691502 0.000000 0.692999
O O16 0.500000 0.500000 0.080756
O O17 0.540963 0.726358 0.121644
O O18 0.500000 0.728013 0.000000
O O19 0.431548 0.500000 0.182023
#
# Coordination Sequence:
#
# PCOD8288741 Si02
#       7
#    16  16  16  16  16   8  16
#     4   9  18  32  50  74 103 133 165 205 254 303
#     4  10  19  31  52  77 101 129 165 210 253 296
#     4  10  21  35  51  73 100 130 167 210 251 292
#     4  10  19  33  53  72  99 136 167 199 247 303
#     4  10  19  33  53  74  99 133 170 205 247 302
#     4   9  16  26  44  72 104 135 166 202 247 297
#     4   9  16  28  45  69 100 131 161 199 246 290
#
# _framework density 18.181839
#
# number of rings (size 3 to 8) (size 9 to 14) (size 15 to 20)
#    0.000    2.385    2.308    0.923    0.000    3.385 
#    0.000    4.615    0.000    2.769    0.000    0.000 
#    0.000    3.077    0.000    0.000    0.000    0.000 
#
# Total GULP energy -644773.633753 kJ/mol
# GULP energy per Si atom -12399.492957 kJ/mol
# Density = 1.814046 g / cm^3
# Si number density = 18.181839 Si / 1000 Ang^3
#
#
#
# Elastic Constant Matrix: (Units=GPa)
#
#
# Indices 1 2 3 4 5 6 
#
# 1 116.4394 26.9245 49.7129 0.0000 0.0000 0.0000
# 2 26.9245 26.7281 23.3522 0.0000 0.0000 0.0000
# 3 49.7129 23.3522 103.7049 0.0000 0.0000 0.0000
# 4 0.0000 0.0000 0.0000 19.5433 0.0000 0.0000
# 5 0.0000 0.0000 0.0000 0.0000 26.9567 0.0000
# 6 0.0000 0.0000 0.0000 0.0000 0.0000 18.4168
#
#
#
# Elastic Compliance Matrix: (Units=1/GPa)
#
#
# Indices 1 2 3 4 5 6 
#
# 1 0.012333 -0.009036 -0.003877 0.000000 0.000000 0.000000
# 2 -0.009036 0.053198 -0.007647 0.000000 0.000000 0.000000
# 3 -0.003877 -0.007647 0.013223 0.000000 0.000000 0.000000
# 4 0.000000 0.000000 0.000000 0.051168 0.000000 0.000000
# 5 0.000000 0.000000 0.000000 0.000000 0.037096 0.000000
# 6 0.000000 0.000000 0.000000 0.000000 0.000000 0.054298
#
#
# Mechanical properties :
#
#
# Convention : Reuss Voigt Hill
#
# Bulk Modulus (GPa) = 26.57267 49.65018 38.11142
# Shear Modulus (GPa) = 18.18293 22.77555 20.47924
#
# Velocity S-wave (km/s) = 3.16580 3.54312 3.35977
# Velocity P-wave (km/s) = 5.29242 6.64117 6.00479
#
# Compressibility (1/GPa) = 0.03763265
#
# Stress axis : x y z
#
# Youngs Moduli (GPa) = 81.08348 18.79777 75.62315
#
# Poissons Ratio (x) = 0.16986 0.29322
# Poissons Ratio (y) = 0.73267 0.57832
# Poissons Ratio (z) = 0.31439 0.14375
#
# Static dielectric constant tensor:
#      x y z
#    x 3.533270 0.000000 0.000000 
#    y 0.000000 2.912450 0.000000 
#    z 0.000000 0.000000 3.455770 
# 
# 
# High freq. dielectric constant tensor:
#      x y z
#    x 1.720670 0.000000 0.000000 
#    y 0.000000 1.651480 0.000000 
#    z 0.000000 0.000000 1.708430 
# 
# From -- ./inp_files/49410.got.cif
#   From: 2010.06.25/outbox.cif.g09.slc.cpg/sg71_25_cif.got.tgz:49410.got - 2010.06.28 04:59:45.
