data_PCOD8288116
_publ_section_title
;
Structure prediction by ZEFSAII (Michael W. Deem and Ramdas Pophale) SiO2 
 PCOD8288116
Probable space group: I M M M
;
_chemical_formula_sum "Si O2"
_cell_formula_units_Z 88
_cell_length_a 9.151470
_cell_length_b 32.185074
_cell_length_c 20.172351
_cell_angle_alpha 90.000000
_cell_angle_beta 90.000000
_cell_angle_gamma 90.000000
_cell_volume 5941.579174
_symmetry_space_group_name_H-M "I M M M"
_symmetry_group_IT_number 71
_symmetry_cell_setting 'orthorhombic'
loop_
_space_group_symop_operation_xyz
x,y,z
-x,-y,z
x,-y,-z
-x,y,-z
-x,-y,-z
x,y,-z
-x,y,z
x,-y,z
1/2+x,1/2+y,1/2+z
1/2-x,1/2-y,1/2+z
1/2+x,1/2-y,1/2-z
1/2-x,1/2+y,1/2-z
1/2-x,1/2-y,1/2-z
1/2+x,1/2+y,1/2-z
1/2-x,1/2+y,1/2+z
1/2+x,1/2-y,1/2+z
loop_
_atom_site_type_symbol
_atom_site_label
_atom_site_fract_x
_atom_site_fract_y
_atom_site_fract_z
Si Si1 0.670642 0.548746 0.856292
Si Si2 0.328618 0.122765 0.695823
Si Si3 0.831392 0.318963 0.925137
Si Si4 0.665140 0.311607 0.275192
Si Si5 0.664640 0.747585 0.851250
Si Si6 0.672277 0.545179 0.000000
O O1 0.500000 0.556511 0.842867
O O2 0.708171 0.500000 0.848043
O O3 0.765016 0.575958 0.805264
O O4 0.716447 0.566106 0.930107
O O5 0.500000 0.121357 0.709345
O O6 0.288973 0.144765 0.626053
O O7 0.252747 0.146779 0.756422
O O8 0.738404 0.277508 0.911331
O O9 0.000000 0.306747 0.915820
O O10 0.798495 0.334471 0.000000
O O11 0.500000 0.323202 0.295701
O O12 0.665487 0.280672 0.213616
O O13 0.745183 0.289695 0.337190
O O14 0.500000 0.759572 0.871476
O O15 0.746800 0.500000 0.000000
O O16 0.500000 0.539087 0.000000
#
# Coordination Sequence:
#
# PCOD8288116 Si02
#       6
#    16  16  16  16  16   8
#     4   9  17  29  42  54  70  95 127 161 199 242
#     4  10  19  28  40  57  77  98 126 165 202 233
#     4   9  18  30  40  53  77 106 131 156 192 235
#     4   9  16  27  42  57  74  96 123 152 189 233
#     4   9  16  26  41  59  76  94 121 156 191 226
#     4   7  12  24  39  51  63  85 119 155 189 229
#
# _framework density 14.810878000000001
#
# number of rings (size 3 to 8) (size 9 to 14) (size 15 to 20)
#    0.000    3.000    0.000    2.727    1.273    5.818 
#    0.000    0.000    0.000    1.636    0.000    0.000 
#    0.000    0.000    0.000    0.000    0.000    0.909 
#
# Total GULP energy -545268.013680 kJ/mol
# GULP energy per Si atom -12392.454856 kJ/mol
# Density = 1.477717 g / cm^3
# Si number density = 14.810878 Si / 1000 Ang^3
#
#
#
# Elastic Constant Matrix: (Units=GPa)
#
#
# Indices 1 2 3 4 5 6 
#
# 1 85.6621 45.1420 13.8844 0.0000 0.0000 0.0000
# 2 45.1420 77.0838 16.6756 0.0000 0.0000 0.0000
# 3 13.8844 16.6756 14.3425 0.0001 0.0000 0.0000
# 4 0.0000 0.0000 0.0001 19.2250 0.0000 0.0000
# 5 0.0000 0.0000 0.0000 0.0000 16.5977 0.0000
# 6 0.0000 0.0000 0.0000 0.0000 0.0000 24.5787
#
#
#
# Elastic Compliance Matrix: (Units=1/GPa)
#
#
# Indices 1 2 3 4 5 6 
#
# 1 0.017347 -0.008719 -0.006656 0.000000 0.000000 0.000000
# 2 -0.008719 0.021715 -0.016807 0.000000 0.000000 0.000000
# 3 -0.006656 -0.016807 0.095707 -0.000001 0.000000 0.000000
# 4 0.000000 0.000000 -0.000001 0.052015 0.000000 0.000000
# 5 0.000000 0.000000 0.000000 0.000000 0.060249 0.000000
# 6 0.000000 0.000000 0.000000 0.000000 0.000000 0.040686
#
#
# Mechanical properties :
#
#
# Convention : Reuss Voigt Hill
#
# Bulk Modulus (GPa) = 14.20335 36.49916 25.35125
# Shear Modulus (GPa) = 13.31376 18.83937 16.07656
#
# Velocity S-wave (km/s) = 3.00145 3.57037 3.29820
# Velocity P-wave (km/s) = 4.64997 6.45707 5.62654
#
# Compressibility (1/GPa) = 0.07040593
#
# Stress axis : x y z
#
# Youngs Moduli (GPa) = 57.64560 46.05157 10.44858
#
# Poissons Ratio (x) = 0.40153 0.06954
# Poissons Ratio (y) = 0.50262 0.17560
# Poissons Ratio (z) = 0.38368 0.77397
#
# Static dielectric constant tensor:
#      x y z
#    x 2.904250 0.000000 0.000000 
#    y 0.000000 2.710040 0.000000 
#    z 0.000000 0.000000 2.564090 
# 
# 
# High freq. dielectric constant tensor:
#      x y z
#    x 1.574530 0.000000 0.000000 
#    y 0.000000 1.546320 0.000000 
#    z 0.000000 0.000000 1.512050 
# 
# From -- ./inp_files/11373.got.cif
#   From: 2010.06.25/outbox.cif.g09.slc.cpg/sg71_6_cif.got.tgz:11373.got - 2010.06.28 04:59:45.
