data_PCOD8288934
_publ_section_title
;
Structure prediction by ZEFSAII (Michael W. Deem and Ramdas Pophale) SiO2 
 PCOD8288934
Probable space group: I M M M
;
_chemical_formula_sum "Si O2"
_cell_formula_units_Z 112
_cell_length_a 20.497028
_cell_length_b 10.585088
_cell_length_c 27.202875
_cell_angle_alpha 90.000000
_cell_angle_beta 90.000000
_cell_angle_gamma 90.000000
_cell_volume 5902.013155
_symmetry_space_group_name_H-M "I M M M"
_symmetry_group_IT_number 71
_symmetry_cell_setting 'orthorhombic'
loop_
_space_group_symop_operation_xyz
x,y,z
-x,-y,z
x,-y,-z
-x,y,-z
-x,-y,-z
x,y,-z
-x,y,z
x,-y,z
1/2+x,1/2+y,1/2+z
1/2-x,1/2-y,1/2+z
1/2+x,1/2-y,1/2-z
1/2-x,1/2+y,1/2-z
1/2-x,1/2-y,1/2-z
1/2+x,1/2+y,1/2-z
1/2-x,1/2+y,1/2+z
1/2+x,1/2-y,1/2+z
loop_
_atom_site_type_symbol
_atom_site_label
_atom_site_fract_x
_atom_site_fract_y
_atom_site_fract_z
Si Si1 0.236565 0.363538 0.844341
Si Si2 0.426724 0.354730 0.599045
Si Si3 0.196118 0.726517 0.055884
Si Si4 0.651046 0.358324 0.694237
Si Si5 0.572621 0.144006 0.867799
Si Si6 0.827147 0.646069 0.447149
Si Si7 0.619994 0.359143 0.193125
O O1 0.215652 0.500000 0.821386
O O2 0.215384 0.373652 0.901956
O O3 0.205364 0.245893 0.816456
O O4 0.313216 0.346352 0.837200
O O5 0.500000 0.300846 0.591385
O O6 0.424121 0.500000 0.582893
O O7 0.376380 0.279877 0.564520
O O8 0.408690 0.338953 0.656495
O O9 0.250498 0.835447 0.064508
O O10 0.199071 0.671029 0.000000
O O11 0.680762 0.500000 0.687547
O O12 0.627121 0.338986 0.749029
O O13 0.500000 0.143063 0.890447
O O14 0.623575 0.201815 0.907046
O O15 0.573335 0.244267 0.823158
O O16 0.591097 0.000000 0.850856
O O17 0.843055 0.709763 0.500000
O O18 0.842136 0.500000 0.449875
O O19 0.590378 0.500000 0.183426
#
# Coordination Sequence:
#
# PCOD8288934 Si02
#       7
#    16  16  16  16  16  16  16
#     4  10  20  34  53  80 111 140 177 225 276 324
#     4   9  18  32  50  77 112 143 176 223 274 321
#     4  10  19  32  52  76 104 142 183 223 269 324
#     4   9  19  34  55  80 106 141 183 223 269 322
#     4  10  21  35  52  78 110 142 178 222 273 326
#     4   9  17  31  52  76 101 134 179 227 272 321
#     4  10  20  35  54  79 109 143 183 224 270 327
#
# _framework density 18.976576000000001
#
# number of rings (size 3 to 8) (size 9 to 14) (size 15 to 20)
#    0.000    2.429    1.429    0.857    0.000    4.286 
#    0.000    3.571    0.000    7.286    0.000    5.000 
#    0.000    0.000    0.000    0.000    0.000    0.000 
#
# Total GULP energy -693747.789793 kJ/mol
# GULP energy per Si atom -12388.353389 kJ/mol
# Density = 1.893338 g / cm^3
# Si number density = 18.976576 Si / 1000 Ang^3
#
#
#
# Elastic Constant Matrix: (Units=GPa)
#
#
# Indices 1 2 3 4 5 6 
#
# 1 89.5827 30.9077 35.2049 0.0000 0.0000 0.0000
# 2 30.9077 92.1289 35.9702 0.0000 0.0000 0.0000
# 3 35.2049 35.9702 82.7847 0.0000 0.0000 0.0000
# 4 0.0000 0.0000 0.0000 17.9479 0.0000 0.0000
# 5 0.0000 0.0000 0.0000 0.0000 16.4922 0.0000
# 6 0.0000 0.0000 0.0000 0.0000 0.0000 20.4198
#
#
#
# Elastic Compliance Matrix: (Units=1/GPa)
#
#
# Indices 1 2 3 4 5 6 
#
# 1 0.014001 -0.002857 -0.004712 0.000000 0.000000 0.000000
# 2 -0.002857 0.013655 -0.004718 0.000000 0.000000 0.000000
# 3 -0.004712 -0.004718 0.016134 0.000000 0.000000 0.000000
# 4 0.000000 0.000000 0.000000 0.055717 0.000000 0.000000
# 5 0.000000 0.000000 0.000000 0.000000 0.060635 0.000000
# 6 0.000000 0.000000 0.000000 0.000000 0.000000 0.048972
#
#
# Mechanical properties :
#
#
# Convention : Reuss Voigt Hill
#
# Bulk Modulus (GPa) = 52.04590 52.07354 52.05972
# Shear Modulus (GPa) = 20.82530 21.79955 21.31242
#
# Velocity S-wave (km/s) = 3.31633 3.39301 3.35489
# Velocity P-wave (km/s) = 6.49230 6.54604 6.51922
#
# Compressibility (1/GPa) = 0.01921381
#
# Stress axis : x y z
#
# Youngs Moduli (GPa) = 71.42581 73.23340 61.98246
#
# Poissons Ratio (x) = 0.20923 0.29209
# Poissons Ratio (y) = 0.20407 0.29244
# Poissons Ratio (z) = 0.33659 0.34553
#
# Static dielectric constant tensor:
#      x y z
#    x 3.372490 0.000000 0.000000 
#    y 0.000000 3.455780 0.000000 
#    z 0.000000 0.000000 3.650580 
# 
# 
# High freq. dielectric constant tensor:
#      x y z
#    x 1.725450 0.000000 0.000000 
#    y 0.000000 1.723300 0.000000 
#    z 0.000000 0.000000 1.738900 
# 
# From -- ./inp_files/66582.got.cif
#   From: 2010.06.25/outbox.cif.g09.slc.cpg/sg71_34_cif.got.tgz:66582.got - 2010.06.28 04:59:45.
