data_PCOD8288012
_publ_section_title
;
Structure prediction by ZEFSAII (Michael W. Deem and Ramdas Pophale) SiO2 
 PCOD8288012
Probable space group: I M M M
;
_chemical_formula_sum "Si O2"
_cell_formula_units_Z 88
_cell_length_a 10.601157
_cell_length_b 15.184799
_cell_length_c 29.038613
_cell_angle_alpha 90.000000
_cell_angle_beta 90.000000
_cell_angle_gamma 90.000000
_cell_volume 4674.532491
_symmetry_space_group_name_H-M "I M M M"
_symmetry_group_IT_number 71
_symmetry_cell_setting 'orthorhombic'
loop_
_space_group_symop_operation_xyz
x,y,z
-x,-y,z
x,-y,-z
-x,y,-z
-x,-y,-z
x,y,-z
-x,y,z
x,-y,z
1/2+x,1/2+y,1/2+z
1/2-x,1/2-y,1/2+z
1/2+x,1/2-y,1/2-z
1/2-x,1/2+y,1/2-z
1/2-x,1/2-y,1/2-z
1/2+x,1/2+y,1/2-z
1/2-x,1/2+y,1/2+z
1/2+x,1/2-y,1/2+z
loop_
_atom_site_type_symbol
_atom_site_label
_atom_site_fract_x
_atom_site_fract_y
_atom_site_fract_z
Si Si1 0.851522 0.335111 0.594853
Si Si2 0.355441 0.500000 0.158291
Si Si3 0.349631 0.000000 0.155032
Si Si4 0.215319 0.500000 0.753836
Si Si5 0.790956 0.332577 0.875684
Si Si6 0.150774 0.401579 0.500000
Si Si7 0.000000 0.395110 0.945171
Si Si8 0.638134 0.806154 0.725173
O O1 0.807393 0.413571 0.627836
O O2 0.807045 0.241630 0.611276
O O3 0.794895 0.351921 0.544342
O O4 0.000000 0.334936 0.592836
O O5 0.500000 0.500000 0.145002
O O6 0.340053 0.500000 0.214056
O O7 0.290595 0.416870 0.135847
O O8 0.259347 0.000000 0.199607
O O9 0.500000 0.000000 0.166691
O O10 0.139872 0.589794 0.764109
O O11 0.861369 0.297314 0.830140
O O12 0.880159 0.353640 0.919071
O O13 0.204117 0.500000 0.500000
O O14 0.000000 0.403814 0.500000
O O15 0.000000 0.500000 0.938562
O O16 0.000000 0.371164 0.000000
O O17 0.500000 0.771048 0.742201
O O18 0.750000 0.750000 0.750000
#
# Coordination Sequence:
#
# PCOD8288012 Si02
#       8
#    16   8   8   8  16   8   8  16
#     4  10  20  33  56  87 122 154 192 243 302 360
#     4  10  22  39  61  90 121 155 190 244 315 375
#     4  10  18  33  54  84 120 158 202 244 288 351
#     4  10  22  36  59  83 116 162 204 241 294 367
#     4  11  22  39  63  87 121 158 203 253 304 368
#     4   9  16  32  54  84 117 152 192 238 289 354
#     4  11  24  44  68  89 113 157 219 268 309 365
#     4  11  23  39  61  90 125 163 209 259 308 370
#
# _framework density 18.825412
#
# number of rings (size 3 to 8) (size 9 to 14) (size 15 to 20)
#    0.000    1.636    2.727    2.455    1.273    5.091 
#    0.000    0.000    0.000    0.545    0.000    1.273 
#    0.000    0.000    0.000    0.000    0.000    0.000 
#
# Total GULP energy -545251.617807 kJ/mol
# GULP energy per Si atom -12392.082223 kJ/mol
# Density = 1.878256 g / cm^3
# Si number density = 18.825412 Si / 1000 Ang^3
#
#
#
# Elastic Constant Matrix: (Units=GPa)
#
#
# Indices 1 2 3 4 5 6 
#
# 1 79.2514 26.1803 36.6576 0.0000 0.0000 0.0000
# 2 26.1803 117.9441 54.6622 0.0000 0.0000 0.0000
# 3 36.6576 54.6622 162.7183 0.0000 0.0000 0.0000
# 4 0.0000 0.0000 0.0000 50.6616 0.0000 0.0000
# 5 0.0000 0.0000 0.0000 0.0000 23.2937 0.0000
# 6 0.0000 0.0000 0.0000 0.0000 0.0000 74.7651
#
#
#
# Elastic Compliance Matrix: (Units=1/GPa)
#
#
# Indices 1 2 3 4 5 6 
#
# 1 0.014480 -0.002016 -0.002585 0.000000 0.000000 0.000000
# 2 -0.002016 0.010323 -0.003014 0.000000 0.000000 0.000000
# 3 -0.002585 -0.003014 0.007740 0.000000 0.000000 0.000000
# 4 0.000000 0.000000 0.000000 0.019739 0.000000 0.000000
# 5 0.000000 0.000000 0.000000 0.000000 0.042930 0.000000
# 6 0.000000 0.000000 0.000000 0.000000 0.000000 0.013375
#
#
# Mechanical properties :
#
#
# Convention : Reuss Voigt Hill
#
# Bulk Modulus (GPa) = 57.75737 66.10156 61.92946
# Shear Modulus (GPa) = 38.58413 45.90499 42.24456
#
# Velocity S-wave (km/s) = 4.53214 4.94343 4.74225
# Velocity P-wave (km/s) = 7.62458 8.23241 7.93431
#
# Compressibility (1/GPa) = 0.01731381
#
# Stress axis : x y z
#
# Youngs Moduli (GPa) = 69.06236 96.87314 129.19521
#
# Poissons Ratio (x) = 0.19531 0.33393
# Poissons Ratio (y) = 0.13924 0.38933
# Poissons Ratio (z) = 0.17851 0.29193
#
# Static dielectric constant tensor:
#      x y z
#    x 3.149480 0.000000 0.000000 
#    y 0.000000 3.551740 0.000000 
#    z 0.000000 0.000000 3.871180 
# 
# 
# High freq. dielectric constant tensor:
#      x y z
#    x 1.700110 0.000000 0.000000 
#    y 0.000000 1.742760 0.000000 
#    z 0.000000 0.000000 1.746530 
# 
# From -- ./inp_files/64506.got.cif
#   From: 2010.06.25/outbox.cif.g09.slc.cpg/sg71_33_cif.got.tgz:64506.got - 2010.06.28 04:59:45.
