data_PCOD8288167
_publ_section_title
;
Structure prediction by ZEFSAII (Michael W. Deem and Ramdas Pophale) SiO2 
 PCOD8288167
Probable space group: I M M M
;
_chemical_formula_sum "Si O2"
_cell_formula_units_Z 96
_cell_length_a 18.510567
_cell_length_b 25.474233
_cell_length_c 13.770327
_cell_angle_alpha 90.000000
_cell_angle_beta 90.000000
_cell_angle_gamma 90.000000
_cell_volume 6493.294374
_symmetry_space_group_name_H-M "I M M M"
_symmetry_group_IT_number 71
_symmetry_cell_setting 'orthorhombic'
loop_
_space_group_symop_operation_xyz
x,y,z
-x,-y,z
x,-y,-z
-x,y,-z
-x,-y,-z
x,y,-z
-x,y,z
x,-y,z
1/2+x,1/2+y,1/2+z
1/2-x,1/2-y,1/2+z
1/2+x,1/2-y,1/2-z
1/2-x,1/2+y,1/2-z
1/2-x,1/2-y,1/2-z
1/2+x,1/2+y,1/2-z
1/2-x,1/2+y,1/2+z
1/2+x,1/2-y,1/2+z
loop_
_atom_site_type_symbol
_atom_site_label
_atom_site_fract_x
_atom_site_fract_y
_atom_site_fract_z
Si Si1 0.673807 0.120569 0.608817
Si Si2 0.084512 0.640053 0.710333
Si Si3 0.083168 0.748645 0.387322
Si Si4 0.173449 0.153251 0.610019
Si Si5 0.311381 0.939887 0.889421
Si Si6 0.216928 0.058697 0.713040
O O1 0.643426 0.113183 0.500000
O O2 0.608247 0.138135 0.677235
O O3 0.739555 0.163516 0.611399
O O4 0.709717 0.066163 0.648142
O O5 0.105702 0.697188 0.671139
O O6 0.123397 0.596683 0.645056
O O7 0.000000 0.629197 0.702236
O O8 0.099288 0.737955 0.500000
O O9 0.131554 0.796690 0.347446
O O10 0.000000 0.763459 0.369785
O O11 0.147073 0.141518 0.500000
O O12 0.157314 0.101526 0.677238
O O13 0.239269 0.930609 0.825020
O O14 0.337514 0.000000 0.878605
O O15 0.290870 0.926284 0.000000
O O16 0.186422 0.000000 0.698410
#
# Coordination Sequence:
#
# PCOD8288167 Si02
#       6
#    16  16  16  16  16  16
#     4   8  16  28  41  61  82 104 137 173 205 234
#     4  10  19  29  42  59  80 112 146 170 200 241
#     4   9  17  29  44  62  85 110 135 164 200 246
#     4   8  15  27  44  64  82 106 136 166 202 239
#     4   9  17  29  43  60  84 109 135 171 209 241
#     4   8  14  26  44  63  82 106 135 165 199 245
#
# _framework density 14.784484000000001
#
# number of rings (size 3 to 8) (size 9 to 14) (size 15 to 20)
#    1.000    2.333    0.000    0.500    0.000    3.667 
#    0.000    0.833    0.000    0.500    0.000    7.000 
#    0.000    0.000    0.000    4.167    0.000    0.000 
#
# Total GULP energy -594643.659321 kJ/mol
# GULP energy per Si atom -12388.409569 kJ/mol
# Density = 1.475083 g / cm^3
# Si number density = 14.784484 Si / 1000 Ang^3
#
#
#
# Elastic Constant Matrix: (Units=GPa)
#
#
# Indices 1 2 3 4 5 6 
#
# 1 21.4483 25.8787 17.6925 0.0000 0.0000 0.0000
# 2 25.8787 89.7565 46.4520 0.0000 0.0000 0.0000
# 3 17.6925 46.4520 102.7795 0.0000 0.0000 0.0000
# 4 0.0000 0.0000 0.0000 19.4730 0.0000 0.0000
# 5 0.0000 0.0000 0.0000 0.0000 16.4862 0.0000
# 6 0.0000 0.0000 0.0000 0.0000 0.0000 14.9752
#
#
#
# Elastic Compliance Matrix: (Units=1/GPa)
#
#
# Indices 1 2 3 4 5 6 
#
# 1 0.072716 -0.018911 -0.003970 0.000000 0.000000 0.000000
# 2 -0.018911 0.019461 -0.005540 0.000000 0.000000 0.000000
# 3 -0.003970 -0.005540 0.012917 0.000000 0.000000 0.000000
# 4 0.000000 0.000000 0.000000 0.051353 0.000000 0.000000
# 5 0.000000 0.000000 0.000000 0.000000 0.060657 0.000000
# 6 0.000000 0.000000 0.000000 0.000000 0.000000 0.066777
#
#
# Mechanical properties :
#
#
# Convention : Reuss Voigt Hill
#
# Bulk Modulus (GPa) = 20.72501 43.78119 32.25310
# Shear Modulus (GPa) = 14.01318 18.45095 16.23206
#
# Velocity S-wave (km/s) = 3.08202 3.53653 3.31707
# Velocity P-wave (km/s) = 5.16853 6.80832 6.04429
#
# Compressibility (1/GPa) = 0.04825088
#
# Stress axis : x y z
#
# Youngs Moduli (GPa) = 13.75218 51.38522 77.41751
#
# Poissons Ratio (x) = 0.97173 0.30738
# Poissons Ratio (y) = 0.26006 0.42891
# Poissons Ratio (z) = 0.05460 0.28468
#
# Static dielectric constant tensor:
#      x y z
#    x 2.533340 0.000000 0.000000 
#    y 0.000000 2.826390 0.000000 
#    z 0.000000 0.000000 2.921710 
# 
# 
# High freq. dielectric constant tensor:
#      x y z
#    x 1.525560 0.000000 0.000000 
#    y 0.000000 1.560410 0.000000 
#    z 0.000000 0.000000 1.568220 
# 
# From -- ./inp_files/26158.got.cif
#   From: 2010.06.25/outbox.cif.g09.slc.cpg/sg71_14_cif.got.tgz:26158.got - 2010.06.28 04:59:45.
