data_PCOD8288176
_publ_section_title
;
Structure prediction by ZEFSAII (Michael W. Deem and Ramdas Pophale) SiO2 
 PCOD8288176
Probable space group: I M M M
;
_chemical_formula_sum "Si O2"
_cell_formula_units_Z 128
_cell_length_a 24.000894
_cell_length_b 18.919894
_cell_length_c 17.947212
_cell_angle_alpha 90.000000
_cell_angle_beta 90.000000
_cell_angle_gamma 90.000000
_cell_volume 8149.727933
_symmetry_space_group_name_H-M "I M M M"
_symmetry_group_IT_number 71
_symmetry_cell_setting 'orthorhombic'
loop_
_space_group_symop_operation_xyz
x,y,z
-x,-y,z
x,-y,-z
-x,y,-z
-x,-y,-z
x,y,-z
-x,y,z
x,-y,z
1/2+x,1/2+y,1/2+z
1/2-x,1/2-y,1/2+z
1/2+x,1/2-y,1/2-z
1/2-x,1/2+y,1/2-z
1/2-x,1/2-y,1/2-z
1/2+x,1/2+y,1/2-z
1/2-x,1/2+y,1/2+z
1/2+x,1/2-y,1/2+z
loop_
_atom_site_type_symbol
_atom_site_label
_atom_site_fract_x
_atom_site_fract_y
_atom_site_fract_z
Si Si1 0.939055 0.079357 0.588674
Si Si2 0.868556 0.920802 0.914558
Si Si3 0.335304 0.801130 0.586440
Si Si4 0.561766 0.288673 0.588104
Si Si5 0.772342 0.710462 0.414488
Si Si6 0.831282 0.847168 0.411844
Si Si7 0.231644 0.580447 0.840269
Si Si8 0.745831 0.579174 0.330563
O O1 0.935901 0.078480 0.500000
O O2 0.891257 0.130422 0.621744
O O3 0.000000 0.106798 0.614653
O O4 0.929155 0.000000 0.618686
O O5 0.916264 0.866364 0.888756
O O6 0.816926 0.912564 0.859190
O O7 0.893345 0.000000 0.909095
O O8 0.848966 0.904758 0.000000
O O9 0.336922 0.824579 0.500000
O O10 0.395019 0.771906 0.614928
O O11 0.290842 0.737845 0.596502
O O12 0.319465 0.868831 0.636389
O O13 0.557831 0.284773 0.500000
O O14 0.500000 0.276509 0.623008
O O15 0.785761 0.695666 0.500000
O O16 0.814127 0.769953 0.381068
O O17 0.783719 0.637514 0.371397
O O18 0.833270 0.843765 0.500000
O O19 0.785105 0.905112 0.391483
O O20 0.211796 0.500000 0.851498
O O21 0.251146 0.595393 0.756504
O O22 0.768118 0.500000 0.348409
#
# Coordination Sequence:
#
# PCOD8288176 Si02
#       8
#    16  16  16  16  16  16  16  16
#     4   8  13  22  38  60  85 112 140 169 201 238
#     4   9  16  27  44  64  89 120 148 178 216 257
#     4   9  17  29  44  64  89 117 147 179 222 265
#     4   9  16  27  44  65  88 113 147 188 220 256
#     4   9  16  28  44  63  86 112 141 173 215 260
#     4   9  17  27  42  64  87 111 143 178 208 249
#     4  10  20  30  42  63  87 114 146 179 218 260
#     4  10  19  29  42  63  88 114 145 176 212 260
#
# _framework density 15.706046000000001
#
# number of rings (size 3 to 8) (size 9 to 14) (size 15 to 20)
#    0.000    2.875    1.250    2.250    0.000    4.500 
#    0.000    1.250    0.000    1.125    0.000    3.500 
#    0.000    1.500    0.000    4.875    0.000    0.125 
#
# Total GULP energy -793190.472897 kJ/mol
# GULP energy per Si atom -12393.601139 kJ/mol
# Density = 1.567030 g / cm^3
# Si number density = 15.706046 Si / 1000 Ang^3
#
#
#
# Elastic Constant Matrix: (Units=GPa)
#
#
# Indices 1 2 3 4 5 6 
#
# 1 117.1774 66.8882 22.7220 0.0000 0.0000 0.0000
# 2 66.8882 113.7020 32.8207 0.0000 0.0000 0.0000
# 3 22.7220 32.8207 28.1522 0.0000 0.0000 0.0000
# 4 0.0000 0.0000 0.0000 21.3186 0.0000 0.0000
# 5 0.0000 0.0000 0.0000 0.0000 7.0306 0.0000
# 6 0.0000 0.0000 0.0000 0.0000 0.0000 24.6446
#
#
#
# Elastic Compliance Matrix: (Units=1/GPa)
#
#
# Indices 1 2 3 4 5 6 
#
# 1 0.012953 -0.006936 -0.002368 0.000000 0.000000 0.000000
# 2 -0.006936 0.016970 -0.014186 0.000000 0.000000 0.000000
# 3 -0.002368 -0.014186 0.053971 0.000000 0.000000 0.000000
# 4 0.000000 0.000000 0.000000 0.046907 0.000000 0.000000
# 5 0.000000 0.000000 0.000000 0.000000 0.142234 0.000000
# 6 0.000000 0.000000 0.000000 0.000000 0.000000 0.040577
#
#
# Mechanical properties :
#
#
# Convention : Reuss Voigt Hill
#
# Bulk Modulus (GPa) = 27.09033 55.98815 41.53924
# Shear Modulus (GPa) = 13.40852 19.70547 16.55700
#
# Velocity S-wave (km/s) = 2.92501 3.54594 3.25034
# Velocity P-wave (km/s) = 5.35662 7.24498 6.37115
#
# Compressibility (1/GPa) = 0.03691354
#
# Stress axis : x y z
#
# Youngs Moduli (GPa) = 77.20454 58.92673 18.52852
#
# Poissons Ratio (x) = 0.40873 0.04387
# Poissons Ratio (y) = 0.53551 0.26285
# Poissons Ratio (z) = 0.18280 0.83594
#
# Static dielectric constant tensor:
#      x y z
#    x 3.125310 0.000000 0.000000 
#    y 0.000000 3.174170 0.000000 
#    z 0.000000 0.000000 2.748980 
# 
# 
# High freq. dielectric constant tensor:
#      x y z
#    x 1.576200 0.000000 0.000000 
#    y 0.000000 1.604340 0.000000 
#    z 0.000000 0.000000 1.575720 
# 
# From -- ./inp_files/48486.got.cif
#   From: 2010.06.25/outbox.cif.g09.slc.cpg/sg71_25_cif.got.tgz:48486.got - 2010.06.28 04:59:45.
