data_PCOD8288262
_publ_section_title
;
Structure prediction by ZEFSAII (Michael W. Deem and Ramdas Pophale) SiO2 
 PCOD8288262
Probable space group: I M M M
;
_chemical_formula_sum "Si O2"
_cell_formula_units_Z 88
_cell_length_a 8.198408
_cell_length_b 23.435525
_cell_length_c 35.911732
_cell_angle_alpha 90.000000
_cell_angle_beta 90.000000
_cell_angle_gamma 90.000000
_cell_volume 6899.864560
_symmetry_space_group_name_H-M "I M M M"
_symmetry_group_IT_number 71
_symmetry_cell_setting 'orthorhombic'
loop_
_space_group_symop_operation_xyz
x,y,z
-x,-y,z
x,-y,-z
-x,y,-z
-x,-y,-z
x,y,-z
-x,y,z
x,-y,z
1/2+x,1/2+y,1/2+z
1/2-x,1/2-y,1/2+z
1/2+x,1/2-y,1/2-z
1/2-x,1/2+y,1/2-z
1/2-x,1/2-y,1/2-z
1/2+x,1/2+y,1/2-z
1/2-x,1/2+y,1/2+z
1/2+x,1/2-y,1/2+z
loop_
_atom_site_type_symbol
_atom_site_label
_atom_site_fract_x
_atom_site_fract_y
_atom_site_fract_z
Si Si1 0.184065 0.882238 0.340147
Si Si2 0.500000 0.432295 0.041759
Si Si3 0.821648 0.724197 0.193867
Si Si4 0.192722 0.564373 0.765813
Si Si5 0.315885 0.066809 0.412198
Si Si6 0.319499 0.170347 0.775064
O O1 0.203152 0.814797 0.331087
O O2 0.219880 0.920897 0.304281
O O3 0.304037 0.900437 0.373099
O O4 0.000000 0.893675 0.353143
O O5 0.500000 0.500000 0.040879
O O6 0.669135 0.411012 0.061072
O O7 0.500000 0.407262 0.000000
O O8 0.776407 0.791553 0.194671
O O9 0.820064 0.701801 0.235681
O O10 0.000000 0.718640 0.176094
O O11 0.235424 0.500000 0.753940
O O12 0.254520 0.606894 0.732655
O O13 0.000000 0.573847 0.771847
O O14 0.500000 0.078338 0.428495
O O15 0.292258 0.000000 0.404540
O O16 0.500000 0.164495 0.791451
#
# Coordination Sequence:
#
# PCOD8288262 Si02
#       6
#    16   8  16  16  16  16
#     4  11  19  26  37  53  72  91 114 144 181 223
#     4   9  18  32  46  60  76  94 120 146 171 213
#     4   9  16  25  36  48  63  85 111 139 174 215
#     4   9  17  27  37  49  66  89 115 144 181 223
#     4  10  19  30  43  58  77  97 116 144 181 217
#     4   8  14  24  35  47  63  83 110 141 173 211
#
# _framework density 12.753873
#
# number of rings (size 3 to 8) (size 9 to 14) (size 15 to 20)
#    0.000    2.636    0.909    3.818    0.000    7.273 
#    0.000    1.818    0.000    0.000    0.000    0.000 
#    0.000    0.000    0.000    0.000    0.000    0.000 
#
# Total GULP energy -545136.441919 kJ/mol
# GULP energy per Si atom -12389.464589 kJ/mol
# Density = 1.272484 g / cm^3
# Si number density = 12.753873 Si / 1000 Ang^3
#
#
#
# Elastic Constant Matrix: (Units=GPa)
#
#
# Indices 1 2 3 4 5 6 
#
# 1 72.5572 22.1805 18.9797 0.0000 0.0000 0.0000
# 2 22.1805 79.9377 26.0744 0.0000 0.0000 0.0000
# 3 18.9797 26.0744 31.6705 0.0000 0.0000 0.0000
# 4 0.0000 0.0000 0.0000 8.4521 0.0000 0.0000
# 5 0.0000 0.0000 0.0000 0.0000 13.3321 0.0000
# 6 0.0000 0.0000 0.0000 0.0000 0.0000 14.6089
#
#
#
# Elastic Compliance Matrix: (Units=1/GPa)
#
#
# Indices 1 2 3 4 5 6 
#
# 1 0.016543 -0.001854 -0.008387 0.000000 0.000000 0.000000
# 2 -0.001854 0.017310 -0.013140 0.000000 0.000000 0.000000
# 3 -0.008387 -0.013140 0.047420 0.000000 0.000000 0.000000
# 4 0.000000 0.000000 0.000000 0.118314 0.000000 0.000000
# 5 0.000000 0.000000 0.000000 0.000000 0.075007 0.000000
# 6 0.000000 0.000000 0.000000 0.000000 0.000000 0.068451
#
#
# Mechanical properties :
#
#
# Convention : Reuss Voigt Hill
#
# Bulk Modulus (GPa) = 28.97769 35.40384 32.19076
# Shear Modulus (GPa) = 12.45909 15.07400 13.76655
#
# Velocity S-wave (km/s) = 3.12891 3.44163 3.28899
# Velocity P-wave (km/s) = 5.98527 6.60399 6.30223
#
# Compressibility (1/GPa) = 0.03450931
#
# Stress axis : x y z
#
# Youngs Moduli (GPa) = 60.44816 57.76850 21.08815
#
# Poissons Ratio (x) = 0.10713 0.17687
# Poissons Ratio (y) = 0.11210 0.27711
# Poissons Ratio (z) = 0.50700 0.75910
#
# Static dielectric constant tensor:
#      x y z
#    x 2.771320 0.000000 0.000000 
#    y 0.000000 2.714200 0.000000 
#    z 0.000000 0.000000 2.259750 
# 
# 
# High freq. dielectric constant tensor:
#      x y z
#    x 1.499590 0.000000 0.000000 
#    y 0.000000 1.467240 0.000000 
#    z 0.000000 0.000000 1.424470 
# 
# From -- ./inp_files/13504.got.cif
#   From: 2010.06.25/outbox.cif.g09.slc.cpg/sg71_7_cif.got.tgz:13504.got - 2010.06.28 04:59:45.
