data_PCOD8288370
_publ_section_title
;
Structure prediction by ZEFSAII (Michael W. Deem and Ramdas Pophale) SiO2 
 PCOD8288370
Probable space group: I M M M
;
_chemical_formula_sum "Si O2"
_cell_formula_units_Z 112
_cell_length_a 15.617711
_cell_length_b 13.429915
_cell_length_c 31.709550
_cell_angle_alpha 90.000000
_cell_angle_beta 90.000000
_cell_angle_gamma 90.000000
_cell_volume 6650.904700
_symmetry_space_group_name_H-M "I M M M"
_symmetry_group_IT_number 71
_symmetry_cell_setting 'orthorhombic'
loop_
_space_group_symop_operation_xyz
x,y,z
-x,-y,z
x,-y,-z
-x,y,-z
-x,-y,-z
x,y,-z
-x,y,z
x,-y,z
1/2+x,1/2+y,1/2+z
1/2-x,1/2-y,1/2+z
1/2+x,1/2-y,1/2-z
1/2-x,1/2+y,1/2-z
1/2-x,1/2-y,1/2-z
1/2+x,1/2+y,1/2-z
1/2-x,1/2+y,1/2+z
1/2+x,1/2-y,1/2+z
loop_
_atom_site_type_symbol
_atom_site_label
_atom_site_fract_x
_atom_site_fract_y
_atom_site_fract_z
Si Si1 0.904798 0.618920 0.112367
Si Si2 0.735115 0.881947 0.546851
Si Si3 0.907185 0.885652 0.241691
Si Si4 0.355668 0.703613 0.175096
Si Si5 0.683159 0.114197 0.306590
Si Si6 0.093845 0.885272 0.408097
Si Si7 0.722624 0.883254 0.214143
O O1 0.897540 0.500000 0.112812
O O2 0.836756 0.662448 0.078564
O O3 0.884949 0.659769 0.159915
O O4 0.000000 0.653903 0.099450
O O5 0.718627 0.838579 0.500000
O O6 0.830752 0.849763 0.560783
O O7 0.727796 0.000000 0.545848
O O8 0.912214 0.821144 0.284184
O O9 0.825009 0.858163 0.212661
O O10 0.000000 0.870347 0.218495
O O11 0.894750 0.000000 0.255419
O O12 0.275778 0.628335 0.172770
O O13 0.408517 0.686280 0.132716
O O14 0.322769 0.818620 0.177877
O O15 0.683875 0.157931 0.258976
O O16 0.662081 0.000000 0.300696
O O17 0.000000 0.873911 0.429941
O O18 0.108755 0.000000 0.394455
O O19 0.704626 0.000000 0.206468
#
# Coordination Sequence:
#
# PCOD8288370 Si02
#       7
#    16  16  16  16  16  16  16
#     4   9  16  26  41  61  87 122 157 180 203 246
#     4   9  17  29  44  63  90 120 146 176 215 260
#     4   9  16  26  42  64  85 106 142 190 231 266
#     4  11  17  27  44  61  85 116 151 188 225 263
#     4   9  15  26  42  60  85 116 149 186 222 254
#     4  10  19  30  47  69  90 115 148 184 224 269
#     4   9  19  31  43  59  83 120 157 190 229 265
#
# _framework density 16.839815000000002
#
# number of rings (size 3 to 8) (size 9 to 14) (size 15 to 20)
#    0.000    2.571    1.429    4.286    0.000    1.714 
#    0.000    6.429    0.000    3.429    0.000    0.000 
#    0.000    0.571    0.000    1.286    0.000    1.857 
#
# Total GULP energy -693739.414750 kJ/mol
# GULP energy per Si atom -12388.203835 kJ/mol
# Density = 1.680149 g / cm^3
# Si number density = 16.839815 Si / 1000 Ang^3
#
#
#
# Elastic Constant Matrix: (Units=GPa)
#
#
# Indices 1 2 3 4 5 6 
#
# 1 115.3047 18.1376 40.6268 0.0000 0.0000 0.0000
# 2 18.1376 34.4344 17.5077 0.0000 0.0000 0.0000
# 3 40.6268 17.5077 62.0298 0.0000 0.0000 0.0000
# 4 0.0000 0.0000 0.0000 9.8752 0.0000 0.0000
# 5 0.0000 0.0000 0.0000 0.0000 15.6240 0.0000
# 6 0.0000 0.0000 0.0000 0.0000 0.0000 12.4202
#
#
#
# Elastic Compliance Matrix: (Units=1/GPa)
#
#
# Indices 1 2 3 4 5 6 
#
# 1 0.011470 -0.002594 -0.006780 0.000000 0.000000 0.000000
# 2 -0.002594 0.034493 -0.008037 0.000000 0.000000 0.000000
# 3 -0.006780 -0.008037 0.022830 0.000000 0.000000 0.000000
# 4 0.000000 0.000000 0.000000 0.101264 0.000000 0.000000
# 5 0.000000 0.000000 0.000000 0.000000 0.064004 0.000000
# 6 0.000000 0.000000 0.000000 0.000000 0.000000 0.080514
#
#
# Mechanical properties :
#
#
# Convention : Reuss Voigt Hill
#
# Bulk Modulus (GPa) = 29.43626 40.47923 34.95775
# Shear Modulus (GPa) = 13.86118 16.61702 15.23910
#
# Velocity S-wave (km/s) = 2.87212 3.14470 3.01149
# Velocity P-wave (km/s) = 5.34012 6.10537 5.73552
#
# Compressibility (1/GPa) = 0.03397171
#
# Stress axis : x y z
#
# Youngs Moduli (GPa) = 87.18720 28.99119 43.80193
#
# Poissons Ratio (x) = 0.07521 0.29697
# Poissons Ratio (y) = 0.22618 0.35201
# Poissons Ratio (z) = 0.59112 0.23299
#
# Static dielectric constant tensor:
#      x y z
#    x 3.346230 0.000000 0.000000 
#    y 0.000000 2.730870 0.000000 
#    z 0.000000 0.000000 3.038510 
# 
# 
# High freq. dielectric constant tensor:
#      x y z
#    x 1.660550 0.000000 0.000000 
#    y 0.000000 1.596480 0.000000 
#    z 0.000000 0.000000 1.612290 
# 
# From -- ./inp_files/70064.got.cif
#   From: 2010.06.25/outbox.cif.g09.slc.cpg/sg71_36_cif.got.tgz:70064.got - 2010.06.28 04:59:45.
