data_PCOD8288076
_publ_section_title
;
Structure prediction by ZEFSAII (Michael W. Deem and Ramdas Pophale) SiO2 
 PCOD8288076
Probable space group: I M M M
;
_chemical_formula_sum "Si O2"
_cell_formula_units_Z 96
_cell_length_a 23.595103
_cell_length_b 9.011475
_cell_length_c 25.386578
_cell_angle_alpha 90.000000
_cell_angle_beta 90.000000
_cell_angle_gamma 90.000000
_cell_volume 5397.863817
_symmetry_space_group_name_H-M "I M M M"
_symmetry_group_IT_number 71
_symmetry_cell_setting 'orthorhombic'
loop_
_space_group_symop_operation_xyz
x,y,z
-x,-y,z
x,-y,-z
-x,y,-z
-x,-y,-z
x,y,-z
-x,y,z
x,-y,z
1/2+x,1/2+y,1/2+z
1/2-x,1/2-y,1/2+z
1/2+x,1/2-y,1/2-z
1/2-x,1/2+y,1/2-z
1/2-x,1/2-y,1/2-z
1/2+x,1/2+y,1/2-z
1/2-x,1/2+y,1/2+z
1/2+x,1/2-y,1/2+z
loop_
_atom_site_type_symbol
_atom_site_label
_atom_site_fract_x
_atom_site_fract_y
_atom_site_fract_z
Si Si1 0.619539 0.824032 0.848597
Si Si2 0.390920 0.827434 0.345517
Si Si3 0.302469 0.175747 0.059196
Si Si4 0.500000 0.823607 0.810237
Si Si5 0.000000 0.175781 0.803768
Si Si6 0.686929 0.171943 0.559752
Si Si7 0.190023 0.326341 0.249922
O O1 0.647875 0.763857 0.902461
O O2 0.554519 0.770519 0.843728
O O3 0.654024 0.762063 0.798713
O O4 0.621214 0.000000 0.848021
O O5 0.445430 0.726316 0.336695
O O6 0.365969 0.788220 0.403003
O O7 0.342904 0.787021 0.303271
O O8 0.408402 0.000000 0.340845
O O9 0.242280 0.238665 0.078125
O O10 0.298166 0.000000 0.062101
O O11 0.316767 0.229995 0.000000
O O12 0.500000 0.749738 0.753317
O O13 0.500000 0.000000 0.800696
O O14 0.000000 0.000000 0.797531
O O15 0.669695 0.213764 0.500000
O O16 0.702662 0.000000 0.565203
O O17 0.199896 0.500000 0.255982
O O18 0.250000 0.250000 0.250000
#
# Coordination Sequence:
#
# PCOD8288076 Si02
#       7
#    16  16  16   8   8  16  16
#     4   9  17  30  50  72  96 132 174 207 243 299
#     4  10  20  36  55  73 100 139 173 203 252 311
#     4   9  17  30  49  75 107 138 167 205 255 302
#     4  10  18  36  57  69  95 140 178 208 252 308
#     4  12  24  36  53  78 103 130 170 219 260 302
#     4   9  18  33  54  79 103 131 171 211 247 296
#     4  10  19  30  47  72  99 129 164 204 250 302
#
# _framework density 17.784814000000001
#
# number of rings (size 3 to 8) (size 9 to 14) (size 15 to 20)
#    0.000    2.333    1.667    1.750    0.000    1.333 
#    0.000    1.667    0.000    5.000    0.000    0.000 
#    0.000    3.333    0.000    0.000    0.000    0.000 
#
# Total GULP energy -595189.757095 kJ/mol
# GULP energy per Si atom -12399.786606 kJ/mol
# Density = 1.774433 g / cm^3
# Si number density = 17.784814 Si / 1000 Ang^3
#
#
#
# Elastic Constant Matrix: (Units=GPa)
#
#
# Indices 1 2 3 4 5 6 
#
# 1 145.9330 44.0827 66.2174 0.0000 0.0000 0.0000
# 2 44.0827 39.0144 30.7186 0.0000 0.0000 0.0000
# 3 66.2174 30.7186 110.7149 0.0000 0.0000 0.0000
# 4 0.0000 0.0000 0.0000 15.3687 0.0000 0.0000
# 5 0.0000 0.0000 0.0000 0.0000 31.4990 0.0000
# 6 0.0000 0.0000 0.0000 0.0000 0.0000 27.4189
#
#
#
# Elastic Compliance Matrix: (Units=1/GPa)
#
#
# Indices 1 2 3 4 5 6 
#
# 1 0.011813 -0.009961 -0.004302 0.000000 0.000000 0.000000
# 2 -0.009961 0.041195 -0.005472 0.000000 0.000000 0.000000
# 3 -0.004302 -0.005472 0.013123 0.000000 0.000000 0.000000
# 4 0.000000 0.000000 0.000000 0.065067 0.000000 0.000000
# 5 0.000000 0.000000 0.000000 0.000000 0.031747 0.000000
# 6 0.000000 0.000000 0.000000 0.000000 0.000000 0.036471
#
#
# Mechanical properties :
#
#
# Convention : Reuss Voigt Hill
#
# Bulk Modulus (GPa) = 37.50663 64.18884 50.84773
# Shear Modulus (GPa) = 20.17959 25.16689 22.67324
#
# Velocity S-wave (km/s) = 3.37212 3.76583 3.57440
# Velocity P-wave (km/s) = 6.02466 7.42152 6.75927
#
# Compressibility (1/GPa) = 0.02666195
#
# Stress axis : x y z
#
# Youngs Moduli (GPa) = 84.65031 24.27459 76.20015
#
# Poissons Ratio (x) = 0.24180 0.32779
# Poissons Ratio (y) = 0.84320 0.41700
# Poissons Ratio (z) = 0.36414 0.13284
#
# Static dielectric constant tensor:
#      x y z
#    x 3.442300 0.000000 0.000000 
#    y 0.000000 3.056140 0.000000 
#    z 0.000000 0.000000 3.612350 
# 
# 
# High freq. dielectric constant tensor:
#      x y z
#    x 1.689800 0.000000 0.000000 
#    y 0.000000 1.661490 0.000000 
#    z 0.000000 0.000000 1.693530 
# 
# From -- ./inp_files/57745.got.cif
#   From: 2010.06.25/outbox.cif.g09.slc.cpg/sg71_29_cif.got.tgz:57745.got - 2010.06.28 04:59:45.
