data_PCOD8288749
_publ_section_title
;
Structure prediction by ZEFSAII (Michael W. Deem and Ramdas Pophale) SiO2 
 PCOD8288749
Probable space group: I M M M
;
_chemical_formula_sum "Si O2"
_cell_formula_units_Z 104
_cell_length_a 9.147593
_cell_length_b 28.045780
_cell_length_c 22.617496
_cell_angle_alpha 90.000000
_cell_angle_beta 90.000000
_cell_angle_gamma 90.000000
_cell_volume 5802.549829
_symmetry_space_group_name_H-M "I M M M"
_symmetry_group_IT_number 71
_symmetry_cell_setting 'orthorhombic'
loop_
_space_group_symop_operation_xyz
x,y,z
-x,-y,z
x,-y,-z
-x,y,-z
-x,-y,-z
x,y,-z
-x,y,z
x,-y,z
1/2+x,1/2+y,1/2+z
1/2-x,1/2-y,1/2+z
1/2+x,1/2-y,1/2-z
1/2-x,1/2+y,1/2-z
1/2-x,1/2-y,1/2-z
1/2+x,1/2+y,1/2-z
1/2-x,1/2+y,1/2+z
1/2+x,1/2-y,1/2+z
loop_
_atom_site_type_symbol
_atom_site_label
_atom_site_fract_x
_atom_site_fract_y
_atom_site_fract_z
Si Si1 0.828553 0.105102 0.611027
Si Si2 0.327293 0.447391 0.229878
Si Si3 0.670786 0.611046 0.341250
Si Si4 0.331718 0.196826 0.193876
Si Si5 0.325697 0.056461 0.500000
Si Si6 0.668198 0.695633 0.816314
Si Si7 0.838200 0.444087 0.566250
O O1 0.783091 0.072937 0.666494
O O2 0.735989 0.085067 0.556423
O O3 0.788471 0.160077 0.629495
O O4 0.000000 0.100760 0.595256
O O5 0.500000 0.450459 0.236051
O O6 0.257810 0.500000 0.236524
O O7 0.267131 0.413644 0.281654
O O8 0.500000 0.620275 0.338350
O O9 0.751976 0.661254 0.350970
O O10 0.708281 0.578183 0.396298
O O11 0.500000 0.183911 0.199493
O O12 0.309888 0.249300 0.165596
O O13 0.263727 0.187957 0.258305
O O14 0.500000 0.060304 0.500000
O O15 0.278500 0.000000 0.500000
O O16 0.500000 0.684666 0.798676
O O17 0.823452 0.424404 0.500000
O O18 0.815132 0.500000 0.567196
O O19 0.000000 0.430982 0.591063
#
# Coordination Sequence:
#
# PCOD8288749 Si02
#       7
#    16  16  16  16   8  16  16
#     4  10  19  36  60  80 103 140 187 228 268 323
#     4   9  17  29  48  76 107 136 170 216 263 307
#     4  11  20  32  51  78 112 143 178 223 265 311
#     4  10  19  31  52  81 113 143 174 212 270 330
#     4  11  25  41  55  79 115 147 181 229 282 335
#     4   9  18  34  55  81 108 136 175 223 268 320
#     4   9  19  36  55  75 104 142 181 219 262 317
#
# _framework density 17.923155000000001
#
# number of rings (size 3 to 8) (size 9 to 14) (size 15 to 20)
#    0.000    2.231    1.538    2.538    0.000    3.692 
#    0.000    0.769    1.692    2.769    0.000    0.000 
#    0.000    0.000    0.000    0.000    0.000    0.000 
#
# Total GULP energy -644554.230585 kJ/mol
# GULP energy per Si atom -12395.273665 kJ/mol
# Density = 1.788236 g / cm^3
# Si number density = 17.923155 Si / 1000 Ang^3
#
#
#
# Elastic Constant Matrix: (Units=GPa)
#
#
# Indices 1 2 3 4 5 6 
#
# 1 72.8419 54.9406 42.9241 0.0000 0.0000 0.0000
# 2 54.9406 124.8092 58.6823 0.0000 0.0000 0.0000
# 3 42.9241 58.6823 88.9944 0.0002 0.0000 0.0000
# 4 0.0000 0.0000 0.0002 23.4814 0.0000 0.0000
# 5 0.0000 0.0000 0.0000 0.0000 28.5493 0.0000
# 6 0.0000 0.0000 0.0000 0.0000 0.0000 27.8583
#
#
#
# Elastic Compliance Matrix: (Units=1/GPa)
#
#
# Indices 1 2 3 4 5 6 
#
# 1 0.022779 -0.007046 -0.006341 0.000000 0.000000 0.000000
# 2 -0.007046 0.013792 -0.005696 0.000000 0.000000 0.000000
# 3 -0.006341 -0.005696 0.018051 0.000000 0.000000 0.000000
# 4 0.000000 0.000000 0.000000 0.042587 0.000000 0.000000
# 5 0.000000 0.000000 0.000000 0.000000 0.035027 0.000000
# 6 0.000000 0.000000 0.000000 0.000000 0.000000 0.035896
#
#
# Mechanical properties :
#
#
# Convention : Reuss Voigt Hill
#
# Bulk Modulus (GPa) = 60.76611 66.63772 63.70191
# Shear Modulus (GPa) = 23.60907 24.65104 24.13005
#
# Velocity S-wave (km/s) = 3.63332 3.71263 3.67319
# Velocity P-wave (km/s) = 7.18182 7.45912 7.32179
#
# Compressibility (1/GPa) = 0.01645654
#
# Stress axis : x y z
#
# Youngs Moduli (GPa) = 43.89946 72.50622 55.39921
#
# Poissons Ratio (x) = 0.51088 0.35128
# Poissons Ratio (y) = 0.30932 0.31554
# Poissons Ratio (z) = 0.27836 0.41298
#
# Static dielectric constant tensor:
#      x y z
#    x 3.199660 0.000000 0.000000 
#    y 0.000000 3.683400 0.000000 
#    z 0.000000 0.000000 3.164670 
# 
# 
# High freq. dielectric constant tensor:
#      x y z
#    x 1.682160 0.000000 0.000000 
#    y 0.000000 1.707270 0.000000 
#    z 0.000000 0.000000 1.672050 
# 
# From -- ./inp_files/57964.got.cif
#   From: 2010.06.25/outbox.cif.g09.slc.cpg/sg71_29_cif.got.tgz:57964.got - 2010.06.28 04:59:45.
