data_PCOD8288721
_publ_section_title
;
Structure prediction by ZEFSAII (Michael W. Deem and Ramdas Pophale) SiO2 
 PCOD8288721
Probable space group: I M M M
;
_chemical_formula_sum "Si O2"
_cell_formula_units_Z 104
_cell_length_a 9.638901
_cell_length_b 32.121565
_cell_length_c 19.481139
_cell_angle_alpha 90.000000
_cell_angle_beta 90.000000
_cell_angle_gamma 90.000000
_cell_volume 6031.683729
_symmetry_space_group_name_H-M "I M M M"
_symmetry_group_IT_number 71
_symmetry_cell_setting 'orthorhombic'
loop_
_space_group_symop_operation_xyz
x,y,z
-x,-y,z
x,-y,-z
-x,y,-z
-x,-y,-z
x,y,-z
-x,y,z
x,-y,z
1/2+x,1/2+y,1/2+z
1/2-x,1/2-y,1/2+z
1/2+x,1/2-y,1/2-z
1/2-x,1/2+y,1/2-z
1/2-x,1/2-y,1/2-z
1/2+x,1/2+y,1/2-z
1/2-x,1/2+y,1/2+z
1/2+x,1/2-y,1/2+z
loop_
_atom_site_type_symbol
_atom_site_label
_atom_site_fract_x
_atom_site_fract_y
_atom_site_fract_z
Si Si1 0.342136 0.194958 0.696291
Si Si2 0.658575 0.233613 0.844974
Si Si3 0.665024 0.079156 0.162275
Si Si4 0.336270 0.901067 0.313507
Si Si5 0.665477 0.000000 0.921538
Si Si6 0.660010 0.452019 0.079424
Si Si7 0.165256 0.344540 0.576072
O O1 0.500000 0.200438 0.672259
O O2 0.322614 0.208790 0.774341
O O3 0.247941 0.224469 0.648921
O O4 0.294570 0.147416 0.688010
O O5 0.500000 0.246847 0.856511
O O6 0.713232 0.201683 0.902637
O O7 0.500000 0.080158 0.158692
O O8 0.711448 0.077759 0.241764
O O9 0.722857 0.039831 0.119902
O O10 0.726985 0.120600 0.126914
O O11 0.500000 0.906626 0.324782
O O12 0.257231 0.922904 0.375341
O O13 0.500000 0.000000 0.922736
O O14 0.721647 0.000000 0.000000
O O15 0.500000 0.442732 0.096923
O O16 0.695248 0.500000 0.095266
O O17 0.690253 0.441990 0.000000
O O18 0.220564 0.354008 0.500000
O O19 0.000000 0.346368 0.579455
#
# Coordination Sequence:
#
# PCOD8288721 Si02
#       7
#    16  16  16  16   8  16  16
#     4   9  17  30  46  67  97 128 157 198 250 294
#     4   9  16  28  46  68  92 124 168 207 241 285
#     4   9  16  26  40  65 100 133 163 199 242 284
#     4  10  19  31  51  78 105 131 162 203 248 297
#     4   9  16  24  36  60  98 139 168 192 237 295
#     4   9  20  39  58  75  99 130 162 200 248 300
#     4   9  15  25  43  65  93 130 168 204 240 281
#
# _framework density 17.242283
#
# number of rings (size 3 to 8) (size 9 to 14) (size 15 to 20)
#    0.000    2.846    1.538    0.923    1.077    3.077 
#    0.000    1.538    0.000    3.231    0.000    0.000 
#    0.000    2.462    0.000    0.000    0.000    0.000 
#
# Total GULP energy -644615.746039 kJ/mol
# GULP energy per Si atom -12396.456655 kJ/mol
# Density = 1.720304 g / cm^3
# Si number density = 17.242283 Si / 1000 Ang^3
#
#
#
# Elastic Constant Matrix: (Units=GPa)
#
#
# Indices 1 2 3 4 5 6 
#
# 1 40.4384 47.8058 35.2202 0.0000 0.0000 0.0000
# 2 47.8058 135.4565 68.5424 0.0001 0.0000 0.0000
# 3 35.2202 68.5424 98.0222 0.0007 0.0000 0.0000
# 4 0.0000 0.0001 0.0007 29.5966 0.0000 0.0000
# 5 0.0000 0.0000 0.0000 0.0000 15.9848 0.0000
# 6 0.0000 0.0000 0.0000 0.0000 0.0000 25.1945
#
#
#
# Elastic Compliance Matrix: (Units=1/GPa)
#
#
# Indices 1 2 3 4 5 6 
#
# 1 0.046198 -0.012234 -0.008045 0.000000 0.000000 0.000000
# 2 -0.012234 0.014664 -0.005859 0.000000 0.000000 0.000000
# 3 -0.008045 -0.005859 0.017189 0.000000 0.000000 0.000000
# 4 0.000000 0.000000 0.000000 0.033788 0.000000 0.000000
# 5 0.000000 0.000000 0.000000 0.000000 0.062559 0.000000
# 6 0.000000 0.000000 0.000000 0.000000 0.000000 0.039691
#
#
# Mechanical properties :
#
#
# Convention : Reuss Voigt Hill
#
# Bulk Modulus (GPa) = 38.79365 64.11710 51.45538
# Shear Modulus (GPa) = 18.18466 22.31175 20.24821
#
# Velocity S-wave (km/s) = 3.25107 3.60114 3.43057
# Velocity P-wave (km/s) = 6.05315 7.38632 6.75271
#
# Compressibility (1/GPa) = 0.02577741
#
# Stress axis : x y z
#
# Youngs Moduli (GPa) = 21.64580 68.19222 58.17660
#
# Poissons Ratio (x) = 0.83423 0.46804
# Poissons Ratio (y) = 0.26481 0.34083
# Poissons Ratio (z) = 0.17414 0.39951
#
# Static dielectric constant tensor:
#      x y z
#    x 2.822280 0.000000 0.000000 
#    y 0.000000 3.358330 0.000000 
#    z 0.000000 0.000000 3.230260 
# 
# 
# High freq. dielectric constant tensor:
#      x y z
#    x 1.614830 0.000000 0.000000 
#    y 0.000000 1.676380 0.000000 
#    z 0.000000 0.000000 1.662010 
# 
# From -- ./inp_files/17005.got.cif
#   From: 2010.06.25/outbox.cif.g09.slc.cpg/sg71_9_cif.got.tgz:17005.got - 2010.06.28 04:59:45.
