data_PCOD8288081
_publ_section_title
;
Structure prediction by ZEFSAII (Michael W. Deem and Ramdas Pophale) SiO2 
 PCOD8288081
Probable space group: I M M M
;
_chemical_formula_sum "Si O2"
_cell_formula_units_Z 104
_cell_length_a 27.239983
_cell_length_b 8.739901
_cell_length_c 22.167429
_cell_angle_alpha 90.000000
_cell_angle_beta 90.000000
_cell_angle_gamma 90.000000
_cell_volume 5277.505221
_symmetry_space_group_name_H-M "I M M M"
_symmetry_group_IT_number 71
_symmetry_cell_setting 'orthorhombic'
loop_
_space_group_symop_operation_xyz
x,y,z
-x,-y,z
x,-y,-z
-x,y,-z
-x,-y,-z
x,y,-z
-x,y,z
x,-y,z
1/2+x,1/2+y,1/2+z
1/2-x,1/2-y,1/2+z
1/2+x,1/2-y,1/2-z
1/2-x,1/2+y,1/2-z
1/2-x,1/2-y,1/2-z
1/2+x,1/2+y,1/2-z
1/2-x,1/2+y,1/2+z
1/2+x,1/2-y,1/2+z
loop_
_atom_site_type_symbol
_atom_site_label
_atom_site_fract_x
_atom_site_fract_y
_atom_site_fract_z
Si Si1 0.179242 0.317648 0.500000
Si Si2 0.576741 0.320647 0.660281
Si Si3 0.000000 0.318406 0.929760
Si Si4 0.944774 0.676741 0.711874
Si Si5 0.674485 0.174743 0.376041
Si Si6 0.638259 0.176212 0.874828
Si Si7 0.239371 0.676823 0.686907
Si Si8 0.284700 0.171418 0.500000
O O1 0.177390 0.500000 0.500000
O O2 0.151587 0.250067 0.559685
O O3 0.237149 0.279834 0.500000
O O4 0.567801 0.500000 0.655334
O O5 0.547999 0.240764 0.605341
O O6 0.558600 0.266403 0.725419
O O7 0.633974 0.281532 0.654420
O O8 0.000000 0.500000 0.927150
O O9 0.000000 0.262932 0.000000
O O10 0.930657 0.500000 0.724567
O O11 0.909177 0.747250 0.659633
O O12 0.000000 0.691776 0.687005
O O13 0.728822 0.228479 0.359715
O O14 0.675891 0.196457 0.447250
O O15 0.665132 0.000000 0.355558
O O16 0.682768 0.199755 0.828845
O O17 0.627251 0.000000 0.887344
O O18 0.254572 0.500000 0.685833
O O19 0.250000 0.750000 0.750000
O O20 0.262874 0.000000 0.500000
#
# Coordination Sequence:
#
# PCOD8288081 Si02
#       8
#     8  16   8  16  16  16  16   8
#     4  10  18  36  61  84 119 161 202 254 314 375
#     4  12  25  41  63  92 123 157 204 256 308 362
#     4  11  25  45  67  89 119 162 205 248 307 369
#     4  10  20  38  63  88 119 162 208 253 309 372
#     4  11  23  39  58  84 118 155 198 244 294 361
#     4   9  19  34  57  87 117 156 204 254 310 370
#     4  11  21  35  55  83 118 156 198 247 305 364
#     4  10  22  38  58  84 116 155 200 246 294 360
#
# _framework density 19.70628
#
# number of rings (size 3 to 8) (size 9 to 14) (size 15 to 20)
#    0.000    1.462    2.308    3.462    1.077    2.462 
#    0.000    1.923    0.000    2.308    0.000    0.000 
#    0.000    1.846    0.000    0.000    0.000    0.000 
#
# Total GULP energy -644641.606120 kJ/mol
# GULP energy per Si atom -12396.953964 kJ/mol
# Density = 1.966143 g / cm^3
# Si number density = 19.706280 Si / 1000 Ang^3
#
#
#
# Elastic Constant Matrix: (Units=GPa)
#
#
# Indices 1 2 3 4 5 6 
#
# 1 102.4224 25.0722 36.8383 0.0000 0.0000 0.0000
# 2 25.0722 67.7690 35.6492 0.0000 0.0000 0.0000
# 3 36.8383 35.6492 114.9414 0.0000 0.0000 0.0000
# 4 0.0000 0.0000 0.0000 20.3088 0.0000 0.0000
# 5 0.0000 0.0000 0.0000 0.0000 30.6378 0.0000
# 6 0.0000 0.0000 0.0000 0.0000 0.0000 24.2883
#
#
#
# Elastic Compliance Matrix: (Units=1/GPa)
#
#
# Indices 1 2 3 4 5 6 
#
# 1 0.011451 -0.002755 -0.002815 0.000000 0.000000 0.000000
# 2 -0.002755 0.018296 -0.004791 0.000000 0.000000 0.000000
# 3 -0.002815 -0.004791 0.011088 0.000000 0.000000 0.000000
# 4 0.000000 0.000000 0.000000 0.049240 0.000000 0.000000
# 5 0.000000 0.000000 0.000000 0.000000 0.032639 0.000000
# 6 0.000000 0.000000 0.000000 0.000000 0.000000 0.041172
#
#
# Mechanical properties :
#
#
# Convention : Reuss Voigt Hill
#
# Bulk Modulus (GPa) = 49.72462 53.36136 51.54299
# Shear Modulus (GPa) = 26.13510 27.55187 26.84348
#
# Velocity S-wave (km/s) = 3.64570 3.74321 3.69478
# Velocity P-wave (km/s) = 6.55814 6.76899 6.66440
#
# Compressibility (1/GPa) = 0.02011076
#
# Stress axis : x y z
#
# Youngs Moduli (GPa) = 87.33200 54.65721 90.18417
#
# Poissons Ratio (x) = 0.15060 0.25389
# Poissons Ratio (y) = 0.24063 0.43211
# Poissons Ratio (z) = 0.24586 0.26188
#
# Static dielectric constant tensor:
#      x y z
#    x 14.287850 0.000000 0.000000 
#    y 0.000000 3.455230 0.000000 
#    z 0.000000 0.000000 3.738840 
# 
# 
# High freq. dielectric constant tensor:
#      x y z
#    x 1.770610 0.000000 0.000000 
#    y 0.000000 1.750430 0.000000 
#    z 0.000000 0.000000 1.778910 
# 
# From -- ./inp_files/56301.got.cif
#   From: 2010.06.25/outbox.cif.g09.slc.cpg/sg71_29_cif.got.tgz:56301.got - 2010.06.28 04:59:45.
