data_PCOD8288586
_publ_section_title
;
Structure prediction by ZEFSAII (Michael W. Deem and Ramdas Pophale) SiO2 
 PCOD8288586
Probable space group: I M M M
;
_chemical_formula_sum "Si O2"
_cell_formula_units_Z 96
_cell_length_a 9.513675
_cell_length_b 19.547853
_cell_length_c 29.540794
_cell_angle_alpha 90.000000
_cell_angle_beta 90.000000
_cell_angle_gamma 90.000000
_cell_volume 5493.758190
_symmetry_space_group_name_H-M "I M M M"
_symmetry_group_IT_number 71
_symmetry_cell_setting 'orthorhombic'
loop_
_space_group_symop_operation_xyz
x,y,z
-x,-y,z
x,-y,-z
-x,y,-z
-x,-y,-z
x,y,-z
-x,y,z
x,-y,z
1/2+x,1/2+y,1/2+z
1/2-x,1/2-y,1/2+z
1/2+x,1/2-y,1/2-z
1/2-x,1/2+y,1/2-z
1/2-x,1/2-y,1/2-z
1/2+x,1/2+y,1/2-z
1/2-x,1/2+y,1/2+z
1/2+x,1/2-y,1/2+z
loop_
_atom_site_type_symbol
_atom_site_label
_atom_site_fract_x
_atom_site_fract_y
_atom_site_fract_z
Si Si1 0.657184 0.424355 0.446230
Si Si2 0.662983 0.212263 0.617730
Si Si3 0.838323 0.701603 0.446461
Si Si4 0.337477 0.283795 0.710118
Si Si5 0.338658 0.076174 0.335764
Si Si6 0.338825 0.424356 0.252152
O O1 0.657542 0.424528 0.500000
O O2 0.500000 0.406216 0.428691
O O3 0.701069 0.500000 0.428589
O O4 0.766873 0.368330 0.428154
O O5 0.500000 0.226048 0.606093
O O6 0.759087 0.234357 0.575785
O O7 0.710926 0.254867 0.661866
O O8 0.692404 0.131595 0.625273
O O9 0.822212 0.709209 0.500000
O O10 0.000000 0.700621 0.431466
O O11 0.500000 0.265368 0.718587
O O12 0.250000 0.250000 0.750000
O O13 0.312261 0.366156 0.710029
O O14 0.500000 0.081517 0.320492
O O15 0.249708 0.094703 0.291872
O O16 0.302719 0.000000 0.354202
O O17 0.500000 0.423782 0.236574
O O18 0.297433 0.500000 0.271125
#
# Coordination Sequence:
#
# PCOD8288586 Si02
#       6
#    16  16  16  16  16  16
#     4   8  14  27  49  74  97 124 160 200 244 296
#     4  10  20  33  50  74 101 131 169 208 252 305
#     4  10  21  35  51  73 100 131 169 214 261 304
#     4  10  19  31  48  72 101 131 165 203 244 294
#     4   9  17  30  49  73 100 128 162 205 247 293
#     4   9  17  29  46  69  99 134 167 199 238 287
#
# _framework density 17.474374999999998
#
# number of rings (size 3 to 8) (size 9 to 14) (size 15 to 20)
#    0.000    2.667    1.667    1.000    0.000    2.667 
#    0.000    2.500    0.000    3.500    0.000    3.500 
#    0.000    0.000    0.000    0.000    0.000    0.000 
#
# Total GULP energy -595013.775176 kJ/mol
# GULP energy per Si atom -12396.120316 kJ/mol
# Density = 1.743460 g / cm^3
# Si number density = 17.474375 Si / 1000 Ang^3
#
#
#
# Elastic Constant Matrix: (Units=GPa)
#
#
# Indices 1 2 3 4 5 6 
#
# 1 78.6600 50.6224 32.9000 0.0000 0.0000 0.0000
# 2 50.6224 126.3205 36.0843 0.0000 0.0000 0.0000
# 3 32.9000 36.0843 38.3020 0.0000 0.0000 0.0000
# 4 0.0000 0.0000 0.0000 25.2393 0.0000 0.0000
# 5 0.0000 0.0000 0.0000 0.0000 24.1056 0.0000
# 6 0.0000 0.0000 0.0000 0.0000 0.0000 25.0075
#
#
#
# Elastic Compliance Matrix: (Units=1/GPa)
#
#
# Indices 1 2 3 4 5 6 
#
# 1 0.021632 -0.004599 -0.014249 0.000000 0.000000 0.000000
# 2 -0.004599 0.011809 -0.007175 0.000000 0.000000 0.000000
# 3 -0.014249 -0.007175 0.045107 0.000000 0.000000 0.000000
# 4 0.000000 0.000000 0.000000 0.039621 0.000000 0.000000
# 5 0.000000 0.000000 0.000000 0.000000 0.041484 0.000000
# 6 0.000000 0.000000 0.000000 0.000000 0.000000 0.039988
#
#
# Mechanical properties :
#
#
# Convention : Reuss Voigt Hill
#
# Bulk Modulus (GPa) = 37.73149 53.61066 45.67107
# Shear Modulus (GPa) = 19.19240 23.11556 21.15398
#
# Velocity S-wave (km/s) = 3.31768 3.64101 3.48310
# Velocity P-wave (km/s) = 6.02622 6.95860 6.50913
#
# Compressibility (1/GPa) = 0.02650306
#
# Stress axis : x y z
#
# Youngs Moduli (GPa) = 46.22758 84.68203 22.16955
#
# Poissons Ratio (x) = 0.38943 0.31589
# Poissons Ratio (y) = 0.21259 0.15907
# Poissons Ratio (z) = 0.65868 0.60759
#
# Static dielectric constant tensor:
#      x y z
#    x 3.313590 0.000000 0.000000 
#    y 0.000000 3.689880 0.000000 
#    z 0.000000 0.000000 2.847180 
# 
# 
# High freq. dielectric constant tensor:
#      x y z
#    x 1.675060 0.000000 0.000000 
#    y 0.000000 1.691190 0.000000 
#    z 0.000000 0.000000 1.628940 
# 
# From -- ./inp_files/14869.got.cif
#   From: 2010.06.25/outbox.cif.g09.slc.cpg/sg71_8_cif.got.tgz:14869.got - 2010.06.28 04:59:45.
