data_PCOD8288981
_publ_section_title
;
Structure prediction by ZEFSAII (Michael W. Deem and Ramdas Pophale) SiO2 
 PCOD8288981
Probable space group: I M M M
;
_chemical_formula_sum "Si O2"
_cell_formula_units_Z 60
_cell_length_a 17.388755
_cell_length_b 12.348866
_cell_length_c 15.943047
_cell_angle_alpha 90.000000
_cell_angle_beta 90.000000
_cell_angle_gamma 90.000000
_cell_volume 3423.472889
_symmetry_space_group_name_H-M "I M M M"
_symmetry_group_IT_number 71
_symmetry_cell_setting 'orthorhombic'
loop_
_space_group_symop_operation_xyz
x,y,z
-x,-y,z
x,-y,-z
-x,y,-z
-x,-y,-z
x,y,-z
-x,y,z
x,-y,z
1/2+x,1/2+y,1/2+z
1/2-x,1/2-y,1/2+z
1/2+x,1/2-y,1/2-z
1/2-x,1/2+y,1/2-z
1/2-x,1/2-y,1/2-z
1/2+x,1/2+y,1/2-z
1/2-x,1/2+y,1/2+z
1/2+x,1/2-y,1/2+z
loop_
_atom_site_type_symbol
_atom_site_label
_atom_site_fract_x
_atom_site_fract_y
_atom_site_fract_z
Si Si1 0.500000 0.151421 0.500000
Si Si2 0.500000 0.119249 0.311070
Si Si3 0.667212 0.870758 0.500000
Si Si4 0.232660 0.122443 0.660920
Si Si5 0.641797 0.817965 0.787069
Si Si6 0.409455 0.000000 0.092457
O O1 0.500000 0.092096 0.409983
O O2 0.412723 0.202368 0.500000
O O3 0.574186 0.187192 0.282306
O O4 0.500000 0.000000 0.266312
O O5 0.717158 0.840040 0.581103
O O6 0.645151 0.000000 0.500000
O O7 0.283648 0.129914 0.744328
O O8 0.158911 0.199266 0.674674
O O9 0.202835 0.000000 0.648298
O O10 0.618839 0.891350 0.864240
O O11 0.500000 0.000000 0.088224
O O12 0.373246 0.000000 0.000000
#
# Coordination Sequence:
#
# PCOD8288981 Si02
#       6
#     4   8   8  16  16   8
#     4  12  21  28  56  86 113 136 167 222 278 325
#     4  12  19  34  55  85 111 136 176 227 277 322
#     4  10  19  32  52  82 110 136 171 221 271 319
#     4  10  21  35  52  79 112 144 180 218 266 328
#     4  11  20  35  56  75 110 146 180 221 273 319
#     4  11  22  36  56  80 104 136 184 237 272 312
#
# _framework density 17.526062
#
# number of rings (size 3 to 8) (size 9 to 14) (size 15 to 20)
#    0.000    1.200    6.667    1.200    1.867    0.000 
#    0.000    0.667    0.000    0.000    0.000    5.600 
#    0.000    0.133    0.000    0.000    0.000    0.000 
#
# Total GULP energy -371655.085791 kJ/mol
# GULP energy per Si atom -12388.502860 kJ/mol
# Density = 1.748617 g / cm^3
# Si number density = 17.526062 Si / 1000 Ang^3
#
#
#
# Elastic Constant Matrix: (Units=GPa)
#
#
# Indices 1 2 3 4 5 6 
#
# 1 96.2916 58.3579 41.7936 0.0000 0.0000 0.0000
# 2 58.3579 93.4708 42.6430 0.0000 0.0000 0.0000
# 3 41.7936 42.6430 120.4644 0.0000 0.0000 0.0000
# 4 0.0000 0.0000 0.0000 14.3362 0.0000 0.0000
# 5 0.0000 0.0000 0.0000 0.0000 35.6660 0.0000
# 6 0.0000 0.0000 0.0000 0.0000 0.0000 25.9013
#
#
#
# Elastic Compliance Matrix: (Units=1/GPa)
#
#
# Indices 1 2 3 4 5 6 
#
# 1 0.017368 -0.009653 -0.002608 0.000000 0.000000 0.000000
# 2 -0.009653 0.018125 -0.003067 0.000000 0.000000 0.000000
# 3 -0.002608 -0.003067 0.010292 0.000000 0.000000 0.000000
# 4 0.000000 0.000000 0.000000 0.069753 0.000000 0.000000
# 5 0.000000 0.000000 0.000000 0.000000 0.028038 0.000000
# 6 0.000000 0.000000 0.000000 0.000000 0.000000 0.038608
#
#
# Mechanical properties :
#
#
# Convention : Reuss Voigt Hill
#
# Bulk Modulus (GPa) = 66.10669 66.20176 66.15422
# Shear Modulus (GPa) = 22.94809 26.34286 24.64547
#
# Velocity S-wave (km/s) = 3.62245 3.88115 3.75403
# Velocity P-wave (km/s) = 7.43620 7.61182 7.52452
#
# Compressibility (1/GPa) = 0.01512706
#
# Stress axis : x y z
#
# Youngs Moduli (GPa) = 57.57804 55.17316 97.16531
#
# Poissons Ratio (x) = 0.53261 0.25344
# Poissons Ratio (y) = 0.55583 0.29799
# Poissons Ratio (z) = 0.15018 0.16921
#
# Static dielectric constant tensor:
#      x y z
#    x 3.322120 0.000000 0.000000 
#    y 0.000000 -0.683640 0.000000 
#    z 0.000000 0.000000 3.544450 
# 
# 
# High freq. dielectric constant tensor:
#      x y z
#    x 1.672310 0.000000 0.000000 
#    y 0.000000 1.632120 0.000000 
#    z 0.000000 0.000000 1.699940 
# 
# From -- ./inp_files/43046.got.cif
#   From: 2010.06.25/outbox.cif.g09.slc.cpg/sg71_22_cif.got.tgz:43046.got - 2010.06.28 04:59:45.
