data_PCOD8288735
_publ_section_title
;
Structure prediction by ZEFSAII (Michael W. Deem and Ramdas Pophale) SiO2 
 PCOD8288735
Probable space group: I M M M
;
_chemical_formula_sum "Si O2"
_cell_formula_units_Z 80
_cell_length_a 11.754290
_cell_length_b 30.355393
_cell_length_c 12.633027
_cell_angle_alpha 90.000000
_cell_angle_beta 90.000000
_cell_angle_gamma 90.000000
_cell_volume 4507.540999
_symmetry_space_group_name_H-M "I M M M"
_symmetry_group_IT_number 71
_symmetry_cell_setting 'orthorhombic'
loop_
_space_group_symop_operation_xyz
x,y,z
-x,-y,z
x,-y,-z
-x,y,-z
-x,-y,-z
x,y,-z
-x,y,z
x,-y,z
1/2+x,1/2+y,1/2+z
1/2-x,1/2-y,1/2+z
1/2+x,1/2-y,1/2-z
1/2-x,1/2+y,1/2-z
1/2-x,1/2-y,1/2-z
1/2+x,1/2+y,1/2-z
1/2-x,1/2+y,1/2+z
1/2+x,1/2-y,1/2+z
loop_
_atom_site_type_symbol
_atom_site_label
_atom_site_fract_x
_atom_site_fract_y
_atom_site_fract_z
Si Si1 0.745388 0.950196 0.124672
Si Si2 0.370229 0.224973 0.500000
Si Si3 0.795759 0.701479 0.224243
Si Si4 0.000000 0.427267 0.381045
Si Si5 0.500000 0.176633 0.123607
Si Si6 0.865706 0.820621 0.000000
Si Si7 0.134281 0.868949 0.792467
O O1 0.616249 0.946065 0.169614
O O2 0.824499 0.919523 0.199316
O O3 0.788675 0.000000 0.140597
O O4 0.753851 0.936837 0.000000
O O5 0.500000 0.237943 0.500000
O O6 0.345057 0.198269 0.606141
O O7 0.306838 0.272518 0.500000
O O8 0.750000 0.750000 0.250000
O O9 0.699628 0.663147 0.211559
O O10 0.889007 0.692905 0.314384
O O11 0.000000 0.444843 0.500000
O O12 0.000000 0.375396 0.373001
O O13 0.500000 0.192902 0.000000
O O14 0.822849 0.847093 0.900293
O O15 0.000000 0.818861 0.000000
O O16 0.000000 0.867542 0.769452
#
# Coordination Sequence:
#
# PCOD8288735 Si02
#       7
#    16   8  16   8   8   8  16
#     4  10  19  31  51  80 115 152 188 231 287 352
#     4  11  22  40  57  82 112 152 201 241 288 336
#     4  12  25  38  59  83 115 154 196 244 289 337
#     4   9  17  32  52  79 114 148 183 231 286 341
#     4  11  24  38  59  88 116 155 199 235 283 343
#     4   9  18  32  51  72 108 150 190 227 273 335
#     4  11  22  36  53  78 113 154 192 233 285 342
#
# _framework density 17.748035999999999
#
# number of rings (size 3 to 8) (size 9 to 14) (size 15 to 20)
#    0.000    1.400    6.000    0.300    4.200    1.600 
#    0.000    1.500    0.000    0.000    0.000    0.700 
#    0.000    4.000    0.000    0.000    0.000    0.000 
#
# Total GULP energy -495581.627357 kJ/mol
# GULP energy per Si atom -12389.540684 kJ/mol
# Density = 1.770764 g / cm^3
# Si number density = 17.748036 Si / 1000 Ang^3
#
#
#
# Elastic Constant Matrix: (Units=GPa)
#
#
# Indices 1 2 3 4 5 6 
#
# 1 104.0126 47.1428 25.3190 -0.0005 0.0000 0.0001
# 2 47.1428 115.6385 24.7603 0.0010 -0.0003 -0.0001
# 3 25.3190 24.7603 82.8498 -0.0003 0.0010 0.0006
# 4 -0.0005 0.0010 -0.0003 103.3895 -0.0015 -0.0014
# 5 0.0000 -0.0003 0.0010 -0.0015 22.8082 0.0000
# 6 0.0001 -0.0001 0.0006 -0.0014 0.0000 26.0830
#
#
#
# Elastic Compliance Matrix: (Units=1/GPa)
#
#
# Indices 1 2 3 4 5 6 
#
# 1 0.012224 -0.004470 -0.002400 0.000000 0.000000 0.000000
# 2 -0.004470 0.010873 -0.001884 0.000000 0.000000 0.000000
# 3 -0.002400 -0.001884 0.013366 0.000000 -0.000001 0.000000
# 4 0.000000 0.000000 0.000000 0.009672 0.000001 0.000001
# 5 0.000000 0.000000 -0.000001 0.000001 0.043844 0.000000
# 6 0.000000 0.000000 0.000000 0.000001 0.000000 0.038339
#
#
# Mechanical properties :
#
#
# Convention : Reuss Voigt Hill
#
# Bulk Modulus (GPa) = 52.74990 55.21613 53.98302
# Shear Modulus (GPa) = 32.86352 44.14139 38.50245
#
# Velocity S-wave (km/s) = 4.30777 4.99251 4.66273
# Velocity P-wave (km/s) = 7.38435 8.02572 7.71170
#
# Compressibility (1/GPa) = 0.01895738
#
# Stress axis : x y z
#
# Youngs Moduli (GPa) = 81.80460 91.97011 74.81453
#
# Poissons Ratio (x) = 0.41107 0.17955
# Poissons Ratio (y) = 0.36564 0.14092
# Poissons Ratio (z) = 0.19633 0.17323
#
# Static dielectric constant tensor:
#      x y z
#    x 3.364250 0.000000 0.000010 
#    y 0.000000 3.362470 0.000000 
#    z 0.000010 0.000000 4.527710 
# 
# 
# High freq. dielectric constant tensor:
#      x y z
#    x 1.698040 0.000000 0.000000 
#    y 0.000000 1.690870 0.000000 
#    z 0.000000 0.000000 1.637470 
# 
# From -- ./inp_files/20211.got.cif
#   From: 2010.06.25/outbox.cif.g09.slc.cpg/sg71_11_cif.got.tgz:20211.got - 2010.06.28 04:59:45.
