data_PCOD8288316
_publ_section_title
;
Structure prediction by ZEFSAII (Michael W. Deem and Ramdas Pophale) SiO2 
 PCOD8288316
Probable space group: I M M M
;
_chemical_formula_sum "Si O2"
_cell_formula_units_Z 112
_cell_length_a 13.523142
_cell_length_b 29.070705
_cell_length_c 17.607213
_cell_angle_alpha 90.000000
_cell_angle_beta 90.000000
_cell_angle_gamma 90.000000
_cell_volume 6921.875610
_symmetry_space_group_name_H-M "I M M M"
_symmetry_group_IT_number 71
_symmetry_cell_setting 'orthorhombic'
loop_
_space_group_symop_operation_xyz
x,y,z
-x,-y,z
x,-y,-z
-x,y,-z
-x,-y,-z
x,y,-z
-x,y,z
x,-y,z
1/2+x,1/2+y,1/2+z
1/2-x,1/2-y,1/2+z
1/2+x,1/2-y,1/2-z
1/2-x,1/2+y,1/2-z
1/2-x,1/2-y,1/2-z
1/2+x,1/2+y,1/2-z
1/2-x,1/2+y,1/2+z
1/2+x,1/2-y,1/2+z
loop_
_atom_site_type_symbol
_atom_site_label
_atom_site_fract_x
_atom_site_fract_y
_atom_site_fract_z
Si Si1 0.117532 0.592708 0.414609
Si Si2 0.617193 0.000000 0.665799
Si Si3 0.112433 0.682469 0.850362
Si Si4 0.115817 0.317367 0.673625
Si Si5 0.617211 0.000000 0.840198
Si Si6 0.891473 0.860778 0.590005
Si Si7 0.207261 0.767300 0.411230
Si Si8 0.302759 0.090948 0.410206
O O1 0.157841 0.599193 0.500000
O O2 0.153347 0.635073 0.363204
O O3 0.161375 0.545395 0.380414
O O4 0.000000 0.590226 0.414230
O O5 0.648917 0.000000 0.752974
O O6 0.663625 0.044398 0.627861
O O7 0.500000 0.000000 0.654166
O O8 0.140951 0.680644 0.762048
O O9 0.179226 0.719619 0.894081
O O10 0.124845 0.631880 0.885529
O O11 0.000000 0.698375 0.861622
O O12 0.177873 0.276895 0.636255
O O13 0.000000 0.309444 0.657690
O O14 0.500000 0.000000 0.847718
O O15 0.894577 0.861253 0.500000
O O16 0.861296 0.809595 0.616211
O O17 0.809397 0.897449 0.617341
O O18 0.000000 0.873128 0.623668
O O19 0.193895 0.756679 0.500000
O O20 0.308353 0.085081 0.500000
#
# Coordination Sequence:
#
# PCOD8288316 Si02
#       8
#    16   8  16  16   8  16  16  16
#     4   9  16  26  42  64  89 116 146 181 221 268
#     4  11  21  31  44  63  89 119 153 193 231 268
#     4  10  20  33  47  64  91 126 158 187 225 276
#     4  10  19  30  45  67  94 121 151 190 234 275
#     4   9  17  29  43  60  85 119 152 178 216 269
#     4   8  15  29  47  65  86 112 143 181 223 267
#     4  10  19  30  47  69  91 119 156 193 227 268
#     4  10  20  32  47  67  88 115 154 192 227 271
#
# _framework density 16.180586000000002
#
# number of rings (size 3 to 8) (size 9 to 14) (size 15 to 20)
#    0.000    2.429    0.000    4.286    0.000    6.857 
#    0.000    0.357    0.000    1.714    0.000    0.000 
#    0.000    0.000    0.000    0.429    0.000   21.214 
#
# Total GULP energy -694345.857003 kJ/mol
# GULP energy per Si atom -12399.033161 kJ/mol
# Density = 1.614376 g / cm^3
# Si number density = 16.180586 Si / 1000 Ang^3
#
#
#
# Elastic Constant Matrix: (Units=GPa)
#
#
# Indices 1 2 3 4 5 6 
#
# 1 65.8294 20.8797 10.3013 0.0001 0.0000 -0.0002
# 2 20.8797 85.8424 5.5535 0.0002 0.0000 -0.0004
# 3 10.3013 5.5535 41.9699 0.0007 -0.0002 -0.0003
# 4 0.0001 0.0002 0.0007 31.0734 -0.0001 -0.0001
# 5 0.0000 0.0000 -0.0002 -0.0001 15.3541 0.0001
# 6 -0.0002 -0.0004 -0.0003 -0.0001 0.0001 75.3653
#
#
#
# Elastic Compliance Matrix: (Units=1/GPa)
#
#
# Indices 1 2 3 4 5 6 
#
# 1 0.016999 -0.003898 -0.003657 0.000000 0.000000 0.000000
# 2 -0.003898 0.012644 -0.000716 0.000000 0.000000 0.000000
# 3 -0.003657 -0.000716 0.024819 -0.000001 0.000000 0.000000
# 4 0.000000 0.000000 -0.000001 0.032182 0.000000 0.000000
# 5 0.000000 0.000000 0.000000 0.000000 0.065129 0.000000
# 6 0.000000 0.000000 0.000000 0.000000 0.000000 0.013269
#
#
# Mechanical properties :
#
#
# Convention : Reuss Voigt Hill
#
# Bulk Modulus (GPa) = 26.37139 29.67897 28.02518
# Shear Modulus (GPa) = 25.74348 34.81904 30.28126
#
# Velocity S-wave (km/s) = 3.99307 4.64389 4.33073
# Velocity P-wave (km/s) = 6.13132 6.86560 6.50882
#
# Compressibility (1/GPa) = 0.03791988
#
# Stress axis : x y z
#
# Youngs Moduli (GPa) = 58.82547 79.09027 40.29189
#
# Poissons Ratio (x) = 0.30831 0.14733
# Poissons Ratio (y) = 0.22932 0.02886
# Poissons Ratio (z) = 0.21510 0.05665
#
# Static dielectric constant tensor:
#      x y z
#    x 3.022620 0.000000 0.000000 
#    y 0.000000 3.057630 0.000000 
#    z 0.000000 0.000000 3.112910 
# 
# 
# High freq. dielectric constant tensor:
#      x y z
#    x 1.591430 0.000000 0.000000 
#    y 0.000000 1.624890 0.000000 
#    z 0.000000 0.000000 1.624400 
# 
# From -- ./inp_files/35195.got.cif
#   From: 2010.06.25/outbox.cif.g09.slc.cpg/sg71_18_cif.got.tgz:35195.got - 2010.06.28 04:59:45.
