data_PCOD8288050
_publ_section_title
;
Structure prediction by ZEFSAII (Michael W. Deem and Ramdas Pophale) SiO2 
 PCOD8288050
Probable space group: I M M M
;
_chemical_formula_sum "Si O2"
_cell_formula_units_Z 88
_cell_length_a 18.794127
_cell_length_b 18.794132
_cell_length_c 13.585047
_cell_angle_alpha 90.000000
_cell_angle_beta 90.000000
_cell_angle_gamma 90.000000
_cell_volume 4798.500842
_symmetry_space_group_name_H-M "I M M M"
_symmetry_group_IT_number 71
_symmetry_cell_setting 'orthorhombic'
loop_
_space_group_symop_operation_xyz
x,y,z
-x,-y,z
x,-y,-z
-x,y,-z
-x,-y,-z
x,y,-z
-x,y,z
x,-y,z
1/2+x,1/2+y,1/2+z
1/2-x,1/2-y,1/2+z
1/2+x,1/2-y,1/2-z
1/2-x,1/2+y,1/2-z
1/2-x,1/2-y,1/2-z
1/2+x,1/2+y,1/2-z
1/2-x,1/2+y,1/2+z
1/2+x,1/2-y,1/2+z
loop_
_atom_site_type_symbol
_atom_site_label
_atom_site_fract_x
_atom_site_fract_y
_atom_site_fract_z
Si Si1 0.822279 0.322279 0.892192
Si Si2 0.341462 0.841462 0.181339
Si Si3 0.313981 0.656653 0.389547
Si Si4 0.417675 0.582325 0.750000
Si Si5 0.656653 0.686019 0.110453
Si Si6 0.583054 0.083054 0.000000
O O1 0.859998 0.359998 0.796925
O O2 0.837127 0.238436 0.885713
O O3 0.738436 0.337127 0.885713
O O4 0.850253 0.350253 0.000000
O O5 0.258011 0.856813 0.170294
O O6 0.356813 0.758011 0.170294
O O7 0.385532 0.885532 0.101318
O O8 0.299253 0.631506 0.500000
O O9 0.376089 0.608365 0.346145
O O10 0.500000 0.597682 0.731076
O O11 0.402318 0.500000 0.768924
O O12 0.391635 0.623911 0.846145
O O13 0.631506 0.700747 0.000000
O O14 0.500000 0.099861 0.000000
O O15 0.599861 0.000000 0.000000
#
# Coordination Sequence:
#
# PCOD8288050 Si02
#       6
#    16  16  16  16  16   8
#     4   9  17  31  60  90 113 137 183 247 287 317
#     4  11  17  37  64  88 110 144 188 229 284 349
#     4  10  18  34  57  82 109 144 192 242 286 330
#     4  11  24  37  48  72 116 163 200 239 282 328
#     4  10  18  34  57  82 109 144 192 242 286 330
#     4  11  26  42  58  92 126 138 164 228 300 357
#
# _framework density 18.339061999999998
#
# number of rings (size 3 to 8) (size 9 to 14) (size 15 to 20)
#    0.000    1.727    5.455    2.182    0.000    2.909 
#    0.000    1.818    0.000    1.091    0.000    1.273 
#    0.000    0.000    0.000    0.000    0.000    0.000 
#
# Total GULP energy -545324.845331 kJ/mol
# GULP energy per Si atom -12393.746485 kJ/mol
# Density = 1.829732 g / cm^3
# Si number density = 18.339062 Si / 1000 Ang^3
#
#
#
# Elastic Constant Matrix: (Units=GPa)
#
#
# Indices 1 2 3 4 5 6 
#
# 1 67.5668 55.5417 39.7087 0.0000 0.0000 0.0000
# 2 55.5417 67.5669 39.7088 0.0000 0.0000 0.0000
# 3 39.7087 39.7088 202.2026 0.0000 0.0000 0.0000
# 4 0.0000 0.0000 0.0000 24.0367 0.0000 0.0000
# 5 0.0000 0.0000 0.0000 0.0000 24.0366 0.0000
# 6 0.0000 0.0000 0.0000 0.0000 0.0000 28.9283
#
#
#
# Elastic Compliance Matrix: (Units=1/GPa)
#
#
# Indices 1 2 3 4 5 6 
#
# 1 0.046230 -0.036929 -0.001827 0.000000 0.000000 0.000000
# 2 -0.036929 0.046230 -0.001827 0.000000 0.000000 0.000000
# 3 -0.001827 -0.001827 0.005663 0.000000 0.000000 0.000000
# 4 0.000000 0.000000 0.000000 0.041603 0.000000 0.000000
# 5 0.000000 0.000000 0.000000 0.000000 0.041603 0.000000
# 6 0.000000 0.000000 0.000000 0.000000 0.000000 0.034568
#
#
# Mechanical properties :
#
#
# Convention : Reuss Voigt Hill
#
# Bulk Modulus (GPa) = 58.96543 67.47276 63.21910
# Shear Modulus (GPa) = 16.51722 28.89212 22.70467
#
# Velocity S-wave (km/s) = 3.00435 3.97349 3.52241
# Velocity P-wave (km/s) = 6.65264 7.61073 7.14775
#
# Compressibility (1/GPa) = 0.01695909
#
# Stress axis : x y z
#
# Youngs Moduli (GPa) = 21.63097 21.63100 176.58640
#
# Poissons Ratio (x) = 0.79881 0.32255
# Poissons Ratio (y) = 0.79880 0.32255
# Poissons Ratio (z) = 0.03951 0.03951
#
# Static dielectric constant tensor:
#      x y z
#    x 3.145570 0.000000 0.000000 
#    y 0.000000 3.145570 0.000000 
#    z 0.000000 0.000000 3.825320 
# 
# 
# High freq. dielectric constant tensor:
#      x y z
#    x 1.681670 0.000000 0.000000 
#    y 0.000000 1.681670 0.000000 
#    z 0.000000 0.000000 1.738540 
# 
# From -- ./inp_files/37989.got.cif
#   From: 2010.06.25/outbox.cif.g09.slc.cpg/sg71_19_cif.got.tgz:37989.got - 2010.06.28 04:59:45.
