data_PCOD8288193
_publ_section_title
;
Structure prediction by ZEFSAII (Michael W. Deem and Ramdas Pophale) SiO2 
 PCOD8288193
Probable space group: I M M M
;
_chemical_formula_sum "Si O2"
_cell_formula_units_Z 104
_cell_length_a 22.278401
_cell_length_b 9.059619
_cell_length_c 30.058707
_cell_angle_alpha 90.000000
_cell_angle_beta 90.000000
_cell_angle_gamma 90.000000
_cell_volume 6066.863808
_symmetry_space_group_name_H-M "I M M M"
_symmetry_group_IT_number 71
_symmetry_cell_setting 'orthorhombic'
loop_
_space_group_symop_operation_xyz
x,y,z
-x,-y,z
x,-y,-z
-x,y,-z
-x,-y,-z
x,y,-z
-x,y,z
x,-y,z
1/2+x,1/2+y,1/2+z
1/2-x,1/2-y,1/2+z
1/2+x,1/2-y,1/2-z
1/2-x,1/2+y,1/2-z
1/2-x,1/2-y,1/2-z
1/2+x,1/2+y,1/2-z
1/2-x,1/2+y,1/2+z
1/2+x,1/2-y,1/2+z
loop_
_atom_site_type_symbol
_atom_site_label
_atom_site_fract_x
_atom_site_fract_y
_atom_site_fract_z
Si Si1 0.204874 0.327433 0.386669
Si Si2 0.187516 0.166462 0.701176
Si Si3 0.117836 0.832106 0.447332
Si Si4 0.656606 0.327075 0.625121
Si Si5 0.500000 0.833267 0.947020
Si Si6 0.067474 0.175315 0.049534
Si Si7 0.329433 0.833697 0.286605
O O1 0.191451 0.500000 0.386755
O O2 0.173652 0.258357 0.343162
O O3 0.176320 0.252133 0.429774
O O4 0.275414 0.293750 0.389031
O O5 0.258182 0.165768 0.709211
O O6 0.153087 0.243389 0.742287
O O7 0.163151 0.000000 0.696098
O O8 0.120513 0.825300 0.500000
O O9 0.058424 0.751444 0.428942
O O10 0.117292 0.000000 0.430190
O O11 0.646294 0.500000 0.633325
O O12 0.613792 0.262956 0.586215
O O13 0.640440 0.243894 0.670772
O O14 0.500000 0.000000 0.928441
O O15 0.500000 0.833239 0.000000
O O16 0.000000 0.227791 0.061565
O O17 0.070585 0.000000 0.049438
O O18 0.084953 0.233235 0.000000
O O19 0.354304 0.000000 0.282810
#
# Coordination Sequence:
#
# PCOD8288193 Si02
#       7
#    16  16  16  16   8  16  16
#     4  10  19  29  43  67  98 127 156 192 237 288
#     4   9  16  27  43  63  90 121 152 186 226 275
#     4  10  20  33  48  67  93 125 160 195 231 274
#     4   9  17  28  44  68  95 122 155 195 240 288
#     4   9  17  31  51  71  89 113 151 195 231 263
#     4   8  14  26  45  68  92 120 159 205 246 284
#     4   9  16  26  42  64  90 119 150 185 227 277
#
# _framework density 17.142301
#
# number of rings (size 3 to 8) (size 9 to 14) (size 15 to 20)
#    0.000    2.846    0.000    2.538    0.000    6.769 
#    0.000    1.538    0.000    0.923    2.000    1.077 
#    0.000    0.000    0.000    0.000    0.000    0.000 
#
# Total GULP energy -644712.146961 kJ/mol
# GULP energy per Si atom -12398.310518 kJ/mol
# Density = 1.710328 g / cm^3
# Si number density = 17.142301 Si / 1000 Ang^3
#
#
#
# Elastic Constant Matrix: (Units=GPa)
#
#
# Indices 1 2 3 4 5 6 
#
# 1 62.6970 40.7420 51.5613 0.0000 0.0000 0.0000
# 2 40.7420 110.7761 46.4931 0.0000 0.0000 0.0000
# 3 51.5613 46.4931 98.2517 0.0000 0.0000 0.0000
# 4 0.0000 0.0000 0.0000 30.3140 0.0000 0.0000
# 5 0.0000 0.0000 0.0000 0.0000 13.6433 0.0000
# 6 0.0000 0.0000 0.0000 0.0000 0.0000 16.6558
#
#
#
# Elastic Compliance Matrix: (Units=1/GPa)
#
#
# Indices 1 2 3 4 5 6 
#
# 1 0.030647 -0.005642 -0.013413 0.000000 0.000000 0.000000
# 2 -0.005642 0.012303 -0.002861 0.000000 0.000000 0.000000
# 3 -0.013413 -0.002861 0.018571 0.000000 0.000000 0.000000
# 4 0.000000 0.000000 0.000000 0.032988 0.000000 0.000000
# 5 0.000000 0.000000 0.000000 0.000000 0.073296 0.000000
# 6 0.000000 0.000000 0.000000 0.000000 0.000000 0.060039
#
#
# Mechanical properties :
#
#
# Convention : Reuss Voigt Hill
#
# Bulk Modulus (GPa) = 56.53449 61.03529 58.78489
# Shear Modulus (GPa) = 18.01326 20.98451 19.49889
#
# Velocity S-wave (km/s) = 3.24513 3.50256 3.37630
# Velocity P-wave (km/s) = 6.86238 7.21385 7.04031
#
# Compressibility (1/GPa) = 0.01768832
#
# Stress axis : x y z
#
# Youngs Moduli (GPa) = 32.62954 81.28080 53.84744
#
# Poissons Ratio (x) = 0.45858 0.72228
# Poissons Ratio (y) = 0.18409 0.15406
# Poissons Ratio (z) = 0.43767 0.23255
#
# Static dielectric constant tensor:
#      x y z
#    x 2.962260 0.000000 0.000000 
#    y 0.000000 3.252490 0.000000 
#    z 0.000000 0.000000 3.286840 
# 
# 
# High freq. dielectric constant tensor:
#      x y z
#    x 1.620770 0.000000 0.000000 
#    y 0.000000 1.661310 0.000000 
#    z 0.000000 0.000000 1.659860 
# 
# From -- ./inp_files/56703.got.cif
#   From: 2010.06.25/outbox.cif.g09.slc.cpg/sg71_29_cif.got.tgz:56703.got - 2010.06.28 04:59:45.
