data_PCOD8288534
_publ_section_title
;
Structure prediction by ZEFSAII (Michael W. Deem and Ramdas Pophale) SiO2 
 PCOD8288534
Probable space group: I M M M
;
_chemical_formula_sum "Si O2"
_cell_formula_units_Z 120
_cell_length_a 26.196827
_cell_length_b 27.167958
_cell_length_c 9.510840
_cell_angle_alpha 90.000000
_cell_angle_beta 90.000000
_cell_angle_gamma 90.000000
_cell_volume 6769.000792
_symmetry_space_group_name_H-M "I M M M"
_symmetry_group_IT_number 71
_symmetry_cell_setting 'orthorhombic'
loop_
_space_group_symop_operation_xyz
x,y,z
-x,-y,z
x,-y,-z
-x,y,-z
-x,-y,-z
x,y,-z
-x,y,z
x,-y,z
1/2+x,1/2+y,1/2+z
1/2-x,1/2-y,1/2+z
1/2+x,1/2-y,1/2-z
1/2-x,1/2+y,1/2-z
1/2-x,1/2-y,1/2-z
1/2+x,1/2+y,1/2-z
1/2-x,1/2+y,1/2+z
1/2+x,1/2-y,1/2+z
loop_
_atom_site_type_symbol
_atom_site_label
_atom_site_fract_x
_atom_site_fract_y
_atom_site_fract_z
Si Si1 0.942175 0.357598 0.161372
Si Si2 0.560450 0.500000 0.334855
Si Si3 0.639830 0.777976 0.336120
Si Si4 0.124453 0.075730 0.663894
Si Si5 0.845274 0.184193 0.337604
Si Si6 0.560731 0.946155 0.841792
Si Si7 0.268210 0.843720 0.666283
Si Si8 0.261087 0.553064 0.833138
O O1 0.911415 0.308255 0.191572
O O2 0.916725 0.403298 0.243931
O O3 0.000000 0.347352 0.210093
O O4 0.939165 0.373051 0.000000
O O5 0.500000 0.500000 0.312982
O O6 0.574686 0.500000 0.500000
O O7 0.582734 0.548976 0.260729
O O8 0.648630 0.766819 0.500000
O O9 0.631222 0.727129 0.256161
O O10 0.687334 0.809180 0.271262
O O11 0.114029 0.063389 0.500000
O O12 0.122378 0.134563 0.688983
O O13 0.179897 0.056780 0.711834
O O14 0.848405 0.199507 0.500000
O O15 0.786475 0.178018 0.291502
O O16 0.500000 0.945637 0.832386
O O17 0.580607 0.000000 0.791970
O O18 0.578999 0.935892 0.000000
O O19 0.274971 0.845808 0.500000
O O20 0.271164 0.900229 0.726313
O O21 0.239440 0.500000 0.779288
O O22 0.259271 0.555914 0.000000
#
# Coordination Sequence:
#
# PCOD8288534 Si02
#       8
#    16   8  16  16  16  16  16  16
#     4   9  18  31  45  63  90 125 162 196 231 274
#     4  11  23  35  49  75 109 137 161 195 240 289
#     4  10  19  31  47  68  97 130 164 199 239 288
#     4   9  17  32  53  74  94 123 165 203 238 286
#     4   9  18  32  52  75  96 119 155 202 248 290
#     4   8  14  26  45  67  87 109 145 192 236 276
#     4   8  15  27  44  70  99 123 153 197 243 290
#     4   8  12  22  45  72  94 119 155 198 242 287
#
# _framework density 17.727875000000001
#
# number of rings (size 3 to 8) (size 9 to 14) (size 15 to 20)
#    0.000    3.133    0.667    2.600    0.000    1.867 
#    0.000    2.667    0.000    5.600    0.000    0.000 
#    0.000    0.000    0.000    0.000    0.000    0.000 
#
# Total GULP energy -743551.359547 kJ/mol
# GULP energy per Si atom -12392.522659 kJ/mol
# Density = 1.768753 g / cm^3
# Si number density = 17.727875 Si / 1000 Ang^3
#
#
#
# Elastic Constant Matrix: (Units=GPa)
#
#
# Indices 1 2 3 4 5 6 
#
# 1 57.2514 42.2071 32.3608 0.0000 0.0000 0.0000
# 2 42.2071 154.0532 59.9944 0.0000 0.0000 0.0000
# 3 32.3608 59.9944 57.4557 0.0000 0.0000 0.0000
# 4 0.0000 0.0000 0.0000 31.1021 0.0000 0.0000
# 5 0.0000 0.0000 0.0000 0.0000 15.2557 0.0000
# 6 0.0000 0.0000 0.0000 0.0000 0.0000 17.8439
#
#
#
# Elastic Compliance Matrix: (Units=1/GPa)
#
#
# Indices 1 2 3 4 5 6 
#
# 1 0.026144 -0.002407 -0.012211 0.000000 0.000000 0.000000
# 2 -0.002407 0.011162 -0.010299 0.000000 0.000000 0.000000
# 3 -0.012211 -0.010299 0.035037 0.000000 0.000000 0.000000
# 4 0.000000 0.000000 0.000000 0.032152 0.000000 0.000000
# 5 0.000000 0.000000 0.000000 0.000000 0.065549 0.000000
# 6 0.000000 0.000000 0.000000 0.000000 0.000000 0.056042
#
#
# Mechanical properties :
#
#
# Convention : Reuss Voigt Hill
#
# Bulk Modulus (GPa) = 44.43098 59.76501 52.09800
# Shear Modulus (GPa) = 17.64148 21.78687 19.71418
#
# Velocity S-wave (km/s) = 3.15799 3.50946 3.33835
# Velocity P-wave (km/s) = 6.19793 7.08572 6.65664
#
# Compressibility (1/GPa) = 0.02250682
#
# Stress axis : x y z
#
# Youngs Moduli (GPa) = 38.24985 89.59276 28.54156
#
# Poissons Ratio (x) = 0.21567 0.34853
# Poissons Ratio (y) = 0.09208 0.29395
# Poissons Ratio (z) = 0.46709 0.92271
#
# Static dielectric constant tensor:
#      x y z
#    x 3.155150 0.000000 0.000000 
#    y 0.000000 3.602510 0.000000 
#    z 0.000000 0.000000 2.997070 
# 
# 
# High freq. dielectric constant tensor:
#      x y z
#    x 1.656550 0.000000 0.000000 
#    y 0.000000 1.701000 0.000000 
#    z 0.000000 0.000000 1.652000 
# 
# From -- ./inp_files/15615.got.cif
#   From: 2010.06.25/outbox.cif.g09.slc.cpg/sg71_8_cif.got.tgz:15615.got - 2010.06.28 04:59:45.
