data_PCOD8288542
_publ_section_title
;
Structure prediction by ZEFSAII (Michael W. Deem and Ramdas Pophale) SiO2 
 PCOD8288542
Probable space group: I M M M
;
_chemical_formula_sum "Si O2"
_cell_formula_units_Z 72
_cell_length_a 31.160573
_cell_length_b 9.259430
_cell_length_c 14.443074
_cell_angle_alpha 90.000000
_cell_angle_beta 90.000000
_cell_angle_gamma 90.000000
_cell_volume 4167.247784
_symmetry_space_group_name_H-M "I M M M"
_symmetry_group_IT_number 71
_symmetry_cell_setting 'orthorhombic'
loop_
_space_group_symop_operation_xyz
x,y,z
-x,-y,z
x,-y,-z
-x,y,-z
-x,-y,-z
x,y,-z
-x,y,z
x,-y,z
1/2+x,1/2+y,1/2+z
1/2-x,1/2-y,1/2+z
1/2+x,1/2-y,1/2-z
1/2-x,1/2+y,1/2-z
1/2-x,1/2-y,1/2-z
1/2+x,1/2+y,1/2-z
1/2-x,1/2+y,1/2+z
1/2+x,1/2-y,1/2+z
loop_
_atom_site_type_symbol
_atom_site_label
_atom_site_fract_x
_atom_site_fract_y
_atom_site_fract_z
Si Si1 0.871895 0.668143 0.699325
Si Si2 0.548397 0.329319 0.815656
Si Si3 0.833550 0.665818 0.500000
Si Si4 0.951420 0.658046 0.500000
Si Si5 0.286875 0.831814 0.697169
Si Si6 0.244782 0.666997 0.000000
O O1 0.882349 0.500000 0.712066
O O2 0.912701 0.757807 0.742264
O O3 0.861559 0.704009 0.591128
O O4 0.832505 0.718463 0.763130
O O5 0.500000 0.291589 0.779599
O O6 0.553863 0.500000 0.822853
O O7 0.558560 0.256378 0.913142
O O8 0.819473 0.500000 0.500000
O O9 0.789542 0.751634 0.500000
O O10 0.926166 0.500000 0.500000
O O11 0.000000 0.612013 0.500000
O O12 0.250000 0.750000 0.750000
O O13 0.284142 0.793144 0.588725
O O14 0.280145 0.000000 0.716669
O O15 0.257253 0.500000 0.000000
#
# Coordination Sequence:
#
# PCOD8288542 Si02
#       6
#    16  16   8   8  16   8
#     4  10  20  32  48  71  99 133 170 206 247 297
#     4  10  20  32  46  67  95 126 164 210 254 295
#     4  10  19  31  47  70  99 131 170 207 240 286
#     4   9  16  27  44  64  90 127 165 198 237 290
#     4  10  20  34  52  75 102 132 167 206 247 294
#     4  10  20  33  51  75 102 132 165 204 250 290
#
# _framework density 17.27759
#
# number of rings (size 3 to 8) (size 9 to 14) (size 15 to 20)
#    0.000    2.111    2.222    1.667    0.000    5.333 
#    0.000    0.000    0.000    0.000    0.000    0.778 
#    0.000    6.222    0.000    0.000    0.000    0.000 
#
# Total GULP energy -446057.681800 kJ/mol
# GULP energy per Si atom -12390.491161 kJ/mol
# Density = 1.723827 g / cm^3
# Si number density = 17.277590 Si / 1000 Ang^3
#
#
#
# Elastic Constant Matrix: (Units=GPa)
#
#
# Indices 1 2 3 4 5 6 
#
# 1 171.7055 70.6070 53.3544 0.0000 0.0000 0.0000
# 2 70.6070 69.5796 29.6724 0.0000 0.0000 0.0000
# 3 53.3544 29.6724 76.9216 0.0000 0.0000 0.0000
# 4 0.0000 0.0000 0.0000 11.3584 0.0000 0.0000
# 5 0.0000 0.0000 0.0000 0.0000 22.2324 0.0000
# 6 0.0000 0.0000 0.0000 0.0000 0.0000 34.3700
#
#
#
# Elastic Compliance Matrix: (Units=1/GPa)
#
#
# Indices 1 2 3 4 5 6 
#
# 1 0.010911 -0.009389 -0.003946 0.000000 0.000000 0.000000
# 2 -0.009389 0.025282 -0.003240 0.000000 0.000000 0.000000
# 3 -0.003946 -0.003240 0.016987 0.000000 0.000000 0.000000
# 4 0.000000 0.000000 0.000000 0.088040 0.000000 0.000000
# 5 0.000000 0.000000 0.000000 0.000000 0.044979 0.000000
# 6 0.000000 0.000000 0.000000 0.000000 0.000000 0.029095
#
#
# Mechanical properties :
#
#
# Convention : Reuss Voigt Hill
#
# Bulk Modulus (GPa) = 49.92685 69.49714 59.71199
# Shear Modulus (GPa) = 19.59848 24.56370 22.08109
#
# Velocity S-wave (km/s) = 3.37163 3.77465 3.57882
# Velocity P-wave (km/s) = 6.64205 7.70120 7.19115
#
# Compressibility (1/GPa) = 0.02002930
#
# Stress axis : x y z
#
# Youngs Moduli (GPa) = 91.64921 39.55440 58.86797
#
# Poissons Ratio (x) = 0.37139 0.23231
# Poissons Ratio (y) = 0.86053 0.19071
# Poissons Ratio (z) = 0.36167 0.12814
#
# Static dielectric constant tensor:
#      x y z
#    x 3.731030 0.000000 0.000000 
#    y 0.000000 3.252970 0.000000 
#    z 0.000000 0.000000 3.015400 
# 
# 
# High freq. dielectric constant tensor:
#      x y z
#    x 1.686300 0.000000 0.000000 
#    y 0.000000 1.671030 0.000000 
#    z 0.000000 0.000000 1.620720 
# 
# From -- ./inp_files/40717.got.cif
#   From: 2010.06.25/outbox.cif.g09.slc.cpg/sg71_21_cif.got.tgz:40717.got - 2010.06.28 04:59:45.
