data_PCOD8288284
_publ_section_title
;
Structure prediction by ZEFSAII (Michael W. Deem and Ramdas Pophale) SiO2 
 PCOD8288284
Probable space group: I M M M
;
_chemical_formula_sum "Si O2"
_cell_formula_units_Z 80
_cell_length_a 25.478737
_cell_length_b 9.677853
_cell_length_c 21.988087
_cell_angle_alpha 90.000000
_cell_angle_beta 90.000000
_cell_angle_gamma 90.000000
_cell_volume 5421.810868
_symmetry_space_group_name_H-M "I M M M"
_symmetry_group_IT_number 71
_symmetry_cell_setting 'orthorhombic'
loop_
_space_group_symop_operation_xyz
x,y,z
-x,-y,z
x,-y,-z
-x,y,-z
-x,-y,-z
x,y,-z
-x,y,z
x,-y,z
1/2+x,1/2+y,1/2+z
1/2-x,1/2-y,1/2+z
1/2+x,1/2-y,1/2-z
1/2-x,1/2+y,1/2-z
1/2-x,1/2-y,1/2-z
1/2+x,1/2+y,1/2-z
1/2-x,1/2+y,1/2+z
1/2+x,1/2-y,1/2+z
loop_
_atom_site_type_symbol
_atom_site_label
_atom_site_fract_x
_atom_site_fract_y
_atom_site_fract_z
Si Si1 0.717115 0.157449 0.167408
Si Si2 0.766669 0.658878 0.070674
Si Si3 0.878492 0.252702 0.117520
Si Si4 0.827303 0.843438 0.235331
Si Si5 0.438285 0.000000 0.430770
Si Si6 0.942013 0.000000 0.929764
O O1 0.725424 0.242485 0.105189
O O2 0.770905 0.151558 0.204093
O O3 0.673933 0.241621 0.206567
O O4 0.697804 0.000000 0.154130
O O5 0.761348 0.500000 0.093663
O O6 0.825162 0.711157 0.082660
O O7 0.753354 0.669848 0.000000
O O8 0.869111 0.220729 0.188506
O O9 0.919806 0.373516 0.109747
O O10 0.905804 0.126343 0.086061
O O11 0.843608 0.000000 0.254209
O O12 0.500000 0.000000 0.435703
O O13 0.414712 0.000000 0.500000
O O14 0.000000 0.000000 0.897324
O O15 0.953790 0.000000 0.000000
#
# Coordination Sequence:
#
# PCOD8288284 Si02
#       6
#    16  16  16  16   8   8
#     4   9  18  28  44  65  84 108 137 176 217 253
#     4  10  19  30  44  63  89 118 146 177 214 257
#     4  11  20  32  47  64  82 111 151 189 223 264
#     4   9  17  30  44  61  83 107 139 178 219 261
#     4  11  22  34  46  61  84 114 149 190 235 273
#     4  11  22  34  46  61  84 112 145 190 237 271
#
# _framework density 14.755217
#
# number of rings (size 3 to 8) (size 9 to 14) (size 15 to 20)
#    0.000    2.000    2.000    3.000    2.800    4.400 
#    0.000    0.000    0.000    0.000    0.000    0.000 
#    0.000    0.000    0.000    0.000    0.000    6.000 
#
# Total GULP energy -495813.563884 kJ/mol
# GULP energy per Si atom -12395.339097 kJ/mol
# Density = 1.472163 g / cm^3
# Si number density = 14.755217 Si / 1000 Ang^3
#
#
#
# Elastic Constant Matrix: (Units=GPa)
#
#
# Indices 1 2 3 4 5 6 
#
# 1 37.0104 36.4329 35.6167 0.0000 0.0000 0.0000
# 2 36.4329 156.4099 59.3619 0.0000 0.0000 0.0000
# 3 35.6167 59.3619 76.9078 0.0000 0.0000 0.0000
# 4 0.0000 0.0000 0.0000 24.1751 0.0000 0.0000
# 5 0.0000 0.0000 0.0000 0.0000 17.4289 0.0000
# 6 0.0000 0.0000 0.0000 0.0000 0.0000 35.7857
#
#
#
# Elastic Compliance Matrix: (Units=1/GPa)
#
#
# Indices 1 2 3 4 5 6 
#
# 1 0.050523 -0.004085 -0.020245 0.000000 0.000000 0.000000
# 2 -0.004085 0.009373 -0.005343 0.000000 0.000000 0.000000
# 3 -0.020245 -0.005343 0.026502 0.000000 0.000000 0.000000
# 4 0.000000 0.000000 0.000000 0.041365 0.000000 0.000000
# 5 0.000000 0.000000 0.000000 0.000000 0.057376 0.000000
# 6 0.000000 0.000000 0.000000 0.000000 0.000000 0.027944
#
#
# Mechanical properties :
#
#
# Convention : Reuss Voigt Hill
#
# Bulk Modulus (GPa) = 36.96442 59.23897 48.10170
# Shear Modulus (GPa) = 17.76552 24.73906 21.25229
#
# Velocity S-wave (km/s) = 3.47366 4.09911 3.79928
# Velocity P-wave (km/s) = 6.41830 7.91445 7.20532
#
# Compressibility (1/GPa) = 0.02705304
#
# Stress axis : x y z
#
# Youngs Moduli (GPa) = 19.79298 106.69369 37.73346
#
# Poissons Ratio (x) = 0.43585 0.76390
# Poissons Ratio (y) = 0.08086 0.20159
# Poissons Ratio (z) = 0.40070 0.57001
#
# Static dielectric constant tensor:
#      x y z
#    x 2.596850 0.000000 0.000000 
#    y 0.000000 3.194450 0.000000 
#    z 0.000000 0.000000 2.879880 
# 
# 
# High freq. dielectric constant tensor:
#      x y z
#    x 1.514590 0.000000 0.000000 
#    y 0.000000 1.592140 0.000000 
#    z 0.000000 0.000000 1.548730 
# 
# From -- ./inp_files/10733.got.cif
#   From: 2010.06.25/outbox.cif.g09.slc.cpg/sg71_6_cif.got.tgz:10733.got - 2010.06.28 04:59:45.
