data_PCOD8288771
_publ_section_title
;
Structure prediction by ZEFSAII (Michael W. Deem and Ramdas Pophale) SiO2 
 PCOD8288771
Probable space group: I M M M
;
_chemical_formula_sum "Si O2"
_cell_formula_units_Z 88
_cell_length_a 8.718970
_cell_length_b 18.986200
_cell_length_c 34.059754
_cell_angle_alpha 90.000000
_cell_angle_beta 90.000000
_cell_angle_gamma 90.000000
_cell_volume 5638.255363
_symmetry_space_group_name_H-M "I M M M"
_symmetry_group_IT_number 71
_symmetry_cell_setting 'orthorhombic'
loop_
_space_group_symop_operation_xyz
x,y,z
-x,-y,z
x,-y,-z
-x,y,-z
-x,-y,-z
x,y,-z
-x,y,z
x,-y,z
1/2+x,1/2+y,1/2+z
1/2-x,1/2-y,1/2+z
1/2+x,1/2-y,1/2-z
1/2-x,1/2+y,1/2-z
1/2-x,1/2-y,1/2-z
1/2+x,1/2+y,1/2-z
1/2-x,1/2+y,1/2+z
1/2+x,1/2-y,1/2+z
loop_
_atom_site_type_symbol
_atom_site_label
_atom_site_fract_x
_atom_site_fract_y
_atom_site_fract_z
Si Si1 0.680632 0.854785 0.456016
Si Si2 0.320441 0.354050 0.121376
Si Si3 0.317015 0.000000 0.650615
Si Si4 0.332558 0.500000 0.955414
Si Si5 0.174316 0.732444 0.188527
Si Si6 0.824224 0.352123 0.731693
Si Si7 0.817572 0.500000 0.239727
O O1 0.738794 0.832140 0.500000
O O2 0.500000 0.844615 0.453983
O O3 0.761656 0.815865 0.419307
O O4 0.726295 0.934336 0.445736
O O5 0.500000 0.365661 0.118719
O O6 0.242561 0.430049 0.128909
O O7 0.282547 0.298665 0.155219
O O8 0.500000 0.000000 0.649793
O O9 0.253291 0.000000 0.695310
O O10 0.500000 0.500000 0.932965
O O11 0.378264 0.500000 0.000000
O O12 0.193766 0.683933 0.226292
O O13 0.224821 0.812009 0.198924
O O14 0.000000 0.732848 0.173427
O O15 0.760521 0.431526 0.736364
O O16 0.000000 0.351137 0.717811
O O17 0.000000 0.500000 0.236761
#
# Coordination Sequence:
#
# PCOD8288771 Si02
#       7
#    16  16   8   8  16  16   8
#     4  10  20  33  47  61  79 109 147 185 228 276
#     4  12  23  33  46  66  90 117 151 193 234 273
#     4  11  20  34  48  64  88 118 154 194 236 273
#     4   9  16  27  42  59  80 105 137 179 223 264
#     4  10  19  32  48  66  90 121 152 185 227 272
#     4   9  17  31  49  68  90 117 151 187 228 271
#     4   9  16  30  50  68  88 118 151 189 231 270
#
# _framework density 15.607664
#
# number of rings (size 3 to 8) (size 9 to 14) (size 15 to 20)
#    0.000    1.909    1.818    3.818    0.000    2.909 
#    0.000    0.455    0.000    0.000    0.000    0.000 
#    0.000    0.000    0.000    0.818    0.000   15.818 
#
# Total GULP energy -545239.215142 kJ/mol
# GULP energy per Si atom -12391.800344 kJ/mol
# Density = 1.557214 g / cm^3
# Si number density = 15.607664 Si / 1000 Ang^3
#
#
#
# Elastic Constant Matrix: (Units=GPa)
#
#
# Indices 1 2 3 4 5 6 
#
# 1 72.8457 21.8854 34.6050 0.0000 0.0000 0.0000
# 2 21.8854 76.2555 34.7914 0.0000 0.0000 0.0000
# 3 34.6050 34.7914 80.1432 0.0000 0.0000 0.0000
# 4 0.0000 0.0000 0.0000 9.5581 0.0000 0.0000
# 5 0.0000 0.0000 0.0000 0.0000 22.6815 0.0000
# 6 0.0000 0.0000 0.0000 0.0000 0.0000 17.1217
#
#
#
# Elastic Compliance Matrix: (Units=1/GPa)
#
#
# Indices 1 2 3 4 5 6 
#
# 1 0.017503 -0.001964 -0.006705 0.000000 0.000000 0.000000
# 2 -0.001964 0.016573 -0.006346 0.000000 0.000000 0.000000
# 3 -0.006705 -0.006346 0.018128 0.000000 0.000000 0.000000
# 4 0.000000 0.000000 0.000000 0.104623 0.000000 0.000000
# 5 0.000000 0.000000 0.000000 0.000000 0.044089 0.000000
# 6 0.000000 0.000000 0.000000 0.000000 0.000000 0.058406
#
#
# Mechanical properties :
#
#
# Convention : Reuss Voigt Hill
#
# Bulk Modulus (GPa) = 45.10063 45.75645 45.42854
# Shear Modulus (GPa) = 16.84958 19.06977 17.95967
#
# Velocity S-wave (km/s) = 3.28925 3.49925 3.39587
# Velocity P-wave (km/s) = 6.58671 6.76067 6.67425
#
# Compressibility (1/GPa) = 0.02217264
#
# Stress axis : x y z
#
# Youngs Moduli (GPa) = 57.13348 60.33864 55.16371
#
# Poissons Ratio (x) = 0.11852 0.36986
# Poissons Ratio (y) = 0.11223 0.35010
# Poissons Ratio (z) = 0.38307 0.38294
#
# Static dielectric constant tensor:
#      x y z
#    x 2.978800 0.000000 0.000000 
#    y 0.000000 2.718970 0.000000 
#    z 0.000000 0.000000 3.196090 
# 
# 
# High freq. dielectric constant tensor:
#      x y z
#    x 1.606030 0.000000 0.000000 
#    y 0.000000 1.550740 0.000000 
#    z 0.000000 0.000000 1.595990 
# 
# From -- ./inp_files/68208.got.cif
#   From: 2010.06.25/outbox.cif.g09.slc.cpg/sg71_35_cif.got.tgz:68208.got - 2010.06.28 04:59:45.
