data_PCOD8288195
_publ_section_title
;
Structure prediction by ZEFSAII (Michael W. Deem and Ramdas Pophale) SiO2 
 PCOD8288195
Probable space group: I M M M
;
_chemical_formula_sum "Si O2"
_cell_formula_units_Z 80
_cell_length_a 11.860134
_cell_length_b 16.259089
_cell_length_c 27.102910
_cell_angle_alpha 90.000000
_cell_angle_beta 90.000000
_cell_angle_gamma 90.000000
_cell_volume 5226.388952
_symmetry_space_group_name_H-M "I M M M"
_symmetry_group_IT_number 71
_symmetry_cell_setting 'orthorhombic'
loop_
_space_group_symop_operation_xyz
x,y,z
-x,-y,z
x,-y,-z
-x,y,-z
-x,-y,-z
x,y,-z
-x,y,z
x,-y,z
1/2+x,1/2+y,1/2+z
1/2-x,1/2-y,1/2+z
1/2+x,1/2-y,1/2-z
1/2-x,1/2+y,1/2-z
1/2-x,1/2-y,1/2-z
1/2+x,1/2+y,1/2-z
1/2-x,1/2+y,1/2+z
1/2+x,1/2-y,1/2+z
loop_
_atom_site_type_symbol
_atom_site_label
_atom_site_fract_x
_atom_site_fract_y
_atom_site_fract_z
Si Si1 0.764830 0.171337 0.140949
Si Si2 0.500000 0.596111 0.223998
Si Si3 0.869703 0.594215 0.443056
Si Si4 0.730993 0.685009 0.205961
Si Si5 0.122715 0.595184 0.272107
Si Si6 0.500000 0.594933 0.658871
O O1 0.705127 0.156483 0.088746
O O2 0.757608 0.268658 0.154439
O O3 0.702337 0.120302 0.183195
O O4 0.892585 0.141149 0.136545
O O5 0.500000 0.500000 0.207269
O O6 0.607959 0.644325 0.203076
O O7 0.500000 0.601919 0.282546
O O8 0.846875 0.614442 0.500000
O O9 0.836251 0.500000 0.431277
O O10 0.000000 0.608318 0.429700
O O11 0.750000 0.750000 0.250000
O O12 0.821955 0.614541 0.218666
O O13 0.104371 0.500000 0.275781
O O14 0.000000 0.639196 0.276432
O O15 0.500000 0.500000 0.641980
#
# Coordination Sequence:
#
# PCOD8288195 Si02
#       6
#    16   8  16  16  16   8
#     4  11  21  29  47  66  94 118 159 195 227 270
#     4  11  20  34  46  61  95 134 164 188 226 280
#     4   9  18  33  51  68  89 117 150 191 235 278
#     4  10  21  28  45  64  93 121 157 193 225 265
#     4  10  19  29  44  64  91 123 154 188 222 264
#     4  11  20  30  45  64  91 133 161 182 225 276
#
# _framework density 15.306934999999999
#
# number of rings (size 3 to 8) (size 9 to 14) (size 15 to 20)
#    0.000    1.800    4.000    3.600    8.400    1.600 
#    0.000    0.500    0.000    1.800    0.000    0.000 
#    0.000    4.000    0.000    2.200    0.000    0.000 
#
# Total GULP energy -495801.255036 kJ/mol
# GULP energy per Si atom -12395.031376 kJ/mol
# Density = 1.527210 g / cm^3
# Si number density = 15.306935 Si / 1000 Ang^3
#
#
#
# Elastic Constant Matrix: (Units=GPa)
#
#
# Indices 1 2 3 4 5 6 
#
# 1 126.8698 35.5996 36.3232 0.0000 0.0000 0.0000
# 2 35.5996 50.1670 22.4490 0.0000 0.0000 0.0000
# 3 36.3232 22.4490 63.5569 0.0000 0.0000 0.0000
# 4 0.0000 0.0000 0.0000 22.1577 0.0000 0.0000
# 5 0.0000 0.0000 0.0000 0.0000 6.6642 0.0000
# 6 0.0000 0.0000 0.0000 0.0000 0.0000 28.1414
#
#
#
# Elastic Compliance Matrix: (Units=1/GPa)
#
#
# Indices 1 2 3 4 5 6 
#
# 1 0.010657 -0.005745 -0.004061 0.000000 0.000000 0.000000
# 2 -0.005745 0.026773 -0.006173 0.000000 0.000000 0.000000
# 3 -0.004061 -0.006173 0.020235 0.000000 0.000000 0.000000
# 4 0.000000 0.000000 0.000000 0.045131 0.000000 0.000000
# 5 0.000000 0.000000 0.000000 0.000000 0.150055 0.000000
# 6 0.000000 0.000000 0.000000 0.000000 0.000000 0.035535
#
#
# Mechanical properties :
#
#
# Convention : Reuss Voigt Hill
#
# Bulk Modulus (GPa) = 38.90122 47.70414 43.30268
# Shear Modulus (GPa) = 15.20159 21.14079 18.17119
#
# Velocity S-wave (km/s) = 3.15480 3.72038 3.44920
# Velocity P-wave (km/s) = 6.22411 7.04895 6.64933
#
# Compressibility (1/GPa) = 0.02570613
#
# Stress axis : x y z
#
# Youngs Moduli (GPa) = 93.83586 37.35171 49.41846
#
# Poissons Ratio (x) = 0.21459 0.20070
# Poissons Ratio (y) = 0.53909 0.30506
# Poissons Ratio (z) = 0.38109 0.23057
#
# Static dielectric constant tensor:
#      x y z
#    x 3.545430 0.000000 0.000000 
#    y 0.000000 3.384550 0.000000 
#    z 0.000000 0.000000 2.756200 
# 
# 
# High freq. dielectric constant tensor:
#      x y z
#    x 1.605100 0.000000 0.000000 
#    y 0.000000 1.577990 0.000000 
#    z 0.000000 0.000000 1.538880 
# 
# From -- ./inp_files/28740.got.cif
#   From: 2010.06.25/outbox.cif.g09.slc.cpg/sg71_15_cif.got.tgz:28740.got - 2010.06.28 04:59:45.
