data_PCOD8288659
_publ_section_title
;
Structure prediction by ZEFSAII (Michael W. Deem and Ramdas Pophale) SiO2 
 PCOD8288659
Probable space group: I M M M
;
_chemical_formula_sum "Si O2"
_cell_formula_units_Z 112
_cell_length_a 27.469197
_cell_length_b 10.365579
_cell_length_c 22.675433
_cell_angle_alpha 90.000000
_cell_angle_beta 90.000000
_cell_angle_gamma 90.000000
_cell_volume 6456.469723
_symmetry_space_group_name_H-M "I M M M"
_symmetry_group_IT_number 71
_symmetry_cell_setting 'orthorhombic'
loop_
_space_group_symop_operation_xyz
x,y,z
-x,-y,z
x,-y,-z
-x,y,-z
-x,-y,-z
x,y,-z
-x,y,z
x,-y,z
1/2+x,1/2+y,1/2+z
1/2-x,1/2-y,1/2+z
1/2+x,1/2-y,1/2-z
1/2-x,1/2+y,1/2-z
1/2-x,1/2-y,1/2-z
1/2+x,1/2+y,1/2-z
1/2-x,1/2+y,1/2+z
1/2+x,1/2-y,1/2+z
loop_
_atom_site_type_symbol
_atom_site_label
_atom_site_fract_x
_atom_site_fract_y
_atom_site_fract_z
Si Si1 0.055618 0.644845 0.930535
Si Si2 0.892727 0.851532 0.147665
Si Si3 0.283997 0.726994 0.341987
Si Si4 0.300723 0.862948 0.770057
Si Si5 0.553461 0.349840 0.766051
Si Si6 0.642442 0.648018 0.165383
Si Si7 0.215168 0.849809 0.433369
O O1 0.072353 0.500000 0.911336
O O2 0.088161 0.755492 0.902106
O O3 0.000000 0.666575 0.911038
O O4 0.061166 0.659075 0.000000
O O5 0.834554 0.843791 0.146034
O O6 0.915659 0.802078 0.209514
O O7 0.907832 0.000000 0.134343
O O8 0.290184 0.851792 0.299750
O O9 0.248979 0.628547 0.307399
O O10 0.259090 0.772237 0.403048
O O11 0.331064 0.738609 0.788076
O O12 0.328134 0.000000 0.780356
O O13 0.500000 0.281981 0.770026
O O14 0.544793 0.500000 0.758826
O O15 0.584645 0.322407 0.826247
O O16 0.652944 0.500000 0.184179
O O17 0.663232 0.674879 0.099924
O O18 0.208836 0.798940 0.500000
O O19 0.228488 0.000000 0.432525
#
# Coordination Sequence:
#
# PCOD8288659 Si02
#       7
#    16  16  16  16  16  16  16
#     4   9  20  39  57  71  94 132 175 217 259 300
#     4  11  21  33  51  76 105 134 168 210 252 301
#     4  10  20  31  47  71 103 134 165 203 250 294
#     4  10  19  31  50  74  99 130 167 203 243 296
#     4   9  17  30  49  74 102 131 162 201 254 308
#     4   9  17  32  53  74  99 131 166 205 251 299
#     4   9  18  32  50  72  99 134 174 209 244 297
#
# _framework density 17.346941000000001
#
# number of rings (size 3 to 8) (size 9 to 14) (size 15 to 20)
#    0.000    2.429    1.429    1.714    0.000    6.286 
#    0.000    2.143    0.000   11.143    0.000    3.000 
#    0.000    0.000    0.000    5.143    0.000    4.000 
#
# Total GULP energy -693819.403956 kJ/mol
# GULP energy per Si atom -12389.632214 kJ/mol
# Density = 1.730746 g / cm^3
# Si number density = 17.346941 Si / 1000 Ang^3
#
#
#
# Elastic Constant Matrix: (Units=GPa)
#
#
# Indices 1 2 3 4 5 6 
#
# 1 114.9414 31.3098 46.5302 0.0000 0.0000 0.0000
# 2 31.3098 82.4166 35.6012 0.0000 0.0000 0.0000
# 3 46.5302 35.6012 98.5942 0.0000 0.0000 0.0000
# 4 0.0000 0.0000 0.0000 -6.1195 0.0000 0.0000
# 5 0.0000 0.0000 0.0000 0.0000 21.1629 0.0000
# 6 0.0000 0.0000 0.0000 0.0000 0.0000 7.9155
#
#
#
# Elastic Compliance Matrix: (Units=1/GPa)
#
#
# Indices 1 2 3 4 5 6 
#
# 1 0.011117 -0.002319 -0.004409 0.000000 0.000000 0.000000
# 2 -0.002319 0.014859 -0.004271 0.000000 0.000000 0.000000
# 3 -0.004409 -0.004271 0.013766 0.000000 0.000000 0.000000
# 4 0.000000 0.000000 0.000000 -0.163412 0.000000 0.000000
# 5 0.000000 0.000000 0.000000 0.000000 0.047253 0.000000
# 6 0.000000 0.000000 0.000000 0.000000 0.000000 0.126334
#
#
# Mechanical properties :
#
#
# Convention : Reuss Voigt Hill
#
# Bulk Modulus (GPa) = 56.35815 58.09273 57.22544
# Shear Modulus (GPa) = 64.24319 16.75917 40.50118
#
# Velocity S-wave (km/s) = 6.09218 3.11161 4.83719
# Velocity P-wave (km/s) = 9.05790 6.81696 8.01613
#
# Compressibility (1/GPa) = 0.01774366
#
# Stress axis : x y z
#
# Youngs Moduli (GPa) = 89.95609 67.29764 72.64416
#
# Poissons Ratio (x) = 0.15603 0.32030
# Poissons Ratio (y) = 0.20857 0.31029
# Poissons Ratio (z) = 0.39663 0.28745
#
# Static dielectric constant tensor:
#      x y z
#    x 3.414460 0.000000 0.000000 
#    y 0.000000 3.055350 0.000000 
#    z 0.000000 0.000000 3.170410 
# 
# 
# High freq. dielectric constant tensor:
#      x y z
#    x 1.665020 0.000000 0.000000 
#    y 0.000000 1.656720 0.000000 
#    z 0.000000 0.000000 1.650960 
# 
# From -- ./inp_files/56395.got.cif
#   From: 2010.06.25/outbox.cif.g09.slc.cpg/sg71_29_cif.got.tgz:56395.got - 2010.06.28 04:59:45.
