data_PCOD8288003
_publ_section_title
;
Structure prediction by ZEFSAII (Michael W. Deem and Ramdas Pophale) SiO2 
 PCOD8288003
Probable space group: I M M M
;
_chemical_formula_sum "Si O2"
_cell_formula_units_Z 104
_cell_length_a 17.992629
_cell_length_b 18.497182
_cell_length_c 17.348636
_cell_angle_alpha 90.000000
_cell_angle_beta 90.000000
_cell_angle_gamma 90.000000
_cell_volume 5773.850435
_symmetry_space_group_name_H-M "I M M M"
_symmetry_group_IT_number 71
_symmetry_cell_setting 'orthorhombic'
loop_
_space_group_symop_operation_xyz
x,y,z
-x,-y,z
x,-y,-z
-x,y,-z
-x,-y,-z
x,y,-z
-x,y,z
x,-y,z
1/2+x,1/2+y,1/2+z
1/2-x,1/2-y,1/2+z
1/2+x,1/2-y,1/2-z
1/2-x,1/2+y,1/2-z
1/2-x,1/2-y,1/2-z
1/2+x,1/2+y,1/2-z
1/2-x,1/2+y,1/2+z
1/2+x,1/2-y,1/2+z
loop_
_atom_site_type_symbol
_atom_site_label
_atom_site_fract_x
_atom_site_fract_y
_atom_site_fract_z
Si Si1 0.500000 0.581314 0.203053
Si Si2 0.855965 0.581118 0.590028
Si Si3 0.258711 0.663649 0.685028
Si Si4 0.801454 0.583184 0.088535
Si Si5 0.000000 0.763205 0.254114
Si Si6 0.337224 0.419023 0.817321
Si Si7 0.350716 0.792097 0.687585
Si Si8 0.500000 0.177133 0.091366
O O1 0.500000 0.500000 0.242115
O O2 0.500000 0.649932 0.260149
O O3 0.423144 0.589832 0.154521
O O4 0.843382 0.579658 0.500000
O O5 0.870900 0.500000 0.621499
O O6 0.777683 0.609362 0.624074
O O7 0.927183 0.629892 0.610409
O O8 0.319003 0.628020 0.742338
O O9 0.303902 0.728863 0.643268
O O10 0.189291 0.694919 0.731500
O O11 0.822097 0.500000 0.106763
O O12 0.715987 0.601060 0.111261
O O13 0.855321 0.635012 0.136993
O O14 0.812010 0.601518 0.000000
O O15 0.067170 0.730479 0.207009
O O16 0.000000 0.743447 0.346560
O O17 0.320908 0.500000 0.790650
O O18 0.500000 0.202113 0.000000
#
# Coordination Sequence:
#
# PCOD8288003 Si02
#       8
#     8  16  16  16   8  16  16   8
#     4  10  20  34  55  81 112 146 179 218 266 321
#     4  10  20  34  53  80 114 147 179 217 266 326
#     4  10  18  33  51  79 106 139 181 223 269 311
#     4   9  19  37  57  78 109 145 180 223 274 324
#     4  12  20  39  55  80 115 139 184 227 269 317
#     4   9  17  31  53  79 106 140 179 216 263 318
#     4  10  21  33  55  80 103 141 182 233 266 319
#     4  10  21  36  54  80 116 156 179 207 268 331
#
# _framework density 18.012243000000002
#
# number of rings (size 3 to 8) (size 9 to 14) (size 15 to 20)
#    0.000    2.154    3.077    0.692    0.000    2.154 
#    0.000    3.462    0.000    4.385    0.000    0.538 
#    0.000    4.923    0.000    0.000    0.000    0.000 
#
# Total GULP energy -644222.533855 kJ/mol
# GULP energy per Si atom -12388.894882 kJ/mol
# Density = 1.797125 g / cm^3
# Si number density = 18.012243 Si / 1000 Ang^3
#
#
#
# Elastic Constant Matrix: (Units=GPa)
#
#
# Indices 1 2 3 4 5 6 
#
# 1 104.6884 53.4960 37.7860 0.0000 0.0000 0.0000
# 2 53.4960 117.0356 46.5683 0.0000 0.0000 0.0000
# 3 37.7860 46.5683 54.9275 0.0000 0.0000 0.0000
# 4 0.0000 0.0000 0.0000 23.3571 0.0000 0.0000
# 5 0.0000 0.0000 0.0000 0.0000 14.6052 0.0000
# 6 0.0000 0.0000 0.0000 0.0000 0.0000 28.4339
#
#
#
# Elastic Compliance Matrix: (Units=1/GPa)
#
#
# Indices 1 2 3 4 5 6 
#
# 1 0.013745 -0.003803 -0.006231 0.000000 0.000000 0.000000
# 2 -0.003803 0.013947 -0.009208 0.000000 0.000000 0.000000
# 3 -0.006231 -0.009208 0.030299 0.000000 0.000000 0.000000
# 4 0.000000 0.000000 0.000000 0.042814 0.000000 0.000000
# 5 0.000000 0.000000 0.000000 0.000000 0.068469 0.000000
# 6 0.000000 0.000000 0.000000 0.000000 0.000000 0.035169
#
#
# Mechanical properties :
#
#
# Convention : Reuss Voigt Hill
#
# Bulk Modulus (GPa) = 51.26585 61.37247 56.31916
# Shear Modulus (GPa) = 20.04592 22.53263 21.28927
#
# Velocity S-wave (km/s) = 3.33964 3.54073 3.44166
# Velocity P-wave (km/s) = 6.58744 7.13178 6.86501
#
# Compressibility (1/GPa) = 0.01950616
#
# Stress axis : x y z
#
# Youngs Moduli (GPa) = 72.75602 71.70186 33.00484
#
# Poissons Ratio (x) = 0.27271 0.20564
# Poissons Ratio (y) = 0.27672 0.30390
# Poissons Ratio (z) = 0.45332 0.66021
#
# Static dielectric constant tensor:
#      x y z
#    x 3.369690 0.000000 0.000000 
#    y 0.000000 3.717280 0.000000 
#    z 0.000000 0.000000 2.984670 
# 
# 
# High freq. dielectric constant tensor:
#      x y z
#    x 1.700660 0.000000 0.000000 
#    y 0.000000 1.716860 0.000000 
#    z 0.000000 0.000000 1.652360 
# 
# From -- ./inp_files/46174.got.cif
#   From: 2010.06.25/outbox.cif.g09.slc.cpg/sg71_24_cif.got.tgz:46174.got - 2010.06.28 04:59:45.
