data_PCOD8288493
_publ_section_title
;
Structure prediction by ZEFSAII (Michael W. Deem and Ramdas Pophale) SiO2 
 PCOD8288493
Probable space group: I M M M
;
_chemical_formula_sum "Si O2"
_cell_formula_units_Z 112
_cell_length_a 17.642697
_cell_length_b 13.954342
_cell_length_c 28.019239
_cell_angle_alpha 90.000000
_cell_angle_beta 90.000000
_cell_angle_gamma 90.000000
_cell_volume 6898.118869
_symmetry_space_group_name_H-M "I M M M"
_symmetry_group_IT_number 71
_symmetry_cell_setting 'orthorhombic'
loop_
_space_group_symop_operation_xyz
x,y,z
-x,-y,z
x,-y,-z
-x,y,-z
-x,-y,-z
x,y,-z
-x,y,z
x,-y,z
1/2+x,1/2+y,1/2+z
1/2-x,1/2-y,1/2+z
1/2+x,1/2-y,1/2-z
1/2-x,1/2+y,1/2-z
1/2-x,1/2-y,1/2-z
1/2+x,1/2+y,1/2-z
1/2-x,1/2+y,1/2+z
1/2+x,1/2-y,1/2+z
loop_
_atom_site_type_symbol
_atom_site_label
_atom_site_fract_x
_atom_site_fract_y
_atom_site_fract_z
Si Si1 0.868949 0.792430 0.265822
Si Si2 0.000000 0.113602 0.793194
Si Si3 0.910198 0.105817 0.552519
Si Si4 0.281353 0.891014 0.873181
Si Si5 0.000000 0.112097 0.095122
Si Si6 0.656443 0.385810 0.554168
Si Si7 0.086766 0.249855 0.369386
Si Si8 0.223142 0.609754 0.264308
O O1 0.925725 0.835488 0.227268
O O2 0.907872 0.797231 0.317328
O O3 0.847155 0.681550 0.253525
O O4 0.793918 0.858204 0.267909
O O5 0.000000 0.133697 0.849047
O O6 0.000000 0.000000 0.781293
O O7 0.886979 0.144211 0.500000
O O8 0.878146 0.175110 0.592957
O O9 0.000000 0.100200 0.556982
O O10 0.875779 0.000000 0.560484
O O11 0.221220 0.844762 0.910253
O O12 0.363838 0.844379 0.875694
O O13 0.249826 0.880378 0.819374
O O14 0.294938 0.000000 0.887501
O O15 0.924816 0.156673 0.070746
O O16 0.000000 0.000000 0.085082
O O17 0.673604 0.352864 0.500000
O O18 0.654582 0.500000 0.558428
O O19 0.000000 0.277106 0.380532
O O20 0.199137 0.500000 0.252547
#
# Coordination Sequence:
#
# PCOD8288493 Si02
#       8
#    16   8  16  16   8  16  16  16
#     4  10  19  31  46  69  95 118 159 203 242 286
#     4  11  20  29  45  70  98 123 154 200 246 290
#     4   8  15  28  44  60  80 110 145 183 232 281
#     4   9  18  31  46  64  90 127 162 189 226 277
#     4   9  17  28  45  67  91 122 150 182 239 298
#     4   9  16  27  44  67  93 118 151 192 231 277
#     4  10  19  31  45  66  93 119 155 199 237 273
#     4   9  18  33  49  63  89 130 164 194 235 291
#
# _framework density 16.236311000000001
#
# number of rings (size 3 to 8) (size 9 to 14) (size 15 to 20)
#    0.000    2.714    0.714    1.929    0.000    5.143 
#    0.000    0.357    0.000    0.000    0.000    4.000 
#    0.000    0.000    0.000    0.429    0.000   25.714 
#
# Total GULP energy -694155.977421 kJ/mol
# GULP energy per Si atom -12395.642454 kJ/mol
# Density = 1.619936 g / cm^3
# Si number density = 16.236311 Si / 1000 Ang^3
#
#
#
# Elastic Constant Matrix: (Units=GPa)
#
#
# Indices 1 2 3 4 5 6 
#
# 1 80.4900 28.2745 37.3970 0.0000 0.0000 0.0000
# 2 28.2745 71.6679 27.3119 0.0000 0.0000 0.0000
# 3 37.3970 27.3119 66.4735 0.0000 0.0000 0.0000
# 4 0.0000 0.0000 0.0000 18.5270 0.0000 0.0000
# 5 0.0000 0.0000 0.0000 0.0000 21.3123 0.0000
# 6 0.0000 0.0000 0.0000 0.0000 0.0000 16.8701
#
#
#
# Elastic Compliance Matrix: (Units=1/GPa)
#
#
# Indices 1 2 3 4 5 6 
#
# 1 0.017639 -0.003767 -0.008375 0.000000 0.000000 0.000000
# 2 -0.003767 0.017348 -0.005009 0.000000 0.000000 0.000000
# 3 -0.008375 -0.005009 0.021813 0.000000 0.000000 0.000000
# 4 0.000000 0.000000 0.000000 0.053975 0.000000 0.000000
# 5 0.000000 0.000000 0.000000 0.000000 0.046921 0.000000
# 6 0.000000 0.000000 0.000000 0.000000 0.000000 0.059276
#
#
# Mechanical properties :
#
#
# Convention : Reuss Voigt Hill
#
# Bulk Modulus (GPa) = 44.44833 44.95537 44.70185
# Shear Modulus (GPa) = 19.32185 19.71841 19.52013
#
# Velocity S-wave (km/s) = 3.45344 3.48870 3.47111
# Velocity P-wave (km/s) = 6.58308 6.63146 6.60731
#
# Compressibility (1/GPa) = 0.02249803
#
# Stress axis : x y z
#
# Youngs Moduli (GPa) = 56.69399 57.64321 45.84349
#
# Poissons Ratio (x) = 0.21714 0.38396
# Poissons Ratio (y) = 0.21357 0.22961
# Poissons Ratio (z) = 0.47484 0.28871
#
# Static dielectric constant tensor:
#      x y z
#    x 2.995430 0.000000 0.000000 
#    y 0.000000 2.984070 0.000000 
#    z 0.000000 0.000000 3.210570 
# 
# 
# High freq. dielectric constant tensor:
#      x y z
#    x 1.614100 0.000000 0.000000 
#    y 0.000000 1.594340 0.000000 
#    z 0.000000 0.000000 1.629870 
# 
# From -- ./inp_files/70591.got.cif
#   From: 2010.06.25/outbox.cif.g09.slc.cpg/sg71_36_cif.got.tgz:70591.got - 2010.06.28 04:59:45.
