data_PCOD8288224
_publ_section_title
;
Structure prediction by ZEFSAII (Michael W. Deem and Ramdas Pophale) SiO2 
 PCOD8288224
Probable space group: I M M M
;
_chemical_formula_sum "Si O2"
_cell_formula_units_Z 104
_cell_length_a 13.781163
_cell_length_b 22.636689
_cell_length_c 20.408042
_cell_angle_alpha 90.000000
_cell_angle_beta 90.000000
_cell_angle_gamma 90.000000
_cell_volume 6366.490760
_symmetry_space_group_name_H-M "I M M M"
_symmetry_group_IT_number 71
_symmetry_cell_setting 'orthorhombic'
loop_
_space_group_symop_operation_xyz
x,y,z
-x,-y,z
x,-y,-z
-x,y,-z
-x,-y,-z
x,y,-z
-x,y,z
x,-y,z
1/2+x,1/2+y,1/2+z
1/2-x,1/2-y,1/2+z
1/2+x,1/2-y,1/2-z
1/2-x,1/2+y,1/2-z
1/2-x,1/2-y,1/2-z
1/2+x,1/2+y,1/2-z
1/2-x,1/2+y,1/2+z
1/2+x,1/2-y,1/2+z
loop_
_atom_site_type_symbol
_atom_site_label
_atom_site_fract_x
_atom_site_fract_y
_atom_site_fract_z
Si Si1 0.687849 0.359355 0.926483
Si Si2 0.890627 0.765033 0.254899
Si Si3 0.884619 0.607348 0.429911
Si Si4 0.608362 0.764972 0.097908
Si Si5 0.220020 0.659407 0.204168
Si Si6 0.000000 0.066620 0.422886
Si Si7 0.111947 0.566709 0.707837
O O1 0.666072 0.290010 0.930803
O O2 0.769511 0.365877 0.870176
O O3 0.595253 0.397045 0.901212
O O4 0.721652 0.379842 0.000000
O O5 0.890663 0.730931 0.323667
O O6 0.846539 0.718601 0.202441
O O7 0.824074 0.823512 0.263016
O O8 0.000000 0.783667 0.234126
O O9 0.850738 0.579290 0.500000
O O10 0.843825 0.674315 0.427039
O O11 0.848389 0.570433 0.367201
O O12 0.000000 0.609570 0.427122
O O13 0.500000 0.758228 0.070862
O O14 0.174433 0.607217 0.245373
O O15 0.000000 0.061364 0.500000
O O16 0.000000 0.000000 0.392360
O O17 0.124113 0.500000 0.732277
O O18 0.000000 0.587180 0.711737
#
# Coordination Sequence:
#
# PCOD8288224 Si02
#       7
#    16  16  16  16  16   8  16
#     4  10  19  29  45  71  97 124 162 204 247 296
#     4   9  17  30  49  71  97 125 160 196 239 292
#     4   9  16  25  42  69  98 126 151 183 233 289
#     4   9  14  24  44  68  94 121 150 185 229 292
#     4  10  19  30  50  72  94 129 166 201 241 287
#     4   9  18  32  46  62  94 136 164 192 250 316
#     4  10  20  34  50  68  96 133 169 202 239 290
#
# _framework density 16.335529999999999
#
# number of rings (size 3 to 8) (size 9 to 14) (size 15 to 20)
#    0.000    2.538    2.308    0.923    1.077    1.538 
#    0.000    1.538    0.000    1.846    0.000    1.077 
#    0.000    0.000    0.000    1.385    0.000    0.154 
#
# Total GULP energy -644299.640114 kJ/mol
# GULP energy per Si atom -12390.377695 kJ/mol
# Density = 1.629835 g / cm^3
# Si number density = 16.335530 Si / 1000 Ang^3
#
#
#
# Elastic Constant Matrix: (Units=GPa)
#
#
# Indices 1 2 3 4 5 6 
#
# 1 73.5102 31.6261 41.7537 0.0000 0.0000 0.0000
# 2 31.6261 63.3223 35.7676 0.0000 0.0000 0.0000
# 3 41.7537 35.7676 110.5922 0.0000 0.0000 0.0000
# 4 0.0000 0.0000 0.0000 15.0403 0.0000 0.0000
# 5 0.0000 0.0000 0.0000 0.0000 15.3308 0.0000
# 6 0.0000 0.0000 0.0000 0.0000 0.0000 18.3919
#
#
#
# Elastic Compliance Matrix: (Units=1/GPa)
#
#
# Indices 1 2 3 4 5 6 
#
# 1 0.019455 -0.006812 -0.005142 0.000000 0.000000 0.000000
# 2 -0.006812 0.021707 -0.004449 0.000000 0.000000 0.000000
# 3 -0.005142 -0.004449 0.012422 0.000000 0.000000 0.000000
# 4 0.000000 0.000000 0.000000 0.066488 0.000000 0.000000
# 5 0.000000 0.000000 0.000000 0.000000 0.065228 0.000000
# 6 0.000000 0.000000 0.000000 0.000000 0.000000 0.054372
#
#
# Mechanical properties :
#
#
# Convention : Reuss Voigt Hill
#
# Bulk Modulus (GPa) = 48.12552 51.74660 49.93606
# Shear Modulus (GPa) = 17.89519 18.97109 18.43314
#
# Velocity S-wave (km/s) = 3.31339 3.41154 3.36282
# Velocity P-wave (km/s) = 6.64550 6.87490 6.76117
#
# Compressibility (1/GPa) = 0.02077900
#
# Stress axis : x y z
#
# Youngs Moduli (GPa) = 51.40066 46.06726 80.50022
#
# Poissons Ratio (x) = 0.31382 0.41393
# Poissons Ratio (y) = 0.35016 0.35812
# Poissons Ratio (z) = 0.26430 0.20494
#
# Static dielectric constant tensor:
#      x y z
#    x 2.886920 0.000000 0.000000 
#    y 0.000000 3.096090 0.000000 
#    z 0.000000 0.000000 3.247770 
# 
# 
# High freq. dielectric constant tensor:
#      x y z
#    x 1.579680 0.000000 0.000000 
#    y 0.000000 1.624830 0.000000 
#    z 0.000000 0.000000 1.622750 
# 
# From -- ./inp_files/53366.got.cif
#   From: 2010.06.25/outbox.cif.g09.slc.cpg/sg71_27_cif.got.tgz:53366.got - 2010.06.28 04:59:45.
