data_PCOD8288912
_publ_section_title
;
Structure prediction by ZEFSAII (Michael W. Deem and Ramdas Pophale) SiO2 
 PCOD8288912
Probable space group: I M M M
;
_chemical_formula_sum "Si O2"
_cell_formula_units_Z 56
_cell_length_a 13.556449
_cell_length_b 7.970259
_cell_length_c 27.821804
_cell_angle_alpha 90.000000
_cell_angle_beta 90.000000
_cell_angle_gamma 90.000000
_cell_volume 3006.101676
_symmetry_space_group_name_H-M "I M M M"
_symmetry_group_IT_number 71
_symmetry_cell_setting 'orthorhombic'
loop_
_space_group_symop_operation_xyz
x,y,z
-x,-y,z
x,-y,-z
-x,y,-z
-x,-y,-z
x,y,-z
-x,y,z
x,-y,z
1/2+x,1/2+y,1/2+z
1/2-x,1/2-y,1/2+z
1/2+x,1/2-y,1/2-z
1/2-x,1/2+y,1/2-z
1/2-x,1/2-y,1/2-z
1/2+x,1/2+y,1/2-z
1/2-x,1/2+y,1/2+z
1/2+x,1/2-y,1/2+z
loop_
_atom_site_type_symbol
_atom_site_label
_atom_site_fract_x
_atom_site_fract_y
_atom_site_fract_z
Si Si1 0.500000 0.185405 0.056449
Si Si2 0.613443 0.000000 0.808641
Si Si3 0.387528 0.000000 0.694885
Si Si4 0.790130 0.193275 0.553940
Si Si5 0.717905 0.317800 0.350678
O O1 0.597137 0.286738 0.071667
O O2 0.500000 0.000000 0.080568
O O3 0.500000 0.164293 0.000000
O O4 0.621081 0.000000 0.751602
O O5 0.670188 0.165511 0.829222
O O6 0.500000 0.000000 0.825748
O O7 0.337270 0.832027 0.675422
O O8 0.500000 0.000000 0.677320
O O9 0.774315 0.267547 0.500000
O O10 0.720685 0.287493 0.591906
O O11 0.761290 0.000000 0.554539
O O12 0.664379 0.500000 0.342457
#
# Coordination Sequence:
#
# PCOD8288912 Si02
#       5
#     8   8   8  16  16
#     4   9  17  27  43  71 111 157 195 230 277 351
#     4   9  22  40  62  90 126 156 190 244 302 365
#     4  11  22  44  64  84 117 157 204 258 305 342
#     4  10  19  32  51  78 117 159 198 237 292 356
#     4  10  22  36  63  88 119 153 199 241 297 358
#
# _framework density 18.628776999999999
#
# number of rings (size 3 to 8) (size 9 to 14) (size 15 to 20)
#    0.857    1.286    1.429    2.143    2.000    4.000 
#    0.000    0.714    0.000    1.714    0.000    2.000 
#    0.000    0.000    0.000    0.000    0.000    0.000 
#
# Total GULP energy -346903.452652 kJ/mol
# GULP energy per Si atom -12389.409023 kJ/mol
# Density = 1.858638 g / cm^3
# Si number density = 18.628777 Si / 1000 Ang^3
#
#
#
# Elastic Constant Matrix: (Units=GPa)
#
#
# Indices 1 2 3 4 5 6 
#
# 1 86.6595 46.9815 38.3697 0.0000 0.0000 0.0000
# 2 46.9815 128.8271 41.1135 0.0000 0.0000 0.0000
# 3 38.3697 41.1135 102.6177 0.0000 0.0000 0.0000
# 4 0.0000 0.0000 0.0000 20.0573 0.0000 0.0000
# 5 0.0000 0.0000 0.0000 0.0000 7.4674 0.0000
# 6 0.0000 0.0000 0.0000 0.0000 0.0000 22.8142
#
#
#
# Elastic Compliance Matrix: (Units=1/GPa)
#
#
# Indices 1 2 3 4 5 6 
#
# 1 0.015768 -0.004436 -0.004118 0.000000 0.000000 0.000000
# 2 -0.004436 0.010148 -0.002407 0.000000 0.000000 0.000000
# 3 -0.004118 -0.002407 0.012249 0.000000 0.000000 0.000000
# 4 0.000000 0.000000 0.000000 0.049857 0.000000 0.000000
# 5 0.000000 0.000000 0.000000 0.000000 0.133916 0.000000
# 6 0.000000 0.000000 0.000000 0.000000 0.000000 0.043832
#
#
# Mechanical properties :
#
#
# Convention : Reuss Voigt Hill
#
# Bulk Modulus (GPa) = 61.56849 63.44820 62.50834
# Shear Modulus (GPa) = 17.05853 22.84375 19.95114
#
# Velocity S-wave (km/s) = 3.02935 3.50560 3.27614
# Velocity P-wave (km/s) = 6.73483 7.10766 6.92375
#
# Compressibility (1/GPa) = 0.01624207
#
# Stress axis : x y z
#
# Youngs Moduli (GPa) = 63.42026 98.53850 81.63732
#
# Poissons Ratio (x) = 0.43711 0.33622
# Poissons Ratio (y) = 0.28133 0.19652
# Poissons Ratio (z) = 0.26119 0.23721
#
# Static dielectric constant tensor:
#      x y z
#    x 3.212870 0.000000 0.000000 
#    y 0.000000 3.450520 0.000000 
#    z 0.000000 0.000000 3.512290 
# 
# 
# High freq. dielectric constant tensor:
#      x y z
#    x 1.680230 0.000000 0.000000 
#    y 0.000000 1.723070 0.000000 
#    z 0.000000 0.000000 1.734290 
# 
# From -- ./inp_files/68787.got.cif
#   From: 2010.06.25/outbox.cif.g09.slc.cpg/sg71_35_cif.got.tgz:68787.got - 2010.06.28 04:59:45.
