data_PCOD8288760
_publ_section_title
;
Structure prediction by ZEFSAII (Michael W. Deem and Ramdas Pophale) SiO2 
 PCOD8288760
Probable space group: I M M M
;
_chemical_formula_sum "Si O2"
_cell_formula_units_Z 104
_cell_length_a 9.321506
_cell_length_b 25.654227
_cell_length_c 23.202027
_cell_angle_alpha 90.000000
_cell_angle_beta 90.000000
_cell_angle_gamma 90.000000
_cell_volume 5548.440646
_symmetry_space_group_name_H-M "I M M M"
_symmetry_group_IT_number 71
_symmetry_cell_setting 'orthorhombic'
loop_
_space_group_symop_operation_xyz
x,y,z
-x,-y,z
x,-y,-z
-x,y,-z
-x,-y,-z
x,y,-z
-x,y,z
x,-y,z
1/2+x,1/2+y,1/2+z
1/2-x,1/2-y,1/2+z
1/2+x,1/2-y,1/2-z
1/2-x,1/2+y,1/2-z
1/2-x,1/2-y,1/2-z
1/2+x,1/2+y,1/2-z
1/2-x,1/2+y,1/2+z
1/2+x,1/2-y,1/2+z
loop_
_atom_site_type_symbol
_atom_site_label
_atom_site_fract_x
_atom_site_fract_y
_atom_site_fract_z
Si Si1 0.338276 0.306343 0.435854
Si Si2 0.840567 0.351144 0.274337
Si Si3 0.665018 0.246858 0.842995
Si Si4 0.336931 0.900855 0.897701
Si Si5 0.667429 0.500000 0.567810
Si Si6 0.670169 0.559276 0.064704
Si Si7 0.164535 0.869254 0.669328
O O1 0.342409 0.283472 0.500000
O O2 0.500000 0.319523 0.414527
O O3 0.268278 0.262190 0.396787
O O4 0.240394 0.357490 0.436017
O O5 0.788160 0.291763 0.290263
O O6 0.835899 0.385156 0.331393
O O7 0.746423 0.383239 0.228045
O O8 0.000000 0.347638 0.248399
O O9 0.500000 0.232959 0.859136
O O10 0.684327 0.307301 0.831323
O O11 0.500000 0.909223 0.919726
O O12 0.243136 0.951687 0.903053
O O13 0.500000 0.500000 0.583059
O O14 0.693900 0.500000 0.500000
O O15 0.500000 0.562580 0.063452
O O16 0.718387 0.500000 0.080373
O O17 0.728671 0.600237 0.113161
O O18 0.727317 0.573826 0.000000
O O19 0.000000 0.885677 0.676014
#
# Coordination Sequence:
#
# PCOD8288760 Si02
#       7
#    16  16  16  16   8  16  16
#     4  10  20  33  50  74 104 137 174 218 269 319
#     4   9  19  35  51  71 104 140 171 208 262 317
#     4   9  19  33  49  73 104 138 176 216 259 316
#     4  10  21  37  55  75 102 140 182 219 261 315
#     4  11  23  37  55  81 109 137 176 225 272 313
#     4   8  15  30  51  75 105 135 163 206 263 316
#     4  10  19  31  53  82 103 129 176 220 257 310
#
# _framework density 18.744004
#
# number of rings (size 3 to 8) (size 9 to 14) (size 15 to 20)
#    0.000    2.538    0.000    3.462    0.000    8.000 
#    1.385    1.538    0.000    0.462    0.000    1.077 
#    0.000    0.000    0.000    0.000    0.000    0.000 
#
# Total GULP energy -644409.911904 kJ/mol
# GULP energy per Si atom -12392.498306 kJ/mol
# Density = 1.870134 g / cm^3
# Si number density = 18.744004 Si / 1000 Ang^3
#
#
#
# Elastic Constant Matrix: (Units=GPa)
#
#
# Indices 1 2 3 4 5 6 
#
# 1 77.4784 25.1987 37.4869 0.0000 0.0000 0.0000
# 2 25.1987 69.4383 35.1051 0.0000 0.0000 0.0000
# 3 37.4869 35.1051 106.3803 0.0000 0.0000 0.0000
# 4 0.0000 0.0000 0.0000 28.5035 0.0000 0.0000
# 5 0.0000 0.0000 0.0000 0.0000 25.0203 0.0000
# 6 0.0000 0.0000 0.0000 0.0000 0.0000 21.1524
#
#
#
# Elastic Compliance Matrix: (Units=1/GPa)
#
#
# Indices 1 2 3 4 5 6 
#
# 1 0.016280 -0.003610 -0.004546 0.000000 0.000000 0.000000
# 2 -0.003610 0.018085 -0.004696 0.000000 0.000000 0.000000
# 3 -0.004546 -0.004696 0.012552 0.000000 0.000000 0.000000
# 4 0.000000 0.000000 0.000000 0.035083 0.000000 0.000000
# 5 0.000000 0.000000 0.000000 0.000000 0.039968 0.000000
# 6 0.000000 0.000000 0.000000 0.000000 0.000000 0.047276
#
#
# Mechanical properties :
#
#
# Convention : Reuss Voigt Hill
#
# Bulk Modulus (GPa) = 47.13829 49.87538 48.50684
# Shear Modulus (GPa) = 24.75017 25.30234 25.02626
#
# Velocity S-wave (km/s) = 3.63772 3.67807 3.65795
# Velocity P-wave (km/s) = 6.54576 6.68611 6.61631
#
# Compressibility (1/GPa) = 0.02121417
#
# Stress axis : x y z
#
# Youngs Moduli (GPa) = 61.42406 55.29324 79.67028
#
# Poissons Ratio (x) = 0.19960 0.36216
# Poissons Ratio (y) = 0.22174 0.37413
# Poissons Ratio (z) = 0.27921 0.25966
#
# Static dielectric constant tensor:
#      x y z
#    x 3.464760 0.000000 0.000000 
#    y 0.000000 3.507740 0.000000 
#    z 0.000000 0.000000 3.491770 
# 
# 
# High freq. dielectric constant tensor:
#      x y z
#    x 1.717010 0.000000 0.000000 
#    y 0.000000 1.717590 0.000000 
#    z 0.000000 0.000000 1.727830 
# 
# From -- ./inp_files/58020.got.cif
#   From: 2010.06.25/outbox.cif.g09.slc.cpg/sg71_30_cif.got.tgz:58020.got - 2010.06.28 04:59:45.
