data_PCOD8288776
_publ_section_title
;
Structure prediction by ZEFSAII (Michael W. Deem and Ramdas Pophale) SiO2 
 PCOD8288776
Probable space group: I M M M
;
_chemical_formula_sum "Si O2"
_cell_formula_units_Z 104
_cell_length_a 26.926159
_cell_length_b 28.201532
_cell_length_c 7.912265
_cell_angle_alpha 90.000000
_cell_angle_beta 90.000000
_cell_angle_gamma 90.000000
_cell_volume 6008.249121
_symmetry_space_group_name_H-M "I M M M"
_symmetry_group_IT_number 71
_symmetry_cell_setting 'orthorhombic'
loop_
_space_group_symop_operation_xyz
x,y,z
-x,-y,z
x,-y,-z
-x,y,-z
-x,-y,-z
x,y,-z
-x,y,z
x,-y,z
1/2+x,1/2+y,1/2+z
1/2-x,1/2-y,1/2+z
1/2+x,1/2-y,1/2-z
1/2-x,1/2+y,1/2-z
1/2-x,1/2-y,1/2-z
1/2+x,1/2+y,1/2-z
1/2-x,1/2+y,1/2+z
1/2+x,1/2-y,1/2+z
loop_
_atom_site_type_symbol
_atom_site_label
_atom_site_fract_x
_atom_site_fract_y
_atom_site_fract_z
Si Si1 0.941009 0.694906 0.187720
Si Si2 0.441097 0.868837 0.000000
Si Si3 0.691921 0.552992 0.692838
Si Si4 0.097503 0.105378 0.306808
Si Si5 0.295984 0.056155 0.686355
Si Si6 0.139199 0.443607 0.500000
Si Si7 0.944007 0.800576 0.802379
Si Si8 0.500000 0.446417 0.201270
O O1 0.922886 0.659106 0.332542
O O2 0.922449 0.747975 0.233159
O O3 0.000000 0.696716 0.182231
O O4 0.921463 0.679583 0.000000
O O5 0.500000 0.876842 0.000000
O O6 0.415110 0.919944 0.000000
O O7 0.708863 0.550001 0.500000
O O8 0.677527 0.500000 0.758485
O O9 0.645762 0.588167 0.708030
O O10 0.739328 0.574249 0.792470
O O11 0.104711 0.090610 0.500000
O O12 0.091686 0.161979 0.290152
O O13 0.048835 0.079976 0.228205
O O14 0.315347 0.071884 0.500000
O O15 0.332073 0.075305 0.833224
O O16 0.294576 0.000000 0.703811
O O17 0.131579 0.500000 0.500000
O O18 0.000000 0.805536 0.729490
O O19 0.944106 0.811339 0.000000
O O20 0.500000 0.500000 0.269466
O O21 0.500000 0.444410 0.000000
#
# Coordination Sequence:
#
# PCOD8288776 Si02
#       8
#    16   8  16  16  16   8  16   8
#     4   8  16  31  50  73 102 136 172 215 254 286
#     4  10  20  33  54  84 112 146 173 197 232 292
#     4  10  19  32  48  67  95 128 169 222 270 309
#     4  11  20  28  42  66  93 127 170 216 266 322
#     4   9  17  32  54  76 100 132 171 217 258 291
#     4  10  20  35  54  82 116 141 170 202 237 287
#     4   9  17  30  46  64  93 127 165 219 269 307
#     4   9  18  30  37  51  89 135 173 209 255 319
#
# _framework density 17.309533999999999
#
# number of rings (size 3 to 8) (size 9 to 14) (size 15 to 20)
#    0.000    2.538    1.538    2.308    1.077    2.308 
#    0.000    0.000    0.000    1.846    0.000    5.385 
#    0.000    0.000    0.000    0.000    0.000    0.000 
#
# Total GULP energy -644612.069612 kJ/mol
# GULP energy per Si atom -12396.385954 kJ/mol
# Density = 1.727014 g / cm^3
# Si number density = 17.309534 Si / 1000 Ang^3
#
#
#
# Elastic Constant Matrix: (Units=GPa)
#
#
# Indices 1 2 3 4 5 6 
#
# 1 68.9896 39.3984 33.2465 0.0000 0.0000 0.0000
# 2 39.3984 72.1327 33.5357 0.0000 0.0000 0.0000
# 3 33.2465 33.5357 95.0361 0.0000 0.0000 0.0000
# 4 0.0000 0.0000 0.0000 16.8237 0.0000 0.0000
# 5 0.0000 0.0000 0.0000 0.0000 15.1310 0.0000
# 6 0.0000 0.0000 0.0000 0.0000 0.0000 13.5398
#
#
#
# Elastic Compliance Matrix: (Units=1/GPa)
#
#
# Indices 1 2 3 4 5 6 
#
# 1 0.022389 -0.010273 -0.004207 0.000000 0.000000 0.000000
# 2 -0.010273 0.021297 -0.003922 0.000000 0.000000 0.000000
# 3 -0.004207 -0.003922 0.013378 0.000000 0.000000 0.000000
# 4 0.000000 0.000000 0.000000 0.059440 0.000000 0.000000
# 5 0.000000 0.000000 0.000000 0.000000 0.066090 0.000000
# 6 0.000000 0.000000 0.000000 0.000000 0.000000 0.073856
#
#
# Mechanical properties :
#
#
# Convention : Reuss Voigt Hill
#
# Bulk Modulus (GPa) = 49.35558 49.83549 49.59553
# Shear Modulus (GPa) = 16.66628 17.76410 17.21519
#
# Velocity S-wave (km/s) = 3.10633 3.20701 3.15707
# Velocity P-wave (km/s) = 6.43748 6.52430 6.48103
#
# Compressibility (1/GPa) = 0.02026114
#
# Stress axis : x y z
#
# Youngs Moduli (GPa) = 44.66489 46.95411 74.74945
#
# Poissons Ratio (x) = 0.48234 0.31450
# Poissons Ratio (y) = 0.45882 0.29314
# Poissons Ratio (z) = 0.18792 0.18414
#
# Static dielectric constant tensor:
#      x y z
#    x 2.896650 0.000000 0.000000 
#    y 0.000000 3.003630 0.000000 
#    z 0.000000 0.000000 3.390020 
# 
# 
# High freq. dielectric constant tensor:
#      x y z
#    x 1.632220 0.000000 0.000000 
#    y 0.000000 1.640470 0.000000 
#    z 0.000000 0.000000 1.679130 
# 
# From -- ./inp_files/13351.got.cif
#   From: 2010.06.25/outbox.cif.g09.slc.cpg/sg71_7_cif.got.tgz:13351.got - 2010.06.28 04:59:45.
