data_PCOD8288818
_publ_section_title
;
Structure prediction by ZEFSAII (Michael W. Deem and Ramdas Pophale) SiO2 
 PCOD8288818
Probable space group: I M M M
;
_chemical_formula_sum "Si O2"
_cell_formula_units_Z 80
_cell_length_a 18.614388
_cell_length_b 13.184861
_cell_length_c 18.832264
_cell_angle_alpha 90.000000
_cell_angle_beta 90.000000
_cell_angle_gamma 90.000000
_cell_volume 4621.967118
_symmetry_space_group_name_H-M "I M M M"
_symmetry_group_IT_number 71
_symmetry_cell_setting 'orthorhombic'
loop_
_space_group_symop_operation_xyz
x,y,z
-x,-y,z
x,-y,-z
-x,y,-z
-x,-y,-z
x,y,-z
-x,y,z
x,-y,z
1/2+x,1/2+y,1/2+z
1/2-x,1/2-y,1/2+z
1/2+x,1/2-y,1/2-z
1/2-x,1/2+y,1/2-z
1/2-x,1/2-y,1/2-z
1/2+x,1/2+y,1/2-z
1/2-x,1/2+y,1/2+z
1/2+x,1/2-y,1/2+z
loop_
_atom_site_type_symbol
_atom_site_label
_atom_site_fract_x
_atom_site_fract_y
_atom_site_fract_z
Si Si1 0.420181 0.886445 0.083630
Si Si2 0.299404 0.116729 0.314502
Si Si3 0.832128 0.112991 0.919612
Si Si4 0.082660 0.691348 0.917875
Si Si5 0.203774 0.295706 0.337812
O O1 0.500000 0.863802 0.112628
O O2 0.366717 0.803016 0.114401
O O3 0.396458 0.000000 0.107136
O O4 0.419376 0.877960 0.000000
O O5 0.366656 0.122621 0.368406
O O6 0.230348 0.179098 0.343113
O O7 0.320180 0.169366 0.240371
O O8 0.277404 0.000000 0.304813
O O9 0.897260 0.190654 0.906131
O O10 0.766766 0.131742 0.866128
O O11 0.862350 0.000000 0.906505
O O12 0.802540 0.124969 0.000000
O O13 0.000000 0.675042 0.895557
O O14 0.094478 0.659572 0.000000
#
# Coordination Sequence:
#
# PCOD8288818 Si02
#       5
#    16  16  16  16  16
#     4   9  17  29  48  75 102 125 149 182 230 282
#     4  10  21  34  49  70  92 120 159 196 233 276
#     4   9  16  27  48  75  98 124 156 188 229 279
#     4   9  19  34  48  66  95 127 160 198 235 271
#     4  10  19  32  50  70  96 124 151 191 234 275
#
# _framework density 17.308647000000001
#
# number of rings (size 3 to 8) (size 9 to 14) (size 15 to 20)
#    0.000    2.600    0.000    3.000    0.000    4.400 
#    0.000    3.000    0.000    0.600    0.000    1.400 
#    0.000    0.000    0.000    0.000    0.000    0.000 
#
# Total GULP energy -495905.419526 kJ/mol
# GULP energy per Si atom -12397.635488 kJ/mol
# Density = 1.726925 g / cm^3
# Si number density = 17.308647 Si / 1000 Ang^3
#
#
#
# Elastic Constant Matrix: (Units=GPa)
#
#
# Indices 1 2 3 4 5 6 
#
# 1 107.7151 40.5669 43.8397 0.0000 0.0000 0.0000
# 2 40.5669 97.5853 19.7321 0.0000 0.0000 0.0000
# 3 43.8397 19.7321 58.9529 0.0000 0.0000 0.0000
# 4 0.0000 0.0000 0.0000 22.6187 0.0000 0.0000
# 5 0.0000 0.0000 0.0000 0.0000 12.8888 0.0000
# 6 0.0000 0.0000 0.0000 0.0000 0.0000 19.5410
#
#
#
# Elastic Compliance Matrix: (Units=1/GPa)
#
#
# Indices 1 2 3 4 5 6 
#
# 1 0.014761 -0.004201 -0.009571 0.000000 0.000000 0.000000
# 2 -0.004201 0.012187 -0.000955 0.000000 0.000000 0.000000
# 3 -0.009571 -0.000955 0.024400 0.000000 0.000000 0.000000
# 4 0.000000 0.000000 0.000000 0.044211 0.000000 0.000000
# 5 0.000000 0.000000 0.000000 0.000000 0.077587 0.000000
# 6 0.000000 0.000000 0.000000 0.000000 0.000000 0.051174
#
#
# Mechanical properties :
#
#
# Convention : Reuss Voigt Hill
#
# Bulk Modulus (GPa) = 45.67487 52.50342 49.08915
# Shear Modulus (GPa) = 19.15179 21.68401 20.41790
#
# Velocity S-wave (km/s) = 3.33000 3.54331 3.43831
# Velocity P-wave (km/s) = 6.42113 6.86582 6.64720
#
# Compressibility (1/GPa) = 0.02189388
#
# Stress axis : x y z
#
# Youngs Moduli (GPa) = 67.74490 82.05486 40.98420
#
# Poissons Ratio (x) = 0.34472 0.39226
# Poissons Ratio (y) = 0.28460 0.03914
# Poissons Ratio (z) = 0.64838 0.07836
#
# Static dielectric constant tensor:
#      x y z
#    x 3.175430 0.000000 0.000000 
#    y 0.000000 3.190140 0.000000 
#    z 0.000000 0.000000 3.269840 
# 
# 
# High freq. dielectric constant tensor:
#      x y z
#    x 1.657280 0.000000 0.000000 
#    y 0.000000 1.655500 0.000000 
#    z 0.000000 0.000000 1.670910 
# 
# From -- ./inp_files/36472.got.cif
#   From: 2010.06.25/outbox.cif.g09.slc.cpg/sg71_19_cif.got.tgz:36472.got - 2010.06.28 04:59:45.
