data_PCOD8288889
_publ_section_title
;
Structure prediction by ZEFSAII (Michael W. Deem and Ramdas Pophale) SiO2 
 PCOD8288889
Probable space group: I M M M
;
_chemical_formula_sum "Si O2"
_cell_formula_units_Z 88
_cell_length_a 9.317375
_cell_length_b 19.007790
_cell_length_c 27.393956
_cell_angle_alpha 90.000000
_cell_angle_beta 90.000000
_cell_angle_gamma 90.000000
_cell_volume 4851.543773
_symmetry_space_group_name_H-M "I M M M"
_symmetry_group_IT_number 71
_symmetry_cell_setting 'orthorhombic'
loop_
_space_group_symop_operation_xyz
x,y,z
-x,-y,z
x,-y,-z
-x,y,-z
-x,-y,-z
x,y,-z
-x,y,z
x,-y,z
1/2+x,1/2+y,1/2+z
1/2-x,1/2-y,1/2+z
1/2+x,1/2-y,1/2-z
1/2-x,1/2+y,1/2-z
1/2-x,1/2-y,1/2-z
1/2+x,1/2+y,1/2-z
1/2-x,1/2+y,1/2+z
1/2+x,1/2-y,1/2+z
loop_
_atom_site_type_symbol
_atom_site_label
_atom_site_fract_x
_atom_site_fract_y
_atom_site_fract_z
Si Si1 0.161735 0.916392 0.781604
Si Si2 0.333257 0.795839 0.055666
Si Si3 0.833034 0.581389 0.812191
Si Si4 0.169331 0.333655 0.907980
Si Si5 0.170497 0.421787 0.000000
Si Si6 0.165214 0.580010 0.625209
O O1 0.243835 0.889092 0.733640
O O2 0.241335 0.889408 0.830108
O O3 0.000000 0.886630 0.781272
O O4 0.164080 0.000000 0.781381
O O5 0.500000 0.775764 0.057857
O O6 0.246431 0.741232 0.088875
O O7 0.305712 0.873388 0.077373
O O8 0.276690 0.795317 0.000000
O O9 0.797385 0.500000 0.823806
O O10 0.786613 0.627807 0.858267
O O11 0.000000 0.590339 0.799933
O O12 0.000000 0.321591 0.911350
O O13 0.226133 0.381551 0.952302
O O14 0.236569 0.500000 0.000000
O O15 0.000000 0.426186 0.000000
O O16 0.208794 0.500000 0.612035
O O17 0.000000 0.583957 0.641727
#
# Coordination Sequence:
#
# PCOD8288889 Si02
#       6
#    16  16  16  16   8  16
#     4   9  17  30  50  77 106 133 162 204 259 308
#     4  10  21  36  53  74 103 136 166 205 259 310
#     4   9  17  30  50  76 104 135 173 213 249 290
#     4  10  19  32  51  75 102 136 174 210 250 297
#     4   9  16  28  49  75 100 129 172 218 249 281
#     4   9  18  34  56  78  99 128 168 210 251 302
#
# _framework density 18.138555
#
# number of rings (size 3 to 8) (size 9 to 14) (size 15 to 20)
#    0.000    2.636    0.909    1.091    0.000    6.182 
#    0.000    2.727    0.000    2.182    0.000    3.818 
#    0.000    0.000    0.000    0.000    0.000    0.000 
#
# Total GULP energy -545644.073492 kJ/mol
# GULP energy per Si atom -12401.001670 kJ/mol
# Density = 1.809727 g / cm^3
# Si number density = 18.138555 Si / 1000 Ang^3
#
#
#
# Elastic Constant Matrix: (Units=GPa)
#
#
# Indices 1 2 3 4 5 6 
#
# 1 62.4519 34.0651 49.1858 0.0000 0.0000 0.0000
# 2 34.0651 86.5194 48.5268 0.0000 0.0000 0.0000
# 3 49.1858 48.5268 116.4484 0.0000 0.0000 0.0000
# 4 0.0000 0.0000 0.0000 17.0377 0.0000 0.0000
# 5 0.0000 0.0000 0.0000 0.0000 22.4949 0.0000
# 6 0.0000 0.0000 0.0000 0.0000 0.0000 24.2600
#
#
#
# Elastic Compliance Matrix: (Units=1/GPa)
#
#
# Indices 1 2 3 4 5 6 
#
# 1 0.025707 -0.005261 -0.008666 0.000000 0.000000 0.000000
# 2 -0.005261 0.016160 -0.004512 0.000000 0.000000 0.000000
# 3 -0.008666 -0.004512 0.014128 0.000000 0.000000 0.000000
# 4 0.000000 0.000000 0.000000 0.058694 0.000000 0.000000
# 5 0.000000 0.000000 0.000000 0.000000 0.044455 0.000000
# 6 0.000000 0.000000 0.000000 0.000000 0.000000 0.041220
#
#
# Mechanical properties :
#
#
# Convention : Reuss Voigt Hill
#
# Bulk Modulus (GPa) = 52.30865 58.77502 55.54184
# Shear Modulus (GPa) = 20.52425 21.66798 21.09611
#
# Velocity S-wave (km/s) = 3.36747 3.46002 3.41406
# Velocity P-wave (km/s) = 6.63481 6.95960 6.79915
#
# Compressibility (1/GPa) = 0.01911730
#
# Stress axis : x y z
#
# Youngs Moduli (GPa) = 38.89985 61.87982 70.78099
#
# Poissons Ratio (x) = 0.32556 0.61337
# Poissons Ratio (y) = 0.20466 0.31938
# Poissons Ratio (z) = 0.33710 0.27921
#
# Static dielectric constant tensor:
#      x y z
#    x 3.260830 0.000000 0.000000 
#    y 0.000000 3.186320 0.000000 
#    z 0.000000 0.000000 3.434440 
# 
# 
# High freq. dielectric constant tensor:
#      x y z
#    x 1.688140 0.000000 0.000000 
#    y 0.000000 1.684000 0.000000 
#    z 0.000000 0.000000 1.709780 
# 
# From -- ./inp_files/10452.got.cif
#   From: 2010.06.25/outbox.cif.g09.slc.cpg/sg71_6_cif.got.tgz:10452.got - 2010.06.28 04:59:45.
