data_PCOD8288754
_publ_section_title
;
Structure prediction by ZEFSAII (Michael W. Deem and Ramdas Pophale) SiO2 
 PCOD8288754
Probable space group: I M M M
;
_chemical_formula_sum "Si O2"
_cell_formula_units_Z 104
_cell_length_a 34.870319
_cell_length_b 9.168169
_cell_length_c 17.168616
_cell_angle_alpha 90.000000
_cell_angle_beta 90.000000
_cell_angle_gamma 90.000000
_cell_volume 5488.754646
_symmetry_space_group_name_H-M "I M M M"
_symmetry_group_IT_number 71
_symmetry_cell_setting 'orthorhombic'
loop_
_space_group_symop_operation_xyz
x,y,z
-x,-y,z
x,-y,-z
-x,y,-z
-x,-y,-z
x,y,-z
-x,y,z
x,-y,z
1/2+x,1/2+y,1/2+z
1/2-x,1/2-y,1/2+z
1/2+x,1/2-y,1/2-z
1/2-x,1/2+y,1/2-z
1/2-x,1/2-y,1/2-z
1/2+x,1/2+y,1/2-z
1/2-x,1/2+y,1/2+z
1/2+x,1/2-y,1/2+z
loop_
_atom_site_type_symbol
_atom_site_label
_atom_site_fract_x
_atom_site_fract_y
_atom_site_fract_z
Si Si1 0.602309 0.672988 0.191167
Si Si2 0.172632 0.173219 0.412278
Si Si3 0.955237 0.664799 0.588531
Si Si4 0.750450 0.672062 0.168483
Si Si5 0.316259 0.337975 0.410984
Si Si6 0.900413 0.827757 0.133662
Si Si7 0.543767 0.674296 0.500000
O O1 0.604010 0.500000 0.193764
O O2 0.640154 0.734177 0.146823
O O3 0.565030 0.721656 0.144718
O O4 0.598430 0.737234 0.278674
O O5 0.166100 0.234923 0.500000
O O6 0.214014 0.225448 0.381811
O O7 0.170786 0.000000 0.414393
O O8 0.945105 0.706422 0.500000
O O9 0.941640 0.500000 0.606290
O O10 0.000000 0.679804 0.603737
O O11 0.749835 0.500000 0.180481
O O12 0.750000 0.750000 0.250000
O O13 0.789439 0.717871 0.127084
O O14 0.304725 0.348963 0.500000
O O15 0.311376 0.500000 0.372293
O O16 0.359802 0.283591 0.403157
O O17 0.934330 0.766467 0.077685
O O18 0.904897 0.000000 0.137413
O O19 0.544428 0.500000 0.500000
O O20 0.500000 0.733010 0.500000
#
# Coordination Sequence:
#
# PCOD8288754 Si02
#       7
#    16  16  16  16  16  16   8
#     4  10  19  31  53  80 105 132 171 221 269 313
#     4   9  18  33  51  73 104 140 173 212 271 333
#     4   9  19  36  54  72 100 138 174 208 256 319
#     4  11  22  36  54  77 107 142 182 228 275 326
#     4  10  19  34  57  79 104 140 181 222 268 323
#     4   9  17  31  49  76 110 142 175 218 273 327
#     4   9  16  28  48  74 107 147 185 221 267 329
#
# _framework density 18.947831000000001
#
# number of rings (size 3 to 8) (size 9 to 14) (size 15 to 20)
#    0.000    2.385    0.769    2.769    0.000    5.231 
#    0.000    6.154    0.000    3.692    0.000    0.000 
#    0.000    2.462    0.000    0.000    0.000    0.000 
#
# Total GULP energy -644661.772247 kJ/mol
# GULP energy per Si atom -12397.341774 kJ/mol
# Density = 1.890470 g / cm^3
# Si number density = 18.947831 Si / 1000 Ang^3
#
#
#
# Elastic Constant Matrix: (Units=GPa)
#
#
# Indices 1 2 3 4 5 6 
#
# 1 123.0279 26.0872 77.9456 0.0000 0.0000 0.0000
# 2 26.0872 29.4461 25.8941 0.0000 0.0000 0.0000
# 3 77.9456 25.8941 152.1491 0.0000 0.0000 0.0000
# 4 0.0000 0.0000 0.0000 20.5787 0.0000 0.0000
# 5 0.0000 0.0000 0.0000 0.0000 28.4297 0.0000
# 6 0.0000 0.0000 0.0000 0.0000 0.0000 27.4176
#
#
#
# Elastic Compliance Matrix: (Units=1/GPa)
#
#
# Indices 1 2 3 4 5 6 
#
# 1 0.013067 -0.006691 -0.005555 0.000000 0.000000 0.000000
# 2 -0.006691 0.043364 -0.003952 0.000000 0.000000 0.000000
# 3 -0.005555 -0.003952 0.010091 0.000000 0.000000 0.000000
# 4 0.000000 0.000000 0.000000 0.048594 0.000000 0.000000
# 5 0.000000 0.000000 0.000000 0.000000 0.035174 0.000000
# 6 0.000000 0.000000 0.000000 0.000000 0.000000 0.036473
#
#
# Mechanical properties :
#
#
# Convention : Reuss Voigt Hill
#
# Bulk Modulus (GPa) = 29.30457 62.71965 46.01211
# Shear Modulus (GPa) = 21.68873 26.93162 24.31017
#
# Velocity S-wave (km/s) = 3.38695 3.77418 3.58579
# Velocity P-wave (km/s) = 5.54930 7.22258 6.44051
#
# Compressibility (1/GPa) = 0.03412437
#
# Stress axis : x y z
#
# Youngs Moduli (GPa) = 76.53101 23.06078 99.09756
#
# Poissons Ratio (x) = 0.15430 0.55051
# Poissons Ratio (y) = 0.51207 0.39166
# Poissons Ratio (z) = 0.42515 0.09114
#
# Static dielectric constant tensor:
#      x y z
#    x 3.636450 0.000000 0.000000 
#    y 0.000000 1.754550 0.000000 
#    z 0.000000 0.000000 3.709190 
# 
# 
# High freq. dielectric constant tensor:
#      x y z
#    x 1.743920 0.000000 0.000000 
#    y 0.000000 1.685700 0.000000 
#    z 0.000000 0.000000 1.751340 
# 
# From -- ./inp_files/48827.got.cif
#   From: 2010.06.25/outbox.cif.g09.slc.cpg/sg71_25_cif.got.tgz:48827.got - 2010.06.28 04:59:45.
