data_PCOD8288398
_publ_section_title
;
Structure prediction by ZEFSAII (Michael W. Deem and Ramdas Pophale) SiO2 
 PCOD8288398
Probable space group: I M M M
;
_chemical_formula_sum "Si O2"
_cell_formula_units_Z 104
_cell_length_a 12.862663
_cell_length_b 27.802560
_cell_length_c 17.463670
_cell_angle_alpha 90.000000
_cell_angle_beta 90.000000
_cell_angle_gamma 90.000000
_cell_volume 6245.269645
_symmetry_space_group_name_H-M "I M M M"
_symmetry_group_IT_number 71
_symmetry_cell_setting 'orthorhombic'
loop_
_space_group_symop_operation_xyz
x,y,z
-x,-y,z
x,-y,-z
-x,y,-z
-x,-y,-z
x,y,-z
-x,y,z
x,-y,z
1/2+x,1/2+y,1/2+z
1/2-x,1/2-y,1/2+z
1/2+x,1/2-y,1/2-z
1/2-x,1/2+y,1/2-z
1/2-x,1/2-y,1/2-z
1/2+x,1/2+y,1/2-z
1/2-x,1/2+y,1/2+z
1/2+x,1/2-y,1/2+z
loop_
_atom_site_type_symbol
_atom_site_label
_atom_site_fract_x
_atom_site_fract_y
_atom_site_fract_z
Si Si1 0.318368 0.227050 0.136374
Si Si2 0.880435 0.882950 0.795971
Si Si3 0.305685 0.119525 0.909532
Si Si4 0.876524 0.946308 0.345503
Si Si5 0.500000 0.945085 0.909247
Si Si6 0.624574 0.601208 0.000000
Si Si7 0.118533 0.793497 0.500000
Si Si8 0.386509 0.726676 0.710860
O O1 0.345228 0.172996 0.111200
O O2 0.371502 0.237864 0.217609
O O3 0.194974 0.236540 0.143307
O O4 0.358511 0.263857 0.075015
O O5 0.803757 0.891801 0.867780
O O6 0.838732 0.915847 0.727200
O O7 0.873708 0.828767 0.763388
O O8 0.000000 0.895210 0.820275
O O9 0.395585 0.082651 0.881711
O O10 0.285385 0.115395 0.000000
O O11 0.831438 0.924977 0.424424
O O12 0.000000 0.945610 0.348744
O O13 0.833065 0.000000 0.335616
O O14 0.500000 0.000000 0.877263
O O15 0.500000 0.945625 0.000000
O O16 0.500000 0.599839 0.000000
O O17 0.674414 0.654781 0.000000
O O18 0.000000 0.807378 0.500000
O O19 0.500000 0.735965 0.675567
#
# Coordination Sequence:
#
# PCOD8288398 Si02
#       8
#    16  16  16  16   8   8   8  16
#     4  10  19  30  47  72  95 125 168 204 247 289
#     4   9  18  32  48  71 103 136 165 200 248 298
#     4  10  20  33  51  72  97 128 169 214 249 298
#     4   9  16  27  45  68  96 127 161 197 235 291
#     4   9  20  36  52  68  92 125 161 215 269 298
#     4   9  17  28  43  67  97 131 159 190 245 291
#     4  11  20  27  45  70  97 125 157 208 242 285
#     4   9  18  32  47  65  98 135 163 196 243 299
#
# _framework density 16.652604
#
# number of rings (size 3 to 8) (size 9 to 14) (size 15 to 20)
#    0.000    2.538    0.769    1.615    2.154    4.308 
#    0.000    0.385    0.000    0.000    0.000    4.308 
#    0.000    0.077    0.000    2.154    0.000    0.692 
#
# Total GULP energy -644571.297254 kJ/mol
# GULP energy per Si atom -12395.601870 kJ/mol
# Density = 1.661470 g / cm^3
# Si number density = 16.652604 Si / 1000 Ang^3
#
#
#
# Elastic Constant Matrix: (Units=GPa)
#
#
# Indices 1 2 3 4 5 6 
#
# 1 79.7392 29.7920 26.9982 0.0000 0.0000 0.0000
# 2 29.7920 96.2488 39.2081 0.0000 0.0000 0.0000
# 3 26.9982 39.2081 79.1143 -0.0003 0.0001 0.0000
# 4 0.0000 0.0000 -0.0003 21.4406 0.0000 0.0000
# 5 0.0000 0.0000 0.0001 0.0000 24.7803 0.0000
# 6 0.0000 0.0000 0.0000 0.0000 0.0000 13.3848
#
#
#
# Elastic Compliance Matrix: (Units=1/GPa)
#
#
# Indices 1 2 3 4 5 6 
#
# 1 0.014921 -0.003188 -0.003512 0.000000 0.000000 0.000000
# 2 -0.003188 0.013699 -0.005701 0.000000 0.000000 0.000000
# 3 -0.003512 -0.005701 0.016664 0.000000 0.000000 0.000000
# 4 0.000000 0.000000 0.000000 0.046641 0.000000 0.000000
# 5 0.000000 0.000000 0.000000 0.000000 0.040355 0.000000
# 6 0.000000 0.000000 0.000000 0.000000 0.000000 0.074711
#
#
# Mechanical properties :
#
#
# Convention : Reuss Voigt Hill
#
# Bulk Modulus (GPa) = 48.82396 49.67766 49.25081
# Shear Modulus (GPa) = 20.95385 22.52809 21.74097
#
# Velocity S-wave (km/s) = 3.55109 3.68207 3.61717
# Velocity P-wave (km/s) = 6.79680 6.92628 6.86184
#
# Compressibility (1/GPa) = 0.02048175
#
# Stress axis : x y z
#
# Youngs Moduli (GPa) = 67.01959 72.99854 60.01016
#
# Poissons Ratio (x) = 0.23271 0.21076
# Poissons Ratio (y) = 0.21365 0.34213
# Poissons Ratio (z) = 0.23537 0.41618
#
# Static dielectric constant tensor:
#      x y z
#    x 3.084520 0.000000 0.000000 
#    y 0.000000 3.324630 0.000000 
#    z 0.000000 0.000000 3.759590 
# 
# 
# High freq. dielectric constant tensor:
#      x y z
#    x 1.615310 0.000000 0.000000 
#    y 0.000000 1.649560 0.000000 
#    z 0.000000 0.000000 1.631380 
# 
# From -- ./inp_files/43849.got.cif
#   From: 2010.06.25/outbox.cif.g09.slc.cpg/sg71_22_cif.got.tgz:43849.got - 2010.06.28 04:59:45.
