data_PCOD8288871
_publ_section_title
;
Structure prediction by ZEFSAII (Michael W. Deem and Ramdas Pophale) SiO2 
 PCOD8288871
Probable space group: I M M M
;
_chemical_formula_sum "Si O2"
_cell_formula_units_Z 104
_cell_length_a 26.113532
_cell_length_b 24.025971
_cell_length_c 8.699425
_cell_angle_alpha 90.000000
_cell_angle_beta 90.000000
_cell_angle_gamma 90.000000
_cell_volume 5458.045017
_symmetry_space_group_name_H-M "I M M M"
_symmetry_group_IT_number 71
_symmetry_cell_setting 'orthorhombic'
loop_
_space_group_symop_operation_xyz
x,y,z
-x,-y,z
x,-y,-z
-x,y,-z
-x,-y,-z
x,y,-z
-x,y,z
x,-y,z
1/2+x,1/2+y,1/2+z
1/2-x,1/2-y,1/2+z
1/2+x,1/2-y,1/2-z
1/2-x,1/2+y,1/2-z
1/2-x,1/2-y,1/2-z
1/2+x,1/2+y,1/2-z
1/2-x,1/2+y,1/2+z
1/2+x,1/2-y,1/2+z
loop_
_atom_site_type_symbol
_atom_site_label
_atom_site_fract_x
_atom_site_fract_y
_atom_site_fract_z
Si Si1 0.380329 0.723197 0.823719
Si Si2 0.794929 0.500000 0.682815
Si Si3 0.322260 0.500000 0.317936
Si Si4 0.343213 0.114010 0.817692
Si Si5 0.793269 0.286443 0.823506
Si Si6 0.500000 0.560447 0.318828
Si Si7 0.444074 0.825531 0.822483
Si Si8 0.608726 0.395545 0.317680
O O1 0.344531 0.752073 0.699597
O O2 0.432646 0.759060 0.805794
O O3 0.381180 0.659134 0.780134
O O4 0.360438 0.728826 0.000000
O O5 0.791549 0.500000 0.500000
O O6 0.736198 0.500000 0.747062
O O7 0.827642 0.447149 0.742111
O O8 0.321841 0.500000 0.500000
O O9 0.352698 0.555391 0.263355
O O10 0.297850 0.154139 0.760154
O O11 0.398664 0.135085 0.751741
O O12 0.344082 0.116599 0.000000
O O13 0.750000 0.250000 0.750000
O O14 0.781347 0.297293 0.000000
O O15 0.500000 0.500000 0.240542
O O16 0.500000 0.553381 0.500000
O O17 0.448979 0.591357 0.266756
O O18 0.500000 0.837299 0.744927
O O19 0.447761 0.841490 0.000000
O O20 0.613831 0.384865 0.500000
#
# Coordination Sequence:
#
# PCOD8288871 Si02
#       8
#    16   8   8  16  16   8  16  16
#     4  10  21  35  52  77 108 139 177 223 273 330
#     4   9  18  32  53  81 111 143 180 223 268 323
#     4   9  18  31  49  73 100 139 186 227 274 326
#     4   9  18  34  55  80 110 145 184 222 268 322
#     4  11  22  37  57  80 109 142 178 220 270 324
#     4   9  16  30  49  69  99 137 185 236 277 326
#     4   8  15  30  51  74 104 141 177 217 267 320
#     4  10  19  32  51  74 100 138 186 233 277 326
#
# _framework density 19.054442000000002
#
# number of rings (size 3 to 8) (size 9 to 14) (size 15 to 20)
#    0.000    2.538    0.769    2.769    3.231    0.000 
#    0.000    1.154    0.000    7.846    0.000    0.000 
#    0.000    4.923    0.000    0.000    0.000    0.000 
#
# Total GULP energy -644227.040451 kJ/mol
# GULP energy per Si atom -12388.981547 kJ/mol
# Density = 1.901107 g / cm^3
# Si number density = 19.054442 Si / 1000 Ang^3
#
#
#
# Elastic Constant Matrix: (Units=GPa)
#
#
# Indices 1 2 3 4 5 6 
#
# 1 122.7858 72.4663 21.0679 0.0000 0.0000 0.0000
# 2 72.4663 167.2567 19.9834 0.0000 0.0000 0.0000
# 3 21.0679 19.9834 25.8018 0.0000 0.0000 0.0000
# 4 0.0000 0.0000 0.0000 24.9037 0.0000 0.0000
# 5 0.0000 0.0000 0.0000 0.0000 13.8150 0.0000
# 6 0.0000 0.0000 0.0000 0.0000 0.0000 19.9246
#
#
#
# Elastic Compliance Matrix: (Units=1/GPa)
#
#
# Indices 1 2 3 4 5 6 
#
# 1 0.011791 -0.004362 -0.006249 0.000000 0.000000 0.000000
# 2 -0.004362 0.008202 -0.002791 0.000000 0.000000 0.000000
# 3 -0.006249 -0.002791 0.046021 0.000000 0.000000 0.000000
# 4 0.000000 0.000000 0.000000 0.040155 0.000000 0.000000
# 5 0.000000 0.000000 0.000000 0.000000 0.072385 0.000000
# 6 0.000000 0.000000 0.000000 0.000000 0.000000 0.050189
#
#
# Mechanical properties :
#
#
# Convention : Reuss Voigt Hill
#
# Bulk Modulus (GPa) = 25.50365 60.31995 42.91180
# Shear Modulus (GPa) = 18.61383 25.21711 21.91547
#
# Velocity S-wave (km/s) = 3.12889 3.64184 3.39507
# Velocity P-wave (km/s) = 5.14461 7.02918 6.15940
#
# Compressibility (1/GPa) = 0.03921008
#
# Stress axis : x y z
#
# Youngs Moduli (GPa) = 84.81144 121.91931 21.72907
#
# Poissons Ratio (x) = 0.53180 0.13579
# Poissons Ratio (y) = 0.36994 0.06064
# Poissons Ratio (z) = 0.53001 0.34027
#
# Static dielectric constant tensor:
#      x y z
#    x 4.103250 0.000000 0.000000 
#    y 0.000000 3.932180 0.000000 
#    z 0.000000 0.000000 2.954840 
# 
# 
# High freq. dielectric constant tensor:
#      x y z
#    x 1.745340 0.000000 0.000000 
#    y 0.000000 1.744660 0.000000 
#    z 0.000000 0.000000 1.696820 
# 
# From -- ./inp_files/13389.got.cif
#   From: 2010.06.25/outbox.cif.g09.slc.cpg/sg71_7_cif.got.tgz:13389.got - 2010.06.28 04:59:45.
