data_PCOD8288964
_publ_section_title
;
Structure prediction by ZEFSAII (Michael W. Deem and Ramdas Pophale) SiO2 
 PCOD8288964
Probable space group: I M M M
;
_chemical_formula_sum "Si O2"
_cell_formula_units_Z 120
_cell_length_a 17.602548
_cell_length_b 26.717384
_cell_length_c 14.452373
_cell_angle_alpha 90.000000
_cell_angle_beta 90.000000
_cell_angle_gamma 90.000000
_cell_volume 6796.864803
_symmetry_space_group_name_H-M "I M M M"
_symmetry_group_IT_number 71
_symmetry_cell_setting 'orthorhombic'
loop_
_space_group_symop_operation_xyz
x,y,z
-x,-y,z
x,-y,-z
-x,y,-z
-x,-y,-z
x,y,-z
-x,y,z
x,-y,z
1/2+x,1/2+y,1/2+z
1/2-x,1/2-y,1/2+z
1/2+x,1/2-y,1/2-z
1/2-x,1/2+y,1/2-z
1/2-x,1/2-y,1/2-z
1/2+x,1/2+y,1/2-z
1/2-x,1/2+y,1/2+z
1/2+x,1/2-y,1/2+z
loop_
_atom_site_type_symbol
_atom_site_label
_atom_site_fract_x
_atom_site_fract_y
_atom_site_fract_z
Si Si1 0.500000 0.055381 0.609128
Si Si2 0.647326 0.292099 0.605254
Si Si3 0.585807 0.216566 0.735139
Si Si4 0.804882 0.868876 0.605522
Si Si5 0.189702 0.246958 0.391987
Si Si6 0.587653 0.555917 0.210950
Si Si7 0.413696 0.397786 0.398462
Si Si8 0.866268 0.627416 0.107076
O O1 0.500000 0.050086 0.500000
O O2 0.423926 0.084291 0.640711
O O3 0.500000 0.000000 0.654614
O O4 0.626884 0.277180 0.500000
O O5 0.587528 0.267270 0.675131
O O6 0.730476 0.272443 0.632134
O O7 0.643391 0.351658 0.618846
O O8 0.500000 0.201344 0.757444
O O9 0.626883 0.223605 0.833356
O O10 0.625192 0.174696 0.672759
O O11 0.831220 0.872063 0.500000
O O12 0.807683 0.811207 0.638457
O O13 0.862750 0.902193 0.662475
O O14 0.720202 0.891436 0.617281
O O15 0.169690 0.252718 0.500000
O O16 0.500000 0.565310 0.184375
O O17 0.612468 0.500000 0.180821
O O18 0.599978 0.560010 0.321479
O O19 0.398091 0.421441 0.500000
O O20 0.500000 0.377200 0.393129
O O21 0.882525 0.643031 0.000000
#
# Coordination Sequence:
#
# PCOD8288964 Si02
#       8
#     8  16  16  16  16  16  16  16
#     4   9  18  34  54  76 109 143 171 217 273 326
#     4  10  19  32  52  79 107 138 175 216 262 315
#     4  12  22  31  51  79 109 144 178 216 261 312
#     4  10  21  37  56  76 104 141 180 222 265 316
#     4  10  22  37  52  75 108 148 185 215 256 310
#     4  10  22  38  55  77 104 136 178 227 273 314
#     4   9  18  32  51  78 108 137 170 209 261 320
#     4  10  20  34  53  80 108 137 176 217 268 326
#
# _framework density 17.655197999999999
#
# number of rings (size 3 to 8) (size 9 to 14) (size 15 to 20)
#    0.000    1.933    2.000    2.000    1.867    4.533 
#    0.000    4.667    0.000    0.000    0.000    0.000 
#    0.000    1.067    0.000    0.000    0.000    0.133 
#
# Total GULP energy -743934.792890 kJ/mol
# GULP energy per Si atom -12398.913215 kJ/mol
# Density = 1.761501 g / cm^3
# Si number density = 17.655198 Si / 1000 Ang^3
#
#
#
# Elastic Constant Matrix: (Units=GPa)
#
#
# Indices 1 2 3 4 5 6 
#
# 1 90.3606 41.9451 41.6348 0.0002 0.0000 0.0000
# 2 41.9451 71.9012 34.8440 0.0001 -0.0001 -0.0001
# 3 41.6348 34.8440 63.7508 0.0015 0.0001 0.0000
# 4 0.0002 0.0001 0.0015 19.5263 0.0000 0.0000
# 5 0.0000 -0.0001 0.0001 0.0000 26.4037 -0.0001
# 6 0.0000 -0.0001 0.0000 0.0000 -0.0001 24.5652
#
#
#
# Elastic Compliance Matrix: (Units=1/GPa)
#
#
# Indices 1 2 3 4 5 6 
#
# 1 0.017793 -0.006459 -0.008090 0.000000 0.000000 0.000000
# 2 -0.006459 0.021264 -0.007404 0.000000 0.000000 0.000000
# 3 -0.008090 -0.007404 0.025016 -0.000002 0.000000 0.000000
# 4 0.000000 0.000000 -0.000002 0.051213 0.000000 0.000000
# 5 0.000000 0.000000 0.000000 0.000000 0.037873 0.000000
# 6 0.000000 0.000000 0.000000 0.000000 0.000000 0.040708
#
#
# Mechanical properties :
#
#
# Convention : Reuss Voigt Hill
#
# Bulk Modulus (GPa) = 49.58547 51.42894 50.50721
# Shear Modulus (GPa) = 20.45034 21.27163 20.86098
#
# Velocity S-wave (km/s) = 3.40710 3.47484 3.44114
# Velocity P-wave (km/s) = 6.60486 6.72995 6.66770
#
# Compressibility (1/GPa) = 0.02016720
#
# Stress axis : x y z
#
# Youngs Moduli (GPa) = 56.20317 47.02768 39.97450
#
# Poissons Ratio (x) = 0.30377 0.32338
# Poissons Ratio (y) = 0.36304 0.29596
# Poissons Ratio (z) = 0.45466 0.34818
#
# Static dielectric constant tensor:
#      x y z
#    x 3.243610 0.000000 0.000000 
#    y 0.000000 3.205310 0.000000 
#    z 0.000000 0.000000 3.270920 
# 
# 
# High freq. dielectric constant tensor:
#      x y z
#    x 1.678370 0.000000 0.000000 
#    y 0.000000 1.668490 0.000000 
#    z 0.000000 0.000000 1.677890 
# 
# From -- ./inp_files/35441.got.cif
#   From: 2010.06.25/outbox.cif.g09.slc.cpg/sg71_18_cif.got.tgz:35441.got - 2010.06.28 04:59:45.
