data_PCOD8288094
_publ_section_title
;
Structure prediction by ZEFSAII (Michael W. Deem and Ramdas Pophale) SiO2 
 PCOD8288094
Probable space group: I M M M
;
_chemical_formula_sum "Si O2"
_cell_formula_units_Z 72
_cell_length_a 19.441846
_cell_length_b 21.805973
_cell_length_c 9.298056
_cell_angle_alpha 90.000000
_cell_angle_beta 90.000000
_cell_angle_gamma 90.000000
_cell_volume 3941.895676
_symmetry_space_group_name_H-M "I M M M"
_symmetry_group_IT_number 71
_symmetry_cell_setting 'orthorhombic'
loop_
_space_group_symop_operation_xyz
x,y,z
-x,-y,z
x,-y,-z
-x,y,-z
-x,-y,-z
x,y,-z
-x,y,z
x,-y,z
1/2+x,1/2+y,1/2+z
1/2-x,1/2-y,1/2+z
1/2+x,1/2-y,1/2-z
1/2-x,1/2+y,1/2-z
1/2-x,1/2-y,1/2-z
1/2+x,1/2+y,1/2-z
1/2-x,1/2+y,1/2+z
1/2+x,1/2-y,1/2+z
loop_
_atom_site_type_symbol
_atom_site_label
_atom_site_fract_x
_atom_site_fract_y
_atom_site_fract_z
Si Si1 0.104839 0.130444 0.337001
Si Si2 0.500000 0.140207 0.327728
Si Si3 0.380473 0.071414 0.833943
Si Si4 0.500000 0.430882 0.348639
Si Si5 0.744388 0.429795 0.836168
Si Si6 0.000000 0.764240 0.664313
O O1 0.089259 0.111725 0.500000
O O2 0.068721 0.081389 0.237988
O O3 0.186044 0.122062 0.305944
O O4 0.070348 0.196948 0.307163
O O5 0.500000 0.135490 0.500000
O O6 0.567057 0.108323 0.263966
O O7 0.500000 0.210586 0.279641
O O8 0.304661 0.085460 0.775074
O O9 0.398565 0.000000 0.820213
O O10 0.385146 0.092857 0.000000
O O11 0.500000 0.500000 0.391090
O O12 0.500000 0.393253 0.500000
O O13 0.717779 0.500000 0.812178
O O14 0.771306 0.423083 0.000000
O O15 0.000000 0.739547 0.500000
#
# Coordination Sequence:
#
# PCOD8288094 Si02
#       6
#    16   8  16   8  16   8
#     4   9  18  33  53  74 101 141 182 220 261 307
#     4  12  24  38  58  80 103 135 176 220 265 314
#     4  10  21  37  58  84 111 137 166 206 262 322
#     4  10  19  27  40  68 103 138 178 223 267 309
#     4   9  17  31  53  82 113 141 172 213 261 314
#     4   9  19  36  55  76 104 140 184 227 264 304
#
# _framework density 18.265324
#
# number of rings (size 3 to 8) (size 9 to 14) (size 15 to 20)
#    0.000    2.333    0.000    3.667    0.000    7.111 
#    0.000    3.333    0.000    0.000    0.000    0.000 
#    0.000    0.000    0.000    0.000    0.000    0.000 
#
# Total GULP energy -446120.305479 kJ/mol
# GULP energy per Si atom -12392.230708 kJ/mol
# Density = 1.822375 g / cm^3
# Si number density = 18.265324 Si / 1000 Ang^3
#
#
#
# Elastic Constant Matrix: (Units=GPa)
#
#
# Indices 1 2 3 4 5 6 
#
# 1 117.2008 58.7111 74.3314 0.0000 0.0000 0.0000
# 2 58.7111 79.2839 60.8513 0.0000 0.0000 0.0000
# 3 74.3314 60.8513 144.5048 0.0000 0.0000 0.0000
# 4 0.0000 0.0000 0.0000 24.7322 0.0000 0.0000
# 5 0.0000 0.0000 0.0000 0.0000 56.2160 0.0000
# 6 0.0000 0.0000 0.0000 0.0000 0.0000 34.9219
#
#
#
# Elastic Compliance Matrix: (Units=1/GPa)
#
#
# Indices 1 2 3 4 5 6 
#
# 1 0.015393 -0.007863 -0.004607 0.000000 0.000000 0.000000
# 2 -0.007863 0.022653 -0.005494 0.000000 0.000000 0.000000
# 3 -0.004607 -0.005494 0.011604 0.000000 0.000000 0.000000
# 4 0.000000 0.000000 0.000000 0.040433 0.000000 0.000000
# 5 0.000000 0.000000 0.000000 0.000000 0.017789 0.000000
# 6 0.000000 0.000000 0.000000 0.000000 0.000000 0.028635
#
#
# Mechanical properties :
#
#
# Convention : Reuss Voigt Hill
#
# Bulk Modulus (GPa) = 72.88263 80.97524 76.92893
# Shear Modulus (GPa) = 28.24722 32.98041 30.61382
#
# Velocity S-wave (km/s) = 3.93682 4.25388 4.09842
# Velocity P-wave (km/s) = 7.78804 8.27988 8.03772
#
# Compressibility (1/GPa) = 0.01372069
#
# Stress axis : x y z
#
# Youngs Moduli (GPa) = 64.96427 44.14491 86.18003
#
# Poissons Ratio (x) = 0.34711 0.39702
# Poissons Ratio (y) = 0.51082 0.47351
# Poissons Ratio (z) = 0.29928 0.24255
#
# Static dielectric constant tensor:
#      x y z
#    x 3.466590 0.000000 0.000000 
#    y 0.000000 3.186640 0.000000 
#    z 0.000000 0.000000 3.486560 
# 
# 
# High freq. dielectric constant tensor:
#      x y z
#    x 1.706530 0.000000 0.000000 
#    y 0.000000 1.683670 0.000000 
#    z 0.000000 0.000000 1.721300 
# 
# From -- ./inp_files/10005.got.cif
#   From: 2010.06.25/outbox.cif.g09.slc.cpg/sg71_6_cif.got.tgz:10005.got - 2010.06.28 04:59:45.
