data_PCOD8288965
_publ_section_title
;
Structure prediction by ZEFSAII (Michael W. Deem and Ramdas Pophale) SiO2 
 PCOD8288965
Probable space group: I M M M
;
_chemical_formula_sum "Si O2"
_cell_formula_units_Z 64
_cell_length_a 9.700406
_cell_length_b 38.467974
_cell_length_c 9.121811
_cell_angle_alpha 90.000000
_cell_angle_beta 90.000000
_cell_angle_gamma 90.000000
_cell_volume 3403.849072
_symmetry_space_group_name_H-M "I M M M"
_symmetry_group_IT_number 71
_symmetry_cell_setting 'orthorhombic'
loop_
_space_group_symop_operation_xyz
x,y,z
-x,-y,z
x,-y,-z
-x,y,-z
-x,-y,-z
x,y,-z
-x,y,z
x,-y,z
1/2+x,1/2+y,1/2+z
1/2-x,1/2-y,1/2+z
1/2+x,1/2-y,1/2-z
1/2-x,1/2+y,1/2-z
1/2-x,1/2-y,1/2-z
1/2+x,1/2+y,1/2-z
1/2-x,1/2+y,1/2+z
1/2+x,1/2-y,1/2+z
loop_
_atom_site_type_symbol
_atom_site_label
_atom_site_fract_x
_atom_site_fract_y
_atom_site_fract_z
Si Si1 0.746345 0.415609 0.173687
Si Si2 0.000000 0.961817 0.673989
Si Si3 0.161278 0.720508 0.327741
Si Si4 0.000000 0.539423 0.174146
Si Si5 0.159458 0.153384 0.171694
O O1 0.627437 0.440316 0.231230
O O2 0.731882 0.378435 0.247570
O O3 0.875368 0.437280 0.230611
O O4 0.746507 0.409728 0.000000
O O5 0.000000 0.965229 0.500000
O O6 0.000000 0.000000 0.745457
O O7 0.165163 0.727604 0.500000
O O8 0.250000 0.750000 0.250000
O O9 0.241932 0.685374 0.287014
O O10 0.000000 0.719307 0.274446
O O11 0.000000 0.500000 0.239867
O O12 0.000000 0.535933 0.000000
O O13 0.000000 0.159386 0.224343
O O14 0.160710 0.146073 0.000000
#
# Coordination Sequence:
#
# PCOD8288965 Si02
#       5
#    16   8  16   8  16
#     4  10  19  32  52  79 107 139 183 227 270 322
#     4   9  16  28  49  75 102 135 178 227 272 315
#     4  10  22  40  62  88 115 147 186 226 272 327
#     4   9  18  32  51  77 108 139 176 229 284 327
#     4  10  21  37  56  79 112 149 181 219 271 325
#
# _framework density 18.802243000000001
#
# number of rings (size 3 to 8) (size 9 to 14) (size 15 to 20)
#    0.000    2.250    1.250    1.500    1.750    5.500 
#    0.000    0.000    0.000    4.500    0.000    0.000 
#    0.000    0.000    0.000    0.000    0.000    0.000 
#
# Total GULP energy -396545.424734 kJ/mol
# GULP energy per Si atom -12392.044523 kJ/mol
# Density = 1.875945 g / cm^3
# Si number density = 18.802243 Si / 1000 Ang^3
#
#
#
# Elastic Constant Matrix: (Units=GPa)
#
#
# Indices 1 2 3 4 5 6 
#
# 1 198.9587 111.2462 32.8531 -0.0009 0.0000 0.0014
# 2 111.2462 198.4182 51.0582 0.0012 0.0003 0.0079
# 3 32.8531 51.0582 23.6857 -0.0008 0.0020 0.0114
# 4 -0.0009 0.0012 -0.0008 30.3083 -0.0005 0.0054
# 5 0.0000 0.0003 0.0020 -0.0005 24.9306 0.0097
# 6 0.0014 0.0079 0.0114 0.0054 0.0097 111.5111
#
#
#
# Elastic Compliance Matrix: (Units=1/GPa)
#
#
# Indices 1 2 3 4 5 6 
#
# 1 0.007413 -0.003392 -0.002971 0.000000 0.000000 0.000000
# 2 -0.003392 0.012870 -0.023039 -0.000001 0.000002 0.000001
# 3 -0.002971 -0.023039 0.096003 0.000003 -0.000007 -0.000008
# 4 0.000000 -0.000001 0.000003 0.032994 0.000001 -0.000002
# 5 0.000000 0.000002 -0.000007 0.000001 0.040111 -0.000003
# 6 0.000000 0.000001 -0.000008 -0.000002 -0.000003 0.008968
#
#
# Mechanical properties :
#
#
# Convention : Reuss Voigt Hill
#
# Bulk Modulus (GPa) = 17.39615 90.15308 53.77461
# Shear Modulus (GPa) = 18.09475 48.41034 33.25254
#
# Velocity S-wave (km/s) = 3.10558 5.07967 4.20997
# Velocity P-wave (km/s) = 4.70444 9.08054 7.23145
#
# Compressibility (1/GPa) = 0.05748397
#
# Stress axis : x y z
#
# Youngs Moduli (GPa) = 134.89311 77.70003 10.41635
#
# Poissons Ratio (x) = 0.26355 0.03094
# Poissons Ratio (y) = 0.45755 0.23998
# Poissons Ratio (z) = 0.40073 1.79009
#
# Static dielectric constant tensor:
#      x y z
#    x 3.060370 -0.000170 -0.000010 
#    y -0.000170 3.656720 0.000000 
#    z -0.000010 0.000000 3.061300 
# 
# 
# High freq. dielectric constant tensor:
#      x y z
#    x 1.752230 0.000000 0.000000 
#    y 0.000000 1.747950 0.000000 
#    z 0.000000 0.000000 1.688900 
# 
# From -- ./inp_files/3748.got.cif
#   From: 2010.06.25/outbox.cif.g09.slc.cpg/sg71_2_cif.got.tgz:3748.got - 2010.06.28 04:59:45.
