data_PCOD8288513
_publ_section_title
;
Structure prediction by ZEFSAII (Michael W. Deem and Ramdas Pophale) SiO2 
 PCOD8288513
Probable space group: I M M M
;
_chemical_formula_sum "Si O2"
_cell_formula_units_Z 88
_cell_length_a 19.108438
_cell_length_b 9.824438
_cell_length_c 27.122673
_cell_angle_alpha 90.000000
_cell_angle_beta 90.000000
_cell_angle_gamma 90.000000
_cell_volume 5091.730300
_symmetry_space_group_name_H-M "I M M M"
_symmetry_group_IT_number 71
_symmetry_cell_setting 'orthorhombic'
loop_
_space_group_symop_operation_xyz
x,y,z
-x,-y,z
x,-y,-z
-x,y,-z
-x,-y,-z
x,y,-z
-x,y,z
x,-y,z
1/2+x,1/2+y,1/2+z
1/2-x,1/2-y,1/2+z
1/2+x,1/2-y,1/2-z
1/2-x,1/2+y,1/2-z
1/2-x,1/2-y,1/2-z
1/2+x,1/2+y,1/2-z
1/2-x,1/2+y,1/2+z
1/2+x,1/2-y,1/2+z
loop_
_atom_site_type_symbol
_atom_site_label
_atom_site_fract_x
_atom_site_fract_y
_atom_site_fract_z
Si Si1 0.789190 0.223268 0.354524
Si Si2 0.129491 0.157921 0.442993
Si Si3 0.000000 0.656432 0.558376
Si Si4 0.421724 0.500000 0.712350
Si Si5 0.284553 0.000000 0.703110
Si Si6 0.576835 0.285553 0.203991
Si Si7 0.423530 0.000000 0.249262
Si Si8 0.730695 0.500000 0.315250
O O1 0.799206 0.195906 0.412903
O O2 0.863867 0.170527 0.333765
O O3 0.767449 0.375564 0.342624
O O4 0.731042 0.132448 0.328664
O O5 0.146679 0.185675 0.500000
O O6 0.068235 0.259662 0.423877
O O7 0.107547 0.000000 0.435268
O O8 0.000000 0.500000 0.579492
O O9 0.000000 0.651163 0.500000
O O10 0.500000 0.500000 0.686582
O O11 0.414637 0.365187 0.744989
O O12 0.354058 0.500000 0.675868
O O13 0.367849 0.000000 0.707313
O O14 0.246716 0.000000 0.756604
O O15 0.500000 0.315238 0.181144
O O16 0.587320 0.127125 0.213763
O O17 0.500000 0.000000 0.274315
#
# Coordination Sequence:
#
# PCOD8288513 Si02
#       8
#    16  16   8   8   8  16   8   8
#     4  12  22  34  53  80 101 147 185 221 273 316
#     4  10  22  40  55  76 108 144 187 230 271 324
#     4   9  19  37  61  81 105 141 181 237 289 309
#     4  10  20  34  50  70 102 143 174 211 260 315
#     4  12  20  36  53  74 108 138 180 220 261 329
#     4  10  19  31  46  71 102 136 180 212 254 310
#     4  10  20  34  50  70 102 141 168 213 264 311
#     4  12  22  34  53  78 112 136 174 232 271 319
#
# _framework density 17.282927000000001
#
# number of rings (size 3 to 8) (size 9 to 14) (size 15 to 20)
#    0.000    1.364    4.545    1.909    2.545    1.091 
#    0.000    0.000    0.000    0.000    0.000    0.000 
#    0.000    4.364    0.000    0.000    0.000    0.000 
#
# Total GULP energy -545375.222656 kJ/mol
# GULP energy per Si atom -12394.891424 kJ/mol
# Density = 1.724359 g / cm^3
# Si number density = 17.282927 Si / 1000 Ang^3
#
#
#
# Elastic Constant Matrix: (Units=GPa)
#
#
# Indices 1 2 3 4 5 6 
#
# 1 110.0333 11.0179 32.8581 0.0000 0.0000 0.0000
# 2 11.0179 101.6275 22.1701 0.0000 0.0000 0.0000
# 3 32.8581 22.1701 61.0311 0.0000 0.0000 0.0000
# 4 0.0000 0.0000 0.0000 23.1667 0.0000 0.0000
# 5 0.0000 0.0000 0.0000 0.0000 25.1270 0.0000
# 6 0.0000 0.0000 0.0000 0.0000 0.0000 25.7779
#
#
#
# Elastic Compliance Matrix: (Units=1/GPa)
#
#
# Indices 1 2 3 4 5 6 
#
# 1 0.010830 0.000106 -0.005869 0.000000 0.000000 0.000000
# 2 0.000106 0.010688 -0.003940 0.000000 0.000000 0.000000
# 3 -0.005869 -0.003940 0.020976 0.000000 0.000000 0.000000
# 4 0.000000 0.000000 0.000000 0.043165 0.000000 0.000000
# 5 0.000000 0.000000 0.000000 0.000000 0.039798 0.000000
# 6 0.000000 0.000000 0.000000 0.000000 0.000000 0.038793
#
#
# Mechanical properties :
#
#
# Convention : Reuss Voigt Hill
#
# Bulk Modulus (GPa) = 43.31141 44.97603 44.14372
# Shear Modulus (GPa) = 26.12985 28.59072 27.36028
#
# Velocity S-wave (km/s) = 3.89252 4.07169 3.98311
# Velocity P-wave (km/s) = 6.73178 6.94152 6.83746
#
# Compressibility (1/GPa) = 0.02308861
#
# Stress axis : x y z
#
# Youngs Moduli (GPa) = 92.33409 93.56493 47.67315
#
# Poissons Ratio (x) = -0.00994 0.27981
# Poissons Ratio (y) = -0.00981 0.18781
# Poissons Ratio (z) = 0.54195 0.36861
#
# Static dielectric constant tensor:
#      x y z
#    x 3.411210 0.000000 0.000000 
#    y 0.000000 4.714170 0.000000 
#    z 0.000000 0.000000 2.943310 
# 
# 
# High freq. dielectric constant tensor:
#      x y z
#    x 1.659100 0.000000 0.000000 
#    y 0.000000 1.692910 0.000000 
#    z 0.000000 0.000000 1.622000 
# 
# From -- ./inp_files/61212.got.cif
#   From: 2010.06.25/outbox.cif.g09.slc.cpg/sg71_31_cif.got.tgz:61212.got - 2010.06.28 04:59:45.
