data_PCOD8288395
_publ_section_title
;
Structure prediction by ZEFSAII (Michael W. Deem and Ramdas Pophale) SiO2 
 PCOD8288395
Probable space group: I M M M
;
_chemical_formula_sum "Si O2"
_cell_formula_units_Z 104
_cell_length_a 22.997265
_cell_length_b 26.546927
_cell_length_c 9.999664
_cell_angle_alpha 90.000000
_cell_angle_beta 90.000000
_cell_angle_gamma 90.000000
_cell_volume 6104.862021
_symmetry_space_group_name_H-M "I M M M"
_symmetry_group_IT_number 71
_symmetry_cell_setting 'orthorhombic'
loop_
_space_group_symop_operation_xyz
x,y,z
-x,-y,z
x,-y,-z
-x,y,-z
-x,-y,-z
x,y,-z
-x,y,z
x,-y,z
1/2+x,1/2+y,1/2+z
1/2-x,1/2-y,1/2+z
1/2+x,1/2-y,1/2-z
1/2-x,1/2+y,1/2-z
1/2-x,1/2-y,1/2-z
1/2+x,1/2+y,1/2-z
1/2-x,1/2+y,1/2+z
1/2+x,1/2-y,1/2+z
loop_
_atom_site_type_symbol
_atom_site_label
_atom_site_fract_x
_atom_site_fract_y
_atom_site_fract_z
Si Si1 0.228329 0.941401 0.652794
Si Si2 0.000000 0.741823 0.341599
Si Si3 0.114460 0.892884 0.244424
Si Si4 0.563348 0.442668 0.500000
Si Si5 0.626166 0.213979 0.844432
Si Si6 0.176211 0.203574 0.152912
Si Si7 0.500000 0.352153 0.850492
Si Si8 0.283700 0.865726 0.848009
O O1 0.249249 0.935379 0.500000
O O2 0.164999 0.915991 0.664301
O O3 0.273882 0.912664 0.748888
O O4 0.225951 0.000000 0.694148
O O5 0.940955 0.713520 0.294203
O O6 0.000000 0.742079 0.500000
O O7 0.000000 0.797993 0.274705
O O8 0.102627 0.931585 0.126898
O O9 0.129046 0.839479 0.179084
O O10 0.056060 0.886526 0.328339
O O11 0.547589 0.500000 0.500000
O O12 0.500000 0.413518 0.500000
O O13 0.664856 0.251404 0.755442
O O14 0.651871 0.157516 0.827404
O O15 0.631117 0.231383 0.000000
O O16 0.239459 0.180052 0.181403
O O17 0.171154 0.222984 0.000000
O O18 0.500000 0.333696 0.000000
O O19 0.274898 0.885357 0.000000
#
# Coordination Sequence:
#
# PCOD8288395 Si02
#       8
#    16   8  16   8  16  16   8  16
#     4  10  22  38  55  76 100 129 168 218 272 314
#     4   9  18  30  48  74 102 137 171 201 242 295
#     4  11  20  34  50  70 100 134 175 220 259 304
#     4  11  22  34  48  66  90 134 186 227 268 304
#     4  10  19  33  51  74 105 137 171 205 248 309
#     4  10  19  30  47  72 101 132 169 212 255 298
#     4  11  20  31  49  72  99 138 181 215 258 303
#     4   9  20  35  52  75 101 133 170 210 256 308
#
# _framework density 17.035602000000001
#
# number of rings (size 3 to 8) (size 9 to 14) (size 15 to 20)
#    0.000    1.923    3.077    1.385    1.077    3.385 
#    0.000    1.154    0.000    1.846    0.000    0.538 
#    0.000    4.308    0.000    0.000    0.000    0.000 
#
# Total GULP energy -644568.485804 kJ/mol
# GULP energy per Si atom -12395.547804 kJ/mol
# Density = 1.699683 g / cm^3
# Si number density = 17.035602 Si / 1000 Ang^3
#
#
#
# Elastic Constant Matrix: (Units=GPa)
#
#
# Indices 1 2 3 4 5 6 
#
# 1 72.2193 47.5995 33.2666 0.0000 0.0000 0.0000
# 2 47.5995 83.2992 42.4751 0.0000 0.0000 0.0000
# 3 33.2666 42.4751 81.0573 0.0000 0.0000 0.0000
# 4 0.0000 0.0000 0.0000 73.1486 0.0000 0.0000
# 5 0.0000 0.0000 0.0000 0.0000 23.1860 0.0000
# 6 0.0000 0.0000 0.0000 0.0000 0.0000 23.1428
#
#
#
# Elastic Compliance Matrix: (Units=1/GPa)
#
#
# Indices 1 2 3 4 5 6 
#
# 1 0.022906 -0.011320 -0.003469 0.000000 0.000000 0.000000
# 2 -0.011320 0.021977 -0.006870 0.000000 0.000000 0.000000
# 3 -0.003469 -0.006870 0.017361 0.000000 0.000000 0.000000
# 4 0.000000 0.000000 0.000000 0.013671 0.000000 0.000000
# 5 0.000000 0.000000 0.000000 0.000000 0.043130 0.000000
# 6 0.000000 0.000000 0.000000 0.000000 0.000000 0.043210
#
#
# Mechanical properties :
#
#
# Convention : Reuss Voigt Hill
#
# Bulk Modulus (GPa) = 52.84082 53.69536 53.26809
# Shear Modulus (GPa) = 23.59825 31.44443 27.52134
#
# Velocity S-wave (km/s) = 3.72591 4.30095 4.02371
# Velocity P-wave (km/s) = 7.04238 7.50014 7.27486
#
# Compressibility (1/GPa) = 0.01892476
#
# Stress axis : x y z
#
# Youngs Moduli (GPa) = 43.65735 45.50247 57.60152
#
# Poissons Ratio (x) = 0.51510 0.19980
# Poissons Ratio (y) = 0.49421 0.39574
# Poissons Ratio (z) = 0.15144 0.31261
#
# Static dielectric constant tensor:
#      x y z
#    x 3.292820 0.000000 0.000000 
#    y 0.000000 2.993590 0.000000 
#    z 0.000000 0.000000 3.148410 
# 
# 
# High freq. dielectric constant tensor:
#      x y z
#    x 1.649630 0.000000 0.000000 
#    y 0.000000 1.632930 0.000000 
#    z 0.000000 0.000000 1.654680 
# 
# From -- ./inp_files/13394.got.cif
#   From: 2010.06.25/outbox.cif.g09.slc.cpg/sg71_7_cif.got.tgz:13394.got - 2010.06.28 04:59:45.
