data_PCOD8288295
_publ_section_title
;
Structure prediction by ZEFSAII (Michael W. Deem and Ramdas Pophale) SiO2 
 PCOD8288295
Probable space group: I M M M
;
_chemical_formula_sum "Si O2"
_cell_formula_units_Z 80
_cell_length_a 21.681069
_cell_length_b 13.794761
_cell_length_c 17.683255
_cell_angle_alpha 90.000000
_cell_angle_beta 90.000000
_cell_angle_gamma 90.000000
_cell_volume 5288.799241
_symmetry_space_group_name_H-M "I M M M"
_symmetry_group_IT_number 71
_symmetry_cell_setting 'orthorhombic'
loop_
_space_group_symop_operation_xyz
x,y,z
-x,-y,z
x,-y,-z
-x,y,-z
-x,-y,-z
x,y,-z
-x,y,z
x,-y,z
1/2+x,1/2+y,1/2+z
1/2-x,1/2-y,1/2+z
1/2+x,1/2-y,1/2-z
1/2-x,1/2+y,1/2-z
1/2-x,1/2-y,1/2-z
1/2+x,1/2+y,1/2-z
1/2-x,1/2+y,1/2+z
1/2+x,1/2-y,1/2+z
loop_
_atom_site_type_symbol
_atom_site_label
_atom_site_fract_x
_atom_site_fract_y
_atom_site_fract_z
Si Si1 0.427592 0.886136 0.702124
Si Si2 0.732821 0.610840 0.587628
Si Si3 0.069678 0.615747 0.500000
Si Si4 0.000000 0.107139 0.089730
Si Si5 0.863255 0.614085 0.353497
Si Si6 0.613875 0.733734 0.588739
O O1 0.500000 0.861351 0.706683
O O2 0.393627 0.844896 0.776983
O O3 0.394664 0.835472 0.631052
O O4 0.416870 0.000000 0.691721
O O5 0.752383 0.621989 0.500000
O O6 0.711357 0.500000 0.602304
O O7 0.790681 0.638693 0.640589
O O8 0.678525 0.684043 0.609368
O O9 0.074505 0.500000 0.500000
O O10 0.102017 0.659822 0.574406
O O11 0.000000 0.652109 0.500000
O O12 0.939332 0.162107 0.117995
O O13 0.000000 0.000000 0.125600
O O14 0.000000 0.100071 0.000000
O O15 0.873892 0.500000 0.355041
O O16 0.608265 0.754814 0.500000
#
# Coordination Sequence:
#
# PCOD8288295 Si02
#       6
#    16  16   8   8  16  16
#     4  10  20  32  44  61  89 123 156 188 215 246
#     4   9  16  28  46  68  92 115 140 177 227 280
#     4   9  14  22  40  64  88 115 145 174 213 270
#     4   9  16  28  45  65  85 106 140 185 226 265
#     4   9  16  27  43  64  89 117 146 176 220 270
#     4  10  19  30  45  64  86 118 155 184 220 260
#
# _framework density 15.126307000000001
#
# number of rings (size 3 to 8) (size 9 to 14) (size 15 to 20)
#    0.000    2.600    2.000    1.200    0.000    6.000 
#    0.000    1.000    0.000    0.000    0.000    0.000 
#    0.000    0.000    0.000    1.500    0.000    0.300 
#
# Total GULP energy -495900.008725 kJ/mol
# GULP energy per Si atom -12397.500218 kJ/mol
# Density = 1.509188 g / cm^3
# Si number density = 15.126307 Si / 1000 Ang^3
#
#
#
# Elastic Constant Matrix: (Units=GPa)
#
#
# Indices 1 2 3 4 5 6 
#
# 1 106.8909 40.6298 55.1632 0.0000 0.0000 0.0000
# 2 40.6298 52.0358 40.0653 0.0000 0.0000 0.0000
# 3 55.1632 40.0653 82.3374 0.0000 0.0000 0.0000
# 4 0.0000 0.0000 0.0000 14.6119 0.0000 0.0000
# 5 0.0000 0.0000 0.0000 0.0000 25.1337 0.0000
# 6 0.0000 0.0000 0.0000 0.0000 0.0000 12.9895
#
#
#
# Elastic Compliance Matrix: (Units=1/GPa)
#
#
# Indices 1 2 3 4 5 6 
#
# 1 0.015603 -0.006611 -0.007236 0.000000 0.000000 0.000000
# 2 -0.006611 0.033532 -0.011888 0.000000 0.000000 0.000000
# 3 -0.007236 -0.011888 0.022778 0.000000 0.000000 0.000000
# 4 0.000000 0.000000 0.000000 0.068437 0.000000 0.000000
# 5 0.000000 0.000000 0.000000 0.000000 0.039787 0.000000
# 6 0.000000 0.000000 0.000000 0.000000 0.000000 0.076985
#
#
# Mechanical properties :
#
#
# Convention : Reuss Voigt Hill
#
# Bulk Modulus (GPa) = 48.91695 56.99785 52.95740
# Shear Modulus (GPa) = 15.85254 17.57409 16.71331
#
# Velocity S-wave (km/s) = 3.24081 3.41225 3.32764
# Velocity P-wave (km/s) = 6.81271 7.29984 7.06048
#
# Compressibility (1/GPa) = 0.02044281
#
# Stress axis : x y z
#
# Youngs Moduli (GPa) = 64.09176 29.82186 43.90237
#
# Poissons Ratio (x) = 0.19715 0.31769
# Poissons Ratio (y) = 0.42371 0.52190
# Poissons Ratio (z) = 0.46379 0.35452
#
# Static dielectric constant tensor:
#      x y z
#    x 3.012540 0.000000 0.000000 
#    y 0.000000 2.596710 0.000000 
#    z 0.000000 0.000000 2.876900 
# 
# 
# High freq. dielectric constant tensor:
#      x y z
#    x 1.593780 0.000000 0.000000 
#    y 0.000000 1.536310 0.000000 
#    z 0.000000 0.000000 1.565750 
# 
# From -- ./inp_files/24136.got.cif
#   From: 2010.06.25/outbox.cif.g09.slc.cpg/sg71_13_cif.got.tgz:24136.got - 2010.06.28 04:59:45.
