data_PCOD8288008
_publ_section_title
;
Structure prediction by ZEFSAII (Michael W. Deem and Ramdas Pophale) SiO2 
 PCOD8288008
Probable space group: I M M M
;
_chemical_formula_sum "Si O2"
_cell_formula_units_Z 72
_cell_length_a 13.799869
_cell_length_b 23.871846
_cell_length_c 11.141145
_cell_angle_alpha 90.000000
_cell_angle_beta 90.000000
_cell_angle_gamma 90.000000
_cell_volume 3670.208988
_symmetry_space_group_name_H-M "I M M M"
_symmetry_group_IT_number 71
_symmetry_cell_setting 'orthorhombic'
loop_
_space_group_symop_operation_xyz
x,y,z
-x,-y,z
x,-y,-z
-x,y,-z
-x,-y,-z
x,y,-z
-x,y,z
x,-y,z
1/2+x,1/2+y,1/2+z
1/2-x,1/2-y,1/2+z
1/2+x,1/2-y,1/2-z
1/2-x,1/2+y,1/2-z
1/2-x,1/2-y,1/2-z
1/2+x,1/2+y,1/2-z
1/2-x,1/2+y,1/2+z
1/2+x,1/2-y,1/2+z
loop_
_atom_site_type_symbol
_atom_site_label
_atom_site_fract_x
_atom_site_fract_y
_atom_site_fract_z
Si Si1 0.205460 0.936751 0.762848
Si Si2 0.840229 0.939448 0.500000
Si Si3 0.386111 0.268660 0.241562
Si Si4 0.000000 0.934198 0.134639
Si Si5 0.104684 0.179667 0.500000
Si Si6 0.279456 0.172558 0.137475
O O1 0.225255 0.935798 0.619880
O O2 0.277151 0.893083 0.826687
O O3 0.095263 0.915922 0.791046
O O4 0.223050 0.000000 0.813020
O O5 0.911969 0.887158 0.500000
O O6 0.895949 0.000000 0.500000
O O7 0.500000 0.276854 0.267255
O O8 0.359131 0.203319 0.222066
O O9 0.325456 0.297051 0.348549
O O10 0.344233 0.300160 0.121889
O O11 0.000000 0.000000 0.121624
O O12 0.000000 0.907583 0.000000
O O13 0.000000 0.209249 0.500000
O O14 0.312361 0.177107 0.000000
#
# Coordination Sequence:
#
# PCOD8288008 Si02
#       6
#    16   8  16   8   8  16
#     4  10  21  34  50  76 108 143 181 224 273 328
#     4  10  20  31  48  74 104 138 179 221 262 317
#     4  10  22  39  56  80 111 144 182 227 277 324
#     4   9  18  31  45  67 105 144 171 209 269 328
#     4  10  18  33  54  72 103 142 173 216 267 319
#     4  11  22  35  58  84 109 145 186 225 273 333
#
# _framework density 19.617412000000002
#
# number of rings (size 3 to 8) (size 9 to 14) (size 15 to 20)
#    0.000    1.889    3.333    0.667    3.111    2.000 
#    0.000    0.000    0.000    0.667    0.000    1.556 
#    0.000    2.667    0.000    0.000    0.000    0.000 
#
# Total GULP energy -446096.208560 kJ/mol
# GULP energy per Si atom -12391.561349 kJ/mol
# Density = 1.957276 g / cm^3
# Si number density = 19.617412 Si / 1000 Ang^3
#
#
#
# Elastic Constant Matrix: (Units=GPa)
#
#
# Indices 1 2 3 4 5 6 
#
# 1 38.1117 10.5687 -2.8256 0.0000 0.0000 0.0000
# 2 10.5687 109.0315 8.0275 0.0003 0.0001 0.0000
# 3 -2.8256 8.0275 74.8822 0.0023 0.0002 0.0001
# 4 0.0000 0.0003 0.0023 29.2776 0.0001 0.0000
# 5 0.0000 0.0001 0.0002 0.0001 12.9152 0.0000
# 6 0.0000 0.0000 0.0001 0.0000 0.0000 24.0589
#
#
#
# Elastic Compliance Matrix: (Units=1/GPa)
#
#
# Indices 1 2 3 4 5 6 
#
# 1 0.027091 -0.002723 0.001314 0.000000 0.000000 0.000000
# 2 -0.002723 0.009518 -0.001123 0.000000 0.000000 0.000000
# 3 0.001314 -0.001123 0.013524 -0.000001 0.000000 0.000000
# 4 0.000000 0.000000 -0.000001 0.034156 0.000000 0.000000
# 5 0.000000 0.000000 0.000000 0.000000 0.077428 0.000000
# 6 0.000000 0.000000 0.000000 0.000000 0.000000 0.041565
#
#
# Mechanical properties :
#
#
# Convention : Reuss Voigt Hill
#
# Bulk Modulus (GPa) = 22.18759 28.17407 25.18083
# Shear Modulus (GPa) = 22.38448 27.00067 24.69257
#
# Velocity S-wave (km/s) = 3.38161 3.71396 3.55168
# Velocity P-wave (km/s) = 5.15575 5.72576 5.44821
#
# Compressibility (1/GPa) = 0.04507024
#
# Stress axis : x y z
#
# Youngs Moduli (GPa) = 36.91240 105.06103 73.94103
#
# Poissons Ratio (x) = 0.28606 -0.09717
# Poissons Ratio (y) = 0.10050 0.08304
# Poissons Ratio (z) = -0.04851 0.11800
#
# Static dielectric constant tensor:
#      x y z
#    x 3.045610 0.000000 0.000000 
#    y 0.000000 3.768520 0.000000 
#    z 0.000000 0.000000 3.715850 
# 
# 
# High freq. dielectric constant tensor:
#      x y z
#    x 1.692810 0.000000 0.000000 
#    y 0.000000 1.776900 0.000000 
#    z 0.000000 0.000000 1.771020 
# 
# From -- ./inp_files/21820.got.cif
#   From: 2010.06.25/outbox.cif.g09.slc.cpg/sg71_11_cif.got.tgz:21820.got - 2010.06.28 04:59:45.
