data_PCOD8288367
_publ_section_title
;
Structure prediction by ZEFSAII (Michael W. Deem and Ramdas Pophale) SiO2 
 PCOD8288367
Probable space group: I M M M
;
_chemical_formula_sum "Si O2"
_cell_formula_units_Z 96
_cell_length_a 20.326886
_cell_length_b 18.910334
_cell_length_c 14.169140
_cell_angle_alpha 90.000000
_cell_angle_beta 90.000000
_cell_angle_gamma 90.000000
_cell_volume 5446.450269
_symmetry_space_group_name_H-M "I M M M"
_symmetry_group_IT_number 71
_symmetry_cell_setting 'orthorhombic'
loop_
_space_group_symop_operation_xyz
x,y,z
-x,-y,z
x,-y,-z
-x,y,-z
-x,-y,-z
x,y,-z
-x,y,z
x,-y,z
1/2+x,1/2+y,1/2+z
1/2-x,1/2-y,1/2+z
1/2+x,1/2-y,1/2-z
1/2-x,1/2+y,1/2-z
1/2-x,1/2-y,1/2-z
1/2+x,1/2+y,1/2-z
1/2-x,1/2+y,1/2+z
1/2+x,1/2-y,1/2+z
loop_
_atom_site_type_symbol
_atom_site_label
_atom_site_fract_x
_atom_site_fract_y
_atom_site_fract_z
Si Si1 0.331226 0.420668 0.890500
Si Si2 0.748838 0.695792 0.389886
Si Si3 0.925358 0.836403 0.740728
Si Si4 0.655089 0.205543 0.726273
Si Si5 0.357829 0.580258 0.607230
Si Si6 0.821318 0.580488 0.891104
O O1 0.351798 0.500000 0.859749
O O2 0.375115 0.362993 0.838485
O O3 0.255296 0.407678 0.865736
O O4 0.344001 0.410201 0.000000
O O5 0.764222 0.711709 0.500000
O O6 0.706665 0.759173 0.346003
O O7 0.816044 0.690628 0.330602
O O8 0.710249 0.622008 0.377655
O O9 0.909043 0.754730 0.763765
O O10 0.916367 0.884831 0.833010
O O11 0.000000 0.842139 0.704999
O O12 0.635658 0.131346 0.676603
O O13 0.381738 0.584013 0.500000
O O14 0.345110 0.500000 0.640133
O O15 0.842018 0.500000 0.870389
O O16 0.834750 0.599015 0.000000
#
# Coordination Sequence:
#
# PCOD8288367 Si02
#       6
#    16  16  16  16  16  16
#     4   9  18  32  50  74 102 127 154 194 240 283
#     4   9  17  29  47  71  95 119 149 189 241 291
#     4  11  23  34  44  63  94 134 173 198 219 258
#     4  10  19  30  47  68  92 124 157 195 241 285
#     4   9  18  32  49  70  95 120 149 188 231 276
#     4   9  17  31  54  80  99 115 143 192 254 309
#
# _framework density 17.626159000000001
#
# number of rings (size 3 to 8) (size 9 to 14) (size 15 to 20)
#    0.000    2.500    0.000    5.000    0.000    6.667 
#    0.000    1.667    0.000    0.500    0.000    1.167 
#    0.000    0.000    0.000    7.167    0.000    0.000 
#
# Total GULP energy -595127.684379 kJ/mol
# GULP energy per Si atom -12398.493425 kJ/mol
# Density = 1.758604 g / cm^3
# Si number density = 17.626159 Si / 1000 Ang^3
#
#
#
# Elastic Constant Matrix: (Units=GPa)
#
#
# Indices 1 2 3 4 5 6 
#
# 1 28.5585 26.6586 14.7144 0.0000 0.0000 0.0000
# 2 26.6586 108.6438 37.7910 0.0000 0.0000 0.0000
# 3 14.7144 37.7910 86.2436 0.0000 0.0000 0.0000
# 4 0.0000 0.0000 0.0000 31.9852 0.0000 0.0000
# 5 0.0000 0.0000 0.0000 0.0000 9.8312 0.0000
# 6 0.0000 0.0000 0.0000 0.0000 0.0000 13.4918
#
#
#
# Elastic Compliance Matrix: (Units=1/GPa)
#
#
# Indices 1 2 3 4 5 6 
#
# 1 0.046270 -0.010156 -0.003444 0.000000 0.000000 0.000000
# 2 -0.010156 0.013089 -0.004003 0.000000 0.000000 0.000000
# 3 -0.003444 -0.004003 0.013937 0.000000 0.000000 0.000000
# 4 0.000000 0.000000 0.000000 0.031264 0.000000 0.000000
# 5 0.000000 0.000000 0.000000 0.000000 0.101717 0.000000
# 6 0.000000 0.000000 0.000000 0.000000 0.000000 0.074119
#
#
# Mechanical properties :
#
#
# Convention : Reuss Voigt Hill
#
# Bulk Modulus (GPa) = 26.25321 42.41935 34.33628
# Shear Modulus (GPa) = 15.23009 20.68045 17.95527
#
# Velocity S-wave (km/s) = 2.94268 3.42904 3.19513
# Velocity P-wave (km/s) = 5.14516 6.30841 5.75625
#
# Compressibility (1/GPa) = 0.03809058
#
# Stress axis : x y z
#
# Youngs Moduli (GPa) = 21.61210 76.40244 71.75341
#
# Poissons Ratio (x) = 0.77591 0.24715
# Poissons Ratio (y) = 0.21948 0.28720
# Poissons Ratio (z) = 0.07444 0.30581
#
# Static dielectric constant tensor:
#      x y z
#    x 2.726960 0.000000 0.000000 
#    y 0.000000 3.479430 0.000000 
#    z 0.000000 0.000000 3.383480 
# 
# 
# High freq. dielectric constant tensor:
#      x y z
#    x 1.618590 0.000000 0.000000 
#    y 0.000000 1.694030 0.000000 
#    z 0.000000 0.000000 1.693210 
# 
# From -- ./inp_files/38263.got.cif
#   From: 2010.06.25/outbox.cif.g09.slc.cpg/sg71_20_cif.got.tgz:38263.got - 2010.06.28 04:59:45.
