data_PCOD8288085
_publ_section_title
;
Structure prediction by ZEFSAII (Michael W. Deem and Ramdas Pophale) SiO2 
 PCOD8288085
Probable space group: I M M M
;
_chemical_formula_sum "Si O2"
_cell_formula_units_Z 72
_cell_length_a 11.557398
_cell_length_b 14.356599
_cell_length_c 23.255691
_cell_angle_alpha 90.000000
_cell_angle_beta 90.000000
_cell_angle_gamma 90.000000
_cell_volume 3858.698868
_symmetry_space_group_name_H-M "I M M M"
_symmetry_group_IT_number 71
_symmetry_cell_setting 'orthorhombic'
loop_
_space_group_symop_operation_xyz
x,y,z
-x,-y,z
x,-y,-z
-x,y,-z
-x,-y,-z
x,y,-z
-x,y,z
x,-y,z
1/2+x,1/2+y,1/2+z
1/2-x,1/2-y,1/2+z
1/2+x,1/2-y,1/2-z
1/2-x,1/2+y,1/2-z
1/2-x,1/2-y,1/2-z
1/2+x,1/2+y,1/2-z
1/2-x,1/2+y,1/2+z
1/2+x,1/2-y,1/2+z
loop_
_atom_site_type_symbol
_atom_site_label
_atom_site_fract_x
_atom_site_fract_y
_atom_site_fract_z
Si Si1 0.363272 0.256197 0.172536
Si Si2 0.871663 0.500000 0.432391
Si Si3 0.218962 0.390809 0.759075
Si Si4 0.500000 0.894321 0.337515
Si Si5 0.248388 0.688499 0.566302
Si Si6 0.500000 0.252579 0.564603
O O1 0.500000 0.245851 0.170077
O O2 0.331508 0.348529 0.209020
O O3 0.304369 0.164126 0.200104
O O4 0.311786 0.265140 0.107697
O O5 0.886050 0.500000 0.500000
O O6 0.800971 0.589866 0.412858
O O7 0.000000 0.500000 0.403686
O O8 0.237546 0.500000 0.746007
O O9 0.111105 0.370566 0.800019
O O10 0.500000 0.836040 0.395105
O O11 0.500000 0.000000 0.357968
O O12 0.216492 0.711777 0.500000
O O13 0.386643 0.684705 0.575356
O O14 0.500000 0.212860 0.500000
#
# Coordination Sequence:
#
# PCOD8288085 Si02
#       6
#    16   8  16   8  16   8
#     4  11  22  36  60  86 115 152 191 233 284 345
#     4   9  18  33  51  75 109 148 187 225 271 330
#     4  10  22  39  59  85 114 147 189 236 286 338
#     4  10  18  37  61  81 111 144 183 234 281 334
#     4  10  21  36  56  83 115 150 190 237 283 336
#     4  10  20  36  58  84 113 146 191 237 285 337
#
# _framework density 18.659140000000001
#
# number of rings (size 3 to 8) (size 9 to 14) (size 15 to 20)
#    0.000    1.889    3.333    0.667    1.556    2.444 
#    0.000    2.222    0.000    0.667    0.000    1.556 
#    0.000    0.000    0.000    0.000    0.000    0.000 
#
# Total GULP energy -446372.966506 kJ/mol
# GULP energy per Si atom -12399.249070 kJ/mol
# Density = 1.861667 g / cm^3
# Si number density = 18.659140 Si / 1000 Ang^3
#
#
#
# Elastic Constant Matrix: (Units=GPa)
#
#
# Indices 1 2 3 4 5 6 
#
# 1 101.5942 29.6967 45.5391 0.0000 0.0000 0.0000
# 2 29.6967 81.6100 34.1229 0.0000 0.0000 0.0000
# 3 45.5391 34.1229 88.9539 0.0000 0.0000 0.0000
# 4 0.0000 0.0000 0.0000 22.7860 0.0000 0.0000
# 5 0.0000 0.0000 0.0000 0.0000 21.6832 0.0000
# 6 0.0000 0.0000 0.0000 0.0000 0.0000 22.1140
#
#
#
# Elastic Compliance Matrix: (Units=1/GPa)
#
#
# Indices 1 2 3 4 5 6 
#
# 1 0.013141 -0.002345 -0.005828 0.000000 0.000000 0.000000
# 2 -0.002345 0.015013 -0.004558 0.000000 0.000000 0.000000
# 3 -0.005828 -0.004558 0.015974 0.000000 0.000000 0.000000
# 4 0.000000 0.000000 0.000000 0.043887 0.000000 0.000000
# 5 0.000000 0.000000 0.000000 0.000000 0.046119 0.000000
# 6 0.000000 0.000000 0.000000 0.000000 0.000000 0.045220
#
#
# Mechanical properties :
#
#
# Convention : Reuss Voigt Hill
#
# Bulk Modulus (GPa) = 53.57620 54.54171 54.05896
# Shear Modulus (GPa) = 23.69257 24.16996 23.93127
#
# Velocity S-wave (km/s) = 3.56723 3.60299 3.58515
# Velocity P-wave (km/s) = 6.76330 6.82662 6.79504
#
# Compressibility (1/GPa) = 0.01866500
#
# Stress axis : x y z
#
# Youngs Moduli (GPa) = 76.09878 66.61038 62.60240
#
# Poissons Ratio (x) = 0.15620 0.36483
# Poissons Ratio (y) = 0.17845 0.28536
# Poissons Ratio (z) = 0.44348 0.30363
#
# Static dielectric constant tensor:
#      x y z
#    x 3.529380 0.000000 0.000000 
#    y 0.000000 3.267760 0.000000 
#    z 0.000000 0.000000 3.463310 
# 
# 
# High freq. dielectric constant tensor:
#      x y z
#    x 1.731700 0.000000 0.000000 
#    y 0.000000 1.701360 0.000000 
#    z 0.000000 0.000000 1.733460 
# 
# From -- ./inp_files/58614.got.cif
#   From: 2010.06.25/outbox.cif.g09.slc.cpg/sg71_30_cif.got.tgz:58614.got - 2010.06.28 04:59:45.
