data_PCOD8288987
_publ_section_title
;
Structure prediction by ZEFSAII (Michael W. Deem and Ramdas Pophale) SiO2 
 PCOD8288987
Probable space group: I M M M
;
_chemical_formula_sum "Si O2"
_cell_formula_units_Z 104
_cell_length_a 17.384453
_cell_length_b 14.068492
_cell_length_c 21.283420
_cell_angle_alpha 90.000000
_cell_angle_beta 90.000000
_cell_angle_gamma 90.000000
_cell_volume 5205.350687
_symmetry_space_group_name_H-M "I M M M"
_symmetry_group_IT_number 71
_symmetry_cell_setting 'orthorhombic'
loop_
_space_group_symop_operation_xyz
x,y,z
-x,-y,z
x,-y,-z
-x,y,-z
-x,-y,-z
x,y,-z
-x,y,z
x,-y,z
1/2+x,1/2+y,1/2+z
1/2-x,1/2-y,1/2+z
1/2+x,1/2-y,1/2-z
1/2-x,1/2+y,1/2-z
1/2-x,1/2-y,1/2-z
1/2+x,1/2+y,1/2-z
1/2-x,1/2+y,1/2+z
1/2+x,1/2-y,1/2+z
loop_
_atom_site_type_symbol
_atom_site_label
_atom_site_fract_x
_atom_site_fract_y
_atom_site_fract_z
Si Si1 0.877925 0.610432 0.730616
Si Si2 0.092586 0.391809 0.500000
Si Si3 0.846741 0.888021 0.929683
Si Si4 0.710628 0.612291 0.298122
Si Si5 0.090530 0.890444 0.696218
Si Si6 0.500000 0.274800 0.429301
Si Si7 0.000000 0.390930 0.166345
Si Si8 0.084452 0.274499 0.385799
O O1 0.878884 0.500000 0.714000
O O2 0.789977 0.649584 0.733132
O O3 0.923640 0.660923 0.675383
O O4 0.922149 0.630794 0.795022
O O5 0.126093 0.500000 0.500000
O O6 0.127875 0.333759 0.440399
O O7 0.000000 0.398455 0.500000
O O8 0.791754 0.855090 0.871731
O O9 0.927075 0.839177 0.914445
O O10 0.860927 0.000000 0.927108
O O11 0.815301 0.859691 0.000000
O O12 0.708398 0.500000 0.295395
O O13 0.637623 0.647935 0.257013
O O14 0.118900 0.828066 0.635783
O O15 0.000000 0.873823 0.710200
O O16 0.108418 0.000000 0.680550
O O17 0.500000 0.239449 0.500000
O O18 0.500000 0.176792 0.392473
O O19 0.000000 0.500000 0.143573
O O20 0.000000 0.254009 0.413125
#
# Coordination Sequence:
#
# PCOD8288987 Si02
#       8
#    16   8  16  16  16   8   8  16
#     4  10  20  35  53  78 106 138 180 226 275 321
#     4   9  18  32  51  77 107 137 173 215 263 314
#     4   9  18  33  53  80 114 147 178 216 268 334
#     4   9  19  33  51  77 110 145 180 220 271 327
#     4   9  19  34  52  77 107 138 174 221 271 320
#     4  10  21  35  56  83 110 141 182 226 275 336
#     4  10  22  38  57  77 106 143 186 238 282 321
#     4  10  19  32  53  76 102 137 174 216 261 321
#
# _framework density 19.979441999999999
#
# number of rings (size 3 to 8) (size 9 to 14) (size 15 to 20)
#    0.000    2.538    0.769    0.692    3.231    2.308 
#    1.385    0.385    0.000    2.308    0.000    0.000 
#    0.000    0.000    0.000    0.000    0.000    0.000 
#
# Total GULP energy -644267.726728 kJ/mol
# GULP energy per Si atom -12389.763976 kJ/mol
# Density = 1.993397 g / cm^3
# Si number density = 19.979442 Si / 1000 Ang^3
#
#
#
# Elastic Constant Matrix: (Units=GPa)
#
#
# Indices 1 2 3 4 5 6 
#
# 1 83.3581 19.2682 37.7345 0.0000 0.0000 0.0000
# 2 19.2682 78.4511 55.2538 0.0000 0.0000 0.0000
# 3 37.7345 55.2538 107.4125 0.0000 0.0000 0.0000
# 4 0.0000 0.0000 0.0000 37.9872 0.0000 0.0000
# 5 0.0000 0.0000 0.0000 0.0000 10.6870 0.0000
# 6 0.0000 0.0000 0.0000 0.0000 0.0000 2.0200
#
#
#
# Elastic Compliance Matrix: (Units=1/GPa)
#
#
# Indices 1 2 3 4 5 6 
#
# 1 0.014265 0.000041 -0.005032 0.000000 0.000000 0.000000
# 2 0.000041 0.019989 -0.010297 0.000000 0.000000 0.000000
# 3 -0.005032 -0.010297 0.016374 0.000000 0.000000 0.000000
# 4 0.000000 0.000000 0.000000 0.026325 0.000000 0.000000
# 5 0.000000 0.000000 0.000000 0.000000 0.093571 0.000000
# 6 0.000000 0.000000 0.000000 0.000000 0.000000 0.495045
#
#
# Mechanical properties :
#
#
# Convention : Reuss Voigt Hill
#
# Bulk Modulus (GPa) = 49.87098 54.85941 52.36520
# Shear Modulus (GPa) = 7.11410 20.60320 13.85865
#
# Velocity S-wave (km/s) = 1.88903 3.21475 2.63657
# Velocity P-wave (km/s) = 5.45649 6.42627 5.96113
#
# Compressibility (1/GPa) = 0.02005174
#
# Stress axis : x y z
#
# Youngs Moduli (GPa) = 70.10142 50.02775 61.07058
#
# Poissons Ratio (x) = -0.00204 0.30733
# Poissons Ratio (y) = -0.00285 0.62883
# Poissons Ratio (z) = 0.35277 0.51512
#
# Static dielectric constant tensor:
#      x y z
#    x 3.714050 0.000000 0.000000 
#    y 0.000000 3.627460 0.000000 
#    z 0.000000 0.000000 3.743590 
# 
# 
# High freq. dielectric constant tensor:
#      x y z
#    x 1.766300 0.000000 0.000000 
#    y 0.000000 1.774690 0.000000 
#    z 0.000000 0.000000 1.768070 
# 
# From -- ./inp_files/54154.got.cif
#   From: 2010.06.25/outbox.cif.g09.slc.cpg/sg71_28_cif.got.tgz:54154.got - 2010.06.28 04:59:45.
