data_PCOD8288444
_publ_section_title
;
Structure prediction by ZEFSAII (Michael W. Deem and Ramdas Pophale) SiO2 
 PCOD8288444
Probable space group: I M M M
;
_chemical_formula_sum "Si O2"
_cell_formula_units_Z 120
_cell_length_a 29.713052
_cell_length_b 14.639955
_cell_length_c 13.463620
_cell_angle_alpha 90.000000
_cell_angle_beta 90.000000
_cell_angle_gamma 90.000000
_cell_volume 5856.644329
_symmetry_space_group_name_H-M "I M M M"
_symmetry_group_IT_number 71
_symmetry_cell_setting 'orthorhombic'
loop_
_space_group_symop_operation_xyz
x,y,z
-x,-y,z
x,-y,-z
-x,y,-z
-x,-y,-z
x,y,-z
-x,y,z
x,-y,z
1/2+x,1/2+y,1/2+z
1/2-x,1/2-y,1/2+z
1/2+x,1/2-y,1/2-z
1/2-x,1/2+y,1/2-z
1/2-x,1/2-y,1/2-z
1/2+x,1/2+y,1/2-z
1/2-x,1/2+y,1/2+z
1/2+x,1/2-y,1/2+z
loop_
_atom_site_type_symbol
_atom_site_label
_atom_site_fract_x
_atom_site_fract_y
_atom_site_fract_z
Si Si1 0.000000 0.605527 0.617437
Si Si2 0.807689 0.095905 0.716124
Si Si3 0.603663 0.607007 0.115587
Si Si4 0.263385 0.329437 0.608644
Si Si5 0.167903 0.602462 0.382430
Si Si6 0.120218 0.605392 0.115453
Si Si7 0.778766 0.623657 0.891149
Si Si8 0.914647 0.706542 0.705133
O O1 0.956412 0.654240 0.659651
O O2 0.000000 0.500000 0.650381
O O3 0.000000 0.614868 0.500000
O O4 0.843535 0.129251 0.634314
O O5 0.804315 0.158547 0.813843
O O6 0.759054 0.072435 0.670353
O O7 0.826041 0.000000 0.758094
O O8 0.590925 0.500000 0.141082
O O9 0.578461 0.683457 0.185002
O O10 0.592797 0.625607 0.000000
O O11 0.274167 0.373188 0.500000
O O12 0.217538 0.369170 0.656692
O O13 0.257804 0.223042 0.597925
O O14 0.170144 0.606166 0.500000
O O15 0.155984 0.500000 0.345214
O O16 0.130607 0.673492 0.348128
O O17 0.104398 0.500000 0.129314
O O18 0.171476 0.615918 0.157515
O O19 0.089339 0.676260 0.178614
O O20 0.117042 0.635190 0.000000
O O21 0.783812 0.578852 0.000000
#
# Coordination Sequence:
#
# PCOD8288444 Si02
#       8
#     8  16  16  16  16  16  16  16
#     4  11  24  40  62  96 126 145 178 230 288 353
#     4  11  20  30  47  70 100 140 183 229 279 325
#     4  10  22  39  59  85 115 148 191 240 288 342
#     4  10  20  32  46  69 103 143 190 238 277 322
#     4  10  19  30  48  76 110 150 192 232 284 352
#     4  10  21  36  56  85 120 157 197 237 277 331
#     4  10  19  31  48  70 100 141 188 236 280 320
#     4  12  22  39  63  83 112 152 187 228 290 349
#
# _framework density 20.489547999999999
#
# number of rings (size 3 to 8) (size 9 to 14) (size 15 to 20)
#    0.000    1.533    0.000    6.400    0.000    4.267 
#    0.000    0.667    0.000    3.600    0.000    0.000 
#    0.000    1.067    0.000    0.000    0.000    0.000 
#
# Total GULP energy -743293.041961 kJ/mol
# GULP energy per Si atom -12388.217366 kJ/mol
# Density = 2.044291 g / cm^3
# Si number density = 20.489548 Si / 1000 Ang^3
#
#
#
# Elastic Constant Matrix: (Units=GPa)
#
#
# Indices 1 2 3 4 5 6 
#
# 1 48.1777 30.7583 30.7536 0.0000 0.0000 0.0000
# 2 30.7583 134.6994 48.5380 0.0000 0.0000 0.0000
# 3 30.7536 48.5380 71.9128 0.0000 0.0000 0.0000
# 4 0.0000 0.0000 0.0000 200.1962 0.0000 0.0000
# 5 0.0000 0.0000 0.0000 0.0000 21.1134 0.0000
# 6 0.0000 0.0000 0.0000 0.0000 0.0000 24.8352
#
#
#
# Elastic Compliance Matrix: (Units=1/GPa)
#
#
# Indices 1 2 3 4 5 6 
#
# 1 0.029373 -0.002882 -0.010616 0.000000 0.000000 0.000000
# 2 -0.002882 0.010093 -0.005580 0.000000 0.000000 0.000000
# 3 -0.010616 -0.005580 0.022212 0.000000 0.000000 0.000000
# 4 0.000000 0.000000 0.000000 0.004995 0.000000 0.000000
# 5 0.000000 0.000000 0.000000 0.000000 0.047363 0.000000
# 6 0.000000 0.000000 0.000000 0.000000 0.000000 0.040265
#
#
# Mechanical properties :
#
#
# Convention : Reuss Voigt Hill
#
# Bulk Modulus (GPa) = 42.51345 52.76551 47.63948
# Shear Modulus (GPa) = 24.96284 58.87830 41.92057
#
# Velocity S-wave (km/s) = 3.49423 5.36639 4.52812
# Velocity P-wave (km/s) = 6.08880 8.01286 7.11615
#
# Compressibility (1/GPa) = 0.02352197
#
# Stress axis : x y z
#
# Youngs Moduli (GPa) = 34.04466 99.08280 45.02096
#
# Poissons Ratio (x) = 0.28553 0.47796
# Poissons Ratio (y) = 0.09811 0.25120
# Poissons Ratio (z) = 0.36143 0.55285
#
# Static dielectric constant tensor:
#      x y z
#    x 3.200220 0.000000 0.000000 
#    y 0.000000 3.950800 0.000000 
#    z 0.000000 0.000000 3.927280 
# 
# 
# High freq. dielectric constant tensor:
#      x y z
#    x 1.748500 0.000000 0.000000 
#    y 0.000000 1.815870 0.000000 
#    z 0.000000 0.000000 1.807740 
# 
# From -- ./inp_files/41142.got.cif
#   From: 2010.06.25/outbox.cif.g09.slc.cpg/sg71_21_cif.got.tgz:41142.got - 2010.06.28 04:59:45.
