data_PCOD8288672
_publ_section_title
;
Structure prediction by ZEFSAII (Michael W. Deem and Ramdas Pophale) SiO2 
 PCOD8288672
Probable space group: I M M M
;
_chemical_formula_sum "Si O2"
_cell_formula_units_Z 80
_cell_length_a 7.674176
_cell_length_b 19.468007
_cell_length_c 29.114094
_cell_angle_alpha 90.000000
_cell_angle_beta 90.000000
_cell_angle_gamma 90.000000
_cell_volume 4349.672198
_symmetry_space_group_name_H-M "I M M M"
_symmetry_group_IT_number 71
_symmetry_cell_setting 'orthorhombic'
loop_
_space_group_symop_operation_xyz
x,y,z
-x,-y,z
x,-y,-z
-x,y,-z
-x,-y,-z
x,y,-z
-x,y,z
x,-y,z
1/2+x,1/2+y,1/2+z
1/2-x,1/2-y,1/2+z
1/2+x,1/2-y,1/2-z
1/2-x,1/2+y,1/2-z
1/2-x,1/2-y,1/2-z
1/2+x,1/2+y,1/2-z
1/2-x,1/2+y,1/2+z
1/2+x,1/2-y,1/2+z
loop_
_atom_site_type_symbol
_atom_site_label
_atom_site_fract_x
_atom_site_fract_y
_atom_site_fract_z
Si Si1 0.500000 0.329185 0.551010
Si Si2 0.702656 0.828310 0.881065
Si Si3 0.692399 0.329924 0.884580
Si Si4 0.293555 0.924148 0.201028
Si Si5 0.000000 0.666420 0.948932
Si Si6 0.298205 0.920288 0.303096
O O1 0.500000 0.361905 0.500000
O O2 0.676226 0.353351 0.576830
O O3 0.500000 0.247700 0.547068
O O4 0.500000 0.844100 0.892750
O O5 0.736031 0.748362 0.870914
O O6 0.768910 0.868785 0.836095
O O7 0.500000 0.333913 0.906858
O O8 0.691403 0.374533 0.838571
O O9 0.828815 0.359096 0.921741
O O10 0.500000 0.927188 0.203322
O O11 0.226691 0.903689 0.251881
O O12 0.222283 0.000000 0.187586
O O13 0.000000 0.633642 0.000000
O O14 0.500000 0.900563 0.307720
O O15 0.267889 0.000000 0.314616
#
# Coordination Sequence:
#
# PCOD8288672 Si02
#       6
#     8  16  16  16   8  16
#     4   9  18  32  51  75 101 131 167 207 254 301
#     4   9  18  32  50  74 101 129 165 207 249 292
#     4  10  19  31  50  76 102 128 163 206 250 296
#     4   8  15  30  51  72  98 135 172 203 241 292
#     4   9  18  34  53  73 101 133 165 207 254 297
#     4   9  17  31  51  72  98 135 171 202 242 294
#
# _framework density 18.392192000000001
#
# number of rings (size 3 to 8) (size 9 to 14) (size 15 to 20)
#    0.000    3.000    1.000    1.200    0.000    2.000 
#    1.800    4.500    0.000    2.400    0.000    4.200 
#    0.000    0.000    0.000    0.000    0.000    0.000 
#
# Total GULP energy -495836.728277 kJ/mol
# GULP energy per Si atom -12395.918207 kJ/mol
# Density = 1.835033 g / cm^3
# Si number density = 18.392192 Si / 1000 Ang^3
#
#
#
# Elastic Constant Matrix: (Units=GPa)
#
#
# Indices 1 2 3 4 5 6 
#
# 1 92.5792 30.3690 59.8681 0.0000 0.0000 0.0000
# 2 30.3690 52.2798 54.1669 0.0000 0.0000 0.0000
# 3 59.8681 54.1669 156.1022 0.0000 0.0000 0.0000
# 4 0.0000 0.0000 0.0000 5.5600 0.0000 0.0000
# 5 0.0000 0.0000 0.0000 0.0000 23.4791 0.0000
# 6 0.0000 0.0000 0.0000 0.0000 0.0000 12.6520
#
#
#
# Elastic Compliance Matrix: (Units=1/GPa)
#
#
# Indices 1 2 3 4 5 6 
#
# 1 0.014955 -0.004285 -0.004248 0.000000 0.000000 0.000000
# 2 -0.004285 0.031093 -0.009146 0.000000 0.000000 0.000000
# 3 -0.004248 -0.009146 0.011209 0.000000 0.000000 0.000000
# 4 0.000000 0.000000 0.000000 0.179857 0.000000 0.000000
# 5 0.000000 0.000000 0.000000 0.000000 0.042591 0.000000
# 6 0.000000 0.000000 0.000000 0.000000 0.000000 0.079039
#
#
# Mechanical properties :
#
#
# Convention : Reuss Voigt Hill
#
# Bulk Modulus (GPa) = 45.66673 65.52991 55.59832
# Shear Modulus (GPa) = 12.45637 18.77537 15.61587
#
# Velocity S-wave (km/s) = 2.60525 3.19852 2.91701
# Velocity P-wave (km/s) = 5.82521 7.02476 6.45292
#
# Compressibility (1/GPa) = 0.02189778
#
# Stress axis : x y z
#
# Youngs Moduli (GPa) = 66.86923 32.16165 89.21478
#
# Poissons Ratio (x) = 0.13782 0.37902
# Poissons Ratio (y) = 0.28655 0.81593
# Poissons Ratio (z) = 0.28409 0.29414
#
# Static dielectric constant tensor:
#      x y z
#    x 3.339140 0.000000 0.000000 
#    y 0.000000 3.213830 0.000000 
#    z 0.000000 0.000000 3.567970 
# 
# 
# High freq. dielectric constant tensor:
#      x y z
#    x 1.713550 0.000000 0.000000 
#    y 0.000000 1.683820 0.000000 
#    z 0.000000 0.000000 1.705520 
# 
# From -- ./inp_files/8448.got.cif
#   From: 2010.06.25/outbox.cif.g09.slc.cpg/sg71_5_cif.got.tgz:8448.got - 2010.06.28 04:59:45.
