data_PCOD8288016
_publ_section_title
;
Structure prediction by ZEFSAII (Michael W. Deem and Ramdas Pophale) SiO2 
 PCOD8288016
Probable space group: I M M M
;
_chemical_formula_sum "Si O2"
_cell_formula_units_Z 104
_cell_length_a 14.484556
_cell_length_b 24.009165
_cell_length_c 16.735391
_cell_angle_alpha 90.000000
_cell_angle_beta 90.000000
_cell_angle_gamma 90.000000
_cell_volume 5819.934634
_symmetry_space_group_name_H-M "I M M M"
_symmetry_group_IT_number 71
_symmetry_cell_setting 'orthorhombic'
loop_
_space_group_symop_operation_xyz
x,y,z
-x,-y,z
x,-y,-z
-x,y,-z
-x,-y,-z
x,y,-z
-x,y,z
x,-y,z
1/2+x,1/2+y,1/2+z
1/2-x,1/2-y,1/2+z
1/2+x,1/2-y,1/2-z
1/2-x,1/2+y,1/2-z
1/2-x,1/2-y,1/2-z
1/2+x,1/2+y,1/2-z
1/2-x,1/2+y,1/2+z
1/2+x,1/2-y,1/2+z
loop_
_atom_site_type_symbol
_atom_site_label
_atom_site_fract_x
_atom_site_fract_y
_atom_site_fract_z
Si Si1 0.218162 0.153352 0.644758
Si Si2 0.895815 0.766660 0.750154
Si Si3 0.896599 0.283534 0.090048
Si Si4 0.607490 0.150427 0.831569
Si Si5 0.000000 0.434723 0.090127
Si Si6 0.107958 0.815822 0.500000
Si Si7 0.166778 0.434607 0.793667
Si Si8 0.389619 0.189519 0.000000
O O1 0.179965 0.191047 0.716993
O O2 0.315746 0.173555 0.609288
O O3 0.141262 0.151025 0.577160
O O4 0.235869 0.090422 0.675164
O O5 0.890620 0.767559 0.846810
O O6 0.869341 0.704368 0.721819
O O7 0.000000 0.781747 0.720337
O O8 0.000000 0.311841 0.099810
O O9 0.885166 0.260152 0.000000
O O10 0.500000 0.141470 0.840075
O O11 0.647698 0.095112 0.791079
O O12 0.648819 0.158737 0.920916
O O13 0.910428 0.418117 0.141259
O O14 0.000000 0.500000 0.077258
O O15 0.000000 0.407090 0.000000
O O16 0.148462 0.753004 0.500000
O O17 0.000000 0.814774 0.500000
O O18 0.175304 0.500000 0.778783
O O19 0.500000 0.192120 0.000000
#
# Coordination Sequence:
#
# PCOD8288016 Si02
#       8
#    16  16  16  16   8   8  16   8
#     4  12  22  35  57  81 112 152 189 230 281 340
#     4  10  20  35  56  82 113 147 186 232 286 345
#     4  10  21  34  49  80 119 145 174 220 279 344
#     4  10  18  33  55  81 112 148 184 234 291 346
#     4   9  20  38  56  73 101 145 193 238 279 324
#     4  11  22  38  58  88 117 147 186 235 290 351
#     4  11  24  38  54  77 110 153 198 238 279 339
#     4   9  18  32  55  84 114 141 181 231 284 351
#
# _framework density 17.869617000000002
#
# number of rings (size 3 to 8) (size 9 to 14) (size 15 to 20)
#    0.000    1.615    4.615    0.923    2.154    0.000 
#    0.000    0.385    0.000    3.692    0.000    0.000 
#    0.000    0.000    0.000    3.846    0.000    0.000 
#
# Total GULP energy -644507.047547 kJ/mol
# GULP energy per Si atom -12394.366299 kJ/mol
# Density = 1.782895 g / cm^3
# Si number density = 17.869617 Si / 1000 Ang^3
#
#
#
# Elastic Constant Matrix: (Units=GPa)
#
#
# Indices 1 2 3 4 5 6 
#
# 1 70.7909 44.0502 40.6203 0.0000 0.0000 0.0000
# 2 44.0502 104.8951 53.9281 -0.0002 0.0000 0.0000
# 3 40.6203 53.9281 147.4879 -0.0002 0.0000 0.0000
# 4 0.0000 -0.0002 -0.0002 16.2437 0.0000 0.0000
# 5 0.0000 0.0000 0.0000 0.0000 28.0714 0.0000
# 6 0.0000 0.0000 0.0000 0.0000 0.0000 20.3849
#
#
#
# Elastic Compliance Matrix: (Units=1/GPa)
#
#
# Indices 1 2 3 4 5 6 
#
# 1 0.020163 -0.006912 -0.003026 0.000000 0.000000 0.000000
# 2 -0.006912 0.014110 -0.003255 0.000000 0.000000 0.000000
# 3 -0.003026 -0.003255 0.008804 0.000000 0.000000 0.000000
# 4 0.000000 0.000000 0.000000 0.061562 0.000000 0.000000
# 5 0.000000 0.000000 0.000000 0.000000 0.035623 0.000000
# 6 0.000000 0.000000 0.000000 0.000000 0.000000 0.049056
#
#
# Mechanical properties :
#
#
# Convention : Reuss Voigt Hill
#
# Bulk Modulus (GPa) = 59.91488 66.70790 63.31139
# Shear Modulus (GPa) = 22.59695 25.24502 23.92098
#
# Velocity S-wave (km/s) = 3.55990 3.76271 3.66271
# Velocity P-wave (km/s) = 7.10626 7.50258 7.30711
#
# Compressibility (1/GPa) = 0.01669035
#
# Stress axis : x y z
#
# Youngs Moduli (GPa) = 49.59491 70.87375 113.58497
#
# Poissons Ratio (x) = 0.48986 0.34371
# Poissons Ratio (y) = 0.34279 0.36978
# Poissons Ratio (z) = 0.15008 0.23073
#
# Static dielectric constant tensor:
#      x y z
#    x 3.333220 0.000000 0.000000 
#    y 0.000000 2.977370 0.000000 
#    z 0.000000 0.000000 3.733400 
# 
# 
# High freq. dielectric constant tensor:
#      x y z
#    x 1.684110 0.000000 0.000000 
#    y 0.000000 1.642660 0.000000 
#    z 0.000000 0.000000 1.709530 
# 
# From -- ./inp_files/45002.got.cif
#   From: 2010.06.25/outbox.cif.g09.slc.cpg/sg71_23_cif.got.tgz:45002.got - 2010.06.28 04:59:45.
