data_PCOD8288406
_publ_section_title
;
Structure prediction by ZEFSAII (Michael W. Deem and Ramdas Pophale) SiO2 
 PCOD8288406
Probable space group: I M M M
;
_chemical_formula_sum "Si O2"
_cell_formula_units_Z 120
_cell_length_a 21.093078
_cell_length_b 25.316941
_cell_length_c 12.426526
_cell_angle_alpha 90.000000
_cell_angle_beta 90.000000
_cell_angle_gamma 90.000000
_cell_volume 6635.916627
_symmetry_space_group_name_H-M "I M M M"
_symmetry_group_IT_number 71
_symmetry_cell_setting 'orthorhombic'
loop_
_space_group_symop_operation_xyz
x,y,z
-x,-y,z
x,-y,-z
-x,y,-z
-x,-y,-z
x,y,-z
-x,y,z
x,-y,z
1/2+x,1/2+y,1/2+z
1/2-x,1/2-y,1/2+z
1/2+x,1/2-y,1/2-z
1/2-x,1/2+y,1/2-z
1/2-x,1/2-y,1/2-z
1/2+x,1/2+y,1/2-z
1/2-x,1/2+y,1/2+z
1/2+x,1/2-y,1/2+z
loop_
_atom_site_type_symbol
_atom_site_label
_atom_site_fract_x
_atom_site_fract_y
_atom_site_fract_z
Si Si1 0.280006 0.308971 0.623611
Si Si2 0.072663 0.814541 0.377509
Si Si3 0.925315 0.000000 0.127531
Si Si4 0.842988 0.727027 0.279046
Si Si5 0.257423 0.561132 0.880227
Si Si6 0.138652 0.104736 0.772257
Si Si7 0.118634 0.556395 0.125736
Si Si8 0.429239 0.165179 0.620464
O O1 0.283270 0.293486 0.500000
O O2 0.205846 0.312093 0.659052
O O3 0.307961 0.261027 0.690026
O O4 0.322311 0.361752 0.639050
O O5 0.082449 0.835321 0.500000
O O6 0.118985 0.764533 0.361250
O O7 0.086162 0.860353 0.289655
O O8 0.000000 0.796643 0.360016
O O9 0.893480 0.947060 0.175796
O O10 0.000000 0.000000 0.155774
O O11 0.914405 0.000000 0.000000
O O12 0.891876 0.691739 0.215027
O O13 0.275157 0.500000 0.880279
O O14 0.309466 0.591812 0.815261
O O15 0.188243 0.570593 0.826476
O O16 0.259623 0.584949 0.000000
O O17 0.093989 0.500000 0.173519
O O18 0.068887 0.602612 0.148104
O O19 0.130444 0.548348 0.000000
O O20 0.400203 0.174336 0.500000
O O21 0.500000 0.187486 0.622196
#
# Coordination Sequence:
#
# PCOD8288406 Si02
#       8
#    16  16   8  16  16  16  16  16
#     4  10  21  35  54  78 100 128 170 221 269 312
#     4  10  21  36  54  77 106 139 175 215 261 316
#     4  11  24  40  55  73 103 143 181 216 258 310
#     4  10  20  35  54  74 103 135 169 214 269 320
#     4   9  16  28  48  74 103 132 164 204 251 304
#     4  11  20  35  55  78 104 135 174 217 260 312
#     4   8  15  27  43  67 101 136 167 203 249 299
#     4  10  19  30  47  73 104 138 175 211 252 311
#
# _framework density 18.083409
#
# number of rings (size 3 to 8) (size 9 to 14) (size 15 to 20)
#    0.000    2.200    0.667    4.000    0.000    0.267 
#    0.000    5.333    0.000    8.000    0.000    0.000 
#    0.000    0.000    0.000    7.600    0.000    0.800 
#
# Total GULP energy -743498.167427 kJ/mol
# GULP energy per Si atom -12391.636124 kJ/mol
# Density = 1.804225 g / cm^3
# Si number density = 18.083409 Si / 1000 Ang^3
#
#
#
# Elastic Constant Matrix: (Units=GPa)
#
#
# Indices 1 2 3 4 5 6 
#
# 1 86.3295 36.8142 37.6349 0.0000 0.0000 0.0000
# 2 36.8142 81.2488 30.6835 0.0000 0.0000 0.0000
# 3 37.6349 30.6835 77.8350 0.0000 0.0000 0.0000
# 4 0.0000 0.0000 0.0000 7.4921 0.0000 0.0000
# 5 0.0000 0.0000 0.0000 0.0000 28.7967 0.0000
# 6 0.0000 0.0000 0.0000 0.0000 0.0000 -27.8963
#
#
#
# Elastic Compliance Matrix: (Units=1/GPa)
#
#
# Indices 1 2 3 4 5 6 
#
# 1 0.016354 -0.005198 -0.005859 0.000000 0.000000 0.000000
# 2 -0.005198 0.016113 -0.003839 0.000000 0.000000 0.000000
# 3 -0.005859 -0.003839 0.017194 0.000000 0.000000 0.000000
# 4 0.000000 0.000000 0.000000 0.133474 0.000000 0.000000
# 5 0.000000 0.000000 0.000000 0.000000 0.034726 0.000000
# 6 0.000000 0.000000 0.000000 0.000000 0.000000 -0.035847
#
#
# Mechanical properties :
#
#
# Convention : Reuss Voigt Hill
#
# Bulk Modulus (GPa) = 50.32540 50.63095 50.47817
# Shear Modulus (GPa) = 22.89103 11.03056 16.96080
#
# Velocity S-wave (km/s) = 3.56175 2.47246 3.06587
# Velocity P-wave (km/s) = 6.69364 6.01748 6.36455
#
# Compressibility (1/GPa) = 0.01987068
#
# Stress axis : x y z
#
# Youngs Moduli (GPa) = 61.14723 62.06332 58.16100
#
# Poissons Ratio (x) = 0.32258 0.34074
# Poissons Ratio (y) = 0.31782 0.22326
# Poissons Ratio (z) = 0.35823 0.23824
#
# Static dielectric constant tensor:
#      x y z
#    x 3.469340 0.000000 0.000000 
#    y 0.000000 3.408780 0.000000 
#    z 0.000000 0.000000 3.273940 
# 
# 
# High freq. dielectric constant tensor:
#      x y z
#    x 1.709100 0.000000 0.000000 
#    y 0.000000 1.698500 0.000000 
#    z 0.000000 0.000000 1.678360 
# 
# From -- ./inp_files/26296.got.cif
#   From: 2010.06.25/outbox.cif.g09.slc.cpg/sg71_14_cif.got.tgz:26296.got - 2010.06.28 04:59:45.
