data_PCOD8288227
_publ_section_title
;
Structure prediction by ZEFSAII (Michael W. Deem and Ramdas Pophale) SiO2 
 PCOD8288227
Probable space group: I M M M
;
_chemical_formula_sum "Si O2"
_cell_formula_units_Z 80
_cell_length_a 14.889753
_cell_length_b 9.289423
_cell_length_c 31.431350
_cell_angle_alpha 90.000000
_cell_angle_beta 90.000000
_cell_angle_gamma 90.000000
_cell_volume 4347.496764
_symmetry_space_group_name_H-M "I M M M"
_symmetry_group_IT_number 71
_symmetry_cell_setting 'orthorhombic'
loop_
_space_group_symop_operation_xyz
x,y,z
-x,-y,z
x,-y,-z
-x,y,-z
-x,-y,-z
x,y,-z
-x,y,z
x,-y,z
1/2+x,1/2+y,1/2+z
1/2-x,1/2-y,1/2+z
1/2+x,1/2-y,1/2-z
1/2-x,1/2+y,1/2-z
1/2-x,1/2-y,1/2-z
1/2+x,1/2+y,1/2-z
1/2-x,1/2+y,1/2+z
1/2+x,1/2-y,1/2+z
loop_
_atom_site_type_symbol
_atom_site_label
_atom_site_fract_x
_atom_site_fract_y
_atom_site_fract_z
Si Si1 0.000000 0.331207 0.271398
Si Si2 0.161513 0.165230 0.135087
Si Si3 0.759216 0.835291 0.953484
Si Si4 0.099804 0.835473 0.422553
Si Si5 0.140331 0.666426 0.339787
Si Si6 0.500000 0.171630 0.323639
O O1 0.909073 0.284140 0.296293
O O2 0.000000 0.263475 0.224266
O O3 0.000000 0.500000 0.265093
O O4 0.175993 0.209150 0.085407
O O5 0.252334 0.188932 0.162483
O O6 0.087832 0.272220 0.152755
O O7 0.128820 0.000000 0.138532
O O8 0.668920 0.741724 0.954023
O O9 0.730004 0.000000 0.946014
O O10 0.806184 0.815444 0.000000
O O11 0.098871 0.761786 0.376705
O O12 0.000000 0.825011 0.442286
O O13 0.130003 0.000000 0.416963
O O14 0.117866 0.500000 0.349567
O O15 0.500000 0.000000 0.325165
#
# Coordination Sequence:
#
# PCOD8288227 Si02
#       6
#     8  16  16  16  16   8
#     4   9  18  33  55  82 109 138 180 222 254 305
#     4   9  19  36  57  79 104 135 173 221 272 314
#     4   9  19  36  57  78  99 132 180 224 262 311
#     4  10  19  29  45  75 114 147 173 207 258 312
#     4   9  17  33  57  78 102 142 184 219 258 303
#     4  11  23  37  54  78 107 141 177 218 272 326
#
# _framework density 18.401394
#
# number of rings (size 3 to 8) (size 9 to 14) (size 15 to 20)
#    0.000    2.600    1.000    2.100    0.000    6.000 
#    0.000    4.500    0.000    3.000    0.000    0.000 
#    0.000    0.000    0.000    0.000    0.000    0.000 
#
# Total GULP energy -495804.731206 kJ/mol
# GULP energy per Si atom -12395.118280 kJ/mol
# Density = 1.835951 g / cm^3
# Si number density = 18.401394 Si / 1000 Ang^3
#
#
#
# Elastic Constant Matrix: (Units=GPa)
#
#
# Indices 1 2 3 4 5 6 
#
# 1 100.8640 39.3605 62.3674 0.0000 0.0000 0.0000
# 2 39.3605 70.0394 38.9108 0.0000 0.0000 0.0000
# 3 62.3674 38.9108 145.1279 0.0000 0.0000 0.0000
# 4 0.0000 0.0000 0.0000 19.4048 0.0000 0.0000
# 5 0.0000 0.0000 0.0000 0.0000 34.3798 0.0000
# 6 0.0000 0.0000 0.0000 0.0000 0.0000 30.4674
#
#
#
# Elastic Compliance Matrix: (Units=1/GPa)
#
#
# Indices 1 2 3 4 5 6 
#
# 1 0.015276 -0.005802 -0.005009 0.000000 0.000000 0.000000
# 2 -0.005802 0.018980 -0.002596 0.000000 0.000000 0.000000
# 3 -0.005009 -0.002596 0.009739 0.000000 0.000000 0.000000
# 4 0.000000 0.000000 0.000000 0.051534 0.000000 0.000000
# 5 0.000000 0.000000 0.000000 0.000000 0.029087 0.000000
# 6 0.000000 0.000000 0.000000 0.000000 0.000000 0.032822
#
#
# Mechanical properties :
#
#
# Convention : Reuss Voigt Hill
#
# Bulk Modulus (GPa) = 58.20047 66.36763 62.28405
# Shear Modulus (GPa) = 26.31896 28.54324 27.43110
#
# Velocity S-wave (km/s) = 3.78599 3.94273 3.86516
# Velocity P-wave (km/s) = 7.12802 7.54134 7.33759
#
# Compressibility (1/GPa) = 0.01718199
#
# Stress axis : x y z
#
# Youngs Moduli (GPa) = 65.46386 52.68668 102.68029
#
# Poissons Ratio (x) = 0.30567 0.51433
# Poissons Ratio (y) = 0.37980 0.26652
# Poissons Ratio (z) = 0.32791 0.13675
#
# Static dielectric constant tensor:
#      x y z
#    x 3.260560 0.000000 0.000000 
#    y 0.000000 3.287240 0.000000 
#    z 0.000000 0.000000 3.563120 
# 
# 
# High freq. dielectric constant tensor:
#      x y z
#    x 1.699260 0.000000 0.000000 
#    y 0.000000 1.704820 0.000000 
#    z 0.000000 0.000000 1.711140 
# 
# From -- ./inp_files/65828.got.cif
#   From: 2010.06.25/outbox.cif.g09.slc.cpg/sg71_33_cif.got.tgz:65828.got - 2010.06.28 04:59:45.
