data_PCOD8288983
_publ_section_title
;
Structure prediction by ZEFSAII (Michael W. Deem and Ramdas Pophale) SiO2 
 PCOD8288983
Probable space group: I M M M
;
_chemical_formula_sum "Si O2"
_cell_formula_units_Z 88
_cell_length_a 11.571944
_cell_length_b 28.521724
_cell_length_c 12.996373
_cell_angle_alpha 90.000000
_cell_angle_beta 90.000000
_cell_angle_gamma 90.000000
_cell_volume 4289.476210
_symmetry_space_group_name_H-M "I M M M"
_symmetry_group_IT_number 71
_symmetry_cell_setting 'orthorhombic'
loop_
_space_group_symop_operation_xyz
x,y,z
-x,-y,z
x,-y,-z
-x,y,-z
-x,-y,-z
x,y,-z
-x,y,z
x,-y,z
1/2+x,1/2+y,1/2+z
1/2-x,1/2-y,1/2+z
1/2+x,1/2-y,1/2-z
1/2-x,1/2+y,1/2-z
1/2-x,1/2-y,1/2-z
1/2+x,1/2+y,1/2-z
1/2-x,1/2+y,1/2+z
1/2+x,1/2-y,1/2+z
loop_
_atom_site_type_symbol
_atom_site_label
_atom_site_fract_x
_atom_site_fract_y
_atom_site_fract_z
Si Si1 0.628842 0.315179 0.121461
Si Si2 0.287813 0.734623 0.377518
Si Si3 0.749526 0.591608 0.802916
Si Si4 0.000000 0.292234 0.121421
Si Si5 0.374040 0.500000 0.879883
Si Si6 0.000000 0.602159 0.124306
Si Si7 0.638113 0.632946 0.619333
O O1 0.500000 0.323369 0.166514
O O2 0.677160 0.264538 0.163903
O O3 0.708820 0.360211 0.143263
O O4 0.625394 0.309575 0.000000
O O5 0.288076 0.729998 0.500000
O O6 0.389947 0.766277 0.334684
O O7 0.308615 0.681898 0.335310
O O8 0.690092 0.546909 0.850182
O O9 0.708735 0.593723 0.683056
O O10 0.885320 0.581395 0.822005
O O11 0.000000 0.344651 0.160356
O O12 0.000000 0.290708 0.000000
O O13 0.500000 0.500000 0.826687
O O14 0.388597 0.500000 0.000000
O O15 0.000000 0.594282 0.000000
O O16 0.666748 0.625556 0.500000
O O17 0.500000 0.631139 0.637864
#
# Coordination Sequence:
#
# PCOD8288983 Si02
#       7
#    16  16  16   8   8   8  16
#     4  10  19  32  52  83 122 160 198 250 309 365
#     4   9  16  30  53  81 116 161 203 244 297 353
#     4  12  24  40  61  90 119 157 205 251 300 368
#     4   9  14  28  53  79 114 157 199 241 294 356
#     4  11  24  43  68  96 125 153 185 246 322 380
#     4  11  22  39  63  92 124 160 198 246 304 368
#     4  10  21  39  62  87 121 164 210 257 299 345
#
# _framework density 20.515324
#
# number of rings (size 3 to 8) (size 9 to 14) (size 15 to 20)
#    0.000    1.727    2.727    3.273    0.000    2.545 
#    1.636    1.818    0.000    1.636    0.000    1.273 
#    0.000    0.000    0.000    0.000    0.000    0.000 
#
# Total GULP energy -545176.425963 kJ/mol
# GULP energy per Si atom -12390.373317 kJ/mol
# Density = 2.046863 g / cm^3
# Si number density = 20.515324 Si / 1000 Ang^3
#
#
#
# Elastic Constant Matrix: (Units=GPa)
#
#
# Indices 1 2 3 4 5 6 
#
# 1 160.9604 49.6696 43.2835 -0.0007 0.0012 0.0001
# 2 49.6696 90.7974 30.4768 -0.0016 0.0003 0.0002
# 3 43.2835 30.4768 64.8069 -0.0094 0.0134 0.0017
# 4 -0.0007 -0.0016 -0.0094 30.1289 0.0044 0.0007
# 5 0.0012 0.0003 0.0134 0.0044 -74.9071 -0.0001
# 6 0.0001 0.0002 0.0017 0.0007 -0.0001 27.1111
#
#
#
# Elastic Compliance Matrix: (Units=1/GPa)
#
#
# Indices 1 2 3 4 5 6 
#
# 1 0.008277 -0.003173 -0.004036 -0.000001 -0.000001 0.000000
# 2 -0.003173 0.014294 -0.004603 -0.000001 -0.000001 0.000000
# 3 -0.004036 -0.004603 0.020291 0.000006 0.000004 -0.000001
# 4 -0.000001 -0.000001 0.000006 0.033191 0.000002 -0.000001
# 5 -0.000001 -0.000001 0.000004 0.000002 -0.013350 0.000000
# 6 0.000000 0.000000 -0.000001 -0.000001 0.000000 0.036885
#
#
# Mechanical properties :
#
#
# Convention : Reuss Voigt Hill
#
# Bulk Modulus (GPa) = 51.98024 62.60273 57.29149
# Shear Modulus (GPa) = 38.57275 9.34223 23.95749
#
# Velocity S-wave (km/s) = 4.34082 2.13627 3.42099
# Velocity P-wave (km/s) = 7.10746 6.05527 6.60235
#
# Compressibility (1/GPa) = 0.01923808
#
# Stress axis : x y z
#
# Youngs Moduli (GPa) = 120.81357 69.95739 49.28389
#
# Poissons Ratio (x) = 0.22199 0.19891
# Poissons Ratio (y) = 0.38337 0.22685
# Poissons Ratio (z) = 0.48760 0.32201
#
# Static dielectric constant tensor:
#      x y z
#    x 4.060220 0.000000 0.000000 
#    y 0.000000 3.550470 0.000000 
#    z 0.000000 0.000000 3.773200 
# 
# 
# High freq. dielectric constant tensor:
#      x y z
#    x 1.806310 0.000000 0.000000 
#    y 0.000000 1.779640 0.000000 
#    z 0.000000 0.000000 1.812070 
# 
# From -- ./inp_files/33035.got.cif
#   From: 2010.06.25/outbox.cif.g09.slc.cpg/sg71_17_cif.got.tgz:33035.got - 2010.06.28 04:59:45.
