data_PCOD8288274
_publ_section_title
;
Structure prediction by ZEFSAII (Michael W. Deem and Ramdas Pophale) SiO2 
 PCOD8288274
Probable space group: I M M M
;
_chemical_formula_sum "Si O2"
_cell_formula_units_Z 104
_cell_length_a 32.856646
_cell_length_b 9.050217
_cell_length_c 24.504467
_cell_angle_alpha 90.000000
_cell_angle_beta 90.000000
_cell_angle_gamma 90.000000
_cell_volume 7286.642823
_symmetry_space_group_name_H-M "I M M M"
_symmetry_group_IT_number 71
_symmetry_cell_setting 'orthorhombic'
loop_
_space_group_symop_operation_xyz
x,y,z
-x,-y,z
x,-y,-z
-x,y,-z
-x,-y,-z
x,y,-z
-x,y,z
x,-y,z
1/2+x,1/2+y,1/2+z
1/2-x,1/2-y,1/2+z
1/2+x,1/2-y,1/2-z
1/2-x,1/2+y,1/2-z
1/2-x,1/2-y,1/2-z
1/2+x,1/2+y,1/2-z
1/2-x,1/2+y,1/2+z
1/2+x,1/2-y,1/2+z
loop_
_atom_site_type_symbol
_atom_site_label
_atom_site_fract_x
_atom_site_fract_y
_atom_site_fract_z
Si Si1 0.380889 0.675740 0.665070
Si Si2 0.251749 0.831768 0.559468
Si Si3 0.313372 0.828097 0.731270
Si Si4 0.546586 0.175696 0.618729
Si Si5 0.164240 0.826019 0.940826
Si Si6 0.770988 0.830383 0.675473
Si Si7 0.951924 0.661128 0.000000
O O1 0.382662 0.500000 0.670209
O O2 0.353611 0.739403 0.713847
O O3 0.426306 0.743691 0.665052
O O4 0.362285 0.737366 0.608318
O O5 0.230074 0.807068 0.500000
O O6 0.289924 0.726696 0.564563
O O7 0.222001 0.799235 0.610762
O O8 0.267436 0.000000 0.564396
O O9 0.275966 0.793043 0.690493
O O10 0.301548 0.774821 0.791948
O O11 0.324022 0.000000 0.732934
O O12 0.500000 0.215630 0.632237
O O13 0.559086 0.240082 0.557888
O O14 0.553246 0.000000 0.620431
O O15 0.165452 0.000000 0.936065
O O16 0.145948 0.776450 0.000000
O O17 0.780444 0.000000 0.691003
O O18 0.930993 0.500000 0.000000
O O19 0.000000 0.637981 0.000000
#
# Coordination Sequence:
#
# PCOD8288274 Si02
#       7
#    16  16  16  16  16  16   8
#     4  11  21  30  43  60  81 103 131 170 211 252
#     4   9  16  27  43  61  80 103 133 167 202 242
#     4  10  19  30  44  60  78 105 138 169 202 242
#     4   9  18  32  47  60  76 100 131 167 206 251
#     4   9  18  29  38  52  77 105 131 163 205 248
#     4   9  17  29  43  60  82 105 132 167 205 240
#     4   7  12  26  45  61  75  95 127 165 205 249
#
# _framework density 14.272690000000001
#
# number of rings (size 3 to 8) (size 9 to 14) (size 15 to 20)
#    0.000    2.692    1.538    1.846    1.077    2.154 
#    0.000    0.000    0.000    1.385    0.000    0.000 
#    0.000    0.000    0.000    0.000    0.000    0.769 
#
# Total GULP energy -644324.085894 kJ/mol
# GULP energy per Si atom -12390.847806 kJ/mol
# Density = 1.424021 g / cm^3
# Si number density = 14.272690 Si / 1000 Ang^3
#
#
#
# Elastic Constant Matrix: (Units=GPa)
#
#
# Indices 1 2 3 4 5 6 
#
# 1 60.9021 25.4256 34.3743 0.0000 0.0000 0.0000
# 2 25.4256 34.6415 23.3178 0.0000 0.0000 0.0000
# 3 34.3743 23.3178 83.7622 0.0000 0.0000 0.0000
# 4 0.0000 0.0000 0.0000 17.7126 0.0000 0.0000
# 5 0.0000 0.0000 0.0000 0.0000 22.2371 0.0000
# 6 0.0000 0.0000 0.0000 0.0000 0.0000 19.2040
#
#
#
# Elastic Compliance Matrix: (Units=1/GPa)
#
#
# Indices 1 2 3 4 5 6 
#
# 1 0.026410 -0.014876 -0.006697 0.000000 0.000000 0.000000
# 2 -0.014876 0.043903 -0.006117 0.000000 0.000000 0.000000
# 3 -0.006697 -0.006117 0.016390 0.000000 0.000000 0.000000
# 4 0.000000 0.000000 0.000000 0.056457 0.000000 0.000000
# 5 0.000000 0.000000 0.000000 0.000000 0.044970 0.000000
# 6 0.000000 0.000000 0.000000 0.000000 0.000000 0.052072
#
#
# Mechanical properties :
#
#
# Convention : Reuss Voigt Hill
#
# Bulk Modulus (GPa) = 31.92561 38.39344 35.15953
# Shear Modulus (GPa) = 16.33861 18.24329 17.29095
#
# Velocity S-wave (km/s) = 3.38708 3.57907 3.48440
# Velocity P-wave (km/s) = 6.14112 6.63611 6.39340
#
# Compressibility (1/GPa) = 0.03132282
#
# Stress axis : x y z
#
# Youngs Moduli (GPa) = 37.86401 22.77742 61.01406
#
# Poissons Ratio (x) = 0.33884 0.40861
# Poissons Ratio (y) = 0.56328 0.37321
# Poissons Ratio (z) = 0.25357 0.13933
#
# Static dielectric constant tensor:
#      x y z
#    x 2.505540 0.000000 0.000000 
#    y 0.000000 2.728480 0.000000 
#    z 0.000000 0.000000 2.892030 
# 
# 
# High freq. dielectric constant tensor:
#      x y z
#    x 1.502340 0.000000 0.000000 
#    y 0.000000 1.546580 0.000000 
#    z 0.000000 0.000000 1.528730 
# 
# From -- ./inp_files/17468.got.cif
#   From: 2010.06.25/outbox.cif.g09.slc.cpg/sg71_9_cif.got.tgz:17468.got - 2010.06.28 04:59:45.
