data_PCOD8288232
_publ_section_title
;
Structure prediction by ZEFSAII (Michael W. Deem and Ramdas Pophale) SiO2 
 PCOD8288232
Probable space group: I M M M
;
_chemical_formula_sum "Si O2"
_cell_formula_units_Z 112
_cell_length_a 22.390626
_cell_length_b 23.863224
_cell_length_c 12.384955
_cell_angle_alpha 90.000000
_cell_angle_beta 90.000000
_cell_angle_gamma 90.000000
_cell_volume 6617.436562
_symmetry_space_group_name_H-M "I M M M"
_symmetry_group_IT_number 71
_symmetry_cell_setting 'orthorhombic'
loop_
_space_group_symop_operation_xyz
x,y,z
-x,-y,z
x,-y,-z
-x,y,-z
-x,-y,-z
x,y,-z
-x,y,z
x,-y,z
1/2+x,1/2+y,1/2+z
1/2-x,1/2-y,1/2+z
1/2+x,1/2-y,1/2-z
1/2-x,1/2+y,1/2-z
1/2-x,1/2-y,1/2-z
1/2+x,1/2+y,1/2-z
1/2-x,1/2+y,1/2+z
1/2+x,1/2-y,1/2+z
loop_
_atom_site_type_symbol
_atom_site_label
_atom_site_fract_x
_atom_site_fract_y
_atom_site_fract_z
Si Si1 0.322440 0.242417 0.622820
Si Si2 0.250048 0.333719 0.269667
Si Si3 0.684315 0.935875 0.126631
Si Si4 0.568775 0.755602 0.241328
Si Si5 0.566537 0.871574 0.123352
Si Si6 0.862656 0.836768 0.625677
Si Si7 0.066207 0.060699 0.372058
O O1 0.317978 0.220531 0.500000
O O2 0.278580 0.296387 0.633868
O O3 0.306253 0.196277 0.713585
O O4 0.391864 0.255925 0.650571
O O5 0.230578 0.394615 0.312751
O O6 0.297527 0.335218 0.174531
O O7 0.616001 0.918215 0.152498
O O8 0.693559 0.000000 0.166747
O O9 0.697447 0.931350 0.000000
O O10 0.500000 0.739587 0.265168
O O11 0.573984 0.819224 0.202148
O O12 0.595972 0.716806 0.147274
O O13 0.500000 0.897771 0.138041
O O14 0.575458 0.851019 0.000000
O O15 0.853203 0.843076 0.500000
O O16 0.893431 0.891190 0.679179
O O17 0.062770 0.068098 0.500000
O O18 0.000000 0.066034 0.323188
O O19 0.093494 0.000000 0.341798
#
# Coordination Sequence:
#
# PCOD8288232 Si02
#       7
#    16  16  16  16  16  16  16
#     4  10  20  34  52  71  97 131 167 208 252 298
#     4  10  20  34  49  73  98 131 168 208 248 300
#     4  10  20  34  53  75 101 133 167 207 254 302
#     4  10  19  31  49  75 102 129 163 205 255 304
#     4   9  17  30  49  74 102 128 158 202 256 307
#     4  10  19  29  46  72 101 131 165 205 252 300
#     4   8  14  25  40  59  87 123 158 192 236 291
#
# _framework density 16.924982
#
# number of rings (size 3 to 8) (size 9 to 14) (size 15 to 20)
#    0.000    2.429    1.429    2.143    0.000    2.571 
#    0.000    1.429    0.000    1.286    0.000    0.000 
#    0.000    2.286    0.000   26.571    0.000    0.714 
#
# Total GULP energy -694023.929715 kJ/mol
# GULP energy per Si atom -12393.284459 kJ/mol
# Density = 1.688646 g / cm^3
# Si number density = 16.924982 Si / 1000 Ang^3
#
#
#
# Elastic Constant Matrix: (Units=GPa)
#
#
# Indices 1 2 3 4 5 6 
#
# 1 100.9335 38.3326 28.2626 0.0000 0.0000 0.0000
# 2 38.3326 103.4316 21.7230 0.0000 0.0000 0.0000
# 3 28.2626 21.7230 57.2215 0.0000 0.0000 0.0000
# 4 0.0000 0.0000 0.0000 17.4281 0.0000 0.0000
# 5 0.0000 0.0000 0.0000 0.0000 6.4160 0.0000
# 6 0.0000 0.0000 0.0000 0.0000 0.0000 26.8573
#
#
#
# Elastic Compliance Matrix: (Units=1/GPa)
#
#
# Indices 1 2 3 4 5 6 
#
# 1 0.012663 -0.003672 -0.004860 0.000000 0.000000 0.000000
# 2 -0.003672 0.011571 -0.002579 0.000000 0.000000 0.000000
# 3 -0.004860 -0.002579 0.020856 0.000000 0.000000 0.000000
# 4 0.000000 0.000000 0.000000 0.057379 0.000000 0.000000
# 5 0.000000 0.000000 0.000000 0.000000 0.155861 0.000000
# 6 0.000000 0.000000 0.000000 0.000000 0.000000 0.037234
#
#
# Mechanical properties :
#
#
# Convention : Reuss Voigt Hill
#
# Bulk Modulus (GPa) = 43.73210 48.69145 46.21177
# Shear Modulus (GPa) = 15.36531 21.69150 18.52840
#
# Velocity S-wave (km/s) = 3.01632 3.58386 3.31227
# Velocity P-wave (km/s) = 6.16651 6.77915 6.48007
#
# Compressibility (1/GPa) = 0.02286650
#
# Stress axis : x y z
#
# Youngs Moduli (GPa) = 78.96923 86.42435 47.94871
#
# Poissons Ratio (x) = 0.31737 0.23305
# Poissons Ratio (y) = 0.29000 0.12365
# Poissons Ratio (z) = 0.38383 0.22287
#
# Static dielectric constant tensor:
#      x y z
#    x 3.361400 0.000000 0.000000 
#    y 0.000000 3.278410 0.000000 
#    z 0.000000 0.000000 2.770330 
# 
# 
# High freq. dielectric constant tensor:
#      x y z
#    x 1.665100 0.000000 0.000000 
#    y 0.000000 1.647260 0.000000 
#    z 0.000000 0.000000 1.615190 
# 
# From -- ./inp_files/26234.got.cif
#   From: 2010.06.25/outbox.cif.g09.slc.cpg/sg71_14_cif.got.tgz:26234.got - 2010.06.28 04:59:45.
