data_PCOD8288111
_publ_section_title
;
Structure prediction by ZEFSAII (Michael W. Deem and Ramdas Pophale) SiO2 
 PCOD8288111
Probable space group: I M M M
;
_chemical_formula_sum "Si O2"
_cell_formula_units_Z 80
_cell_length_a 18.378709
_cell_length_b 8.997647
_cell_length_c 28.132828
_cell_angle_alpha 90.000000
_cell_angle_beta 90.000000
_cell_angle_gamma 90.000000
_cell_volume 4652.188925
_symmetry_space_group_name_H-M "I M M M"
_symmetry_group_IT_number 71
_symmetry_cell_setting 'orthorhombic'
loop_
_space_group_symop_operation_xyz
x,y,z
-x,-y,z
x,-y,-z
-x,y,-z
-x,-y,-z
x,y,-z
-x,y,z
x,-y,z
1/2+x,1/2+y,1/2+z
1/2-x,1/2-y,1/2+z
1/2+x,1/2-y,1/2-z
1/2-x,1/2+y,1/2-z
1/2-x,1/2-y,1/2-z
1/2+x,1/2+y,1/2-z
1/2-x,1/2+y,1/2+z
1/2+x,1/2-y,1/2+z
loop_
_atom_site_type_symbol
_atom_site_label
_atom_site_fract_x
_atom_site_fract_y
_atom_site_fract_z
Si Si1 0.353820 0.672617 0.804632
Si Si2 0.292888 0.176297 0.647181
Si Si3 0.421135 0.673977 0.904225
Si Si4 0.274545 0.322356 0.052284
Si Si5 0.918272 0.676499 0.213158
O O1 0.354083 0.500000 0.790145
O O2 0.272782 0.728109 0.818475
O O3 0.406700 0.703556 0.848789
O O4 0.382634 0.768363 0.761357
O O5 0.281003 0.236763 0.593111
O O6 0.369422 0.233381 0.668563
O O7 0.290498 0.000000 0.645043
O O8 0.500000 0.745043 0.917595
O O9 0.424207 0.500000 0.913855
O O10 0.355692 0.740225 0.936199
O O11 0.276298 0.500000 0.053456
O O12 0.250399 0.264800 0.000000
O O13 0.919076 0.500000 0.214752
O O14 0.000000 0.739626 0.206729
#
# Coordination Sequence:
#
# PCOD8288111 Si02
#       5
#    16  16  16  16  16
#     4   9  16  27  43  59  78 107 137 161 188 227
#     4   8  15  27  40  55  77 104 132 162 197 234
#     4   8  13  20  31  51  78 102 123 152 191 229
#     4   8  13  21  34  51  71  99 131 158 189 232
#     4  10  19  28  39  57  82 109 133 160 196 234
#
# _framework density 17.196206
#
# number of rings (size 3 to 8) (size 9 to 14) (size 15 to 20)
#    0.000    3.400    0.000    3.600    0.000    1.600 
#    0.000    2.000    0.000    0.600    0.000    4.200 
#    0.000   20.000    0.000   45.800    0.000   38.800 
#
# Total GULP energy -495533.716850 kJ/mol
# GULP energy per Si atom -12388.342921 kJ/mol
# Density = 1.715707 g / cm^3
# Si number density = 17.196206 Si / 1000 Ang^3
#
#
#
# Elastic Constant Matrix: (Units=GPa)
#
#
# Indices 1 2 3 4 5 6 
#
# 1 120.2968 7.6964 76.2449 0.0000 0.0000 0.0000
# 2 7.6964 3.1382 7.1140 0.0000 0.0000 0.0000
# 3 76.2449 7.1140 128.9834 0.0000 0.0000 0.0000
# 4 0.0000 0.0000 0.0000 14.6299 0.0000 0.0000
# 5 0.0000 0.0000 0.0000 0.0000 0.9837 0.0000
# 6 0.0000 0.0000 0.0000 0.0000 0.0000 10.6009
#
#
#
# Elastic Compliance Matrix: (Units=1/GPa)
#
#
# Indices 1 2 3 4 5 6 
#
# 1 0.014127 -0.017961 -0.007360 0.000000 0.000000 0.000000
# 2 -0.017961 0.387025 -0.010729 0.000000 0.000000 0.000000
# 3 -0.007360 -0.010729 0.012695 0.000000 0.000000 0.000000
# 4 0.000000 0.000000 0.000000 0.068353 0.000000 0.000000
# 5 0.000000 0.000000 0.000000 0.000000 1.016590 0.000000
# 6 0.000000 0.000000 0.000000 0.000000 0.000000 0.094332
#
#
# Mechanical properties :
#
#
# Convention : Reuss Voigt Hill
#
# Bulk Modulus (GPa) = 2.92614 48.28096 25.60355
# Shear Modulus (GPa) = 2.81035 16.00043 9.40539
#
# Velocity S-wave (km/s) = 1.27978 3.05366 2.34122
# Velocity P-wave (km/s) = 1.97208 6.36950 4.71485
#
# Compressibility (1/GPa) = 0.34174684
#
# Stress axis : x y z
#
# Youngs Moduli (GPa) = 70.78805 2.58382 78.76927
#
# Poissons Ratio (x) = 0.04641 0.57974
# Poissons Ratio (y) = 1.27143 0.84510
# Poissons Ratio (z) = 0.52100 0.02772
#
# Static dielectric constant tensor:
#      x y z
#    x 3.769240 0.000000 0.000000 
#    y 0.000000 2.582130 0.000000 
#    z 0.000000 0.000000 3.437430 
# 
# 
# High freq. dielectric constant tensor:
#      x y z
#    x 1.661680 0.000000 0.000000 
#    y 0.000000 1.594150 0.000000 
#    z 0.000000 0.000000 1.662210 
# 
# From -- ./inp_files/8355.got.cif
#   From: 2010.06.25/outbox.cif.g09.slc.cpg/sg71_5_cif.got.tgz:8355.got - 2010.06.28 04:59:45.
