data_PCOD8288355
_publ_section_title
;
Structure prediction by ZEFSAII (Michael W. Deem and Ramdas Pophale) SiO2 
 PCOD8288355
Probable space group: I M M M
;
_chemical_formula_sum "Si O2"
_cell_formula_units_Z 104
_cell_length_a 23.611217
_cell_length_b 18.643607
_cell_length_c 13.970308
_cell_angle_alpha 90.000000
_cell_angle_beta 90.000000
_cell_angle_gamma 90.000000
_cell_volume 6149.705141
_symmetry_space_group_name_H-M "I M M M"
_symmetry_group_IT_number 71
_symmetry_cell_setting 'orthorhombic'
loop_
_space_group_symop_operation_xyz
x,y,z
-x,-y,z
x,-y,-z
-x,y,-z
-x,-y,-z
x,y,-z
-x,y,z
x,-y,z
1/2+x,1/2+y,1/2+z
1/2-x,1/2-y,1/2+z
1/2+x,1/2-y,1/2-z
1/2-x,1/2+y,1/2-z
1/2-x,1/2-y,1/2-z
1/2+x,1/2+y,1/2-z
1/2-x,1/2+y,1/2+z
1/2+x,1/2-y,1/2+z
loop_
_atom_site_type_symbol
_atom_site_label
_atom_site_fract_x
_atom_site_fract_y
_atom_site_fract_z
Si Si1 0.879431 0.415052 0.606855
Si Si2 0.280632 0.840020 0.799612
Si Si3 0.174368 0.084031 0.889321
Si Si4 0.562065 0.584207 0.710390
Si Si5 0.770545 0.808056 0.390607
Si Si6 0.500000 0.921712 0.113381
Si Si7 0.127962 0.918006 0.393645
O O1 0.863235 0.387585 0.500000
O O2 0.885605 0.500000 0.604737
O O3 0.831148 0.394951 0.681739
O O4 0.940693 0.381934 0.640823
O O5 0.220242 0.872140 0.829816
O O6 0.279607 0.825130 0.685284
O O7 0.295331 0.769208 0.860842
O O8 0.111562 0.112108 0.860415
O O9 0.180987 0.000000 0.865198
O O10 0.184500 0.099714 0.000000
O O11 0.500000 0.619006 0.687988
O O12 0.556420 0.500000 0.696278
O O13 0.578868 0.603295 0.819474
O O14 0.747344 0.806504 0.500000
O O15 0.818273 0.867821 0.379157
O O16 0.500000 0.000000 0.162818
O O17 0.500000 0.931330 0.000000
O O18 0.102530 0.908798 0.500000
O O19 0.148147 0.000000 0.375547
#
# Coordination Sequence:
#
# PCOD8288355 Si02
#       7
#    16  16  16  16  16   8  16
#     4   9  16  27  47  74 101 127 154 185 224 274
#     4  11  20  31  50  71  94 124 155 190 230 277
#     4  10  19  30  46  70  98 125 157 196 234 272
#     4   9  17  29  45  66  92 122 158 197 235 275
#     4  10  21  34  48  68  95 124 152 189 237 282
#     4   7  12  24  42  68 101 129 150 178 221 272
#     4   9  17  31  50  68  90 121 156 195 235 277
#
# _framework density 16.911380000000001
#
# number of rings (size 3 to 8) (size 9 to 14) (size 15 to 20)
#    0.000    2.538    1.538    2.769    0.000    2.462 
#    0.000    3.077    1.692    0.000    0.000    0.538 
#    0.000    1.846    0.000    0.000    0.000    0.000 
#
# Total GULP energy -644291.510141 kJ/mol
# GULP energy per Si atom -12390.221349 kJ/mol
# Density = 1.687289 g / cm^3
# Si number density = 16.911380 Si / 1000 Ang^3
#
#
#
# Elastic Constant Matrix: (Units=GPa)
#
#
# Indices 1 2 3 4 5 6 
#
# 1 109.3198 21.7286 39.8590 0.0000 0.0000 0.0000
# 2 21.7286 40.9689 19.8454 0.0000 0.0000 0.0000
# 3 39.8590 19.8454 89.9416 0.0000 0.0000 0.0000
# 4 0.0000 0.0000 0.0000 20.0018 0.0000 0.0000
# 5 0.0000 0.0000 0.0000 0.0000 17.1429 0.0000
# 6 0.0000 0.0000 0.0000 0.0000 0.0000 0.0487
#
#
#
# Elastic Compliance Matrix: (Units=1/GPa)
#
#
# Indices 1 2 3 4 5 6 
#
# 1 0.011483 -0.004059 -0.004193 0.000000 0.000000 0.000000
# 2 -0.004059 0.028765 -0.004548 0.000000 0.000000 0.000000
# 3 -0.004193 -0.004548 0.013980 0.000000 0.000000 0.000000
# 4 0.000000 0.000000 0.000000 0.049995 0.000000 0.000000
# 5 0.000000 0.000000 0.000000 0.000000 0.058333 0.000000
# 6 0.000000 0.000000 0.000000 0.000000 0.000000 20.547402
#
#
# Mechanical properties :
#
#
# Convention : Reuss Voigt Hill
#
# Bulk Modulus (GPa) = 34.93184 44.78846 39.86015
# Shear Modulus (GPa) = 0.24102 18.02517 9.13309
#
# Velocity S-wave (km/s) = 0.37793 3.26829 2.32643
# Velocity P-wave (km/s) = 4.57068 6.38624 5.55316
#
# Compressibility (1/GPa) = 0.02862718
#
# Stress axis : x y z
#
# Youngs Moduli (GPa) = 87.08383 34.76498 71.52989
#
# Poissons Ratio (x) = 0.14111 0.29995
# Poissons Ratio (y) = 0.35348 0.32532
# Poissons Ratio (z) = 0.36517 0.15811
#
# Static dielectric constant tensor:
#      x y z
#    x 3.382070 0.000000 0.000000 
#    y 0.000000 2.984810 0.000000 
#    z 0.000000 0.000000 3.250890 
# 
# 
# High freq. dielectric constant tensor:
#      x y z
#    x 1.646110 0.000000 0.000000 
#    y 0.000000 1.624610 0.000000 
#    z 0.000000 0.000000 1.645090 
# 
# From -- ./inp_files/38337.got.cif
#   From: 2010.06.25/outbox.cif.g09.slc.cpg/sg71_20_cif.got.tgz:38337.got - 2010.06.28 04:59:45.
