data_PCOD8288433
_publ_section_title
;
Structure prediction by ZEFSAII (Michael W. Deem and Ramdas Pophale) SiO2 
 PCOD8288433
Probable space group: I M M M
;
_chemical_formula_sum "Si O2"
_cell_formula_units_Z 96
_cell_length_a 7.489258
_cell_length_b 23.032150
_cell_length_c 28.495107
_cell_angle_alpha 90.000000
_cell_angle_beta 90.000000
_cell_angle_gamma 90.000000
_cell_volume 4915.226827
_symmetry_space_group_name_H-M "I M M M"
_symmetry_group_IT_number 71
_symmetry_cell_setting 'orthorhombic'
loop_
_space_group_symop_operation_xyz
x,y,z
-x,-y,z
x,-y,-z
-x,y,-z
-x,-y,-z
x,y,-z
-x,y,z
x,-y,z
1/2+x,1/2+y,1/2+z
1/2-x,1/2-y,1/2+z
1/2+x,1/2-y,1/2-z
1/2-x,1/2+y,1/2-z
1/2-x,1/2-y,1/2-z
1/2+x,1/2+y,1/2-z
1/2-x,1/2+y,1/2+z
1/2+x,1/2-y,1/2+z
loop_
_atom_site_type_symbol
_atom_site_label
_atom_site_fract_x
_atom_site_fract_y
_atom_site_fract_z
Si Si1 0.500000 0.672652 0.945349
Si Si2 0.000000 0.063616 0.623953
Si Si3 0.210684 0.935067 0.795384
Si Si4 0.791899 0.270967 0.198890
Si Si5 0.290508 0.333669 0.360006
Si Si6 0.706664 0.266681 0.446966
Si Si7 0.796178 0.399115 0.191856
O O1 0.500000 0.614029 0.914984
O O2 0.324211 0.710652 0.933397
O O3 0.500000 0.654651 0.000000
O O4 0.825185 0.064037 0.656940
O O5 0.000000 0.000000 0.599146
O O6 0.289322 0.891835 0.835961
O O7 0.295772 0.921874 0.745138
O O8 0.000000 0.928188 0.790153
O O9 0.263821 0.000000 0.811074
O O10 0.750000 0.250000 0.250000
O O11 0.706848 0.223710 0.164063
O O12 0.710605 0.334460 0.190388
O O13 0.000000 0.276309 0.190294
O O14 0.500000 0.336079 0.350862
O O15 0.246703 0.323714 0.415175
O O16 0.746789 0.286304 0.500000
O O17 0.500000 0.248425 0.439583
O O18 0.000000 0.401999 0.173838
#
# Coordination Sequence:
#
# PCOD8288433 Si02
#       7
#     8   8  16  16  16  16  16
#     4  10  22  41  64  90 113 138 178 230 282 342
#     4  12  26  41  60  82 110 155 192 228 278 324
#     4  10  19  33  52  73 107 153 193 228 268 318
#     4  10  19  30  48  74 104 135 173 223 276 321
#     4   9  17  31  50  76 108 141 179 225 273 327
#     4   9  18  36  61  86 112 141 175 223 286 342
#     4  11  23  38  55  79 111 150 193 234 274 328
#
# _framework density 19.531141999999999
#
# number of rings (size 3 to 8) (size 9 to 14) (size 15 to 20)
#    0.000    2.000    2.500    1.500    1.167    3.500 
#    3.000    0.000    0.000    0.500    0.000    7.000 
#    0.000    2.000    0.000    0.167    0.000    0.000 
#
# Total GULP energy -594862.793867 kJ/mol
# GULP energy per Si atom -12392.974872 kJ/mol
# Density = 1.948669 g / cm^3
# Si number density = 19.531142 Si / 1000 Ang^3
#
#
#
# Elastic Constant Matrix: (Units=GPa)
#
#
# Indices 1 2 3 4 5 6 
#
# 1 71.3779 28.1375 24.4753 0.0000 0.0000 0.0000
# 2 28.1375 141.3534 62.3491 0.0000 0.0000 0.0000
# 3 24.4753 62.3491 116.8206 0.0000 0.0000 0.0000
# 4 0.0000 0.0000 0.0000 24.0410 0.0000 0.0000
# 5 0.0000 0.0000 0.0000 0.0000 11.8883 0.0000
# 6 0.0000 0.0000 0.0000 0.0000 0.0000 15.1263
#
#
#
# Elastic Compliance Matrix: (Units=1/GPa)
#
#
# Indices 1 2 3 4 5 6 
#
# 1 0.015589 -0.002174 -0.002106 0.000000 0.000000 0.000000
# 2 -0.002174 0.009556 -0.004645 0.000000 0.000000 0.000000
# 3 -0.002106 -0.004645 0.011480 0.000000 0.000000 0.000000
# 4 0.000000 0.000000 0.000000 0.041596 0.000000 0.000000
# 5 0.000000 0.000000 0.000000 0.000000 0.084116 0.000000
# 6 0.000000 0.000000 0.000000 0.000000 0.000000 0.066110
#
#
# Mechanical properties :
#
#
# Convention : Reuss Voigt Hill
#
# Bulk Modulus (GPa) = 53.25932 62.16396 57.71164
# Shear Modulus (GPa) = 19.79765 24.51712 22.15739
#
# Velocity S-wave (km/s) = 3.18723 3.54684 3.37184
# Velocity P-wave (km/s) = 6.39318 6.97644 6.69117
#
# Compressibility (1/GPa) = 0.01877606
#
# Stress axis : x y z
#
# Youngs Moduli (GPa) = 64.14743 104.64653 87.10653
#
# Poissons Ratio (x) = 0.22754 0.18341
# Poissons Ratio (y) = 0.13948 0.40458
# Poissons Ratio (z) = 0.13507 0.48604
#
# Static dielectric constant tensor:
#      x y z
#    x 3.322830 0.000000 0.000000 
#    y 0.000000 3.763550 0.000000 
#    z 0.000000 0.000000 1.380450 
# 
# 
# High freq. dielectric constant tensor:
#      x y z
#    x 1.758880 0.000000 0.000000 
#    y 0.000000 1.752620 0.000000 
#    z 0.000000 0.000000 1.747030 
# 
# From -- ./inp_files/63492.got.cif
#   From: 2010.06.25/outbox.cif.g09.slc.cpg/sg71_32_cif.got.tgz:63492.got - 2010.06.28 04:59:45.
