data_PCOD8288920
_publ_section_title
;
Structure prediction by ZEFSAII (Michael W. Deem and Ramdas Pophale) SiO2 
 PCOD8288920
Probable space group: I M M M
;
_chemical_formula_sum "Si O2"
_cell_formula_units_Z 112
_cell_length_a 32.050163
_cell_length_b 14.414461
_cell_length_c 13.246554
_cell_angle_alpha 90.000000
_cell_angle_beta 90.000000
_cell_angle_gamma 90.000000
_cell_volume 6119.720173
_symmetry_space_group_name_H-M "I M M M"
_symmetry_group_IT_number 71
_symmetry_cell_setting 'orthorhombic'
loop_
_space_group_symop_operation_xyz
x,y,z
-x,-y,z
x,-y,-z
-x,y,-z
-x,-y,-z
x,y,-z
-x,y,z
x,-y,z
1/2+x,1/2+y,1/2+z
1/2-x,1/2-y,1/2+z
1/2+x,1/2-y,1/2-z
1/2-x,1/2+y,1/2-z
1/2-x,1/2-y,1/2-z
1/2+x,1/2+y,1/2-z
1/2-x,1/2+y,1/2+z
1/2+x,1/2-y,1/2+z
loop_
_atom_site_type_symbol
_atom_site_label
_atom_site_fract_x
_atom_site_fract_y
_atom_site_fract_z
Si Si1 0.547444 0.252767 0.382843
Si Si2 0.192057 0.211956 0.787334
Si Si3 0.345658 0.806347 0.885314
Si Si4 0.406734 0.104692 0.266975
Si Si5 0.239497 0.604981 0.612836
Si Si6 0.175357 0.398019 0.116452
Si Si7 0.383226 0.603607 0.618618
O O1 0.556323 0.227541 0.500000
O O2 0.500000 0.285917 0.368446
O O3 0.554686 0.163424 0.311042
O O4 0.577271 0.336007 0.344384
O O5 0.174131 0.216069 0.672436
O O6 0.237370 0.165973 0.801518
O O7 0.198386 0.318711 0.821187
O O8 0.159409 0.155279 0.854251
O O9 0.387224 0.845609 0.832098
O O10 0.310480 0.886327 0.879810
O O11 0.356508 0.777760 0.000000
O O12 0.373386 0.103665 0.357093
O O13 0.421284 0.000000 0.239362
O O14 0.253707 0.636458 0.500000
O O15 0.252506 0.500000 0.632213
O O16 0.194184 0.500000 0.143553
O O17 0.180709 0.375635 0.000000
O O18 0.384954 0.593415 0.500000
O O19 0.384888 0.500000 0.667292
#
# Coordination Sequence:
#
# PCOD8288920 Si02
#       7
#    16  16  16  16  16  16  16
#     4  10  20  34  53  82 118 146 169 207 263 327
#     4  11  19  32  52  77 105 139 179 222 265 314
#     4  10  21  36  53  74 104 142 186 233 270 305
#     4  10  19  32  52  75 101 140 181 215 257 313
#     4  10  20  33  52  80 110 138 174 222 274 324
#     4   9  16  26  44  70 100 133 169 208 252 309
#     4  10  19  32  53  81 111 142 175 211 258 318
#
# _framework density 18.301490000000001
#
# number of rings (size 3 to 8) (size 9 to 14) (size 15 to 20)
#    0.000    2.000    2.857    3.000    0.000    4.000 
#    0.000    2.143    0.000    2.143    0.000    3.000 
#    0.000    1.143    0.000    0.000    0.000    0.000 
#
# Total GULP energy -694121.849222 kJ/mol
# GULP energy per Si atom -12395.033022 kJ/mol
# Density = 1.825984 g / cm^3
# Si number density = 18.301490 Si / 1000 Ang^3
#
#
#
# Elastic Constant Matrix: (Units=GPa)
#
#
# Indices 1 2 3 4 5 6 
#
# 1 54.3707 16.4332 11.8025 0.0000 0.0000 0.0000
# 2 16.4332 88.0636 27.3300 0.0000 0.0000 0.0000
# 3 11.8025 27.3300 69.6830 0.0000 0.0000 0.0000
# 4 0.0000 0.0000 0.0000 15.1347 0.0000 0.0000
# 5 0.0000 0.0000 0.0000 0.0000 23.2000 0.0000
# 6 0.0000 0.0000 0.0000 0.0000 0.0000 16.9212
#
#
#
# Elastic Compliance Matrix: (Units=1/GPa)
#
#
# Indices 1 2 3 4 5 6 
#
# 1 0.019775 -0.003018 -0.002166 0.000000 0.000000 0.000000
# 2 -0.003018 0.013390 -0.004740 0.000000 0.000000 0.000000
# 3 -0.002166 -0.004740 0.016577 0.000000 0.000000 0.000000
# 4 0.000000 0.000000 0.000000 0.066073 0.000000 0.000000
# 5 0.000000 0.000000 0.000000 0.000000 0.043103 0.000000
# 6 0.000000 0.000000 0.000000 0.000000 0.000000 0.059097
#
#
# Mechanical properties :
#
#
# Convention : Reuss Voigt Hill
#
# Bulk Modulus (GPa) = 33.45257 35.91652 34.68454
# Shear Modulus (GPa) = 20.17536 21.48798 20.83167
#
# Velocity S-wave (km/s) = 3.32383 3.43025 3.37746
# Velocity P-wave (km/s) = 5.74880 5.94612 5.84829
#
# Compressibility (1/GPa) = 0.02989307
#
# Stress axis : x y z
#
# Youngs Moduli (GPa) = 50.57013 74.68402 60.32562
#
# Poissons Ratio (x) = 0.22539 0.13064
# Poissons Ratio (y) = 0.15262 0.28597
# Poissons Ratio (z) = 0.10952 0.35403
#
# Static dielectric constant tensor:
#      x y z
#    x 3.098320 0.000000 0.000000 
#    y 0.000000 3.717670 0.000000 
#    z 0.000000 0.000000 3.398930 
# 
# 
# High freq. dielectric constant tensor:
#      x y z
#    x 1.683920 0.000000 0.000000 
#    y 0.000000 1.708900 0.000000 
#    z 0.000000 0.000000 1.694150 
# 
# From -- ./inp_files/40350.got.cif
#   From: 2010.06.25/outbox.cif.g09.slc.cpg/sg71_21_cif.got.tgz:40350.got - 2010.06.28 04:59:45.
