data_PCOD8288535
_publ_section_title
;
Structure prediction by ZEFSAII (Michael W. Deem and Ramdas Pophale) SiO2 
 PCOD8288535
Probable space group: I M M M
;
_chemical_formula_sum "Si O2"
_cell_formula_units_Z 96
_cell_length_a 27.863602
_cell_length_b 13.920831
_cell_length_c 14.164717
_cell_angle_alpha 90.000000
_cell_angle_beta 90.000000
_cell_angle_gamma 90.000000
_cell_volume 5494.274093
_symmetry_space_group_name_H-M "I M M M"
_symmetry_group_IT_number 71
_symmetry_cell_setting 'orthorhombic'
loop_
_space_group_symop_operation_xyz
x,y,z
-x,-y,z
x,-y,-z
-x,y,-z
-x,-y,-z
x,y,-z
-x,y,z
x,-y,z
1/2+x,1/2+y,1/2+z
1/2-x,1/2-y,1/2+z
1/2+x,1/2-y,1/2-z
1/2-x,1/2+y,1/2-z
1/2-x,1/2-y,1/2-z
1/2+x,1/2+y,1/2-z
1/2-x,1/2+y,1/2+z
1/2+x,1/2-y,1/2+z
loop_
_atom_site_type_symbol
_atom_site_label
_atom_site_fract_x
_atom_site_fract_y
_atom_site_fract_z
Si Si1 0.946100 0.386005 0.897496
Si Si2 0.897055 0.609463 0.713646
Si Si3 0.761877 0.212079 0.611725
Si Si4 0.553436 0.728509 0.888799
Si Si5 0.785170 0.610110 0.723935
Si Si6 0.640780 0.393447 0.111698
O O1 0.944270 0.500000 0.901401
O O2 0.910660 0.347335 0.816597
O O3 0.000000 0.351209 0.874388
O O4 0.929861 0.345122 0.000000
O O5 0.914309 0.500000 0.704678
O O6 0.926313 0.666211 0.634288
O O7 0.840764 0.618526 0.698921
O O8 0.751046 0.206032 0.500000
O O9 0.757348 0.321924 0.648797
O O10 0.724103 0.145605 0.668482
O O11 0.814624 0.173531 0.639595
O O12 0.500000 0.712091 0.845834
O O13 0.591201 0.650661 0.847233
O O14 0.550652 0.718942 0.000000
O O15 0.767588 0.500000 0.712703
O O16 0.647818 0.500000 0.154716
O O17 0.637428 0.399619 0.000000
#
# Coordination Sequence:
#
# PCOD8288535 Si02
#       6
#    16  16  16  16  16  16
#     4   8  14  25  41  61  87 123 164 200 236 280
#     4  10  19  31  47  69 100 134 164 200 248 300
#     4  10  20  36  55  76 105 138 172 211 259 313
#     4  10  20  32  46  69 101 134 171 210 245 292
#     4  10  21  34  52  79 105 133 172 214 257 310
#     4   9  17  31  51  71  93 127 167 207 254 300
#
# _framework density 17.472736000000001
#
# number of rings (size 3 to 8) (size 9 to 14) (size 15 to 20)
#    0.000    2.500    1.667    1.500    0.000    3.667 
#    0.000    5.833    0.000    0.000    0.000    0.000 
#    0.000    0.667    0.000    3.500    0.000    0.333 
#
# Total GULP energy -594910.045965 kJ/mol
# GULP energy per Si atom -12393.959291 kJ/mol
# Density = 1.743297 g / cm^3
# Si number density = 17.472736 Si / 1000 Ang^3
#
#
#
# Elastic Constant Matrix: (Units=GPa)
#
#
# Indices 1 2 3 4 5 6 
#
# 1 48.3481 20.1374 4.2408 0.0000 0.0000 0.0000
# 2 20.1374 102.1513 21.4415 0.0000 0.0000 0.0000
# 3 4.2408 21.4415 38.0092 0.0000 0.0000 0.0000
# 4 0.0000 0.0000 0.0000 16.8336 0.0000 0.0000
# 5 0.0000 0.0000 0.0000 0.0000 25.4898 0.0000
# 6 0.0000 0.0000 0.0000 0.0000 0.0000 12.3071
#
#
#
# Elastic Compliance Matrix: (Units=1/GPa)
#
#
# Indices 1 2 3 4 5 6 
#
# 1 0.022534 -0.004440 -0.000009 0.000000 0.000000 0.000000
# 2 -0.004440 0.011979 -0.006262 0.000000 0.000000 0.000000
# 3 -0.000009 -0.006262 0.029843 0.000000 0.000000 0.000000
# 4 0.000000 0.000000 0.000000 0.059405 0.000000 0.000000
# 5 0.000000 0.000000 0.000000 0.000000 0.039231 0.000000
# 6 0.000000 0.000000 0.000000 0.000000 0.000000 0.081254
#
#
# Mechanical properties :
#
#
# Convention : Reuss Voigt Hill
#
# Bulk Modulus (GPa) = 23.29251 31.12755 27.21003
# Shear Modulus (GPa) = 17.85839 20.43868 19.14854
#
# Velocity S-wave (km/s) = 3.20045 3.42387 3.31404
# Velocity P-wave (km/s) = 5.19778 5.78654 5.50005
#
# Compressibility (1/GPa) = 0.04293225
#
# Stress axis : x y z
#
# Youngs Moduli (GPa) = 44.37831 83.47859 33.50869
#
# Poissons Ratio (x) = 0.37066 0.00032
# Poissons Ratio (y) = 0.19705 0.20984
# Poissons Ratio (z) = 0.00042 0.52276
#
# Static dielectric constant tensor:
#      x y z
#    x 3.376200 0.000000 0.000000 
#    y 0.000000 3.263700 0.000000 
#    z 0.000000 0.000000 3.270050 
# 
# 
# High freq. dielectric constant tensor:
#      x y z
#    x 1.674010 0.000000 0.000000 
#    y 0.000000 1.658700 0.000000 
#    z 0.000000 0.000000 1.654400 
# 
# From -- ./inp_files/35278.got.cif
#   From: 2010.06.25/outbox.cif.g09.slc.cpg/sg71_18_cif.got.tgz:35278.got - 2010.06.28 04:59:45.
