data_PCOD8288359
_publ_section_title
;
Structure prediction by ZEFSAII (Michael W. Deem and Ramdas Pophale) SiO2 
 PCOD8288359
Probable space group: I M M M
;
_chemical_formula_sum "Si O2"
_cell_formula_units_Z 120
_cell_length_a 21.375466
_cell_length_b 27.137230
_cell_length_c 11.789743
_cell_angle_alpha 90.000000
_cell_angle_beta 90.000000
_cell_angle_gamma 90.000000
_cell_volume 6838.887271
_symmetry_space_group_name_H-M "I M M M"
_symmetry_group_IT_number 71
_symmetry_cell_setting 'orthorhombic'
loop_
_space_group_symop_operation_xyz
x,y,z
-x,-y,z
x,-y,-z
-x,y,-z
-x,-y,-z
x,y,-z
-x,y,z
x,-y,z
1/2+x,1/2+y,1/2+z
1/2-x,1/2-y,1/2+z
1/2+x,1/2-y,1/2-z
1/2-x,1/2+y,1/2-z
1/2-x,1/2-y,1/2-z
1/2+x,1/2+y,1/2-z
1/2-x,1/2+y,1/2+z
1/2+x,1/2-y,1/2+z
loop_
_atom_site_type_symbol
_atom_site_label
_atom_site_fract_x
_atom_site_fract_y
_atom_site_fract_z
Si Si1 0.272582 0.307937 0.630054
Si Si2 0.071800 0.805614 0.630113
Si Si3 0.073846 0.943418 0.000000
Si Si4 0.847238 0.726753 0.250352
Si Si5 0.288651 0.557642 0.875878
Si Si6 0.130265 0.114733 0.789360
Si Si7 0.150935 0.554487 0.135103
Si Si8 0.428252 0.145421 0.633904
O O1 0.255263 0.308435 0.500000
O O2 0.206817 0.306586 0.695233
O O3 0.315519 0.260748 0.655338
O O4 0.309940 0.356794 0.662357
O O5 0.084268 0.822533 0.500000
O O6 0.117618 0.759898 0.655907
O O7 0.084217 0.849638 0.719071
O O8 0.000000 0.788916 0.645619
O O9 0.094705 0.913261 0.110584
O O10 0.000000 0.945552 0.000000
O O11 0.100319 0.000000 0.000000
O O12 0.897595 0.692533 0.190804
O O13 0.293492 0.500000 0.890423
O O14 0.344423 0.574091 0.796091
O O15 0.220298 0.570928 0.824744
O O16 0.296602 0.582785 0.000000
O O17 0.133375 0.500000 0.183153
O O18 0.101914 0.594706 0.180370
O O19 0.150523 0.552038 0.000000
O O20 0.419133 0.150022 0.500000
O O21 0.500000 0.144334 0.669886
#
# Coordination Sequence:
#
# PCOD8288359 Si02
#       8
#    16  16   8  16  16  16  16  16
#     4  10  20  34  51  75  99 130 169 214 262 314
#     4  10  21  36  54  76 103 137 177 217 258 314
#     4  11  24  40  56  76 106 144 181 219 262 314
#     4  10  20  33  52  72 103 134 167 213 266 315
#     4   9  17  30  51  78 105 132 167 214 268 315
#     4  11  20  35  55  77 104 136 174 218 261 317
#     4   8  15  28  45  69 102 136 170 210 258 311
#     4  10  19  30  46  71 103 139 177 214 256 312
#
# _framework density 17.546714000000001
#
# number of rings (size 3 to 8) (size 9 to 14) (size 15 to 20)
#    0.000    2.200    0.667    4.000    0.000    0.267 
#    0.000    5.333    0.000    0.000    0.000    5.600 
#    0.000    0.000    0.000    8.133    0.000    0.800 
#
# Total GULP energy -743854.225846 kJ/mol
# GULP energy per Si atom -12397.570431 kJ/mol
# Density = 1.750678 g / cm^3
# Si number density = 17.546714 Si / 1000 Ang^3
#
#
#
# Elastic Constant Matrix: (Units=GPa)
#
#
# Indices 1 2 3 4 5 6 
#
# 1 99.2051 44.1050 34.5517 0.0000 0.0000 0.0000
# 2 44.1050 71.8955 34.5255 0.0000 0.0000 0.0000
# 3 34.5517 34.5255 67.7828 0.0000 0.0000 0.0000
# 4 0.0000 0.0000 0.0000 23.5672 0.0000 0.0000
# 5 0.0000 0.0000 0.0000 0.0000 25.9406 0.0000
# 6 0.0000 0.0000 0.0000 0.0000 0.0000 30.8956
#
#
#
# Elastic Compliance Matrix: (Units=1/GPa)
#
#
# Indices 1 2 3 4 5 6 
#
# 1 0.014565 -0.007109 -0.003804 0.000000 0.000000 0.000000
# 2 -0.007109 0.021882 -0.007522 0.000000 0.000000 0.000000
# 3 -0.003804 -0.007522 0.020523 0.000000 0.000000 0.000000
# 4 0.000000 0.000000 0.000000 0.042432 0.000000 0.000000
# 5 0.000000 0.000000 0.000000 0.000000 0.038550 0.000000
# 6 0.000000 0.000000 0.000000 0.000000 0.000000 0.032367
#
#
# Mechanical properties :
#
#
# Convention : Reuss Voigt Hill
#
# Bulk Modulus (GPa) = 49.74689 51.69417 50.72053
# Shear Modulus (GPa) = 23.37659 24.46077 23.91868
#
# Velocity S-wave (km/s) = 3.65396 3.73773 3.69608
# Velocity P-wave (km/s) = 6.79813 6.93919 6.86902
#
# Compressibility (1/GPa) = 0.02010176
#
# Stress axis : x y z
#
# Youngs Moduli (GPa) = 68.65648 45.69919 48.72480
#
# Poissons Ratio (x) = 0.32486 0.18534
# Poissons Ratio (y) = 0.48805 0.36652
# Poissons Ratio (z) = 0.26115 0.34376
#
# Static dielectric constant tensor:
#      x y z
#    x 3.421480 0.000000 0.000000 
#    y 0.000000 3.366180 0.000000 
#    z 0.000000 0.000000 2.754660 
# 
# 
# High freq. dielectric constant tensor:
#      x y z
#    x 1.685140 0.000000 0.000000 
#    y 0.000000 1.681150 0.000000 
#    z 0.000000 0.000000 1.659910 
# 
# From -- ./inp_files/26298.got.cif
#   From: 2010.06.25/outbox.cif.g09.slc.cpg/sg71_14_cif.got.tgz:26298.got - 2010.06.28 04:59:45.
