data_PCOD8288025
_publ_section_title
;
Structure prediction by ZEFSAII (Michael W. Deem and Ramdas Pophale) SiO2 
 PCOD8288025
Probable space group: I M M M
;
_chemical_formula_sum "Si O2"
_cell_formula_units_Z 104
_cell_length_a 27.251725
_cell_length_b 21.979446
_cell_length_c 8.686267
_cell_angle_alpha 90.000000
_cell_angle_beta 90.000000
_cell_angle_gamma 90.000000
_cell_volume 5202.881255
_symmetry_space_group_name_H-M "I M M M"
_symmetry_group_IT_number 71
_symmetry_cell_setting 'orthorhombic'
loop_
_space_group_symop_operation_xyz
x,y,z
-x,-y,z
x,-y,-z
-x,y,-z
-x,-y,-z
x,y,-z
-x,y,z
x,-y,z
1/2+x,1/2+y,1/2+z
1/2-x,1/2-y,1/2+z
1/2+x,1/2-y,1/2-z
1/2-x,1/2+y,1/2-z
1/2-x,1/2-y,1/2-z
1/2+x,1/2+y,1/2-z
1/2-x,1/2+y,1/2+z
1/2+x,1/2-y,1/2+z
loop_
_atom_site_type_symbol
_atom_site_label
_atom_site_fract_x
_atom_site_fract_y
_atom_site_fract_z
Si Si1 0.724142 0.309815 0.680939
Si Si2 0.057423 0.500000 0.828980
Si Si3 0.054399 0.284368 0.679699
Si Si4 0.379425 0.673175 0.179506
Si Si5 0.445853 0.432321 0.816889
Si Si6 0.114122 0.395691 0.318096
Si Si7 0.279216 0.069031 0.816748
O O1 0.732503 0.306182 0.500000
O O2 0.750000 0.250000 0.750000
O O3 0.667083 0.307230 0.721546
O O4 0.744500 0.375524 0.742949
O O5 0.073026 0.557726 0.732031
O O6 0.000000 0.500000 0.842888
O O7 0.081030 0.500000 0.000000
O O8 0.048951 0.297719 0.500000
O O9 0.075432 0.218008 0.710317
O O10 0.094470 0.331464 0.748282
O O11 0.000000 0.290119 0.755866
O O12 0.401261 0.609536 0.242027
O O13 0.364224 0.671826 0.000000
O O14 0.500000 0.412381 0.755779
O O15 0.433947 0.500000 0.758352
O O16 0.447164 0.429128 0.000000
O O17 0.119304 0.394028 0.500000
O O18 0.166971 0.414470 0.249835
O O19 0.264275 0.000000 0.758657
O O20 0.279260 0.067990 0.000000
#
# Coordination Sequence:
#
# PCOD8288025 Si02
#       7
#    16   8  16  16  16  16  16
#     4  11  23  39  59  81 108 142 181 229 281 335
#     4  11  23  35  47  71 109 141 163 197 254 315
#     4   9  17  29  50  81 109 137 179 224 261 302
#     4  10  19  33  54  79 109 143 179 225 273 319
#     4   8  14  26  48  80 115 149 183 219 264 321
#     4  10  18  33  57  77  95 127 177 224 255 296
#     4   9  18  35  59  83 105 135 178 226 275 320
#
# _framework density 19.988924000000001
#
# number of rings (size 3 to 8) (size 9 to 14) (size 15 to 20)
#    0.000    2.385    0.769    3.000    0.000    6.154 
#    0.000    3.846    0.000    2.769    0.000    1.077 
#    0.000    0.000    0.000    0.000    0.000    0.000 
#
# Total GULP energy -644335.713338 kJ/mol
# GULP energy per Si atom -12391.071410 kJ/mol
# Density = 1.994343 g / cm^3
# Si number density = 19.988924 Si / 1000 Ang^3
#
#
#
# Elastic Constant Matrix: (Units=GPa)
#
#
# Indices 1 2 3 4 5 6 
#
# 1 102.7234 54.0424 14.4053 0.0000 0.0000 0.0000
# 2 54.0424 142.5185 17.5423 0.0000 0.0000 0.0000
# 3 14.4053 17.5423 15.9912 0.0000 0.0000 0.0000
# 4 0.0000 0.0000 0.0000 -13.2405 0.0000 0.0000
# 5 0.0000 0.0000 0.0000 0.0000 21.3839 0.0000
# 6 0.0000 0.0000 0.0000 0.0000 0.0000 35.0783
#
#
#
# Elastic Compliance Matrix: (Units=1/GPa)
#
#
# Indices 1 2 3 4 5 6 
#
# 1 0.012839 -0.003983 -0.007197 0.000000 0.000000 0.000000
# 2 -0.003983 0.009347 -0.006666 0.000000 0.000000 0.000000
# 3 -0.007197 -0.006666 0.076331 0.000000 0.000000 0.000000
# 4 0.000000 0.000000 0.000000 -0.075526 0.000000 0.000000
# 5 0.000000 0.000000 0.000000 0.000000 0.046764 0.000000
# 6 0.000000 0.000000 0.000000 0.000000 0.000000 0.028508
#
#
# Mechanical properties :
#
#
# Convention : Reuss Voigt Hill
#
# Bulk Modulus (GPa) = 15.91714 48.13480 32.02597
# Shear Modulus (GPa) = 32.27932 20.32720 26.30326
#
# Velocity S-wave (km/s) = 4.02289 3.19238 3.63146
# Velocity P-wave (km/s) = 5.43677 6.14178 5.80000
#
# Compressibility (1/GPa) = 0.06282535
#
# Stress axis : x y z
#
# Youngs Moduli (GPa) = 77.88472 106.98117 13.10088
#
# Poissons Ratio (x) = 0.42609 0.09429
# Poissons Ratio (y) = 0.31020 0.08733
# Poissons Ratio (z) = 0.56054 0.71317
#
# Static dielectric constant tensor:
#      x y z
#    x 3.772180 0.000000 0.000000 
#    y 0.000000 4.060470 0.000000 
#    z 0.000000 0.000000 3.126700 
# 
# 
# High freq. dielectric constant tensor:
#      x y z
#    x 1.785370 0.000000 0.000000 
#    y 0.000000 1.799620 0.000000 
#    z 0.000000 0.000000 1.718800 
# 
# From -- ./inp_files/15049.got.cif
#   From: 2010.06.25/outbox.cif.g09.slc.cpg/sg71_8_cif.got.tgz:15049.got - 2010.06.28 04:59:45.
