data_PCOD8288483
_publ_section_title
;
Structure prediction by ZEFSAII (Michael W. Deem and Ramdas Pophale) SiO2 
 PCOD8288483
Probable space group: I M M M
;
_chemical_formula_sum "Si O2"
_cell_formula_units_Z 104
_cell_length_a 17.095630
_cell_length_b 23.268637
_cell_length_c 13.697877
_cell_angle_alpha 90.000000
_cell_angle_beta 90.000000
_cell_angle_gamma 90.000000
_cell_volume 5448.906008
_symmetry_space_group_name_H-M "I M M M"
_symmetry_group_IT_number 71
_symmetry_cell_setting 'orthorhombic'
loop_
_space_group_symop_operation_xyz
x,y,z
-x,-y,z
x,-y,-z
-x,y,-z
-x,-y,-z
x,y,-z
-x,y,z
x,-y,z
1/2+x,1/2+y,1/2+z
1/2-x,1/2-y,1/2+z
1/2+x,1/2-y,1/2-z
1/2-x,1/2+y,1/2-z
1/2-x,1/2-y,1/2-z
1/2+x,1/2+y,1/2-z
1/2-x,1/2+y,1/2+z
1/2+x,1/2-y,1/2+z
loop_
_atom_site_type_symbol
_atom_site_label
_atom_site_fract_x
_atom_site_fract_y
_atom_site_fract_z
Si Si1 0.406963 0.000000 0.110297
Si Si2 0.908690 0.280075 0.392792
Si Si3 0.663049 0.672606 0.204432
Si Si4 0.410459 0.434957 0.886368
Si Si5 0.327008 0.167719 0.611693
Si Si6 0.909650 0.213655 0.109946
Si Si7 0.407306 0.110799 0.772584
O O1 0.376426 0.944086 0.167687
O O2 0.500000 0.000000 0.105571
O O3 0.373153 0.000000 0.000000
O O4 0.868965 0.282325 0.500000
O O5 0.894347 0.218428 0.345243
O O6 0.876004 0.332230 0.327896
O O7 0.000000 0.289477 0.404252
O O8 0.644106 0.607740 0.173603
O O9 0.750522 0.687494 0.171465
O O10 0.648531 0.677304 0.320712
O O11 0.500000 0.426126 0.854378
O O12 0.383700 0.500000 0.863536
O O13 0.400795 0.421187 0.000000
O O14 0.306198 0.150904 0.500000
O O15 0.389190 0.219150 0.615749
O O16 0.366956 0.112962 0.665577
O O17 0.000000 0.206532 0.142441
O O18 0.897045 0.190718 0.000000
O O19 0.500000 0.108454 0.760120
#
# Coordination Sequence:
#
# PCOD8288483 Si02
#       7
#     8  16  16  16  16  16  16
#     4   9  18  36  61  85 111 145 189 238 284 331
#     4  10  19  30  51  84 115 142 178 229 281 330
#     4  12  21  35  55  83 110 142 184 233 288 334
#     4   9  18  33  54  80 109 143 181 221 275 341
#     4  11  23  37  54  81 117 152 187 231 286 344
#     4  10  21  37  57  81 112 151 189 226 276 340
#     4  10  20  36  56  80 111 152 195 232 277 334
#
# _framework density 19.086400000000001
#
# number of rings (size 3 to 8) (size 9 to 14) (size 15 to 20)
#    0.000    1.769    1.538    4.615    0.000    4.000 
#    1.385    1.154    0.000    1.846    0.000    2.154 
#    0.000    0.000    0.000    0.000    0.000    0.000 
#
# Total GULP energy -644800.142991 kJ/mol
# GULP energy per Si atom -12400.002750 kJ/mol
# Density = 1.904296 g / cm^3
# Si number density = 19.086400 Si / 1000 Ang^3
#
#
#
# Elastic Constant Matrix: (Units=GPa)
#
#
# Indices 1 2 3 4 5 6 
#
# 1 52.0700 18.0810 46.2359 0.0000 0.0000 0.0000
# 2 18.0810 102.0008 47.8210 0.0000 0.0000 0.0000
# 3 46.2359 47.8210 142.1445 0.0000 0.0000 0.0000
# 4 0.0000 0.0000 0.0000 28.8225 0.0000 0.0000
# 5 0.0000 0.0000 0.0000 0.0000 29.3701 0.0000
# 6 0.0000 0.0000 0.0000 0.0000 0.0000 13.8355
#
#
#
# Elastic Compliance Matrix: (Units=1/GPa)
#
#
# Indices 1 2 3 4 5 6 
#
# 1 0.027059 -0.000796 -0.008534 0.000000 0.000000 0.000000
# 2 -0.000796 0.011663 -0.003665 0.000000 0.000000 0.000000
# 3 -0.008534 -0.003665 0.011044 0.000000 0.000000 0.000000
# 4 0.000000 0.000000 0.000000 0.034695 0.000000 0.000000
# 5 0.000000 0.000000 0.000000 0.000000 0.034048 0.000000
# 6 0.000000 0.000000 0.000000 0.000000 0.000000 0.072278
#
#
# Mechanical properties :
#
#
# Convention : Reuss Voigt Hill
#
# Bulk Modulus (GPa) = 42.05737 57.83234 49.94486
# Shear Modulus (GPa) = 22.25171 26.67744 24.46457
#
# Velocity S-wave (km/s) = 3.41815 3.74266 3.58408
# Velocity P-wave (km/s) = 6.13689 7.00306 6.58423
#
# Compressibility (1/GPa) = 0.02377704
#
# Stress axis : x y z
#
# Youngs Moduli (GPa) = 36.95632 85.74025 90.54725
#
# Poissons Ratio (x) = 0.06821 0.77272
# Poissons Ratio (y) = 0.02940 0.33185
# Poissons Ratio (z) = 0.31538 0.31424
#
# Static dielectric constant tensor:
#      x y z
#    x 3.259330 0.000000 0.000000 
#    y 0.000000 3.353130 0.000000 
#    z 0.000000 0.000000 3.842840 
# 
# 
# High freq. dielectric constant tensor:
#      x y z
#    x 1.724340 0.000000 0.000000 
#    y 0.000000 1.721920 0.000000 
#    z 0.000000 0.000000 1.751130 
# 
# From -- ./inp_files/36691.got.cif
#   From: 2010.06.25/outbox.cif.g09.slc.cpg/sg71_19_cif.got.tgz:36691.got - 2010.06.28 04:59:45.
