data_PCOD8288310
_publ_section_title
;
Structure prediction by ZEFSAII (Michael W. Deem and Ramdas Pophale) SiO2 
 PCOD8288310
Probable space group: I M M M
;
_chemical_formula_sum "Si O2"
_cell_formula_units_Z 64
_cell_length_a 8.806360
_cell_length_b 26.277543
_cell_length_c 15.003162
_cell_angle_alpha 90.000000
_cell_angle_beta 90.000000
_cell_angle_gamma 90.000000
_cell_volume 3471.874270
_symmetry_space_group_name_H-M "I M M M"
_symmetry_group_IT_number 71
_symmetry_cell_setting 'orthorhombic'
loop_
_space_group_symop_operation_xyz
x,y,z
-x,-y,z
x,-y,-z
-x,y,-z
-x,-y,-z
x,y,-z
-x,y,z
x,-y,z
1/2+x,1/2+y,1/2+z
1/2-x,1/2-y,1/2+z
1/2+x,1/2-y,1/2-z
1/2-x,1/2+y,1/2-z
1/2-x,1/2-y,1/2-z
1/2+x,1/2+y,1/2-z
1/2-x,1/2+y,1/2+z
1/2+x,1/2-y,1/2+z
loop_
_atom_site_type_symbol
_atom_site_label
_atom_site_fract_x
_atom_site_fract_y
_atom_site_fract_z
Si Si1 0.320218 0.716664 0.500000
Si Si2 0.681001 0.443886 0.500000
Si Si3 0.180205 0.135178 0.858772
Si Si4 0.180717 0.000000 0.398987
Si Si5 0.680162 0.673143 0.000000
Si Si6 0.818866 0.108369 0.333973
O O1 0.500000 0.724705 0.500000
O O2 0.267520 0.686047 0.588911
O O3 0.237305 0.769822 0.500000
O O4 0.753219 0.500000 0.500000
O O5 0.500000 0.446572 0.500000
O O6 0.738276 0.414276 0.587653
O O7 0.246384 0.131491 0.758619
O O8 0.000000 0.134657 0.855989
O O9 0.239905 0.949492 0.348148
O O10 0.243520 0.000000 0.500000
O O11 0.000000 0.000000 0.401662
O O12 0.743080 0.643986 0.086885
O O13 0.500000 0.673058 0.000000
O O14 0.000000 0.108415 0.333300
#
# Coordination Sequence:
#
# PCOD8288310 Si02
#       6
#     8   8  16   8   8  16
#     4   9  18  33  47  60  86 120 150 180 216 256
#     4   8  13  20  32  54  82 113 145 171 203 258
#     4   8  15  26  39  57  84 116 144 174 215 258
#     4   9  14  22  36  57  89 121 140 164 214 273
#     4  10  19  30  45  66  89 113 148 187 216 248
#     4   9  16  25  39  62  89 115 142 175 218 263
#
# _framework density 18.433848000000001
#
# number of rings (size 3 to 8) (size 9 to 14) (size 15 to 20)
#    0.000    3.250    1.250    1.500    1.750    1.000 
#    0.000    0.000    0.000    0.000    0.000    1.750 
#    0.000    8.000    0.000    0.000    0.000    0.000 
#
# Total GULP energy -396553.517596 kJ/mol
# GULP energy per Si atom -12392.297425 kJ/mol
# Density = 1.839189 g / cm^3
# Si number density = 18.433848 Si / 1000 Ang^3
#
#
#
# Elastic Constant Matrix: (Units=GPa)
#
#
# Indices 1 2 3 4 5 6 
#
# 1 2.2665 6.6847 7.0886 -0.0001 0.0000 0.0000
# 2 6.6847 173.9149 94.6610 -0.0002 0.0000 0.0000
# 3 7.0886 94.6610 194.8961 -0.0014 0.0001 0.0001
# 4 -0.0001 -0.0002 -0.0014 18.7488 0.0001 0.0001
# 5 0.0000 0.0000 0.0001 0.0001 4.6691 -0.0001
# 6 0.0000 0.0000 0.0001 0.0001 -0.0001 19.4986
#
#
#
# Elastic Compliance Matrix: (Units=1/GPa)
#
#
# Indices 1 2 3 4 5 6 
#
# 1 0.519071 -0.013153 -0.012491 0.000003 -0.000001 0.000000
# 2 -0.013153 0.008150 -0.003480 0.000000 0.000000 0.000000
# 3 -0.012491 -0.003480 0.007275 0.000000 0.000000 0.000000
# 4 0.000003 0.000000 0.000000 0.053337 -0.000001 0.000000
# 5 -0.000001 0.000000 0.000000 -0.000001 0.214176 0.000001
# 6 0.000000 0.000000 0.000000 0.000000 0.000001 0.051286
#
#
# Mechanical properties :
#
#
# Convention : Reuss Voigt Hill
#
# Bulk Modulus (GPa) = 2.09974 65.32735 33.71355
# Shear Modulus (GPa) = 4.67163 26.09284 15.38224
#
# Velocity S-wave (km/s) = 1.59367 3.76638 2.89183
# Velocity P-wave (km/s) = 2.12789 7.37766 5.42945
#
# Compressibility (1/GPa) = 0.47624848
#
# Stress axis : x y z
#
# Youngs Moduli (GPa) = 1.92652 122.70618 137.44898
#
# Poissons Ratio (x) = 1.61389 1.71689
# Poissons Ratio (y) = 0.02534 0.47830
# Poissons Ratio (z) = 0.02406 0.42700
#
# Static dielectric constant tensor:
#      x y z
#    x 2.551880 0.000000 0.000000 
#    y 0.000000 3.571840 0.000000 
#    z 0.000000 0.000000 3.899920 
# 
# 
# High freq. dielectric constant tensor:
#      x y z
#    x 1.625840 0.000000 0.000000 
#    y 0.000000 1.724720 0.000000 
#    z 0.000000 0.000000 1.728400 
# 
# From -- ./inp_files/31237.got.cif
#   From: 2010.06.25/outbox.cif.g09.slc.cpg/sg71_16_cif.got.tgz:31237.got - 2010.06.28 04:59:45.
