data_PCOD8288110
_publ_section_title
;
Structure prediction by ZEFSAII (Michael W. Deem and Ramdas Pophale) SiO2 
 PCOD8288110
Probable space group: I M M M
;
_chemical_formula_sum "Si O2"
_cell_formula_units_Z 72
_cell_length_a 9.188215
_cell_length_b 30.726818
_cell_length_c 18.416215
_cell_angle_alpha 90.000000
_cell_angle_beta 90.000000
_cell_angle_gamma 90.000000
_cell_volume 5199.350718
_symmetry_space_group_name_H-M "I M M M"
_symmetry_group_IT_number 71
_symmetry_cell_setting 'orthorhombic'
loop_
_space_group_symop_operation_xyz
x,y,z
-x,-y,z
x,-y,-z
-x,y,-z
-x,-y,-z
x,y,-z
-x,y,z
x,-y,z
1/2+x,1/2+y,1/2+z
1/2-x,1/2-y,1/2+z
1/2+x,1/2-y,1/2-z
1/2-x,1/2+y,1/2-z
1/2-x,1/2-y,1/2-z
1/2+x,1/2+y,1/2-z
1/2-x,1/2+y,1/2+z
1/2+x,1/2-y,1/2+z
loop_
_atom_site_type_symbol
_atom_site_label
_atom_site_fract_x
_atom_site_fract_y
_atom_site_fract_z
Si Si1 0.835590 0.500000 0.586274
Si Si2 0.167188 0.712373 0.208788
Si Si3 0.170078 0.914790 0.084368
Si Si4 0.334707 0.163348 0.847153
Si Si5 0.169478 0.244131 0.417064
O O1 0.833866 0.500000 0.500000
O O2 0.752567 0.457265 0.614689
O O3 0.000000 0.500000 0.616665
O O4 0.250000 0.750000 0.250000
O O5 0.179792 0.669581 0.259680
O O6 0.242199 0.707866 0.129662
O O7 0.000000 0.725735 0.198342
O O8 0.223368 0.873557 0.129499
O O9 0.000000 0.921770 0.097331
O O10 0.205940 0.906822 0.000000
O O11 0.500000 0.149817 0.867395
O O12 0.292967 0.207439 0.889578
O O13 0.219312 0.239585 0.500000
O O14 0.000000 0.234353 0.407031
#
# Coordination Sequence:
#
# PCOD8288110 Si02
#       5
#     8  16  16  16  16
#     4   9  17  29  43  55  71  99 128 153 188 231
#     4   9  17  28  40  54  74 100 129 161 196 232
#     4  10  19  28  39  57  78  98 125 162 196 225
#     4   9  17  28  40  54  74 101 131 160 191 229
#     4   9  17  28  41  57  77 101 130 164 198 232
#
# _framework density 13.847882999999999
#
# number of rings (size 3 to 8) (size 9 to 14) (size 15 to 20)
#    0.000    2.778    0.000    3.667    0.000    8.444 
#    0.000    0.000    0.000    0.000    0.000    0.000 
#    0.000    0.000    0.000    1.000    0.000   18.667 
#
# Total GULP energy -446241.815883 kJ/mol
# GULP energy per Si atom -12395.605997 kJ/mol
# Density = 1.381636 g / cm^3
# Si number density = 13.847883 Si / 1000 Ang^3
#
#
#
# Elastic Constant Matrix: (Units=GPa)
#
#
# Indices 1 2 3 4 5 6 
#
# 1 87.7797 42.1416 45.3378 0.0000 0.0000 0.0000
# 2 42.1416 55.2577 33.6653 0.0000 0.0000 0.0000
# 3 45.3378 33.6653 91.2704 0.0009 0.0000 0.0001
# 4 0.0000 0.0000 0.0009 14.0654 0.0000 0.0001
# 5 0.0000 0.0000 0.0000 0.0000 24.4404 0.0000
# 6 0.0000 0.0000 0.0001 0.0001 0.0000 24.7911
#
#
#
# Elastic Compliance Matrix: (Units=1/GPa)
#
#
# Indices 1 2 3 4 5 6 
#
# 1 0.019930 -0.011825 -0.005538 0.000000 0.000000 0.000000
# 2 -0.011825 0.030359 -0.005324 0.000000 0.000000 0.000000
# 3 -0.005538 -0.005324 0.015671 -0.000001 0.000000 0.000000
# 4 0.000000 0.000000 -0.000001 0.071096 0.000000 0.000000
# 5 0.000000 0.000000 0.000000 0.000000 0.040916 0.000000
# 6 0.000000 0.000000 0.000000 0.000000 0.000000 0.040337
#
#
# Mechanical properties :
#
#
# Convention : Reuss Voigt Hill
#
# Bulk Modulus (GPa) = 48.57811 52.95524 50.76667
# Shear Modulus (GPa) = 18.48123 20.20360 19.34242
#
# Velocity S-wave (km/s) = 3.65717 3.82379 3.74140
# Velocity P-wave (km/s) = 7.27936 7.60387 7.44338
#
# Compressibility (1/GPa) = 0.02058540
#
# Stress axis : x y z
#
# Youngs Moduli (GPa) = 50.17675 32.93943 63.81110
#
# Poissons Ratio (x) = 0.38951 0.35340
# Poissons Ratio (y) = 0.59334 0.33973
# Poissons Ratio (z) = 0.27789 0.17537
#
# Static dielectric constant tensor:
#      x y z
#    x 2.898970 0.000000 0.000000 
#    y 0.000000 2.593740 0.000000 
#    z 0.000000 0.000000 3.065410 
# 
# 
# High freq. dielectric constant tensor:
#      x y z
#    x 1.543920 0.000000 0.000000 
#    y 0.000000 1.492780 0.000000 
#    z 0.000000 0.000000 1.506830 
# 
# From -- ./inp_files/8172.got.cif
#   From: 2010.06.25/outbox.cif.g09.slc.cpg/sg71_5_cif.got.tgz:8172.got - 2010.06.28 04:59:45.
