data_PCOD8288447
_publ_section_title
;
Structure prediction by ZEFSAII (Michael W. Deem and Ramdas Pophale) SiO2 
 PCOD8288447
Probable space group: I M M M
;
_chemical_formula_sum "Si O2"
_cell_formula_units_Z 128
_cell_length_a 19.819328
_cell_length_b 17.646369
_cell_length_c 21.418460
_cell_angle_alpha 90.000000
_cell_angle_beta 90.000000
_cell_angle_gamma 90.000000
_cell_volume 7490.874535
_symmetry_space_group_name_H-M "I M M M"
_symmetry_group_IT_number 71
_symmetry_cell_setting 'orthorhombic'
loop_
_space_group_symop_operation_xyz
x,y,z
-x,-y,z
x,-y,-z
-x,y,-z
-x,-y,-z
x,y,-z
-x,y,z
x,-y,z
1/2+x,1/2+y,1/2+z
1/2-x,1/2-y,1/2+z
1/2+x,1/2-y,1/2-z
1/2-x,1/2+y,1/2-z
1/2-x,1/2-y,1/2-z
1/2+x,1/2+y,1/2-z
1/2-x,1/2+y,1/2+z
1/2+x,1/2-y,1/2+z
loop_
_atom_site_type_symbol
_atom_site_label
_atom_site_fract_x
_atom_site_fract_y
_atom_site_fract_z
Si Si1 0.577710 0.714804 0.270370
Si Si2 0.200540 0.585465 0.760837
Si Si3 0.923104 0.352891 0.688950
Si Si4 0.165732 0.913673 0.188067
Si Si5 0.287649 0.660684 0.571225
Si Si6 0.573481 0.083131 0.426878
Si Si7 0.858662 0.587941 0.429732
Si Si8 0.667803 0.195679 0.363353
O O1 0.500000 0.697484 0.284202
O O2 0.586957 0.763943 0.206774
O O3 0.616987 0.634889 0.266712
O O4 0.608251 0.761396 0.327680
O O5 0.206058 0.500000 0.787051
O O6 0.126959 0.595852 0.730137
O O7 0.257092 0.600210 0.708728
O O8 0.213155 0.646075 0.815918
O O9 0.908610 0.366289 0.615819
O O10 0.000000 0.377416 0.703919
O O11 0.162059 0.888369 0.115281
O O12 0.142526 0.000000 0.194706
O O13 0.315344 0.660280 0.500000
O O14 0.214285 0.624987 0.573777
O O15 0.284833 0.746322 0.598519
O O16 0.569107 0.076640 0.500000
O O17 0.500000 0.109981 0.400977
O O18 0.632688 0.140027 0.411383
O O19 0.590157 0.000000 0.398491
O O20 0.887613 0.594489 0.500000
O O21 0.853354 0.500000 0.409180
#
# Coordination Sequence:
#
# PCOD8288447 Si02
#       8
#    16  16  16  16  16  16  16  16
#     4   9  20  34  50  74  99 125 162 203 248 298
#     4  10  20  32  48  74 101 129 165 201 246 300
#     4  10  20  33  51  73 103 137 166 202 247 294
#     4  10  20  34  54  74  97 131 164 205 255 297
#     4  10  20  32  50  74  97 130 171 208 246 291
#     4   9  17  29  45  65  92 128 165 200 244 298
#     4  10  20  33  49  70 100 135 171 208 244 290
#     4  10  19  30  49  68  99 127 163 204 249 292
#
# _framework density 17.087457000000001
#
# number of rings (size 3 to 8) (size 9 to 14) (size 15 to 20)
#    0.000    2.250    1.250    2.250    1.750    4.250 
#    0.000    0.625    0.000    3.375    0.000    3.500 
#    0.000    0.500    0.000    2.750    0.000    0.000 
#
# Total GULP energy -793317.745026 kJ/mol
# GULP energy per Si atom -12395.589766 kJ/mol
# Density = 1.704857 g / cm^3
# Si number density = 17.087457 Si / 1000 Ang^3
#
#
#
# Elastic Constant Matrix: (Units=GPa)
#
#
# Indices 1 2 3 4 5 6 
#
# 1 64.9060 43.8140 33.5528 0.0000 0.0000 0.0000
# 2 43.8140 122.4995 55.5211 0.0000 0.0000 0.0000
# 3 33.5528 55.5211 88.4851 0.0000 0.0000 0.0000
# 4 0.0000 0.0000 0.0000 24.8781 0.0000 0.0000
# 5 0.0000 0.0000 0.0000 0.0000 20.6203 0.0000
# 6 0.0000 0.0000 0.0000 0.0000 0.0000 19.9287
#
#
#
# Elastic Compliance Matrix: (Units=1/GPa)
#
#
# Indices 1 2 3 4 5 6 
#
# 1 0.021611 -0.005611 -0.004674 0.000000 0.000000 0.000000
# 2 -0.005611 0.012864 -0.005944 0.000000 0.000000 0.000000
# 3 -0.004674 -0.005944 0.016803 0.000000 0.000000 0.000000
# 4 0.000000 0.000000 0.000000 0.040196 0.000000 0.000000
# 5 0.000000 0.000000 0.000000 0.000000 0.048496 0.000000
# 6 0.000000 0.000000 0.000000 0.000000 0.000000 0.050179
#
#
# Mechanical properties :
#
#
# Convention : Reuss Voigt Hill
#
# Bulk Modulus (GPa) = 53.13456 60.18514 56.65985
# Shear Modulus (GPa) = 21.84542 22.61892 22.23217
#
# Velocity S-wave (km/s) = 3.57942 3.64224 3.61096
# Velocity P-wave (km/s) = 6.94594 7.27916 7.11450
#
# Compressibility (1/GPa) = 0.01882014
#
# Stress axis : x y z
#
# Youngs Moduli (GPa) = 46.27334 77.73439 59.51176
#
# Poissons Ratio (x) = 0.43617 0.27815
# Poissons Ratio (y) = 0.25964 0.35375
# Poissons Ratio (z) = 0.21628 0.46207
#
# Static dielectric constant tensor:
#      x y z
#    x 3.049440 0.000000 0.000000 
#    y 0.000000 3.370330 0.000000 
#    z 0.000000 0.000000 3.309940 
# 
# 
# High freq. dielectric constant tensor:
#      x y z
#    x 1.639930 0.000000 0.000000 
#    y 0.000000 1.663430 0.000000 
#    z 0.000000 0.000000 1.654060 
# 
# From -- ./inp_files/55256.got.cif
#   From: 2010.06.25/outbox.cif.g09.slc.cpg/sg71_28_cif.got.tgz:55256.got - 2010.06.28 04:59:45.
