data_PCOD8288399
_publ_section_title
;
Structure prediction by ZEFSAII (Michael W. Deem and Ramdas Pophale) SiO2 
 PCOD8288399
Probable space group: I M M M
;
_chemical_formula_sum "Si O2"
_cell_formula_units_Z 104
_cell_length_a 9.206208
_cell_length_b 19.872565
_cell_length_c 32.394180
_cell_angle_alpha 90.000000
_cell_angle_beta 90.000000
_cell_angle_gamma 90.000000
_cell_volume 5926.546552
_symmetry_space_group_name_H-M "I M M M"
_symmetry_group_IT_number 71
_symmetry_cell_setting 'orthorhombic'
loop_
_space_group_symop_operation_xyz
x,y,z
-x,-y,z
x,-y,-z
-x,y,-z
-x,-y,-z
x,y,-z
-x,y,z
x,-y,z
1/2+x,1/2+y,1/2+z
1/2-x,1/2-y,1/2+z
1/2+x,1/2-y,1/2-z
1/2-x,1/2+y,1/2-z
1/2-x,1/2-y,1/2-z
1/2+x,1/2+y,1/2-z
1/2-x,1/2+y,1/2+z
1/2+x,1/2-y,1/2+z
loop_
_atom_site_type_symbol
_atom_site_label
_atom_site_fract_x
_atom_site_fract_y
_atom_site_fract_z
Si Si1 0.172825 0.164138 0.578417
Si Si2 0.168817 0.788182 0.809656
Si Si3 0.327489 0.425879 0.453666
Si Si4 0.826931 0.199965 0.902133
Si Si5 0.167576 0.161968 0.725080
Si Si6 0.671801 0.576593 0.000000
Si Si7 0.170707 0.073165 0.347264
O O1 0.251902 0.235954 0.576497
O O2 0.223697 0.117892 0.540158
O O3 0.229943 0.126969 0.619786
O O4 0.000000 0.175816 0.578168
O O5 0.224310 0.810108 0.854667
O O6 0.202173 0.844837 0.774228
O O7 0.243122 0.720296 0.796060
O O8 0.000000 0.772617 0.812250
O O9 0.270208 0.413052 0.500000
O O10 0.500000 0.424122 0.453214
O O11 0.274695 0.500000 0.438329
O O12 0.266991 0.366905 0.424553
O O13 0.000000 0.207983 0.906346
O O14 0.206651 0.094364 0.699999
O O15 0.000000 0.180824 0.718556
O O16 0.736234 0.500000 0.000000
O O17 0.500000 0.570871 0.000000
O O18 0.000000 0.067366 0.354383
O O19 0.242661 0.000000 0.354654
#
# Coordination Sequence:
#
# PCOD8288399 Si02
#       7
#    16  16  16  16  16   8  16
#     4  10  19  31  48  70  94 123 159 193 229 275
#     4   9  17  28  43  65  93 118 143 183 232 273
#     4   8  15  29  48  68  90 120 155 184 218 273
#     4  10  19  30  47  72  98 121 150 192 235 273
#     4   9  16  28  45  64  87 118 154 185 221 269
#     4   9  18  32  49  69  94 125 160 198 237 275
#     4   9  16  27  45  67  90 119 158 197 226 261
#
# _framework density 17.548162000000001
#
# number of rings (size 3 to 8) (size 9 to 14) (size 15 to 20)
#    0.000    2.846    1.538    0.923    1.077    1.846 
#    0.000    0.769    0.000    8.769    0.000    1.077 
#    0.000    3.692    0.000    0.000    0.000    0.000 
#
# Total GULP energy -644322.508575 kJ/mol
# GULP energy per Si atom -12390.817473 kJ/mol
# Density = 1.750822 g / cm^3
# Si number density = 17.548162 Si / 1000 Ang^3
#
#
#
# Elastic Constant Matrix: (Units=GPa)
#
#
# Indices 1 2 3 4 5 6 
#
# 1 11.2988 16.4962 17.6157 0.0000 0.0000 0.0000
# 2 16.4962 143.7424 80.6308 0.0000 0.0000 0.0000
# 3 17.6157 80.6308 135.0262 0.0000 0.0000 0.0000
# 4 0.0000 0.0000 0.0000 23.3620 0.0000 0.0000
# 5 0.0000 0.0000 0.0000 0.0000 15.0202 0.0000
# 6 0.0000 0.0000 0.0000 0.0000 0.0000 19.3251
#
#
#
# Elastic Compliance Matrix: (Units=1/GPa)
#
#
# Indices 1 2 3 4 5 6 
#
# 1 0.115916 -0.007248 -0.010795 0.000000 0.000000 0.000000
# 2 -0.007248 0.010914 -0.005572 0.000000 0.000000 0.000000
# 3 -0.010795 -0.005572 0.012141 0.000000 0.000000 0.000000
# 4 0.000000 0.000000 0.000000 0.042805 0.000000 0.000000
# 5 0.000000 0.000000 0.000000 0.000000 0.066577 0.000000
# 6 0.000000 0.000000 0.000000 0.000000 0.000000 0.051746
#
#
# Mechanical properties :
#
#
# Convention : Reuss Voigt Hill
#
# Bulk Modulus (GPa) = 10.89993 57.72808 34.31400
# Shear Modulus (GPa) = 13.23068 23.22976 18.23022
#
# Velocity S-wave (km/s) = 2.74882 3.64231 3.22664
# Velocity P-wave (km/s) = 4.03728 7.11737 5.78604
#
# Compressibility (1/GPa) = 0.09174372
#
# Stress axis : x y z
#
# Youngs Moduli (GPa) = 8.62690 91.62478 82.36249
#
# Poissons Ratio (x) = 0.66406 0.88908
# Poissons Ratio (y) = 0.06252 0.45891
# Poissons Ratio (z) = 0.09312 0.51051
#
# Static dielectric constant tensor:
#      x y z
#    x 2.863400 0.000000 0.000000 
#    y 0.000000 3.125690 0.000000 
#    z 0.000000 0.000000 3.690940 
# 
# 
# High freq. dielectric constant tensor:
#      x y z
#    x 1.630690 0.000000 0.000000 
#    y 0.000000 1.671080 0.000000 
#    z 0.000000 0.000000 1.692500 
# 
# From -- ./inp_files/69435.got.cif
#   From: 2010.06.25/outbox.cif.g09.slc.cpg/sg71_35_cif.got.tgz:69435.got - 2010.06.28 04:59:45.
