data_PCOD8288966
_publ_section_title
;
Structure prediction by ZEFSAII (Michael W. Deem and Ramdas Pophale) SiO2 
 PCOD8288966
Probable space group: I M M M
;
_chemical_formula_sum "Si O2"
_cell_formula_units_Z 104
_cell_length_a 8.701018
_cell_length_b 23.798950
_cell_length_c 27.381910
_cell_angle_alpha 90.000000
_cell_angle_beta 90.000000
_cell_angle_gamma 90.000000
_cell_volume 5670.111541
_symmetry_space_group_name_H-M "I M M M"
_symmetry_group_IT_number 71
_symmetry_cell_setting 'orthorhombic'
loop_
_space_group_symop_operation_xyz
x,y,z
-x,-y,z
x,-y,-z
-x,y,-z
-x,-y,-z
x,y,-z
-x,y,z
x,-y,z
1/2+x,1/2+y,1/2+z
1/2-x,1/2-y,1/2+z
1/2+x,1/2-y,1/2-z
1/2-x,1/2+y,1/2-z
1/2-x,1/2-y,1/2-z
1/2+x,1/2+y,1/2-z
1/2-x,1/2+y,1/2+z
1/2+x,1/2-y,1/2+z
loop_
_atom_site_type_symbol
_atom_site_label
_atom_site_fract_x
_atom_site_fract_y
_atom_site_fract_z
Si Si1 0.670221 0.065948 0.500000
Si Si2 0.680034 0.763669 0.802107
Si Si3 0.824261 0.741840 0.052658
Si Si4 0.817157 0.160324 0.880285
Si Si5 0.824692 0.333811 0.861296
Si Si6 0.819590 0.936123 0.600682
Si Si7 0.180721 0.564934 0.555497
O O1 0.500000 0.094667 0.500000
O O2 0.765162 0.083769 0.452545
O O3 0.647576 0.000000 0.500000
O O4 0.500000 0.773505 0.797346
O O5 0.750000 0.750000 0.750000
O O6 0.750824 0.820370 0.827237
O O7 0.715205 0.707642 0.832249
O O8 0.749534 0.793506 0.082102
O O9 0.812071 0.683833 0.081949
O O10 0.000000 0.758632 0.044927
O O11 0.742234 0.734454 0.000000
O O12 0.762807 0.100371 0.901455
O O13 0.000000 0.160606 0.875280
O O14 0.763045 0.397591 0.858361
O O15 0.000000 0.329839 0.841925
O O16 0.000000 0.927729 0.604248
O O17 0.771039 0.000000 0.611820
O O18 0.232860 0.582156 0.500000
O O19 0.224470 0.500000 0.564518
O O20 0.000000 0.574009 0.560528
#
# Coordination Sequence:
#
# PCOD8288966 Si02
#       7
#     8  16  16  16  16  16  16
#     4   9  17  29  45  65  91 131 179 217 250 291
#     4  11  22  39  61  82 106 134 170 217 272 328
#     4   8  15  27  43  67 100 134 167 209 255 300
#     4  10  19  32  52  79 108 140 180 223 269 321
#     4  10  20  33  52  78 105 134 174 215 261 316
#     4  10  20  33  48  69 101 139 177 217 259 304
#     4   9  18  32  50  76 114 158 197 229 265 314
#
# _framework density 18.341792000000002
#
# number of rings (size 3 to 8) (size 9 to 14) (size 15 to 20)
#    0.000    2.385    0.000    4.846    1.077    3.077 
#    0.000    0.769    0.000    3.692    0.000    0.000 
#    0.000    0.000    0.000    0.000    0.000    0.000 
#
# Total GULP energy -644372.510032 kJ/mol
# GULP energy per Si atom -12391.779039 kJ/mol
# Density = 1.830004 g / cm^3
# Si number density = 18.341792 Si / 1000 Ang^3
#
#
#
# Elastic Constant Matrix: (Units=GPa)
#
#
# Indices 1 2 3 4 5 6 
#
# 1 90.3662 39.2855 37.6207 0.0000 0.0000 0.0000
# 2 39.2855 100.4550 40.7580 0.0000 0.0000 0.0000
# 3 37.6207 40.7580 99.1413 0.0000 0.0000 0.0000
# 4 0.0000 0.0000 0.0000 21.6241 0.0000 0.0000
# 5 0.0000 0.0000 0.0000 0.0000 26.2536 0.0000
# 6 0.0000 0.0000 0.0000 0.0000 0.0000 29.1965
#
#
#
# Elastic Compliance Matrix: (Units=1/GPa)
#
#
# Indices 1 2 3 4 5 6 
#
# 1 0.014428 -0.004106 -0.003787 0.000000 0.000000 0.000000
# 2 -0.004106 0.013116 -0.003834 0.000000 0.000000 0.000000
# 3 -0.003787 -0.003834 0.013100 0.000000 0.000000 0.000000
# 4 0.000000 0.000000 0.000000 0.046245 0.000000 0.000000
# 5 0.000000 0.000000 0.000000 0.000000 0.038090 0.000000
# 6 0.000000 0.000000 0.000000 0.000000 0.000000 0.034251
#
#
# Mechanical properties :
#
#
# Convention : Reuss Voigt Hill
#
# Bulk Modulus (GPa) = 58.17372 58.36566 58.26969
# Shear Modulus (GPa) = 26.53755 26.90139 26.71947
#
# Velocity S-wave (km/s) = 3.80786 3.83387 3.82088
# Velocity P-wave (km/s) = 7.14971 7.17553 7.16263
#
# Compressibility (1/GPa) = 0.01718989
#
# Stress axis : x y z
#
# Youngs Moduli (GPa) = 69.31191 76.24269 76.33693
#
# Poissons Ratio (x) = 0.31304 0.28907
# Poissons Ratio (y) = 0.28458 0.29268
# Poissons Ratio (z) = 0.26247 0.29232
#
# Static dielectric constant tensor:
#      x y z
#    x 3.289590 0.000000 0.000000 
#    y 0.000000 3.386400 0.000000 
#    z 0.000000 0.000000 3.522620 
# 
# 
# High freq. dielectric constant tensor:
#      x y z
#    x 1.706870 0.000000 0.000000 
#    y 0.000000 1.708930 0.000000 
#    z 0.000000 0.000000 1.685090 
# 
# From -- ./inp_files/63518.got.cif
#   From: 2010.06.25/outbox.cif.g09.slc.cpg/sg71_32_cif.got.tgz:63518.got - 2010.06.28 04:59:45.
