data_PCOD8288753
_publ_section_title
;
Structure prediction by ZEFSAII (Michael W. Deem and Ramdas Pophale) SiO2 
 PCOD8288753
Probable space group: I M M M
;
_chemical_formula_sum "Si O2"
_cell_formula_units_Z 96
_cell_length_a 22.129350
_cell_length_b 14.056426
_cell_length_c 17.897382
_cell_angle_alpha 90.000000
_cell_angle_beta 90.000000
_cell_angle_gamma 90.000000
_cell_volume 5567.151962
_symmetry_space_group_name_H-M "I M M M"
_symmetry_group_IT_number 71
_symmetry_cell_setting 'orthorhombic'
loop_
_space_group_symop_operation_xyz
x,y,z
-x,-y,z
x,-y,-z
-x,y,-z
-x,-y,-z
x,y,-z
-x,y,z
x,-y,z
1/2+x,1/2+y,1/2+z
1/2-x,1/2-y,1/2+z
1/2+x,1/2-y,1/2-z
1/2-x,1/2+y,1/2-z
1/2-x,1/2-y,1/2-z
1/2+x,1/2+y,1/2-z
1/2-x,1/2+y,1/2+z
1/2+x,1/2-y,1/2+z
loop_
_atom_site_type_symbol
_atom_site_label
_atom_site_fract_x
_atom_site_fract_y
_atom_site_fract_z
Si Si1 0.069148 0.891172 0.248878
Si Si2 0.734215 0.211737 0.413229
Si Si3 0.434752 0.897397 0.912939
Si Si4 0.185603 0.892786 0.838772
Si Si5 0.855791 0.748817 0.661281
Si Si6 0.792159 0.608994 0.771602
O O1 0.114348 0.878366 0.178122
O O2 0.094453 0.826350 0.315356
O O3 0.000000 0.862649 0.227122
O O4 0.071148 0.000000 0.276631
O O5 0.726551 0.183604 0.500000
O O6 0.707413 0.318041 0.400988
O O7 0.803032 0.204317 0.386821
O O8 0.702024 0.134329 0.359571
O O9 0.500000 0.869994 0.877477
O O10 0.385190 0.820401 0.897569
O O11 0.414042 0.000000 0.880323
O O12 0.442394 0.906249 0.000000
O O13 0.223812 0.876450 0.761487
O O14 0.197603 0.000000 0.868908
O O15 0.835002 0.685160 0.731488
O O16 0.813324 0.500000 0.759847
#
# Coordination Sequence:
#
# PCOD8288753 Si02
#       6
#    16  16  16  16  16  16
#     4  10  19  31  53  79 101 131 171 212 253 296
#     4  11  21  32  49  76 104 134 167 204 263 317
#     4   9  18  31  46  69 103 137 167 205 253 300
#     4   9  17  34  53  73 103 131 167 217 260 302
#     4  11  18  33  51  76 100 133 170 213 248 305
#     4  10  19  33  52  73  99 133 168 211 260 302
#
# _framework density 17.244005000000001
#
# number of rings (size 3 to 8) (size 9 to 14) (size 15 to 20)
#    0.000    2.000    3.333    3.000    0.000    1.333 
#    0.000    0.000    0.000    2.000    0.000    8.167 
#    0.000    1.333    0.000    0.000    0.000    0.000 
#
# Total GULP energy -594797.544372 kJ/mol
# GULP energy per Si atom -12391.615508 kJ/mol
# Density = 1.720476 g / cm^3
# Si number density = 17.244005 Si / 1000 Ang^3
#
#
#
# Elastic Constant Matrix: (Units=GPa)
#
#
# Indices 1 2 3 4 5 6 
#
# 1 77.9492 29.0673 12.5755 0.0000 0.0000 0.0000
# 2 29.0673 63.6132 17.9045 0.0000 0.0000 0.0000
# 3 12.5755 17.9045 78.7263 0.0000 0.0000 0.0000
# 4 0.0000 0.0000 0.0000 904.9911 0.0000 0.0000
# 5 0.0000 0.0000 0.0000 0.0000 13.1690 0.0000
# 6 0.0000 0.0000 0.0000 0.0000 0.0000 97.9846
#
#
#
# Elastic Compliance Matrix: (Units=1/GPa)
#
#
# Indices 1 2 3 4 5 6 
#
# 1 0.015527 -0.006834 -0.000926 0.000000 0.000000 0.000000
# 2 -0.006834 0.019803 -0.003412 0.000000 0.000000 0.000000
# 3 -0.000926 -0.003412 0.013626 0.000000 0.000000 0.000000
# 4 0.000000 0.000000 0.000000 0.001105 0.000000 0.000000
# 5 0.000000 0.000000 0.000000 0.000000 0.075936 0.000000
# 6 0.000000 0.000000 0.000000 0.000000 0.000000 0.010206
#
#
# Mechanical properties :
#
#
# Convention : Reuss Voigt Hill
#
# Bulk Modulus (GPa) = 37.57749 37.70924 37.64337
# Shear Modulus (GPa) = 29.86551 213.94505 121.90528
#
# Velocity S-wave (km/s) = 4.16617 11.15072 8.41711
# Velocity P-wave (km/s) = 6.70683 13.70038 10.78614
#
# Compressibility (1/GPa) = 0.02661168
#
# Stress axis : x y z
#
# Youngs Moduli (GPa) = 64.40524 50.49706 73.38836
#
# Poissons Ratio (x) = 0.34510 0.06795
# Poissons Ratio (y) = 0.44015 0.25041
# Poissons Ratio (z) = 0.05963 0.17230
#
# Static dielectric constant tensor:
#      x y z
#    x 3.336310 0.000000 0.000000 
#    y 0.000000 3.381260 0.000000 
#    z 0.000000 0.000000 2.872820 
# 
# 
# High freq. dielectric constant tensor:
#      x y z
#    x 1.658950 0.000000 0.000000 
#    y 0.000000 1.678430 0.000000 
#    z 0.000000 0.000000 1.627460 
# 
# From -- ./inp_files/37822.got.cif
#   From: 2010.06.25/outbox.cif.g09.slc.cpg/sg71_19_cif.got.tgz:37822.got - 2010.06.28 04:59:45.
