data_PCOD8288172
_publ_section_title
;
Structure prediction by ZEFSAII (Michael W. Deem and Ramdas Pophale) SiO2 
 PCOD8288172
Probable space group: I M M M
;
_chemical_formula_sum "Si O2"
_cell_formula_units_Z 72
_cell_length_a 14.284667
_cell_length_b 33.700109
_cell_length_c 9.508778
_cell_angle_alpha 90.000000
_cell_angle_beta 90.000000
_cell_angle_gamma 90.000000
_cell_volume 4577.476616
_symmetry_space_group_name_H-M "I M M M"
_symmetry_group_IT_number 71
_symmetry_cell_setting 'orthorhombic'
loop_
_space_group_symop_operation_xyz
x,y,z
-x,-y,z
x,-y,-z
-x,y,-z
-x,-y,-z
x,y,-z
-x,y,z
x,-y,z
1/2+x,1/2+y,1/2+z
1/2-x,1/2-y,1/2+z
1/2+x,1/2-y,1/2-z
1/2-x,1/2+y,1/2-z
1/2-x,1/2-y,1/2-z
1/2+x,1/2+y,1/2-z
1/2-x,1/2+y,1/2+z
1/2+x,1/2-y,1/2+z
loop_
_atom_site_type_symbol
_atom_site_label
_atom_site_fract_x
_atom_site_fract_y
_atom_site_fract_z
Si Si1 0.110195 0.500000 0.652566
Si Si2 0.108455 0.269335 0.161236
Si Si3 0.394938 0.693947 0.838097
Si Si4 0.892681 0.585932 0.667964
Si Si5 0.286929 0.848614 0.662468
O O1 0.159453 0.500000 0.500000
O O2 0.136069 0.458170 0.727544
O O3 0.000000 0.500000 0.628954
O O4 0.141273 0.231809 0.251778
O O5 0.163541 0.308140 0.210753
O O6 0.000000 0.278343 0.186698
O O7 0.130732 0.259236 0.000000
O O8 0.500000 0.681048 0.792115
O O9 0.324653 0.657059 0.813183
O O10 0.392438 0.707022 0.000000
O O11 0.880840 0.587616 0.500000
O O12 0.822057 0.616050 0.740440
O O13 0.000000 0.596090 0.709247
O O14 0.310215 0.858320 0.500000
#
# Coordination Sequence:
#
# PCOD8288172 Si02
#       5
#     8  16  16  16  16
#     4   7  12  26  45  63  86 113 136 160 195 241
#     4   9  17  28  41  58  82 111 140 173 215 256
#     4   9  18  31  44  58  79 111 150 185 213 243
#     4   9  17  29  46  67  89 113 139 165 197 245
#     4  10  19  29  42  62  88 114 139 174 217 251
#
# _framework density 15.729189999999999
#
# number of rings (size 3 to 8) (size 9 to 14) (size 15 to 20)
#    0.000    3.000    0.000    2.667    0.000    3.111 
#    0.000    2.778    0.000    2.000    0.000    0.778 
#    0.000    6.222    0.000    0.000    0.000    0.000 
#
# Total GULP energy -446132.123350 kJ/mol
# GULP energy per Si atom -12392.558982 kJ/mol
# Density = 1.569339 g / cm^3
# Si number density = 15.729190 Si / 1000 Ang^3
#
#
#
# Elastic Constant Matrix: (Units=GPa)
#
#
# Indices 1 2 3 4 5 6 
#
# 1 68.1336 60.1891 29.0899 -0.0002 0.0008 -0.0002
# 2 60.1891 118.4091 49.1325 0.0013 -0.0006 -0.0002
# 3 29.0899 49.1325 43.1844 0.0076 -0.0021 -0.0001
# 4 -0.0002 0.0013 0.0076 17.8512 -0.0004 0.0000
# 5 0.0008 -0.0006 -0.0021 -0.0004 19.6529 0.0003
# 6 -0.0002 -0.0002 -0.0001 0.0000 0.0003 20.7636
#
#
#
# Elastic Compliance Matrix: (Units=1/GPa)
#
#
# Indices 1 2 3 4 5 6 
#
# 1 0.027177 -0.011779 -0.004906 0.000003 -0.000002 0.000000
# 2 -0.011779 0.021103 -0.016075 0.000005 -0.000001 0.000000
# 3 -0.004906 -0.016075 0.044750 -0.000018 0.000005 0.000000
# 4 0.000003 0.000005 -0.000018 0.056019 0.000001 0.000000
# 5 -0.000002 -0.000001 0.000005 0.000001 0.050883 -0.000001
# 6 0.000000 0.000000 0.000000 0.000000 -0.000001 0.048161
#
#
# Mechanical properties :
#
#
# Convention : Reuss Voigt Hill
#
# Bulk Modulus (GPa) = 36.34926 56.28333 46.31630
# Shear Modulus (GPa) = 15.49035 17.74127 16.61581
#
# Velocity S-wave (km/s) = 3.14158 3.36210 3.25371
# Velocity P-wave (km/s) = 6.02652 7.13667 6.60496
#
# Compressibility (1/GPa) = 0.02751088
#
# Stress axis : x y z
#
# Youngs Moduli (GPa) = 36.79582 47.38714 22.34637
#
# Poissons Ratio (x) = 0.55817 0.10962
# Poissons Ratio (y) = 0.43342 0.35922
# Poissons Ratio (z) = 0.18051 0.76174
#
# Static dielectric constant tensor:
#      x y z
#    x 3.037840 0.000000 0.000000 
#    y 0.000000 3.071090 0.000000 
#    z 0.000000 0.000000 2.870310 
# 
# 
# High freq. dielectric constant tensor:
#      x y z
#    x 1.592240 0.000000 0.000000 
#    y 0.000000 1.589200 0.000000 
#    z 0.000000 0.000000 1.591110 
# 
# From -- ./inp_files/6100.got.cif
#   From: 2010.06.25/outbox.cif.g09.slc.cpg/sg71_4_cif.got.tgz:6100.got - 2010.06.28 04:59:45.
