data_PCOD8288053
_publ_section_title
;
Structure prediction by ZEFSAII (Michael W. Deem and Ramdas Pophale) SiO2 
 PCOD8288053
Probable space group: I M M M
;
_chemical_formula_sum "Si O2"
_cell_formula_units_Z 88
_cell_length_a 19.455211
_cell_length_b 13.320541
_cell_length_c 18.498037
_cell_angle_alpha 90.000000
_cell_angle_beta 90.000000
_cell_angle_gamma 90.000000
_cell_volume 4793.839093
_symmetry_space_group_name_H-M "I M M M"
_symmetry_group_IT_number 71
_symmetry_cell_setting 'orthorhombic'
loop_
_space_group_symop_operation_xyz
x,y,z
-x,-y,z
x,-y,-z
-x,y,-z
-x,-y,-z
x,y,-z
-x,y,z
x,-y,z
1/2+x,1/2+y,1/2+z
1/2-x,1/2-y,1/2+z
1/2+x,1/2-y,1/2-z
1/2-x,1/2+y,1/2-z
1/2-x,1/2-y,1/2-z
1/2+x,1/2+y,1/2-z
1/2-x,1/2+y,1/2+z
1/2+x,1/2-y,1/2+z
loop_
_atom_site_type_symbol
_atom_site_label
_atom_site_fract_x
_atom_site_fract_y
_atom_site_fract_z
Si Si1 0.339501 0.687690 0.143063
Si Si2 0.207407 0.888225 0.791057
Si Si3 0.697028 0.241020 0.583171
Si Si4 0.577792 0.500000 0.914830
Si Si5 0.423053 0.883942 0.647888
Si Si6 0.365855 0.888622 0.198061
O O1 0.329381 0.674815 0.228797
O O2 0.267215 0.680948 0.101126
O O3 0.387771 0.601509 0.113006
O O4 0.374015 0.799882 0.137438
O O5 0.192163 0.841064 0.868979
O O6 0.287881 0.888548 0.773392
O O7 0.176869 0.000000 0.791289
O O8 0.697790 0.273901 0.500000
O O9 0.630958 0.173265 0.598018
O O10 0.500000 0.500000 0.886691
O O11 0.582041 0.500000 0.000000
O O12 0.500000 0.847680 0.628003
O O13 0.413318 0.865340 0.733328
O O14 0.413135 0.000000 0.629595
O O15 0.383270 0.000000 0.165266
#
# Coordination Sequence:
#
# PCOD8288053 Si02
#       6
#    16  16  16   8  16  16
#     4  11  19  37  61  87 109 148 197 234 282 346
#     4  10  18  34  58  83 110 144 192 242 279 330
#     4  11  22  35  54  82 113 151 192 232 283 341
#     4  11  26  42  58  88 122 146 178 240 307 354
#     4  10  20  33  50  77 113 147 182 229 280 332
#     4   9  17  32  56  84 114 143 183 238 283 318
#
# _framework density 18.356894
#
# number of rings (size 3 to 8) (size 9 to 14) (size 15 to 20)
#    0.000    1.727    4.545    1.636    1.273    1.818 
#    0.000    0.909    0.000    1.636    0.000    2.545 
#    0.000    0.000    0.000    0.000    0.000    0.000 
#
# Total GULP energy -545479.077286 kJ/mol
# GULP energy per Si atom -12397.251756 kJ/mol
# Density = 1.831511 g / cm^3
# Si number density = 18.356894 Si / 1000 Ang^3
#
#
#
# Elastic Constant Matrix: (Units=GPa)
#
#
# Indices 1 2 3 4 5 6 
#
# 1 76.9704 38.9010 36.8081 0.0000 0.0000 0.0000
# 2 38.9010 117.8268 33.8575 0.0000 0.0000 0.0000
# 3 36.8081 33.8575 88.1195 0.0000 0.0000 0.0000
# 4 0.0000 0.0000 0.0000 22.7515 0.0000 0.0000
# 5 0.0000 0.0000 0.0000 0.0000 13.2811 0.0000
# 6 0.0000 0.0000 0.0000 0.0000 0.0000 -14.1102
#
#
#
# Elastic Compliance Matrix: (Units=1/GPa)
#
#
# Indices 1 2 3 4 5 6 
#
# 1 0.017938 -0.004237 -0.005865 0.000000 0.000000 0.000000
# 2 -0.004237 0.010541 -0.002280 0.000000 0.000000 0.000000
# 3 -0.005865 -0.002280 0.014674 0.000000 0.000000 0.000000
# 4 0.000000 0.000000 0.000000 0.043953 0.000000 0.000000
# 5 0.000000 0.000000 0.000000 0.000000 0.075295 0.000000
# 6 0.000000 0.000000 0.000000 0.000000 0.000000 -0.070871
#
#
# Mechanical properties :
#
#
# Convention : Reuss Voigt Hill
#
# Bulk Modulus (GPa) = 54.38057 55.78333 55.08195
# Shear Modulus (GPa) = 40.84137 15.94115 28.39126
#
# Velocity S-wave (km/s) = 4.72195 2.95006 3.93698
# Velocity P-wave (km/s) = 7.70827 6.48521 7.12304
#
# Compressibility (1/GPa) = 0.01838892
#
# Stress axis : x y z
#
# Youngs Moduli (GPa) = 55.74728 94.86625 68.14689
#
# Poissons Ratio (x) = 0.40195 0.39967
# Poissons Ratio (y) = 0.23620 0.15540
# Poissons Ratio (z) = 0.32695 0.21632
#
# Static dielectric constant tensor:
#      x y z
#    x 3.340820 0.000000 0.000000 
#    y 0.000000 3.797380 0.000000 
#    z 0.000000 0.000000 3.121900 
# 
# 
# High freq. dielectric constant tensor:
#      x y z
#    x 1.697180 0.000000 0.000000 
#    y 0.000000 1.724230 0.000000 
#    z 0.000000 0.000000 1.686670 
# 
# From -- ./inp_files/36404.got.cif
#   From: 2010.06.25/outbox.cif.g09.slc.cpg/sg71_19_cif.got.tgz:36404.got - 2010.06.28 04:59:45.
