data_PCOD8288677
_publ_section_title
;
Structure prediction by ZEFSAII (Michael W. Deem and Ramdas Pophale) SiO2 
 PCOD8288677
Probable space group: I M M M
;
_chemical_formula_sum "Si O2"
_cell_formula_units_Z 128
_cell_length_a 17.476658
_cell_length_b 17.761888
_cell_length_c 23.101076
_cell_angle_alpha 90.000000
_cell_angle_beta 90.000000
_cell_angle_gamma 90.000000
_cell_volume 7171.000021
_symmetry_space_group_name_H-M "I M M M"
_symmetry_group_IT_number 71
_symmetry_cell_setting 'orthorhombic'
loop_
_space_group_symop_operation_xyz
x,y,z
-x,-y,z
x,-y,-z
-x,y,-z
-x,-y,-z
x,y,-z
-x,y,z
x,-y,z
1/2+x,1/2+y,1/2+z
1/2-x,1/2-y,1/2+z
1/2+x,1/2-y,1/2-z
1/2-x,1/2+y,1/2-z
1/2-x,1/2-y,1/2-z
1/2+x,1/2+y,1/2-z
1/2-x,1/2+y,1/2+z
1/2+x,1/2-y,1/2+z
loop_
_atom_site_type_symbol
_atom_site_label
_atom_site_fract_x
_atom_site_fract_y
_atom_site_fract_z
Si Si1 0.161893 0.768418 0.065680
Si Si2 0.090541 0.913332 0.109039
Si Si3 0.088484 0.685840 0.173276
Si Si4 0.415482 0.417938 0.932385
Si Si5 0.585854 0.726036 0.787369
Si Si6 0.306105 0.703655 0.883556
Si Si7 0.141185 0.916252 0.762564
Si Si8 0.281604 0.084658 0.310071
O O1 0.134869 0.855865 0.067060
O O2 0.112940 0.719233 0.111082
O O3 0.252983 0.760844 0.079653
O O4 0.147695 0.739344 0.000000
O O5 0.124252 0.894633 0.171831
O O6 0.000000 0.896723 0.108283
O O7 0.106750 0.000000 0.090615
O O8 0.108358 0.745141 0.223801
O O9 0.129978 0.609312 0.194927
O O10 0.000000 0.666062 0.169973
O O11 0.500000 0.402163 0.906249
O O12 0.385049 0.500000 0.908148
O O13 0.363919 0.345290 0.921179
O O14 0.421766 0.426367 0.000000
O O15 0.500000 0.749644 0.805020
O O16 0.645920 0.753091 0.836419
O O17 0.594182 0.635386 0.782484
O O18 0.250025 0.643242 0.855906
O O19 0.232647 0.908837 0.749603
O O20 0.111579 0.000000 0.749958
O O21 0.278255 0.000000 0.334265
#
# Coordination Sequence:
#
# PCOD8288677 Si02
#       8
#    16  16  16  16  16  16  16  16
#     4  11  23  36  53  75 100 137 180 217 256 303
#     4  10  20  34  53  76 103 134 168 211 260 309
#     4  10  21  35  52  73 100 133 169 211 258 303
#     4   9  17  30  49  73 103 139 175 212 256 306
#     4  10  19  31  50  76 104 134 164 200 252 311
#     4  10  20  32  51  72 106 133 171 210 258 304
#     4   9  17  29  49  76 106 136 163 197 248 309
#     4   9  19  32  49  73  99 130 167 203 247 301
#
# _framework density 17.849672999999999
#
# number of rings (size 3 to 8) (size 9 to 14) (size 15 to 20)
#    0.000    2.250    1.250    2.250    1.750    4.250 
#    0.000    0.625    0.000    3.375    0.000    3.500 
#    0.000    1.500    0.000    6.125    0.000    0.000 
#
# Total GULP energy -792938.933090 kJ/mol
# GULP energy per Si atom -12389.670830 kJ/mol
# Density = 1.780905 g / cm^3
# Si number density = 17.849673 Si / 1000 Ang^3
#
#
#
# Elastic Constant Matrix: (Units=GPa)
#
#
# Indices 1 2 3 4 5 6 
#
# 1 112.9433 44.8368 47.3045 0.0000 0.0000 0.0000
# 2 44.8368 63.2617 25.5945 0.0000 0.0000 0.0000
# 3 47.3045 25.5945 75.8595 0.0000 0.0000 0.0000
# 4 0.0000 0.0000 0.0000 18.8781 0.0000 0.0000
# 5 0.0000 0.0000 0.0000 0.0000 21.1720 0.0000
# 6 0.0000 0.0000 0.0000 0.0000 0.0000 9.0266
#
#
#
# Elastic Compliance Matrix: (Units=1/GPa)
#
#
# Indices 1 2 3 4 5 6 
#
# 1 0.014667 -0.007753 -0.006530 0.000000 0.000000 0.000000
# 2 -0.007753 0.022405 -0.002724 0.000000 0.000000 0.000000
# 3 -0.006530 -0.002724 0.018174 0.000000 0.000000 0.000000
# 4 0.000000 0.000000 0.000000 0.052971 0.000000 0.000000
# 5 0.000000 0.000000 0.000000 0.000000 0.047232 0.000000
# 6 0.000000 0.000000 0.000000 0.000000 0.000000 0.110783
#
#
# Mechanical properties :
#
#
# Convention : Reuss Voigt Hill
#
# Bulk Modulus (GPa) = 47.10406 54.17066 50.63736
# Shear Modulus (GPa) = 16.26945 18.77058 17.52001
#
# Velocity S-wave (km/s) = 3.02233 3.24634 3.13634
# Velocity P-wave (km/s) = 6.21498 6.66827 6.44561
#
# Compressibility (1/GPa) = 0.02122959
#
# Stress axis : x y z
#
# Youngs Moduli (GPa) = 68.18040 44.63338 55.02502
#
# Poissons Ratio (x) = 0.34605 0.35932
# Poissons Ratio (y) = 0.52862 0.14991
# Poissons Ratio (z) = 0.44523 0.12160
#
# Static dielectric constant tensor:
#      x y z
#    x 3.573420 0.000000 0.000000 
#    y 0.000000 3.443110 0.000000 
#    z 0.000000 0.000000 3.201070 
# 
# 
# High freq. dielectric constant tensor:
#      x y z
#    x 1.691690 0.000000 0.000000 
#    y 0.000000 1.673360 0.000000 
#    z 0.000000 0.000000 1.678590 
# 
# From -- ./inp_files/60894.got.cif
#   From: 2010.06.25/outbox.cif.g09.slc.cpg/sg71_31_cif.got.tgz:60894.got - 2010.06.28 04:59:45.
