data_PCOD8288313
_publ_section_title
;
Structure prediction by ZEFSAII (Michael W. Deem and Ramdas Pophale) SiO2 
 PCOD8288313
Probable space group: I M M M
;
_chemical_formula_sum "Si O2"
_cell_formula_units_Z 96
_cell_length_a 24.420708
_cell_length_b 24.467321
_cell_length_c 8.830010
_cell_angle_alpha 90.000000
_cell_angle_beta 90.000000
_cell_angle_gamma 90.000000
_cell_volume 5276.013109
_symmetry_space_group_name_H-M "I M M M"
_symmetry_group_IT_number 71
_symmetry_cell_setting 'orthorhombic'
loop_
_space_group_symop_operation_xyz
x,y,z
-x,-y,z
x,-y,-z
-x,y,-z
-x,-y,-z
x,y,-z
-x,y,z
x,-y,z
1/2+x,1/2+y,1/2+z
1/2-x,1/2-y,1/2+z
1/2+x,1/2-y,1/2-z
1/2-x,1/2+y,1/2-z
1/2-x,1/2-y,1/2-z
1/2+x,1/2+y,1/2-z
1/2-x,1/2+y,1/2+z
1/2+x,1/2-y,1/2+z
loop_
_atom_site_type_symbol
_atom_site_label
_atom_site_fract_x
_atom_site_fract_y
_atom_site_fract_z
Si Si1 0.272633 0.353255 0.321866
Si Si2 0.149962 0.937854 0.676435
Si Si3 0.938225 0.561597 0.680141
Si Si4 0.149040 0.648940 0.679375
Si Si5 0.559746 0.643656 0.177217
Si Si6 0.647621 0.728162 0.180168
O O1 0.275325 0.344077 0.500000
O O2 0.305201 0.407071 0.274963
O O3 0.210573 0.364693 0.268131
O O4 0.296679 0.298278 0.245758
O O5 0.164737 0.930591 0.500000
O O6 0.089853 0.913591 0.710604
O O7 0.149482 0.000000 0.728800
O O8 0.935997 0.563151 0.500000
O O9 0.923272 0.500000 0.735673
O O10 0.894560 0.605332 0.748805
O O11 0.000000 0.576832 0.734151
O O12 0.143877 0.646897 0.500000
O O13 0.136979 0.710379 0.737503
O O14 0.500000 0.643308 0.256127
O O15 0.596253 0.693191 0.241880
O O16 0.552506 0.652572 0.000000
O O17 0.653224 0.725391 0.000000
#
# Coordination Sequence:
#
# PCOD8288313 Si02
#       6
#    16  16  16  16  16  16
#     4  10  19  30  45  66  93 123 152 185 225 266
#     4   9  18  32  48  66  91 122 153 187 226 266
#     4   8  14  25  40  60  90 122 146 177 227 278
#     4   9  17  27  42  65  89 118 155 186 218 267
#     4   8  14  25  43  67  90 112 142 183 228 266
#     4   9  17  30  46  65  92 121 149 186 227 266
#
# _framework density 18.195557999999998
#
# number of rings (size 3 to 8) (size 9 to 14) (size 15 to 20)
#    0.000    3.167    0.000    2.500    0.000    2.000 
#    0.000    7.500    0.000    8.000    0.000    4.667 
#    0.000    5.333    0.000   18.333    0.000   16.333 
#
# Total GULP energy -594854.161440 kJ/mol
# GULP energy per Si atom -12392.795030 kJ/mol
# Density = 1.815414 g / cm^3
# Si number density = 18.195558 Si / 1000 Ang^3
#
#
#
# Elastic Constant Matrix: (Units=GPa)
#
#
# Indices 1 2 3 4 5 6 
#
# 1 142.7964 90.8108 13.4055 0.0000 0.0000 0.0000
# 2 90.8108 157.3868 15.4078 0.0000 0.0000 0.0000
# 3 13.4055 15.4078 18.3186 0.0000 0.0000 0.0000
# 4 0.0000 0.0000 0.0000 15.6293 0.0000 0.0000
# 5 0.0000 0.0000 0.0000 0.0000 17.9495 0.0000
# 6 0.0000 0.0000 0.0000 0.0000 0.0000 27.5175
#
#
#
# Elastic Compliance Matrix: (Units=1/GPa)
#
#
# Indices 1 2 3 4 5 6 
#
# 1 0.011212 -0.006175 -0.003012 0.000000 0.000000 0.000000
# 2 -0.006175 0.010324 -0.004165 0.000000 0.000000 0.000000
# 3 -0.003012 -0.004165 0.060296 0.000000 0.000000 0.000000
# 4 0.000000 0.000000 0.000000 0.063982 0.000000 0.000000
# 5 0.000000 0.000000 0.000000 0.000000 0.055712 0.000000
# 6 0.000000 0.000000 0.000000 0.000000 0.000000 0.036341
#
#
# Mechanical properties :
#
#
# Convention : Reuss Voigt Hill
#
# Bulk Modulus (GPa) = 18.13890 61.97225 40.05557
# Shear Modulus (GPa) = 17.67112 25.47778 21.57445
#
# Velocity S-wave (km/s) = 3.11975 3.74601 3.44713
# Velocity P-wave (km/s) = 4.79246 7.26932 6.15673
#
# Compressibility (1/GPa) = 0.05513012
#
# Stress axis : x y z
#
# Youngs Moduli (GPa) = 89.18646 96.85938 16.58471
#
# Poissons Ratio (x) = 0.59807 0.04995
# Poissons Ratio (y) = 0.55070 0.06908
# Poissons Ratio (z) = 0.26861 0.40343
#
# Static dielectric constant tensor:
#      x y z
#    x 3.703510 0.000000 0.000000 
#    y 0.000000 3.614330 0.000000 
#    z 0.000000 0.000000 2.827460 
# 
# 
# High freq. dielectric constant tensor:
#      x y z
#    x 1.711710 0.000000 0.000000 
#    y 0.000000 1.712240 0.000000 
#    z 0.000000 0.000000 1.647810 
# 
# From -- ./inp_files/12823.got.cif
#   From: 2010.06.25/outbox.cif.g09.slc.cpg/sg71_7_cif.got.tgz:12823.got - 2010.06.28 04:59:45.
