data_PCOD8288100
_publ_section_title
;
Structure prediction by ZEFSAII (Michael W. Deem and Ramdas Pophale) SiO2 
 PCOD8288100
Probable space group: I M M M
;
_chemical_formula_sum "Si O2"
_cell_formula_units_Z 112
_cell_length_a 32.102968
_cell_length_b 31.977612
_cell_length_c 9.029970
_cell_angle_alpha 90.000000
_cell_angle_beta 90.000000
_cell_angle_gamma 90.000000
_cell_volume 9269.952783
_symmetry_space_group_name_H-M "I M M M"
_symmetry_group_IT_number 71
_symmetry_cell_setting 'orthorhombic'
loop_
_space_group_symop_operation_xyz
x,y,z
-x,-y,z
x,-y,-z
-x,y,-z
-x,-y,-z
x,y,-z
-x,y,z
x,-y,z
1/2+x,1/2+y,1/2+z
1/2-x,1/2-y,1/2+z
1/2+x,1/2-y,1/2-z
1/2-x,1/2+y,1/2-z
1/2-x,1/2-y,1/2-z
1/2+x,1/2+y,1/2-z
1/2-x,1/2+y,1/2+z
1/2+x,1/2-y,1/2+z
loop_
_atom_site_type_symbol
_atom_site_label
_atom_site_fract_x
_atom_site_fract_y
_atom_site_fract_z
Si Si1 0.838826 0.790924 0.332627
Si Si2 0.616840 0.638590 0.674010
Si Si3 0.822080 0.000000 0.324240
Si Si4 0.211313 0.271694 0.826435
Si Si5 0.741549 0.650706 0.835639
Si Si6 0.196604 0.083475 0.827665
Si Si7 0.083315 0.000000 0.324622
Si Si8 0.548289 0.587246 0.172587
O O1 0.853222 0.781695 0.500000
O O2 0.874864 0.816568 0.249024
O O3 0.830703 0.746578 0.248956
O O4 0.796927 0.817658 0.328048
O O5 0.613737 0.645477 0.500000
O O6 0.653143 0.605646 0.714912
O O7 0.573451 0.621659 0.736226
O O8 0.799014 0.959287 0.262322
O O9 0.869515 0.000000 0.265218
O O10 0.819693 0.000000 0.500000
O O11 0.250000 0.250000 0.750000
O O12 0.216644 0.321993 0.801634
O O13 0.211217 0.260655 0.000000
O O14 0.735157 0.613402 0.718599
O O15 0.744264 0.631043 0.000000
O O16 0.199839 0.073675 0.000000
O O17 0.059652 0.041118 0.265886
O O18 0.082497 0.000000 0.500000
O O19 0.500000 0.595857 0.200258
O O20 0.560177 0.590942 0.000000
#
# Coordination Sequence:
#
# PCOD8288100 Si02
#       8
#    16  16   8  16  16  16   8  16
#     4   9  16  25  38  53  69  88 109 130 153 186
#     4  10  19  29  40  53  70  87 105 131 164 203
#     4  11  19  28  43  53  64  86 110 137 171 211
#     4   9  15  23  35  52  72  91 109 128 151 182
#     4   8  15  25  36  50  68  89 109 127 151 187
#     4  10  19  28  38  52  68  85 107 136 166 197
#     4   9  17  29  44  57  65  79 103 135 171 213
#     4  10  19  31  45  57  68  83 106 135 169 212
#
# _framework density 12.082046
#
# number of rings (size 3 to 8) (size 9 to 14) (size 15 to 20)
#    0.000    2.571    1.429    3.000    0.000    6.286 
#    0.000    0.357    0.000    0.857    0.000    0.000 
#    0.000    0.000    0.000    0.000    0.000    0.000 
#
# Total GULP energy -694167.885817 kJ/mol
# GULP energy per Si atom -12395.855104 kJ/mol
# Density = 1.205455 g / cm^3
# Si number density = 12.082046 Si / 1000 Ang^3
#
#
#
# Elastic Constant Matrix: (Units=GPa)
#
#
# Indices 1 2 3 4 5 6 
#
# 1 36.0894 38.9967 26.0186 0.0000 0.0000 0.0000
# 2 38.9967 66.5705 41.8163 0.0000 0.0000 0.0000
# 3 26.0186 41.8163 73.3289 0.0000 0.0000 0.0000
# 4 0.0000 0.0000 0.0000 21.2192 0.0000 0.0000
# 5 0.0000 0.0000 0.0000 0.0000 14.7566 0.0000
# 6 0.0000 0.0000 0.0000 0.0000 0.0000 16.6938
#
#
#
# Elastic Compliance Matrix: (Units=1/GPa)
#
#
# Indices 1 2 3 4 5 6 
#
# 1 0.075780 -0.042851 -0.002452 0.000000 0.000000 0.000000
# 2 -0.042851 0.047637 -0.011961 0.000000 0.000000 0.000000
# 3 -0.002452 -0.011961 0.021328 0.000000 0.000000 0.000000
# 4 0.000000 0.000000 0.000000 0.047127 0.000000 0.000000
# 5 0.000000 0.000000 0.000000 0.000000 0.067766 0.000000
# 6 0.000000 0.000000 0.000000 0.000000 0.000000 0.059902
#
#
# Mechanical properties :
#
#
# Convention : Reuss Voigt Hill
#
# Bulk Modulus (GPa) = 33.09435 43.29468 38.19451
# Shear Modulus (GPa) = 11.25766 15.14441 13.20104
#
# Velocity S-wave (km/s) = 3.05580 3.54427 3.30906
# Velocity P-wave (km/s) = 6.31675 7.25678 6.80302
#
# Compressibility (1/GPa) = 0.03021664
#
# Stress axis : x y z
#
# Youngs Moduli (GPa) = 13.19604 20.99206 46.88686
#
# Poissons Ratio (x) = 0.89954 0.11497
# Poissons Ratio (y) = 0.56547 0.56080
# Poissons Ratio (z) = 0.03236 0.25108
#
# Static dielectric constant tensor:
#      x y z
#    x 2.289410 0.000000 0.000000 
#    y 0.000000 2.675850 0.000000 
#    z 0.000000 0.000000 2.562710 
# 
# 
# High freq. dielectric constant tensor:
#      x y z
#    x 1.403730 0.000000 0.000000 
#    y 0.000000 1.443670 0.000000 
#    z 0.000000 0.000000 1.469940 
# 
# From -- ./inp_files/17617.got.cif
#   From: 2010.06.25/outbox.cif.g09.slc.cpg/sg71_9_cif.got.tgz:17617.got - 2010.06.28 04:59:45.
