data_PCOD8288825
_publ_section_title
;
Structure prediction by ZEFSAII (Michael W. Deem and Ramdas Pophale) SiO2 
 PCOD8288825
Probable space group: I M M M
;
_chemical_formula_sum "Si O2"
_cell_formula_units_Z 120
_cell_length_a 27.281985
_cell_length_b 26.936580
_cell_length_c 9.408634
_cell_angle_alpha 90.000000
_cell_angle_beta 90.000000
_cell_angle_gamma 90.000000
_cell_volume 6914.248675
_symmetry_space_group_name_H-M "I M M M"
_symmetry_group_IT_number 71
_symmetry_cell_setting 'orthorhombic'
loop_
_space_group_symop_operation_xyz
x,y,z
-x,-y,z
x,-y,-z
-x,y,-z
-x,-y,-z
x,y,-z
-x,y,z
x,-y,z
1/2+x,1/2+y,1/2+z
1/2-x,1/2-y,1/2+z
1/2+x,1/2-y,1/2-z
1/2-x,1/2+y,1/2-z
1/2-x,1/2-y,1/2-z
1/2+x,1/2+y,1/2-z
1/2-x,1/2+y,1/2+z
1/2+x,1/2-y,1/2+z
loop_
_atom_site_type_symbol
_atom_site_label
_atom_site_fract_x
_atom_site_fract_y
_atom_site_fract_z
Si Si1 0.317183 0.945556 0.668948
Si Si2 0.368101 0.847560 0.665933
Si Si3 0.619551 0.408832 0.335240
Si Si4 0.604664 0.702746 0.663915
Si Si5 0.292308 0.557385 0.162045
Si Si6 0.054807 0.000000 0.169014
Si Si7 0.056876 0.714061 0.336149
Si Si8 0.701302 0.757931 0.337914
O O1 0.314122 0.946107 0.500000
O O2 0.354149 0.902757 0.720431
O O3 0.262268 0.934648 0.724608
O O4 0.335088 0.000000 0.723437
O O5 0.382849 0.847087 0.500000
O O6 0.414174 0.829954 0.757692
O O7 0.321448 0.812139 0.692252
O O8 0.631018 0.417955 0.500000
O O9 0.594949 0.355302 0.310039
O O10 0.670921 0.409918 0.254244
O O11 0.582608 0.450742 0.276121
O O12 0.594702 0.717733 0.500000
O O13 0.567489 0.733042 0.762745
O O14 0.660703 0.716670 0.702991
O O15 0.307442 0.500000 0.173955
O O16 0.295684 0.575849 0.000000
O O17 0.000000 0.000000 0.233311
O O18 0.052248 0.000000 0.000000
O O19 0.073401 0.716845 0.500000
O O20 0.000000 0.701471 0.322172
O O21 0.717219 0.752488 0.500000
O O22 0.750000 0.750000 0.250000
#
# Coordination Sequence:
#
# PCOD8288825 Si02
#       8
#    16  16  16  16  16   8  16  16
#     4   8  15  29  50  77 107 138 171 206 241 287
#     4   9  18  33  53  77 104 134 171 208 246 297
#     4  10  19  32  50  71  97 128 167 215 257 300
#     4   9  20  35  50  72  99 130 171 213 252 300
#     4   9  17  29  47  71 100 136 172 201 241 295
#     4   9  18  32  49  69  93 125 165 209 258 303
#     4  10  21  37  56  77 100 127 164 210 260 311
#     4   9  18  30  43  66  99 131 165 202 244 295
#
# _framework density 17.355464000000001
#
# number of rings (size 3 to 8) (size 9 to 14) (size 15 to 20)
#    0.000    2.867    0.667    2.000    1.867    4.267 
#    0.000    2.000    0.000    2.400    0.000    2.800 
#    0.000    0.000    0.000    0.000    0.000    0.000 
#
# Total GULP energy -743882.645834 kJ/mol
# GULP energy per Si atom -12398.044097 kJ/mol
# Density = 1.731596 g / cm^3
# Si number density = 17.355464 Si / 1000 Ang^3
#
#
#
# Elastic Constant Matrix: (Units=GPa)
#
#
# Indices 1 2 3 4 5 6 
#
# 1 92.2490 56.2250 47.1079 0.0000 0.0000 0.0000
# 2 56.2250 127.8618 38.5691 0.0000 0.0000 0.0000
# 3 47.1079 38.5691 64.8655 0.0000 0.0000 0.0000
# 4 0.0000 0.0000 0.0000 15.1247 0.0000 0.0000
# 5 0.0000 0.0000 0.0000 0.0000 28.5813 0.0000
# 6 0.0000 0.0000 0.0000 0.0000 0.0000 17.4374
#
#
#
# Elastic Compliance Matrix: (Units=1/GPa)
#
#
# Indices 1 2 3 4 5 6 
#
# 1 0.019821 -0.005330 -0.011226 0.000000 0.000000 0.000000
# 2 -0.005330 0.010963 -0.002648 0.000000 0.000000 0.000000
# 3 -0.011226 -0.002648 0.025144 0.000000 0.000000 0.000000
# 4 0.000000 0.000000 0.000000 0.066117 0.000000 0.000000
# 5 0.000000 0.000000 0.000000 0.000000 0.034988 0.000000
# 6 0.000000 0.000000 0.000000 0.000000 0.000000 0.057348
#
#
# Mechanical properties :
#
#
# Convention : Reuss Voigt Hill
#
# Bulk Modulus (GPa) = 57.07498 63.19781 60.13639
# Shear Modulus (GPa) = 19.33266 21.76696 20.54981
#
# Velocity S-wave (km/s) = 3.34117 3.54529 3.44474
# Velocity P-wave (km/s) = 6.91678 7.29737 7.10962
#
# Compressibility (1/GPa) = 0.01752081
#
# Stress axis : x y z
#
# Youngs Moduli (GPa) = 50.45072 91.21222 39.77123
#
# Poissons Ratio (x) = 0.48614 0.44647
# Poissons Ratio (y) = 0.26889 0.10532
# Poissons Ratio (z) = 0.56636 0.24154
#
# Static dielectric constant tensor:
#      x y z
#    x 3.072510 0.000000 0.000000 
#    y 0.000000 3.479760 0.000000 
#    z 0.000000 0.000000 3.041300 
# 
# 
# High freq. dielectric constant tensor:
#      x y z
#    x 1.656130 0.000000 0.000000 
#    y 0.000000 1.672830 0.000000 
#    z 0.000000 0.000000 1.647450 
# 
# From -- ./inp_files/15664.got.cif
#   From: 2010.06.25/outbox.cif.g09.slc.cpg/sg71_8_cif.got.tgz:15664.got - 2010.06.28 04:59:45.
