data_PCOD8288280
_publ_section_title
;
Structure prediction by ZEFSAII (Michael W. Deem and Ramdas Pophale) SiO2 
 PCOD8288280
Probable space group: I M M M
;
_chemical_formula_sum "Si O2"
_cell_formula_units_Z 104
_cell_length_a 24.950613
_cell_length_b 32.803467
_cell_length_c 8.633839
_cell_angle_alpha 90.000000
_cell_angle_beta 90.000000
_cell_angle_gamma 90.000000
_cell_volume 7066.508939
_symmetry_space_group_name_H-M "I M M M"
_symmetry_group_IT_number 71
_symmetry_cell_setting 'orthorhombic'
loop_
_space_group_symop_operation_xyz
x,y,z
-x,-y,z
x,-y,-z
-x,y,-z
-x,-y,-z
x,y,-z
-x,y,z
x,-y,z
1/2+x,1/2+y,1/2+z
1/2-x,1/2-y,1/2+z
1/2+x,1/2-y,1/2-z
1/2-x,1/2+y,1/2-z
1/2-x,1/2-y,1/2-z
1/2+x,1/2+y,1/2-z
1/2-x,1/2+y,1/2+z
1/2+x,1/2-y,1/2+z
loop_
_atom_site_type_symbol
_atom_site_label
_atom_site_fract_x
_atom_site_fract_y
_atom_site_fract_z
Si Si1 0.442763 0.241335 0.680873
Si Si2 0.723955 0.312447 0.181053
Si Si3 0.611565 0.546630 0.182445
Si Si4 0.000000 0.048199 0.826763
Si Si5 0.653662 0.377979 0.318626
Si Si6 0.672349 0.233508 0.682901
Si Si7 0.940511 0.172003 0.677401
O O1 0.448086 0.235124 0.500000
O O2 0.500000 0.225830 0.756406
O O3 0.387692 0.218794 0.735240
O O4 0.434690 0.288668 0.715405
O O5 0.707255 0.353566 0.270143
O O6 0.685734 0.275120 0.227906
O O7 0.785402 0.301802 0.226782
O O8 0.717732 0.320364 0.000000
O O9 0.622117 0.500000 0.233207
O O10 0.552954 0.562173 0.235428
O O11 0.656725 0.574675 0.265819
O O12 0.616009 0.551791 0.000000
O O13 0.000000 0.000000 0.837494
O O14 0.000000 0.067239 0.000000
O O15 0.645350 0.374418 0.500000
O O16 0.602524 0.360736 0.228817
O O17 0.674810 0.243172 0.500000
O O18 0.930024 0.184846 0.500000
O O19 0.000000 0.152976 0.697177
#
# Coordination Sequence:
#
# PCOD8288280 Si02
#       7
#    16  16  16   8  16  16  16
#     4   9  16  27  43  62  84 108 135 169 210 254
#     4  10  19  30  44  61  82 109 141 175 209 247
#     4  10  21  36  51  64  80 103 132 169 212 257
#     4   9  17  31  49  67  85 105 131 163 205 257
#     4  12  23  33  46  62  82 105 138 175 214 258
#     4   9  17  29  44  62  84 110 139 171 210 251
#     4  10  20  31  42  58  80 105 135 172 215 257
#
# _framework density 14.717309999999999
#
# number of rings (size 3 to 8) (size 9 to 14) (size 15 to 20)
#    0.000    2.077    1.538    3.000    1.077    3.385 
#    0.000    0.000    0.000    0.000    0.000    0.000 
#    0.000    0.000    0.000    0.000    0.000    0.769 
#
# Total GULP energy -644415.349365 kJ/mol
# GULP energy per Si atom -12392.602872 kJ/mol
# Density = 1.468381 g / cm^3
# Si number density = 14.717310 Si / 1000 Ang^3
#
#
#
# Elastic Constant Matrix: (Units=GPa)
#
#
# Indices 1 2 3 4 5 6 
#
# 1 118.5318 39.5099 18.2118 0.0000 0.0000 0.0000
# 2 39.5099 57.7233 11.1828 0.0000 0.0000 0.0000
# 3 18.2118 11.1828 28.9152 0.0000 0.0000 0.0000
# 4 0.0000 0.0000 0.0000 18.4515 0.0000 0.0000
# 5 0.0000 0.0000 0.0000 0.0000 16.1699 0.0000
# 6 0.0000 0.0000 0.0000 0.0000 0.0000 22.0747
#
#
#
# Elastic Compliance Matrix: (Units=1/GPa)
#
#
# Indices 1 2 3 4 5 6 
#
# 1 0.011452 -0.006963 -0.004520 0.000000 0.000000 0.000000
# 2 -0.006963 0.022961 -0.004494 0.000000 0.000000 0.000000
# 3 -0.004520 -0.004494 0.039169 0.000000 0.000000 0.000000
# 4 0.000000 0.000000 0.000000 0.054196 0.000000 0.000000
# 5 0.000000 0.000000 0.000000 0.000000 0.061843 0.000000
# 6 0.000000 0.000000 0.000000 0.000000 0.000000 0.045301
#
#
# Mechanical properties :
#
#
# Convention : Reuss Voigt Hill
#
# Bulk Modulus (GPa) = 24.02295 38.10880 31.06587
# Shear Modulus (GPa) = 17.80932 20.42360 19.11646
#
# Velocity S-wave (km/s) = 3.48241 3.72926 3.60795
# Velocity P-wave (km/s) = 5.70333 6.67033 6.20569
#
# Compressibility (1/GPa) = 0.04162687
#
# Stress axis : x y z
#
# Youngs Moduli (GPa) = 87.32155 43.55287 25.53046
#
# Poissons Ratio (x) = 0.30325 0.11540
# Poissons Ratio (y) = 0.60801 0.11475
# Poissons Ratio (z) = 0.39469 0.19575
#
# Static dielectric constant tensor:
#      x y z
#    x 3.201040 0.000000 0.000000 
#    y 0.000000 2.670050 0.000000 
#    z 0.000000 0.000000 2.920760 
# 
# 
# High freq. dielectric constant tensor:
#      x y z
#    x 1.551200 0.000000 0.000000 
#    y 0.000000 1.517480 0.000000 
#    z 0.000000 0.000000 1.574680 
# 
# From -- ./inp_files/15542.got.cif
#   From: 2010.06.25/outbox.cif.g09.slc.cpg/sg71_8_cif.got.tgz:15542.got - 2010.06.28 04:59:45.
