data_PCOD8288324
_publ_section_title
;
Structure prediction by ZEFSAII (Michael W. Deem and Ramdas Pophale) SiO2 
 PCOD8288324
Probable space group: I M M M
;
_chemical_formula_sum "Si O2"
_cell_formula_units_Z 88
_cell_length_a 21.030404
_cell_length_b 28.110825
_cell_length_c 7.951671
_cell_angle_alpha 90.000000
_cell_angle_beta 90.000000
_cell_angle_gamma 90.000000
_cell_volume 4700.884817
_symmetry_space_group_name_H-M "I M M M"
_symmetry_group_IT_number 71
_symmetry_cell_setting 'orthorhombic'
loop_
_space_group_symop_operation_xyz
x,y,z
-x,-y,z
x,-y,-z
-x,y,-z
-x,-y,-z
x,y,-z
-x,y,z
x,-y,z
1/2+x,1/2+y,1/2+z
1/2-x,1/2-y,1/2+z
1/2+x,1/2-y,1/2-z
1/2-x,1/2+y,1/2-z
1/2-x,1/2-y,1/2-z
1/2+x,1/2+y,1/2-z
1/2-x,1/2+y,1/2+z
1/2+x,1/2-y,1/2+z
loop_
_atom_site_type_symbol
_atom_site_label
_atom_site_fract_x
_atom_site_fract_y
_atom_site_fract_z
Si Si1 0.634958 0.212250 0.806669
Si Si2 0.737466 0.136054 0.799440
Si Si3 0.570641 0.943708 0.000000
Si Si4 0.343221 0.945152 0.690501
Si Si5 0.864513 0.182379 0.195411
Si Si6 0.000000 0.707400 0.185828
Si Si7 0.500000 0.679799 0.686452
O O1 0.685024 0.173943 0.737429
O O2 0.647327 0.261434 0.711042
O O3 0.563991 0.191070 0.781109
O O4 0.647253 0.222796 0.000000
O O5 0.720964 0.085333 0.716102
O O6 0.806111 0.152506 0.727368
O O7 0.737732 0.131697 0.000000
O O8 0.606011 0.926637 0.829518
O O9 0.500000 0.921276 0.000000
O O10 0.565903 0.000000 0.000000
O O11 0.369964 0.938678 0.500000
O O12 0.325598 0.000000 0.723958
O O13 0.932962 0.166234 0.279092
O O14 0.869304 0.170842 0.000000
O O15 0.000000 0.763756 0.172722
O O16 0.000000 0.684637 0.000000
O O17 0.500000 0.657331 0.500000
#
# Coordination Sequence:
#
# PCOD8288324 Si02
#       7
#    16  16   8  16  16   8   8
#     4  10  19  30  45  69  99 131 169 210 251 297
#     4  10  20  33  49  72 102 137 172 210 257 309
#     4   9  18  36  60  80 104 135 167 215 269 310
#     4  10  21  37  57  79 103 134 174 217 261 312
#     4   9  17  30  49  71 100 137 171 202 249 303
#     4   9  17  31  47  61  88 131 172 207 251 298
#     4   7  12  25  45  67  90 123 166 208 242 291
#
# _framework density 18.71988
#
# number of rings (size 3 to 8) (size 9 to 14) (size 15 to 20)
#    0.000    2.636    0.909    2.455    0.000    2.545 
#    1.636    1.818    0.000    0.000    0.000    0.636 
#    0.000    5.091    0.000    0.000    0.000    0.000 
#
# Total GULP energy -545193.572919 kJ/mol
# GULP energy per Si atom -12390.763021 kJ/mol
# Density = 1.867727 g / cm^3
# Si number density = 18.719880 Si / 1000 Ang^3
#
#
#
# Elastic Constant Matrix: (Units=GPa)
#
#
# Indices 1 2 3 4 5 6 
#
# 1 182.5433 63.4995 37.8926 0.0000 0.0000 0.0000
# 2 63.4995 61.1834 19.2402 0.0000 0.0000 0.0000
# 3 37.8926 19.2402 60.1013 0.0000 0.0000 0.0000
# 4 0.0000 0.0000 0.0000 19.9996 0.0000 0.0000
# 5 0.0000 0.0000 0.0000 0.0000 15.6537 0.0000
# 6 0.0000 0.0000 0.0000 0.0000 0.0000 18.0057
#
#
#
# Elastic Compliance Matrix: (Units=1/GPa)
#
#
# Indices 1 2 3 4 5 6 
#
# 1 0.009034 -0.008434 -0.002996 0.000000 0.000000 0.000000
# 2 -0.008434 0.026047 -0.003021 0.000000 0.000000 0.000000
# 3 -0.002996 -0.003021 0.019495 0.000000 0.000000 0.000000
# 4 0.000000 0.000000 0.000000 0.050001 0.000000 0.000000
# 5 0.000000 0.000000 0.000000 0.000000 0.063883 0.000000
# 6 0.000000 0.000000 0.000000 0.000000 0.000000 0.055538
#
#
# Mechanical properties :
#
#
# Convention : Reuss Voigt Hill
#
# Bulk Modulus (GPa) = 38.94953 60.56586 49.75769
# Shear Modulus (GPa) = 19.12363 22.94484 21.03424
#
# Velocity S-wave (km/s) = 3.19967 3.50479 3.35570
# Velocity P-wave (km/s) = 5.87385 6.98585 6.45384
#
# Compressibility (1/GPa) = 0.02567425
#
# Stress axis : x y z
#
# Youngs Moduli (GPa) = 110.69622 38.39170 51.29644
#
# Poissons Ratio (x) = 0.32378 0.15367
# Poissons Ratio (y) = 0.93357 0.15498
# Poissons Ratio (z) = 0.33161 0.11599
#
# Static dielectric constant tensor:
#      x y z
#    x 4.081180 0.000000 0.000000 
#    y 0.000000 3.115450 0.000000 
#    z 0.000000 0.000000 3.341130 
# 
# 
# High freq. dielectric constant tensor:
#      x y z
#    x 1.732710 0.000000 0.000000 
#    y 0.000000 1.681290 0.000000 
#    z 0.000000 0.000000 1.718100 
# 
# From -- ./inp_files/11428.got.cif
#   From: 2010.06.25/outbox.cif.g09.slc.cpg/sg71_6_cif.got.tgz:11428.got - 2010.06.28 04:59:45.
