data_PCOD8288500
_publ_section_title
;
Structure prediction by ZEFSAII (Michael W. Deem and Ramdas Pophale) SiO2 
 PCOD8288500
Probable space group: I M M M
;
_chemical_formula_sum "Si O2"
_cell_formula_units_Z 104
_cell_length_a 17.768383
_cell_length_b 13.930531
_cell_length_c 25.412432
_cell_angle_alpha 90.000000
_cell_angle_beta 90.000000
_cell_angle_gamma 90.000000
_cell_volume 6290.161665
_symmetry_space_group_name_H-M "I M M M"
_symmetry_group_IT_number 71
_symmetry_cell_setting 'orthorhombic'
loop_
_space_group_symop_operation_xyz
x,y,z
-x,-y,z
x,-y,-z
-x,y,-z
-x,-y,-z
x,y,-z
-x,y,z
x,-y,z
1/2+x,1/2+y,1/2+z
1/2-x,1/2-y,1/2+z
1/2+x,1/2-y,1/2-z
1/2-x,1/2+y,1/2-z
1/2-x,1/2-y,1/2-z
1/2+x,1/2+y,1/2-z
1/2-x,1/2+y,1/2+z
1/2+x,1/2-y,1/2+z
loop_
_atom_site_type_symbol
_atom_site_label
_atom_site_fract_x
_atom_site_fract_y
_atom_site_fract_z
Si Si1 0.088608 0.248754 0.912091
Si Si2 0.337107 0.111992 0.105916
Si Si3 0.284162 0.277849 0.334424
Si Si4 0.081351 0.611241 0.711048
Si Si5 0.410712 0.105974 0.500000
Si Si6 0.084059 0.386208 0.500000
Si Si7 0.765116 0.613681 0.237880
Si Si8 0.911185 0.104019 0.000000
O O1 0.133035 0.244194 0.857185
O O2 0.000000 0.251055 0.899059
O O3 0.114230 0.341066 0.946378
O O4 0.112666 0.157313 0.946851
O O5 0.265603 0.178430 0.118625
O O6 0.400846 0.128444 0.149815
O O7 0.370625 0.148804 0.051017
O O8 0.312650 0.000000 0.104348
O O9 0.288659 0.355200 0.286487
O O10 0.247173 0.177092 0.313786
O O11 0.074110 0.500000 0.722876
O O12 0.149911 0.648185 0.746915
O O13 0.000000 0.660315 0.724150
O O14 0.500000 0.103445 0.500000
O O15 0.374963 0.000000 0.500000
O O16 0.077544 0.500000 0.500000
O O17 0.000000 0.341737 0.500000
O O18 0.756463 0.500000 0.227156
O O19 0.000000 0.095569 0.000000
O O20 0.871767 0.000000 0.000000
#
# Coordination Sequence:
#
# PCOD8288500 Si02
#       8
#    16  16  16  16   8   8  16   8
#     4   9  18  30  45  68  92 116 152 189 218 256
#     4   9  17  28  43  65  93 123 147 169 211 268
#     4  10  19  31  46  63  87 118 150 186 224 265
#     4   8  13  24  43  64  85 109 137 170 213 268
#     4   8  15  30  48  65  91 121 141 168 217 267
#     4   9  16  26  43  71 102 121 136 168 215 268
#     4   9  19  33  46  62  86 116 148 186 232 272
#     4   8  15  28  43  60  85 114 141 172 210 248
#
# _framework density 16.533756
#
# number of rings (size 3 to 8) (size 9 to 14) (size 15 to 20)
#    0.000    3.154    0.000    2.769    0.000    5.538 
#    0.000    0.769    0.000    0.000    0.000    0.000 
#    0.000    0.615    0.000    0.000    0.000    0.000 
#
# Total GULP energy -644313.453704 kJ/mol
# GULP energy per Si atom -12390.643340 kJ/mol
# Density = 1.649612 g / cm^3
# Si number density = 16.533756 Si / 1000 Ang^3
#
#
#
# Elastic Constant Matrix: (Units=GPa)
#
#
# Indices 1 2 3 4 5 6 
#
# 1 70.1455 27.5652 40.8803 0.0000 0.0000 0.0000
# 2 27.5652 103.1079 38.3281 0.0000 0.0000 0.0000
# 3 40.8803 38.3281 84.9884 0.0000 0.0000 0.0000
# 4 0.0000 0.0000 0.0000 18.4991 0.0000 0.0000
# 5 0.0000 0.0000 0.0000 0.0000 15.2958 0.0000
# 6 0.0000 0.0000 0.0000 0.0000 0.0000 12.8470
#
#
#
# Elastic Compliance Matrix: (Units=1/GPa)
#
#
# Indices 1 2 3 4 5 6 
#
# 1 0.020198 -0.002148 -0.008746 0.000000 0.000000 0.000000
# 2 -0.002148 0.011880 -0.004324 0.000000 0.000000 0.000000
# 3 -0.008746 -0.004324 0.017924 0.000000 0.000000 0.000000
# 4 0.000000 0.000000 0.000000 0.054057 0.000000 0.000000
# 5 0.000000 0.000000 0.000000 0.000000 0.065377 0.000000
# 6 0.000000 0.000000 0.000000 0.000000 0.000000 0.077839
#
#
# Mechanical properties :
#
#
# Convention : Reuss Voigt Hill
#
# Bulk Modulus (GPa) = 51.11618 52.42100 51.76859
# Shear Modulus (GPa) = 17.59110 19.42626 18.50868
#
# Velocity S-wave (km/s) = 3.26536 3.43147 3.34945
# Velocity P-wave (km/s) = 6.72311 6.89015 6.80714
#
# Compressibility (1/GPa) = 0.01956328
#
# Stress axis : x y z
#
# Youngs Moduli (GPa) = 49.51062 84.17181 55.79225
#
# Poissons Ratio (x) = 0.18084 0.48798
# Poissons Ratio (y) = 0.10637 0.24127
# Poissons Ratio (z) = 0.43304 0.36400
#
# Static dielectric constant tensor:
#      x y z
#    x 3.550030 0.000000 0.000000 
#    y 0.000000 3.307580 0.000000 
#    z 0.000000 0.000000 3.067840 
# 
# 
# High freq. dielectric constant tensor:
#      x y z
#    x 1.616530 0.000000 0.000000 
#    y 0.000000 1.611570 0.000000 
#    z 0.000000 0.000000 1.634050 
# 
# From -- ./inp_files/60749.got.cif
#   From: 2010.06.25/outbox.cif.g09.slc.cpg/sg71_31_cif.got.tgz:60749.got - 2010.06.28 04:59:45.
