data_PCOD8288261
_publ_section_title
;
Structure prediction by ZEFSAII (Michael W. Deem and Ramdas Pophale) SiO2 
 PCOD8288261
Probable space group: I M M M
;
_chemical_formula_sum "Si O2"
_cell_formula_units_Z 104
_cell_length_a 9.413490
_cell_length_b 29.721660
_cell_length_c 26.325615
_cell_angle_alpha 90.000000
_cell_angle_beta 90.000000
_cell_angle_gamma 90.000000
_cell_volume 7365.500325
_symmetry_space_group_name_H-M "I M M M"
_symmetry_group_IT_number 71
_symmetry_cell_setting 'orthorhombic'
loop_
_space_group_symop_operation_xyz
x,y,z
-x,-y,z
x,-y,-z
-x,y,-z
-x,-y,-z
x,y,-z
-x,y,z
x,-y,z
1/2+x,1/2+y,1/2+z
1/2-x,1/2-y,1/2+z
1/2+x,1/2-y,1/2-z
1/2-x,1/2+y,1/2-z
1/2-x,1/2-y,1/2-z
1/2+x,1/2+y,1/2-z
1/2-x,1/2+y,1/2+z
1/2+x,1/2-y,1/2+z
loop_
_atom_site_type_symbol
_atom_site_label
_atom_site_fract_x
_atom_site_fract_y
_atom_site_fract_z
Si Si1 0.729197 0.604672 0.941422
Si Si2 0.153583 0.050805 0.647662
Si Si3 0.338102 0.750583 0.827471
Si Si4 0.160201 0.617065 0.793844
Si Si5 0.161984 0.817285 0.233731
Si Si6 0.000000 0.549002 0.059549
Si Si7 0.339257 0.184755 0.387068
O O1 0.620348 0.582129 0.902330
O O2 0.760014 0.657540 0.932419
O O3 0.867313 0.577519 0.922972
O O4 0.683957 0.597123 0.000000
O O5 0.269594 0.071230 0.685852
O O6 0.000000 0.049774 0.675387
O O7 0.199714 0.000000 0.632217
O O8 0.500000 0.763153 0.843054
O O9 0.250356 0.795019 0.812223
O O10 0.341750 0.716218 0.781042
O O11 0.255627 0.728604 0.875320
O O12 0.256789 0.636709 0.748348
O O13 0.154657 0.653800 0.837826
O O14 0.000000 0.606967 0.774529
O O15 0.000000 0.827808 0.216471
O O16 0.000000 0.500000 0.085881
O O17 0.000000 0.543081 0.000000
O O18 0.500000 0.198612 0.403189
#
# Coordination Sequence:
#
# PCOD8288261 Si02
#       7
#    16  16  16  16  16   8  16
#     4  10  19  30  43  56  69  90 121 159 200 240
#     4  10  21  33  42  54  73  95 120 154 197 239
#     4   9  16  24  36  54  74  94 114 135 162 205
#     4   9  17  28  42  57  72  91 115 143 175 216
#     4   9  15  24  39  57  76  94 111 132 164 207
#     4   9  16  26  40  56  68  80 108 152 196 234
#     4   9  16  26  38  52  71  90 112 142 181 223
#
# _framework density 14.119882
#
# number of rings (size 3 to 8) (size 9 to 14) (size 15 to 20)
#    0.000    2.692    0.769    1.846    1.077    8.923 
#    0.000    0.769    0.000    0.000    0.000    0.000 
#    0.000    0.000    0.000    0.000    0.000    0.000 
#
# Total GULP energy -644305.808691 kJ/mol
# GULP energy per Si atom -12390.496321 kJ/mol
# Density = 1.408774 g / cm^3
# Si number density = 14.119882 Si / 1000 Ang^3
#
#
#
# Elastic Constant Matrix: (Units=GPa)
#
#
# Indices 1 2 3 4 5 6 
#
# 1 111.3435 40.7171 21.5718 0.0000 0.0000 0.0000
# 2 40.7171 61.9118 37.4843 0.0000 0.0000 0.0000
# 3 21.5718 37.4843 27.1227 0.0000 0.0000 0.0000
# 4 0.0000 0.0000 0.0000 19.5403 0.0000 0.0000
# 5 0.0000 0.0000 0.0000 0.0000 1.4737 0.0000
# 6 0.0000 0.0000 0.0000 0.0000 0.0000 20.5924
#
#
#
# Elastic Compliance Matrix: (Units=1/GPa)
#
#
# Indices 1 2 3 4 5 6 
#
# 1 0.012133 -0.013089 0.008440 0.000000 0.000000 0.000000
# 2 -0.013089 0.113056 -0.145836 0.000000 0.000000 0.000000
# 3 0.008440 -0.145836 0.231706 0.000000 0.000001 0.000000
# 4 0.000000 0.000000 0.000000 0.051176 0.000000 0.000000
# 5 0.000000 0.000000 0.000001 0.000000 0.678554 0.000000
# 6 0.000000 0.000000 0.000000 0.000000 0.000000 0.048562
#
#
# Mechanical properties :
#
#
# Convention : Reuss Voigt Hill
#
# Bulk Modulus (GPa) = 17.88139 44.43603 31.15871
# Shear Modulus (GPa) = 3.43690 15.02828 9.23259
#
# Velocity S-wave (km/s) = 1.56185 3.26595 2.55987
# Velocity P-wave (km/s) = 3.99299 6.76467 5.55449
#
# Compressibility (1/GPa) = 0.05592407
#
# Stress axis : x y z
#
# Youngs Moduli (GPa) = 82.42272 8.84518 4.31582
#
# Poissons Ratio (x) = 0.11577 -0.03642
# Poissons Ratio (y) = 1.07883 0.62940
# Poissons Ratio (z) = -0.69563 1.28995
#
# Static dielectric constant tensor:
#      x y z
#    x 3.223590 0.000000 0.000000 
#    y 0.000000 2.698430 0.000000 
#    z 0.000000 0.000000 2.381180 
# 
# 
# High freq. dielectric constant tensor:
#      x y z
#    x 1.563840 0.000000 0.000000 
#    y 0.000000 1.508640 0.000000 
#    z 0.000000 0.000000 1.472900 
# 
# From -- ./inp_files/63712.got.cif
#   From: 2010.06.25/outbox.cif.g09.slc.cpg/sg71_32_cif.got.tgz:63712.got - 2010.06.28 04:59:45.
