data_PCOD8288446
_publ_section_title
;
Structure prediction by ZEFSAII (Michael W. Deem and Ramdas Pophale) SiO2 
 PCOD8288446
Probable space group: I M M M
;
_chemical_formula_sum "Si O2"
_cell_formula_units_Z 80
_cell_length_a 23.281725
_cell_length_b 21.821370
_cell_length_c 7.687969
_cell_angle_alpha 90.000000
_cell_angle_beta 90.000000
_cell_angle_gamma 90.000000
_cell_volume 3905.789124
_symmetry_space_group_name_H-M "I M M M"
_symmetry_group_IT_number 71
_symmetry_cell_setting 'orthorhombic'
loop_
_space_group_symop_operation_xyz
x,y,z
-x,-y,z
x,-y,-z
-x,y,-z
-x,-y,-z
x,y,-z
-x,y,z
x,-y,z
1/2+x,1/2+y,1/2+z
1/2-x,1/2-y,1/2+z
1/2+x,1/2-y,1/2-z
1/2-x,1/2+y,1/2-z
1/2-x,1/2-y,1/2-z
1/2+x,1/2+y,1/2-z
1/2-x,1/2+y,1/2+z
1/2+x,1/2-y,1/2+z
loop_
_atom_site_type_symbol
_atom_site_label
_atom_site_fract_x
_atom_site_fract_y
_atom_site_fract_z
Si Si1 0.242551 0.432704 0.696311
Si Si2 0.357607 0.608230 0.807138
Si Si3 0.567626 0.070079 0.500000
Si Si4 0.631989 0.139352 0.795994
Si Si5 0.565667 0.500000 0.791588
Si Si6 0.184131 0.764924 0.297482
O O1 0.262712 0.418366 0.500000
O O2 0.215371 0.500000 0.711855
O O3 0.297344 0.427565 0.819961
O O4 0.193990 0.386227 0.755620
O O5 0.403756 0.562122 0.715946
O O6 0.343042 0.673198 0.709409
O O7 0.381095 0.621799 0.000000
O O8 0.500000 0.068006 0.500000
O O9 0.585583 0.106659 0.674100
O O10 0.591859 0.000000 0.500000
O O11 0.638806 0.211210 0.751794
O O12 0.616776 0.127643 0.000000
O O13 0.500000 0.500000 0.728567
O O14 0.571594 0.500000 0.000000
O O15 0.185414 0.777248 0.500000
O O16 0.250000 0.750000 0.250000
#
# Coordination Sequence:
#
# PCOD8288446 Si02
#       6
#    16  16   8  16   8  16
#     4  10  19  30  48  79 116 150 186 238 305 369
#     4  10  19  31  51  81 108 148 202 245 296 359
#     4  11  26  46  68  94 120 159 213 263 309 365
#     4  10  22  40  60  90 128 164 200 248 314 380
#     4   9  18  34  53  75 109 151 199 256 301 340
#     4  10  20  32  52  86 123 158 195 242 309 373
#
# _framework density 20.482417999999999
#
# number of rings (size 3 to 8) (size 9 to 14) (size 15 to 20)
#    0.000    2.000    3.000    0.600    2.800    1.600 
#    0.000    2.000    0.000    4.800    0.000    0.000 
#    0.000    0.000    0.000    0.000    0.000    0.000 
#
# Total GULP energy -495526.728064 kJ/mol
# GULP energy per Si atom -12388.168202 kJ/mol
# Density = 2.043580 g / cm^3
# Si number density = 20.482418 Si / 1000 Ang^3
#
#
#
# Elastic Constant Matrix: (Units=GPa)
#
#
# Indices 1 2 3 4 5 6 
#
# 1 102.5841 70.0932 22.9408 0.0000 0.0000 0.0000
# 2 70.0932 183.3676 27.9192 0.0000 0.0000 0.0000
# 3 22.9408 27.9192 53.2976 0.0000 0.0000 0.0000
# 4 0.0000 0.0000 0.0000 19.3130 0.0000 0.0000
# 5 0.0000 0.0000 0.0000 0.0000 19.2218 0.0000
# 6 0.0000 0.0000 0.0000 0.0000 0.0000 21.6454
#
#
#
# Elastic Compliance Matrix: (Units=1/GPa)
#
#
# Indices 1 2 3 4 5 6 
#
# 1 0.013751 -0.004733 -0.003440 0.000000 0.000000 0.000000
# 2 -0.004733 0.007555 -0.001921 0.000000 0.000000 0.000000
# 3 -0.003440 -0.001921 0.021249 0.000000 0.000000 0.000000
# 4 0.000000 0.000000 0.000000 0.051779 0.000000 0.000000
# 5 0.000000 0.000000 0.000000 0.000000 0.052024 0.000000
# 6 0.000000 0.000000 0.000000 0.000000 0.000000 0.046199
#
#
# Mechanical properties :
#
#
# Convention : Reuss Voigt Hill
#
# Bulk Modulus (GPa) = 44.70388 64.57288 54.63838
# Shear Modulus (GPa) = 22.70666 26.58910 24.64788
#
# Velocity S-wave (km/s) = 3.33317 3.60688 3.47272
# Velocity P-wave (km/s) = 6.05691 6.99576 6.54319
#
# Compressibility (1/GPa) = 0.02236942
#
# Stress axis : x y z
#
# Youngs Moduli (GPa) = 72.72175 132.36208 47.06076
#
# Poissons Ratio (x) = 0.62643 0.16187
# Poissons Ratio (y) = 0.34417 0.09038
# Poissons Ratio (z) = 0.25014 0.25420
#
# Static dielectric constant tensor:
#      x y z
#    x 3.432240 0.000000 0.000000 
#    y 0.000000 4.369170 0.000000 
#    z 0.000000 0.000000 3.570080 
# 
# 
# High freq. dielectric constant tensor:
#      x y z
#    x 1.761980 0.000000 0.000000 
#    y 0.000000 1.825950 0.000000 
#    z 0.000000 0.000000 1.780860 
# 
# From -- ./inp_files/10268.got.cif
#   From: 2010.06.25/outbox.cif.g09.slc.cpg/sg71_6_cif.got.tgz:10268.got - 2010.06.28 04:59:45.
