data_PCOD8288226
_publ_section_title
;
Structure prediction by ZEFSAII (Michael W. Deem and Ramdas Pophale) SiO2 
 PCOD8288226
Probable space group: I M M M
;
_chemical_formula_sum "Si O2"
_cell_formula_units_Z 96
_cell_length_a 9.091116
_cell_length_b 19.487730
_cell_length_c 30.803771
_cell_angle_alpha 90.000000
_cell_angle_beta 90.000000
_cell_angle_gamma 90.000000
_cell_volume 5457.356681
_symmetry_space_group_name_H-M "I M M M"
_symmetry_group_IT_number 71
_symmetry_cell_setting 'orthorhombic'
loop_
_space_group_symop_operation_xyz
x,y,z
-x,-y,z
x,-y,-z
-x,y,-z
-x,-y,-z
x,y,-z
-x,y,z
x,-y,z
1/2+x,1/2+y,1/2+z
1/2-x,1/2-y,1/2+z
1/2+x,1/2-y,1/2-z
1/2-x,1/2+y,1/2-z
1/2-x,1/2-y,1/2-z
1/2+x,1/2+y,1/2-z
1/2-x,1/2+y,1/2+z
1/2+x,1/2-y,1/2+z
loop_
_atom_site_type_symbol
_atom_site_label
_atom_site_fract_x
_atom_site_fract_y
_atom_site_fract_z
Si Si1 0.327258 0.674641 0.622619
Si Si2 0.165790 0.669842 0.708490
Si Si3 0.672387 0.166888 0.378931
Si Si4 0.833987 0.166752 0.707571
Si Si5 0.674796 0.423414 0.548036
Si Si6 0.169227 0.920550 0.550029
O O1 0.500000 0.664095 0.629438
O O2 0.248750 0.645321 0.665361
O O3 0.288904 0.753600 0.613268
O O4 0.263165 0.631223 0.582360
O O5 0.167129 0.751613 0.709712
O O6 0.248386 0.638390 0.750317
O O7 0.000000 0.641450 0.708285
O O8 0.500000 0.155570 0.372277
O O9 0.753643 0.139885 0.335744
O O10 0.725412 0.125175 0.420569
O O11 0.000000 0.138106 0.707783
O O12 0.734073 0.404243 0.500000
O O13 0.500000 0.420528 0.547796
O O14 0.727618 0.500000 0.560761
O O15 0.205258 0.903914 0.500000
O O16 0.000000 0.902864 0.560365
O O17 0.200971 0.000000 0.559905
#
# Coordination Sequence:
#
# PCOD8288226 Si02
#       6
#    16  16  16  16  16  16
#     4   9  17  28  44  69  98 124 153 192 237 281
#     4   9  16  26  42  65  93 123 155 191 232 278
#     4  10  19  29  45  72 101 124 150 190 238 281
#     4   9  16  27  44  65  92 125 157 189 228 276
#     4   8  14  26  45  67  90 120 159 197 229 266
#     4   9  19  36  54  69  89 122 161 195 229 276
#
# _framework density 17.590934000000001
#
# number of rings (size 3 to 8) (size 9 to 14) (size 15 to 20)
#    0.000    3.000    0.000    2.500    0.000    6.000 
#    0.000    2.500    0.000    2.000    0.000    3.500 
#    0.000    0.000    0.000    0.000    0.000    0.000 
#
# Total GULP energy -595107.826988 kJ/mol
# GULP energy per Si atom -12398.079729 kJ/mol
# Density = 1.755090 g / cm^3
# Si number density = 17.590934 Si / 1000 Ang^3
#
#
#
# Elastic Constant Matrix: (Units=GPa)
#
#
# Indices 1 2 3 4 5 6 
#
# 1 91.2141 33.1475 65.8144 0.0000 0.0000 0.0000
# 2 33.1475 49.7501 59.7583 0.0000 0.0000 0.0000
# 3 65.8144 59.7583 159.9821 0.0000 0.0000 0.0000
# 4 0.0000 0.0000 0.0000 3.7678 0.0000 0.0000
# 5 0.0000 0.0000 0.0000 0.0000 32.7434 0.0000
# 6 0.0000 0.0000 0.0000 0.0000 0.0000 15.0689
#
#
#
# Elastic Compliance Matrix: (Units=1/GPa)
#
#
# Indices 1 2 3 4 5 6 
#
# 1 0.016269 -0.005080 -0.004796 0.000000 0.000000 0.000000
# 2 -0.005080 0.038044 -0.012121 0.000000 0.000000 0.000000
# 3 -0.004796 -0.012121 0.012751 0.000000 0.000000 0.000000
# 4 0.000000 0.000000 0.000000 0.265407 0.000000 0.000000
# 5 0.000000 0.000000 0.000000 0.000000 0.030541 0.000000
# 6 0.000000 0.000000 0.000000 0.000000 0.000000 0.066362
#
#
# Mechanical properties :
#
#
# Convention : Reuss Voigt Hill
#
# Bulk Modulus (GPa) = 43.34204 68.70961 56.02583
# Shear Modulus (GPa) = 10.39377 19.79777 15.09577
#
# Velocity S-wave (km/s) = 2.43340 3.35842 2.93261
# Velocity P-wave (km/s) = 5.70855 7.36092 6.58675
#
# Compressibility (1/GPa) = 0.02307229
#
# Stress axis : x y z
#
# Youngs Moduli (GPa) = 61.46525 26.28511 78.42447
#
# Poissons Ratio (x) = 0.13352 0.37609
# Poissons Ratio (y) = 0.31222 0.95059
# Poissons Ratio (z) = 0.29476 0.31860
#
# Static dielectric constant tensor:
#      x y z
#    x 3.181010 0.000000 0.000000 
#    y 0.000000 2.940480 0.000000 
#    z 0.000000 0.000000 3.511940 
# 
# 
# High freq. dielectric constant tensor:
#      x y z
#    x 1.670600 0.000000 0.000000 
#    y 0.000000 1.635820 0.000000 
#    z 0.000000 0.000000 1.694800 
# 
# From -- ./inp_files/13156.got.cif
#   From: 2010.06.25/outbox.cif.g09.slc.cpg/sg71_7_cif.got.tgz:13156.got - 2010.06.28 04:59:45.
