data_PCOD8288743
_publ_section_title
;
Structure prediction by ZEFSAII (Michael W. Deem and Ramdas Pophale) SiO2 
 PCOD8288743
Probable space group: I M M M
;
_chemical_formula_sum "Si O2"
_cell_formula_units_Z 104
_cell_length_a 8.428477
_cell_length_b 22.450437
_cell_length_c 27.413280
_cell_angle_alpha 90.000000
_cell_angle_beta 90.000000
_cell_angle_gamma 90.000000
_cell_volume 5187.222859
_symmetry_space_group_name_H-M "I M M M"
_symmetry_group_IT_number 71
_symmetry_cell_setting 'orthorhombic'
loop_
_space_group_symop_operation_xyz
x,y,z
-x,-y,z
x,-y,-z
-x,y,-z
-x,-y,-z
x,y,-z
-x,y,z
x,-y,z
1/2+x,1/2+y,1/2+z
1/2-x,1/2-y,1/2+z
1/2+x,1/2-y,1/2-z
1/2-x,1/2+y,1/2-z
1/2-x,1/2-y,1/2-z
1/2+x,1/2+y,1/2-z
1/2-x,1/2+y,1/2+z
1/2+x,1/2-y,1/2+z
loop_
_atom_site_type_symbol
_atom_site_label
_atom_site_fract_x
_atom_site_fract_y
_atom_site_fract_z
Si Si1 0.500000 0.930894 0.443059
Si Si2 0.323451 0.213388 0.318041
Si Si3 0.315727 0.363871 0.446042
Si Si4 0.674200 0.382241 0.053982
Si Si5 0.824812 0.243778 0.584345
Si Si6 0.679094 0.342629 0.729022
Si Si7 0.189410 0.932244 0.147335
O O1 0.500000 0.912991 0.500000
O O2 0.665280 0.906024 0.418811
O O3 0.500000 0.000000 0.433507
O O4 0.500000 0.199053 0.336225
O O5 0.206134 0.212971 0.363453
O O6 0.314440 0.278869 0.295938
O O7 0.276098 0.161998 0.279360
O O8 0.238269 0.375013 0.500000
O O9 0.500000 0.377490 0.450118
O O10 0.297218 0.295296 0.429911
O O11 0.242324 0.406914 0.404256
O O12 0.500000 0.397938 0.078817
O O13 0.687935 0.310951 0.047207
O O14 0.672251 0.410663 0.000000
O O15 0.000000 0.272579 0.583970
O O16 0.500000 0.360929 0.741977
O O17 0.754087 0.392033 0.692300
O O18 0.000000 0.927827 0.146434
O O19 0.248351 0.000000 0.154066
#
# Coordination Sequence:
#
# PCOD8288743 Si02
#       7
#     8  16  16  16  16  16  16
#     4   9  18  32  52  76 100 136 181 221 265 317
#     4  10  19  31  52  79 106 131 166 220 273 328
#     4  10  20  33  51  78 111 148 190 234 280 330
#     4   9  19  33  49  75 109 143 181 224 271 327
#     4  11  21  33  51  77 110 145 180 222 281 337
#     4   9  17  32  51  76 106 134 172 218 270 327
#     4   9  17  32  54  79 109 145 187 234 279 329
#
# _framework density 20.049263
#
# number of rings (size 3 to 8) (size 9 to 14) (size 15 to 20)
#    0.000    2.385    1.538    1.385    2.154    2.154 
#    0.000    3.077    0.000    2.769    0.000    3.231 
#    0.000    0.000    0.000    0.000    0.000    0.000 
#
# Total GULP energy -644257.585800 kJ/mol
# GULP energy per Si atom -12389.568958 kJ/mol
# Density = 2.000363 g / cm^3
# Si number density = 20.049263 Si / 1000 Ang^3
#
#
#
# Elastic Constant Matrix: (Units=GPa)
#
#
# Indices 1 2 3 4 5 6 
#
# 1 83.2916 28.0178 6.1864 0.0000 0.0000 0.0000
# 2 28.0178 99.2659 37.9461 0.0000 0.0000 0.0000
# 3 6.1864 37.9461 96.0600 0.0000 0.0000 0.0000
# 4 0.0000 0.0000 0.0000 26.1368 0.0000 0.0000
# 5 0.0000 0.0000 0.0000 0.0000 17.8188 0.0000
# 6 0.0000 0.0000 0.0000 0.0000 0.0000 18.1474
#
#
#
# Elastic Compliance Matrix: (Units=1/GPa)
#
#
# Indices 1 2 3 4 5 6 
#
# 1 0.013310 -0.004039 0.000738 0.000000 0.000000 0.000000
# 2 -0.004039 0.013091 -0.004911 0.000000 0.000000 0.000000
# 3 0.000738 -0.004911 0.012303 0.000000 0.000000 0.000000
# 4 0.000000 0.000000 0.000000 0.038260 0.000000 0.000000
# 5 0.000000 0.000000 0.000000 0.000000 0.056121 0.000000
# 6 0.000000 0.000000 0.000000 0.000000 0.000000 0.055104
#
#
# Mechanical properties :
#
#
# Convention : Reuss Voigt Hill
#
# Bulk Modulus (GPa) = 44.88325 46.99089 45.93707
# Shear Modulus (GPa) = 23.58051 26.18508 24.88279
#
# Velocity S-wave (km/s) = 3.43319 3.61783 3.52672
# Velocity P-wave (km/s) = 6.17664 6.39845 6.28852
#
# Compressibility (1/GPa) = 0.02228003
#
# Stress axis : x y z
#
# Youngs Moduli (GPa) = 75.13262 76.38625 81.28298
#
# Poissons Ratio (x) = 0.30852 -0.06001
# Poissons Ratio (y) = 0.30345 0.39921
# Poissons Ratio (z) = -0.05547 0.37516
#
# Static dielectric constant tensor:
#      x y z
#    x 3.687610 0.000000 0.000000 
#    y 0.000000 3.417970 0.000000 
#    z 0.000000 0.000000 3.746990 
# 
# 
# High freq. dielectric constant tensor:
#      x y z
#    x 1.770700 0.000000 0.000000 
#    y 0.000000 1.754990 0.000000 
#    z 0.000000 0.000000 1.766740 
# 
# From -- ./inp_files/63571.got.cif
#   From: 2010.06.25/outbox.cif.g09.slc.cpg/sg71_32_cif.got.tgz:63571.got - 2010.06.28 04:59:45.
