data_PCOD8288215
_publ_section_title
;
Structure prediction by ZEFSAII (Michael W. Deem and Ramdas Pophale) SiO2 
 PCOD8288215
Probable space group: I M M M
;
_chemical_formula_sum "Si O2"
_cell_formula_units_Z 104
_cell_length_a 20.340817
_cell_length_b 19.187407
_cell_length_c 14.570605
_cell_angle_alpha 90.000000
_cell_angle_beta 90.000000
_cell_angle_gamma 90.000000
_cell_volume 5686.725501
_symmetry_space_group_name_H-M "I M M M"
_symmetry_group_IT_number 71
_symmetry_cell_setting 'orthorhombic'
loop_
_space_group_symop_operation_xyz
x,y,z
-x,-y,z
x,-y,-z
-x,y,-z
-x,-y,-z
x,y,-z
-x,y,z
x,-y,z
1/2+x,1/2+y,1/2+z
1/2-x,1/2-y,1/2+z
1/2+x,1/2-y,1/2-z
1/2-x,1/2+y,1/2-z
1/2-x,1/2-y,1/2-z
1/2+x,1/2+y,1/2-z
1/2-x,1/2+y,1/2+z
1/2+x,1/2-y,1/2+z
loop_
_atom_site_type_symbol
_atom_site_label
_atom_site_fract_x
_atom_site_fract_y
_atom_site_fract_z
Si Si1 0.140924 0.583107 0.601250
Si Si2 0.075070 0.662452 0.107884
Si Si3 0.500000 0.924933 0.107403
Si Si4 0.575847 0.419161 0.240143
Si Si5 0.077831 0.819417 0.899289
Si Si6 0.312399 0.082545 0.708480
Si Si7 0.186097 0.917564 0.397765
O O1 0.164105 0.610764 0.500000
O O2 0.133603 0.500000 0.596056
O O3 0.190486 0.604604 0.683239
O O4 0.068724 0.614922 0.629749
O O5 0.097569 0.741421 0.130563
O O6 0.121936 0.610401 0.161529
O O7 0.000000 0.649484 0.140369
O O8 0.081175 0.648054 0.000000
O O9 0.500000 0.000000 0.158866
O O10 0.500000 0.938613 0.000000
O O11 0.500000 0.402088 0.217946
O O12 0.585816 0.500000 0.265250
O O13 0.603791 0.375399 0.325979
O O14 0.617864 0.397372 0.151300
O O15 0.000000 0.824175 0.905993
O O16 0.107629 0.837159 0.000000
O O17 0.247677 0.113436 0.659192
O O18 0.314252 0.000000 0.698912
O O19 0.185801 0.885039 0.500000
O O20 0.193010 0.000000 0.403778
#
# Coordination Sequence:
#
# PCOD8288215 Si02
#       7
#    16  16   8  16  16  16  16
#     4   8  14  24  38  57  82 113 153 201 246 282
#     4   9  18  31  46  66  94 130 168 200 233 274
#     4   7  10  18  32  50  73 101 137 187 239 272
#     4   9  17  30  52  79  97 113 149 195 234 288
#     4   8  15  30  50  71  99 129 150 180 236 295
#     4  10  19  29  45  66  92 130 172 208 239 270
#     4   9  18  32  47  67  99 131 155 189 245 295
#
# _framework density 18.288205000000001
#
# number of rings (size 3 to 8) (size 9 to 14) (size 15 to 20)
#    0.000    3.308    0.000    2.308    1.077    1.846 
#    0.000    5.385    0.000    3.692    0.000    2.154 
#    0.000    0.000    0.000    0.000    0.000    0.000 
#
# Total GULP energy -644236.263464 kJ/mol
# GULP energy per Si atom -12389.158913 kJ/mol
# Density = 1.824658 g / cm^3
# Si number density = 18.288205 Si / 1000 Ang^3
#
#
#
# Elastic Constant Matrix: (Units=GPa)
#
#
# Indices 1 2 3 4 5 6 
#
# 1 86.7116 22.2418 68.4705 0.0000 0.0000 0.0000
# 2 22.2418 27.5422 30.7706 0.0000 0.0000 0.0000
# 3 68.4705 30.7706 135.8850 0.0000 0.0000 0.0000
# 4 0.0000 0.0000 0.0000 14.4321 0.0000 0.0000
# 5 0.0000 0.0000 0.0000 0.0000 30.1359 0.0000
# 6 0.0000 0.0000 0.0000 0.0000 0.0000 9.7974
#
#
#
# Elastic Compliance Matrix: (Units=1/GPa)
#
#
# Indices 1 2 3 4 5 6 
#
# 1 0.019998 -0.006548 -0.008594 0.000000 0.000000 0.000000
# 2 -0.006548 0.050748 -0.008192 0.000000 0.000000 0.000000
# 3 -0.008594 -0.008192 0.013545 0.000000 0.000000 0.000000
# 4 0.000000 0.000000 0.000000 0.069290 0.000000 0.000000
# 5 0.000000 0.000000 0.000000 0.000000 0.033183 0.000000
# 6 0.000000 0.000000 0.000000 0.000000 0.000000 0.102067
#
#
# Mechanical properties :
#
#
# Convention : Reuss Voigt Hill
#
# Bulk Modulus (GPa) = 26.57991 54.78939 40.68465
# Shear Modulus (GPa) = 14.36609 19.45014 16.90812
#
# Velocity S-wave (km/s) = 2.80579 3.26473 3.04392
# Velocity P-wave (km/s) = 5.00620 6.65095 5.88631
#
# Compressibility (1/GPa) = 0.03762240
#
# Stress axis : x y z
#
# Youngs Moduli (GPa) = 50.00435 19.70505 73.82988
#
# Poissons Ratio (x) = 0.12903 0.63449
# Poissons Ratio (y) = 0.32744 0.60483
# Poissons Ratio (z) = 0.42974 0.16143
#
# Static dielectric constant tensor:
#      x y z
#    x 3.349000 0.000000 0.000000 
#    y 0.000000 2.976150 0.000000 
#    z 0.000000 0.000000 3.800490 
# 
# 
# High freq. dielectric constant tensor:
#      x y z
#    x 1.694270 0.000000 0.000000 
#    y 0.000000 1.655220 0.000000 
#    z 0.000000 0.000000 1.717400 
# 
# From -- ./inp_files/36723.got.cif
#   From: 2010.06.25/outbox.cif.g09.slc.cpg/sg71_19_cif.got.tgz:36723.got - 2010.06.28 04:59:45.
