data_PCOD8288714
_publ_section_title
;
Structure prediction by ZEFSAII (Michael W. Deem and Ramdas Pophale) SiO2 
 PCOD8288714
Probable space group: I M M M
;
_chemical_formula_sum "Si O2"
_cell_formula_units_Z 104
_cell_length_a 22.859497
_cell_length_b 9.330745
_cell_length_c 27.696405
_cell_angle_alpha 90.000000
_cell_angle_beta 90.000000
_cell_angle_gamma 90.000000
_cell_volume 5907.536205
_symmetry_space_group_name_H-M "I M M M"
_symmetry_group_IT_number 71
_symmetry_cell_setting 'orthorhombic'
loop_
_space_group_symop_operation_xyz
x,y,z
-x,-y,z
x,-y,-z
-x,y,-z
-x,-y,-z
x,y,-z
-x,y,z
x,-y,z
1/2+x,1/2+y,1/2+z
1/2-x,1/2-y,1/2+z
1/2+x,1/2-y,1/2-z
1/2-x,1/2+y,1/2-z
1/2-x,1/2-y,1/2-z
1/2+x,1/2+y,1/2-z
1/2-x,1/2+y,1/2+z
1/2+x,1/2-y,1/2+z
loop_
_atom_site_type_symbol
_atom_site_label
_atom_site_fract_x
_atom_site_fract_y
_atom_site_fract_z
Si Si1 0.431115 0.164932 0.091867
Si Si2 0.373361 0.169809 0.351197
Si Si3 0.933767 0.162683 0.228666
Si Si4 0.128671 0.837349 0.673917
Si Si5 0.069608 0.838444 0.500000
Si Si6 0.566014 0.829809 0.553413
Si Si7 0.256928 0.164056 0.299201
O O1 0.500000 0.184436 0.097821
O O2 0.400793 0.223157 0.139392
O O3 0.406852 0.255445 0.046773
O O4 0.414185 0.000000 0.083868
O O5 0.422173 0.233310 0.315892
O O6 0.388524 0.225372 0.405498
O O7 0.309354 0.222683 0.333338
O O8 0.378009 0.000000 0.349091
O O9 0.890360 0.203045 0.272019
O O10 0.000000 0.184263 0.246779
O O11 0.922605 0.000000 0.211736
O O12 0.198294 0.822000 0.669269
O O13 0.108433 0.000000 0.661270
O O14 0.000000 0.838923 0.500000
O O15 0.094572 0.000000 0.500000
O O16 0.585668 0.774386 0.500000
O O17 0.500000 0.774913 0.564701
O O18 0.565691 0.000000 0.553283
O O19 0.250000 0.250000 0.250000
O O20 0.268824 0.000000 0.284505
#
# Coordination Sequence:
#
# PCOD8288714 Si02
#       7
#    16  16  16  16   8  16  16
#     4  10  20  33  51  77 105 131 165 212 260 303
#     4  10  19  31  51  76  99 126 166 214 254 294
#     4  10  20  32  47  70 101 135 166 199 246 304
#     4  10  20  34  50  68  97 136 173 206 247 307
#     4   9  17  31  53  77 101 133 167 199 246 309
#     4   8  14  26  46  73 103 131 158 195 250 308
#     4  10  20  34  52  72  97 130 171 211 248 298
#
# _framework density 17.604631999999999
#
# number of rings (size 3 to 8) (size 9 to 14) (size 15 to 20)
#    0.000    2.385    1.538    2.077    0.000    4.615 
#    0.000    0.000    1.692    0.462    0.000    2.154 
#    0.000    0.000    0.000    0.000    0.000    0.000 
#
# Total GULP energy -644700.943567 kJ/mol
# GULP energy per Si atom -12398.095069 kJ/mol
# Density = 1.756456 g / cm^3
# Si number density = 17.604632 Si / 1000 Ang^3
#
#
#
# Elastic Constant Matrix: (Units=GPa)
#
#
# Indices 1 2 3 4 5 6 
#
# 1 81.2855 27.6094 54.5724 0.0000 0.0000 0.0000
# 2 27.6094 64.6262 47.6180 0.0000 0.0000 0.0000
# 3 54.5724 47.6180 132.5405 0.0000 0.0000 0.0000
# 4 0.0000 0.0000 0.0000 28.2170 0.0000 0.0000
# 5 0.0000 0.0000 0.0000 0.0000 21.4643 0.0000
# 6 0.0000 0.0000 0.0000 0.0000 0.0000 20.2404
#
#
#
# Elastic Compliance Matrix: (Units=1/GPa)
#
#
# Indices 1 2 3 4 5 6 
#
# 1 0.017401 -0.002931 -0.006112 0.000000 0.000000 0.000000
# 2 -0.002931 0.021538 -0.006531 0.000000 0.000000 0.000000
# 3 -0.006112 -0.006531 0.012408 0.000000 0.000000 0.000000
# 4 0.000000 0.000000 0.000000 0.035440 0.000000 0.000000
# 5 0.000000 0.000000 0.000000 0.000000 0.046589 0.000000
# 6 0.000000 0.000000 0.000000 0.000000 0.000000 0.049406
#
#
# Mechanical properties :
#
#
# Convention : Reuss Voigt Hill
#
# Bulk Modulus (GPa) = 49.50663 59.78351 54.64507
# Shear Modulus (GPa) = 22.65906 23.89451 23.27679
#
# Velocity S-wave (km/s) = 3.59152 3.68813 3.64015
# Velocity P-wave (km/s) = 6.73655 7.22282 6.98392
#
# Compressibility (1/GPa) = 0.02019932
#
# Stress axis : x y z
#
# Youngs Moduli (GPa) = 57.46787 46.42939 80.59406
#
# Poissons Ratio (x) = 0.13607 0.49257
# Poissons Ratio (y) = 0.16842 0.52639
# Poissons Ratio (z) = 0.35123 0.30325
#
# Static dielectric constant tensor:
#      x y z
#    x 3.291610 0.000000 0.000000 
#    y 0.000000 3.155270 0.000000 
#    z 0.000000 0.000000 3.431280 
# 
# 
# High freq. dielectric constant tensor:
#      x y z
#    x 1.666990 0.000000 0.000000 
#    y 0.000000 1.665460 0.000000 
#    z 0.000000 0.000000 1.679830 
# 
# From -- ./inp_files/13328.got.cif
#   From: 2010.06.25/outbox.cif.g09.slc.cpg/sg71_7_cif.got.tgz:13328.got - 2010.06.28 04:59:45.
