data_PCOD8288952
_publ_section_title
;
Structure prediction by ZEFSAII (Michael W. Deem and Ramdas Pophale) SiO2 
 PCOD8288952
Probable space group: I M M M
;
_chemical_formula_sum "Si O2"
_cell_formula_units_Z 104
_cell_length_a 27.714655
_cell_length_b 9.070129
_cell_length_c 22.699083
_cell_angle_alpha 90.000000
_cell_angle_beta 90.000000
_cell_angle_gamma 90.000000
_cell_volume 5705.993249
_symmetry_space_group_name_H-M "I M M M"
_symmetry_group_IT_number 71
_symmetry_cell_setting 'orthorhombic'
loop_
_space_group_symop_operation_xyz
x,y,z
-x,-y,z
x,-y,-z
-x,y,-z
-x,-y,-z
x,y,-z
-x,y,z
x,-y,z
1/2+x,1/2+y,1/2+z
1/2-x,1/2-y,1/2+z
1/2+x,1/2-y,1/2-z
1/2-x,1/2+y,1/2-z
1/2-x,1/2-y,1/2-z
1/2+x,1/2+y,1/2-z
1/2-x,1/2+y,1/2+z
1/2+x,1/2-y,1/2+z
loop_
_atom_site_type_symbol
_atom_site_label
_atom_site_fract_x
_atom_site_fract_y
_atom_site_fract_z
Si Si1 0.444827 0.825479 0.000000
Si Si2 0.305003 0.830996 0.188693
Si Si3 0.599105 0.172641 0.122913
Si Si4 0.055571 0.170636 0.730726
Si Si5 0.107766 0.327893 0.163271
Si Si6 0.056832 0.163300 0.065359
Si Si7 0.196861 0.830561 0.189558
O O1 0.414689 0.771734 0.942682
O O2 0.500000 0.762338 0.000000
O O3 0.447626 0.000000 0.000000
O O4 0.344462 0.793887 0.138144
O O5 0.250822 0.808005 0.164029
O O6 0.310505 0.722352 0.243424
O O7 0.311447 0.000000 0.210659
O O8 0.564420 0.260172 0.166878
O O9 0.587993 0.000000 0.129631
O O10 0.088275 0.253767 0.777648
O O11 0.000000 0.191531 0.748535
O O12 0.070132 0.000000 0.729719
O O13 0.109017 0.500000 0.173935
O O14 0.075071 0.291132 0.107603
O O15 0.161135 0.265626 0.149179
O O16 0.000000 0.173495 0.063337
O O17 0.072314 0.000000 0.088189
O O18 0.077931 0.189555 0.000000
O O19 0.181464 0.000000 0.186800
#
# Coordination Sequence:
#
# PCOD8288952 Si02
#       7
#     8  16  16  16  16  16  16
#     4   9  18  32  53  81 111 145 181 221 274 331
#     4   9  18  32  52  79 106 136 176 222 269 322
#     4  10  19  34  56  80 107 140 181 225 272 327
#     4  11  23  36  51  76 109 142 177 220 272 324
#     4  12  23  34  52  80 110 142 179 219 267 319
#     4   9  19  37  59  80 105 140 179 217 262 319
#     4  10  19  32  52  77 109 141 174 217 270 323
#
# _framework density 18.226448999999999
#
# number of rings (size 3 to 8) (size 9 to 14) (size 15 to 20)
#    0.000    1.923    1.538    3.692    0.000    4.923 
#    0.000    1.154    1.692    1.385    0.000    0.000 
#    0.000    0.000    0.000    0.000    0.000    0.000 
#
# Total GULP energy -644709.556964 kJ/mol
# GULP energy per Si atom -12398.260711 kJ/mol
# Density = 1.818496 g / cm^3
# Si number density = 18.226449 Si / 1000 Ang^3
#
#
#
# Elastic Constant Matrix: (Units=GPa)
#
#
# Indices 1 2 3 4 5 6 
#
# 1 98.2034 44.1863 42.9519 0.0000 0.0000 0.0000
# 2 44.1863 99.2825 35.0483 0.0000 0.0000 0.0000
# 3 42.9519 35.0483 90.1398 0.0000 0.0000 0.0000
# 4 0.0000 0.0000 0.0000 24.0366 0.0000 0.0000
# 5 0.0000 0.0000 0.0000 0.0000 25.1716 0.0000
# 6 0.0000 0.0000 0.0000 0.0000 0.0000 26.0139
#
#
#
# Elastic Compliance Matrix: (Units=1/GPa)
#
#
# Indices 1 2 3 4 5 6 
#
# 1 0.014510 -0.004656 -0.005104 0.000000 0.000000 0.000000
# 2 -0.004656 0.013169 -0.002902 0.000000 0.000000 0.000000
# 3 -0.005104 -0.002902 0.014654 0.000000 0.000000 0.000000
# 4 0.000000 0.000000 0.000000 0.041603 0.000000 0.000000
# 5 0.000000 0.000000 0.000000 0.000000 0.039727 0.000000
# 6 0.000000 0.000000 0.000000 0.000000 0.000000 0.038441
#
#
# Mechanical properties :
#
#
# Convention : Reuss Voigt Hill
#
# Bulk Modulus (GPa) = 58.78897 59.11098 58.94997
# Shear Modulus (GPa) = 25.89360 26.07369 25.98365
#
# Velocity S-wave (km/s) = 3.77325 3.78635 3.77981
# Velocity P-wave (km/s) = 7.16296 7.18451 7.17374
#
# Compressibility (1/GPa) = 0.01700999
#
# Stress axis : x y z
#
# Youngs Moduli (GPa) = 68.91689 75.93680 68.24044
#
# Poissons Ratio (x) = 0.35357 0.34828
# Poissons Ratio (y) = 0.32089 0.19801
# Poissons Ratio (z) = 0.35174 0.22034
#
# Static dielectric constant tensor:
#      x y z
#    x 3.655330 0.000000 0.000000 
#    y 0.000000 3.355780 0.000000 
#    z 0.000000 0.000000 3.303720 
# 
# 
# High freq. dielectric constant tensor:
#      x y z
#    x 1.717090 0.000000 0.000000 
#    y 0.000000 1.702610 0.000000 
#    z 0.000000 0.000000 1.681670 
# 
# From -- ./inp_files/56672.got.cif
#   From: 2010.06.25/outbox.cif.g09.slc.cpg/sg71_29_cif.got.tgz:56672.got - 2010.06.28 04:59:45.
