data_PCOD8288944
_publ_section_title
;
Structure prediction by ZEFSAII (Michael W. Deem and Ramdas Pophale) SiO2 
 PCOD8288944
Probable space group: I M M M
;
_chemical_formula_sum "Si O2"
_cell_formula_units_Z 72
_cell_length_a 13.745020
_cell_length_b 32.209990
_cell_length_c 9.152549
_cell_angle_alpha 90.000000
_cell_angle_beta 90.000000
_cell_angle_gamma 90.000000
_cell_volume 4052.080165
_symmetry_space_group_name_H-M "I M M M"
_symmetry_group_IT_number 71
_symmetry_cell_setting 'orthorhombic'
loop_
_space_group_symop_operation_xyz
x,y,z
-x,-y,z
x,-y,-z
-x,y,-z
-x,-y,-z
x,y,-z
-x,y,z
x,-y,z
1/2+x,1/2+y,1/2+z
1/2-x,1/2-y,1/2+z
1/2+x,1/2-y,1/2-z
1/2-x,1/2+y,1/2-z
1/2-x,1/2-y,1/2-z
1/2+x,1/2+y,1/2-z
1/2-x,1/2+y,1/2+z
1/2+x,1/2-y,1/2+z
loop_
_atom_site_type_symbol
_atom_site_label
_atom_site_fract_x
_atom_site_fract_y
_atom_site_fract_z
Si Si1 0.267767 0.291191 0.661166
Si Si2 0.887507 0.130297 0.826664
Si Si3 0.387614 0.000000 0.326705
Si Si4 0.272433 0.918745 0.328229
Si Si5 0.391135 0.855186 0.838605
O O1 0.304448 0.278532 0.500000
O O2 0.250000 0.250000 0.750000
O O3 0.344465 0.325096 0.727467
O O4 0.162236 0.311506 0.655686
O O5 0.829597 0.091769 0.752938
O O6 0.000000 0.127130 0.781128
O O7 0.871968 0.126670 0.000000
O O8 0.323825 0.039089 0.272323
O O9 0.500000 0.000000 0.264322
O O10 0.395725 0.000000 0.500000
O O11 0.251748 0.920088 0.500000
O O12 0.348948 0.883272 0.289545
O O13 0.500000 0.844973 0.795215
O O14 0.382358 0.876627 0.000000
#
# Coordination Sequence:
#
# PCOD8288944 Si02
#       5
#    16  16   8  16  16
#     4   9  18  31  47  70  98 127 161 202 247 293
#     4   9  19  37  56  71  96 136 173 206 249 298
#     4   9  18  32  50  75 108 138 159 191 248 307
#     4  10  19  32  52  77 102 128 163 206 247 292
#     4   9  18  33  50  68  96 132 163 195 241 294
#
# _framework density 17.768651999999999
#
# number of rings (size 3 to 8) (size 9 to 14) (size 15 to 20)
#    0.000    2.778    0.000    2.667    0.000    6.222 
#    0.000    2.778    0.000    7.333    0.000    0.000 
#    0.000    0.000    0.000    0.000    0.000    0.000 
#
# Total GULP energy -446036.657630 kJ/mol
# GULP energy per Si atom -12389.907156 kJ/mol
# Density = 1.772821 g / cm^3
# Si number density = 17.768652 Si / 1000 Ang^3
#
#
#
# Elastic Constant Matrix: (Units=GPa)
#
#
# Indices 1 2 3 4 5 6 
#
# 1 169.5249 60.0076 32.3424 0.0007 0.0012 0.0002
# 2 60.0076 113.6198 39.1380 -0.0003 0.0003 0.0002
# 3 32.3424 39.1380 47.7502 -0.0007 0.0054 0.0003
# 4 0.0007 -0.0003 -0.0007 25.6737 -0.0002 -0.0008
# 5 0.0012 0.0003 0.0054 -0.0002 26.6122 0.0001
# 6 0.0002 0.0002 0.0003 -0.0008 0.0001 17.0926
#
#
#
# Elastic Compliance Matrix: (Units=1/GPa)
#
#
# Indices 1 2 3 4 5 6 
#
# 1 0.007471 -0.003069 -0.002545 0.000000 0.000000 0.000000
# 2 -0.003069 0.013525 -0.009007 0.000000 0.000002 0.000000
# 3 -0.002545 -0.009007 0.030048 0.000001 -0.000006 0.000000
# 4 0.000000 0.000000 0.000001 0.038950 0.000000 0.000002
# 5 0.000000 0.000002 -0.000006 0.000000 0.037577 0.000000
# 6 0.000000 0.000000 0.000000 0.000002 0.000000 0.058505
#
#
# Mechanical properties :
#
#
# Convention : Reuss Voigt Hill
#
# Bulk Modulus (GPa) = 45.86546 65.98563 55.92555
# Shear Modulus (GPa) = 22.46349 27.16949 24.81649
#
# Velocity S-wave (km/s) = 3.55944 3.91457 3.74123
# Velocity P-wave (km/s) = 6.53923 7.59266 7.08555
#
# Compressibility (1/GPa) = 0.02180290
#
# Stress axis : x y z
#
# Youngs Moduli (GPa) = 133.85682 73.93905 33.28013
#
# Poissons Ratio (x) = 0.22693 0.08468
# Poissons Ratio (y) = 0.41082 0.29974
# Poissons Ratio (z) = 0.34060 0.66594
#
# Static dielectric constant tensor:
#      x y z
#    x 3.564360 0.000000 0.000010 
#    y 0.000000 3.210100 -0.000010 
#    z 0.000010 -0.000010 3.221190 
# 
# 
# High freq. dielectric constant tensor:
#      x y z
#    x 1.695080 0.000000 0.000000 
#    y 0.000000 1.674100 0.000000 
#    z 0.000000 0.000000 1.673100 
# 
# From -- ./inp_files/6078.got.cif
#   From: 2010.06.25/outbox.cif.g09.slc.cpg/sg71_4_cif.got.tgz:6078.got - 2010.06.28 04:59:45.
