data_PCOD8288279
_publ_section_title
;
Structure prediction by ZEFSAII (Michael W. Deem and Ramdas Pophale) SiO2 
 PCOD8288279
Probable space group: I M M M
;
_chemical_formula_sum "Si O2"
_cell_formula_units_Z 104
_cell_length_a 24.657428
_cell_length_b 32.521112
_cell_length_c 9.000874
_cell_angle_alpha 90.000000
_cell_angle_beta 90.000000
_cell_angle_gamma 90.000000
_cell_volume 7217.683648
_symmetry_space_group_name_H-M "I M M M"
_symmetry_group_IT_number 71
_symmetry_cell_setting 'orthorhombic'
loop_
_space_group_symop_operation_xyz
x,y,z
-x,-y,z
x,-y,-z
-x,y,-z
-x,-y,-z
x,y,-z
-x,y,z
x,-y,z
1/2+x,1/2+y,1/2+z
1/2-x,1/2-y,1/2+z
1/2+x,1/2-y,1/2-z
1/2-x,1/2+y,1/2-z
1/2-x,1/2-y,1/2-z
1/2+x,1/2+y,1/2-z
1/2-x,1/2+y,1/2+z
1/2+x,1/2-y,1/2+z
loop_
_atom_site_type_symbol
_atom_site_label
_atom_site_fract_x
_atom_site_fract_y
_atom_site_fract_z
Si Si1 0.337141 0.382524 0.326232
Si Si2 0.674682 0.227550 0.825952
Si Si3 0.059693 0.830458 0.167662
Si Si4 0.941506 0.745733 0.675160
Si Si5 0.000000 0.048653 0.166550
Si Si6 0.229220 0.813396 0.673580
Si Si7 0.390042 0.452251 0.173739
O O1 0.325658 0.388059 0.500000
O O2 0.395543 0.363361 0.289577
O O3 0.290562 0.354029 0.257747
O O4 0.339852 0.427003 0.246587
O O5 0.611888 0.220212 0.775147
O O6 0.710238 0.196167 0.730588
O O7 0.690615 0.274731 0.788629
O O8 0.684024 0.218786 0.000000
O O9 0.065524 0.792254 0.275552
O O10 0.000000 0.851016 0.185527
O O11 0.068439 0.814317 0.000000
O O12 0.942024 0.746449 0.500000
O O13 0.000000 0.727790 0.734132
O O14 0.946290 0.062772 0.253038
O O15 0.000000 0.000000 0.155363
O O16 0.000000 0.068003 0.000000
O O17 0.231026 0.822799 0.500000
O O18 0.378545 0.500000 0.205642
O O19 0.393454 0.442915 0.000000
#
# Coordination Sequence:
#
# PCOD8288279 Si02
#       7
#    16  16  16  16   8  16  16
#     4  11  21  31  46  63  82 105 136 175 216 260
#     4   9  17  29  43  60  83 109 138 171 208 249
#     4   9  18  29  39  55  79 104 131 167 209 252
#     4   9  16  27  43  61  81 106 136 170 208 250
#     4   9  17  31  49  65  81 103 133 169 213 263
#     4  10  19  30  44  61  81 108 140 174 210 249
#     4  10  21  35  48  62  81 105 135 172 213 259
#
# _framework density 14.409053999999999
#
# number of rings (size 3 to 8) (size 9 to 14) (size 15 to 20)
#    0.000    2.385    1.538    1.615    1.077    3.692 
#    0.000    0.000    0.000    0.000    0.000    0.000 
#    0.000    0.000    0.000    0.000    0.000    0.769 
#
# Total GULP energy -644550.143824 kJ/mol
# GULP energy per Si atom -12395.195074 kJ/mol
# Density = 1.437626 g / cm^3
# Si number density = 14.409054 Si / 1000 Ang^3
#
#
#
# Elastic Constant Matrix: (Units=GPa)
#
#
# Indices 1 2 3 4 5 6 
#
# 1 96.6234 38.1065 41.3880 0.0000 0.0000 0.0000
# 2 38.1065 56.9043 37.1650 0.0000 0.0000 0.0000
# 3 41.3880 37.1650 65.5047 0.0000 0.0000 0.0000
# 4 0.0000 0.0000 0.0000 21.1845 0.0000 0.0000
# 5 0.0000 0.0000 0.0000 0.0000 20.5904 0.0000
# 6 0.0000 0.0000 0.0000 0.0000 0.0000 23.1731
#
#
#
# Elastic Compliance Matrix: (Units=1/GPa)
#
#
# Indices 1 2 3 4 5 6 
#
# 1 0.015503 -0.006330 -0.006204 0.000000 0.000000 0.000000
# 2 -0.006330 0.030503 -0.013307 0.000000 0.000000 0.000000
# 3 -0.006204 -0.013307 0.026736 0.000000 0.000000 0.000000
# 4 0.000000 0.000000 0.000000 0.047204 0.000000 0.000000
# 5 0.000000 0.000000 0.000000 0.000000 0.048566 0.000000
# 6 0.000000 0.000000 0.000000 0.000000 0.000000 0.043154
#
#
# Mechanical properties :
#
#
# Convention : Reuss Voigt Hill
#
# Bulk Modulus (GPa) = 47.48241 50.26126 48.87184
# Shear Modulus (GPa) = 18.49325 19.81446 19.15386
#
# Velocity S-wave (km/s) = 3.58641 3.71231 3.64990
# Velocity P-wave (km/s) = 7.08340 7.30291 7.19399
#
# Compressibility (1/GPa) = 0.02106043
#
# Stress axis : x y z
#
# Youngs Moduli (GPa) = 64.50200 32.78343 37.40284
#
# Poissons Ratio (x) = 0.20752 0.23205
# Poissons Ratio (y) = 0.40830 0.49772
# Poissons Ratio (z) = 0.40018 0.43625
#
# Static dielectric constant tensor:
#      x y z
#    x 3.008420 0.000000 0.000000 
#    y 0.000000 2.536830 0.000000 
#    z 0.000000 0.000000 2.883220 
# 
# 
# High freq. dielectric constant tensor:
#      x y z
#    x 1.534620 0.000000 0.000000 
#    y 0.000000 1.508890 0.000000 
#    z 0.000000 0.000000 1.562950 
# 
# From -- ./inp_files/13617.got.cif
#   From: 2010.06.25/outbox.cif.g09.slc.cpg/sg71_7_cif.got.tgz:13617.got - 2010.06.28 04:59:45.
