data_PCOD8288001
_publ_section_title
;
Structure prediction by ZEFSAII (Michael W. Deem and Ramdas Pophale) SiO2 
 PCOD8288001
Probable space group: I M M M
;
_chemical_formula_sum "Si O2"
_cell_formula_units_Z 80
_cell_length_a 15.916597
_cell_length_b 12.385060
_cell_length_c 23.668493
_cell_angle_alpha 90.000000
_cell_angle_beta 90.000000
_cell_angle_gamma 90.000000
_cell_volume 4665.722897
_symmetry_space_group_name_H-M "I M M M"
_symmetry_group_IT_number 71
_symmetry_cell_setting 'orthorhombic'
loop_
_space_group_symop_operation_xyz
x,y,z
-x,-y,z
x,-y,-z
-x,y,-z
-x,-y,-z
x,y,-z
-x,y,z
x,-y,z
1/2+x,1/2+y,1/2+z
1/2-x,1/2-y,1/2+z
1/2+x,1/2-y,1/2-z
1/2-x,1/2+y,1/2-z
1/2-x,1/2-y,1/2-z
1/2+x,1/2+y,1/2-z
1/2-x,1/2+y,1/2+z
1/2+x,1/2-y,1/2+z
loop_
_atom_site_type_symbol
_atom_site_label
_atom_site_fract_x
_atom_site_fract_y
_atom_site_fract_z
Si Si1 0.601085 0.500000 0.176217
Si Si2 0.210697 0.699211 0.884504
Si Si3 0.673251 0.724032 0.208429
Si Si4 0.207480 0.000000 0.564157
Si Si5 0.906702 0.879778 0.933311
Si Si6 0.593406 0.120502 0.284836
O O1 0.500000 0.500000 0.175481
O O2 0.637404 0.602021 0.210877
O O3 0.633498 0.500000 0.111018
O O4 0.295821 0.746684 0.855735
O O5 0.234106 0.606271 0.929194
O O6 0.162363 0.796386 0.913180
O O7 0.156621 0.646807 0.834899
O O8 0.750000 0.750000 0.250000
O O9 0.600426 0.804246 0.229143
O O10 0.170908 0.000000 0.500000
O O11 0.000000 0.847195 0.911276
O O12 0.884291 0.000000 0.910821
O O13 0.907024 0.880287 0.000000
O O14 0.500000 0.132596 0.309618
O O15 0.612026 0.000000 0.263741
#
# Coordination Sequence:
#
# PCOD8288001 Si02
#       6
#     8  16  16   8  16  16
#     4  10  20  37  56  77 107 138 175 216 260 313
#     4  10  18  33  49  70  97 129 165 206 253 305
#     4   9  20  32  52  72 100 131 168 208 253 300
#     4  10  20  33  53  78 102 131 169 213 260 307
#     4   9  18  32  48  67  94 128 165 207 255 304
#     4  10  19  32  49  69  99 132 166 205 251 306
#
# _framework density 17.146325000000001
#
# number of rings (size 3 to 8) (size 9 to 14) (size 15 to 20)
#    0.000    2.400    1.000    2.400    4.200    1.000 
#    5.400    0.000    0.000    2.400    0.000    0.000 
#    0.000    0.000    0.000   37.200    0.400    0.000 
#
# Total GULP energy -495617.042706 kJ/mol
# GULP energy per Si atom -12390.426068 kJ/mol
# Density = 1.710730 g / cm^3
# Si number density = 17.146325 Si / 1000 Ang^3
#
#
#
# Elastic Constant Matrix: (Units=GPa)
#
#
# Indices 1 2 3 4 5 6 
#
# 1 79.3782 48.2345 23.1413 0.0000 0.0000 0.0000
# 2 48.2345 120.3377 42.5072 0.0000 0.0000 0.0000
# 3 23.1413 42.5072 64.6226 0.0000 0.0000 0.0000
# 4 0.0000 0.0000 0.0000 29.2527 0.0000 0.0000
# 5 0.0000 0.0000 0.0000 0.0000 23.1584 0.0000
# 6 0.0000 0.0000 0.0000 0.0000 0.0000 40.5389
#
#
#
# Elastic Compliance Matrix: (Units=1/GPa)
#
#
# Indices 1 2 3 4 5 6 
#
# 1 0.016865 -0.006027 -0.002075 0.000000 0.000000 0.000000
# 2 -0.006027 0.012979 -0.006379 0.000000 0.000000 0.000000
# 3 -0.002075 -0.006379 0.020413 0.000000 0.000000 0.000000
# 4 0.000000 0.000000 0.000000 0.034185 0.000000 0.000000
# 5 0.000000 0.000000 0.000000 0.000000 0.043181 0.000000
# 6 0.000000 0.000000 0.000000 0.000000 0.000000 0.024668
#
#
# Mechanical properties :
#
#
# Convention : Reuss Voigt Hill
#
# Bulk Modulus (GPa) = 46.95799 54.67827 50.81813
# Shear Modulus (GPa) = 26.54608 28.62037 27.58322
#
# Velocity S-wave (km/s) = 3.93900 4.09000 4.01521
# Velocity P-wave (km/s) = 6.93784 7.36631 7.15528
#
# Compressibility (1/GPa) = 0.02129563
#
# Stress axis : x y z
#
# Youngs Moduli (GPa) = 59.29364 77.04733 48.98729
#
# Poissons Ratio (x) = 0.46437 0.10165
# Poissons Ratio (y) = 0.35737 0.31249
# Poissons Ratio (z) = 0.12303 0.49149
#
# Static dielectric constant tensor:
#      x y z
#    x 3.602600 0.000000 0.000000 
#    y 0.000000 3.567770 0.000000 
#    z 0.000000 0.000000 3.175780 
# 
# 
# High freq. dielectric constant tensor:
#      x y z
#    x 1.658860 0.000000 0.000000 
#    y 0.000000 1.671970 0.000000 
#    z 0.000000 0.000000 1.641980 
# 
# From -- ./inp_files/43493.got.cif
#   From: 2010.06.25/outbox.cif.g09.slc.cpg/sg71_22_cif.got.tgz:43493.got - 2010.06.28 04:59:45.
