data_PCOD8288352
_publ_section_title
;
Structure prediction by ZEFSAII (Michael W. Deem and Ramdas Pophale) SiO2 
 PCOD8288352
Probable space group: I M M M
;
_chemical_formula_sum "Si O2"
_cell_formula_units_Z 72
_cell_length_a 32.463018
_cell_length_b 12.482421
_cell_length_c 9.139898
_cell_angle_alpha 90.000000
_cell_angle_beta 90.000000
_cell_angle_gamma 90.000000
_cell_volume 3703.642574
_symmetry_space_group_name_H-M "I M M M"
_symmetry_group_IT_number 71
_symmetry_cell_setting 'orthorhombic'
loop_
_space_group_symop_operation_xyz
x,y,z
-x,-y,z
x,-y,-z
-x,y,-z
-x,-y,-z
x,y,-z
-x,y,z
x,-y,z
1/2+x,1/2+y,1/2+z
1/2-x,1/2-y,1/2+z
1/2+x,1/2-y,1/2-z
1/2-x,1/2+y,1/2-z
1/2-x,1/2-y,1/2-z
1/2+x,1/2+y,1/2-z
1/2-x,1/2+y,1/2+z
1/2+x,1/2-y,1/2+z
loop_
_atom_site_type_symbol
_atom_site_label
_atom_site_fract_x
_atom_site_fract_y
_atom_site_fract_z
Si Si1 0.889388 0.831572 0.830958
Si Si2 0.690854 0.620944 0.840703
Si Si3 0.149306 0.379834 0.830872
Si Si4 0.231619 0.372129 0.667462
Si Si5 0.454368 0.500000 0.326508
O O1 0.850376 0.880738 0.752089
O O2 0.889295 0.701929 0.806295
O O3 0.930514 0.891777 0.773088
O O4 0.884095 0.860202 0.000000
O O5 0.704787 0.500000 0.863600
O O6 0.729725 0.678280 0.759699
O O7 0.683837 0.675195 0.000000
O O8 0.135683 0.500000 0.784342
O O9 0.187229 0.335309 0.733376
O O10 0.163415 0.378528 0.000000
O O11 0.235580 0.334095 0.500000
O O12 0.233118 0.500000 0.677276
O O13 0.500000 0.500000 0.255379
O O14 0.458558 0.500000 0.500000
#
# Coordination Sequence:
#
# PCOD8288352 Si02
#       5
#    16  16  16  16   8
#     4  10  19  32  53  75  97 129 166 206 251 303
#     4  10  19  30  46  70 102 135 169 212 258 300
#     4   9  18  32  48  69  99 134 172 209 247 290
#     4   9  17  29  46  68  97 136 178 215 248 288
#     4   9  18  34  57  83 105 125 159 207 259 315
#
# _framework density 19.440321000000001
#
# number of rings (size 3 to 8) (size 9 to 14) (size 15 to 20)
#    0.000    2.556    1.111    1.333    0.000    5.333 
#    0.000    0.000    0.000    2.000    0.000    4.667 
#    0.000    0.000    0.000    7.556    0.000    8.000 
#
# Total GULP energy -446169.951866 kJ/mol
# GULP energy per Si atom -12393.609774 kJ/mol
# Density = 1.939607 g / cm^3
# Si number density = 19.440321 Si / 1000 Ang^3
#
#
#
# Elastic Constant Matrix: (Units=GPa)
#
#
# Indices 1 2 3 4 5 6 
#
# 1 146.0082 71.0445 42.4071 0.0000 0.0000 0.0000
# 2 71.0445 104.4431 20.2214 0.0000 0.0000 0.0000
# 3 42.4071 20.2214 73.3888 0.0000 0.0000 0.0000
# 4 0.0000 0.0000 0.0000 11.1304 0.0000 0.0000
# 5 0.0000 0.0000 0.0000 0.0000 14.5045 0.0000
# 6 0.0000 0.0000 0.0000 0.0000 0.0000 21.5518
#
#
#
# Elastic Compliance Matrix: (Units=1/GPa)
#
#
# Indices 1 2 3 4 5 6 
#
# 1 0.011646 -0.006992 -0.004803 0.000000 0.000000 0.000000
# 2 -0.006992 0.014312 0.000097 0.000000 0.000000 0.000000
# 3 -0.004803 0.000097 0.016375 0.000000 0.000000 0.000000
# 4 0.000000 0.000000 0.000000 0.089844 0.000000 0.000000
# 5 0.000000 0.000000 0.000000 0.000000 0.068944 0.000000
# 6 0.000000 0.000000 0.000000 0.000000 0.000000 0.046400
#
#
# Mechanical properties :
#
#
# Convention : Reuss Voigt Hill
#
# Bulk Modulus (GPa) = 52.80855 65.68735 59.24795
# Shear Modulus (GPa) = 18.03559 22.11514 20.07536
#
# Velocity S-wave (km/s) = 3.04919 3.37648 3.21700
# Velocity P-wave (km/s) = 6.29445 7.00453 6.65896
#
# Compressibility (1/GPa) = 0.01893633
#
# Stress axis : x y z
#
# Youngs Moduli (GPa) = 85.86564 69.87161 61.06948
#
# Poissons Ratio (x) = 0.48854 0.29332
# Poissons Ratio (y) = 0.60037 -0.00591
# Poissons Ratio (z) = 0.41242 -0.00676
#
# Static dielectric constant tensor:
#      x y z
#    x 3.348440 0.000000 0.000000 
#    y 0.000000 4.041960 0.000000 
#    z 0.000000 0.000000 3.595740 
# 
# 
# High freq. dielectric constant tensor:
#      x y z
#    x 1.701780 0.000000 0.000000 
#    y 0.000000 1.798130 0.000000 
#    z 0.000000 0.000000 1.746950 
# 
# From -- ./inp_files/6063.got.cif
#   From: 2010.06.25/outbox.cif.g09.slc.cpg/sg71_4_cif.got.tgz:6063.got - 2010.06.28 04:59:45.
