data_PCOD8288478
_publ_section_title
;
Structure prediction by ZEFSAII (Michael W. Deem and Ramdas Pophale) SiO2 
 PCOD8288478
Probable space group: I M M M
;
_chemical_formula_sum "Si O2"
_cell_formula_units_Z 88
_cell_length_a 19.767120
_cell_length_b 8.731385
_cell_length_c 27.557302
_cell_angle_alpha 90.000000
_cell_angle_beta 90.000000
_cell_angle_gamma 90.000000
_cell_volume 4756.234215
_symmetry_space_group_name_H-M "I M M M"
_symmetry_group_IT_number 71
_symmetry_cell_setting 'orthorhombic'
loop_
_space_group_symop_operation_xyz
x,y,z
-x,-y,z
x,-y,-z
-x,y,-z
-x,-y,-z
x,y,-z
-x,y,z
x,-y,z
1/2+x,1/2+y,1/2+z
1/2-x,1/2-y,1/2+z
1/2+x,1/2-y,1/2-z
1/2-x,1/2+y,1/2-z
1/2-x,1/2-y,1/2-z
1/2+x,1/2+y,1/2-z
1/2-x,1/2+y,1/2+z
1/2+x,1/2-y,1/2+z
loop_
_atom_site_type_symbol
_atom_site_label
_atom_site_fract_x
_atom_site_fract_y
_atom_site_fract_z
Si Si1 0.925635 0.820337 0.372493
Si Si2 0.193293 0.178328 0.818243
Si Si3 0.830082 0.822815 0.710709
Si Si4 0.421632 0.680360 0.500000
Si Si5 0.685034 0.318103 0.054321
Si Si6 0.832919 0.680995 0.916264
O O1 0.899317 0.789244 0.317936
O O2 0.873133 0.747820 0.411124
O O3 0.000000 0.744904 0.378182
O O4 0.931053 0.000000 0.382402
O O5 0.158116 0.221057 0.766874
O O6 0.271745 0.224264 0.814707
O O7 0.154145 0.269531 0.860567
O O8 0.187569 0.000000 0.829959
O O9 0.807946 0.000000 0.705861
O O10 0.411919 0.500000 0.500000
O O11 0.500000 0.728007 0.500000
O O12 0.388386 0.746635 0.548632
O O13 0.686570 0.500000 0.059222
O O14 0.758794 0.255667 0.069044
O O15 0.667960 0.265035 0.000000
O O16 0.837929 0.500000 0.921544
#
# Coordination Sequence:
#
# PCOD8288478 Si02
#       6
#    16  16  16   8  16  16
#     4   9  16  27  46  72 105 143 181 224 272 319
#     4  10  19  30  50  79 107 138 182 235 284 325
#     4   9  17  31  49  73 106 142 185 232 279 332
#     4  11  25  43  61  85 116 143 174 222 276 332
#     4   9  16  27  46  75 105 134 173 219 264 309
#     4  11  20  35  59  83 110 143 180 224 271 329
#
# _framework density 18.502032
#
# number of rings (size 3 to 8) (size 9 to 14) (size 15 to 20)
#    0.000    2.273    2.727    1.364    0.000    1.818 
#    0.000    2.727    0.000    3.818    0.000    0.000 
#    0.000    2.182    0.000    0.000    0.000    0.000 
#
# Total GULP energy -545506.989916 kJ/mol
# GULP energy per Si atom -12397.886134 kJ/mol
# Density = 1.845992 g / cm^3
# Si number density = 18.502032 Si / 1000 Ang^3
#
#
#
# Elastic Constant Matrix: (Units=GPa)
#
#
# Indices 1 2 3 4 5 6 
#
# 1 139.0706 33.9661 80.4798 0.0000 0.0000 0.0000
# 2 33.9661 38.7126 30.5743 0.0000 0.0000 0.0000
# 3 80.4798 30.5743 157.2327 0.0000 0.0000 0.0000
# 4 0.0000 0.0000 0.0000 26.4380 0.0000 0.0000
# 5 0.0000 0.0000 0.0000 0.0000 26.9247 0.0000
# 6 0.0000 0.0000 0.0000 0.0000 0.0000 18.0708
#
#
#
# Elastic Compliance Matrix: (Units=1/GPa)
#
#
# Indices 1 2 3 4 5 6 
#
# 1 0.011411 -0.006378 -0.004600 0.000000 0.000000 0.000000
# 2 -0.006378 0.034084 -0.003363 0.000000 0.000000 0.000000
# 3 -0.004600 -0.003363 0.009369 0.000000 0.000000 0.000000
# 4 0.000000 0.000000 0.000000 0.037824 0.000000 0.000000
# 5 0.000000 0.000000 0.000000 0.000000 0.037141 0.000000
# 6 0.000000 0.000000 0.000000 0.000000 0.000000 0.055338
#
#
# Mechanical properties :
#
#
# Convention : Reuss Voigt Hill
#
# Bulk Modulus (GPa) = 38.19736 69.45069 53.82403
# Shear Modulus (GPa) = 22.46432 26.95309 24.70871
#
# Velocity S-wave (km/s) = 3.48825 3.82090 3.65836
# Velocity P-wave (km/s) = 6.07566 7.55539 6.85557
#
# Compressibility (1/GPa) = 0.02617982
#
# Stress axis : x y z
#
# Youngs Moduli (GPa) = 87.63810 29.33957 106.74016
#
# Poissons Ratio (x) = 0.18714 0.49103
# Poissons Ratio (y) = 0.55899 0.35895
# Poissons Ratio (z) = 0.40315 0.09866
#
# Static dielectric constant tensor:
#      x y z
#    x 3.405620 0.000000 0.000000 
#    y 0.000000 3.101500 0.000000 
#    z 0.000000 0.000000 3.664590 
# 
# 
# High freq. dielectric constant tensor:
#      x y z
#    x 1.695450 0.000000 0.000000 
#    y 0.000000 1.684350 0.000000 
#    z 0.000000 0.000000 1.736520 
# 
# From -- ./inp_files/70648.got.cif
#   From: 2010.06.25/outbox.cif.g09.slc.cpg/sg71_36_cif.got.tgz:70648.got - 2010.06.28 04:59:45.
