data_PCOD8288330
_publ_section_title
;
Structure prediction by ZEFSAII (Michael W. Deem and Ramdas Pophale) SiO2 
 PCOD8288330
Probable space group: I M M M
;
_chemical_formula_sum "Si O2"
_cell_formula_units_Z 104
_cell_length_a 13.665354
_cell_length_b 13.888959
_cell_length_c 32.239127
_cell_angle_alpha 90.000000
_cell_angle_beta 90.000000
_cell_angle_gamma 90.000000
_cell_volume 6118.907042
_symmetry_space_group_name_H-M "I M M M"
_symmetry_group_IT_number 71
_symmetry_cell_setting 'orthorhombic'
loop_
_space_group_symop_operation_xyz
x,y,z
-x,-y,z
x,-y,-z
-x,y,-z
-x,-y,-z
x,y,-z
-x,y,z
x,-y,z
1/2+x,1/2+y,1/2+z
1/2-x,1/2-y,1/2+z
1/2+x,1/2-y,1/2-z
1/2-x,1/2+y,1/2-z
1/2-x,1/2-y,1/2-z
1/2+x,1/2+y,1/2-z
1/2-x,1/2+y,1/2+z
1/2+x,1/2-y,1/2+z
loop_
_atom_site_type_symbol
_atom_site_label
_atom_site_fract_x
_atom_site_fract_y
_atom_site_fract_z
Si Si1 0.382941 0.293245 0.245919
Si Si2 0.885594 0.707343 0.125739
Si Si3 0.724883 0.613424 0.080744
Si Si4 0.116117 0.105891 0.171757
Si Si5 0.383841 0.106542 0.289390
Si Si6 0.110361 0.885490 0.500000
Si Si7 0.113312 0.888760 0.336506
O O1 0.500000 0.294860 0.243857
O O2 0.346649 0.363163 0.282709
O O3 0.343692 0.184846 0.255943
O O4 0.339328 0.329376 0.201963
O O5 0.827740 0.669919 0.085169
O O6 0.852344 0.816263 0.137042
O O7 0.856385 0.637210 0.163861
O O8 0.000000 0.701781 0.115484
O O9 0.744463 0.500000 0.077477
O O10 0.661472 0.642376 0.120625
O O11 0.668002 0.651658 0.040405
O O12 0.000000 0.103564 0.173026
O O13 0.158676 0.000000 0.160660
O O14 0.500000 0.105606 0.285697
O O15 0.340429 0.000000 0.280421
O O16 0.000000 0.843344 0.500000
O O17 0.104631 0.000000 0.500000
O O18 0.000000 0.864459 0.341155
O O19 0.130805 0.000000 0.326517
#
# Coordination Sequence:
#
# PCOD8288330 Si02
#       7
#    16  16  16  16  16   8  16
#     4   8  13  21  36  58  82 111 148 188 225 256
#     4   9  17  28  43  64  90 120 152 182 209 246
#     4  10  19  30  46  67  89 114 143 175 215 265
#     4   8  13  23  40  61  87 121 155 183 215 252
#     4   8  13  22  36  54  82 124 162 181 202 245
#     4   9  18  34  53  71  92 115 139 171 215 268
#     4   9  16  26  41  61  84 110 143 186 230 263
#
# _framework density 16.996500000000001
#
# number of rings (size 3 to 8) (size 9 to 14) (size 15 to 20)
#    0.000    3.308    0.000    3.231    0.000    4.615 
#    0.000    3.462    0.000    4.154    0.000    0.538 
#    0.000    4.923    0.000    0.000    0.000    0.462 
#
# Total GULP energy -644509.633880 kJ/mol
# GULP energy per Si atom -12394.416036 kJ/mol
# Density = 1.695782 g / cm^3
# Si number density = 16.996500 Si / 1000 Ang^3
#
#
#
# Elastic Constant Matrix: (Units=GPa)
#
#
# Indices 1 2 3 4 5 6 
#
# 1 48.2601 28.0461 55.1605 0.0000 0.0000 0.0000
# 2 28.0461 108.8934 46.1480 0.0000 0.0000 0.0000
# 3 55.1605 46.1480 110.3573 0.0000 0.0000 0.0000
# 4 0.0000 0.0000 0.0000 19.2179 0.0000 0.0000
# 5 0.0000 0.0000 0.0000 0.0000 20.6112 0.0000
# 6 0.0000 0.0000 0.0000 0.0000 0.0000 13.3541
#
#
#
# Elastic Compliance Matrix: (Units=1/GPa)
#
#
# Indices 1 2 3 4 5 6 
#
# 1 0.048990 -0.002723 -0.023348 0.000000 0.000000 0.000000
# 2 -0.002723 0.011313 -0.003370 0.000000 0.000000 0.000000
# 3 -0.023348 -0.003370 0.022141 0.000000 0.000000 0.000000
# 4 0.000000 0.000000 0.000000 0.052035 0.000000 0.000000
# 5 0.000000 0.000000 0.000000 0.000000 0.048517 0.000000
# 6 0.000000 0.000000 0.000000 0.000000 0.000000 0.074883
#
#
# Mechanical properties :
#
#
# Convention : Reuss Voigt Hill
#
# Bulk Modulus (GPa) = 42.44129 58.46891 50.45510
# Shear Modulus (GPa) = 15.40286 19.84707 17.62497
#
# Velocity S-wave (km/s) = 3.01364 3.42089 3.22371
# Velocity P-wave (km/s) = 6.09378 7.07662 6.60351
#
# Compressibility (1/GPa) = 0.02356196
#
# Stress axis : x y z
#
# Youngs Moduli (GPa) = 20.41219 88.39721 45.16521
#
# Poissons Ratio (x) = 0.24069 1.05454
# Poissons Ratio (y) = 0.05558 0.15219
# Poissons Ratio (z) = 0.47659 0.29786
#
# Static dielectric constant tensor:
#      x y z
#    x 3.102360 0.000000 0.000000 
#    y 0.000000 3.455220 0.000000 
#    z 0.000000 0.000000 3.024020 
# 
# 
# High freq. dielectric constant tensor:
#      x y z
#    x 1.655920 0.000000 0.000000 
#    y 0.000000 1.637260 0.000000 
#    z 0.000000 0.000000 1.619920 
# 
# From -- ./inp_files/70094.got.cif
#   From: 2010.06.25/outbox.cif.g09.slc.cpg/sg71_36_cif.got.tgz:70094.got - 2010.06.28 04:59:45.
