data_PCOD8288410
_publ_section_title
;
Structure prediction by ZEFSAII (Michael W. Deem and Ramdas Pophale) SiO2 
 PCOD8288410
Probable space group: I M M M
;
_chemical_formula_sum "Si O2"
_cell_formula_units_Z 96
_cell_length_a 8.943748
_cell_length_b 30.082316
_cell_length_c 20.006901
_cell_angle_alpha 90.000000
_cell_angle_beta 90.000000
_cell_angle_gamma 90.000000
_cell_volume 5382.829776
_symmetry_space_group_name_H-M "I M M M"
_symmetry_group_IT_number 71
_symmetry_cell_setting 'orthorhombic'
loop_
_space_group_symop_operation_xyz
x,y,z
-x,-y,z
x,-y,-z
-x,y,-z
-x,-y,-z
x,y,-z
-x,y,z
x,-y,z
1/2+x,1/2+y,1/2+z
1/2-x,1/2-y,1/2+z
1/2+x,1/2-y,1/2-z
1/2-x,1/2+y,1/2-z
1/2-x,1/2-y,1/2-z
1/2+x,1/2+y,1/2-z
1/2-x,1/2+y,1/2+z
1/2+x,1/2-y,1/2+z
loop_
_atom_site_type_symbol
_atom_site_label
_atom_site_fract_x
_atom_site_fract_y
_atom_site_fract_z
Si Si1 0.670908 0.277711 0.923630
Si Si2 0.170736 0.635799 0.724314
Si Si3 0.167839 0.048767 0.382629
Si Si4 0.676817 0.276207 0.689155
Si Si5 0.329367 0.135520 0.617154
Si Si6 0.667980 0.548788 0.276150
O O1 0.500000 0.275403 0.898211
O O2 0.773831 0.245300 0.880418
O O3 0.726765 0.328150 0.917974
O O4 0.683202 0.261989 0.000000
O O5 0.272530 0.672741 0.689281
O O6 0.190259 0.639829 0.803558
O O7 0.223394 0.587578 0.697325
O O8 0.000000 0.642950 0.702697
O O9 0.277560 0.087121 0.409339
O O10 0.168548 0.049117 0.303217
O O11 0.000000 0.058081 0.408678
O O12 0.221962 0.000000 0.408054
O O13 0.500000 0.272752 0.696288
O O14 0.750000 0.250000 0.750000
O O15 0.500000 0.142778 0.595504
O O16 0.500000 0.557772 0.302264
O O17 0.723246 0.500000 0.301364
#
# Coordination Sequence:
#
# PCOD8288410 Si02
#       6
#    16  16  16  16  16  16
#     4  11  24  40  57  76 101 135 173 215 263 315
#     4  10  19  30  47  74 104 135 172 213 256 304
#     4   8  14  25  42  64  92 127 166 209 256 305
#     4  12  23  36  56  79 105 137 173 217 263 309
#     4  10  19  30  48  72  99 132 168 212 259 306
#     4   8  14  25  41  64  97 135 170 206 252 303
#
# _framework density 17.834485000000001
#
# number of rings (size 3 to 8) (size 9 to 14) (size 15 to 20)
#    0.000    2.167    1.667    4.000    0.000    3.333 
#    0.000    3.333    0.000    0.500    0.000    3.500 
#    0.000    0.667    0.000    7.000    0.000    3.333 
#
# Total GULP energy -595120.167851 kJ/mol
# GULP energy per Si atom -12398.336830 kJ/mol
# Density = 1.779389 g / cm^3
# Si number density = 17.834485 Si / 1000 Ang^3
#
#
#
# Elastic Constant Matrix: (Units=GPa)
#
#
# Indices 1 2 3 4 5 6 
#
# 1 133.4455 63.4535 32.1310 0.0000 0.0000 0.0000
# 2 63.4535 129.6236 30.7828 0.0000 0.0000 0.0000
# 3 32.1310 30.7828 40.4511 -0.0001 0.0000 0.0000
# 4 0.0000 0.0000 -0.0001 9.0507 0.0000 0.0000
# 5 0.0000 0.0000 0.0000 0.0000 16.3311 0.0000
# 6 0.0000 0.0000 0.0000 0.0000 0.0000 37.7220
#
#
#
# Elastic Compliance Matrix: (Units=1/GPa)
#
#
# Indices 1 2 3 4 5 6 
#
# 1 0.010684 -0.003924 -0.005500 0.000000 0.000000 0.000000
# 2 -0.003924 0.010857 -0.005146 0.000000 0.000000 0.000000
# 3 -0.005500 -0.005146 0.033006 0.000001 0.000000 0.000000
# 4 0.000000 0.000000 0.000001 0.110489 0.000000 0.000000
# 5 0.000000 0.000000 0.000000 0.000000 0.061233 0.000000
# 6 0.000000 0.000000 0.000000 0.000000 0.000000 0.026510
#
#
# Mechanical properties :
#
#
# Convention : Reuss Voigt Hill
#
# Bulk Modulus (GPa) = 39.35825 61.80609 50.58217
# Shear Modulus (GPa) = 17.21838 24.43095 20.82467
#
# Velocity S-wave (km/s) = 3.11055 3.70519 3.42082
# Velocity P-wave (km/s) = 5.91753 7.28253 6.63522
#
# Compressibility (1/GPa) = 0.02540763
#
# Stress axis : x y z
#
# Youngs Moduli (GPa) = 93.59948 92.10331 30.29749
#
# Poissons Ratio (x) = 0.36139 0.16665
# Poissons Ratio (y) = 0.36726 0.15590
# Poissons Ratio (z) = 0.51484 0.47393
#
# Static dielectric constant tensor:
#      x y z
#    x 3.434640 0.000000 0.000000 
#    y 0.000000 3.710810 0.000000 
#    z 0.000000 0.000000 2.799880 
# 
# 
# High freq. dielectric constant tensor:
#      x y z
#    x 1.699030 0.000000 0.000000 
#    y 0.000000 1.704460 0.000000 
#    z 0.000000 0.000000 1.625250 
# 
# From -- ./inp_files/50778.got.cif
#   From: 2010.06.25/outbox.cif.g09.slc.cpg/sg71_26_cif.got.tgz:50778.got - 2010.06.28 04:59:45.
