data_PCOD8288720
_publ_section_title
;
Structure prediction by ZEFSAII (Michael W. Deem and Ramdas Pophale) SiO2 
 PCOD8288720
Probable space group: I M M M
;
_chemical_formula_sum "Si O2"
_cell_formula_units_Z 80
_cell_length_a 9.156496
_cell_length_b 14.999550
_cell_length_c 31.862451
_cell_angle_alpha 90.000000
_cell_angle_beta 90.000000
_cell_angle_gamma 90.000000
_cell_volume 4376.094790
_symmetry_space_group_name_H-M "I M M M"
_symmetry_group_IT_number 71
_symmetry_cell_setting 'orthorhombic'
loop_
_space_group_symop_operation_xyz
x,y,z
-x,-y,z
x,-y,-z
-x,y,-z
-x,-y,-z
x,y,-z
-x,y,z
x,-y,z
1/2+x,1/2+y,1/2+z
1/2-x,1/2-y,1/2+z
1/2+x,1/2-y,1/2-z
1/2-x,1/2+y,1/2-z
1/2-x,1/2-y,1/2-z
1/2+x,1/2+y,1/2-z
1/2-x,1/2+y,1/2+z
1/2+x,1/2-y,1/2+z
loop_
_atom_site_type_symbol
_atom_site_label
_atom_site_fract_x
_atom_site_fract_y
_atom_site_fract_z
Si Si1 0.336678 0.334432 0.698457
Si Si2 0.168001 0.101744 0.951149
Si Si3 0.672177 0.212803 0.883861
Si Si4 0.833465 0.096066 0.356392
Si Si5 0.837730 0.368227 0.775426
O O1 0.500000 0.372852 0.691026
O O2 0.249009 0.336678 0.654905
O O3 0.250845 0.392811 0.733028
O O4 0.346482 0.236437 0.717163
O O5 0.270796 0.170124 0.926661
O O6 0.000000 0.121263 0.939810
O O7 0.207723 0.000000 0.939224
O O8 0.196663 0.118158 0.000000
O O9 0.500000 0.197913 0.880212
O O10 0.713820 0.318790 0.884512
O O11 0.739219 0.086338 0.314681
O O12 0.000000 0.111513 0.342176
O O13 0.816680 0.000000 0.380559
O O14 0.000000 0.408003 0.770768
#
# Coordination Sequence:
#
# PCOD8288720 Si02
#       5
#    16  16  16  16  16
#     4   9  16  27  44  65  93 130 166 201 247 298
#     4   9  19  37  59  80 102 128 156 189 239 306
#     4  10  19  31  51  78 104 130 164 208 251 289
#     4   9  18  32  48  68  99 139 177 208 243 291
#     4   9  16  26  42  65  92 124 167 215 253 283
#
# _framework density 18.281140000000001
#
# number of rings (size 3 to 8) (size 9 to 14) (size 15 to 20)
#    0.000    2.800    0.000    2.400    0.000    6.800 
#    0.000    2.000    0.000    6.600    0.000    4.200 
#    0.000    0.000    0.000    0.000    0.000    0.000 
#
# Total GULP energy -495752.295766 kJ/mol
# GULP energy per Si atom -12393.807394 kJ/mol
# Density = 1.823953 g / cm^3
# Si number density = 18.281140 Si / 1000 Ang^3
#
#
#
# Elastic Constant Matrix: (Units=GPa)
#
#
# Indices 1 2 3 4 5 6 
#
# 1 117.0322 43.9567 54.0240 0.0000 0.0000 0.0000
# 2 43.9567 89.2269 48.5985 0.0000 0.0000 0.0000
# 3 54.0240 48.5985 85.1372 0.0000 0.0000 0.0000
# 4 0.0000 0.0000 0.0000 15.5996 0.0000 0.0000
# 5 0.0000 0.0000 0.0000 0.0000 34.8730 0.0000
# 6 0.0000 0.0000 0.0000 0.0000 0.0000 16.0873
#
#
#
# Elastic Compliance Matrix: (Units=1/GPa)
#
#
# Indices 1 2 3 4 5 6 
#
# 1 0.012507 -0.002669 -0.006413 0.000000 0.000000 0.000000
# 2 -0.002669 0.016833 -0.007916 0.000000 0.000000 0.000000
# 3 -0.006413 -0.007916 0.020334 0.000000 0.000000 0.000000
# 4 0.000000 0.000000 0.000000 0.064104 0.000000 0.000000
# 5 0.000000 0.000000 0.000000 0.000000 0.028676 0.000000
# 6 0.000000 0.000000 0.000000 0.000000 0.000000 0.062161
#
#
# Mechanical properties :
#
#
# Convention : Reuss Voigt Hill
#
# Bulk Modulus (GPa) = 63.77712 64.95052 64.36382
# Shear Modulus (GPa) = 20.50554 22.96645 21.73600
#
# Velocity S-wave (km/s) = 3.35278 3.54827 3.45191
# Velocity P-wave (km/s) = 7.06758 7.23828 7.15344
#
# Compressibility (1/GPa) = 0.01567960
#
# Stress axis : x y z
#
# Youngs Moduli (GPa) = 79.95225 59.40599 49.17934
#
# Poissons Ratio (x) = 0.15853 0.31540
# Poissons Ratio (y) = 0.21336 0.38928
# Poissons Ratio (z) = 0.51276 0.47023
#
# Static dielectric constant tensor:
#      x y z
#    x 3.568920 0.000000 0.000000 
#    y 0.000000 3.296800 0.000000 
#    z 0.000000 0.000000 3.075170 
# 
# 
# High freq. dielectric constant tensor:
#      x y z
#    x 1.720610 0.000000 0.000000 
#    y 0.000000 1.700250 0.000000 
#    z 0.000000 0.000000 1.675110 
# 
# From -- ./inp_files/14539.got.cif
#   From: 2010.06.25/outbox.cif.g09.slc.cpg/sg71_8_cif.got.tgz:14539.got - 2010.06.28 04:59:45.
