data_PCOD8288203
_publ_section_title
;
Structure prediction by ZEFSAII (Michael W. Deem and Ramdas Pophale) SiO2 
 PCOD8288203
Probable space group: I M M M
;
_chemical_formula_sum "Si O2"
_cell_formula_units_Z 96
_cell_length_a 9.445180
_cell_length_b 25.379271
_cell_length_c 23.653627
_cell_angle_alpha 90.000000
_cell_angle_beta 90.000000
_cell_angle_gamma 90.000000
_cell_volume 5670.053099
_symmetry_space_group_name_H-M "I M M M"
_symmetry_group_IT_number 71
_symmetry_cell_setting 'orthorhombic'
loop_
_space_group_symop_operation_xyz
x,y,z
-x,-y,z
x,-y,-z
-x,y,-z
-x,-y,-z
x,y,-z
-x,y,z
x,-y,z
1/2+x,1/2+y,1/2+z
1/2-x,1/2-y,1/2+z
1/2+x,1/2-y,1/2-z
1/2-x,1/2+y,1/2-z
1/2-x,1/2-y,1/2-z
1/2+x,1/2+y,1/2-z
1/2-x,1/2+y,1/2+z
1/2+x,1/2-y,1/2+z
loop_
_atom_site_type_symbol
_atom_site_label
_atom_site_fract_x
_atom_site_fract_y
_atom_site_fract_z
Si Si1 0.665852 0.147141 0.382639
Si Si2 0.668235 0.194466 0.500000
Si Si3 0.165704 0.252686 0.807528
Si Si4 0.168976 0.186825 0.000000
Si Si5 0.162758 0.061111 0.678540
Si Si6 0.168208 0.846820 0.120146
Si Si7 0.331336 0.441820 0.305941
O O1 0.500000 0.135223 0.384077
O O2 0.721589 0.163928 0.444478
O O3 0.702025 0.193028 0.338471
O O4 0.745136 0.094151 0.365277
O O5 0.500000 0.198459 0.500000
O O6 0.729813 0.253782 0.500000
O O7 0.250000 0.250000 0.750000
O O8 0.218583 0.205112 0.847028
O O9 0.000000 0.247509 0.794379
O O10 0.224300 0.156088 0.944344
O O11 0.000000 0.189240 0.000000
O O12 0.217832 0.072014 0.742322
O O13 0.000000 0.078466 0.672803
O O14 0.181327 0.000000 0.663191
O O15 0.231732 0.898794 0.150595
O O16 0.000000 0.849632 0.120508
O O17 0.500000 0.441923 0.306999
O O18 0.275413 0.500000 0.323355
#
# Coordination Sequence:
#
# PCOD8288203 Si02
#       7
#    16   8  16   8  16  16  16
#     4  10  19  31  49  71  93 119 156 199 238 277
#     4   9  16  30  46  63  91 123 154 190 233 282
#     4  10  19  29  44  68  94 120 152 192 236 280
#     4   9  14  24  41  60  85 121 156 183 220 273
#     4   9  18  33  51  69  93 126 157 187 231 286
#     4   9  15  24  40  62  87 116 152 188 223 267
#     4   8  14  25  41  61  87 120 154 186 224 271
#
# _framework density 16.931058
#
# number of rings (size 3 to 8) (size 9 to 14) (size 15 to 20)
#    0.000    2.833    1.667    2.000    0.000    2.333 
#    0.000    1.250    0.000    5.000    0.000    0.583 
#    0.000    0.000    0.000    0.000    0.000   27.833 
#
# Total GULP energy -595051.015189 kJ/mol
# GULP energy per Si atom -12396.896150 kJ/mol
# Density = 1.689252 g / cm^3
# Si number density = 16.931058 Si / 1000 Ang^3
#
#
#
# Elastic Constant Matrix: (Units=GPa)
#
#
# Indices 1 2 3 4 5 6 
#
# 1 23.1638 27.5568 32.2107 0.0000 0.0000 0.0000
# 2 27.5568 107.8413 64.1745 0.0000 0.0000 0.0000
# 3 32.2107 64.1745 141.1988 0.0000 0.0000 0.0000
# 4 0.0000 0.0000 0.0000 29.4252 0.0000 0.0000
# 5 0.0000 0.0000 0.0000 0.0000 20.1321 0.0000
# 6 0.0000 0.0000 0.0000 0.0000 0.0000 19.1018
#
#
#
# Elastic Compliance Matrix: (Units=1/GPa)
#
#
# Indices 1 2 3 4 5 6 
#
# 1 0.073019 -0.011989 -0.011209 0.000000 0.000000 0.000000
# 2 -0.011989 0.014679 -0.003937 0.000000 0.000000 0.000000
# 3 -0.011209 -0.003937 0.011428 0.000000 0.000000 0.000000
# 4 0.000000 0.000000 0.000000 0.033984 0.000000 0.000000
# 5 0.000000 0.000000 0.000000 0.000000 0.049672 0.000000
# 6 0.000000 0.000000 0.000000 0.000000 0.000000 0.052351
#
#
# Mechanical properties :
#
#
# Convention : Reuss Voigt Hill
#
# Bulk Modulus (GPa) = 22.29217 57.78754 40.03985
# Shear Modulus (GPa) = 16.42820 23.61596 20.02208
#
# Velocity S-wave (km/s) = 3.11834 3.73879 3.44258
# Velocity P-wave (km/s) = 5.11473 7.26934 6.28505
#
# Compressibility (1/GPa) = 0.04485880
#
# Stress axis : x y z
#
# Youngs Moduli (GPa) = 13.69503 68.12451 87.50167
#
# Poissons Ratio (x) = 0.81672 0.98077
# Poissons Ratio (y) = 0.16418 0.34447
# Poissons Ratio (z) = 0.15350 0.26818
#
# Static dielectric constant tensor:
#      x y z
#    x 2.621650 0.000000 0.000000 
#    y 0.000000 3.335810 0.000000 
#    z 0.000000 0.000000 3.360220 
# 
# 
# High freq. dielectric constant tensor:
#      x y z
#    x 1.593470 0.000000 0.000000 
#    y 0.000000 1.659290 0.000000 
#    z 0.000000 0.000000 1.659270 
# 
# From -- ./inp_files/52059.got.cif
#   From: 2010.06.25/outbox.cif.g09.slc.cpg/sg71_27_cif.got.tgz:52059.got - 2010.06.28 04:59:45.
