data_PCOD8288673
_publ_section_title
;
Structure prediction by ZEFSAII (Michael W. Deem and Ramdas Pophale) SiO2 
 PCOD8288673
Probable space group: I M M M
;
_chemical_formula_sum "Si O2"
_cell_formula_units_Z 88
_cell_length_a 27.610384
_cell_length_b 8.721634
_cell_length_c 19.410060
_cell_angle_alpha 90.000000
_cell_angle_beta 90.000000
_cell_angle_gamma 90.000000
_cell_volume 4674.091204
_symmetry_space_group_name_H-M "I M M M"
_symmetry_group_IT_number 71
_symmetry_cell_setting 'orthorhombic'
loop_
_space_group_symop_operation_xyz
x,y,z
-x,-y,z
x,-y,-z
-x,y,-z
-x,-y,-z
x,y,-z
-x,y,z
x,-y,z
1/2+x,1/2+y,1/2+z
1/2-x,1/2-y,1/2+z
1/2+x,1/2-y,1/2-z
1/2-x,1/2+y,1/2-z
1/2-x,1/2-y,1/2-z
1/2+x,1/2+y,1/2-z
1/2-x,1/2+y,1/2+z
1/2+x,1/2-y,1/2+z
loop_
_atom_site_type_symbol
_atom_site_label
_atom_site_fract_x
_atom_site_fract_y
_atom_site_fract_z
Si Si1 0.623194 0.682514 0.694074
Si Si2 0.307712 0.682228 0.923115
Si Si3 0.553915 0.318005 0.424264
Si Si4 0.727221 0.818518 0.317587
Si Si5 0.097104 0.817651 0.653482
Si Si6 0.500000 0.317204 0.079119
O O1 0.628279 0.500000 0.693642
O O2 0.587353 0.748028 0.635923
O O3 0.674002 0.754062 0.673390
O O4 0.602827 0.739370 0.767763
O O5 0.310643 0.500000 0.924336
O O6 0.260366 0.736064 0.881478
O O7 0.356788 0.746841 0.888454
O O8 0.303764 0.749620 0.000000
O O9 0.573285 0.267846 0.500000
O O10 0.500000 0.252538 0.413186
O O11 0.552729 0.500000 0.419372
O O12 0.750000 0.750000 0.250000
O O13 0.726191 0.000000 0.311612
O O14 0.047606 0.754193 0.619054
O O15 0.096224 0.000000 0.651381
O O16 0.500000 0.500000 0.079471
O O17 0.500000 0.257661 0.000000
#
# Coordination Sequence:
#
# PCOD8288673 Si02
#       6
#    16  16  16  16  16   8
#     4  10  19  31  50  76 102 131 167 210 253 297
#     4   9  17  30  48  69  95 128 163 199 243 297
#     4   8  15  28  47  73 105 138 169 205 252 303
#     4  11  21  35  53  74 100 133 169 208 252 301
#     4   9  16  26  42  68  99 128 159 197 245 293
#     4   9  16  24  38  66 102 130 154 197 251 293
#
# _framework density 18.827190000000002
#
# number of rings (size 3 to 8) (size 9 to 14) (size 15 to 20)
#    0.000    2.636    1.818    1.636    1.273    2.909 
#    0.000    0.000    0.000    2.182    0.000    1.273 
#    0.000    0.727    0.000    0.000    0.000    0.000 
#
# Total GULP energy -545422.967428 kJ/mol
# GULP energy per Si atom -12395.976532 kJ/mol
# Density = 1.878434 g / cm^3
# Si number density = 18.827190 Si / 1000 Ang^3
#
#
#
# Elastic Constant Matrix: (Units=GPa)
#
#
# Indices 1 2 3 4 5 6 
#
# 1 180.2069 17.4674 121.2619 0.0000 0.0000 0.0000
# 2 17.4674 15.2599 17.6417 0.0000 0.0000 0.0000
# 3 121.2619 17.6417 211.1461 0.0000 0.0000 0.0000
# 4 0.0000 0.0000 0.0000 10.6736 0.0000 0.0000
# 5 0.0000 0.0000 0.0000 0.0000 44.1329 0.0000
# 6 0.0000 0.0000 0.0000 0.0000 0.0000 22.9518
#
#
#
# Elastic Compliance Matrix: (Units=1/GPa)
#
#
# Indices 1 2 3 4 5 6 
#
# 1 0.009375 -0.004989 -0.004967 0.000000 0.000000 0.000000
# 2 -0.004989 0.075193 -0.003417 0.000000 0.000000 0.000000
# 3 -0.004967 -0.003417 0.007874 0.000000 0.000000 0.000000
# 4 0.000000 0.000000 0.000000 0.093689 0.000000 0.000000
# 5 0.000000 0.000000 0.000000 0.000000 0.022659 0.000000
# 6 0.000000 0.000000 0.000000 0.000000 0.000000 0.043570
#
#
# Mechanical properties :
#
#
# Convention : Reuss Voigt Hill
#
# Bulk Modulus (GPa) = 15.22185 79.92831 47.57508
# Shear Modulus (GPa) = 16.61098 32.23444 24.42271
#
# Velocity S-wave (km/s) = 2.97355 4.14227 3.60558
# Velocity P-wave (km/s) = 4.46004 8.08849 6.53129
#
# Compressibility (1/GPa) = 0.06569503
#
# Stress axis : x y z
#
# Youngs Moduli (GPa) = 106.66234 13.29918 126.99324
#
# Poissons Ratio (x) = 0.06635 0.63084
# Poissons Ratio (y) = 0.53212 0.43399
# Poissons Ratio (z) = 0.52984 0.04545
#
# Static dielectric constant tensor:
#      x y z
#    x 3.546160 0.000000 0.000000 
#    y 0.000000 2.862390 0.000000 
#    z 0.000000 0.000000 3.826800 
# 
# 
# High freq. dielectric constant tensor:
#      x y z
#    x 1.744350 0.000000 0.000000 
#    y 0.000000 1.661220 0.000000 
#    z 0.000000 0.000000 1.748440 
# 
# From -- ./inp_files/10469.got.cif
#   From: 2010.06.25/outbox.cif.g09.slc.cpg/sg71_6_cif.got.tgz:10469.got - 2010.06.28 04:59:45.
