data_PCOD8288664
_publ_section_title
;
Structure prediction by ZEFSAII (Michael W. Deem and Ramdas Pophale) SiO2 
 PCOD8288664
Probable space group: I M M M
;
_chemical_formula_sum "Si O2"
_cell_formula_units_Z 96
_cell_length_a 8.697834
_cell_length_b 31.347698
_cell_length_c 19.162775
_cell_angle_alpha 90.000000
_cell_angle_beta 90.000000
_cell_angle_gamma 90.000000
_cell_volume 5224.866151
_symmetry_space_group_name_H-M "I M M M"
_symmetry_group_IT_number 71
_symmetry_cell_setting 'orthorhombic'
loop_
_space_group_symop_operation_xyz
x,y,z
-x,-y,z
x,-y,-z
-x,y,-z
-x,-y,-z
x,y,-z
-x,y,z
x,-y,z
1/2+x,1/2+y,1/2+z
1/2-x,1/2-y,1/2+z
1/2+x,1/2-y,1/2-z
1/2-x,1/2+y,1/2-z
1/2-x,1/2-y,1/2-z
1/2+x,1/2+y,1/2-z
1/2-x,1/2+y,1/2+z
1/2+x,1/2-y,1/2+z
loop_
_atom_site_type_symbol
_atom_site_label
_atom_site_fract_x
_atom_site_fract_y
_atom_site_fract_z
Si Si1 0.322683 0.797304 0.918629
Si Si2 0.678850 0.791317 0.580038
Si Si3 0.680129 0.370432 0.670339
Si Si4 0.678022 0.954006 0.822858
Si Si5 0.180653 0.368588 0.176924
Si Si6 0.820306 0.046377 0.327400
O O1 0.500000 0.804577 0.899752
O O2 0.275286 0.749752 0.896186
O O3 0.219392 0.830117 0.876477
O O4 0.289355 0.804295 0.000000
O O5 0.713184 0.803172 0.500000
O O6 0.500000 0.781208 0.591636
O O7 0.735277 0.830738 0.626623
O O8 0.500000 0.377650 0.671155
O O9 0.760162 0.412693 0.635170
O O10 0.738350 0.362684 0.748757
O O11 0.500000 0.947061 0.803256
O O12 0.779651 0.955221 0.753752
O O13 0.698695 0.000000 0.862370
O O14 0.228717 0.413517 0.139789
O O15 0.000000 0.367728 0.188566
O O16 0.000000 0.054876 0.336557
O O17 0.775644 0.000000 0.361017
#
# Coordination Sequence:
#
# PCOD8288664 Si02
#       6
#    16  16  16  16  16  16
#     4  10  21  37  56  75  96 126 164 203 244 294
#     4   9  19  36  55  74  97 127 164 204 248 297
#     4  11  21  32  50  75 104 134 163 201 244 287
#     4   9  16  27  45  69  98 130 163 200 241 286
#     4  10  19  31  50  75 102 130 162 204 248 290
#     4   9  16  26  42  66  97 130 163 200 241 287
#
# _framework density 18.373676
#
# number of rings (size 3 to 8) (size 9 to 14) (size 15 to 20)
#    0.000    2.333    0.000    5.500    0.000    5.000 
#    0.000    0.000    0.000    1.000    0.000    7.000 
#    0.000    0.000    0.000    0.000    0.000    0.000 
#
# Total GULP energy -594869.191199 kJ/mol
# GULP energy per Si atom -12393.108150 kJ/mol
# Density = 1.833186 g / cm^3
# Si number density = 18.373676 Si / 1000 Ang^3
#
#
#
# Elastic Constant Matrix: (Units=GPa)
#
#
# Indices 1 2 3 4 5 6 
#
# 1 76.9441 53.2507 26.6664 0.0000 0.0000 0.0000
# 2 53.2507 171.4922 55.6762 0.0000 0.0000 0.0000
# 3 26.6664 55.6762 41.5143 -0.0003 0.0000 0.0000
# 4 0.0000 0.0000 -0.0003 -1.8069 0.0000 0.0000
# 5 0.0000 0.0000 0.0000 0.0000 16.6739 0.0000
# 6 0.0000 0.0000 0.0000 0.0000 0.0000 36.7657
#
#
#
# Elastic Compliance Matrix: (Units=1/GPa)
#
#
# Indices 1 2 3 4 5 6 
#
# 1 0.017650 -0.003188 -0.007062 0.000001 0.000000 0.000000
# 2 -0.003188 0.010904 -0.012576 0.000002 0.000000 0.000000
# 3 -0.007062 -0.012576 0.045490 -0.000007 0.000000 0.000000
# 4 0.000001 0.000002 -0.000007 -0.553426 -0.000001 0.000000
# 5 0.000000 0.000000 0.000000 -0.000001 0.059974 0.000000
# 6 0.000000 0.000000 0.000000 0.000000 0.000000 0.027199
#
#
# Mechanical properties :
#
#
# Convention : Reuss Voigt Hill
#
# Bulk Modulus (GPa) = 35.22035 62.34856 48.78445
# Shear Modulus (GPa) = -14.83270 20.61704 2.89217
#
# Velocity S-wave (km/s) = -2.84435 3.35340 1.25598
# Velocity P-wave (km/s) = 2.90231 7.00008 5.35838
#
# Compressibility (1/GPa) = 0.02839268
#
# Stress axis : x y z
#
# Youngs Moduli (GPa) = 56.65671 91.71042 21.98273
#
# Poissons Ratio (x) = 0.29236 0.15524
# Poissons Ratio (y) = 0.18061 0.27645
# Poissons Ratio (z) = 0.40012 1.15334
#
# Static dielectric constant tensor:
#      x y z
#    x 3.417260 0.000000 0.000000 
#    y 0.000000 4.141360 0.000000 
#    z 0.000000 0.000000 2.931140 
# 
# 
# High freq. dielectric constant tensor:
#      x y z
#    x 1.725160 0.000000 0.000000 
#    y 0.000000 1.741290 0.000000 
#    z 0.000000 0.000000 1.652090 
# 
# From -- ./inp_files/57890.got.cif
#   From: 2010.06.25/outbox.cif.g09.slc.cpg/sg71_29_cif.got.tgz:57890.got - 2010.06.28 04:59:45.
