data_PCOD8288503
_publ_section_title
;
Structure prediction by ZEFSAII (Michael W. Deem and Ramdas Pophale) SiO2 
 PCOD8288503
Probable space group: I M M M
;
_chemical_formula_sum "Si O2"
_cell_formula_units_Z 104
_cell_length_a 9.361127
_cell_length_b 23.916952
_cell_length_c 23.584895
_cell_angle_alpha 90.000000
_cell_angle_beta 90.000000
_cell_angle_gamma 90.000000
_cell_volume 5280.413300
_symmetry_space_group_name_H-M "I M M M"
_symmetry_group_IT_number 71
_symmetry_cell_setting 'orthorhombic'
loop_
_space_group_symop_operation_xyz
x,y,z
-x,-y,z
x,-y,-z
-x,y,-z
-x,-y,-z
x,y,-z
-x,y,z
x,-y,z
1/2+x,1/2+y,1/2+z
1/2-x,1/2-y,1/2+z
1/2+x,1/2-y,1/2-z
1/2-x,1/2+y,1/2-z
1/2-x,1/2-y,1/2-z
1/2+x,1/2+y,1/2-z
1/2-x,1/2+y,1/2+z
1/2+x,1/2-y,1/2+z
loop_
_atom_site_type_symbol
_atom_site_label
_atom_site_fract_x
_atom_site_fract_y
_atom_site_fract_z
Si Si1 0.337662 0.120849 0.432394
Si Si2 0.160938 0.060899 0.864429
Si Si3 0.333053 0.165786 0.729326
Si Si4 0.339044 0.561704 0.229479
Si Si5 0.169574 0.500000 0.062383
Si Si6 0.332746 0.286714 0.132631
Si Si7 0.337449 0.163780 0.139468
O O1 0.330638 0.119641 0.500000
O O2 0.500000 0.133778 0.412338
O O3 0.233566 0.169155 0.410699
O O4 0.286122 0.059377 0.408240
O O5 0.169256 0.061348 0.797059
O O6 0.249064 0.113415 0.889404
O O7 0.000000 0.068593 0.885833
O O8 0.219113 0.000000 0.885745
O O9 0.500000 0.171001 0.716465
O O10 0.275760 0.105838 0.705650
O O11 0.245874 0.211641 0.693619
O O12 0.295809 0.172629 0.794901
O O13 0.500000 0.578294 0.210545
O O14 0.299870 0.500000 0.206051
O O15 0.000000 0.500000 0.056299
O O16 0.239365 0.500000 0.000000
O O17 0.500000 0.298840 0.141289
O O18 0.310313 0.223392 0.108714
O O19 0.500000 0.144656 0.134597
#
# Coordination Sequence:
#
# PCOD8288503 Si02
#       7
#    16  16  16  16   8  16  16
#     4   9  18  35  58  79  97 120 155 201 251 301
#     4   8  14  25  43  66  89 117 154 194 235 276
#     4  10  19  31  46  64  88 123 167 205 239 280
#     4   8  14  26  42  59  83 115 150 191 240 284
#     4   7  12  28  55  79  95 115 147 193 247 295
#     4  11  22  34  47  68  98 128 160 197 242 292
#     4   9  19  32  46  66  94 129 166 203 238 279
#
# _framework density 19.695429000000001
#
# number of rings (size 3 to 8) (size 9 to 14) (size 15 to 20)
#    0.000    3.000    0.000    3.231    0.000    2.769 
#    1.385    3.462    0.000    1.385    0.000    0.000 
#    0.000    0.615    0.000    6.769    0.000    5.231 
#
# Total GULP energy -644243.027612 kJ/mol
# GULP energy per Si atom -12389.288993 kJ/mol
# Density = 1.965060 g / cm^3
# Si number density = 19.695429 Si / 1000 Ang^3
#
#
#
# Elastic Constant Matrix: (Units=GPa)
#
#
# Indices 1 2 3 4 5 6 
#
# 1 96.1215 73.4125 7.9162 0.0000 0.0000 0.0000
# 2 73.4125 173.6499 17.1565 0.0000 0.0000 0.0000
# 3 7.9162 17.1565 11.9315 0.0000 0.0000 0.0000
# 4 0.0000 0.0000 0.0000 21.5226 0.0000 0.0000
# 5 0.0000 0.0000 0.0000 0.0000 15.6933 0.0000
# 6 0.0000 0.0000 0.0000 0.0000 0.0000 38.3344
#
#
#
# Elastic Compliance Matrix: (Units=1/GPa)
#
#
# Indices 1 2 3 4 5 6 
#
# 1 0.015375 -0.006401 -0.000996 0.000000 0.000000 0.000000
# 2 -0.006401 0.009378 -0.009237 0.000000 0.000000 0.000000
# 3 -0.000996 -0.009237 0.097754 0.000000 0.000000 0.000000
# 4 0.000000 0.000000 0.000000 0.046463 0.000000 0.000000
# 5 0.000000 0.000000 0.000000 0.000000 0.063722 0.000000
# 6 0.000000 0.000000 0.000000 0.000000 0.000000 0.026086
#
#
# Mechanical properties :
#
#
# Convention : Reuss Voigt Hill
#
# Bulk Modulus (GPa) = 11.20602 53.18593 32.19598
# Shear Modulus (GPa) = 15.53802 27.32458 21.43130
#
# Velocity S-wave (km/s) = 2.81181 3.72876 3.30227
# Velocity P-wave (km/s) = 4.03035 6.75286 5.56079
#
# Compressibility (1/GPa) = 0.08923771
#
# Stress axis : x y z
#
# Youngs Moduli (GPa) = 65.04249 106.63731 10.22974
#
# Poissons Ratio (x) = 0.68263 0.01019
# Poissons Ratio (y) = 0.41636 0.09449
# Poissons Ratio (z) = 0.06478 0.98501
#
# Static dielectric constant tensor:
#      x y z
#    x 3.495180 0.000000 0.000000 
#    y 0.000000 4.170100 0.000000 
#    z 0.000000 0.000000 2.936930 
# 
# 
# High freq. dielectric constant tensor:
#      x y z
#    x 1.756100 0.000000 0.000000 
#    y 0.000000 1.790440 0.000000 
#    z 0.000000 0.000000 1.702630 
# 
# From -- ./inp_files/13613.got.cif
#   From: 2010.06.25/outbox.cif.g09.slc.cpg/sg71_7_cif.got.tgz:13613.got - 2010.06.28 04:59:45.
