data_PCOD8288191
_publ_section_title
;
Structure prediction by ZEFSAII (Michael W. Deem and Ramdas Pophale) SiO2 
 PCOD8288191
Probable space group: I M M M
;
_chemical_formula_sum "Si O2"
_cell_formula_units_Z 112
_cell_length_a 13.072594
_cell_length_b 22.253107
_cell_length_c 23.180477
_cell_angle_alpha 90.000000
_cell_angle_beta 90.000000
_cell_angle_gamma 90.000000
_cell_volume 6743.335972
_symmetry_space_group_name_H-M "I M M M"
_symmetry_group_IT_number 71
_symmetry_cell_setting 'orthorhombic'
loop_
_space_group_symop_operation_xyz
x,y,z
-x,-y,z
x,-y,-z
-x,y,-z
-x,-y,-z
x,y,-z
-x,y,z
x,-y,z
1/2+x,1/2+y,1/2+z
1/2-x,1/2-y,1/2+z
1/2+x,1/2-y,1/2-z
1/2-x,1/2+y,1/2-z
1/2-x,1/2-y,1/2-z
1/2+x,1/2+y,1/2-z
1/2-x,1/2+y,1/2+z
1/2+x,1/2-y,1/2+z
loop_
_atom_site_type_symbol
_atom_site_label
_atom_site_fract_x
_atom_site_fract_y
_atom_site_fract_z
Si Si1 0.804186 0.752639 0.170179
Si Si2 0.617278 0.189342 0.777680
Si Si3 0.121478 0.932383 0.062313
Si Si4 0.620019 0.817033 0.434345
Si Si5 0.702403 0.067671 0.757204
Si Si6 0.616654 0.933285 0.634096
Si Si7 0.883154 0.119616 0.179939
O O1 0.684751 0.769591 0.179096
O O2 0.842595 0.699604 0.212255
O O3 0.820367 0.731592 0.104583
O O4 0.873136 0.809371 0.188560
O O5 0.500000 0.207604 0.786377
O O6 0.632488 0.117900 0.789407
O O7 0.162128 0.893390 0.115751
O O8 0.000000 0.931751 0.062615
O O9 0.162137 0.000000 0.070282
O O10 0.160153 0.906886 0.000000
O O11 0.657343 0.809291 0.500000
O O12 0.500000 0.803733 0.428733
O O13 0.646247 0.884800 0.414438
O O14 0.691211 0.073019 0.688513
O O15 0.820237 0.081884 0.772833
O O16 0.672202 0.000000 0.777477
O O17 0.500000 0.922801 0.655764
O O18 0.627878 0.000000 0.606725
O O19 0.000000 0.099076 0.186785
#
# Coordination Sequence:
#
# PCOD8288191 Si02
#       7
#    16  16  16  16  16  16  16
#     4  10  20  32  47  71  98 124 159 199 235 289
#     4  10  19  33  52  69  93 127 159 196 243 288
#     4   8  14  25  40  57  81 117 155 187 226 278
#     4  10  19  31  49  72 100 131 161 199 245 290
#     4  10  19  29  46  71  96 127 165 203 244 286
#     4   9  17  30  47  67  95 128 161 200 244 290
#     4  10  19  29  43  66  99 132 161 197 240 289
#
# _framework density 16.608989999999999
#
# number of rings (size 3 to 8) (size 9 to 14) (size 15 to 20)
#    0.000    2.429    1.429    2.571    0.000    2.571 
#    0.000    2.857    0.000    0.429    0.000    0.000 
#    0.000    1.714    0.000   33.286    0.000    1.286 
#
# Total GULP energy -694123.599730 kJ/mol
# GULP energy per Si atom -12395.064281 kJ/mol
# Density = 1.657119 g / cm^3
# Si number density = 16.608990 Si / 1000 Ang^3
#
#
#
# Elastic Constant Matrix: (Units=GPa)
#
#
# Indices 1 2 3 4 5 6 
#
# 1 85.6272 34.4799 46.1692 0.0000 0.0000 0.0000
# 2 34.4799 93.1227 39.3845 0.0000 0.0000 0.0000
# 3 46.1692 39.3845 103.2705 0.0000 0.0000 0.0000
# 4 0.0000 0.0000 0.0000 24.6075 0.0000 0.0000
# 5 0.0000 0.0000 0.0000 0.0000 20.7049 0.0000
# 6 0.0000 0.0000 0.0000 0.0000 0.0000 17.7906
#
#
#
# Elastic Compliance Matrix: (Units=1/GPa)
#
#
# Indices 1 2 3 4 5 6 
#
# 1 0.016302 -0.003522 -0.005945 0.000000 0.000000 0.000000
# 2 -0.003522 0.013564 -0.003599 0.000000 0.000000 0.000000
# 3 -0.005945 -0.003599 0.013714 0.000000 0.000000 0.000000
# 4 0.000000 0.000000 0.000000 0.040638 0.000000 0.000000
# 5 0.000000 0.000000 0.000000 0.000000 0.048298 0.000000
# 6 0.000000 0.000000 0.000000 0.000000 0.000000 0.056210
#
#
# Mechanical properties :
#
#
# Convention : Reuss Voigt Hill
#
# Bulk Modulus (GPa) = 57.30903 58.00975 57.65939
# Shear Modulus (GPa) = 22.65796 23.41972 23.03884
#
# Velocity S-wave (km/s) = 3.69751 3.75915 3.72846
# Velocity P-wave (km/s) = 7.26695 7.33786 7.30249
#
# Compressibility (1/GPa) = 0.01744926
#
# Stress axis : x y z
#
# Youngs Moduli (GPa) = 61.34149 73.72198 72.92015
#
# Poissons Ratio (x) = 0.25963 0.43352
# Poissons Ratio (y) = 0.21603 0.26242
# Poissons Ratio (z) = 0.36468 0.26530
#
# Static dielectric constant tensor:
#      x y z
#    x 2.872490 0.000000 0.000000 
#    y 0.000000 3.311880 0.000000 
#    z 0.000000 0.000000 3.182100 
# 
# 
# High freq. dielectric constant tensor:
#      x y z
#    x 1.599530 0.000000 0.000000 
#    y 0.000000 1.657000 0.000000 
#    z 0.000000 0.000000 1.621450 
# 
# From -- ./inp_files/64794.got.cif
#   From: 2010.06.25/outbox.cif.g09.slc.cpg/sg71_33_cif.got.tgz:64794.got - 2010.06.28 04:59:45.
