data_PCOD8288508
_publ_section_title
;
Structure prediction by ZEFSAII (Michael W. Deem and Ramdas Pophale) SiO2 
 PCOD8288508
Probable space group: I M M M
;
_chemical_formula_sum "Si O2"
_cell_formula_units_Z 104
_cell_length_a 24.378073
_cell_length_b 8.676821
_cell_length_c 26.821820
_cell_angle_alpha 90.000000
_cell_angle_beta 90.000000
_cell_angle_gamma 90.000000
_cell_volume 5673.463368
_symmetry_space_group_name_H-M "I M M M"
_symmetry_group_IT_number 71
_symmetry_cell_setting 'orthorhombic'
loop_
_space_group_symop_operation_xyz
x,y,z
-x,-y,z
x,-y,-z
-x,y,-z
-x,-y,-z
x,y,-z
-x,y,z
x,-y,z
1/2+x,1/2+y,1/2+z
1/2-x,1/2-y,1/2+z
1/2+x,1/2-y,1/2-z
1/2-x,1/2+y,1/2-z
1/2-x,1/2-y,1/2-z
1/2+x,1/2+y,1/2-z
1/2-x,1/2+y,1/2+z
1/2+x,1/2-y,1/2+z
loop_
_atom_site_type_symbol
_atom_site_label
_atom_site_fract_x
_atom_site_fract_y
_atom_site_fract_z
Si Si1 0.935211 0.332664 0.500000
Si Si2 0.560910 0.819496 0.629552
Si Si3 0.654864 0.183107 0.443336
Si Si4 0.269286 0.681086 0.364467
Si Si5 0.146594 0.680910 0.209734
Si Si6 0.438897 0.185017 0.106370
Si Si7 0.154341 0.316759 0.322513
O O1 0.906008 0.500000 0.500000
O O2 0.919838 0.247352 0.448033
O O3 0.000000 0.357418 0.500000
O O4 0.500000 0.743113 0.626782
O O5 0.600881 0.753785 0.585986
O O6 0.587618 0.786281 0.683841
O O7 0.554800 0.000000 0.621102
O O8 0.653698 0.245649 0.500000
O O9 0.709752 0.241236 0.415626
O O10 0.655689 0.000000 0.442199
O O11 0.268437 0.500000 0.373191
O O12 0.307754 0.722154 0.318431
O O13 0.209171 0.744180 0.349549
O O14 0.160963 0.500000 0.205885
O O15 0.147429 0.742812 0.266103
O O16 0.500000 0.242278 0.120301
O O17 0.397471 0.250041 0.147453
O O18 0.437812 0.000000 0.103673
O O19 0.154158 0.500000 0.322133
#
# Coordination Sequence:
#
# PCOD8288508 Si02
#       7
#     8  16  16  16  16  16  16
#     4   7  10  18  32  48  72 110 143 163 200 265
#     4   8  14  25  44  71  95 115 146 187 230 273
#     4   9  18  33  51  69  93 125 156 189 231 277
#     4  10  19  31  46  66  93 122 156 192 227 268
#     4   9  17  30  47  65  91 123 153 187 228 273
#     4   8  13  22  36  56  84 116 147 180 224 276
#     4   9  17  27  40  63  90 118 155 192 226 270
#
# _framework density 18.330953999999998
#
# number of rings (size 3 to 8) (size 9 to 14) (size 15 to 20)
#    0.000    3.308    0.000    2.769    0.000    1.231 
#    1.385    5.385    0.000    7.385    0.000    4.308 
#    0.000    4.923    0.000    1.692    0.000    1.231 
#
# Total GULP energy -644290.228569 kJ/mol
# GULP energy per Si atom -12390.196703 kJ/mol
# Density = 1.828923 g / cm^3
# Si number density = 18.330954 Si / 1000 Ang^3
#
#
#
# Elastic Constant Matrix: (Units=GPa)
#
#
# Indices 1 2 3 4 5 6 
#
# 1 134.5057 9.1412 90.1305 0.0000 0.0000 0.0000
# 2 9.1412 10.1679 10.9388 0.0000 0.0000 0.0000
# 3 90.1305 10.9388 166.5714 0.0000 0.0000 0.0000
# 4 0.0000 0.0000 0.0000 15.4135 0.0000 0.0000
# 5 0.0000 0.0000 0.0000 0.0000 21.1064 0.0000
# 6 0.0000 0.0000 0.0000 0.0000 0.0000 15.9636
#
#
#
# Elastic Compliance Matrix: (Units=1/GPa)
#
#
# Indices 1 2 3 4 5 6 
#
# 1 0.011815 -0.004029 -0.006128 0.000000 0.000000 0.000000
# 2 -0.004029 0.107199 -0.004860 0.000000 0.000000 0.000000
# 3 -0.006128 -0.004860 0.009639 0.000000 0.000000 0.000000
# 4 0.000000 0.000000 0.000000 0.064878 0.000000 0.000000
# 5 0.000000 0.000000 0.000000 0.000000 0.047379 0.000000
# 6 0.000000 0.000000 0.000000 0.000000 0.000000 0.062643
#
#
# Mechanical properties :
#
#
# Convention : Reuss Voigt Hill
#
# Bulk Modulus (GPa) = 10.14009 59.07400 34.60704
# Shear Modulus (GPa) = 13.64407 23.89900 18.77154
#
# Velocity S-wave (km/s) = 2.73118 3.61467 3.20353
# Velocity P-wave (km/s) = 3.93567 7.05106 5.70994
#
# Compressibility (1/GPa) = 0.09861847
#
# Stress axis : x y z
#
# Youngs Moduli (GPa) = 84.63796 9.32844 103.74912
#
# Poissons Ratio (x) = 0.03758 0.63582
# Poissons Ratio (y) = 0.34100 0.50420
# Poissons Ratio (z) = 0.51870 0.04533
#
# Static dielectric constant tensor:
#      x y z
#    x 3.579870 0.000000 0.000000 
#    y 0.000000 2.781170 0.000000 
#    z 0.000000 0.000000 3.774570 
# 
# 
# High freq. dielectric constant tensor:
#      x y z
#    x 1.705940 0.000000 0.000000 
#    y 0.000000 1.648650 0.000000 
#    z 0.000000 0.000000 1.722510 
# 
# From -- ./inp_files/66787.got.cif
#   From: 2010.06.25/outbox.cif.g09.slc.cpg/sg71_34_cif.got.tgz:66787.got - 2010.06.28 04:59:45.
