data_PCOD8288929
_publ_section_title
;
Structure prediction by ZEFSAII (Michael W. Deem and Ramdas Pophale) SiO2 
 PCOD8288929
Probable space group: I M M M
;
_chemical_formula_sum "Si O2"
_cell_formula_units_Z 72
_cell_length_a 13.917124
_cell_length_b 29.136020
_cell_length_c 9.864422
_cell_angle_alpha 90.000000
_cell_angle_beta 90.000000
_cell_angle_gamma 90.000000
_cell_volume 3999.920563
_symmetry_space_group_name_H-M "I M M M"
_symmetry_group_IT_number 71
_symmetry_cell_setting 'orthorhombic'
loop_
_space_group_symop_operation_xyz
x,y,z
-x,-y,z
x,-y,-z
-x,y,-z
-x,-y,-z
x,y,-z
-x,y,z
x,-y,z
1/2+x,1/2+y,1/2+z
1/2-x,1/2-y,1/2+z
1/2+x,1/2-y,1/2-z
1/2-x,1/2+y,1/2-z
1/2-x,1/2-y,1/2-z
1/2+x,1/2+y,1/2-z
1/2-x,1/2+y,1/2+z
1/2+x,1/2-y,1/2+z
loop_
_atom_site_type_symbol
_atom_site_label
_atom_site_fract_x
_atom_site_fract_y
_atom_site_fract_z
Si Si1 0.796192 0.311674 0.154392
Si Si2 0.609680 0.446972 0.653389
Si Si3 0.108269 0.241365 0.344323
Si Si4 0.606758 0.000000 0.339303
Si Si5 0.766461 0.415159 0.843482
O O1 0.868890 0.285374 0.252274
O O2 0.684755 0.298999 0.187494
O O3 0.814151 0.365554 0.176868
O O4 0.820471 0.297822 0.000000
O O5 0.645681 0.438824 0.500000
O O6 0.500000 0.431392 0.667453
O O7 0.621345 0.500000 0.693613
O O8 0.669818 0.416245 0.756322
O O9 0.116482 0.257209 0.500000
O O10 0.000000 0.223808 0.312248
O O11 0.660974 0.954194 0.289226
O O12 0.500000 0.000000 0.275763
O O13 0.600047 0.000000 0.500000
O O14 0.739016 0.423609 0.000000
#
# Coordination Sequence:
#
# PCOD8288929 Si02
#       5
#    16  16  16   8  16
#     4   9  19  33  51  77 103 129 166 211 255 300
#     4   9  18  32  49  70  99 135 169 203 248 296
#     4   9  18  34  53  72  99 133 165 204 256 308
#     4   9  18  32  48  69 100 134 167 205 248 291
#     4  10  19  32  52  76 101 132 171 212 251 292
#
# _framework density 18.000357999999999
#
# number of rings (size 3 to 8) (size 9 to 14) (size 15 to 20)
#    0.000    2.778    1.111    0.667    0.000    3.556 
#    0.000    5.556    0.000    1.333    0.000    0.000 
#    0.000    0.000    0.000    0.000    0.000    0.000 
#
# Total GULP energy -446365.897669 kJ/mol
# GULP energy per Si atom -12399.052713 kJ/mol
# Density = 1.795939 g / cm^3
# Si number density = 18.000358 Si / 1000 Ang^3
#
#
#
# Elastic Constant Matrix: (Units=GPa)
#
#
# Indices 1 2 3 4 5 6 
#
# 1 85.1201 30.7732 31.5248 0.0001 -0.0007 -0.0001
# 2 30.7732 94.5490 29.3736 0.0006 0.0001 0.0001
# 3 31.5248 29.3736 54.3048 0.0014 0.0003 0.0005
# 4 0.0001 0.0006 0.0014 26.3715 0.0005 0.0003
# 5 -0.0007 0.0001 0.0003 0.0005 27.0422 0.0003
# 6 -0.0001 0.0001 0.0005 0.0003 0.0003 17.2837
#
#
#
# Elastic Compliance Matrix: (Units=1/GPa)
#
#
# Indices 1 2 3 4 5 6 
#
# 1 0.015522 -0.002708 -0.007546 0.000000 0.000000 0.000000
# 2 -0.002708 0.013185 -0.005560 0.000000 0.000000 0.000000
# 3 -0.007546 -0.005560 0.025803 -0.000001 0.000000 -0.000001
# 4 0.000000 0.000000 -0.000001 0.037920 -0.000001 -0.000001
# 5 0.000000 0.000000 0.000000 -0.000001 0.036979 -0.000001
# 6 0.000000 0.000000 -0.000001 -0.000001 -0.000001 0.057858
#
#
# Mechanical properties :
#
#
# Convention : Reuss Voigt Hill
#
# Bulk Modulus (GPa) = 43.70237 46.36856 45.03547
# Shear Modulus (GPa) = 22.07299 23.62630 22.84964
#
# Velocity S-wave (km/s) = 3.50559 3.62684 3.56673
# Velocity P-wave (km/s) = 6.38098 6.58440 6.48349
#
# Compressibility (1/GPa) = 0.02288205
#
# Stress axis : x y z
#
# Youngs Moduli (GPa) = 64.42595 75.84299 38.75570
#
# Poissons Ratio (x) = 0.20535 0.29245
# Poissons Ratio (y) = 0.17444 0.21549
# Poissons Ratio (z) = 0.48616 0.42169
#
# Static dielectric constant tensor:
#      x y z
#    x 3.338100 0.000000 0.000000 
#    y 0.000000 3.202090 -0.000010 
#    z 0.000000 -0.000010 3.237850 
# 
# 
# High freq. dielectric constant tensor:
#      x y z
#    x 1.691830 0.000000 0.000000 
#    y 0.000000 1.685950 0.000000 
#    z 0.000000 0.000000 1.686820 
# 
# From -- ./inp_files/6080.got.cif
#   From: 2010.06.25/outbox.cif.g09.slc.cpg/sg71_4_cif.got.tgz:6080.got - 2010.06.28 04:59:45.
