data_PCOD8288244
_publ_section_title
;
Structure prediction by ZEFSAII (Michael W. Deem and Ramdas Pophale) SiO2 
 PCOD8288244
Probable space group: I M M M
;
_chemical_formula_sum "Si O2"
_cell_formula_units_Z 72
_cell_length_a 8.972685
_cell_length_b 24.855037
_cell_length_c 17.027235
_cell_angle_alpha 90.000000
_cell_angle_beta 90.000000
_cell_angle_gamma 90.000000
_cell_volume 3797.352952
_symmetry_space_group_name_H-M "I M M M"
_symmetry_group_IT_number 71
_symmetry_cell_setting 'orthorhombic'
loop_
_space_group_symop_operation_xyz
x,y,z
-x,-y,z
x,-y,-z
-x,y,-z
-x,-y,-z
x,y,-z
-x,y,z
x,-y,z
1/2+x,1/2+y,1/2+z
1/2-x,1/2-y,1/2+z
1/2+x,1/2-y,1/2-z
1/2-x,1/2+y,1/2-z
1/2-x,1/2-y,1/2-z
1/2+x,1/2+y,1/2-z
1/2-x,1/2+y,1/2+z
1/2+x,1/2-y,1/2+z
loop_
_atom_site_type_symbol
_atom_site_label
_atom_site_fract_x
_atom_site_fract_y
_atom_site_fract_z
Si Si1 0.177645 0.346815 0.304674
Si Si2 0.326405 0.737486 0.412570
Si Si3 0.821879 0.561504 0.000000
Si Si4 0.175608 0.356169 0.871055
Si Si5 0.677161 0.940798 0.912646
O O1 0.235148 0.292391 0.344823
O O2 0.242008 0.355012 0.217112
O O3 0.243003 0.396876 0.353768
O O4 0.000000 0.344314 0.304681
O O5 0.288235 0.715230 0.500000
O O6 0.500000 0.730347 0.393342
O O7 0.281813 0.800178 0.412183
O O8 0.762353 0.593692 0.922744
O O9 0.760545 0.500000 0.000000
O O10 0.000000 0.561119 0.000000
O O11 0.000000 0.362900 0.865509
O O12 0.500000 0.938073 0.912963
O O13 0.729811 0.000000 0.885066
O O14 0.737910 0.928800 0.000000
#
# Coordination Sequence:
#
# PCOD8288244 Si02
#       5
#    16  16   8  16  16
#     4  10  19  29  47  74  98 120 159 208 243 282
#     4  10  19  32  49  66  95 135 164 189 238 302
#     4   9  16  28  48  72  99 133 170 203 240 294
#     4   9  17  30  45  66  97 129 158 197 248 291
#     4   8  14  25  40  60  90 122 145 177 234 288
#
# _framework density 18.960577000000001
#
# number of rings (size 3 to 8) (size 9 to 14) (size 15 to 20)
#    0.000    2.778    1.111    2.000    0.000    2.222 
#    0.000    4.444    0.000    0.667    0.000    3.111 
#    0.000    6.222    0.000    0.000    0.000    0.000 
#
# Total GULP energy -446161.865385 kJ/mol
# GULP energy per Si atom -12393.385150 kJ/mol
# Density = 1.891742 g / cm^3
# Si number density = 18.960577 Si / 1000 Ang^3
#
#
#
# Elastic Constant Matrix: (Units=GPa)
#
#
# Indices 1 2 3 4 5 6 
#
# 1 12.0956 17.0967 17.1241 -0.0001 0.0000 0.0000
# 2 17.0967 129.0590 76.1353 0.0000 0.0000 0.0000
# 3 17.1241 76.1353 153.3665 -0.0008 -0.0002 -0.0001
# 4 -0.0001 0.0000 -0.0008 23.9327 -0.0001 0.0000
# 5 0.0000 0.0000 -0.0002 -0.0001 15.5068 -0.0001
# 6 0.0000 0.0000 -0.0001 0.0000 -0.0001 16.6000
#
#
#
# Elastic Compliance Matrix: (Units=1/GPa)
#
#
# Indices 1 2 3 4 5 6 
#
# 1 0.106678 -0.010048 -0.006923 0.000000 0.000000 0.000000
# 2 -0.010048 0.011904 -0.004787 0.000000 0.000000 0.000000
# 3 -0.006923 -0.004787 0.009670 0.000000 0.000000 0.000000
# 4 0.000000 0.000000 0.000000 0.041784 0.000000 0.000000
# 5 0.000000 0.000000 0.000000 0.000000 0.064488 0.000000
# 6 0.000000 0.000000 0.000000 0.000000 0.000000 0.060241
#
#
# Mechanical properties :
#
#
# Convention : Reuss Voigt Hill
#
# Bulk Modulus (GPa) = 11.80151 57.24817 34.52484
# Shear Modulus (GPa) = 13.64160 23.48555 18.56358
#
# Velocity S-wave (km/s) = 2.68521 3.52327 3.13239
# Velocity P-wave (km/s) = 3.98140 6.84178 5.59739
#
# Compressibility (1/GPa) = 0.08473493
#
# Stress axis : x y z
#
# Youngs Moduli (GPa) = 9.37402 84.00767 103.41331
#
# Poissons Ratio (x) = 0.84409 0.71594
# Poissons Ratio (y) = 0.09419 0.49508
# Poissons Ratio (z) = 0.06490 0.40218
#
# Static dielectric constant tensor:
#      x y z
#    x 2.787990 0.000000 0.000000 
#    y 0.000000 3.691680 0.000000 
#    z 0.000000 0.000000 3.860050 
# 
# 
# High freq. dielectric constant tensor:
#      x y z
#    x 1.661350 0.000000 0.000000 
#    y 0.000000 1.744970 0.000000 
#    z 0.000000 0.000000 1.751770 
# 
# From -- ./inp_files/7965.got.cif
#   From: 2010.06.25/outbox.cif.g09.slc.cpg/sg71_4_cif.got.tgz:7965.got - 2010.06.28 04:59:45.
