data_PCOD8288408
_publ_section_title
;
Structure prediction by ZEFSAII (Michael W. Deem and Ramdas Pophale) SiO2 
 PCOD8288408
Probable space group: I M M M
;
_chemical_formula_sum "Si O2"
_cell_formula_units_Z 120
_cell_length_a 20.517131
_cell_length_b 27.175327
_cell_length_c 12.397158
_cell_angle_alpha 90.000000
_cell_angle_beta 90.000000
_cell_angle_gamma 90.000000
_cell_volume 6912.156241
_symmetry_space_group_name_H-M "I M M M"
_symmetry_group_IT_number 71
_symmetry_cell_setting 'orthorhombic'
loop_
_space_group_symop_operation_xyz
x,y,z
-x,-y,z
x,-y,-z
-x,y,-z
-x,-y,-z
x,y,-z
-x,y,z
x,-y,z
1/2+x,1/2+y,1/2+z
1/2-x,1/2-y,1/2+z
1/2+x,1/2-y,1/2-z
1/2-x,1/2+y,1/2-z
1/2-x,1/2-y,1/2-z
1/2+x,1/2+y,1/2-z
1/2-x,1/2+y,1/2+z
1/2+x,1/2-y,1/2+z
loop_
_atom_site_type_symbol
_atom_site_label
_atom_site_fract_x
_atom_site_fract_y
_atom_site_fract_z
Si Si1 0.283469 0.308106 0.626163
Si Si2 0.072968 0.793795 0.377622
Si Si3 0.000000 0.943127 0.872697
Si Si4 0.839885 0.720717 0.254323
Si Si5 0.295234 0.557530 0.878825
Si Si6 0.114966 0.119932 0.771626
Si Si7 0.150653 0.553426 0.127922
Si Si8 0.423615 0.147041 0.623233
O O1 0.268058 0.307969 0.500000
O O2 0.215964 0.313754 0.693031
O O3 0.312076 0.255316 0.660056
O O4 0.333978 0.352125 0.650437
O O5 0.087395 0.810356 0.500000
O O6 0.126053 0.752911 0.346995
O O7 0.076856 0.840769 0.300365
O O8 0.000000 0.771882 0.366818
O O9 0.064145 0.913207 0.837327
O O10 0.000000 0.000000 0.828278
O O11 0.000000 0.944874 0.000000
O O12 0.894158 0.687740 0.199646
O O13 0.309769 0.500000 0.877229
O O14 0.346990 0.583532 0.805003
O O15 0.222916 0.568558 0.832816
O O16 0.302146 0.578389 0.000000
O O17 0.130717 0.500000 0.176313
O O18 0.098625 0.593599 0.166171
O O19 0.152749 0.548940 0.000000
O O20 0.400208 0.155088 0.500000
O O21 0.500000 0.150704 0.632733
#
# Coordination Sequence:
#
# PCOD8288408 Si02
#       8
#    16  16   8  16  16  16  16  16
#     4  10  21  35  53  75  97 127 171 216 259 309
#     4  10  20  34  52  74 103 136 170 206 249 311
#     4  11  24  40  55  73 101 137 176 220 268 315
#     4  10  20  34  52  73 102 133 165 211 261 305
#     4   9  17  30  50  76 104 132 165 207 257 308
#     4  11  20  35  54  75 100 133 171 214 259 313
#     4   8  15  28  45  68 100 135 167 201 244 294
#     4  10  19  30  47  73 105 138 171 205 244 299
#
# _framework density 17.360717999999999
#
# number of rings (size 3 to 8) (size 9 to 14) (size 15 to 20)
#    0.000    2.200    0.667    4.000    0.000    0.267 
#    0.000    5.333    0.000    1.600    0.000    0.000 
#    0.000    1.600    0.000   10.800    0.000    0.800 
#
# Total GULP energy -743843.249607 kJ/mol
# GULP energy per Si atom -12397.387493 kJ/mol
# Density = 1.732120 g / cm^3
# Si number density = 17.360718 Si / 1000 Ang^3
#
#
#
# Elastic Constant Matrix: (Units=GPa)
#
#
# Indices 1 2 3 4 5 6 
#
# 1 86.9499 51.4534 38.0744 0.0000 0.0000 0.0000
# 2 51.4534 83.0150 39.3100 0.0000 0.0000 0.0000
# 3 38.0744 39.3100 74.5331 0.0000 0.0000 0.0000
# 4 0.0000 0.0000 0.0000 20.6334 0.0000 0.0000
# 5 0.0000 0.0000 0.0000 0.0000 25.9665 0.0000
# 6 0.0000 0.0000 0.0000 0.0000 0.0000 32.7279
#
#
#
# Elastic Compliance Matrix: (Units=1/GPa)
#
#
# Indices 1 2 3 4 5 6 
#
# 1 0.019343 -0.009743 -0.004742 0.000000 0.000000 0.000000
# 2 -0.009743 0.020964 -0.006079 0.000000 0.000000 0.000000
# 3 -0.004742 -0.006079 0.019046 0.000000 0.000000 0.000000
# 4 0.000000 0.000000 0.000000 0.048465 0.000000 0.000000
# 5 0.000000 0.000000 0.000000 0.000000 0.038511 0.000000
# 6 0.000000 0.000000 0.000000 0.000000 0.000000 0.030555
#
#
# Mechanical properties :
#
#
# Convention : Reuss Voigt Hill
#
# Bulk Modulus (GPa) = 54.87730 55.79709 55.33719
# Shear Modulus (GPa) = 22.31255 23.57623 22.94439
#
# Velocity S-wave (km/s) = 3.58890 3.68913 3.63936
# Velocity P-wave (km/s) = 6.98944 7.09619 7.04302
#
# Compressibility (1/GPa) = 0.01822247
#
# Stress axis : x y z
#
# Youngs Moduli (GPa) = 51.69738 47.70115 52.50494
#
# Poissons Ratio (x) = 0.46478 0.24900
# Poissons Ratio (y) = 0.50371 0.31920
# Poissons Ratio (z) = 0.24517 0.28999
#
# Static dielectric constant tensor:
#      x y z
#    x 3.329990 0.000000 0.000000 
#    y 0.000000 3.399330 0.000000 
#    z 0.000000 0.000000 3.019550 
# 
# 
# High freq. dielectric constant tensor:
#      x y z
#    x 1.681650 0.000000 0.000000 
#    y 0.000000 1.672080 0.000000 
#    z 0.000000 0.000000 1.649070 
# 
# From -- ./inp_files/26297.got.cif
#   From: 2010.06.25/outbox.cif.g09.slc.cpg/sg71_14_cif.got.tgz:26297.got - 2010.06.28 04:59:45.
