data_PCOD8288762
_publ_section_title
;
Structure prediction by ZEFSAII (Michael W. Deem and Ramdas Pophale) SiO2 
 PCOD8288762
Probable space group: I M M M
;
_chemical_formula_sum "Si O2"
_cell_formula_units_Z 90
_cell_length_a 27.500763
_cell_length_b 9.003138
_cell_length_c 20.690109
_cell_angle_alpha 90.000000
_cell_angle_beta 90.000000
_cell_angle_gamma 90.000000
_cell_volume 5122.729559
_symmetry_space_group_name_H-M "I M M M"
_symmetry_group_IT_number 71
_symmetry_cell_setting 'orthorhombic'
loop_
_space_group_symop_operation_xyz
x,y,z
-x,-y,z
x,-y,-z
-x,y,-z
-x,-y,-z
x,y,-z
-x,y,z
x,-y,z
1/2+x,1/2+y,1/2+z
1/2-x,1/2-y,1/2+z
1/2+x,1/2-y,1/2-z
1/2-x,1/2+y,1/2-z
1/2-x,1/2-y,1/2-z
1/2+x,1/2+y,1/2-z
1/2-x,1/2+y,1/2+z
1/2+x,1/2-y,1/2+z
loop_
_atom_site_type_symbol
_atom_site_label
_atom_site_fract_x
_atom_site_fract_y
_atom_site_fract_z
Si Si1 0.813440 0.327644 0.193654
Si Si2 0.555664 0.325276 0.164365
Si Si3 0.369121 0.174935 0.926070
Si Si4 0.087333 0.176077 0.806669
Si Si5 0.000000 0.500000 0.000000
Si Si6 0.281020 0.172020 0.161769
Si Si7 0.000000 0.338896 0.871319
O O1 0.821187 0.500000 0.178259
O O2 0.860611 0.237843 0.171041
O O3 0.767540 0.268659 0.152812
O O4 0.805090 0.296939 0.269086
O O5 0.500000 0.273192 0.160103
O O6 0.560454 0.500000 0.155921
O O7 0.584469 0.249029 0.106579
O O8 0.577049 0.274505 0.233125
O O9 0.319183 0.226048 0.892031
O O10 0.375403 0.000000 0.919038
O O11 0.366725 0.226852 0.000000
O O12 0.047541 0.245959 0.853243
O O13 0.085953 0.000000 0.814224
O O14 0.000000 0.365299 0.948009
O O15 0.267005 0.000000 0.153931
O O16 0.000000 0.500000 0.834626
#
# Coordination Sequence:
#
# PCOD8288762 Si02
#       7
#    16  16  16  16   2  16   8
#     4  10  19  31  53  84 111 141 182 240 296 338
#     4  10  21  36  53  80 116 148 190 242 283 328
#     4  10  21  37  56  77 109 153 197 237 285 347
#     4  11  20  34  58  90 118 147 188 237 287 333
#     4   8  24  44  62  88 120 152 180 220 276 348
#     4   9  18  33  51  76 109 145 187 234 293 344
#     4  10  21  39  63  85 116 149 181 221 276 338
#
# _framework density 17.568760000000001
#
# number of rings (size 3 to 8) (size 9 to 14) (size 15 to 20)
#    0.267    1.778    2.667    1.333    0.000    3.200 
#    0.000    2.667    1.956    0.000    0.000    0.000 
#    0.000    0.000    0.000    0.000    0.000    0.000 
#
# Total GULP energy -557590.904809 kJ/mol
# GULP energy per Si atom -12390.908996 kJ/mol
# Density = 1.752877 g / cm^3
# Si number density = 17.568760 Si / 1000 Ang^3
#
#
#
# Elastic Constant Matrix: (Units=GPa)
#
#
# Indices 1 2 3 4 5 6 
#
# 1 149.2552 58.5554 50.9394 0.0000 0.0000 0.0000
# 2 58.5554 72.7897 34.6336 0.0000 0.0000 0.0000
# 3 50.9394 34.6336 80.6804 0.0000 0.0000 0.0000
# 4 0.0000 0.0000 0.0000 24.3795 0.0000 0.0000
# 5 0.0000 0.0000 0.0000 0.0000 21.1295 0.0000
# 6 0.0000 0.0000 0.0000 0.0000 0.0000 36.1418
#
#
#
# Elastic Compliance Matrix: (Units=1/GPa)
#
#
# Indices 1 2 3 4 5 6 
#
# 1 0.010655 -0.006749 -0.003830 0.000000 0.000000 0.000000
# 2 -0.006749 0.021539 -0.004985 0.000000 0.000000 0.000000
# 3 -0.003830 -0.004985 0.016953 0.000000 0.000000 0.000000
# 4 0.000000 0.000000 0.000000 0.041018 0.000000 0.000000
# 5 0.000000 0.000000 0.000000 0.000000 0.047327 0.000000
# 6 0.000000 0.000000 0.000000 0.000000 0.000000 0.027669
#
#
# Mechanical properties :
#
#
# Convention : Reuss Voigt Hill
#
# Bulk Modulus (GPa) = 55.49780 65.66466 60.58123
# Shear Modulus (GPa) = 24.71637 26.90328 25.80982
#
# Velocity S-wave (km/s) = 3.75485 3.91745 3.83701
# Velocity P-wave (km/s) = 7.10324 7.61044 7.36121
#
# Compressibility (1/GPa) = 0.01801873
#
# Stress axis : x y z
#
# Youngs Moduli (GPa) = 93.85456 46.42702 58.98757
#
# Poissons Ratio (x) = 0.31333 0.22593
# Poissons Ratio (y) = 0.63341 0.29406
# Poissons Ratio (z) = 0.35947 0.23144
#
# Static dielectric constant tensor:
#      x y z
#    x 3.362310 0.000000 0.000000 
#    y 0.000000 3.260560 0.000000 
#    z 0.000000 0.000000 3.088920 
# 
# 
# High freq. dielectric constant tensor:
#      x y z
#    x 1.687530 0.000000 0.000000 
#    y 0.000000 1.685400 0.000000 
#    z 0.000000 0.000000 1.652940 
# 
# From -- ./inp_files/12656.got.cif
#   From: 2010.06.25/outbox.cif.g09.slc.cpg/sg71_7_cif.got.tgz:12656.got - 2010.06.28 04:59:45.
