data_PCOD8288865
_publ_section_title
;
Structure prediction by ZEFSAII (Michael W. Deem and Ramdas Pophale) SiO2 
 PCOD8288865
Probable space group: I M M M
;
_chemical_formula_sum "Si O2"
_cell_formula_units_Z 88
_cell_length_a 21.417563
_cell_length_b 13.147237
_cell_length_c 17.994591
_cell_angle_alpha 90.000000
_cell_angle_beta 90.000000
_cell_angle_gamma 90.000000
_cell_volume 5066.948905
_symmetry_space_group_name_H-M "I M M M"
_symmetry_group_IT_number 71
_symmetry_cell_setting 'orthorhombic'
loop_
_space_group_symop_operation_xyz
x,y,z
-x,-y,z
x,-y,-z
-x,y,-z
-x,-y,-z
x,y,-z
-x,y,z
x,-y,z
1/2+x,1/2+y,1/2+z
1/2-x,1/2-y,1/2+z
1/2+x,1/2-y,1/2-z
1/2-x,1/2+y,1/2-z
1/2-x,1/2-y,1/2-z
1/2+x,1/2+y,1/2-z
1/2-x,1/2+y,1/2+z
1/2+x,1/2-y,1/2+z
loop_
_atom_site_type_symbol
_atom_site_label
_atom_site_fract_x
_atom_site_fract_y
_atom_site_fract_z
Si Si1 0.574286 0.000000 0.916944
Si Si2 0.426459 0.788055 0.853059
Si Si3 0.149819 0.713699 0.789655
Si Si4 0.346209 0.615797 0.916261
Si Si5 0.571744 0.117225 0.413805
Si Si6 0.726724 0.386754 0.229914
O O1 0.599991 0.897642 0.878709
O O2 0.500000 0.000000 0.914352
O O3 0.600064 0.000000 0.000000
O O4 0.500000 0.784178 0.858981
O O5 0.406338 0.774685 0.768183
O O6 0.401687 0.696259 0.904213
O O7 0.118588 0.689976 0.868810
O O8 0.198659 0.626301 0.765384
O O9 0.190362 0.817540 0.790063
O O10 0.371452 0.500000 0.906042
O O11 0.292698 0.639013 0.855436
O O12 0.319213 0.629517 0.000000
O O13 0.586840 0.133454 0.500000
O O14 0.500000 0.146347 0.396739
O O15 0.583233 0.000000 0.390869
O O16 0.708475 0.500000 0.252278
#
# Coordination Sequence:
#
# PCOD8288865 Si02
#       6
#     8  16  16  16  16  16
#     4   9  18  30  42  62  95 129 157 191 229 272
#     4  10  20  31  47  73  99 129 165 197 238 293
#     4  10  19  32  51  73  96 131 164 200 244 296
#     4   9  18  33  51  71  98 129 163 204 244 284
#     4   9  18  31  49  76 105 127 152 197 254 304
#     4   9  19  33  49  72  98 128 166 207 244 282
#
# _framework density 17.367453999999999
#
# number of rings (size 3 to 8) (size 9 to 14) (size 15 to 20)
#    0.000    2.636    0.000    2.182    2.545    2.182 
#    0.000    2.727    0.000    2.182    0.000    1.273 
#    0.000    0.000    0.000    0.000    0.000    0.000 
#
# Total GULP energy -545401.807913 kJ/mol
# GULP energy per Si atom -12395.495634 kJ/mol
# Density = 1.732793 g / cm^3
# Si number density = 17.367454 Si / 1000 Ang^3
#
#
#
# Elastic Constant Matrix: (Units=GPa)
#
#
# Indices 1 2 3 4 5 6 
#
# 1 61.1427 34.5266 29.3576 0.0000 0.0000 0.0000
# 2 34.5266 98.9883 37.6958 0.0000 0.0000 0.0000
# 3 29.3576 37.6958 74.9822 0.0000 0.0000 0.0000
# 4 0.0000 0.0000 0.0000 28.7656 0.0000 0.0000
# 5 0.0000 0.0000 0.0000 0.0000 19.6956 0.0000
# 6 0.0000 0.0000 0.0000 0.0000 0.0000 22.0914
#
#
#
# Elastic Compliance Matrix: (Units=1/GPa)
#
#
# Indices 1 2 3 4 5 6 
#
# 1 0.022338 -0.005517 -0.005972 0.000000 0.000000 0.000000
# 2 -0.005517 0.013857 -0.004806 0.000000 0.000000 0.000000
# 3 -0.005972 -0.004806 0.018091 0.000000 0.000000 0.000000
# 4 0.000000 0.000000 0.000000 0.034764 0.000000 0.000000
# 5 0.000000 0.000000 0.000000 0.000000 0.050773 0.000000
# 6 0.000000 0.000000 0.000000 0.000000 0.000000 0.045266
#
#
# Mechanical properties :
#
#
# Convention : Reuss Voigt Hill
#
# Bulk Modulus (GPa) = 46.09402 48.69701 47.39551
# Shear Modulus (GPa) = 22.23091 23.01273 22.62182
#
# Velocity S-wave (km/s) = 3.58164 3.64407 3.61299
# Velocity P-wave (km/s) = 6.61077 6.76800 6.68984
#
# Compressibility (1/GPa) = 0.02169479
#
# Stress axis : x y z
#
# Youngs Moduli (GPa) = 44.76617 72.16694 55.27592
#
# Poissons Ratio (x) = 0.39815 0.33013
# Poissons Ratio (y) = 0.24698 0.26566
# Poissons Ratio (z) = 0.26736 0.34684
#
# Static dielectric constant tensor:
#      x y z
#    x 3.080250 0.000000 0.000000 
#    y 0.000000 3.368490 0.000000 
#    z 0.000000 0.000000 3.182080 
# 
# 
# High freq. dielectric constant tensor:
#      x y z
#    x 1.658890 0.000000 0.000000 
#    y 0.000000 1.670910 0.000000 
#    z 0.000000 0.000000 1.664410 
# 
# From -- ./inp_files/43365.got.cif
#   From: 2010.06.25/outbox.cif.g09.slc.cpg/sg71_22_cif.got.tgz:43365.got - 2010.06.28 04:59:45.
