data_PCOD8288727
_publ_section_title
;
Structure prediction by ZEFSAII (Michael W. Deem and Ramdas Pophale) SiO2 
 PCOD8288727
Probable space group: I M M M
;
_chemical_formula_sum "Si O2"
_cell_formula_units_Z 88
_cell_length_a 9.362756
_cell_length_b 27.602437
_cell_length_c 18.705059
_cell_angle_alpha 90.000000
_cell_angle_beta 90.000000
_cell_angle_gamma 90.000000
_cell_volume 4834.039727
_symmetry_space_group_name_H-M "I M M M"
_symmetry_group_IT_number 71
_symmetry_cell_setting 'orthorhombic'
loop_
_space_group_symop_operation_xyz
x,y,z
-x,-y,z
x,-y,-z
-x,y,-z
-x,-y,-z
x,y,-z
-x,y,z
x,-y,z
1/2+x,1/2+y,1/2+z
1/2-x,1/2-y,1/2+z
1/2+x,1/2-y,1/2-z
1/2-x,1/2+y,1/2-z
1/2-x,1/2-y,1/2-z
1/2+x,1/2+y,1/2-z
1/2-x,1/2+y,1/2+z
1/2+x,1/2-y,1/2+z
loop_
_atom_site_type_symbol
_atom_site_label
_atom_site_fract_x
_atom_site_fract_y
_atom_site_fract_z
Si Si1 0.333226 0.554550 0.287291
Si Si2 0.666802 0.147404 0.817376
Si Si3 0.166224 0.730891 0.579631
Si Si4 0.843096 0.084144 0.631027
Si Si5 0.155376 0.556551 0.000000
Si Si6 0.338758 0.311089 0.812992
O O1 0.500000 0.566971 0.298850
O O2 0.297639 0.500000 0.314540
O O3 0.239942 0.594773 0.328570
O O4 0.294506 0.557872 0.203740
O O5 0.500000 0.140226 0.799378
O O6 0.689439 0.176422 0.891223
O O7 0.737792 0.179544 0.754861
O O8 0.235855 0.735102 0.500000
O O9 0.230434 0.769269 0.636811
O O10 0.000000 0.743084 0.573369
O O11 0.732412 0.072510 0.570851
O O12 0.846442 0.141437 0.639099
O O13 0.000000 0.065080 0.608760
O O14 0.140780 0.500000 0.000000
O O15 0.000000 0.581241 0.000000
O O16 0.500000 0.297352 0.786878
#
# Coordination Sequence:
#
# PCOD8288727 Si02
#       6
#    16  16  16  16   8  16
#     4   9  18  34  55  75  95 125 167 209 247 296
#     4  10  19  31  51  79 107 132 161 207 260 303
#     4   9  18  32  52  76 102 135 174 210 245 294
#     4   9  18  31  49  70  89 118 166 211 240 280
#     4  11  23  33  41  59  93 133 163 197 252 301
#     4   9  18  33  54  74  96 133 174 210 244 290
#
# _framework density 18.204236000000002
#
# number of rings (size 3 to 8) (size 9 to 14) (size 15 to 20)
#    0.000    2.636    0.000    3.000    1.273    4.727 
#    0.000    0.909    0.000    4.909    0.000    3.818 
#    0.000    0.000    0.000    0.000    0.000    0.000 
#
# Total GULP energy -545388.936129 kJ/mol
# GULP energy per Si atom -12395.203094 kJ/mol
# Density = 1.816280 g / cm^3
# Si number density = 18.204236 Si / 1000 Ang^3
#
#
#
# Elastic Constant Matrix: (Units=GPa)
#
#
# Indices 1 2 3 4 5 6 
#
# 1 68.7218 28.7371 26.4647 0.0001 0.0000 0.0000
# 2 28.7371 105.7479 37.0263 0.0001 0.0000 0.0000
# 3 26.4647 37.0263 56.8975 0.0005 0.0000 0.0000
# 4 0.0001 0.0001 0.0005 10.2718 0.0000 0.0000
# 5 0.0000 0.0000 0.0000 0.0000 21.4252 0.0000
# 6 0.0000 0.0000 0.0000 0.0000 0.0000 25.0278
#
#
#
# Elastic Compliance Matrix: (Units=1/GPa)
#
#
# Indices 1 2 3 4 5 6 
#
# 1 0.018252 -0.002574 -0.006815 0.000000 0.000000 0.000000
# 2 -0.002574 0.012610 -0.007009 0.000000 0.000000 0.000000
# 3 -0.006815 -0.007009 0.025306 -0.000001 0.000000 0.000000
# 4 0.000000 0.000000 -0.000001 0.097354 0.000000 0.000000
# 5 0.000000 0.000000 0.000000 0.000000 0.046674 0.000000
# 6 0.000000 0.000000 0.000000 0.000000 0.000000 0.039956
#
#
# Mechanical properties :
#
#
# Convention : Reuss Voigt Hill
#
# Bulk Modulus (GPa) = 42.78340 46.20258 44.49299
# Shear Modulus (GPa) = 17.81026 20.62091 19.21558
#
# Velocity S-wave (km/s) = 3.13126 3.36929 3.25246
# Velocity P-wave (km/s) = 6.05194 6.36957 6.21279
#
# Compressibility (1/GPa) = 0.02337355
#
# Stress axis : x y z
#
# Youngs Moduli (GPa) = 54.78838 79.30236 39.51625
#
# Poissons Ratio (x) = 0.20412 0.26928
# Poissons Ratio (y) = 0.14102 0.27696
# Poissons Ratio (z) = 0.37336 0.55581
#
# Static dielectric constant tensor:
#      x y z
#    x 3.483640 0.000000 0.000000 
#    y 0.000000 3.551730 0.000000 
#    z 0.000000 0.000000 3.188940 
# 
# 
# High freq. dielectric constant tensor:
#      x y z
#    x 1.688840 0.000000 0.000000 
#    y 0.000000 1.714740 0.000000 
#    z 0.000000 0.000000 1.678490 
# 
# From -- ./inp_files/10922.got.cif
#   From: 2010.06.25/outbox.cif.g09.slc.cpg/sg71_6_cif.got.tgz:10922.got - 2010.06.28 04:59:45.
