data_PCOD8288710
_publ_section_title
;
Structure prediction by ZEFSAII (Michael W. Deem and Ramdas Pophale) SiO2 
 PCOD8288710
Probable space group: I M M M
;
_chemical_formula_sum "Si O2"
_cell_formula_units_Z 80
_cell_length_a 12.506205
_cell_length_b 13.488774
_cell_length_c 26.990239
_cell_angle_alpha 90.000000
_cell_angle_beta 90.000000
_cell_angle_gamma 90.000000
_cell_volume 4553.074451
_symmetry_space_group_name_H-M "I M M M"
_symmetry_group_IT_number 71
_symmetry_cell_setting 'orthorhombic'
loop_
_space_group_symop_operation_xyz
x,y,z
-x,-y,z
x,-y,-z
-x,y,-z
-x,-y,-z
x,y,-z
-x,y,z
x,-y,z
1/2+x,1/2+y,1/2+z
1/2-x,1/2-y,1/2+z
1/2+x,1/2-y,1/2-z
1/2-x,1/2+y,1/2-z
1/2-x,1/2-y,1/2-z
1/2+x,1/2+y,1/2-z
1/2-x,1/2+y,1/2+z
1/2+x,1/2-y,1/2+z
loop_
_atom_site_type_symbol
_atom_site_label
_atom_site_fract_x
_atom_site_fract_y
_atom_site_fract_z
Si Si1 0.877605 0.886507 0.886299
Si Si2 0.000000 0.615090 0.441824
Si Si3 0.308033 0.247804 0.087876
Si Si4 0.285818 0.388414 0.720141
Si Si5 0.375784 0.272627 0.805660
Si Si6 0.126576 0.883273 0.500000
O O1 0.805451 0.808707 0.917083
O O2 0.859324 0.871205 0.827862
O O3 0.000000 0.861987 0.898938
O O4 0.849846 0.000000 0.901514
O O5 0.895752 0.662474 0.417920
O O6 0.000000 0.500000 0.428674
O O7 0.000000 0.636120 0.500000
O O8 0.322546 0.298528 0.141435
O O9 0.318710 0.334822 0.047899
O O10 0.245999 0.500000 0.724278
O O11 0.356043 0.363620 0.768526
O O12 0.177896 0.324656 0.717892
O O13 0.500000 0.251875 0.812766
O O14 0.000000 0.860949 0.500000
O O15 0.150088 0.000000 0.500000
#
# Coordination Sequence:
#
# PCOD8288710 Si02
#       6
#    16   8  16  16  16   8
#     4   9  18  33  54  79 107 140 171 205 258 319
#     4  11  20  32  54  80 106 136 162 208 274 329
#     4  11  19  36  53  78 108 134 174 217 261 310
#     4   9  19  33  49  73 105 139 172 209 254 305
#     4  10  19  31  51  76 103 134 173 215 256 305
#     4  11  22  38  57  76 105 141 176 216 264 310
#
# _framework density 17.570544000000002
#
# number of rings (size 3 to 8) (size 9 to 14) (size 15 to 20)
#    0.000    2.000    3.000    1.200    0.000    3.200 
#    0.000    0.500    0.000    2.400    0.000    0.000 
#    0.000    0.000    0.000    0.000    0.000    0.000 
#
# Total GULP energy -496049.339472 kJ/mol
# GULP energy per Si atom -12401.233487 kJ/mol
# Density = 1.753055 g / cm^3
# Si number density = 17.570544 Si / 1000 Ang^3
#
#
#
# Elastic Constant Matrix: (Units=GPa)
#
#
# Indices 1 2 3 4 5 6 
#
# 1 108.3759 41.0948 32.4462 0.0000 0.0000 0.0000
# 2 41.0948 100.0374 54.7165 0.0000 0.0000 0.0000
# 3 32.4462 54.7165 86.9898 0.0000 0.0000 0.0000
# 4 0.0000 0.0000 0.0000 26.7850 0.0000 0.0000
# 5 0.0000 0.0000 0.0000 0.0000 23.1350 0.0000
# 6 0.0000 0.0000 0.0000 0.0000 0.0000 19.7681
#
#
#
# Elastic Compliance Matrix: (Units=1/GPa)
#
#
# Indices 1 2 3 4 5 6 
#
# 1 0.011142 -0.003512 -0.001947 0.000000 0.000000 0.000000
# 2 -0.003512 0.016346 -0.008972 0.000000 0.000000 0.000000
# 3 -0.001947 -0.008972 0.017865 0.000000 0.000000 0.000000
# 4 0.000000 0.000000 0.000000 0.037334 0.000000 0.000000
# 5 0.000000 0.000000 0.000000 0.000000 0.043225 0.000000
# 6 0.000000 0.000000 0.000000 0.000000 0.000000 0.050586
#
#
# Mechanical properties :
#
#
# Convention : Reuss Voigt Hill
#
# Bulk Modulus (GPa) = 60.63636 61.32422 60.98029
# Shear Modulus (GPa) = 23.71280 25.08066 24.39673
#
# Velocity S-wave (km/s) = 3.67764 3.78223 3.73030
# Velocity P-wave (km/s) = 7.25387 7.35195 7.30307
#
# Compressibility (1/GPa) = 0.01649175
#
# Stress axis : x y z
#
# Youngs Moduli (GPa) = 89.75276 61.17595 55.97580
#
# Poissons Ratio (x) = 0.21487 0.10896
# Poissons Ratio (y) = 0.31524 0.50220
# Poissons Ratio (z) = 0.17470 0.54886
#
# Static dielectric constant tensor:
#      x y z
#    x 3.207690 0.000000 0.000000 
#    y 0.000000 3.221940 0.000000 
#    z 0.000000 0.000000 3.351230 
# 
# 
# High freq. dielectric constant tensor:
#      x y z
#    x 1.672940 0.000000 0.000000 
#    y 0.000000 1.670990 0.000000 
#    z 0.000000 0.000000 1.680780 
# 
# From -- ./inp_files/22217.got.cif
#   From: 2010.06.25/outbox.cif.g09.slc.cpg/sg71_12_cif.got.tgz:22217.got - 2010.06.28 04:59:45.
