data_PCOD8288175
_publ_section_title
;
Structure prediction by ZEFSAII (Michael W. Deem and Ramdas Pophale) SiO2 
 PCOD8288175
Probable space group: I M M M
;
_chemical_formula_sum "Si O2"
_cell_formula_units_Z 112
_cell_length_a 24.411684
_cell_length_b 10.093168
_cell_length_c 28.306278
_cell_angle_alpha 90.000000
_cell_angle_beta 90.000000
_cell_angle_gamma 90.000000
_cell_volume 6974.418590
_symmetry_space_group_name_H-M "I M M M"
_symmetry_group_IT_number 71
_symmetry_cell_setting 'orthorhombic'
loop_
_space_group_symop_operation_xyz
x,y,z
-x,-y,z
x,-y,-z
-x,y,-z
-x,-y,-z
x,y,-z
-x,y,z
x,-y,z
1/2+x,1/2+y,1/2+z
1/2-x,1/2-y,1/2+z
1/2+x,1/2-y,1/2-z
1/2-x,1/2+y,1/2-z
1/2-x,1/2-y,1/2-z
1/2+x,1/2+y,1/2-z
1/2-x,1/2+y,1/2+z
1/2+x,1/2-y,1/2+z
loop_
_atom_site_type_symbol
_atom_site_label
_atom_site_fract_x
_atom_site_fract_y
_atom_site_fract_z
Si Si1 0.153157 0.150476 0.315851
Si Si2 0.438085 0.148870 0.799434
Si Si3 0.559108 0.847995 0.594885
Si Si4 0.673168 0.354226 0.709655
Si Si5 0.060528 0.250997 0.802850
Si Si6 0.669310 0.842588 0.552167
Si Si7 0.765683 0.345896 0.857838
O O1 0.102716 0.249110 0.325417
O O2 0.181345 0.175724 0.265064
O O3 0.200419 0.176500 0.354627
O O4 0.130839 0.000000 0.319069
O O5 0.500000 0.183678 0.815310
O O6 0.432844 0.155731 0.742807
O O7 0.422558 0.000000 0.814987
O O8 0.500000 0.781683 0.581232
O O9 0.568774 0.840435 0.650943
O O10 0.610086 0.781204 0.567312
O O11 0.556639 0.000000 0.580248
O O12 0.696776 0.500000 0.696891
O O13 0.608021 0.358986 0.698386
O O14 0.703370 0.240453 0.681038
O O15 0.000000 0.183215 0.802832
O O16 0.684872 0.788474 0.500000
O O17 0.715408 0.799379 0.589929
O O18 0.665009 0.000000 0.551538
O O19 0.780650 0.500000 0.848547
#
# Coordination Sequence:
#
# PCOD8288175 Si02
#       7
#    16  16  16  16  16  16  16
#     4   9  19  31  43  63  90 120 150 176 211 260
#     4   9  17  28  44  67  93 119 147 178 211 250
#     4   9  15  23  38  60  83 107 140 183 227 265
#     4  10  19  29  42  63  87 113 148 186 221 260
#     4   9  16  26  40  59  84 116 150 182 218 261
#     4   9  17  28  43  63  84 109 144 187 233 272
#     4  10  19  32  47  62  85 116 147 182 223 267
#
# _framework density 16.058686999999999
#
# number of rings (size 3 to 8) (size 9 to 14) (size 15 to 20)
#    0.000    2.714    1.429    0.857    0.000    5.429 
#    0.000    4.286    0.000    0.429    0.000    0.000 
#    0.000    2.857    0.000    7.143    0.000    1.286 
#
# Total GULP energy -693921.609742 kJ/mol
# GULP energy per Si atom -12391.457317 kJ/mol
# Density = 1.602214 g / cm^3
# Si number density = 16.058687 Si / 1000 Ang^3
#
#
#
# Elastic Constant Matrix: (Units=GPa)
#
#
# Indices 1 2 3 4 5 6 
#
# 1 107.8158 49.2361 52.6367 0.0000 0.0000 0.0000
# 2 49.2361 62.6979 23.0419 0.0000 0.0000 0.0000
# 3 52.6367 23.0419 64.9806 0.0000 0.0000 0.0000
# 4 0.0000 0.0000 0.0000 9.6823 0.0000 0.0000
# 5 0.0000 0.0000 0.0000 0.0000 20.2711 0.0000
# 6 0.0000 0.0000 0.0000 0.0000 0.0000 22.4562
#
#
#
# Elastic Compliance Matrix: (Units=1/GPa)
#
#
# Indices 1 2 3 4 5 6 
#
# 1 0.020817 -0.011671 -0.012724 0.000000 0.000000 0.000000
# 2 -0.011671 0.024883 0.000631 0.000000 0.000000 0.000000
# 3 -0.012724 0.000631 0.025472 0.000000 0.000000 0.000000
# 4 0.000000 0.000000 0.000000 0.103281 0.000000 0.000000
# 5 0.000000 0.000000 0.000000 0.000000 0.049331 0.000000
# 6 0.000000 0.000000 0.000000 0.000000 0.000000 0.044531
#
#
# Mechanical properties :
#
#
# Convention : Reuss Voigt Hill
#
# Bulk Modulus (GPa) = 42.29498 53.92485 48.10992
# Shear Modulus (GPa) = 15.44515 17.85387 16.64951
#
# Velocity S-wave (km/s) = 3.10465 3.33797 3.22342
# Velocity P-wave (km/s) = 6.26472 6.96483 6.62403
#
# Compressibility (1/GPa) = 0.02364347
#
# Stress axis : x y z
#
# Youngs Moduli (GPa) = 48.03798 40.18807 39.25818
#
# Poissons Ratio (x) = 0.46904 0.49952
# Poissons Ratio (y) = 0.56066 -0.02476
# Poissons Ratio (z) = 0.61123 -0.02534
#
# Static dielectric constant tensor:
#      x y z
#    x 3.257040 0.000000 0.000000 
#    y 0.000000 2.758390 0.000000 
#    z 0.000000 0.000000 2.926900 
# 
# 
# High freq. dielectric constant tensor:
#      x y z
#    x 1.621610 0.000000 0.000000 
#    y 0.000000 1.586940 0.000000 
#    z 0.000000 0.000000 1.576010 
# 
# From -- ./inp_files/29215.got.cif
#   From: 2010.06.25/outbox.cif.g09.slc.cpg/sg71_15_cif.got.tgz:29215.got - 2010.06.28 04:59:45.
