data_PCOD8288832
_publ_section_title
;
Structure prediction by ZEFSAII (Michael W. Deem and Ramdas Pophale) SiO2 
 PCOD8288832
Probable space group: I M M M
;
_chemical_formula_sum "Si O2"
_cell_formula_units_Z 72
_cell_length_a 27.886652
_cell_length_b 9.781876
_cell_length_c 14.700922
_cell_angle_alpha 90.000000
_cell_angle_beta 90.000000
_cell_angle_gamma 90.000000
_cell_volume 4010.172954
_symmetry_space_group_name_H-M "I M M M"
_symmetry_group_IT_number 71
_symmetry_cell_setting 'orthorhombic'
loop_
_space_group_symop_operation_xyz
x,y,z
-x,-y,z
x,-y,-z
-x,y,-z
-x,-y,-z
x,y,-z
-x,y,z
x,-y,z
1/2+x,1/2+y,1/2+z
1/2-x,1/2-y,1/2+z
1/2+x,1/2-y,1/2-z
1/2-x,1/2+y,1/2-z
1/2-x,1/2-y,1/2-z
1/2+x,1/2+y,1/2-z
1/2-x,1/2+y,1/2+z
1/2+x,1/2-y,1/2+z
loop_
_atom_site_type_symbol
_atom_site_label
_atom_site_fract_x
_atom_site_fract_y
_atom_site_fract_z
Si Si1 0.215974 0.500000 0.096977
Si Si2 0.320848 0.500000 0.602790
Si Si3 0.620523 0.000000 0.708212
Si Si4 0.167296 0.500000 0.395627
Si Si5 0.053176 0.703596 0.106144
Si Si6 0.254147 0.778084 0.854317
Si Si7 0.923930 0.000000 0.892405
O O1 0.175936 0.500000 0.175517
O O2 0.251430 0.369472 0.098662
O O3 0.188811 0.500000 0.000000
O O4 0.336584 0.500000 0.500000
O O5 0.292691 0.362703 0.621669
O O6 0.371365 0.500000 0.655507
O O7 0.592094 0.131343 0.670864
O O8 0.624731 0.000000 0.819319
O O9 0.147017 0.500000 0.500000
O O10 0.198843 0.637558 0.383301
O O11 0.000000 0.640098 0.119671
O O12 0.049642 0.861407 0.137826
O O13 0.068897 0.687557 0.000000
O O14 0.250000 0.750000 0.750000
O O15 0.922744 0.000000 0.000000
#
# Coordination Sequence:
#
# PCOD8288832 Si02
#       7
#     8   8   8   8  16  16   8
#     4  12  21  32  54  81 108 135 177 228 265 306
#     4  10  19  32  50  72 108 150 179 209 254 310
#     4  12  22  35  53  81 108 138 182 227 265 319
#     4  11  24  42  56  71 107 152 186 222 271 316
#     4  10  20  35  55  82 116 145 169 211 276 338
#     4  11  20  36  51  76 106 145 184 222 260 307
#     4   9  18  31  52  80 111 146 176 201 249 327
#
# _framework density 17.954336999999999
#
# number of rings (size 3 to 8) (size 9 to 14) (size 15 to 20)
#    0.000    1.333    2.222    6.333    0.000    4.000 
#    0.000    0.000    0.000    1.333    0.000    0.000 
#    0.000    1.778    0.000    0.000    0.000    0.000 
#
# Total GULP energy -446026.252141 kJ/mol
# GULP energy per Si atom -12389.618115 kJ/mol
# Density = 1.791347 g / cm^3
# Si number density = 17.954337 Si / 1000 Ang^3
#
#
#
# Elastic Constant Matrix: (Units=GPa)
#
#
# Indices 1 2 3 4 5 6 
#
# 1 78.6017 37.1070 29.3324 0.0000 0.0000 0.0000
# 2 37.1070 143.2536 30.3651 0.0000 0.0000 0.0000
# 3 29.3324 30.3651 113.9985 0.0000 0.0000 0.0000
# 4 0.0000 0.0000 0.0000 24.3949 0.0000 0.0000
# 5 0.0000 0.0000 0.0000 0.0000 24.6502 0.0000
# 6 0.0000 0.0000 0.0000 0.0000 0.0000 -52.6710
#
#
#
# Elastic Compliance Matrix: (Units=1/GPa)
#
#
# Indices 1 2 3 4 5 6 
#
# 1 0.015455 -0.003349 -0.003084 0.000000 0.000000 0.000000
# 2 -0.003349 0.008124 -0.001302 0.000000 0.000000 0.000000
# 3 -0.003084 -0.001302 0.009913 0.000000 0.000000 0.000000
# 4 0.000000 0.000000 0.000000 0.040992 0.000000 0.000000
# 5 0.000000 0.000000 0.000000 0.000000 0.040568 0.000000
# 6 0.000000 0.000000 0.000000 0.000000 0.000000 -0.018986
#
#
# Mechanical properties :
#
#
# Convention : Reuss Voigt Hill
#
# Bulk Modulus (GPa) = 55.49571 58.82919 57.16245
# Shear Modulus (GPa) = 42.53732 15.21145 28.87438
#
# Velocity S-wave (km/s) = 4.87272 2.91388 4.01460
# Velocity P-wave (km/s) = 7.91418 6.64515 7.30727
#
# Compressibility (1/GPa) = 0.01801941
#
# Stress axis : x y z
#
# Youngs Moduli (GPa) = 64.70558 123.08824 100.88243
#
# Poissons Ratio (x) = 0.41228 0.31116
# Poissons Ratio (y) = 0.21673 0.13137
# Poissons Ratio (z) = 0.19958 0.16028
#
# Static dielectric constant tensor:
#      x y z
#    x 3.166750 0.000000 0.000000 
#    y 0.000000 3.550990 0.000000 
#    z 0.000000 0.000000 3.199840 
# 
# 
# High freq. dielectric constant tensor:
#      x y z
#    x 1.673460 0.000000 0.000000 
#    y 0.000000 1.718850 0.000000 
#    z 0.000000 0.000000 1.663560 
# 
# From -- ./inp_files/40748.got.cif
#   From: 2010.06.25/outbox.cif.g09.slc.cpg/sg71_21_cif.got.tgz:40748.got - 2010.06.28 04:59:45.
