data_PCOD8288184
_publ_section_title
;
Structure prediction by ZEFSAII (Michael W. Deem and Ramdas Pophale) SiO2 
 PCOD8288184
Probable space group: I M M M
;
_chemical_formula_sum "Si O2"
_cell_formula_units_Z 88
_cell_length_a 9.044183
_cell_length_b 20.490411
_cell_length_c 31.953147
_cell_angle_alpha 90.000000
_cell_angle_beta 90.000000
_cell_angle_gamma 90.000000
_cell_volume 5921.526106
_symmetry_space_group_name_H-M "I M M M"
_symmetry_group_IT_number 71
_symmetry_cell_setting 'orthorhombic'
loop_
_space_group_symop_operation_xyz
x,y,z
-x,-y,z
x,-y,-z
-x,y,-z
-x,-y,-z
x,y,-z
-x,y,z
x,-y,z
1/2+x,1/2+y,1/2+z
1/2-x,1/2-y,1/2+z
1/2+x,1/2-y,1/2-z
1/2-x,1/2+y,1/2-z
1/2-x,1/2-y,1/2-z
1/2+x,1/2+y,1/2-z
1/2-x,1/2+y,1/2+z
1/2+x,1/2-y,1/2+z
loop_
_atom_site_type_symbol
_atom_site_label
_atom_site_fract_x
_atom_site_fract_y
_atom_site_fract_z
Si Si1 0.326036 0.689823 0.621766
Si Si2 0.166253 0.350114 0.749323
Si Si3 0.333057 0.728677 0.187160
Si Si4 0.829493 0.926079 0.816967
Si Si5 0.335276 0.500000 0.549307
Si Si6 0.173484 0.369006 0.548433
O O1 0.500000 0.699166 0.616048
O O2 0.261170 0.751881 0.646352
O O3 0.285038 0.622814 0.645841
O O4 0.247596 0.687503 0.576403
O O5 0.258281 0.334351 0.791332
O O6 0.168133 0.287815 0.719461
O O7 0.237917 0.410985 0.725048
O O8 0.000000 0.368623 0.762314
O O9 0.500000 0.710995 0.173840
O O10 0.000000 0.916005 0.805188
O O11 0.795917 0.000000 0.831735
O O12 0.500000 0.500000 0.570055
O O13 0.352314 0.500000 0.500000
O O14 0.245915 0.436655 0.563512
O O15 0.207645 0.353738 0.500000
O O16 0.000000 0.373036 0.556963
#
# Coordination Sequence:
#
# PCOD8288184 Si02
#       6
#    16  16  16  16   8  16
#     4  10  19  29  43  60  78 100 131 169 204 239
#     4   9  16  26  41  59  77  98 126 158 192 232
#     4   9  16  27  42  58  77  99 125 157 196 236
#     4   9  18  30  41  56  79 105 131 161 199 240
#     4   9  17  29  43  55  67  89 123 159 195 237
#     4  10  20  32  43  56  75  99 128 163 204 247
#
# _framework density 14.861033000000001
#
# number of rings (size 3 to 8) (size 9 to 14) (size 15 to 20)
#    0.000    2.636    0.000    2.455    1.273    7.636 
#    0.000    0.000    0.000    0.000    0.000    0.000 
#    0.000    0.000    0.000    0.000    0.000    0.909 
#
# Total GULP energy -545565.446078 kJ/mol
# GULP energy per Si atom -12399.214684 kJ/mol
# Density = 1.482721 g / cm^3
# Si number density = 14.861033 Si / 1000 Ang^3
#
#
#
# Elastic Constant Matrix: (Units=GPa)
#
#
# Indices 1 2 3 4 5 6 
#
# 1 105.8888 15.4214 46.8768 0.0000 0.0000 0.0000
# 2 15.4214 15.3479 17.5413 0.0000 0.0000 0.0000
# 3 46.8768 17.5413 72.5331 0.0000 0.0000 0.0000
# 4 0.0000 0.0000 0.0000 22.7921 0.0000 0.0000
# 5 0.0000 0.0000 0.0000 0.0000 25.9004 0.0000
# 6 0.0000 0.0000 0.0000 0.0000 0.0000 19.6786
#
#
#
# Elastic Compliance Matrix: (Units=1/GPa)
#
#
# Indices 1 2 3 4 5 6 
#
# 1 0.013497 -0.004964 -0.007522 0.000000 0.000000 0.000000
# 2 -0.004964 0.091869 -0.019009 0.000000 0.000000 0.000000
# 3 -0.007522 -0.019009 0.023245 0.000000 0.000000 0.000000
# 4 0.000000 0.000000 0.000000 0.043875 0.000000 0.000000
# 5 0.000000 0.000000 0.000000 0.000000 0.038609 0.000000
# 6 0.000000 0.000000 0.000000 0.000000 0.000000 0.050817
#
#
# Mechanical properties :
#
#
# Convention : Reuss Voigt Hill
#
# Bulk Modulus (GPa) = 15.23922 39.27208 27.25565
# Shear Modulus (GPa) = 14.41847 21.26957 17.84402
#
# Velocity S-wave (km/s) = 3.11821 3.78727 3.46891
# Velocity P-wave (km/s) = 4.82090 6.75338 5.86725
#
# Compressibility (1/GPa) = 0.06562017
#
# Stress axis : x y z
#
# Youngs Moduli (GPa) = 74.09086 10.88504 43.01919
#
# Poissons Ratio (x) = 0.05404 0.32360
# Poissons Ratio (y) = 0.36781 0.81776
# Poissons Ratio (z) = 0.55733 0.20692
#
# Static dielectric constant tensor:
#      x y z
#    x 3.056080 0.000000 0.000000 
#    y 0.000000 2.542040 0.000000 
#    z 0.000000 0.000000 2.783050 
# 
# 
# High freq. dielectric constant tensor:
#      x y z
#    x 1.589200 0.000000 0.000000 
#    y 0.000000 1.511520 0.000000 
#    z 0.000000 0.000000 1.550290 
# 
# From -- ./inp_files/11372.got.cif
#   From: 2010.06.25/outbox.cif.g09.slc.cpg/sg71_6_cif.got.tgz:11372.got - 2010.06.28 04:59:45.
