data_PCOD8288706
_publ_section_title
;
Structure prediction by ZEFSAII (Michael W. Deem and Ramdas Pophale) SiO2 
 PCOD8288706
Probable space group: I M M M
;
_chemical_formula_sum "Si O2"
_cell_formula_units_Z 104
_cell_length_a 27.873875
_cell_length_b 9.807849
_cell_length_c 22.628975
_cell_angle_alpha 90.000000
_cell_angle_beta 90.000000
_cell_angle_gamma 90.000000
_cell_volume 6186.371575
_symmetry_space_group_name_H-M "I M M M"
_symmetry_group_IT_number 71
_symmetry_cell_setting 'orthorhombic'
loop_
_space_group_symop_operation_xyz
x,y,z
-x,-y,z
x,-y,-z
-x,y,-z
-x,-y,-z
x,y,-z
-x,y,z
x,-y,z
1/2+x,1/2+y,1/2+z
1/2-x,1/2-y,1/2+z
1/2+x,1/2-y,1/2-z
1/2-x,1/2+y,1/2-z
1/2-x,1/2-y,1/2-z
1/2+x,1/2+y,1/2-z
1/2-x,1/2+y,1/2+z
1/2+x,1/2-y,1/2+z
loop_
_atom_site_type_symbol
_atom_site_label
_atom_site_fract_x
_atom_site_fract_y
_atom_site_fract_z
Si Si1 0.350380 0.839435 0.124557
Si Si2 0.947045 0.338643 0.433492
Si Si3 0.897503 0.846446 0.929531
Si Si4 0.820916 0.654080 0.127847
Si Si5 0.724238 0.654795 0.067242
Si Si6 0.203791 0.344389 0.742726
Si Si7 0.500000 0.338777 0.435663
O O1 0.405768 0.793428 0.113294
O O2 0.319351 0.757648 0.076929
O O3 0.331895 0.798651 0.189990
O O4 0.344029 0.000000 0.112870
O O5 0.935245 0.284943 0.500000
O O6 0.948843 0.500000 0.435318
O O7 0.000000 0.283646 0.413642
O O8 0.858321 0.748085 0.904164
O O9 0.949902 0.799416 0.903443
O O10 0.885304 0.000000 0.909189
O O11 0.898566 0.837757 0.000000
O O12 0.829588 0.500000 0.106018
O O13 0.767476 0.700429 0.109908
O O14 0.827576 0.667389 0.197996
O O15 0.707953 0.500000 0.081847
O O16 0.741995 0.666940 0.000000
O O17 0.221567 0.500000 0.733149
O O18 0.250000 0.250000 0.750000
O O19 0.500000 0.500000 0.444707
O O20 0.500000 0.268006 0.500000
#
# Coordination Sequence:
#
# PCOD8288706 Si02
#       7
#    16  16  16  16  16  16   8
#     4  10  19  31  51  75  95 120 162 209 240 272
#     4   8  14  26  46  73 102 126 149 188 247 301
#     4   9  17  30  50  74  96 121 157 200 243 286
#     4  10  20  33  47  65  96 132 161 192 236 292
#     4  10  20  32  46  67  98 133 159 184 233 294
#     4  10  20  34  51  69  93 126 165 201 235 278
#     4   7  12  26  47  69  93 119 149 191 240 283
#
# _framework density 16.811146999999998
#
# number of rings (size 3 to 8) (size 9 to 14) (size 15 to 20)
#    0.000    2.692    1.538    2.308    0.000    3.077 
#    0.000    0.385    1.692    1.846    0.000    2.154 
#    0.000    0.000    0.000    0.000    0.000    0.000 
#
# Total GULP energy -644363.572307 kJ/mol
# GULP energy per Si atom -12391.607160 kJ/mol
# Density = 1.677288 g / cm^3
# Si number density = 16.811147 Si / 1000 Ang^3
#
#
#
# Elastic Constant Matrix: (Units=GPa)
#
#
# Indices 1 2 3 4 5 6 
#
# 1 142.3669 52.5977 48.1343 0.0000 0.0000 0.0000
# 2 52.5977 49.7687 20.6916 0.0000 0.0000 0.0000
# 3 48.1343 20.6916 71.7363 0.0000 0.0000 0.0000
# 4 0.0000 0.0000 0.0000 20.3337 0.0000 0.0000
# 5 0.0000 0.0000 0.0000 0.0000 17.2037 0.0000
# 6 0.0000 0.0000 0.0000 0.0000 0.0000 6.6262
#
#
#
# Elastic Compliance Matrix: (Units=1/GPa)
#
#
# Indices 1 2 3 4 5 6 
#
# 1 0.013184 -0.011653 -0.005485 0.000000 0.000000 0.000000
# 2 -0.011653 0.033130 -0.001737 0.000000 0.000000 0.000000
# 3 -0.005485 -0.001737 0.018121 0.000000 0.000000 0.000000
# 4 0.000000 0.000000 0.000000 0.049179 0.000000 0.000000
# 5 0.000000 0.000000 0.000000 0.000000 0.058127 0.000000
# 6 0.000000 0.000000 0.000000 0.000000 0.000000 0.150916
#
#
# Mechanical properties :
#
#
# Convention : Reuss Voigt Hill
#
# Bulk Modulus (GPa) = 37.47354 56.30211 46.88782
# Shear Modulus (GPa) = 13.53902 18.32928 15.93415
#
# Velocity S-wave (km/s) = 2.84096 3.30556 3.08203
# Velocity P-wave (km/s) = 5.75332 6.93777 6.37312
#
# Compressibility (1/GPa) = 0.02668550
#
# Stress axis : x y z
#
# Youngs Moduli (GPa) = 75.85120 30.18384 55.18333
#
# Poissons Ratio (x) = 0.35172 0.30268
# Poissons Ratio (y) = 0.88387 0.09587
# Poissons Ratio (z) = 0.41605 0.05244
#
# Static dielectric constant tensor:
#      x y z
#    x 3.450430 0.000000 0.000000 
#    y 0.000000 2.981840 0.000000 
#    z 0.000000 0.000000 3.130350 
# 
# 
# High freq. dielectric constant tensor:
#      x y z
#    x 1.649700 0.000000 0.000000 
#    y 0.000000 1.625990 0.000000 
#    z 0.000000 0.000000 1.633320 
# 
# From -- ./inp_files/17267.got.cif
#   From: 2010.06.25/outbox.cif.g09.slc.cpg/sg71_9_cif.got.tgz:17267.got - 2010.06.28 04:59:45.
