data_PCOD8288617
_publ_section_title
;
Structure prediction by ZEFSAII (Michael W. Deem and Ramdas Pophale) SiO2 
 PCOD8288617
Probable space group: I M M M
;
_chemical_formula_sum "Si O2"
_cell_formula_units_Z 104
_cell_length_a 9.421920
_cell_length_b 24.115219
_cell_length_c 24.369635
_cell_angle_alpha 90.000000
_cell_angle_beta 90.000000
_cell_angle_gamma 90.000000
_cell_volume 5537.065324
_symmetry_space_group_name_H-M "I M M M"
_symmetry_group_IT_number 71
_symmetry_cell_setting 'orthorhombic'
loop_
_space_group_symop_operation_xyz
x,y,z
-x,-y,z
x,-y,-z
-x,y,-z
-x,-y,-z
x,y,-z
-x,y,z
x,-y,z
1/2+x,1/2+y,1/2+z
1/2-x,1/2-y,1/2+z
1/2+x,1/2-y,1/2-z
1/2-x,1/2+y,1/2-z
1/2-x,1/2-y,1/2-z
1/2+x,1/2+y,1/2-z
1/2-x,1/2+y,1/2+z
1/2+x,1/2-y,1/2+z
loop_
_atom_site_type_symbol
_atom_site_label
_atom_site_fract_x
_atom_site_fract_y
_atom_site_fract_z
Si Si1 0.336157 0.934237 0.359134
Si Si2 0.159657 0.253281 0.935105
Si Si3 0.160567 0.065911 0.745166
Si Si4 0.336217 0.641421 0.065123
Si Si5 0.765455 0.366875 0.435848
Si Si6 0.000000 0.060231 0.063982
Si Si7 0.152681 0.437741 0.655226
O O1 0.500000 0.914143 0.358987
O O2 0.255989 0.911644 0.305004
O O3 0.251464 0.910134 0.411136
O O4 0.328149 0.000000 0.363809
O O5 0.259761 0.302527 0.913410
O O6 0.235361 0.196060 0.918463
O O7 0.000000 0.257348 0.909994
O O8 0.145787 0.255338 0.000000
O O9 0.230932 0.085713 0.802143
O O10 0.000000 0.089440 0.741055
O O11 0.159815 0.000000 0.743065
O O12 0.500000 0.641042 0.085067
O O13 0.328753 0.637159 0.000000
O O14 0.809019 0.371471 0.500000
O O15 0.632804 0.404212 0.418599
O O16 0.877840 0.395327 0.395580
O O17 0.000000 0.000000 0.093829
O O18 0.000000 0.050640 0.000000
O O19 0.193836 0.500000 0.634456
O O20 0.000000 0.440967 0.685830
#
# Coordination Sequence:
#
# PCOD8288617 Si02
#       7
#    16  16  16  16  16   8  16
#     4  10  20  35  57  83 111 141 172 209 257 315
#     4   9  17  32  52  72  99 136 181 224 262 310
#     4   9  18  33  54  77 101 134 176 218 260 311
#     4  10  21  35  53  80 112 144 177 215 258 305
#     4  10  19  31  49  73 101 138 180 223 271 320
#     4   9  16  26  42  68 100 130 165 213 264 314
#     4  10  21  34  48  71 105 141 177 220 269 320
#
# _framework density 18.782512000000001
#
# number of rings (size 3 to 8) (size 9 to 14) (size 15 to 20)
#    0.000    2.385    0.769    1.846    1.077    5.846 
#    0.000    3.846    0.000    0.923    0.000    0.000 
#    0.000    0.000    0.000    0.000    0.000    0.000 
#
# Total GULP energy -644382.872998 kJ/mol
# GULP energy per Si atom -12391.978327 kJ/mol
# Density = 1.873976 g / cm^3
# Si number density = 18.782512 Si / 1000 Ang^3
#
#
#
# Elastic Constant Matrix: (Units=GPa)
#
#
# Indices 1 2 3 4 5 6 
#
# 1 142.6285 43.3206 44.6438 0.0000 0.0000 0.0000
# 2 43.3206 70.3051 33.1796 0.0000 0.0000 0.0000
# 3 44.6438 33.1796 62.7373 0.0000 0.0000 0.0000
# 4 0.0000 0.0000 0.0000 10.3753 0.0000 0.0000
# 5 0.0000 0.0000 0.0000 0.0000 22.8646 0.0000
# 6 0.0000 0.0000 0.0000 0.0000 0.0000 31.7139
#
#
#
# Elastic Compliance Matrix: (Units=1/GPa)
#
#
# Indices 1 2 3 4 5 6 
#
# 1 0.009662 -0.003610 -0.004967 0.000000 0.000000 0.000000
# 2 -0.003610 0.020303 -0.008169 0.000000 0.000000 0.000000
# 3 -0.004967 -0.008169 0.023794 0.000000 0.000000 0.000000
# 4 0.000000 0.000000 0.000000 0.096383 0.000000 0.000000
# 5 0.000000 0.000000 0.000000 0.000000 0.043736 0.000000
# 6 0.000000 0.000000 0.000000 0.000000 0.000000 0.031532
#
#
# Mechanical properties :
#
#
# Convention : Reuss Voigt Hill
#
# Bulk Modulus (GPa) = 49.33683 57.55100 53.44391
# Shear Modulus (GPa) = 18.82128 23.29255 21.05691
#
# Velocity S-wave (km/s) = 3.16897 3.52535 3.35190
# Velocity P-wave (km/s) = 6.30193 6.87590 6.59516
#
# Compressibility (1/GPa) = 0.02026884
#
# Stress axis : x y z
#
# Youngs Moduli (GPa) = 103.49642 49.25325 42.02749
#
# Poissons Ratio (x) = 0.17779 0.20873
# Poissons Ratio (y) = 0.37360 0.34332
# Poissons Ratio (z) = 0.51402 0.40235
#
# Static dielectric constant tensor:
#      x y z
#    x 4.070660 0.000000 0.000000 
#    y 0.000000 3.348950 0.000000 
#    z 0.000000 0.000000 3.172760 
# 
# 
# High freq. dielectric constant tensor:
#      x y z
#    x 1.750050 0.000000 0.000000 
#    y 0.000000 1.704980 0.000000 
#    z 0.000000 0.000000 1.701010 
# 
# From -- ./inp_files/63564.got.cif
#   From: 2010.06.25/outbox.cif.g09.slc.cpg/sg71_32_cif.got.tgz:63564.got - 2010.06.28 04:59:45.
