data_PCOD8288875
_publ_section_title
;
Structure prediction by ZEFSAII (Michael W. Deem and Ramdas Pophale) SiO2 
 PCOD8288875
Probable space group: I M M M
;
_chemical_formula_sum "Si O2"
_cell_formula_units_Z 120
_cell_length_a 24.999170
_cell_length_b 13.555182
_cell_length_c 20.837075
_cell_angle_alpha 90.000000
_cell_angle_beta 90.000000
_cell_angle_gamma 90.000000
_cell_volume 7061.024166
_symmetry_space_group_name_H-M "I M M M"
_symmetry_group_IT_number 71
_symmetry_cell_setting 'orthorhombic'
loop_
_space_group_symop_operation_xyz
x,y,z
-x,-y,z
x,-y,-z
-x,y,-z
-x,-y,-z
x,y,-z
-x,y,z
x,-y,z
1/2+x,1/2+y,1/2+z
1/2-x,1/2-y,1/2+z
1/2+x,1/2-y,1/2-z
1/2-x,1/2+y,1/2-z
1/2-x,1/2-y,1/2-z
1/2+x,1/2+y,1/2-z
1/2-x,1/2+y,1/2+z
1/2+x,1/2-y,1/2+z
loop_
_atom_site_type_symbol
_atom_site_label
_atom_site_fract_x
_atom_site_fract_y
_atom_site_fract_z
Si Si1 0.846281 0.798672 0.347042
Si Si2 0.937193 0.000000 0.930623
Si Si3 0.305010 0.387759 0.280338
Si Si4 0.247284 0.111107 0.424453
Si Si5 0.939056 0.213258 0.923495
Si Si6 0.179938 0.388098 0.275133
Si Si7 0.842880 0.706140 0.854415
Si Si8 0.561833 0.386000 0.926480
O O1 0.839389 0.862889 0.282692
O O2 0.800830 0.824232 0.397778
O O3 0.842114 0.682312 0.331280
O O4 0.903861 0.819442 0.378167
O O5 0.923183 0.103484 0.895738
O O6 0.000000 0.000000 0.942976
O O7 0.908267 0.000000 0.000000
O O8 0.316115 0.500000 0.302086
O O9 0.242892 0.370728 0.263480
O O10 0.321393 0.315535 0.337856
O O11 0.242498 0.111040 0.500000
O O12 0.303639 0.156878 0.405223
O O13 0.243001 0.000000 0.396849
O O14 0.900782 0.290194 0.887951
O O15 0.000000 0.240427 0.905735
O O16 0.930877 0.216481 0.000000
O O17 0.166880 0.500000 0.294991
O O18 0.151079 0.361119 0.208568
O O19 0.500000 0.369777 0.908901
O O20 0.578127 0.500000 0.917347
O O21 0.572731 0.354499 0.000000
#
# Coordination Sequence:
#
# PCOD8288875 Si02
#       8
#    16   8  16  16  16  16  16  16
#     4  11  18  33  54  77 101 133 169 205 248 305
#     4   7  12  26  46  66  90 128 170 198 232 288
#     4  10  19  32  51  74 102 136 171 205 251 302
#     4  11  21  31  49  78 105 128 162 211 258 299
#     4   9  18  32  50  71 100 138 172 205 251 302
#     4  10  20  36  54  72 100 138 173 208 256 304
#     4  11  19  32  51  75 102 132 172 214 250 301
#     4   9  18  32  52  80 111 139 163 195 249 311
#
# _framework density 16.994702
#
# number of rings (size 3 to 8) (size 9 to 14) (size 15 to 20)
#    0.000    2.067    2.667    4.400    0.933    1.067 
#    0.000    2.667    0.000    6.000    0.000    5.600 
#    0.000    0.000    0.000    0.000    0.000    0.000 
#
# Total GULP energy -743881.604813 kJ/mol
# GULP energy per Si atom -12398.026747 kJ/mol
# Density = 1.695602 g / cm^3
# Si number density = 16.994702 Si / 1000 Ang^3
#
#
#
# Elastic Constant Matrix: (Units=GPa)
#
#
# Indices 1 2 3 4 5 6 
#
# 1 92.6990 41.3574 35.3642 0.0000 0.0000 0.0000
# 2 41.3574 108.2153 35.6809 0.0000 0.0000 0.0000
# 3 35.3642 35.6809 51.2510 0.0000 0.0000 0.0000
# 4 0.0000 0.0000 0.0000 21.1638 0.0000 0.0000
# 5 0.0000 0.0000 0.0000 0.0000 31.6598 0.0000
# 6 0.0000 0.0000 0.0000 0.0000 0.0000 24.3595
#
#
#
# Elastic Compliance Matrix: (Units=1/GPa)
#
#
# Indices 1 2 3 4 5 6 
#
# 1 0.015399 -0.003091 -0.008474 0.000000 0.000000 0.000000
# 2 -0.003091 0.012615 -0.006649 0.000000 0.000000 0.000000
# 3 -0.008474 -0.006649 0.029988 0.000000 0.000000 0.000000
# 4 0.000000 0.000000 0.000000 0.047251 0.000000 0.000000
# 5 0.000000 0.000000 0.000000 0.000000 0.031586 0.000000
# 6 0.000000 0.000000 0.000000 0.000000 0.000000 0.041052
#
#
# Mechanical properties :
#
#
# Convention : Reuss Voigt Hill
#
# Bulk Modulus (GPa) = 46.35307 52.99672 49.67489
# Shear Modulus (GPa) = 22.57232 24.75412 23.66322
#
# Velocity S-wave (km/s) = 3.64840 3.82066 3.73552
# Velocity P-wave (km/s) = 6.71431 7.12146 6.92088
#
# Compressibility (1/GPa) = 0.02157354
#
# Stress axis : x y z
#
# Youngs Moduli (GPa) = 64.93720 79.27273 33.34660
#
# Poissons Ratio (x) = 0.24506 0.28257
# Poissons Ratio (y) = 0.20074 0.22173
# Poissons Ratio (z) = 0.55026 0.52710
#
# Static dielectric constant tensor:
#      x y z
#    x 3.049060 0.000000 0.000000 
#    y 0.000000 3.320190 0.000000 
#    z 0.000000 0.000000 3.032380 
# 
# 
# High freq. dielectric constant tensor:
#      x y z
#    x 1.642340 0.000000 0.000000 
#    y 0.000000 1.650350 0.000000 
#    z 0.000000 0.000000 1.645610 
# 
# From -- ./inp_files/55922.got.cif
#   From: 2010.06.25/outbox.cif.g09.slc.cpg/sg71_28_cif.got.tgz:55922.got - 2010.06.28 04:59:45.
