data_PCOD8288845
_publ_section_title
;
Structure prediction by ZEFSAII (Michael W. Deem and Ramdas Pophale) SiO2 
 PCOD8288845
Probable space group: I M M M
;
_chemical_formula_sum "Si O2"
_cell_formula_units_Z 120
_cell_length_a 33.284284
_cell_length_b 13.726715
_cell_length_c 15.405371
_cell_angle_alpha 90.000000
_cell_angle_beta 90.000000
_cell_angle_gamma 90.000000
_cell_volume 7038.465682
_symmetry_space_group_name_H-M "I M M M"
_symmetry_group_IT_number 71
_symmetry_cell_setting 'orthorhombic'
loop_
_space_group_symop_operation_xyz
x,y,z
-x,-y,z
x,-y,-z
-x,y,-z
-x,-y,-z
x,y,-z
-x,y,z
x,-y,z
1/2+x,1/2+y,1/2+z
1/2-x,1/2-y,1/2+z
1/2+x,1/2-y,1/2-z
1/2-x,1/2+y,1/2-z
1/2-x,1/2-y,1/2-z
1/2+x,1/2+y,1/2-z
1/2-x,1/2+y,1/2+z
1/2+x,1/2-y,1/2+z
loop_
_atom_site_type_symbol
_atom_site_label
_atom_site_fract_x
_atom_site_fract_y
_atom_site_fract_z
Si Si1 0.953341 0.392167 0.500000
Si Si2 0.545434 0.256347 0.402696
Si Si3 0.103227 0.385648 0.818689
Si Si4 0.821545 0.723787 0.402043
Si Si5 0.691372 0.885309 0.271783
Si Si6 0.046754 0.110736 0.255993
Si Si7 0.259941 0.388201 0.098195
Si Si8 0.587497 0.221667 0.147871
O O1 0.932324 0.500000 0.500000
O O2 0.942059 0.328854 0.582059
O O3 0.000000 0.409199 0.500000
O O4 0.549232 0.296953 0.500000
O O5 0.500000 0.217184 0.384903
O O6 0.577598 0.169241 0.392178
O O7 0.555424 0.345993 0.339397
O O8 0.097968 0.500000 0.833497
O O9 0.150062 0.353606 0.819315
O O10 0.085788 0.353860 0.726659
O O11 0.812519 0.682649 0.500000
O O12 0.804360 0.654394 0.326433
O O13 0.800892 0.828597 0.390086
O O14 0.868878 0.737032 0.392711
O O15 0.727022 0.847522 0.333827
O O16 0.692532 0.000000 0.262164
O O17 0.071180 0.171987 0.326981
O O18 0.000000 0.116044 0.279510
O O19 0.062448 0.000000 0.257664
O O20 0.270367 0.500000 0.118647
O O21 0.242913 0.376943 0.000000
#
# Coordination Sequence:
#
# PCOD8288845 Si02
#       8
#     8  16  16  16  16  16  16  16
#     4  11  22  34  51  73  99 135 172 206 249 297
#     4   9  18  31  47  70  98 126 161 207 251 298
#     4   9  18  31  47  68  97 131 166 202 247 299
#     4  10  19  32  50  74  99 130 163 202 253 297
#     4   9  18  32  50  73  98 129 165 203 247 296
#     4   9  18  33  52  70  92 126 164 206 254 298
#     4   9  18  32  50  72  99 127 161 202 246 301
#     4  10  19  34  49  71  99 128 167 209 247 295
#
# _framework density 17.04917
#
# number of rings (size 3 to 8) (size 9 to 14) (size 15 to 20)
#    0.000    2.600    0.667    1.200    0.000    3.200 
#    0.000    3.667    0.000    1.200    0.000    0.000 
#    0.000    6.400    0.000    0.000    0.000    0.000 
#
# Total GULP energy -743777.775078 kJ/mol
# GULP energy per Si atom -12396.296251 kJ/mol
# Density = 1.701037 g / cm^3
# Si number density = 17.049170 Si / 1000 Ang^3
#
#
#
# Elastic Constant Matrix: (Units=GPa)
#
#
# Indices 1 2 3 4 5 6 
#
# 1 64.5918 32.3310 39.2038 0.0000 0.0000 0.0000
# 2 32.3310 78.8780 38.7083 0.0000 0.0000 0.0000
# 3 39.2038 38.7083 97.3524 0.0000 0.0000 0.0000
# 4 0.0000 0.0000 0.0000 20.3007 0.0000 0.0000
# 5 0.0000 0.0000 0.0000 0.0000 14.8737 0.0000
# 6 0.0000 0.0000 0.0000 0.0000 0.0000 25.7795
#
#
#
# Elastic Compliance Matrix: (Units=1/GPa)
#
#
# Indices 1 2 3 4 5 6 
#
# 1 0.022528 -0.005941 -0.006710 0.000000 0.000000 0.000000
# 2 -0.005941 0.017318 -0.004493 0.000000 0.000000 0.000000
# 3 -0.006710 -0.004493 0.014761 0.000000 0.000000 0.000000
# 4 0.000000 0.000000 0.000000 0.049259 0.000000 0.000000
# 5 0.000000 0.000000 0.000000 0.000000 0.067233 0.000000
# 6 0.000000 0.000000 0.000000 0.000000 0.000000 0.038791
#
#
# Mechanical properties :
#
#
# Convention : Reuss Voigt Hill
#
# Bulk Modulus (GPa) = 49.21712 51.25651 50.23681
# Shear Modulus (GPa) = 19.92423 20.89606 20.41015
#
# Velocity S-wave (km/s) = 3.42224 3.50471 3.46372
# Velocity P-wave (km/s) = 6.67428 6.81957 6.74731
#
# Compressibility (1/GPa) = 0.02031813
#
# Stress axis : x y z
#
# Youngs Moduli (GPa) = 44.38883 57.74309 67.74801
#
# Poissons Ratio (x) = 0.34307 0.45458
# Poissons Ratio (y) = 0.26373 0.30441
# Poissons Ratio (z) = 0.29784 0.25946
#
# Static dielectric constant tensor:
#      x y z
#    x 3.262930 0.000000 0.000000 
#    y 0.000000 3.123280 0.000000 
#    z 0.000000 0.000000 3.331420 
# 
# 
# High freq. dielectric constant tensor:
#      x y z
#    x 1.655130 0.000000 0.000000 
#    y 0.000000 1.647660 0.000000 
#    z 0.000000 0.000000 1.663560 
# 
# From -- ./inp_files/41141.got.cif
#   From: 2010.06.25/outbox.cif.g09.slc.cpg/sg71_21_cif.got.tgz:41141.got - 2010.06.28 04:59:45.
