data_PCOD8288524
_publ_section_title
;
Structure prediction by ZEFSAII (Michael W. Deem and Ramdas Pophale) SiO2 
 PCOD8288524
Probable space group: I M M M
;
_chemical_formula_sum "Si O2"
_cell_formula_units_Z 120
_cell_length_a 27.799111
_cell_length_b 29.349912
_cell_length_c 8.851939
_cell_angle_alpha 90.000000
_cell_angle_beta 90.000000
_cell_angle_gamma 90.000000
_cell_volume 7222.309967
_symmetry_space_group_name_H-M "I M M M"
_symmetry_group_IT_number 71
_symmetry_cell_setting 'orthorhombic'
loop_
_space_group_symop_operation_xyz
x,y,z
-x,-y,z
x,-y,-z
-x,y,-z
-x,-y,-z
x,y,-z
-x,y,z
x,-y,z
1/2+x,1/2+y,1/2+z
1/2-x,1/2-y,1/2+z
1/2+x,1/2-y,1/2-z
1/2-x,1/2+y,1/2-z
1/2-x,1/2-y,1/2-z
1/2+x,1/2+y,1/2-z
1/2-x,1/2+y,1/2+z
1/2+x,1/2-y,1/2+z
loop_
_atom_site_type_symbol
_atom_site_label
_atom_site_fract_x
_atom_site_fract_y
_atom_site_fract_z
Si Si1 0.776001 0.054055 0.830124
Si Si2 0.055487 0.694886 0.178310
Si Si3 0.443418 0.620794 0.324929
Si Si4 0.591927 0.106111 0.820906
Si Si5 0.127104 0.946967 0.676517
Si Si6 0.678495 0.053311 0.323825
Si Si7 0.557138 0.287403 0.170244
Si Si8 0.000000 0.550860 0.320450
O O1 0.824779 0.072690 0.754867
O O2 0.730761 0.070157 0.730687
O O3 0.777847 0.000000 0.831744
O O4 0.771357 0.073450 0.000000
O O5 0.088835 0.655842 0.247914
O O6 0.075246 0.742542 0.243012
O O7 0.000000 0.686750 0.226676
O O8 0.061150 0.695624 0.000000
O O9 0.429921 0.619817 0.500000
O O10 0.500000 0.615786 0.297930
O O11 0.419007 0.578643 0.241347
O O12 0.423455 0.668000 0.255990
O O13 0.640259 0.081627 0.770758
O O14 0.547114 0.076519 0.760189
O O15 0.590967 0.111012 0.000000
O O16 0.131883 0.937872 0.500000
O O17 0.119771 0.000000 0.712970
O O18 0.672921 0.063916 0.500000
O O19 0.670890 0.000000 0.288874
O O20 0.500000 0.288171 0.170893
O O21 0.577436 0.287093 0.000000
O O22 0.000000 0.500000 0.252477
O O23 0.000000 0.549163 0.500000
#
# Coordination Sequence:
#
# PCOD8288524 Si02
#       8
#    16  16  16  16  16  16  16   8
#     4   9  17  31  51  72  93 121 160 204 246 287
#     4  10  19  31  47  67  94 124 158 201 249 296
#     4  10  20  33  49  72 103 136 169 202 238 282
#     4  11  20  31  47  67  93 125 164 204 246 295
#     4  10  20  33  50  73 102 135 168 202 240 282
#     4  10  20  33  48  68  95 125 159 202 250 296
#     4   9  17  30  49  70  93 123 161 202 244 287
#     4   9  18  30  43  61  89 125 163 201 240 289
#
# _framework density 16.615182999999998
#
# number of rings (size 3 to 8) (size 9 to 14) (size 15 to 20)
#    0.000    2.200    0.667    3.200    0.000    6.933 
#    0.000    1.333    0.000    1.600    0.000    0.933 
#    0.000    0.000    0.000    0.000    0.000    0.000 
#
# Total GULP energy -744135.655764 kJ/mol
# GULP energy per Si atom -12402.260929 kJ/mol
# Density = 1.657737 g / cm^3
# Si number density = 16.615183 Si / 1000 Ang^3
#
#
#
# Elastic Constant Matrix: (Units=GPa)
#
#
# Indices 1 2 3 4 5 6 
#
# 1 55.9614 40.6000 22.4600 0.0000 0.0000 0.0000
# 2 40.6000 89.8789 45.0618 0.0000 0.0000 0.0000
# 3 22.4600 45.0618 81.3896 0.0000 0.0000 0.0000
# 4 0.0000 0.0000 0.0000 29.8362 0.0000 0.0000
# 5 0.0000 0.0000 0.0000 0.0000 28.3717 0.0000
# 6 0.0000 0.0000 0.0000 0.0000 0.0000 5.4006
#
#
#
# Elastic Compliance Matrix: (Units=1/GPa)
#
#
# Indices 1 2 3 4 5 6 
#
# 1 0.026634 -0.011553 -0.000953 0.000000 0.000000 0.000000
# 2 -0.011553 0.020413 -0.008113 0.000000 0.000000 0.000000
# 3 -0.000953 -0.008113 0.017042 0.000000 0.000000 0.000000
# 4 0.000000 0.000000 0.000000 0.033516 0.000000 0.000000
# 5 0.000000 0.000000 0.000000 0.000000 0.035246 0.000000
# 6 0.000000 0.000000 0.000000 0.000000 0.000000 0.185165
#
#
# Mechanical properties :
#
#
# Convention : Reuss Voigt Hill
#
# Bulk Modulus (GPa) = 43.76660 49.27485 46.52072
# Shear Modulus (GPa) = 13.62874 20.66225 17.14549
#
# Velocity S-wave (km/s) = 2.86712 3.53026 3.21583
# Velocity P-wave (km/s) = 6.11220 6.80720 6.46904
#
# Compressibility (1/GPa) = 0.02284847
#
# Stress axis : x y z
#
# Youngs Moduli (GPa) = 37.54625 48.98951 58.67960
#
# Poissons Ratio (x) = 0.56598 0.05594
# Poissons Ratio (y) = 0.43377 0.47609
# Poissons Ratio (z) = 0.03580 0.39747
#
# Static dielectric constant tensor:
#      x y z
#    x 2.984310 0.000000 0.000000 
#    y 0.000000 3.071580 0.000000 
#    z 0.000000 0.000000 3.234230 
# 
# 
# High freq. dielectric constant tensor:
#      x y z
#    x 1.615150 0.000000 0.000000 
#    y 0.000000 1.625030 0.000000 
#    z 0.000000 0.000000 1.655630 
# 
# From -- ./inp_files/15646.got.cif
#   From: 2010.06.25/outbox.cif.g09.slc.cpg/sg71_8_cif.got.tgz:15646.got - 2010.06.28 04:59:45.
