data_PCOD8288343
_publ_section_title
;
Structure prediction by ZEFSAII (Michael W. Deem and Ramdas Pophale) SiO2 
 PCOD8288343
Probable space group: I M M M
;
_chemical_formula_sum "Si O2"
_cell_formula_units_Z 96
_cell_length_a 9.095837
_cell_length_b 25.209274
_cell_length_c 25.175321
_cell_angle_alpha 90.000000
_cell_angle_beta 90.000000
_cell_angle_gamma 90.000000
_cell_volume 5772.687188
_symmetry_space_group_name_H-M "I M M M"
_symmetry_group_IT_number 71
_symmetry_cell_setting 'orthorhombic'
loop_
_space_group_symop_operation_xyz
x,y,z
-x,-y,z
x,-y,-z
-x,y,-z
-x,-y,-z
x,y,-z
-x,y,z
x,-y,z
1/2+x,1/2+y,1/2+z
1/2-x,1/2-y,1/2+z
1/2+x,1/2-y,1/2-z
1/2-x,1/2+y,1/2-z
1/2-x,1/2-y,1/2-z
1/2+x,1/2+y,1/2-z
1/2-x,1/2+y,1/2+z
1/2+x,1/2-y,1/2+z
loop_
_atom_site_type_symbol
_atom_site_label
_atom_site_fract_x
_atom_site_fract_y
_atom_site_fract_z
Si Si1 0.329180 0.437552 0.894680
Si Si2 0.834437 0.436906 0.500000
Si Si3 0.166180 0.563017 0.000000
Si Si4 0.167253 0.747850 0.195928
Si Si5 0.828477 0.137001 0.197197
Si Si6 0.673234 0.866572 0.309862
Si Si7 0.171708 0.061025 0.103916
O O1 0.500000 0.423113 0.898905
O O2 0.304995 0.500000 0.887397
O O3 0.258821 0.409558 0.844052
O O4 0.249999 0.416191 0.947817
O O5 0.826940 0.500000 0.500000
O O6 0.754134 0.415497 0.447421
O O7 0.000000 0.415445 0.500000
O O8 0.166368 0.500000 0.000000
O O9 0.000000 0.585384 0.000000
O O10 0.250000 0.750000 0.250000
O O11 0.195522 0.805036 0.168131
O O12 0.209170 0.692777 0.165723
O O13 0.000000 0.742010 0.212475
O O14 0.730221 0.130016 0.249473
O O15 0.775741 0.093214 0.155364
O O16 0.000000 0.129443 0.212489
O O17 0.500000 0.879470 0.311343
O O18 0.000000 0.068407 0.093292
O O19 0.213280 0.000000 0.114262
#
# Coordination Sequence:
#
# PCOD8288343 Si02
#       7
#    16   8   8  16  16  16  16
#     4  10  20  33  49  69  94 124 155 186 225 276
#     4   9  17  29  45  64  87 116 149 184 222 265
#     4   9  17  31  51  72  93 118 151 190 228 267
#     4   8  15  28  45  64  87 118 156 192 225 265
#     4   9  17  30  47  67  93 124 156 189 227 273
#     4  10  19  30  46  69  95 122 154 192 232 270
#     4   9  17  29  46  67  90 117 149 184 222 266
#
# _framework density 16.630036
#
# number of rings (size 3 to 8) (size 9 to 14) (size 15 to 20)
#    0.000    2.833    0.000    1.500    0.000    5.000 
#    0.000    1.667    0.000    1.000    0.000    3.500 
#    0.000    0.000    0.000    0.000    0.000    0.000 
#
# Total GULP energy -594725.296657 kJ/mol
# GULP energy per Si atom -12390.110347 kJ/mol
# Density = 1.659219 g / cm^3
# Si number density = 16.630036 Si / 1000 Ang^3
#
#
#
# Elastic Constant Matrix: (Units=GPa)
#
#
# Indices 1 2 3 4 5 6 
#
# 1 88.3390 44.2077 51.8904 0.0000 0.0000 0.0000
# 2 44.2077 74.9564 53.3524 0.0000 0.0000 0.0000
# 3 51.8904 53.3524 100.8478 0.0000 0.0000 0.0000
# 4 0.0000 0.0000 0.0000 2.1979 0.0000 0.0000
# 5 0.0000 0.0000 0.0000 0.0000 26.4625 0.0000
# 6 0.0000 0.0000 0.0000 0.0000 0.0000 18.4775
#
#
#
# Elastic Compliance Matrix: (Units=1/GPa)
#
#
# Indices 1 2 3 4 5 6 
#
# 1 0.017975 -0.006445 -0.005839 0.000000 0.000000 0.000000
# 2 -0.006445 0.023710 -0.009227 0.000000 0.000000 0.000000
# 3 -0.005839 -0.009227 0.017802 0.000000 0.000000 0.000000
# 4 0.000000 0.000000 0.000000 0.454990 0.000000 0.000000
# 5 0.000000 0.000000 0.000000 0.000000 0.037789 0.000000
# 6 0.000000 0.000000 0.000000 0.000000 0.000000 0.054120
#
#
# Mechanical properties :
#
#
# Convention : Reuss Voigt Hill
#
# Bulk Modulus (GPa) = 60.73844 62.56048 61.64946
# Shear Modulus (GPa) = 7.63477 17.07375 12.35426
#
# Velocity S-wave (km/s) = 2.14498 3.20766 2.72856
# Velocity P-wave (km/s) = 6.53737 7.17074 6.86136
#
# Compressibility (1/GPa) = 0.01646404
#
# Stress axis : x y z
#
# Youngs Moduli (GPa) = 55.63139 42.17612 56.17324
#
# Poissons Ratio (x) = 0.27183 0.32801
# Poissons Ratio (y) = 0.35856 0.51832
# Poissons Ratio (z) = 0.32485 0.38917
#
# Static dielectric constant tensor:
#      x y z
#    x 3.182070 0.000000 0.000000 
#    y 0.000000 3.550410 0.000000 
#    z 0.000000 0.000000 2.968030 
# 
# 
# High freq. dielectric constant tensor:
#      x y z
#    x 1.651040 0.000000 0.000000 
#    y 0.000000 1.630930 0.000000 
#    z 0.000000 0.000000 1.617670 
# 
# From -- ./inp_files/57912.got.cif
#   From: 2010.06.25/outbox.cif.g09.slc.cpg/sg71_29_cif.got.tgz:57912.got - 2010.06.28 04:59:45.
