data_PCOD8288963
_publ_section_title
;
Structure prediction by ZEFSAII (Michael W. Deem and Ramdas Pophale) SiO2 
 PCOD8288963
Probable space group: I M M M
;
_chemical_formula_sum "Si O2"
_cell_formula_units_Z 96
_cell_length_a 19.881275
_cell_length_b 28.287312
_cell_length_c 9.867686
_cell_angle_alpha 90.000000
_cell_angle_beta 90.000000
_cell_angle_gamma 90.000000
_cell_volume 5549.466506
_symmetry_space_group_name_H-M "I M M M"
_symmetry_group_IT_number 71
_symmetry_cell_setting 'orthorhombic'
loop_
_space_group_symop_operation_xyz
x,y,z
-x,-y,z
x,-y,-z
-x,y,-z
-x,-y,-z
x,y,-z
-x,y,z
x,-y,z
1/2+x,1/2+y,1/2+z
1/2-x,1/2-y,1/2+z
1/2+x,1/2-y,1/2-z
1/2-x,1/2+y,1/2-z
1/2-x,1/2-y,1/2-z
1/2+x,1/2+y,1/2-z
1/2-x,1/2+y,1/2+z
1/2+x,1/2-y,1/2+z
loop_
_atom_site_type_symbol
_atom_site_label
_atom_site_fract_x
_atom_site_fract_y
_atom_site_fract_z
Si Si1 0.670738 0.204531 0.654997
Si Si2 0.329813 0.055756 0.157873
Si Si3 0.078197 0.380416 0.841946
Si Si4 0.073163 0.944834 0.352147
Si Si5 0.793879 0.194283 0.848430
Si Si6 0.817216 0.090361 0.847279
O O1 0.691391 0.195514 0.500000
O O2 0.606781 0.172106 0.692303
O O3 0.733303 0.189742 0.744880
O O4 0.657160 0.260711 0.680980
O O5 0.386459 0.079897 0.250499
O O6 0.258411 0.078332 0.200209
O O7 0.329231 0.000000 0.187937
O O8 0.345689 0.065949 0.000000
O O9 0.000000 0.379727 0.804358
O O10 0.089503 0.392966 0.000000
O O11 0.092450 0.923251 0.500000
O O12 0.130214 0.935857 0.244431
O O13 0.000000 0.924349 0.306138
O O14 0.066202 0.000000 0.368030
O O15 0.835078 0.145892 0.835937
O O16 0.763246 0.198790 0.000000
O O17 0.826488 0.071740 0.000000
#
# Coordination Sequence:
#
# PCOD8288963 Si02
#       6
#    16  16  16  16  16  16
#     4   9  17  31  51  75 100 129 165 203 249 301
#     4  10  21  36  53  75 104 136 173 219 266 310
#     4  10  21  36  53  74 103 138 176 218 262 309
#     4   9  19  35  52  71  99 136 174 209 249 300
#     4   9  17  30  51  77 103 128 160 204 250 298
#     4  10  19  32  52  79 107 133 166 209 255 305
#
# _framework density 17.298960999999998
#
# number of rings (size 3 to 8) (size 9 to 14) (size 15 to 20)
#    0.000    2.500    1.667    1.000    0.000    3.667 
#    0.000    3.333    0.000    3.000    0.000    0.000 
#    0.000    0.000    0.000    0.000    0.000    0.000 
#
# Total GULP energy -594864.471207 kJ/mol
# GULP energy per Si atom -12393.009817 kJ/mol
# Density = 1.725959 g / cm^3
# Si number density = 17.298961 Si / 1000 Ang^3
#
#
#
# Elastic Constant Matrix: (Units=GPa)
#
#
# Indices 1 2 3 4 5 6 
#
# 1 104.1314 49.2868 58.2064 0.0000 0.0000 0.0000
# 2 49.2868 99.2385 40.2880 0.0000 0.0000 0.0000
# 3 58.2064 40.2880 71.3176 0.0000 0.0000 0.0000
# 4 0.0000 0.0000 0.0000 26.0638 0.0000 0.0000
# 5 0.0000 0.0000 0.0000 0.0000 24.5293 0.0000
# 6 0.0000 0.0000 0.0000 0.0000 0.0000 25.8790
#
#
#
# Elastic Compliance Matrix: (Units=1/GPa)
#
#
# Indices 1 2 3 4 5 6 
#
# 1 0.018830 -0.004039 -0.013086 0.000000 0.000000 0.000000
# 2 -0.004039 0.013942 -0.004579 0.000000 0.000000 0.000000
# 3 -0.013086 -0.004579 0.027289 0.000000 0.000000 0.000000
# 4 0.000000 0.000000 0.000000 0.038367 0.000000 0.000000
# 5 0.000000 0.000000 0.000000 0.000000 0.040768 0.000000
# 6 0.000000 0.000000 0.000000 0.000000 0.000000 0.038641
#
#
# Mechanical properties :
#
#
# Convention : Reuss Voigt Hill
#
# Bulk Modulus (GPa) = 60.05546 63.36108 61.70827
# Shear Modulus (GPa) = 22.04607 23.75485 22.90046
#
# Velocity S-wave (km/s) = 3.57377 3.70968 3.64236
# Velocity P-wave (km/s) = 7.19866 7.41995 7.31014
#
# Compressibility (1/GPa) = 0.01665128
#
# Stress axis : x y z
#
# Youngs Moduli (GPa) = 53.10666 71.72654 36.64442
#
# Poissons Ratio (x) = 0.28972 0.47955
# Poissons Ratio (y) = 0.21451 0.16780
# Poissons Ratio (z) = 0.69498 0.32845
#
# Static dielectric constant tensor:
#      x y z
#    x 3.044350 0.000000 0.000000 
#    y 0.000000 3.396720 0.000000 
#    z 0.000000 0.000000 3.403770 
# 
# 
# High freq. dielectric constant tensor:
#      x y z
#    x 1.643620 0.000000 0.000000 
#    y 0.000000 1.674560 0.000000 
#    z 0.000000 0.000000 1.674400 
# 
# From -- ./inp_files/10897.got.cif
#   From: 2010.06.25/outbox.cif.g09.slc.cpg/sg71_6_cif.got.tgz:10897.got - 2010.06.28 04:59:45.
