data_PCOD8288523
_publ_section_title
;
Structure prediction by ZEFSAII (Michael W. Deem and Ramdas Pophale) SiO2 
 PCOD8288523
Probable space group: I M M M
;
_chemical_formula_sum "Si O2"
_cell_formula_units_Z 104
_cell_length_a 27.666144
_cell_length_b 10.280282
_cell_length_c 21.554391
_cell_angle_alpha 90.000000
_cell_angle_beta 90.000000
_cell_angle_gamma 90.000000
_cell_volume 6130.408544
_symmetry_space_group_name_H-M "I M M M"
_symmetry_group_IT_number 71
_symmetry_cell_setting 'orthorhombic'
loop_
_space_group_symop_operation_xyz
x,y,z
-x,-y,z
x,-y,-z
-x,y,-z
-x,-y,-z
x,y,-z
-x,y,z
x,-y,z
1/2+x,1/2+y,1/2+z
1/2-x,1/2-y,1/2+z
1/2+x,1/2-y,1/2-z
1/2-x,1/2+y,1/2-z
1/2-x,1/2-y,1/2-z
1/2+x,1/2+y,1/2-z
1/2-x,1/2+y,1/2+z
1/2+x,1/2-y,1/2+z
loop_
_atom_site_type_symbol
_atom_site_label
_atom_site_fract_x
_atom_site_fract_y
_atom_site_fract_z
Si Si1 0.207651 0.148701 0.071804
Si Si2 0.105619 0.846693 0.121035
Si Si3 0.445439 0.344885 0.500000
Si Si4 0.889218 0.852088 0.366916
Si Si5 0.789775 0.146389 0.571126
Si Si6 0.055276 0.154076 0.755949
Si Si7 0.052608 0.640094 0.427859
O O1 0.162668 0.184193 0.116316
O O2 0.249952 0.247765 0.089625
O O3 0.224939 0.000000 0.083519
O O4 0.191782 0.164884 0.000000
O O5 0.080845 0.786768 0.182618
O O6 0.097407 0.000000 0.121380
O O7 0.079511 0.785686 0.061123
O O8 0.440886 0.500000 0.500000
O O9 0.500000 0.297001 0.500000
O O10 0.831829 0.839070 0.377329
O O11 0.909038 0.804833 0.300145
O O12 0.911749 0.758099 0.417262
O O13 0.905912 0.000000 0.379665
O O14 0.808028 0.170693 0.500000
O O15 0.768254 0.000000 0.575728
O O16 0.000000 0.207729 0.748457
O O17 0.052959 0.000000 0.760625
O O18 0.046240 0.625906 0.500000
O O19 0.071836 0.500000 0.401703
O O20 0.000000 0.670170 0.397853
#
# Coordination Sequence:
#
# PCOD8288523 Si02
#       7
#    16  16   8  16  16  16  16
#     4   9  16  28  47  70  94 120 152 192 237 282
#     4   9  15  25  41  65  96 125 153 188 232 281
#     4   9  14  20  36  64  97 127 151 183 232 285
#     4  10  19  31  47  67  92 124 162 199 232 273
#     4   9  18  31  46  65  90 119 154 197 241 280
#     4   9  17  28  43  65  94 127 158 188 230 283
#     4   9  18  31  46  66  92 120 152 194 243 289
#
# _framework density 16.964611000000001
#
# number of rings (size 3 to 8) (size 9 to 14) (size 15 to 20)
#    0.000    2.846    0.769    1.846    0.000    4.308 
#    0.000    3.077    0.000    0.923    0.000    0.000 
#    0.000    2.462    0.000    0.000    0.000    0.154 
#
# Total GULP energy -644277.508362 kJ/mol
# GULP energy per Si atom -12389.952084 kJ/mol
# Density = 1.692600 g / cm^3
# Si number density = 16.964611 Si / 1000 Ang^3
#
#
#
# Elastic Constant Matrix: (Units=GPa)
#
#
# Indices 1 2 3 4 5 6 
#
# 1 115.6466 50.7128 58.4063 0.0000 0.0000 0.0000
# 2 50.7128 64.8762 25.1559 0.0000 0.0000 0.0000
# 3 58.4063 25.1559 83.2655 0.0000 0.0000 0.0000
# 4 0.0000 0.0000 0.0000 7.6174 0.0000 0.0000
# 5 0.0000 0.0000 0.0000 0.0000 30.5195 0.0000
# 6 0.0000 0.0000 0.0000 0.0000 0.0000 19.1323
#
#
#
# Elastic Compliance Matrix: (Units=1/GPa)
#
#
# Indices 1 2 3 4 5 6 
#
# 1 0.017990 -0.010386 -0.009481 0.000000 0.000000 0.000000
# 2 -0.010386 0.023455 0.000199 0.000000 0.000000 0.000000
# 3 -0.009481 0.000199 0.018600 0.000000 0.000000 0.000000
# 4 0.000000 0.000000 0.000000 0.131279 0.000000 0.000000
# 5 0.000000 0.000000 0.000000 0.000000 0.032766 0.000000
# 6 0.000000 0.000000 0.000000 0.000000 0.000000 0.052268
#
#
# Mechanical properties :
#
#
# Convention : Reuss Voigt Hill
#
# Bulk Modulus (GPa) = 48.28803 59.14871 53.71837
# Shear Modulus (GPa) = 15.49921 20.08806 17.79363
#
# Velocity S-wave (km/s) = 3.02589 3.44483 3.24214
# Velocity P-wave (km/s) = 6.38230 7.12489 6.76380
#
# Compressibility (1/GPa) = 0.02070907
#
# Stress axis : x y z
#
# Youngs Moduli (GPa) = 55.58698 42.63405 53.76301
#
# Poissons Ratio (x) = 0.44280 0.50973
# Poissons Ratio (y) = 0.57733 -0.01070
# Poissons Ratio (z) = 0.52703 -0.00848
#
# Static dielectric constant tensor:
#      x y z
#    x 3.166590 0.000000 0.000000 
#    y 0.000000 2.907060 0.000000 
#    z 0.000000 0.000000 3.212510 
# 
# 
# High freq. dielectric constant tensor:
#      x y z
#    x 1.653480 0.000000 0.000000 
#    y 0.000000 1.615410 0.000000 
#    z 0.000000 0.000000 1.640850 
# 
# From -- ./inp_files/56653.got.cif
#   From: 2010.06.25/outbox.cif.g09.slc.cpg/sg71_29_cif.got.tgz:56653.got - 2010.06.28 04:59:45.
