data_PCOD8288084
_publ_section_title
;
Structure prediction by ZEFSAII (Michael W. Deem and Ramdas Pophale) SiO2 
 PCOD8288084
Probable space group: I M M M
;
_chemical_formula_sum "Si O2"
_cell_formula_units_Z 128
_cell_length_a 16.920100
_cell_length_b 23.605839
_cell_length_c 17.557987
_cell_angle_alpha 90.000000
_cell_angle_beta 90.000000
_cell_angle_gamma 90.000000
_cell_volume 7012.891009
_symmetry_space_group_name_H-M "I M M M"
_symmetry_group_IT_number 71
_symmetry_cell_setting 'orthorhombic'
loop_
_space_group_symop_operation_xyz
x,y,z
-x,-y,z
x,-y,-z
-x,y,-z
-x,-y,-z
x,y,-z
-x,y,z
x,-y,z
1/2+x,1/2+y,1/2+z
1/2-x,1/2-y,1/2+z
1/2+x,1/2-y,1/2-z
1/2-x,1/2+y,1/2-z
1/2-x,1/2-y,1/2-z
1/2+x,1/2+y,1/2-z
1/2-x,1/2+y,1/2+z
1/2+x,1/2-y,1/2+z
loop_
_atom_site_type_symbol
_atom_site_label
_atom_site_fract_x
_atom_site_fract_y
_atom_site_fract_z
Si Si1 0.589240 0.643484 0.627533
Si Si2 0.194168 0.567350 0.738055
Si Si3 0.594179 0.169232 0.725867
Si Si4 0.154422 0.133194 0.293005
Si Si5 0.909255 0.060951 0.580523
Si Si6 0.227189 0.064067 0.916367
Si Si7 0.196831 0.253578 0.676887
Si Si8 0.156849 0.257401 0.086787
O O1 0.500000 0.621566 0.616318
O O2 0.609781 0.647955 0.716028
O O3 0.648029 0.600758 0.586481
O O4 0.595354 0.705876 0.591520
O O5 0.184719 0.500000 0.756252
O O6 0.117099 0.602600 0.765277
O O7 0.267444 0.595540 0.781982
O O8 0.208004 0.578757 0.647891
O O9 0.500000 0.175424 0.724219
O O10 0.628032 0.201349 0.801912
O O11 0.631043 0.193737 0.646900
O O12 0.097241 0.099606 0.346876
O O13 0.166202 0.190910 0.339650
O O14 0.874446 0.086023 0.500000
O O15 0.000000 0.050524 0.567966
O O16 0.868055 0.000000 0.596108
O O17 0.198464 0.000000 0.903221
O O18 0.266406 0.072086 0.000000
O O19 0.250000 0.250000 0.750000
O O20 0.255744 0.269301 0.606943
O O21 0.157262 0.281406 0.000000
#
# Coordination Sequence:
#
# PCOD8288084 Si02
#       8
#    16  16  16  16  16  16  16  16
#     4  11  21  31  49  80 112 146 184 224 272 330
#     4  10  20  36  58  82 107 141 190 236 276 328
#     4  11  22  38  59  85 115 147 185 229 279 335
#     4  11  18  33  56  77 105 138 188 234 269 323
#     4   9  19  34  50  74 110 147 182 223 273 327
#     4   9  19  35  54  77 109 148 186 227 273 326
#     4  10  18  37  57  79 105 141 182 227 272 324
#     4  11  22  37  58  83 111 145 187 229 275 336
#
# _framework density 18.252101
#
# number of rings (size 3 to 8) (size 9 to 14) (size 15 to 20)
#    0.000    1.750    5.000    2.625    0.000    3.750 
#    0.000    0.625    0.000    1.875    0.000    2.625 
#    0.000    0.000    0.000    0.000    0.000    0.000 
#
# Total GULP energy -792848.653024 kJ/mol
# GULP energy per Si atom -12388.260204 kJ/mol
# Density = 1.821056 g / cm^3
# Si number density = 18.252101 Si / 1000 Ang^3
#
#
#
# Elastic Constant Matrix: (Units=GPa)
#
#
# Indices 1 2 3 4 5 6 
#
# 1 77.2151 31.9417 39.1254 0.0001 0.0000 0.0000
# 2 31.9417 100.1599 30.5004 -0.0002 0.0000 0.0000
# 3 39.1254 30.5004 80.8579 -0.0005 0.0000 0.0000
# 4 0.0001 -0.0002 -0.0005 23.9257 0.0000 0.0000
# 5 0.0000 0.0000 0.0000 0.0000 15.6190 0.0000
# 6 0.0000 0.0000 0.0000 0.0000 0.0000 22.4132
#
#
#
# Elastic Compliance Matrix: (Units=1/GPa)
#
#
# Indices 1 2 3 4 5 6 
#
# 1 0.018197 -0.003527 -0.007475 0.000000 0.000000 0.000000
# 2 -0.003527 0.011963 -0.002806 0.000000 0.000000 0.000000
# 3 -0.007475 -0.002806 0.017043 0.000000 0.000000 0.000000
# 4 0.000000 0.000000 0.000000 0.041796 0.000000 0.000000
# 5 0.000000 0.000000 0.000000 0.000000 0.064025 0.000000
# 6 0.000000 0.000000 0.000000 0.000000 0.000000 0.044617
#
#
# Mechanical properties :
#
#
# Convention : Reuss Voigt Hill
#
# Bulk Modulus (GPa) = 51.05274 51.26309 51.15792
# Shear Modulus (GPa) = 21.57161 22.83593 22.20377
#
# Velocity S-wave (km/s) = 3.44156 3.54098 3.49163
# Velocity P-wave (km/s) = 6.61998 6.69815 6.65918
#
# Compressibility (1/GPa) = 0.01958759
#
# Stress axis : x y z
#
# Youngs Moduli (GPa) = 54.95266 83.58888 58.67589
#
# Poissons Ratio (x) = 0.29482 0.43860
# Poissons Ratio (y) = 0.19382 0.16464
# Poissons Ratio (z) = 0.41077 0.23455
#
# Static dielectric constant tensor:
#      x y z
#    x 3.289520 0.000000 0.000000 
#    y 0.000000 3.427010 0.000000 
#    z 0.000000 0.000000 3.519420 
# 
# 
# High freq. dielectric constant tensor:
#      x y z
#    x 1.678320 0.000000 0.000000 
#    y 0.000000 1.710120 0.000000 
#    z 0.000000 0.000000 1.703780 
# 
# From -- ./inp_files/46665.got.cif
#   From: 2010.06.25/outbox.cif.g09.slc.cpg/sg71_24_cif.got.tgz:46665.got - 2010.06.28 04:59:45.
