data_PCOD8288847
_publ_section_title
;
Structure prediction by ZEFSAII (Michael W. Deem and Ramdas Pophale) SiO2 
 PCOD8288847
Probable space group: I M M M
;
_chemical_formula_sum "Si O2"
_cell_formula_units_Z 88
_cell_length_a 23.386831
_cell_length_b 26.686835
_cell_length_c 7.716716
_cell_angle_alpha 90.000000
_cell_angle_beta 90.000000
_cell_angle_gamma 90.000000
_cell_volume 4816.160649
_symmetry_space_group_name_H-M "I M M M"
_symmetry_group_IT_number 71
_symmetry_cell_setting 'orthorhombic'
loop_
_space_group_symop_operation_xyz
x,y,z
-x,-y,z
x,-y,-z
-x,y,-z
-x,-y,-z
x,y,-z
-x,y,z
x,-y,z
1/2+x,1/2+y,1/2+z
1/2-x,1/2-y,1/2+z
1/2+x,1/2-y,1/2-z
1/2-x,1/2+y,1/2-z
1/2-x,1/2-y,1/2-z
1/2+x,1/2+y,1/2-z
1/2-x,1/2+y,1/2+z
1/2+x,1/2-y,1/2+z
loop_
_atom_site_type_symbol
_atom_site_label
_atom_site_fract_x
_atom_site_fract_y
_atom_site_fract_z
Si Si1 0.644512 0.942291 0.694248
Si Si2 0.563938 0.059579 0.000000
Si Si3 0.436546 0.786152 0.500000
Si Si4 0.644160 0.668856 0.193952
Si Si5 0.763573 0.366353 0.700811
Si Si6 0.063735 0.832825 0.000000
Si Si7 0.355446 0.784496 0.803343
O O1 0.619848 0.935768 0.500000
O O2 0.703388 0.912403 0.712481
O O3 0.658429 0.000000 0.735033
O O4 0.597557 0.921201 0.829481
O O5 0.500000 0.082452 0.000000
O O6 0.560139 0.000000 0.000000
O O7 0.500000 0.809680 0.500000
O O8 0.440645 0.726613 0.500000
O O9 0.403906 0.804787 0.672505
O O10 0.702164 0.637430 0.209606
O O11 0.596961 0.648478 0.328384
O O12 0.658608 0.726699 0.235226
O O13 0.619379 0.662658 0.000000
O O14 0.754821 0.377635 0.500000
O O15 0.797589 0.314788 0.731715
O O16 0.000000 0.856272 0.000000
O O17 0.377612 0.792640 0.000000
#
# Coordination Sequence:
#
# PCOD8288847 Si02
#       7
#    16   8   8  16  16   8  16
#     4  10  21  36  54  75  99 129 164 205 259 311
#     4   9  18  35  56  74  94 123 165 216 261 303
#     4   9  18  32  49  65  92 136 174 207 249 294
#     4  10  19  32  50  76 101 132 166 203 244 291
#     4  11  20  33  53  73 103 130 162 206 255 300
#     4   9  18  33  49  71 102 133 170 205 237 285
#     4   9  20  32  47  71  99 129 166 208 250 292
#
# _framework density 18.271816999999999
#
# number of rings (size 3 to 8) (size 9 to 14) (size 15 to 20)
#    0.000    2.273    1.818    1.091    2.545    1.091 
#    0.000    6.364    0.000    0.000    0.000    0.000 
#    0.000    1.455    0.000    3.818    0.000    0.182 
#
# Total GULP energy -545633.290010 kJ/mol
# GULP energy per Si atom -12400.756591 kJ/mol
# Density = 1.823023 g / cm^3
# Si number density = 18.271817 Si / 1000 Ang^3
#
#
#
# Elastic Constant Matrix: (Units=GPa)
#
#
# Indices 1 2 3 4 5 6 
#
# 1 141.2072 26.3281 74.2395 0.0000 0.0000 0.0000
# 2 26.3281 34.2974 25.3227 0.0000 0.0000 0.0000
# 3 74.2395 25.3227 139.9726 0.0000 0.0000 0.0000
# 4 0.0000 0.0000 0.0000 18.3171 0.0000 0.0000
# 5 0.0000 0.0000 0.0000 0.0000 25.3256 0.0000
# 6 0.0000 0.0000 0.0000 0.0000 0.0000 13.8508
#
#
#
# Elastic Compliance Matrix: (Units=1/GPa)
#
#
# Indices 1 2 3 4 5 6 
#
# 1 0.010391 -0.004510 -0.004696 0.000000 0.000000 0.000000
# 2 -0.004510 0.035609 -0.004050 0.000000 0.000000 0.000000
# 3 -0.004696 -0.004050 0.010367 0.000000 0.000000 0.000000
# 4 0.000000 0.000000 0.000000 0.054594 0.000000 0.000000
# 5 0.000000 0.000000 0.000000 0.000000 0.039486 0.000000
# 6 0.000000 0.000000 0.000000 0.000000 0.000000 0.072198
#
#
# Mechanical properties :
#
#
# Convention : Reuss Voigt Hill
#
# Bulk Modulus (GPa) = 33.49335 63.02863 48.26099
# Shear Modulus (GPa) = 19.29690 24.13783 21.71736
#
# Velocity S-wave (km/s) = 3.25330 3.63856 3.45131
# Velocity P-wave (km/s) = 5.69933 7.22648 6.50785
#
# Compressibility (1/GPa) = 0.02985668
#
# Stress axis : x y z
#
# Youngs Moduli (GPa) = 96.23408 28.08272 96.45634
#
# Poissons Ratio (x) = 0.12665 0.45291
# Poissons Ratio (y) = 0.43401 0.39065
# Poissons Ratio (z) = 0.45187 0.11374
#
# Static dielectric constant tensor:
#      x y z
#    x 3.371570 0.000000 0.000000 
#    y 0.000000 2.995690 0.000000 
#    z 0.000000 0.000000 3.631010 
# 
# 
# High freq. dielectric constant tensor:
#      x y z
#    x 1.693190 0.000000 0.000000 
#    y 0.000000 1.661870 0.000000 
#    z 0.000000 0.000000 1.729820 
# 
# From -- ./inp_files/8920.got.cif
#   From: 2010.06.25/outbox.cif.g09.slc.cpg/sg71_5_cif.got.tgz:8920.got - 2010.06.28 04:59:45.
