data_PCOD8288591
_publ_section_title
;
Structure prediction by ZEFSAII (Michael W. Deem and Ramdas Pophale) SiO2 
 PCOD8288591
Probable space group: I M M M
;
_chemical_formula_sum "Si O2"
_cell_formula_units_Z 120
_cell_length_a 14.005076
_cell_length_b 18.003811
_cell_length_c 27.412223
_cell_angle_alpha 90.000000
_cell_angle_beta 90.000000
_cell_angle_gamma 90.000000
_cell_volume 6911.847878
_symmetry_space_group_name_H-M "I M M M"
_symmetry_group_IT_number 71
_symmetry_cell_setting 'orthorhombic'
loop_
_space_group_symop_operation_xyz
x,y,z
-x,-y,z
x,-y,-z
-x,y,-z
-x,-y,-z
x,y,-z
-x,y,z
x,-y,z
1/2+x,1/2+y,1/2+z
1/2-x,1/2-y,1/2+z
1/2+x,1/2-y,1/2-z
1/2-x,1/2+y,1/2-z
1/2-x,1/2-y,1/2-z
1/2+x,1/2+y,1/2-z
1/2-x,1/2+y,1/2+z
1/2+x,1/2-y,1/2+z
loop_
_atom_site_type_symbol
_atom_site_label
_atom_site_fract_x
_atom_site_fract_y
_atom_site_fract_z
Si Si1 0.388522 0.417864 0.000000
Si Si2 0.892078 0.185011 0.305391
Si Si3 0.887922 0.196128 0.417169
Si Si4 0.245168 0.827790 0.945864
Si Si5 0.112599 0.086434 0.126145
Si Si6 0.794978 0.916090 0.771037
Si Si7 0.606604 0.855053 0.195611
Si Si8 0.895961 0.582383 0.591899
O O1 0.359452 0.372404 0.048248
O O2 0.339188 0.500000 0.000000
O O3 0.500000 0.430129 0.000000
O O4 0.874225 0.168543 0.362167
O O5 0.822733 0.134578 0.274090
O O6 0.870586 0.270091 0.291875
O O7 0.000000 0.164497 0.291363
O O8 0.809825 0.259428 0.427752
O O9 0.000000 0.221921 0.425782
O O10 0.158885 0.853271 0.910652
O O11 0.317917 0.897459 0.948499
O O12 0.203933 0.812545 0.000000
O O13 0.149920 0.107464 0.179832
O O14 0.000000 0.098450 0.123927
O O15 0.138675 0.000000 0.113588
O O16 0.681347 0.908267 0.777852
O O17 0.820416 0.000000 0.757222
O O18 0.500000 0.877946 0.212567
O O19 0.615047 0.861666 0.137223
O O20 0.877761 0.500000 0.612437
O O21 0.000000 0.589258 0.567690
#
# Coordination Sequence:
#
# PCOD8288591 Si02
#       8
#     8  16  16  16  16  16  16  16
#     4   9  18  32  52  78 110 149 180 204 254 331
#     4  10  20  33  53  79 106 140 183 228 271 314
#     4  10  19  34  55  81 114 144 172 217 273 324
#     4  12  22  33  53  78 104 138 184 227 267 316
#     4  10  22  39  54  71 104 149 190 229 275 321
#     4  11  21  35  56  80 108 142 182 228 274 325
#     4  10  19  33  54  77 104 141 180 219 266 327
#     4  10  19  31  48  73 104 136 173 213 258 319
#
# _framework density 17.361492999999999
#
# number of rings (size 3 to 8) (size 9 to 14) (size 15 to 20)
#    0.000    1.667    3.333    2.000    0.000    4.267 
#    0.000    2.667    0.000    0.000    0.000    0.000 
#    0.000    1.067    0.000    0.000    0.000    0.133 
#
# Total GULP energy -743657.748296 kJ/mol
# GULP energy per Si atom -12394.295805 kJ/mol
# Density = 1.732198 g / cm^3
# Si number density = 17.361493 Si / 1000 Ang^3
#
#
#
# Elastic Constant Matrix: (Units=GPa)
#
#
# Indices 1 2 3 4 5 6 
#
# 1 89.8409 40.8835 39.0170 0.0000 0.0000 0.0000
# 2 40.8835 80.5038 41.8557 0.0000 0.0000 0.0000
# 3 39.0170 41.8557 91.3943 0.0000 0.0000 0.0000
# 4 0.0000 0.0000 0.0000 45.6280 0.0000 0.0000
# 5 0.0000 0.0000 0.0000 0.0000 22.0003 0.0000
# 6 0.0000 0.0000 0.0000 0.0000 0.0000 16.7765
#
#
#
# Elastic Compliance Matrix: (Units=1/GPa)
#
#
# Indices 1 2 3 4 5 6 
#
# 1 0.015492 -0.005813 -0.003952 0.000000 0.000000 0.000000
# 2 -0.005813 0.018485 -0.005984 0.000000 0.000000 0.000000
# 3 -0.003952 -0.005984 0.015369 0.000000 0.000000 0.000000
# 4 0.000000 0.000000 0.000000 0.021916 0.000000 0.000000
# 5 0.000000 0.000000 0.000000 0.000000 0.045454 0.000000
# 6 0.000000 0.000000 0.000000 0.000000 0.000000 0.059607
#
#
# Mechanical properties :
#
#
# Convention : Reuss Voigt Hill
#
# Bulk Modulus (GPa) = 56.02508 56.13903 56.08205
# Shear Modulus (GPa) = 23.38954 26.21316 24.80135
#
# Velocity S-wave (km/s) = 3.67442 3.88989 3.78369
# Velocity P-wave (km/s) = 7.09518 7.25124 7.17364
#
# Compressibility (1/GPa) = 0.01784915
#
# Stress axis : x y z
#
# Youngs Moduli (GPa) = 64.54826 54.09752 65.06613
#
# Poissons Ratio (x) = 0.31448 0.25711
# Poissons Ratio (y) = 0.37523 0.38935
# Poissons Ratio (z) = 0.25506 0.32371
#
# Static dielectric constant tensor:
#      x y z
#    x 3.200620 0.000000 0.000000 
#    y 0.000000 3.294910 0.000000 
#    z 0.000000 0.000000 3.130860 
# 
# 
# High freq. dielectric constant tensor:
#      x y z
#    x 1.658140 0.000000 0.000000 
#    y 0.000000 1.666760 0.000000 
#    z 0.000000 0.000000 1.658500 
# 
# From -- ./inp_files/60222.got.cif
#   From: 2010.06.25/outbox.cif.g09.slc.cpg/sg71_31_cif.got.tgz:60222.got - 2010.06.28 04:59:45.
