data_PCOD8288560
_publ_section_title
;
Structure prediction by ZEFSAII (Michael W. Deem and Ramdas Pophale) SiO2 
 PCOD8288560
Probable space group: I M M M
;
_chemical_formula_sum "Si O2"
_cell_formula_units_Z 72
_cell_length_a 8.713611
_cell_length_b 14.415266
_cell_length_c 35.469384
_cell_angle_alpha 90.000000
_cell_angle_beta 90.000000
_cell_angle_gamma 90.000000
_cell_volume 4455.274578
_symmetry_space_group_name_H-M "I M M M"
_symmetry_group_IT_number 71
_symmetry_cell_setting 'orthorhombic'
loop_
_space_group_symop_operation_xyz
x,y,z
-x,-y,z
x,-y,-z
-x,y,-z
-x,-y,-z
x,y,-z
-x,y,z
x,-y,z
1/2+x,1/2+y,1/2+z
1/2-x,1/2-y,1/2+z
1/2+x,1/2-y,1/2-z
1/2-x,1/2+y,1/2-z
1/2-x,1/2-y,1/2-z
1/2+x,1/2+y,1/2-z
1/2-x,1/2+y,1/2+z
1/2+x,1/2-y,1/2+z
loop_
_atom_site_type_symbol
_atom_site_label
_atom_site_fract_x
_atom_site_fract_y
_atom_site_fract_z
Si Si1 0.672408 0.000000 0.736485
Si Si2 0.323153 0.796413 0.712881
Si Si3 0.180941 0.107137 0.922685
Si Si4 0.177699 0.000000 0.812277
Si Si5 0.181221 0.321951 0.650723
Si Si6 0.828075 0.390014 0.500000
O O1 0.694126 0.907547 0.711940
O O2 0.500000 0.000000 0.754468
O O3 0.805442 0.000000 0.767530
O O4 0.500000 0.764950 0.712076
O O5 0.250000 0.750000 0.750000
O O6 0.241216 0.765653 0.674318
O O7 0.251729 0.175224 0.891435
O O8 0.000000 0.115376 0.921827
O O9 0.231939 0.000000 0.915237
O O10 0.240095 0.144497 0.962835
O O11 0.263497 0.911483 0.827421
O O12 0.000000 0.000000 0.824631
O O13 0.000000 0.318455 0.648381
O O14 0.830305 0.500000 0.500000
O O15 0.000000 0.349411 0.500000
#
# Coordination Sequence:
#
# PCOD8288560 Si02
#       6
#     8  16  16   8  16   8
#     4  10  22  38  54  70  95 128 165 208 254 298
#     4  11  22  36  53  73  97 128 166 208 252 297
#     4  10  19  31  48  69  96 130 169 205 241 288
#     4  12  22  32  50  71  95 128 167 209 250 294
#     4  12  23  34  49  71 100 131 168 210 251 295
#     4   9  17  29  45  67  97 130 163 198 244 292
#
# _framework density 16.160620000000002
#
# number of rings (size 3 to 8) (size 9 to 14) (size 15 to 20)
#    0.000    1.222    3.333    4.667    0.000    3.111 
#    0.000    0.000    0.000    0.000    0.000    0.000 
#    0.000    0.889    0.000    9.556    0.000    4.222 
#
# Total GULP energy -446418.029927 kJ/mol
# GULP energy per Si atom -12400.500831 kJ/mol
# Density = 1.612384 g / cm^3
# Si number density = 16.160620 Si / 1000 Ang^3
#
#
#
# Elastic Constant Matrix: (Units=GPa)
#
#
# Indices 1 2 3 4 5 6 
#
# 1 117.0340 30.5410 61.1798 0.0000 0.0000 0.0000
# 2 30.5410 75.0024 42.9844 0.0000 0.0000 0.0000
# 3 61.1798 42.9844 141.4896 0.0000 0.0000 0.0000
# 4 0.0000 0.0000 0.0000 28.1107 0.0000 0.0000
# 5 0.0000 0.0000 0.0000 0.0000 33.5373 0.0000
# 6 0.0000 0.0000 0.0000 0.0000 0.0000 28.9210
#
#
#
# Elastic Compliance Matrix: (Units=1/GPa)
#
#
# Indices 1 2 3 4 5 6 
#
# 1 0.011329 -0.002186 -0.004234 0.000000 0.000000 0.000000
# 2 -0.002186 0.016566 -0.004087 0.000000 0.000000 0.000000
# 3 -0.004234 -0.004087 0.010140 0.000000 0.000000 0.000000
# 4 0.000000 0.000000 0.000000 0.035574 0.000000 0.000000
# 5 0.000000 0.000000 0.000000 0.000000 0.029818 0.000000
# 6 0.000000 0.000000 0.000000 0.000000 0.000000 0.034577
#
#
# Mechanical properties :
#
#
# Convention : Reuss Voigt Hill
#
# Bulk Modulus (GPa) = 58.75866 66.99291 62.87579
# Shear Modulus (GPa) = 30.35988 31.36852 30.86420
#
# Velocity S-wave (km/s) = 4.33902 4.41051 4.37491
# Velocity P-wave (km/s) = 7.84480 8.21470 8.03188
#
# Compressibility (1/GPa) = 0.01701877
#
# Stress axis : x y z
#
# Youngs Moduli (GPa) = 88.27288 60.36605 98.61713
#
# Poissons Ratio (x) = 0.13198 0.41757
# Poissons Ratio (y) = 0.19299 0.40307
# Poissons Ratio (z) = 0.37377 0.24673
#
# Static dielectric constant tensor:
#      x y z
#    x 3.270970 0.000000 0.000000 
#    y 0.000000 2.858180 0.000000 
#    z 0.000000 0.000000 3.225880 
# 
# 
# High freq. dielectric constant tensor:
#      x y z
#    x 1.643670 0.000000 0.000000 
#    y 0.000000 1.578900 0.000000 
#    z 0.000000 0.000000 1.618770 
# 
# From -- ./inp_files/31712.got.cif
#   From: 2010.06.25/outbox.cif.g09.slc.cpg/sg71_16_cif.got.tgz:31712.got - 2010.06.28 04:59:45.
