data_PCOD8288452
_publ_section_title
;
Structure prediction by ZEFSAII (Michael W. Deem and Ramdas Pophale) SiO2 
 PCOD8288452
Probable space group: I M M M
;
_chemical_formula_sum "Si O2"
_cell_formula_units_Z 120
_cell_length_a 14.966786
_cell_length_b 28.613523
_cell_length_c 15.342296
_cell_angle_alpha 90.000000
_cell_angle_beta 90.000000
_cell_angle_gamma 90.000000
_cell_volume 6570.376241
_symmetry_space_group_name_H-M "I M M M"
_symmetry_group_IT_number 71
_symmetry_cell_setting 'orthorhombic'
loop_
_space_group_symop_operation_xyz
x,y,z
-x,-y,z
x,-y,-z
-x,y,-z
-x,-y,-z
x,y,-z
-x,y,z
x,-y,z
1/2+x,1/2+y,1/2+z
1/2-x,1/2-y,1/2+z
1/2+x,1/2-y,1/2-z
1/2-x,1/2+y,1/2-z
1/2-x,1/2-y,1/2-z
1/2+x,1/2+y,1/2-z
1/2-x,1/2+y,1/2+z
1/2+x,1/2-y,1/2+z
loop_
_atom_site_type_symbol
_atom_site_label
_atom_site_fract_x
_atom_site_fract_y
_atom_site_fract_z
Si Si1 0.102615 0.500000 0.397258
Si Si2 0.598193 0.690234 0.206590
Si Si3 0.895933 0.906293 0.773423
Si Si4 0.756905 0.718375 0.901383
Si Si5 0.903175 0.292085 0.768718
Si Si6 0.394177 0.552079 0.093924
Si Si7 0.745058 0.923061 0.900842
Si Si8 0.683088 0.182097 0.097389
O O1 0.091509 0.500000 0.500000
O O2 0.159465 0.453766 0.368238
O O3 0.000000 0.500000 0.357720
O O4 0.500000 0.681279 0.165857
O O5 0.619990 0.649422 0.276252
O O6 0.663571 0.694317 0.124189
O O7 0.601323 0.736463 0.263850
O O8 0.861151 0.918412 0.676148
O O9 0.833413 0.933135 0.843012
O O10 0.000000 0.920174 0.790597
O O11 0.829623 0.693607 0.839319
O O12 0.752379 0.774820 0.888488
O O13 0.780973 0.705497 0.000000
O O14 0.890306 0.314785 0.673247
O O15 0.000000 0.308673 0.802255
O O16 0.500000 0.550292 0.095102
O O17 0.355306 0.500000 0.103817
O O18 0.361781 0.573082 0.000000
O O19 0.728467 0.868009 0.893987
O O20 0.767455 0.937574 0.000000
O O21 0.640038 0.187023 0.000000
#
# Coordination Sequence:
#
# PCOD8288452 Si02
#       8
#     8  16  16  16  16  16  16  16
#     4   9  20  38  55  71  94 125 161 209 261 294
#     4   9  18  32  48  69  97 130 165 205 250 291
#     4  10  19  30  49  74 103 136 164 192 236 296
#     4  10  19  31  48  69  99 136 169 204 245 292
#     4  10  19  31  48  69  98 130 164 208 251 293
#     4   8  15  28  44  63  90 124 161 198 231 266
#     4  10  20  34  52  74 101 130 163 202 246 303
#     4   9  18  33  52  71  93 127 169 211 252 292
#
# _framework density 18.263794000000001
#
# number of rings (size 3 to 8) (size 9 to 14) (size 15 to 20)
#    0.000    2.600    0.000    3.600    0.933    2.133 
#    0.000    5.333    0.000    6.000    0.000    0.000 
#    0.000    1.067    0.000    0.000    0.000    0.133 
#
# Total GULP energy -743342.609884 kJ/mol
# GULP energy per Si atom -12389.043498 kJ/mol
# Density = 1.822222 g / cm^3
# Si number density = 18.263794 Si / 1000 Ang^3
#
#
#
# Elastic Constant Matrix: (Units=GPa)
#
#
# Indices 1 2 3 4 5 6 
#
# 1 114.8573 31.2227 71.1434 0.0000 0.0000 0.0000
# 2 31.2227 44.3307 22.4480 0.0005 0.0001 0.0001
# 3 71.1434 22.4480 102.1243 0.0011 0.0002 0.0001
# 4 0.0000 0.0005 0.0011 16.8158 0.0002 0.0001
# 5 0.0000 0.0001 0.0002 0.0002 18.3440 0.0000
# 6 0.0000 0.0001 0.0001 0.0001 0.0000 18.7413
#
#
#
# Elastic Compliance Matrix: (Units=1/GPa)
#
#
# Indices 1 2 3 4 5 6 
#
# 1 0.016912 -0.006690 -0.010311 0.000001 0.000000 0.000000
# 2 -0.006690 0.028030 -0.001501 -0.000001 0.000000 0.000000
# 3 -0.010311 -0.001501 0.017305 -0.000001 0.000000 0.000000
# 4 0.000001 -0.000001 -0.000001 0.059468 -0.000001 0.000000
# 5 0.000000 0.000000 0.000000 -0.000001 0.054514 0.000000
# 6 0.000000 0.000000 0.000000 0.000000 0.000000 0.053358
#
#
# Mechanical properties :
#
#
# Convention : Reuss Voigt Hill
#
# Bulk Modulus (GPa) = 39.61491 56.77117 48.19304
# Shear Modulus (GPa) = 18.18166 19.88010 19.03088
#
# Velocity S-wave (km/s) = 3.15858 3.30282 3.23151
# Velocity P-wave (km/s) = 5.91943 6.75990 6.35358
#
# Compressibility (1/GPa) = 0.02524302
#
# Stress axis : x y z
#
# Youngs Moduli (GPa) = 59.13118 35.67667 57.78801
#
# Poissons Ratio (x) = 0.23868 0.59583
# Poissons Ratio (y) = 0.39559 0.08672
# Poissons Ratio (z) = 0.60968 0.05354
#
# Static dielectric constant tensor:
#      x y z
#    x 3.292770 0.000000 0.000000 
#    y 0.000000 3.337320 0.000000 
#    z 0.000000 0.000000 3.441630 
# 
# 
# High freq. dielectric constant tensor:
#      x y z
#    x 1.681520 0.000000 0.000000 
#    y 0.000000 1.697200 0.000000 
#    z 0.000000 0.000000 1.697270 
# 
# From -- ./inp_files/35471.got.cif
#   From: 2010.06.25/outbox.cif.g09.slc.cpg/sg71_18_cif.got.tgz:35471.got - 2010.06.28 04:59:45.
