data_PCOD8288142
_publ_section_title
;
Structure prediction by ZEFSAII (Michael W. Deem and Ramdas Pophale) SiO2 
 PCOD8288142
Probable space group: I M M M
;
_chemical_formula_sum "Si O2"
_cell_formula_units_Z 88
_cell_length_a 14.951861
_cell_length_b 34.355327
_cell_length_c 9.475168
_cell_angle_alpha 90.000000
_cell_angle_beta 90.000000
_cell_angle_gamma 90.000000
_cell_volume 4867.167098
_symmetry_space_group_name_H-M "I M M M"
_symmetry_group_IT_number 71
_symmetry_cell_setting 'orthorhombic'
loop_
_space_group_symop_operation_xyz
x,y,z
-x,-y,z
x,-y,-z
-x,y,-z
-x,-y,-z
x,y,-z
-x,y,z
x,-y,z
1/2+x,1/2+y,1/2+z
1/2-x,1/2-y,1/2+z
1/2+x,1/2-y,1/2-z
1/2-x,1/2+y,1/2-z
1/2-x,1/2-y,1/2-z
1/2+x,1/2+y,1/2-z
1/2-x,1/2+y,1/2+z
1/2+x,1/2-y,1/2+z
loop_
_atom_site_type_symbol
_atom_site_label
_atom_site_fract_x
_atom_site_fract_y
_atom_site_fract_z
Si Si1 0.719871 0.658716 0.333354
Si Si2 0.595945 0.045123 0.834383
Si Si3 0.103898 0.218115 0.340018
Si Si4 0.902100 0.305588 0.332808
Si Si5 0.218175 0.071877 0.167494
Si Si6 0.101210 0.000000 0.831585
O O1 0.712280 0.665118 0.500000
O O2 0.655367 0.688802 0.259800
O O3 0.822955 0.665556 0.283556
O O4 0.687703 0.615298 0.290312
O O5 0.500000 0.059695 0.770695
O O6 0.681907 0.066537 0.767856
O O7 0.608376 0.000000 0.802258
O O8 0.593501 0.053068 0.000000
O O9 0.139420 0.213739 0.500000
O O10 0.120577 0.261757 0.282151
O O11 0.000000 0.207568 0.332869
O O12 0.909390 0.304710 0.500000
O O13 0.000000 0.318814 0.272523
O O14 0.150585 0.038945 0.226670
O O15 0.223012 0.067058 0.000000
O O16 0.000000 0.000000 0.773226
O O17 0.101278 0.000000 0.000000
#
# Coordination Sequence:
#
# PCOD8288142 Si02
#       6
#    16  16  16  16  16   8
#     4  10  19  28  45  73  97 116 145 195 240 263
#     4   8  12  19  33  51  75 110 144 172 206 254
#     4   9  18  33  50  64  85 123 161 186 219 277
#     4   8  15  29  47  67  93 124 153 179 219 279
#     4   9  16  25  36  56  86 114 143 179 220 265
#     4   9  16  26  37  47  72 118 153 170 206 266
#
# _framework density 18.080333
#
# number of rings (size 3 to 8) (size 9 to 14) (size 15 to 20)
#    0.000    3.182    0.909    2.182    0.000    1.818 
#    0.000    5.455    0.000    1.636    0.000    0.636 
#    0.000    2.182    0.000    2.000    0.000    1.818 
#
# Total GULP energy -545115.318535 kJ/mol
# GULP energy per Si atom -12388.984512 kJ/mol
# Density = 1.803918 g / cm^3
# Si number density = 18.080333 Si / 1000 Ang^3
#
#
#
# Elastic Constant Matrix: (Units=GPa)
#
#
# Indices 1 2 3 4 5 6 
#
# 1 113.4495 61.0062 16.6949 0.0002 0.0005 0.0004
# 2 61.0062 116.6391 19.3598 0.0012 0.0012 -0.0005
# 3 16.6949 19.3598 16.6768 0.0075 -0.0010 -0.0033
# 4 0.0002 0.0012 0.0075 10.8329 -0.0005 -0.0002
# 5 0.0005 0.0012 -0.0010 -0.0005 13.2347 -0.0001
# 6 0.0004 -0.0005 -0.0033 -0.0002 -0.0001 18.3419
#
#
#
# Elastic Compliance Matrix: (Units=1/GPa)
#
#
# Indices 1 2 3 4 5 6 
#
# 1 0.012766 -0.005643 -0.006229 0.000005 0.000000 -0.000002
# 2 -0.005643 0.013114 -0.009575 0.000005 -0.000002 -0.000001
# 3 -0.006229 -0.009575 0.077314 -0.000052 0.000007 0.000014
# 4 0.000005 0.000005 -0.000052 0.092312 0.000003 0.000001
# 5 0.000000 -0.000002 0.000007 0.000003 0.075559 0.000000
# 6 -0.000002 -0.000001 0.000014 0.000001 0.000000 0.054520
#
#
# Mechanical properties :
#
#
# Convention : Reuss Voigt Hill
#
# Bulk Modulus (GPa) = 16.58351 48.98745 32.78548
# Shear Modulus (GPa) = 12.86747 18.46222 15.66484
#
# Velocity S-wave (km/s) = 2.67063 3.19897 2.94666
# Velocity P-wave (km/s) = 4.32455 6.38730 5.45433
#
# Compressibility (1/GPa) = 0.06030085
#
# Stress axis : x y z
#
# Youngs Moduli (GPa) = 78.33601 76.25345 12.93429
#
# Poissons Ratio (x) = 0.43030 0.08056
# Poissons Ratio (y) = 0.44205 0.12384
# Poissons Ratio (z) = 0.48792 0.73011
#
# Static dielectric constant tensor:
#      x y z
#    x 3.731580 0.000000 0.000000 
#    y 0.000000 3.410560 0.000000 
#    z 0.000000 0.000000 2.619760 
# 
# 
# High freq. dielectric constant tensor:
#      x y z
#    x 1.716580 0.000000 0.000000 
#    y 0.000000 1.702040 0.000000 
#    z 0.000000 0.000000 1.611670 
# 
# From -- ./inp_files/22532.got.cif
#   From: 2010.06.25/outbox.cif.g09.slc.cpg/sg71_12_cif.got.tgz:22532.got - 2010.06.28 04:59:45.
