data_PCOD8288851
_publ_section_title
;
Structure prediction by ZEFSAII (Michael W. Deem and Ramdas Pophale) SiO2 
 PCOD8288851
Probable space group: I M M M
;
_chemical_formula_sum "Si O2"
_cell_formula_units_Z 104
_cell_length_a 13.896285
_cell_length_b 33.811761
_cell_length_c 12.872056
_cell_angle_alpha 90.000000
_cell_angle_beta 90.000000
_cell_angle_gamma 90.000000
_cell_volume 6048.036779
_symmetry_space_group_name_H-M "I M M M"
_symmetry_group_IT_number 71
_symmetry_cell_setting 'orthorhombic'
loop_
_space_group_symop_operation_xyz
x,y,z
-x,-y,z
x,-y,-z
-x,y,-z
-x,-y,-z
x,y,-z
-x,y,z
x,-y,z
1/2+x,1/2+y,1/2+z
1/2-x,1/2-y,1/2+z
1/2+x,1/2-y,1/2-z
1/2-x,1/2+y,1/2-z
1/2-x,1/2-y,1/2-z
1/2+x,1/2+y,1/2-z
1/2-x,1/2+y,1/2+z
1/2+x,1/2-y,1/2+z
loop_
_atom_site_type_symbol
_atom_site_label
_atom_site_fract_x
_atom_site_fract_y
_atom_site_fract_z
Si Si1 0.389533 0.088862 0.118604
Si Si2 0.108169 0.452966 0.000000
Si Si3 0.109885 0.906070 0.620233
Si Si4 0.389830 0.170060 0.774502
Si Si5 0.223246 0.172553 0.619862
Si Si6 0.722196 0.046842 0.702099
Si Si7 0.890788 0.751710 0.622410
O O1 0.500000 0.076176 0.135920
O O2 0.375694 0.135138 0.142568
O O3 0.324259 0.061795 0.191629
O O4 0.357854 0.081451 0.000000
O O5 0.160976 0.437175 0.103381
O O6 0.107621 0.500000 0.000000
O O7 0.000000 0.436044 0.000000
O O8 0.120312 0.918368 0.500000
O O9 0.145372 0.861562 0.638649
O O10 0.170223 0.936416 0.690718
O O11 0.000000 0.908753 0.657222
O O12 0.500000 0.171958 0.735711
O O13 0.322235 0.161869 0.676510
O O14 0.357070 0.210747 0.827402
O O15 0.249858 0.176878 0.500000
O O16 0.177199 0.213101 0.663288
O O17 0.726457 0.000000 0.704711
O O18 0.882033 0.747085 0.500000
O O19 0.000000 0.761808 0.654428
#
# Coordination Sequence:
#
# PCOD8288851 Si02
#       7
#    16   8  16  16  16  16  16
#     4  10  21  37  56  79 108 143 183 223 262 312
#     4   9  18  32  51  77 109 141 168 202 261 337
#     4  10  20  35  55  79 108 140 177 222 269 320
#     4  10  19  32  51  76 106 140 176 215 261 313
#     4  10  19  32  50  76 108 139 173 213 264 320
#     4  11  21  35  54  79 109 139 175 222 275 325
#     4   9  17  30  50  76 104 136 176 218 257 302
#
# _framework density 17.195663
#
# number of rings (size 3 to 8) (size 9 to 14) (size 15 to 20)
#    0.000    2.077    2.308    1.846    0.000    5.538 
#    0.000    1.538    0.000    0.462    0.000    1.077 
#    0.000    0.000    0.000    0.000    0.000    0.000 
#
# Total GULP energy -644911.264303 kJ/mol
# GULP energy per Si atom -12402.139698 kJ/mol
# Density = 1.715652 g / cm^3
# Si number density = 17.195663 Si / 1000 Ang^3
#
#
#
# Elastic Constant Matrix: (Units=GPa)
#
#
# Indices 1 2 3 4 5 6 
#
# 1 95.2605 41.8525 46.2433 0.0012 0.0004 0.0001
# 2 41.8525 88.4016 41.2033 0.0000 0.0002 0.0000
# 3 46.2433 41.2033 82.0413 -0.0007 0.0013 0.0006
# 4 0.0012 0.0000 -0.0007 25.4656 -0.0003 -0.0001
# 5 0.0004 0.0002 0.0013 -0.0003 26.3735 -0.0002
# 6 0.0001 0.0000 0.0006 -0.0001 -0.0002 26.5357
#
#
#
# Elastic Compliance Matrix: (Units=1/GPa)
#
#
# Indices 1 2 3 4 5 6 
#
# 1 0.015608 -0.004294 -0.006641 -0.000001 0.000000 0.000000
# 2 -0.004294 0.015951 -0.005590 0.000000 0.000000 0.000000
# 3 -0.006641 -0.005590 0.018740 0.000001 -0.000001 0.000000
# 4 -0.000001 0.000000 0.000001 0.039269 0.000000 0.000000
# 5 0.000000 0.000000 -0.000001 0.000000 0.037917 0.000000
# 6 0.000000 0.000000 0.000000 0.000000 0.000000 0.037685
#
#
# Mechanical properties :
#
#
# Convention : Reuss Voigt Hill
#
# Bulk Modulus (GPa) = 57.97931 58.25571 58.11751
# Shear Modulus (GPa) = 24.51353 24.76859 24.64106
#
# Velocity S-wave (km/s) = 3.77976 3.79937 3.78958
# Velocity P-wave (km/s) = 7.26907 7.29374 7.28142
#
# Compressibility (1/GPa) = 0.01724753
#
# Stress axis : x y z
#
# Youngs Moduli (GPa) = 64.07023 62.69342 53.36214
#
# Poissons Ratio (x) = 0.26921 0.35437
# Poissons Ratio (y) = 0.27512 0.29832
# Poissons Ratio (z) = 0.42549 0.35048
#
# Static dielectric constant tensor:
#      x y z
#    x 3.227920 0.000000 0.000000 
#    y 0.000000 3.236520 0.000000 
#    z 0.000000 0.000000 3.052250 
# 
# 
# High freq. dielectric constant tensor:
#      x y z
#    x 1.660480 0.000000 0.000000 
#    y 0.000000 1.672360 0.000000 
#    z 0.000000 0.000000 1.644130 
# 
# From -- ./inp_files/22667.got.cif
#   From: 2010.06.25/outbox.cif.g09.slc.cpg/sg71_12_cif.got.tgz:22667.got - 2010.06.28 04:59:45.
