data_PCOD8288792
_publ_section_title
;
Structure prediction by ZEFSAII (Michael W. Deem and Ramdas Pophale) SiO2 
 PCOD8288792
Probable space group: I M M M
;
_chemical_formula_sum "Si O2"
_cell_formula_units_Z 104
_cell_length_a 8.975028
_cell_length_b 26.695034
_cell_length_c 24.134884
_cell_angle_alpha 90.000000
_cell_angle_beta 90.000000
_cell_angle_gamma 90.000000
_cell_volume 5782.444942
_symmetry_space_group_name_H-M "I M M M"
_symmetry_group_IT_number 71
_symmetry_cell_setting 'orthorhombic'
loop_
_space_group_symop_operation_xyz
x,y,z
-x,-y,z
x,-y,-z
-x,y,-z
-x,-y,-z
x,y,-z
-x,y,z
x,-y,z
1/2+x,1/2+y,1/2+z
1/2-x,1/2-y,1/2+z
1/2+x,1/2-y,1/2-z
1/2-x,1/2+y,1/2-z
1/2-x,1/2-y,1/2-z
1/2+x,1/2+y,1/2-z
1/2-x,1/2+y,1/2+z
1/2+x,1/2-y,1/2+z
loop_
_atom_site_type_symbol
_atom_site_label
_atom_site_fract_x
_atom_site_fract_y
_atom_site_fract_z
Si Si1 0.675404 0.789658 0.353373
Si Si2 0.832933 0.500000 0.434090
Si Si3 0.324279 0.401022 0.437019
Si Si4 0.823688 0.823158 0.848526
Si Si5 0.823232 0.137188 0.269283
Si Si6 0.676857 0.057624 0.341644
Si Si7 0.674318 0.871493 0.438737
O O1 0.500000 0.792507 0.339187
O O2 0.737757 0.733184 0.355153
O O3 0.766851 0.816894 0.305787
O O4 0.707966 0.817070 0.411989
O O5 0.828589 0.500000 0.500000
O O6 0.749430 0.549084 0.411972
O O7 0.000000 0.500000 0.410807
O O8 0.274130 0.390911 0.500000
O O9 0.500000 0.408230 0.432437
O O10 0.265753 0.354514 0.401040
O O11 0.768889 0.850653 0.792893
O O12 0.000000 0.820341 0.848674
O O13 0.750989 0.084793 0.288876
O O14 0.000000 0.132663 0.273649
O O15 0.500000 0.063086 0.335944
O O16 0.734474 0.084618 0.398077
O O17 0.727790 0.000000 0.343062
O O18 0.749568 0.874836 0.500000
O O19 0.500000 0.879295 0.445705
#
# Coordination Sequence:
#
# PCOD8288792 Si02
#       7
#    16   8  16  16  16  16  16
#     4   9  17  31  50  70  97 128 157 194 236 279
#     4   9  17  31  49  67  91 123 155 187 228 279
#     4   9  17  31  51  72  94 122 156 195 240 288
#     4   9  18  31  48  73  98 122 157 198 238 282
#     4  10  19  32  49  69  95 127 162 197 236 283
#     4   9  18  33  51  70  96 128 160 200 243 284
#     4   8  14  25  45  74 100 122 152 190 235 282
#
# _framework density 17.985471
#
# number of rings (size 3 to 8) (size 9 to 14) (size 15 to 20)
#    0.000    3.000    0.000    2.077    0.000    2.154 
#    1.385    7.692    0.000    7.385    0.000    4.308 
#    0.000    0.000    0.000    0.000    0.000    0.000 
#
# Total GULP energy -644598.039985 kJ/mol
# GULP energy per Si atom -12396.116154 kJ/mol
# Density = 1.794454 g / cm^3
# Si number density = 17.985471 Si / 1000 Ang^3
#
#
#
# Elastic Constant Matrix: (Units=GPa)
#
#
# Indices 1 2 3 4 5 6 
#
# 1 31.3686 31.4762 23.3687 0.0000 0.0000 0.0000
# 2 31.4762 174.6038 85.7656 0.0000 0.0000 0.0000
# 3 23.3687 85.7656 116.0319 0.0001 0.0000 0.0000
# 4 0.0000 0.0000 0.0001 19.5116 0.0000 0.0000
# 5 0.0000 0.0000 0.0000 0.0000 18.8949 0.0000
# 6 0.0000 0.0000 0.0000 0.0000 0.0000 19.8170
#
#
#
# Elastic Compliance Matrix: (Units=1/GPa)
#
#
# Indices 1 2 3 4 5 6 
#
# 1 0.040244 -0.005140 -0.004306 0.000000 0.000000 0.000000
# 2 -0.005140 0.009648 -0.006097 0.000000 0.000000 0.000000
# 3 -0.004306 -0.006097 0.013992 0.000000 0.000000 0.000000
# 4 0.000000 0.000000 0.000000 0.051251 0.000000 0.000000
# 5 0.000000 0.000000 0.000000 0.000000 0.052924 0.000000
# 6 0.000000 0.000000 0.000000 0.000000 0.000000 0.050462
#
#
# Mechanical properties :
#
#
# Convention : Reuss Voigt Hill
#
# Bulk Modulus (GPa) = 30.48795 67.02505 48.75650
# Shear Modulus (GPa) = 19.19088 23.73761 21.46425
#
# Velocity S-wave (km/s) = 3.27007 3.63688 3.45834
# Velocity P-wave (km/s) = 5.58982 7.41505 6.56616
#
# Compressibility (1/GPa) = 0.03279984
#
# Stress axis : x y z
#
# Youngs Moduli (GPa) = 24.84818 103.64353 71.47005
#
# Poissons Ratio (x) = 0.53271 0.30776
# Poissons Ratio (y) = 0.12771 0.43572
# Poissons Ratio (z) = 0.10700 0.63187
#
# Static dielectric constant tensor:
#      x y z
#    x 3.009910 0.000000 0.000000 
#    y 0.000000 3.574270 0.000000 
#    z 0.000000 0.000000 3.501890 
# 
# 
# High freq. dielectric constant tensor:
#      x y z
#    x 1.661480 0.000000 0.000000 
#    y 0.000000 1.704660 0.000000 
#    z 0.000000 0.000000 1.690870 
# 
# From -- ./inp_files/13287.got.cif
#   From: 2010.06.25/outbox.cif.g09.slc.cpg/sg71_7_cif.got.tgz:13287.got - 2010.06.28 04:59:45.
