data_PCOD8288363
_publ_section_title
;
Structure prediction by ZEFSAII (Michael W. Deem and Ramdas Pophale) SiO2 
 PCOD8288363
Probable space group: I M M M
;
_chemical_formula_sum "Si O2"
_cell_formula_units_Z 112
_cell_length_a 8.766647
_cell_length_b 27.485164
_cell_length_c 26.638669
_cell_angle_alpha 90.000000
_cell_angle_beta 90.000000
_cell_angle_gamma 90.000000
_cell_volume 6418.660033
_symmetry_space_group_name_H-M "I M M M"
_symmetry_group_IT_number 71
_symmetry_cell_setting 'orthorhombic'
loop_
_space_group_symop_operation_xyz
x,y,z
-x,-y,z
x,-y,-z
-x,y,-z
-x,-y,-z
x,y,-z
-x,y,z
x,-y,z
1/2+x,1/2+y,1/2+z
1/2-x,1/2-y,1/2+z
1/2+x,1/2-y,1/2-z
1/2-x,1/2+y,1/2-z
1/2-x,1/2-y,1/2-z
1/2+x,1/2+y,1/2-z
1/2-x,1/2+y,1/2+z
1/2+x,1/2-y,1/2+z
loop_
_atom_site_type_symbol
_atom_site_label
_atom_site_fract_x
_atom_site_fract_y
_atom_site_fract_z
Si Si1 0.178441 0.098543 0.055620
Si Si2 0.680595 0.944006 0.396536
Si Si3 0.319624 0.197736 0.758740
Si Si4 0.829272 0.057467 0.500000
Si Si5 0.176847 0.947739 0.210324
Si Si6 0.677592 0.388156 0.805574
Si Si7 0.170024 0.500000 0.440427
Si Si8 0.679566 0.644814 0.346171
O O1 0.213203 0.143494 0.093815
O O2 0.000000 0.089266 0.052665
O O3 0.247287 0.048859 0.078245
O O4 0.243391 0.111544 0.000000
O O5 0.500000 0.940898 0.395729
O O6 0.739528 0.925412 0.450493
O O7 0.746737 0.905307 0.357138
O O8 0.733843 0.000000 0.385849
O O9 0.500000 0.198996 0.753312
O O10 0.250000 0.250000 0.750000
O O11 0.253625 0.160218 0.717712
O O12 0.273494 0.185385 0.816409
O O13 0.000000 0.079793 0.500000
O O14 0.838208 0.000000 0.500000
O O15 0.202958 0.932854 0.267879
O O16 0.243347 0.906791 0.173935
O O17 0.000000 0.953012 0.198517
O O18 0.258286 0.000000 0.201000
O O19 0.500000 0.376721 0.814309
O O20 0.172584 0.500000 0.500000
O O21 0.000000 0.500000 0.418717
O O22 0.500000 0.651921 0.334355
#
# Coordination Sequence:
#
# PCOD8288363 Si02
#       8
#    16  16  16   8  16  16   8  16
#     4   9  17  29  46  69  98 134 175 213 246 288
#     4  10  19  30  46  72 108 145 178 214 253 294
#     4  11  22  38  58  78 101 125 158 205 259 313
#     4   9  17  29  45  67  97 139 187 223 251 289
#     4   8  14  24  40  63  93 129 165 199 236 281
#     4  10  19  32  50  74 101 132 170 206 249 306
#     4   9  17  27  39  59  93 135 175 213 249 284
#     4   9  18  31  49  73 100 130 168 207 249 299
#
# _framework density 17.449124000000001
#
# number of rings (size 3 to 8) (size 9 to 14) (size 15 to 20)
#    0.000    2.571    0.000    3.857    1.000    3.714 
#    0.000    0.000    0.000    1.714    1.857    0.000 
#    0.000    0.000    0.000    0.000    0.000    0.000 
#
# Total GULP energy -693966.141103 kJ/mol
# GULP energy per Si atom -12392.252520 kJ/mol
# Density = 1.740941 g / cm^3
# Si number density = 17.449124 Si / 1000 Ang^3
#
#
#
# Elastic Constant Matrix: (Units=GPa)
#
#
# Indices 1 2 3 4 5 6 
#
# 1 89.6494 37.2549 43.1362 0.0000 0.0000 0.0000
# 2 37.2549 92.4806 42.0699 0.0000 0.0000 0.0000
# 3 43.1362 42.0699 111.2624 0.0000 0.0000 0.0000
# 4 0.0000 0.0000 0.0000 23.4646 0.0000 0.0000
# 5 0.0000 0.0000 0.0000 0.0000 24.5684 0.0000
# 6 0.0000 0.0000 0.0000 0.0000 0.0000 21.9947
#
#
#
# Elastic Compliance Matrix: (Units=1/GPa)
#
#
# Indices 1 2 3 4 5 6 
#
# 1 0.014882 -0.004070 -0.004230 0.000000 0.000000 0.000000
# 2 -0.004070 0.014173 -0.003781 0.000000 0.000000 0.000000
# 3 -0.004230 -0.003781 0.012057 0.000000 0.000000 0.000000
# 4 0.000000 0.000000 0.000000 0.042617 0.000000 0.000000
# 5 0.000000 0.000000 0.000000 0.000000 0.040703 0.000000
# 6 0.000000 0.000000 0.000000 0.000000 0.000000 0.045465
#
#
# Mechanical properties :
#
#
# Convention : Reuss Voigt Hill
#
# Bulk Modulus (GPa) = 59.00268 59.81268 59.40768
# Shear Modulus (GPa) = 25.03627 25.40099 25.21863
#
# Velocity S-wave (km/s) = 3.79201 3.81953 3.80579
# Velocity P-wave (km/s) = 7.28422 7.33515 7.30973
#
# Compressibility (1/GPa) = 0.01694838
#
# Stress axis : x y z
#
# Youngs Moduli (GPa) = 67.19682 70.55811 82.93604
#
# Poissons Ratio (x) = 0.28720 0.35086
# Poissons Ratio (y) = 0.27352 0.31356
# Poissons Ratio (z) = 0.28428 0.26677
#
# Static dielectric constant tensor:
#      x y z
#    x 3.196620 0.000000 0.000000 
#    y 0.000000 3.057250 0.000000 
#    z 0.000000 0.000000 3.225710 
# 
# 
# High freq. dielectric constant tensor:
#      x y z
#    x 1.667850 0.000000 0.000000 
#    y 0.000000 1.635670 0.000000 
#    z 0.000000 0.000000 1.680230 
# 
# From -- ./inp_files/68676.got.cif
#   From: 2010.06.25/outbox.cif.g09.slc.cpg/sg71_35_cif.got.tgz:68676.got - 2010.06.28 04:59:45.
