data_PCOD8288713
_publ_section_title
;
Structure prediction by ZEFSAII (Michael W. Deem and Ramdas Pophale) SiO2 
 PCOD8288713
Probable space group: I M M M
;
_chemical_formula_sum "Si O2"
_cell_formula_units_Z 96
_cell_length_a 24.239626
_cell_length_b 23.674158
_cell_length_c 9.325626
_cell_angle_alpha 90.000000
_cell_angle_beta 90.000000
_cell_angle_gamma 90.000000
_cell_volume 5351.535993
_symmetry_space_group_name_H-M "I M M M"
_symmetry_group_IT_number 71
_symmetry_cell_setting 'orthorhombic'
loop_
_space_group_symop_operation_xyz
x,y,z
-x,-y,z
x,-y,-z
-x,y,-z
-x,-y,-z
x,y,-z
-x,y,z
x,-y,z
1/2+x,1/2+y,1/2+z
1/2-x,1/2-y,1/2+z
1/2+x,1/2-y,1/2-z
1/2-x,1/2+y,1/2-z
1/2-x,1/2-y,1/2-z
1/2+x,1/2+y,1/2-z
1/2-x,1/2+y,1/2+z
1/2+x,1/2-y,1/2+z
loop_
_atom_site_type_symbol
_atom_site_label
_atom_site_fract_x
_atom_site_fract_y
_atom_site_fract_z
Si Si1 0.438405 0.436346 0.670113
Si Si2 0.850579 0.271464 0.833692
Si Si3 0.938229 0.662843 0.334140
Si Si4 0.338337 0.358623 0.330988
Si Si5 0.771384 0.628749 0.831260
Si Si6 0.859046 0.435914 0.662847
O O1 0.438953 0.435019 0.500000
O O2 0.500000 0.419700 0.726320
O O3 0.423493 0.500000 0.722529
O O4 0.392863 0.391557 0.725926
O O5 0.904514 0.289806 0.748892
O O6 0.840704 0.207073 0.791288
O O7 0.797513 0.309822 0.791585
O O8 0.863855 0.278766 0.000000
O O9 0.936737 0.679395 0.500000
O O10 0.913197 0.601001 0.307078
O O11 0.000000 0.662306 0.273444
O O12 0.329995 0.368190 0.500000
O O13 0.286111 0.382519 0.247053
O O14 0.811624 0.580108 0.774588
O O15 0.762805 0.622083 0.000000
O O16 0.837562 0.426034 0.500000
O O17 0.876767 0.500000 0.688900
#
# Coordination Sequence:
#
# PCOD8288713 Si02
#       6
#    16  16  16  16  16  16
#     4   8  15  29  48  70  95 119 146 188 238 279
#     4   9  19  33  48  69  98 131 164 199 241 288
#     4   9  18  32  50  73 100 129 162 203 250 295
#     4  10  19  31  51  76  96 122 164 203 234 282
#     4  10  20  33  48  69 100 132 159 196 247 294
#     4   9  18  33  52  72  96 129 167 205 244 288
#
# _framework density 17.938776000000001
#
# number of rings (size 3 to 8) (size 9 to 14) (size 15 to 20)
#    0.000    2.833    0.000    1.500    0.000    3.667 
#    0.000    5.000    0.000    0.500    0.000    5.833 
#    0.000    0.000    0.000    0.000    0.000    0.000 
#
# Total GULP energy -595105.555831 kJ/mol
# GULP energy per Si atom -12398.032413 kJ/mol
# Density = 1.789795 g / cm^3
# Si number density = 17.938776 Si / 1000 Ang^3
#
#
#
# Elastic Constant Matrix: (Units=GPa)
#
#
# Indices 1 2 3 4 5 6 
#
# 1 128.0889 20.7472 34.5189 0.0000 0.0000 0.0000
# 2 20.7472 38.3958 15.5731 0.0000 0.0000 0.0000
# 3 34.5189 15.5731 33.6769 0.0000 0.0000 0.0000
# 4 0.0000 0.0000 0.0000 21.2752 0.0000 0.0000
# 5 0.0000 0.0000 0.0000 0.0000 25.1664 0.0000
# 6 0.0000 0.0000 0.0000 0.0000 0.0000 19.2170
#
#
#
# Elastic Compliance Matrix: (Units=1/GPa)
#
#
# Indices 1 2 3 4 5 6 
#
# 1 0.010873 -0.001668 -0.010373 0.000000 0.000000 0.000000
# 2 -0.001668 0.032313 -0.013233 0.000000 0.000000 0.000000
# 3 -0.010373 -0.013233 0.046446 0.000000 0.000000 0.000000
# 4 0.000000 0.000000 0.000000 0.047003 0.000000 0.000000
# 5 0.000000 0.000000 0.000000 0.000000 0.039736 0.000000
# 6 0.000000 0.000000 0.000000 0.000000 0.000000 0.052037
#
#
# Mechanical properties :
#
#
# Convention : Reuss Voigt Hill
#
# Bulk Modulus (GPa) = 25.58623 37.98220 31.78421
# Shear Modulus (GPa) = 17.12428 21.75322 19.43875
#
# Velocity S-wave (km/s) = 3.09301 3.48607 3.29540
# Velocity P-wave (km/s) = 5.20093 6.11742 5.67769
#
# Compressibility (1/GPa) = 0.03908353
#
# Stress axis : x y z
#
# Youngs Moduli (GPa) = 91.97314 30.94749 21.53043
#
# Poissons Ratio (x) = 0.05161 0.22334
# Poissons Ratio (y) = 0.15338 0.28491
# Poissons Ratio (z) = 0.95407 0.40952
#
# Static dielectric constant tensor:
#      x y z
#    x 3.437870 0.000000 0.000000 
#    y 0.000000 3.357860 0.000000 
#    z 0.000000 0.000000 3.115440 
# 
# 
# High freq. dielectric constant tensor:
#      x y z
#    x 1.696850 0.000000 0.000000 
#    y 0.000000 1.692810 0.000000 
#    z 0.000000 0.000000 1.672480 
# 
# From -- ./inp_files/12816.got.cif
#   From: 2010.06.25/outbox.cif.g09.slc.cpg/sg71_7_cif.got.tgz:12816.got - 2010.06.28 04:59:45.
