data_PCOD8288000
_publ_section_title
;
Structure prediction by ZEFSAII (Michael W. Deem and Ramdas Pophale) SiO2 
 PCOD8288000
Probable space group: I M M M
;
_chemical_formula_sum "Si O2"
_cell_formula_units_Z 120
_cell_length_a 22.374849
_cell_length_b 22.064176
_cell_length_c 14.467310
_cell_angle_alpha 90.000000
_cell_angle_beta 90.000000
_cell_angle_gamma 90.000000
_cell_volume 7142.259307
_symmetry_space_group_name_H-M "I M M M"
_symmetry_group_IT_number 71
_symmetry_cell_setting 'orthorhombic'
loop_
_space_group_symop_operation_xyz
x,y,z
-x,-y,z
x,-y,-z
-x,y,-z
-x,-y,-z
x,y,-z
-x,y,z
x,-y,z
1/2+x,1/2+y,1/2+z
1/2-x,1/2-y,1/2+z
1/2+x,1/2-y,1/2-z
1/2-x,1/2+y,1/2-z
1/2-x,1/2-y,1/2-z
1/2+x,1/2+y,1/2-z
1/2-x,1/2+y,1/2+z
1/2+x,1/2-y,1/2+z
loop_
_atom_site_type_symbol
_atom_site_label
_atom_site_fract_x
_atom_site_fract_y
_atom_site_fract_z
Si Si1 0.930615 0.742738 0.266411
Si Si2 0.746069 0.215716 0.894662
Si Si3 0.136640 0.361541 0.353328
Si Si4 0.817954 0.818582 0.281108
Si Si5 0.433365 0.839082 0.602738
Si Si6 0.156671 0.569018 0.170649
Si Si7 0.712113 0.431363 0.105001
Si Si8 0.933987 0.570378 0.500000
O O1 0.914859 0.688123 0.335413
O O2 0.887475 0.799411 0.285799
O O3 0.913324 0.717546 0.165045
O O4 0.000000 0.762225 0.277010
O O5 0.691193 0.169596 0.906250
O O6 0.795396 0.186831 0.825301
O O7 0.723622 0.278616 0.849331
O O8 0.770989 0.226888 0.000000
O O9 0.165018 0.392309 0.263382
O O10 0.104411 0.412869 0.411090
O O11 0.817392 0.887095 0.319279
O O12 0.429810 0.813493 0.500000
O O13 0.500000 0.858625 0.631881
O O14 0.394860 0.899795 0.611033
O O15 0.138424 0.500000 0.192912
O O16 0.216598 0.572347 0.111600
O O17 0.690762 0.500000 0.127393
O O18 0.693764 0.413540 0.000000
O O19 0.943130 0.500000 0.500000
O O20 0.000000 0.601090 0.500000
#
# Coordination Sequence:
#
# PCOD8288000 Si02
#       8
#    16  16  16  16  16  16  16   8
#     4   9  19  34  52  72  98 130 162 202 255 305
#     4  10  19  32  52  78 104 131 168 212 261 304
#     4  10  18  33  49  67  97 133 169 216 252 287
#     4  10  20  34  53  79 103 130 168 212 254 311
#     4   9  18  31  46  68  98 132 169 207 246 289
#     4  10  19  31  47  68  96 133 175 209 248 294
#     4  10  20  34  53  76 104 134 164 205 257 312
#     4  11  22  32  46  68  96 140 186 214 244 290
#
# _framework density 16.801406
#
# number of rings (size 3 to 8) (size 9 to 14) (size 15 to 20)
#    0.000    2.200    2.000    1.600    1.867    2.133 
#    0.000    0.667    0.000    0.400    0.000    0.933 
#    0.000    0.000    0.000    4.533    0.000    0.000 
#
# Total GULP energy -743720.165267 kJ/mol
# GULP energy per Si atom -12395.336088 kJ/mol
# Density = 1.676317 g / cm^3
# Si number density = 16.801406 Si / 1000 Ang^3
#
#
#
# Elastic Constant Matrix: (Units=GPa)
#
#
# Indices 1 2 3 4 5 6 
#
# 1 64.7382 38.9215 25.9074 0.0000 0.0000 0.0000
# 2 38.9215 88.7901 33.7556 0.0000 0.0000 0.0000
# 3 25.9074 33.7556 98.8917 0.0000 0.0000 0.0000
# 4 0.0000 0.0000 0.0000 19.9487 0.0000 0.0000
# 5 0.0000 0.0000 0.0000 0.0000 19.0640 0.0000
# 6 0.0000 0.0000 0.0000 0.0000 0.0000 21.4560
#
#
#
# Elastic Compliance Matrix: (Units=1/GPa)
#
#
# Indices 1 2 3 4 5 6 
#
# 1 0.021625 -0.008418 -0.002792 0.000000 0.000000 0.000000
# 2 -0.008418 0.016219 -0.003331 0.000000 0.000000 0.000000
# 3 -0.002792 -0.003331 0.011980 0.000000 0.000000 0.000000
# 4 0.000000 0.000000 0.000000 0.050129 0.000000 0.000000
# 5 0.000000 0.000000 0.000000 0.000000 0.052455 0.000000
# 6 0.000000 0.000000 0.000000 0.000000 0.000000 0.046607
#
#
# Mechanical properties :
#
#
# Convention : Reuss Voigt Hill
#
# Bulk Modulus (GPa) = 48.20915 49.95434 49.08174
# Shear Modulus (GPa) = 21.27562 22.34945 21.81254
#
# Velocity S-wave (km/s) = 3.56237 3.65117 3.60704
# Velocity P-wave (km/s) = 6.75844 6.89721 6.82817
#
# Compressibility (1/GPa) = 0.02074295
#
# Stress axis : x y z
#
# Youngs Moduli (GPa) = 46.24241 61.65652 83.46963
#
# Poissons Ratio (x) = 0.51903 0.23304
# Poissons Ratio (y) = 0.38927 0.27802
# Poissons Ratio (z) = 0.12910 0.20536
#
# Static dielectric constant tensor:
#      x y z
#    x 3.010370 0.000000 0.000000 
#    y 0.000000 3.042360 0.000000 
#    z 0.000000 0.000000 3.213520 
# 
# 
# High freq. dielectric constant tensor:
#      x y z
#    x 1.630200 0.000000 0.000000 
#    y 0.000000 1.629830 0.000000 
#    z 0.000000 0.000000 1.655100 
# 
# From -- ./inp_files/38420.got.cif
#   From: 2010.06.25/outbox.cif.g09.slc.cpg/sg71_20_cif.got.tgz:38420.got - 2010.06.28 04:59:45.
