data_PCOD8288576
_publ_section_title
;
Structure prediction by ZEFSAII (Michael W. Deem and Ramdas Pophale) SiO2 
 PCOD8288576
Probable space group: I M M M
;
_chemical_formula_sum "Si O2"
_cell_formula_units_Z 72
_cell_length_a 14.788913
_cell_length_b 8.983468
_cell_length_c 27.961563
_cell_angle_alpha 90.000000
_cell_angle_beta 90.000000
_cell_angle_gamma 90.000000
_cell_volume 3714.853772
_symmetry_space_group_name_H-M "I M M M"
_symmetry_group_IT_number 71
_symmetry_cell_setting 'orthorhombic'
loop_
_space_group_symop_operation_xyz
x,y,z
-x,-y,z
x,-y,-z
-x,y,-z
-x,-y,-z
x,y,-z
-x,y,z
x,-y,z
1/2+x,1/2+y,1/2+z
1/2-x,1/2-y,1/2+z
1/2+x,1/2-y,1/2-z
1/2-x,1/2+y,1/2-z
1/2-x,1/2-y,1/2-z
1/2+x,1/2+y,1/2-z
1/2-x,1/2+y,1/2+z
1/2+x,1/2-y,1/2+z
loop_
_atom_site_type_symbol
_atom_site_label
_atom_site_fract_x
_atom_site_fract_y
_atom_site_fract_z
Si Si1 0.395539 0.677805 0.500000
Si Si2 0.099828 0.676858 0.369169
Si Si3 0.843302 0.675975 0.735627
Si Si4 0.098401 0.832942 0.823088
Si Si5 0.783938 0.822926 0.090449
O O1 0.396422 0.500000 0.500000
O O2 0.500000 0.736018 0.500000
O O3 0.338943 0.741704 0.454752
O O4 0.097561 0.500000 0.368399
O O5 0.122932 0.734239 0.315874
O O6 0.178283 0.729520 0.406647
O O7 0.000000 0.737707 0.384507
O O8 0.834634 0.500000 0.735405
O O9 0.750000 0.750000 0.750000
O O10 0.911851 0.729596 0.776515
O O11 0.168905 0.765301 0.861034
O O12 0.000000 0.838188 0.847970
O O13 0.129218 0.000000 0.808207
O O14 0.789919 0.000000 0.088348
#
# Coordination Sequence:
#
# PCOD8288576 Si02
#       5
#     8  16  16  16  16
#     4   9  16  26  43  67  94 126 160 199 250 302
#     4   9  17  29  45  64  91 128 162 194 241 295
#     4  11  20  32  49  70  99 133 170 207 246 294
#     4  10  19  31  48  71 100 133 167 205 248 295
#     4   9  16  28  44  66  95 125 161 204 247 294
#
# _framework density 19.381651000000002
#
# number of rings (size 3 to 8) (size 9 to 14) (size 15 to 20)
#    0.000    2.333    2.222    2.000    0.000    4.000 
#    0.000    0.556    0.000    3.333    0.000    0.778 
#    0.000    2.667    0.000    2.000    0.000    2.222 
#
# Total GULP energy -446020.541755 kJ/mol
# GULP energy per Si atom -12389.459493 kJ/mol
# Density = 1.933754 g / cm^3
# Si number density = 19.381651 Si / 1000 Ang^3
#
#
#
# Elastic Constant Matrix: (Units=GPa)
#
#
# Indices 1 2 3 4 5 6 
#
# 1 183.4708 10.2020 72.5216 0.0000 0.0000 0.0000
# 2 10.2020 24.1491 10.5191 0.0000 0.0000 0.0000
# 3 72.5216 10.5191 110.8520 0.0000 0.0000 0.0000
# 4 0.0000 0.0000 0.0000 15.9298 0.0000 0.0000
# 5 0.0000 0.0000 0.0000 0.0000 34.4072 0.0000
# 6 0.0000 0.0000 0.0000 0.0000 0.0000 13.4150
#
#
#
# Elastic Compliance Matrix: (Units=1/GPa)
#
#
# Indices 1 2 3 4 5 6 
#
# 1 0.007377 -0.001058 -0.004726 0.000000 0.000000 0.000000
# 2 -0.001058 0.043347 -0.003421 0.000000 0.000000 0.000000
# 3 -0.004726 -0.003421 0.012438 0.000000 0.000000 0.000000
# 4 0.000000 0.000000 0.000000 0.062775 0.000000 0.000000
# 5 0.000000 0.000000 0.000000 0.000000 0.029064 0.000000
# 6 0.000000 0.000000 0.000000 0.000000 0.000000 0.074544
#
#
# Mechanical properties :
#
#
# Convention : Reuss Voigt Hill
#
# Bulk Modulus (GPa) = 22.34582 56.10639 39.22611
# Shear Modulus (GPa) = 19.02070 27.76567 23.39319
#
# Velocity S-wave (km/s) = 3.13609 3.78904 3.47792
# Velocity P-wave (km/s) = 4.96667 6.93927 6.03413
#
# Compressibility (1/GPa) = 0.04475110
#
# Stress axis : x y z
#
# Youngs Moduli (GPa) = 135.54954 23.06990 80.40173
#
# Poissons Ratio (x) = 0.02441 0.37998
# Poissons Ratio (y) = 0.14342 0.27506
# Poissons Ratio (z) = 0.64061 0.07892
#
# Static dielectric constant tensor:
#      x y z
#    x 4.078380 0.000000 0.000000 
#    y 0.000000 3.066040 0.000000 
#    z 0.000000 0.000000 3.756500 
# 
# 
# High freq. dielectric constant tensor:
#      x y z
#    x 1.781990 0.000000 0.000000 
#    y 0.000000 1.680640 0.000000 
#    z 0.000000 0.000000 1.737160 
# 
# From -- ./inp_files/6043.got.cif
#   From: 2010.06.25/outbox.cif.g09.slc.cpg/sg71_4_cif.got.tgz:6043.got - 2010.06.28 04:59:45.
