data_PCOD8288197
_publ_section_title
;
Structure prediction by ZEFSAII (Michael W. Deem and Ramdas Pophale) SiO2 
 PCOD8288197
Probable space group: I M M M
;
_chemical_formula_sum "Si O2"
_cell_formula_units_Z 96
_cell_length_a 19.045520
_cell_length_b 18.031211
_cell_length_c 16.775470
_cell_angle_alpha 90.000000
_cell_angle_beta 90.000000
_cell_angle_gamma 90.000000
_cell_volume 5760.927727
_symmetry_space_group_name_H-M "I M M M"
_symmetry_group_IT_number 71
_symmetry_cell_setting 'orthorhombic'
loop_
_space_group_symop_operation_xyz
x,y,z
-x,-y,z
x,-y,-z
-x,y,-z
-x,-y,-z
x,y,-z
-x,y,z
x,-y,z
1/2+x,1/2+y,1/2+z
1/2-x,1/2-y,1/2+z
1/2+x,1/2-y,1/2-z
1/2-x,1/2+y,1/2-z
1/2-x,1/2-y,1/2-z
1/2+x,1/2+y,1/2-z
1/2-x,1/2+y,1/2+z
1/2+x,1/2-y,1/2+z
loop_
_atom_site_type_symbol
_atom_site_label
_atom_site_fract_x
_atom_site_fract_y
_atom_site_fract_z
Si Si1 0.839445 0.082981 0.329397
Si Si2 0.420755 0.371509 0.321222
Si Si3 0.921041 0.800484 0.412423
Si Si4 0.724543 0.165552 0.761003
Si Si5 0.422119 0.785644 0.755479
Si Si6 0.788219 0.913306 0.091627
O O1 0.895132 0.085258 0.257143
O O2 0.868152 0.130896 0.402760
O O3 0.764577 0.113980 0.301334
O O4 0.829041 0.000000 0.360001
O O5 0.500000 0.395693 0.342431
O O6 0.416842 0.283758 0.304052
O O7 0.370107 0.392517 0.394386
O O8 0.909501 0.765440 0.500000
O O9 0.907202 0.738374 0.346497
O O10 0.000000 0.831307 0.402193
O O11 0.750000 0.250000 0.750000
O O12 0.641689 0.157827 0.738542
O O13 0.739507 0.136639 0.850825
O O14 0.500000 0.822391 0.747482
O O15 0.775941 0.000000 0.110884
O O16 0.769307 0.895397 0.000000
#
# Coordination Sequence:
#
# PCOD8288197 Si02
#       6
#    16  16  16  16  16  16
#     4  10  19  29  44  66  93 124 158 196 234 275
#     4   9  16  28  46  67  93 125 159 191 225 280
#     4   9  17  28  42  65  98 129 155 183 223 279
#     4  11  17  32  52  71  88 122 165 198 235 274
#     4   9  17  30  48  70  94 119 155 201 241 276
#     4  10  21  33  46  70 102 132 159 192 238 286
#
# _framework density 16.663983000000002
#
# number of rings (size 3 to 8) (size 9 to 14) (size 15 to 20)
#    0.000    2.333    5.000    3.500    0.000    3.667 
#    0.000    1.667    0.000    2.000    0.000    1.167 
#    0.000    0.000    0.000    1.500    0.000    0.500 
#
# Total GULP energy -594889.164678 kJ/mol
# GULP energy per Si atom -12393.524264 kJ/mol
# Density = 1.662606 g / cm^3
# Si number density = 16.663983 Si / 1000 Ang^3
#
#
#
# Elastic Constant Matrix: (Units=GPa)
#
#
# Indices 1 2 3 4 5 6 
#
# 1 119.3018 30.9378 8.0826 0.0000 0.0000 0.0000
# 2 30.9378 39.8171 12.0969 0.0000 0.0000 0.0000
# 3 8.0826 12.0969 51.2069 0.0000 0.0000 0.0000
# 4 0.0000 0.0000 0.0000 17.8100 0.0000 0.0000
# 5 0.0000 0.0000 0.0000 0.0000 17.3955 0.0000
# 6 0.0000 0.0000 0.0000 0.0000 0.0000 19.2803
#
#
#
# Elastic Compliance Matrix: (Units=1/GPa)
#
#
# Indices 1 2 3 4 5 6 
#
# 1 0.010501 -0.008248 0.000291 0.000000 0.000000 0.000000
# 2 -0.008248 0.033535 -0.006620 0.000000 0.000000 0.000000
# 3 0.000291 -0.006620 0.021047 0.000000 0.000000 0.000000
# 4 0.000000 0.000000 0.000000 0.056148 0.000000 0.000000
# 5 0.000000 0.000000 0.000000 0.000000 0.057486 0.000000
# 6 0.000000 0.000000 0.000000 0.000000 0.000000 0.051866
#
#
# Mechanical properties :
#
#
# Convention : Reuss Voigt Hill
#
# Bulk Modulus (GPa) = 27.83327 34.72894 31.28111
# Shear Modulus (GPa) = 18.40170 21.51104 19.95637
#
# Velocity S-wave (km/s) = 3.32668 3.59677 3.46435
# Velocity P-wave (km/s) = 5.61201 6.17535 5.90040
#
# Compressibility (1/GPa) = 0.03592822
#
# Stress axis : x y z
#
# Youngs Moduli (GPa) = 95.22670 29.81984 47.51345
#
# Poissons Ratio (x) = 0.24595 -0.01382
# Poissons Ratio (y) = 0.78541 0.31455
# Poissons Ratio (z) = -0.02770 0.19742
#
# Static dielectric constant tensor:
#      x y z
#    x 3.403360 0.000000 0.000000 
#    y 0.000000 2.878810 0.000000 
#    z 0.000000 0.000000 3.036450 
# 
# 
# High freq. dielectric constant tensor:
#      x y z
#    x 1.645240 0.000000 0.000000 
#    y 0.000000 1.608760 0.000000 
#    z 0.000000 0.000000 1.622040 
# 
# From -- ./inp_files/46295.got.cif
#   From: 2010.06.25/outbox.cif.g09.slc.cpg/sg71_24_cif.got.tgz:46295.got - 2010.06.28 04:59:45.
