data_PCOD8288583
_publ_section_title
;
Structure prediction by ZEFSAII (Michael W. Deem and Ramdas Pophale) SiO2 
 PCOD8288583
Probable space group: I M M M
;
_chemical_formula_sum "Si O2"
_cell_formula_units_Z 96
_cell_length_a 28.231646
_cell_length_b 14.718187
_cell_length_c 12.725402
_cell_angle_alpha 90.000000
_cell_angle_beta 90.000000
_cell_angle_gamma 90.000000
_cell_volume 5287.641798
_symmetry_space_group_name_H-M "I M M M"
_symmetry_group_IT_number 71
_symmetry_cell_setting 'orthorhombic'
loop_
_space_group_symop_operation_xyz
x,y,z
-x,-y,z
x,-y,-z
-x,y,-z
-x,-y,-z
x,y,-z
-x,y,z
x,-y,z
1/2+x,1/2+y,1/2+z
1/2-x,1/2-y,1/2+z
1/2+x,1/2-y,1/2-z
1/2-x,1/2+y,1/2-z
1/2-x,1/2-y,1/2-z
1/2+x,1/2+y,1/2-z
1/2-x,1/2+y,1/2+z
1/2+x,1/2-y,1/2+z
loop_
_atom_site_type_symbol
_atom_site_label
_atom_site_fract_x
_atom_site_fract_y
_atom_site_fract_z
Si Si1 0.128322 0.607252 0.000000
Si Si2 0.149368 0.725761 0.380920
Si Si3 0.291517 0.601641 0.122121
Si Si4 0.447257 0.697816 0.117478
Si Si5 0.556387 0.735671 0.500000
Si Si6 0.310196 0.105963 0.700427
Si Si7 0.054788 0.901236 0.825244
O O1 0.079993 0.665070 0.000000
O O2 0.158496 0.636243 0.101453
O O3 0.115908 0.500000 0.000000
O O4 0.164294 0.701366 0.500000
O O5 0.166858 0.827642 0.351337
O O6 0.092232 0.723797 0.368286
O O7 0.172349 0.652688 0.306059
O O8 0.307591 0.500000 0.156715
O O9 0.244393 0.632525 0.183255
O O10 0.278242 0.601432 0.000000
O O11 0.500000 0.740449 0.133424
O O12 0.438026 0.619349 0.202146
O O13 0.442474 0.655311 0.000000
O O14 0.500000 0.751638 0.500000
O O15 0.575199 0.679034 0.601457
O O16 0.315725 0.000000 0.718434
O O17 0.000000 0.908519 0.854031
O O18 0.078464 0.000000 0.848642
#
# Coordination Sequence:
#
# PCOD8288583 Si02
#       7
#     8  16  16  16   8  16  16
#     4  10  20  34  53  72  90 125 172 211 251 298
#     4  10  20  32  51  79 104 132 169 205 250 304
#     4   9  17  32  53  77 104 132 164 205 250 297
#     4   9  18  32  48  69 101 138 174 211 247 284
#     4  10  19  31  48  71  99 126 159 210 261 301
#     4  10  19  34  54  74  99 130 167 210 254 301
#     4   9  17  29  46  68  96 132 168 198 238 295
#
# _framework density 18.155542000000001
#
# number of rings (size 3 to 8) (size 9 to 14) (size 15 to 20)
#    0.000    2.500    0.833    1.750    0.000    2.500 
#    0.000    3.333    0.000    1.500    0.000    2.333 
#    0.000    0.000    0.000    0.000    0.000    0.333 
#
# Total GULP energy -594949.745808 kJ/mol
# GULP energy per Si atom -12394.786371 kJ/mol
# Density = 1.811422 g / cm^3
# Si number density = 18.155542 Si / 1000 Ang^3
#
#
#
# Elastic Constant Matrix: (Units=GPa)
#
#
# Indices 1 2 3 4 5 6 
#
# 1 87.1418 34.2017 38.2651 0.0000 0.0000 0.0000
# 2 34.2017 54.0274 36.4048 0.0000 0.0000 0.0000
# 3 38.2651 36.4048 96.5272 0.0000 0.0000 0.0000
# 4 0.0000 0.0000 0.0000 28.5407 0.0000 0.0000
# 5 0.0000 0.0000 0.0000 0.0000 18.7104 0.0000
# 6 0.0000 0.0000 0.0000 0.0000 0.0000 20.8157
#
#
#
# Elastic Compliance Matrix: (Units=1/GPa)
#
#
# Indices 1 2 3 4 5 6 
#
# 1 0.016058 -0.007878 -0.003395 0.000000 0.000000 0.000000
# 2 -0.007878 0.028681 -0.007694 0.000000 0.000000 0.000000
# 3 -0.003395 -0.007694 0.014607 0.000000 0.000000 0.000000
# 4 0.000000 0.000000 0.000000 0.035038 0.000000 0.000000
# 5 0.000000 0.000000 0.000000 0.000000 0.053446 0.000000
# 6 0.000000 0.000000 0.000000 0.000000 0.000000 0.048041
#
#
# Mechanical properties :
#
#
# Convention : Reuss Voigt Hill
#
# Bulk Modulus (GPa) = 46.70069 50.60441 48.65255
# Shear Modulus (GPa) = 20.75196 22.20167 21.47682
#
# Velocity S-wave (km/s) = 3.38451 3.50073 3.44311
# Velocity P-wave (km/s) = 6.40715 6.65383 6.53165
#
# Compressibility (1/GPa) = 0.02141296
#
# Stress axis : x y z
#
# Youngs Moduli (GPa) = 62.27350 34.86677 68.46001
#
# Poissons Ratio (x) = 0.27469 0.23239
# Poissons Ratio (y) = 0.49061 0.52671
# Poissons Ratio (z) = 0.21139 0.26825
#
# Static dielectric constant tensor:
#      x y z
#    x 3.324860 0.000000 0.000000 
#    y 0.000000 3.184840 0.000000 
#    z 0.000000 0.000000 3.414710 
# 
# 
# High freq. dielectric constant tensor:
#      x y z
#    x 1.695370 0.000000 0.000000 
#    y 0.000000 1.678480 0.000000 
#    z 0.000000 0.000000 1.709660 
# 
# From -- ./inp_files/29995.got.cif
#   From: 2010.06.25/outbox.cif.g09.slc.cpg/sg71_15_cif.got.tgz:29995.got - 2010.06.28 04:59:45.
