data_PCOD8288859
_publ_section_title
;
Structure prediction by ZEFSAII (Michael W. Deem and Ramdas Pophale) SiO2 
 PCOD8288859
Probable space group: I M M M
;
_chemical_formula_sum "Si O2"
_cell_formula_units_Z 88
_cell_length_a 19.683051
_cell_length_b 9.532500
_cell_length_c 27.619622
_cell_angle_alpha 90.000000
_cell_angle_beta 90.000000
_cell_angle_gamma 90.000000
_cell_volume 5182.233319
_symmetry_space_group_name_H-M "I M M M"
_symmetry_group_IT_number 71
_symmetry_cell_setting 'orthorhombic'
loop_
_space_group_symop_operation_xyz
x,y,z
-x,-y,z
x,-y,-z
-x,y,-z
-x,-y,-z
x,y,-z
-x,y,z
x,-y,z
1/2+x,1/2+y,1/2+z
1/2-x,1/2-y,1/2+z
1/2+x,1/2-y,1/2-z
1/2-x,1/2+y,1/2-z
1/2-x,1/2-y,1/2-z
1/2+x,1/2+y,1/2-z
1/2-x,1/2+y,1/2+z
1/2+x,1/2-y,1/2+z
loop_
_atom_site_type_symbol
_atom_site_label
_atom_site_fract_x
_atom_site_fract_y
_atom_site_fract_z
Si Si1 0.699946 0.162598 0.313001
Si Si2 0.676829 0.338566 0.056387
Si Si3 0.829498 0.660691 0.292180
Si Si4 0.422704 0.162872 0.878107
Si Si5 0.325862 0.164658 0.417712
Si Si6 0.923714 0.667716 0.000000
O O1 0.770099 0.245647 0.314019
O O2 0.656822 0.198234 0.264536
O O3 0.657472 0.201969 0.361465
O O4 0.720111 0.000000 0.314925
O O5 0.671669 0.500000 0.073227
O O6 0.620444 0.250312 0.083993
O O7 0.751530 0.276336 0.068219
O O8 0.661680 0.323122 0.000000
O O9 0.805636 0.500000 0.296627
O O10 0.897165 0.688666 0.323037
O O11 0.500000 0.214875 0.880400
O O12 0.416313 0.000000 0.892056
O O13 0.384414 0.226887 0.452462
O O14 0.324157 0.000000 0.427217
O O15 0.926407 0.500000 0.000000
O O16 0.000000 0.729302 0.000000
#
# Coordination Sequence:
#
# PCOD8288859 Si02
#       6
#    16  16  16  16  16   8
#     4   9  16  27  47  70  92 119 153 197 238 272
#     4  10  19  32  51  72  94 123 161 204 242 279
#     4   9  17  29  45  68  93 119 156 195 234 280
#     4  10  21  35  48  65  97 134 161 195 244 292
#     4   9  15  26  44  68  96 124 153 190 235 277
#     4   9  16  26  42  68 102 131 150 178 233 297
#
# _framework density 16.981095
#
# number of rings (size 3 to 8) (size 9 to 14) (size 15 to 20)
#    0.000    2.636    2.727    0.000    0.000    1.091 
#    0.000    2.727    0.000    5.455    0.000    0.000 
#    0.000    7.273    0.000    0.000    0.000    0.000 
#
# Total GULP energy -545357.822118 kJ/mol
# GULP energy per Si atom -12394.495957 kJ/mol
# Density = 1.694245 g / cm^3
# Si number density = 16.981095 Si / 1000 Ang^3
#
#
#
# Elastic Constant Matrix: (Units=GPa)
#
#
# Indices 1 2 3 4 5 6 
#
# 1 131.5271 32.7257 74.9502 0.0000 0.0000 0.0000
# 2 32.7257 30.9921 31.3620 0.0000 0.0000 0.0000
# 3 74.9502 31.3620 138.4667 0.0000 0.0000 0.0000
# 4 0.0000 0.0000 0.0000 21.3372 0.0000 0.0000
# 5 0.0000 0.0000 0.0000 0.0000 26.7436 0.0000
# 6 0.0000 0.0000 0.0000 0.0000 0.0000 16.4870
#
#
#
# Elastic Compliance Matrix: (Units=1/GPa)
#
#
# Indices 1 2 3 4 5 6 
#
# 1 0.012411 -0.008183 -0.004865 0.000000 0.000000 0.000000
# 2 -0.008183 0.047255 -0.006274 0.000000 0.000000 0.000000
# 3 -0.004865 -0.006274 0.011276 0.000000 0.000000 0.000000
# 4 0.000000 0.000000 0.000000 0.046867 0.000000 0.000000
# 5 0.000000 0.000000 0.000000 0.000000 0.037392 0.000000
# 6 0.000000 0.000000 0.000000 0.000000 0.000000 0.060654
#
#
# Mechanical properties :
#
#
# Convention : Reuss Voigt Hill
#
# Bulk Modulus (GPa) = 30.95956 64.34019 47.64988
# Shear Modulus (GPa) = 18.84913 23.71008 21.27960
#
# Velocity S-wave (km/s) = 3.33529 3.74071 3.54380
# Velocity P-wave (km/s) = 5.75357 7.52521 6.69822
#
# Compressibility (1/GPa) = 0.03230021
#
# Stress axis : x y z
#
# Youngs Moduli (GPa) = 80.57363 21.16161 88.68294
#
# Poissons Ratio (x) = 0.17316 0.43141
# Poissons Ratio (y) = 0.65930 0.55639
# Poissons Ratio (z) = 0.39196 0.13277
#
# Static dielectric constant tensor:
#      x y z
#    x 3.104000 0.000000 0.000000 
#    y 0.000000 2.928660 0.000000 
#    z 0.000000 0.000000 3.529110 
# 
# 
# High freq. dielectric constant tensor:
#      x y z
#    x 1.630160 0.000000 0.000000 
#    y 0.000000 1.621670 0.000000 
#    z 0.000000 0.000000 1.676740 
# 
# From -- ./inp_files/8798.got.cif
#   From: 2010.06.25/outbox.cif.g09.slc.cpg/sg71_5_cif.got.tgz:8798.got - 2010.06.28 04:59:45.
