data_PCOD8288004
_publ_section_title
;
Structure prediction by ZEFSAII (Michael W. Deem and Ramdas Pophale) SiO2 
 PCOD8288004
Probable space group: I M M M
;
_chemical_formula_sum "Si O2"
_cell_formula_units_Z 104
_cell_length_a 20.326902
_cell_length_b 22.887907
_cell_length_c 13.371389
_cell_angle_alpha 90.000000
_cell_angle_beta 90.000000
_cell_angle_gamma 90.000000
_cell_volume 6220.908262
_symmetry_space_group_name_H-M "I M M M"
_symmetry_group_IT_number 71
_symmetry_cell_setting 'orthorhombic'
loop_
_space_group_symop_operation_xyz
x,y,z
-x,-y,z
x,-y,-z
-x,y,-z
-x,-y,-z
x,y,-z
-x,y,z
x,-y,z
1/2+x,1/2+y,1/2+z
1/2-x,1/2-y,1/2+z
1/2+x,1/2-y,1/2-z
1/2-x,1/2+y,1/2-z
1/2-x,1/2-y,1/2-z
1/2+x,1/2+y,1/2-z
1/2-x,1/2+y,1/2+z
1/2+x,1/2-y,1/2+z
loop_
_atom_site_type_symbol
_atom_site_label
_atom_site_fract_x
_atom_site_fract_y
_atom_site_fract_z
Si Si1 0.208800 0.840684 0.298831
Si Si2 0.072166 0.169476 0.614336
Si Si3 0.253530 0.220147 0.889452
Si Si4 0.426732 0.098585 0.256455
Si Si5 0.307201 0.931026 0.617025
Si Si6 0.597155 0.803837 0.110013
Si Si7 0.077949 0.500000 0.610053
O O1 0.133017 0.856678 0.323406
O O2 0.208272 0.817569 0.184807
O O3 0.240913 0.788991 0.364850
O O4 0.250894 0.899042 0.318095
O O5 0.083120 0.150469 0.500000
O O6 0.071876 0.238817 0.624166
O O7 0.000000 0.146782 0.651632
O O8 0.324830 0.191619 0.884174
O O9 0.222763 0.214725 0.000000
O O10 0.500000 0.080365 0.293297
O O11 0.378135 0.095318 0.350953
O O12 0.432164 0.161279 0.203489
O O13 0.398002 0.056300 0.170707
O O14 0.297178 0.918038 0.500000
O O15 0.303823 0.000000 0.639388
O O16 0.573743 0.827062 0.000000
O O17 0.110730 0.500000 0.500000
O O18 0.000000 0.500000 0.599886
#
# Coordination Sequence:
#
# PCOD8288004 Si02
#       7
#    16  16  16  16  16  16   8
#     4  10  18  33  53  72  99 130 162 201 247 298
#     4   9  17  29  48  76 102 124 155 193 241 302
#     4   9  17  29  51  78 100 126 159 198 244 294
#     4  11  20  31  45  65  93 127 169 207 241 282
#     4  11  23  37  51  66  90 130 177 215 244 283
#     4   9  16  28  46  71 101 129 155 190 240 295
#     4   9  18  30  43  61  87 121 159 202 250 286
#
# _framework density 16.717815000000002
#
# number of rings (size 3 to 8) (size 9 to 14) (size 15 to 20)
#    0.000    2.231    2.308    3.231    0.000    1.846 
#    0.000    0.769    0.000    0.923    0.000    2.154 
#    0.000    0.000    0.000    1.385    0.000    0.154 
#
# Total GULP energy -644502.287722 kJ/mol
# GULP energy per Si atom -12394.274764 kJ/mol
# Density = 1.667976 g / cm^3
# Si number density = 16.717815 Si / 1000 Ang^3
#
#
#
# Elastic Constant Matrix: (Units=GPa)
#
#
# Indices 1 2 3 4 5 6 
#
# 1 107.2280 23.3079 36.3437 0.0000 0.0000 0.0000
# 2 23.3079 45.0136 19.6072 0.0000 0.0000 0.0000
# 3 36.3437 19.6072 84.7908 0.0000 0.0000 0.0000
# 4 0.0000 0.0000 0.0000 18.7834 0.0000 0.0000
# 5 0.0000 0.0000 0.0000 0.0000 18.7248 0.0000
# 6 0.0000 0.0000 0.0000 0.0000 0.0000 13.8963
#
#
#
# Elastic Compliance Matrix: (Units=1/GPa)
#
#
# Indices 1 2 3 4 5 6 
#
# 1 0.011606 -0.004273 -0.003987 0.000000 0.000000 0.000000
# 2 -0.004273 0.026277 -0.004245 0.000000 0.000000 0.000000
# 3 -0.003987 -0.004245 0.014484 0.000000 0.000000 0.000000
# 4 0.000000 0.000000 0.000000 0.053239 0.000000 0.000000
# 5 0.000000 0.000000 0.000000 0.000000 0.053405 0.000000
# 6 0.000000 0.000000 0.000000 0.000000 0.000000 0.071961
#
#
# Mechanical properties :
#
#
# Convention : Reuss Voigt Hill
#
# Bulk Modulus (GPa) = 36.55202 43.95002 40.25102
# Shear Modulus (GPa) = 18.86078 20.79913 19.82996
#
# Velocity S-wave (km/s) = 3.36249 3.53105 3.44780
# Velocity P-wave (km/s) = 6.08167 6.55521 6.32288
#
# Compressibility (1/GPa) = 0.02735827
#
# Stress axis : x y z
#
# Youngs Moduli (GPa) = 86.16288 38.05598 69.04146
#
# Poissons Ratio (x) = 0.16262 0.27523
# Poissons Ratio (y) = 0.36818 0.29307
# Poissons Ratio (z) = 0.34349 0.16154
#
# Static dielectric constant tensor:
#      x y z
#    x 3.141080 0.000000 0.000000 
#    y 0.000000 2.916730 0.000000 
#    z 0.000000 0.000000 3.208670 
# 
# 
# High freq. dielectric constant tensor:
#      x y z
#    x 1.632090 0.000000 0.000000 
#    y 0.000000 1.618730 0.000000 
#    z 0.000000 0.000000 1.634750 
# 
# From -- ./inp_files/27686.got.cif
#   From: 2010.06.25/outbox.cif.g09.slc.cpg/sg71_14_cif.got.tgz:27686.got - 2010.06.28 04:59:45.
