data_PCOD8288632
_publ_section_title
;
Structure prediction by ZEFSAII (Michael W. Deem and Ramdas Pophale) SiO2 
 PCOD8288632
Probable space group: I M M M
;
_chemical_formula_sum "Si O2"
_cell_formula_units_Z 72
_cell_length_a 32.098243
_cell_length_b 12.325134
_cell_length_c 8.906356
_cell_angle_alpha 90.000000
_cell_angle_beta 90.000000
_cell_angle_gamma 90.000000
_cell_volume 3523.489331
_symmetry_space_group_name_H-M "I M M M"
_symmetry_group_IT_number 71
_symmetry_cell_setting 'orthorhombic'
loop_
_space_group_symop_operation_xyz
x,y,z
-x,-y,z
x,-y,-z
-x,y,-z
-x,-y,-z
x,y,-z
-x,y,z
x,-y,z
1/2+x,1/2+y,1/2+z
1/2-x,1/2-y,1/2+z
1/2+x,1/2-y,1/2-z
1/2-x,1/2+y,1/2-z
1/2-x,1/2-y,1/2-z
1/2+x,1/2+y,1/2-z
1/2-x,1/2+y,1/2+z
1/2+x,1/2-y,1/2+z
loop_
_atom_site_type_symbol
_atom_site_label
_atom_site_fract_x
_atom_site_fract_y
_atom_site_fract_z
Si Si1 0.452556 0.000000 0.676916
Si Si2 0.187744 0.376741 0.835698
Si Si3 0.768786 0.870524 0.172339
Si Si4 0.646705 0.621566 0.826235
Si Si5 0.395064 0.168489 0.172361
O O1 0.431192 0.110543 0.733912
O O2 0.500000 0.000000 0.732772
O O3 0.448972 0.000000 0.500000
O O4 0.200525 0.500000 0.857952
O O5 0.229970 0.320096 0.769854
O O6 0.149827 0.375274 0.719704
O O7 0.176346 0.326748 0.000000
O O8 0.814480 0.829936 0.230469
O O9 0.769077 0.000000 0.190290
O O10 0.762569 0.836666 0.000000
O O11 0.634256 0.500000 0.774751
O O12 0.606646 0.700549 0.801237
O O13 0.660366 0.622615 0.000000
O O14 0.402935 0.138669 0.000000
#
# Coordination Sequence:
#
# PCOD8288632 Si02
#       5
#     8  16  16  16  16
#     4  11  25  45  67  91 119 147 177 223 289 359
#     4  10  19  31  49  74 110 153 194 239 291 342
#     4   9  17  29  47  73 107 150 200 248 285 324
#     4   9  19  36  55  79 114 154 195 235 280 332
#     4  11  22  36  60  88 113 145 186 235 285 339
#
# _framework density 20.434290000000001
#
# number of rings (size 3 to 8) (size 9 to 14) (size 15 to 20)
#    0.000    2.111    1.111    2.333    0.000    7.111 
#    0.000    0.000    0.000    0.667    0.000    4.667 
#    0.000    0.000    0.000    0.000    0.000    0.000 
#
# Total GULP energy -446357.208395 kJ/mol
# GULP energy per Si atom -12398.811344 kJ/mol
# Density = 2.038778 g / cm^3
# Si number density = 20.434290 Si / 1000 Ang^3
#
#
#
# Elastic Constant Matrix: (Units=GPa)
#
#
# Indices 1 2 3 4 5 6 
#
# 1 125.6280 57.7396 44.8625 0.0000 0.0000 0.0000
# 2 57.7396 99.8423 22.6890 0.0000 0.0000 0.0000
# 3 44.8625 22.6890 83.8949 0.0000 0.0000 0.0000
# 4 0.0000 0.0000 0.0000 22.6174 0.0000 0.0000
# 5 0.0000 0.0000 0.0000 0.0000 27.7494 0.0000
# 6 0.0000 0.0000 0.0000 0.0000 0.0000 24.4624
#
#
#
# Elastic Compliance Matrix: (Units=1/GPa)
#
#
# Indices 1 2 3 4 5 6 
#
# 1 0.012588 -0.006127 -0.005074 0.000000 0.000000 0.000000
# 2 -0.006127 0.013653 -0.000416 0.000000 0.000000 0.000000
# 3 -0.005074 -0.000416 0.014746 0.000000 0.000000 0.000000
# 4 0.000000 0.000000 0.000000 0.044214 0.000000 0.000000
# 5 0.000000 0.000000 0.000000 0.000000 0.036037 0.000000
# 6 0.000000 0.000000 0.000000 0.000000 0.000000 0.040879
#
#
# Mechanical properties :
#
#
# Convention : Reuss Voigt Hill
#
# Bulk Modulus (GPa) = 56.33016 62.21636 59.27326
# Shear Modulus (GPa) = 26.14118 27.23744 26.68931
#
# Velocity S-wave (km/s) = 3.58058 3.65489 3.61793
# Velocity P-wave (km/s) = 6.68733 6.95155 6.82072
#
# Compressibility (1/GPa) = 0.01775248
#
# Stress axis : x y z
#
# Youngs Moduli (GPa) = 79.44116 73.24167 67.81578
#
# Poissons Ratio (x) = 0.44872 0.34413
# Poissons Ratio (y) = 0.48670 0.02824
# Poissons Ratio (z) = 0.40312 0.03050
#
# Static dielectric constant tensor:
#      x y z
#    x 3.324920 0.000000 0.000000 
#    y 0.000000 4.319390 0.000000 
#    z 0.000000 0.000000 3.864220 
# 
# 
# High freq. dielectric constant tensor:
#      x y z
#    x 1.742000 0.000000 0.000000 
#    y 0.000000 1.844780 0.000000 
#    z 0.000000 0.000000 1.808940 
# 
# From -- ./inp_files/14320.got.cif
#   From: 2010.06.25/outbox.cif.g09.slc.cpg/sg71_8_cif.got.tgz:14320.got - 2010.06.28 04:59:45.
