data_PCOD8288234
_publ_section_title
;
Structure prediction by ZEFSAII (Michael W. Deem and Ramdas Pophale) SiO2 
 PCOD8288234
Probable space group: I M M M
;
_chemical_formula_sum "Si O2"
_cell_formula_units_Z 84
_cell_length_a 29.766247
_cell_length_b 13.611229
_cell_length_c 12.201685
_cell_angle_alpha 90.000000
_cell_angle_beta 90.000000
_cell_angle_gamma 90.000000
_cell_volume 4943.576180
_symmetry_space_group_name_H-M "I M M M"
_symmetry_group_IT_number 71
_symmetry_cell_setting 'orthorhombic'
loop_
_space_group_symop_operation_xyz
x,y,z
-x,-y,z
x,-y,-z
-x,y,-z
-x,-y,-z
x,y,-z
-x,y,z
x,-y,z
1/2+x,1/2+y,1/2+z
1/2-x,1/2-y,1/2+z
1/2+x,1/2-y,1/2-z
1/2-x,1/2+y,1/2-z
1/2-x,1/2-y,1/2-z
1/2+x,1/2+y,1/2-z
1/2-x,1/2+y,1/2+z
1/2+x,1/2-y,1/2+z
loop_
_atom_site_type_symbol
_atom_site_label
_atom_site_fract_x
_atom_site_fract_y
_atom_site_fract_z
Si Si1 0.923643 0.884456 0.379053
Si Si2 0.500000 0.750488 0.500000
Si Si3 0.255248 0.391716 0.126932
Si Si4 0.656265 0.114418 0.308824
Si Si5 0.163846 0.235365 0.373725
Si Si6 0.588281 0.115969 0.500000
Si Si7 0.000000 0.882757 0.214116
O O1 0.940673 0.850202 0.500000
O O2 0.874352 0.844880 0.355927
O O3 0.957185 0.848589 0.284873
O O4 0.920286 0.000000 0.375902
O O5 0.456763 0.820481 0.500000
O O6 0.500000 0.678477 0.603301
O O7 0.261646 0.500000 0.181754
O O8 0.204352 0.355387 0.141186
O O9 0.290292 0.312338 0.175341
O O10 0.266794 0.401426 0.000000
O O11 0.649910 0.168774 0.193856
O O12 0.617331 0.144667 0.393415
O O13 0.653708 0.000000 0.283683
O O14 0.169133 0.267751 0.500000
O O15 0.576557 0.000000 0.500000
O O16 0.000000 0.000000 0.190001
#
# Coordination Sequence:
#
# PCOD8288234 Si02
#       7
#    16   4  16  16  16   8   8
#     4   9  17  31  50  72  97 126 160 195 229 274
#     4  12  22  34  52  74 100 124 154 206 250 286
#     4   9  16  29  49  71  94 123 159 198 236 276
#     4  10  19  33  50  67  92 126 162 198 238 285
#     4  10  19  29  46  74 101 123 153 195 241 285
#     4  10  21  37  55  72  89 121 170 212 243 273
#     4  10  20  33  50  73 102 133 159 185 235 298
#
# _framework density 16.991748000000001
#
# number of rings (size 3 to 8) (size 9 to 14) (size 15 to 20)
#    0.000    2.286    0.952    2.857    0.000    3.810 
#    0.000    0.000    0.000    0.000    0.000    0.000 
#    0.000   13.714    0.000    0.000    0.000    0.000 
#
# Total GULP energy -520637.930161 kJ/mol
# GULP energy per Si atom -12396.141194 kJ/mol
# Density = 1.695307 g / cm^3
# Si number density = 16.991748 Si / 1000 Ang^3
#
#
#
# Elastic Constant Matrix: (Units=GPa)
#
#
# Indices 1 2 3 4 5 6 
#
# 1 123.9466 43.3611 56.4077 0.0000 0.0000 0.0000
# 2 43.3611 42.3150 46.0920 0.0000 0.0000 0.0000
# 3 56.4077 46.0920 96.0502 0.0000 0.0000 0.0000
# 4 0.0000 0.0000 0.0000 29.2093 0.0000 0.0000
# 5 0.0000 0.0000 0.0000 0.0000 14.6597 0.0000
# 6 0.0000 0.0000 0.0000 0.0000 0.0000 20.7847
#
#
#
# Elastic Compliance Matrix: (Units=1/GPa)
#
#
# Indices 1 2 3 4 5 6 
#
# 1 0.012874 -0.010385 -0.002577 0.000000 0.000000 0.000000
# 2 -0.010385 0.057891 -0.021681 0.000000 0.000000 0.000000
# 3 -0.002577 -0.021681 0.022329 0.000000 0.000000 0.000000
# 4 0.000000 0.000000 0.000000 0.034236 0.000000 0.000000
# 5 0.000000 0.000000 0.000000 0.000000 0.068214 0.000000
# 6 0.000000 0.000000 0.000000 0.000000 0.000000 0.048112
#
#
# Mechanical properties :
#
#
# Convention : Reuss Voigt Hill
#
# Bulk Modulus (GPa) = 42.00505 61.55925 51.78215
# Shear Modulus (GPa) = 15.58226 20.69416 18.13821
#
# Velocity S-wave (km/s) = 3.03157 3.49362 3.27076
# Velocity P-wave (km/s) = 6.08509 7.25130 6.69365
#
# Compressibility (1/GPa) = 0.02380666
#
# Stress axis : x y z
#
# Youngs Moduli (GPa) = 77.67686 17.27392 44.78518
#
# Poissons Ratio (x) = 0.17939 0.11540
# Poissons Ratio (y) = 0.80669 0.97100
# Poissons Ratio (z) = 0.20016 0.37452
#
# Static dielectric constant tensor:
#      x y z
#    x 3.357620 0.000000 0.000000 
#    y 0.000000 3.065450 0.000000 
#    z 0.000000 0.000000 3.135020 
# 
# 
# High freq. dielectric constant tensor:
#      x y z
#    x 1.666080 0.000000 0.000000 
#    y 0.000000 1.643470 0.000000 
#    z 0.000000 0.000000 1.644350 
# 
# From -- ./inp_files/29786.got.cif
#   From: 2010.06.25/outbox.cif.g09.slc.cpg/sg71_15_cif.got.tgz:29786.got - 2010.06.28 04:59:45.
