data_PCOD8288777
_publ_section_title
;
Structure prediction by ZEFSAII (Michael W. Deem and Ramdas Pophale) SiO2 
 PCOD8288777
Probable space group: I M M M
;
_chemical_formula_sum "Si O2"
_cell_formula_units_Z 88
_cell_length_a 18.690084
_cell_length_b 10.332572
_cell_length_c 25.577155
_cell_angle_alpha 90.000000
_cell_angle_beta 90.000000
_cell_angle_gamma 90.000000
_cell_volume 4939.374199
_symmetry_space_group_name_H-M "I M M M"
_symmetry_group_IT_number 71
_symmetry_cell_setting 'orthorhombic'
loop_
_space_group_symop_operation_xyz
x,y,z
-x,-y,z
x,-y,-z
-x,y,-z
-x,-y,-z
x,y,-z
-x,y,z
x,-y,z
1/2+x,1/2+y,1/2+z
1/2-x,1/2-y,1/2+z
1/2+x,1/2-y,1/2-z
1/2-x,1/2+y,1/2-z
1/2-x,1/2-y,1/2-z
1/2+x,1/2+y,1/2-z
1/2-x,1/2+y,1/2+z
1/2+x,1/2-y,1/2+z
loop_
_atom_site_type_symbol
_atom_site_label
_atom_site_fract_x
_atom_site_fract_y
_atom_site_fract_z
Si Si1 0.162469 0.244803 0.939938
Si Si2 0.583731 0.148333 0.152931
Si Si3 0.914780 0.853866 0.262598
Si Si4 0.422947 0.646250 0.650109
Si Si5 0.184573 0.352019 0.441719
Si Si6 0.919458 0.500000 0.938483
O O1 0.129517 0.143831 0.899352
O O2 0.247912 0.243546 0.933441
O O3 0.127674 0.378646 0.920431
O O4 0.141219 0.211322 0.000000
O O5 0.500000 0.168401 0.143000
O O6 0.614358 0.248879 0.195706
O O7 0.622558 0.182584 0.098660
O O8 0.599835 0.000000 0.170355
O O9 0.890243 0.799880 0.205031
O O10 0.000000 0.854198 0.264332
O O11 0.885799 0.000000 0.275196
O O12 0.500000 0.712825 0.636059
O O13 0.438902 0.500000 0.665233
O O14 0.153265 0.331351 0.500000
O O15 0.211433 0.500000 0.434903
O O16 0.000000 0.500000 0.913901
O O17 0.927194 0.500000 0.000000
#
# Coordination Sequence:
#
# PCOD8288777 Si02
#       6
#    16  16  16  16  16   8
#     4  10  19  32  48  67  96 131 164 200 243 294
#     4   9  17  31  52  76 100 127 165 210 251 299
#     4   8  15  30  49  69  97 130 161 199 250 299
#     4   9  17  29  47  71  96 123 159 201 243 290
#     4   9  18  32  50  73 100 130 161 200 254 302
#     4   9  18  32  48  66  93 131 169 201 237 283
#
# _framework density 17.816023000000001
#
# number of rings (size 3 to 8) (size 9 to 14) (size 15 to 20)
#    0.000    3.000    0.000    2.182    0.000    2.545 
#    3.273    3.636    0.000    0.000    0.000    2.545 
#    0.000    0.000    0.000    0.000    0.000    0.000 
#
# Total GULP energy -545075.065480 kJ/mol
# GULP energy per Si atom -12388.069670 kJ/mol
# Density = 1.777547 g / cm^3
# Si number density = 17.816023 Si / 1000 Ang^3
#
#
#
# Elastic Constant Matrix: (Units=GPa)
#
#
# Indices 1 2 3 4 5 6 
#
# 1 58.6316 29.8465 51.4605 0.0000 0.0000 0.0000
# 2 29.8465 67.5817 47.9038 0.0000 0.0000 0.0000
# 3 51.4605 47.9038 140.8745 0.0000 0.0000 0.0000
# 4 0.0000 0.0000 0.0000 26.5604 0.0000 0.0000
# 5 0.0000 0.0000 0.0000 0.0000 18.4206 0.0000
# 6 0.0000 0.0000 0.0000 0.0000 0.0000 21.9028
#
#
#
# Elastic Compliance Matrix: (Units=1/GPa)
#
#
# Indices 1 2 3 4 5 6 
#
# 1 0.027129 -0.006531 -0.007689 0.000000 0.000000 0.000000
# 2 -0.006531 0.021068 -0.004779 0.000000 0.000000 0.000000
# 3 -0.007689 -0.004779 0.011532 0.000000 0.000000 0.000000
# 4 0.000000 0.000000 0.000000 0.037650 0.000000 0.000000
# 5 0.000000 0.000000 0.000000 0.000000 0.054287 0.000000
# 6 0.000000 0.000000 0.000000 0.000000 0.000000 0.045656
#
#
# Mechanical properties :
#
#
# Convention : Reuss Voigt Hill
#
# Bulk Modulus (GPa) = 46.01424 58.38994 52.20209
# Shear Modulus (GPa) = 20.61311 22.56856 21.59083
#
# Velocity S-wave (km/s) = 3.40516 3.56301 3.48498
# Velocity P-wave (km/s) = 6.42990 7.05491 6.74964
#
# Compressibility (1/GPa) = 0.02173240
#
# Stress axis : x y z
#
# Youngs Moduli (GPa) = 36.86098 47.46474 86.71302
#
# Poissons Ratio (x) = 0.30998 0.66676
# Poissons Ratio (y) = 0.24073 0.41436
# Poissons Ratio (z) = 0.28343 0.22681
#
# Static dielectric constant tensor:
#      x y z
#    x 2.998810 0.000000 0.000000 
#    y 0.000000 3.358030 0.000000 
#    z 0.000000 0.000000 3.371300 
# 
# 
# High freq. dielectric constant tensor:
#      x y z
#    x 1.660820 0.000000 0.000000 
#    y 0.000000 1.674310 0.000000 
#    z 0.000000 0.000000 1.692420 
# 
# From -- ./inp_files/25678.got.cif
#   From: 2010.06.25/outbox.cif.g09.slc.cpg/sg71_13_cif.got.tgz:25678.got - 2010.06.28 04:59:45.
