data_PCOD8288377
_publ_section_title
;
Structure prediction by ZEFSAII (Michael W. Deem and Ramdas Pophale) SiO2 
 PCOD8288377
Probable space group: I M M M
;
_chemical_formula_sum "Si O2"
_cell_formula_units_Z 120
_cell_length_a 22.800985
_cell_length_b 17.791213
_cell_length_c 17.173622
_cell_angle_alpha 90.000000
_cell_angle_beta 90.000000
_cell_angle_gamma 90.000000
_cell_volume 6966.603084
_symmetry_space_group_name_H-M "I M M M"
_symmetry_group_IT_number 71
_symmetry_cell_setting 'orthorhombic'
loop_
_space_group_symop_operation_xyz
x,y,z
-x,-y,z
x,-y,-z
-x,y,-z
-x,-y,-z
x,y,-z
-x,y,z
x,-y,z
1/2+x,1/2+y,1/2+z
1/2-x,1/2-y,1/2+z
1/2+x,1/2-y,1/2-z
1/2-x,1/2+y,1/2-z
1/2-x,1/2-y,1/2-z
1/2+x,1/2+y,1/2-z
1/2-x,1/2+y,1/2+z
1/2+x,1/2-y,1/2+z
loop_
_atom_site_type_symbol
_atom_site_label
_atom_site_fract_x
_atom_site_fract_y
_atom_site_fract_z
Si Si1 0.615691 0.865874 0.823147
Si Si2 0.432799 0.916251 0.664923
Si Si3 0.273965 0.086008 0.915035
Si Si4 0.669036 0.583712 0.309414
Si Si5 0.681464 0.738273 0.259286
Si Si6 0.934580 0.122940 0.088173
Si Si7 0.000000 0.411105 0.592749
Si Si8 0.879368 0.720795 0.087028
O O1 0.605855 0.909351 0.742648
O O2 0.664000 0.908663 0.873024
O O3 0.640926 0.782711 0.803047
O O4 0.556218 0.866645 0.873546
O O5 0.500000 0.900389 0.688081
O O6 0.412465 0.858050 0.599342
O O7 0.424707 0.000000 0.630760
O O8 0.221031 0.118036 0.863356
O O9 0.258700 0.000000 0.928204
O O10 0.275781 0.126391 0.000000
O O11 0.683033 0.500000 0.274800
O O12 0.664177 0.649911 0.245085
O O13 0.609562 0.576613 0.358096
O O14 0.750000 0.750000 0.250000
O O15 0.669572 0.766307 0.347431
O O16 0.926501 0.212522 0.095214
O O17 0.000000 0.103207 0.115962
O O18 0.924168 0.096039 0.000000
O O19 0.000000 0.500000 0.617233
O O20 0.000000 0.403873 0.500000
O O21 0.851436 0.720393 0.000000
#
# Coordination Sequence:
#
# PCOD8288377 Si02
#       8
#    16  16  16  16  16  16   8  16
#     4  11  20  34  54  73 110 148 185 221 271 330
#     4  10  19  30  47  70 100 140 181 220 262 309
#     4  10  19  30  48  76 108 142 177 214 263 325
#     4  10  20  34  51  72 102 134 173 222 264 313
#     4  10  20  38  54  76 103 139 186 223 268 329
#     4   9  17  30  48  69  97 131 163 200 254 316
#     4  11  22  36  56  88 126 154 184 229 282 346
#     4   9  19  33  50  71  98 134 176 219 262 307
#
# _framework density 17.225037
#
# number of rings (size 3 to 8) (size 9 to 14) (size 15 to 20)
#    0.000    2.067    2.000    2.400    0.000    3.733 
#    1.200    1.333    0.000    0.000    0.000    0.000 
#    0.000    3.733    0.000    0.000    0.000    0.000 
#
# Total GULP energy -743611.870768 kJ/mol
# GULP energy per Si atom -12393.531179 kJ/mol
# Density = 1.718583 g / cm^3
# Si number density = 17.225037 Si / 1000 Ang^3
#
#
#
# Elastic Constant Matrix: (Units=GPa)
#
#
# Indices 1 2 3 4 5 6 
#
# 1 110.4779 26.4209 20.8883 0.0000 0.0000 0.0000
# 2 26.4209 106.9755 22.1699 0.0000 0.0000 0.0000
# 3 20.8883 22.1699 53.3346 0.0000 0.0000 0.0000
# 4 0.0000 0.0000 0.0000 18.0448 0.0000 0.0000
# 5 0.0000 0.0000 0.0000 0.0000 24.7439 0.0000
# 6 0.0000 0.0000 0.0000 0.0000 0.0000 21.7649
#
#
#
# Elastic Compliance Matrix: (Units=1/GPa)
#
#
# Indices 1 2 3 4 5 6 
#
# 1 0.010093 -0.001831 -0.003192 0.000000 0.000000 0.000000
# 2 -0.001831 0.010561 -0.003673 0.000000 0.000000 0.000000
# 3 -0.003192 -0.003673 0.021526 0.000000 0.000000 0.000000
# 4 0.000000 0.000000 0.000000 0.055417 0.000000 0.000000
# 5 0.000000 0.000000 0.000000 0.000000 0.040414 0.000000
# 6 0.000000 0.000000 0.000000 0.000000 0.000000 0.045946
#
#
# Mechanical properties :
#
#
# Convention : Reuss Voigt Hill
#
# Bulk Modulus (GPa) = 40.34054 45.52735 42.93395
# Shear Modulus (GPa) = 23.85354 26.33132 25.09243
#
# Velocity S-wave (km/s) = 3.72535 3.91406 3.82087
# Velocity P-wave (km/s) = 6.47880 6.84943 6.66669
#
# Compressibility (1/GPa) = 0.02478896
#
# Stress axis : x y z
#
# Youngs Moduli (GPa) = 99.07854 94.68421 46.45484
#
# Poissons Ratio (x) = 0.17340 0.14827
# Poissons Ratio (y) = 0.18145 0.17062
# Poissons Ratio (z) = 0.31622 0.34777
#
# Static dielectric constant tensor:
#      x y z
#    x 3.240160 0.000000 0.000000 
#    y 0.000000 3.291700 0.000000 
#    z 0.000000 0.000000 3.252380 
# 
# 
# High freq. dielectric constant tensor:
#      x y z
#    x 1.670300 0.000000 0.000000 
#    y 0.000000 1.663100 0.000000 
#    z 0.000000 0.000000 1.638650 
# 
# From -- ./inp_files/47569.got.cif
#   From: 2010.06.25/outbox.cif.g09.slc.cpg/sg71_24_cif.got.tgz:47569.got - 2010.06.28 04:59:45.
