data_PCOD8288984
_publ_section_title
;
Structure prediction by ZEFSAII (Michael W. Deem and Ramdas Pophale) SiO2 
 PCOD8288984
Probable space group: I M M M
;
_chemical_formula_sum "Si O2"
_cell_formula_units_Z 56
_cell_length_a 7.829936
_cell_length_b 25.690806
_cell_length_c 13.974872
_cell_angle_alpha 90.000000
_cell_angle_beta 90.000000
_cell_angle_gamma 90.000000
_cell_volume 2811.148452
_symmetry_space_group_name_H-M "I M M M"
_symmetry_group_IT_number 71
_symmetry_cell_setting 'orthorhombic'
loop_
_space_group_symop_operation_xyz
x,y,z
-x,-y,z
x,-y,-z
-x,y,-z
-x,-y,-z
x,y,-z
-x,y,z
x,-y,z
1/2+x,1/2+y,1/2+z
1/2-x,1/2-y,1/2+z
1/2+x,1/2-y,1/2-z
1/2-x,1/2+y,1/2-z
1/2-x,1/2-y,1/2-z
1/2+x,1/2+y,1/2-z
1/2-x,1/2+y,1/2+z
1/2+x,1/2-y,1/2+z
loop_
_atom_site_type_symbol
_atom_site_label
_atom_site_fract_x
_atom_site_fract_y
_atom_site_fract_z
Si Si1 0.810598 0.118552 0.791741
Si Si2 0.197684 0.280273 0.611246
Si Si3 0.500000 0.938478 0.109688
Si Si4 0.200845 0.333738 0.892731
O O1 0.805638 0.176319 0.834861
O O2 0.670776 0.081595 0.839563
O O3 0.779925 0.122956 0.677480
O O4 0.000000 0.095135 0.809466
O O5 0.241267 0.284453 0.500000
O O6 0.251395 0.223261 0.647757
O O7 0.000000 0.290982 0.632946
O O8 0.500000 0.000000 0.115566
O O9 0.500000 0.918663 0.000000
O O10 0.000000 0.340513 0.893240
O O11 0.275833 0.341657 0.000000
#
# Coordination Sequence:
#
# PCOD8288984 Si02
#       4
#    16  16   8  16
#     4  12  23  38  63  90 122 161 203 249 305 366
#     4  10  19  32  52  84 127 167 205 247 292 352
#     4  11  26  48  69  91 119 151 200 262 314 363
#     4  10  20  35  56  87 128 169 206 245 290 352
#
# _framework density 19.920684999999999
#
# number of rings (size 3 to 8) (size 9 to 14) (size 15 to 20)
#    0.000    1.286    2.857    3.429    0.000    5.714 
#    0.000    1.429    0.000    1.714    0.000    2.000 
#    0.000    0.000    0.000    0.000    0.000    0.000 
#
# Total GULP energy -347266.916381 kJ/mol
# GULP energy per Si atom -12402.389871 kJ/mol
# Density = 1.987534 g / cm^3
# Si number density = 19.920685 Si / 1000 Ang^3
#
#
#
# Elastic Constant Matrix: (Units=GPa)
#
#
# Indices 1 2 3 4 5 6 
#
# 1 132.1881 29.9850 48.1998 0.0000 0.0000 0.0000
# 2 29.9850 58.7619 46.8954 0.0000 0.0000 0.0000
# 3 48.1998 46.8954 84.6727 -0.0003 0.0001 0.0000
# 4 0.0000 0.0000 -0.0003 26.0726 0.0000 0.0000
# 5 0.0000 0.0000 0.0001 0.0000 23.9949 0.0000
# 6 0.0000 0.0000 0.0000 0.0000 0.0000 20.0310
#
#
#
# Elastic Compliance Matrix: (Units=1/GPa)
#
#
# Indices 1 2 3 4 5 6 
#
# 1 0.009577 -0.000961 -0.004919 0.000000 0.000000 0.000000
# 2 -0.000961 0.030594 -0.016397 0.000000 0.000000 0.000000
# 3 -0.004919 -0.016397 0.023692 0.000000 0.000000 0.000000
# 4 0.000000 0.000000 0.000000 0.038354 0.000000 0.000000
# 5 0.000000 0.000000 0.000000 0.000000 0.041676 0.000000
# 6 0.000000 0.000000 0.000000 0.000000 0.000000 0.049923
#
#
# Mechanical properties :
#
#
# Convention : Reuss Voigt Hill
#
# Bulk Modulus (GPa) = 51.79265 58.42033 55.10649
# Shear Modulus (GPa) = 20.42425 24.05585 22.24005
#
# Velocity S-wave (km/s) = 3.20547 3.47880 3.34493
# Velocity P-wave (km/s) = 6.30523 6.74731 6.53001
#
# Compressibility (1/GPa) = 0.01930776
#
# Stress axis : x y z
#
# Youngs Moduli (GPa) = 104.42037 32.68586 42.20815
#
# Poissons Ratio (x) = 0.03141 0.20764
# Poissons Ratio (y) = 0.10033 0.69211
# Poissons Ratio (z) = 0.51368 0.53596
#
# Static dielectric constant tensor:
#      x y z
#    x 3.654510 0.000000 0.000000 
#    y 0.000000 3.203410 0.000000 
#    z 0.000000 0.000000 4.059580 
# 
# 
# High freq. dielectric constant tensor:
#      x y z
#    x 1.787790 0.000000 0.000000 
#    y 0.000000 1.725280 0.000000 
#    z 0.000000 0.000000 1.797310 
# 
# From -- ./inp_files/11903.got.cif
#   From: 2010.06.25/outbox.cif.g09.slc.cpg/sg71_6_cif.got.tgz:11903.got - 2010.06.28 04:59:45.
