data_PCOD8288833
_publ_section_title
;
Structure prediction by ZEFSAII (Michael W. Deem and Ramdas Pophale) SiO2 
 PCOD8288833
Probable space group: I M M M
;
_chemical_formula_sum "Si O2"
_cell_formula_units_Z 72
_cell_length_a 28.063335
_cell_length_b 9.117109
_cell_length_c 15.556640
_cell_angle_alpha 90.000000
_cell_angle_beta 90.000000
_cell_angle_gamma 90.000000
_cell_volume 3980.267215
_symmetry_space_group_name_H-M "I M M M"
_symmetry_group_IT_number 71
_symmetry_cell_setting 'orthorhombic'
loop_
_space_group_symop_operation_xyz
x,y,z
-x,-y,z
x,-y,-z
-x,y,-z
-x,-y,-z
x,y,-z
-x,y,z
x,-y,z
1/2+x,1/2+y,1/2+z
1/2-x,1/2-y,1/2+z
1/2+x,1/2-y,1/2-z
1/2-x,1/2+y,1/2-z
1/2-x,1/2-y,1/2-z
1/2+x,1/2+y,1/2-z
1/2-x,1/2+y,1/2+z
1/2+x,1/2-y,1/2+z
loop_
_atom_site_type_symbol
_atom_site_label
_atom_site_fract_x
_atom_site_fract_y
_atom_site_fract_z
Si Si1 0.113135 0.330567 0.667444
Si Si2 0.944901 0.671407 0.831753
Si Si3 0.224818 0.328282 0.671281
Si Si4 0.943329 0.165212 0.000000
Si Si5 0.774642 0.832998 0.500000
Si Si6 0.612062 0.664306 0.000000
O O1 0.102141 0.500000 0.650618
O O2 0.084978 0.272249 0.750387
O O3 0.168739 0.302629 0.682255
O O4 0.093059 0.244652 0.585032
O O5 0.937376 0.500000 0.847914
O O6 0.000000 0.709782 0.815251
O O7 0.924200 0.753897 0.915088
O O8 0.237691 0.500000 0.669078
O O9 0.250000 0.250000 0.750000
O O10 0.243947 0.252965 0.583963
O O11 0.000000 0.171377 0.000000
O O12 0.923873 0.000000 0.000000
O O13 0.831251 0.832382 0.500000
O O14 0.755004 0.000000 0.500000
O O15 0.591993 0.500000 0.000000
#
# Coordination Sequence:
#
# PCOD8288833 Si02
#       6
#    16  16  16   8   8   8
#     4   9  18  32  50  71  95 124 157 194 234 276
#     4   9  17  31  51  72  93 121 158 195 230 273
#     4  10  19  32  50  72  97 125 158 195 236 281
#     4   9  17  29  46  69  96 125 155 189 232 279
#     4   9  17  31  50  71  94 123 160 197 234 279
#     4   9  17  29  48  71  94 124 159 193 230 277
#
# _framework density 18.089238000000002
#
# number of rings (size 3 to 8) (size 9 to 14) (size 15 to 20)
#    0.000    2.778    0.000    1.667    0.000    5.778 
#    0.000    1.667    0.000    6.000    0.000    0.000 
#    0.000    0.000    0.000    0.000    0.000    0.000 
#
# Total GULP energy -446422.068360 kJ/mol
# GULP energy per Si atom -12400.613010 kJ/mol
# Density = 1.804807 g / cm^3
# Si number density = 18.089238 Si / 1000 Ang^3
#
#
#
# Elastic Constant Matrix: (Units=GPa)
#
#
# Indices 1 2 3 4 5 6 
#
# 1 29.0161 33.7962 48.2844 0.0000 0.0000 0.0000
# 2 33.7962 122.3658 102.4007 0.0000 0.0000 0.0000
# 3 48.2844 102.4007 216.2716 0.0000 0.0000 0.0000
# 4 0.0000 0.0000 0.0000 35.9007 0.0000 0.0000
# 5 0.0000 0.0000 0.0000 0.0000 32.2111 0.0000
# 6 0.0000 0.0000 0.0000 0.0000 0.0000 16.9202
#
#
#
# Elastic Compliance Matrix: (Units=1/GPa)
#
#
# Indices 1 2 3 4 5 6 
#
# 1 0.060176 -0.008906 -0.009218 0.000000 0.000000 0.000000
# 2 -0.008906 0.014853 -0.005044 0.000000 0.000000 0.000000
# 3 -0.009218 -0.005044 0.009070 0.000000 0.000000 0.000000
# 4 0.000000 0.000000 0.000000 0.027855 0.000000 0.000000
# 5 0.000000 0.000000 0.000000 0.000000 0.031045 0.000000
# 6 0.000000 0.000000 0.000000 0.000000 0.000000 0.059101
#
#
# Mechanical properties :
#
#
# Convention : Reuss Voigt Hill
#
# Bulk Modulus (GPa) = 26.48116 81.84625 54.16371
# Shear Modulus (GPa) = 19.15528 29.21789 24.18658
#
# Velocity S-wave (km/s) = 3.25765 4.02333 3.66056
# Velocity P-wave (km/s) = 5.36849 8.18089 6.91909
#
# Compressibility (1/GPa) = 0.03776270
#
# Stress axis : x y z
#
# Youngs Moduli (GPa) = 16.61793 67.32460 110.25060
#
# Poissons Ratio (x) = 0.59960 1.01628
# Poissons Ratio (y) = 0.14800 0.55615
# Poissons Ratio (z) = 0.15318 0.33962
#
# Static dielectric constant tensor:
#      x y z
#    x 2.984110 0.000000 0.000000 
#    y 0.000000 3.457050 0.000000 
#    z 0.000000 0.000000 3.613430 
# 
# 
# High freq. dielectric constant tensor:
#      x y z
#    x 1.654990 0.000000 0.000000 
#    y 0.000000 1.707240 0.000000 
#    z 0.000000 0.000000 1.718300 
# 
# From -- ./inp_files/6142.got.cif
#   From: 2010.06.25/outbox.cif.g09.slc.cpg/sg71_4_cif.got.tgz:6142.got - 2010.06.28 04:59:45.
