data_PCOD8288893
_publ_section_title
;
Structure prediction by ZEFSAII (Michael W. Deem and Ramdas Pophale) SiO2 
 PCOD8288893
Probable space group: I M M M
;
_chemical_formula_sum "Si O2"
_cell_formula_units_Z 88
_cell_length_a 10.152741
_cell_length_b 24.213316
_cell_length_c 19.183840
_cell_angle_alpha 90.000000
_cell_angle_beta 90.000000
_cell_angle_gamma 90.000000
_cell_volume 4715.992664
_symmetry_space_group_name_H-M "I M M M"
_symmetry_group_IT_number 71
_symmetry_cell_setting 'orthorhombic'
loop_
_space_group_symop_operation_xyz
x,y,z
-x,-y,z
x,-y,-z
-x,y,-z
-x,-y,-z
x,y,-z
-x,y,z
x,-y,z
1/2+x,1/2+y,1/2+z
1/2-x,1/2-y,1/2+z
1/2+x,1/2-y,1/2-z
1/2-x,1/2+y,1/2-z
1/2-x,1/2-y,1/2-z
1/2+x,1/2+y,1/2-z
1/2-x,1/2+y,1/2+z
1/2+x,1/2-y,1/2+z
loop_
_atom_site_type_symbol
_atom_site_label
_atom_site_fract_x
_atom_site_fract_y
_atom_site_fract_z
Si Si1 0.149984 0.844880 0.419256
Si Si2 0.350484 0.436763 0.191251
Si Si3 0.855019 0.562629 0.307131
Si Si4 0.648960 0.751549 0.417345
Si Si5 0.753375 0.132297 0.918090
Si Si6 0.500000 0.560340 0.418088
O O1 0.176713 0.857879 0.500000
O O2 0.174486 0.901166 0.377870
O O3 0.253503 0.799502 0.390828
O O4 0.000000 0.822984 0.408499
O O5 0.500000 0.429048 0.218630
O O6 0.321978 0.500000 0.170531
O O7 0.251461 0.416568 0.251063
O O8 0.822036 0.500000 0.332255
O O9 0.862449 0.605154 0.372609
O O10 0.000000 0.564081 0.272601
O O11 0.640126 0.751220 0.500000
O O12 0.500000 0.758788 0.386995
O O13 0.713104 0.693980 0.393120
O O14 0.873961 0.094007 0.895037
O O15 0.718686 0.129866 0.000000
O O16 0.500000 0.500000 0.381522
O O17 0.500000 0.553130 0.500000
#
# Coordination Sequence:
#
# PCOD8288893 Si02
#       6
#    16  16  16  16  16   8
#     4   9  18  33  55  83 110 134 166 211 262 315
#     4   9  19  36  57  79 104 137 173 210 258 318
#     4  10  22  37  52  74 106 141 174 216 269 317
#     4   9  17  31  51  76 107 140 174 213 258 308
#     4  10  19  32  51  75 103 138 180 221 259 303
#     4   9  16  26  44  72 100 126 164 216 260 292
#
# _framework density 18.659911000000001
#
# number of rings (size 3 to 8) (size 9 to 14) (size 15 to 20)
#    0.000    2.636    0.909    0.545    1.273    3.273 
#    0.000    5.455    0.000    0.000    0.000    5.091 
#    0.000    0.000    0.000    0.000    0.000    0.000 
#
# Total GULP energy -545404.135096 kJ/mol
# GULP energy per Si atom -12395.548525 kJ/mol
# Density = 1.861744 g / cm^3
# Si number density = 18.659911 Si / 1000 Ang^3
#
#
#
# Elastic Constant Matrix: (Units=GPa)
#
#
# Indices 1 2 3 4 5 6 
#
# 1 105.9872 58.3606 47.4096 0.0000 0.0000 0.0000
# 2 58.3606 116.1129 47.8823 0.0000 0.0000 0.0000
# 3 47.4096 47.8823 64.9799 0.0000 0.0000 0.0000
# 4 0.0000 0.0000 0.0000 21.5748 0.0000 0.0000
# 5 0.0000 0.0000 0.0000 0.0000 19.5098 0.0000
# 6 0.0000 0.0000 0.0000 0.0000 0.0000 33.8767
#
#
#
# Elastic Compliance Matrix: (Units=1/GPa)
#
#
# Indices 1 2 3 4 5 6 
#
# 1 0.015478 -0.004486 -0.007987 0.000000 0.000000 0.000000
# 2 -0.004486 0.013672 -0.006802 0.000000 0.000000 0.000000
# 3 -0.007987 -0.006802 0.026229 0.000000 0.000000 0.000000
# 4 0.000000 0.000000 0.000000 0.046350 0.000000 0.000000
# 5 0.000000 0.000000 0.000000 0.000000 0.051256 0.000000
# 6 0.000000 0.000000 0.000000 0.000000 0.000000 0.029519
#
#
# Mechanical properties :
#
#
# Convention : Reuss Voigt Hill
#
# Bulk Modulus (GPa) = 59.42028 66.04279 62.73153
# Shear Modulus (GPa) = 22.05914 23.88742 22.97328
#
# Velocity S-wave (km/s) = 3.44200 3.58180 3.51259
# Velocity P-wave (km/s) = 6.90720 7.25089 7.08113
#
# Compressibility (1/GPa) = 0.01682927
#
# Stress axis : x y z
#
# Youngs Moduli (GPa) = 64.60790 73.14358 38.12582
#
# Poissons Ratio (x) = 0.32810 0.30453
# Poissons Ratio (y) = 0.28981 0.25932
# Poissons Ratio (z) = 0.51605 0.49749
#
# Static dielectric constant tensor:
#      x y z
#    x 3.578940 0.000000 0.000000 
#    y 0.000000 3.503570 0.000000 
#    z 0.000000 0.000000 3.059520 
# 
# 
# High freq. dielectric constant tensor:
#      x y z
#    x 1.730630 0.000000 0.000000 
#    y 0.000000 1.724070 0.000000 
#    z 0.000000 0.000000 1.689790 
# 
# From -- ./inp_files/43363.got.cif
#   From: 2010.06.25/outbox.cif.g09.slc.cpg/sg71_22_cif.got.tgz:43363.got - 2010.06.28 04:59:45.
