data_PCOD8288756
_publ_section_title
;
Structure prediction by ZEFSAII (Michael W. Deem and Ramdas Pophale) SiO2 
 PCOD8288756
Probable space group: I M M M
;
_chemical_formula_sum "Si O2"
_cell_formula_units_Z 104
_cell_length_a 26.810312
_cell_length_b 9.614388
_cell_length_c 21.383513
_cell_angle_alpha 90.000000
_cell_angle_beta 90.000000
_cell_angle_gamma 90.000000
_cell_volume 5511.915711
_symmetry_space_group_name_H-M "I M M M"
_symmetry_group_IT_number 71
_symmetry_cell_setting 'orthorhombic'
loop_
_space_group_symop_operation_xyz
x,y,z
-x,-y,z
x,-y,-z
-x,y,-z
-x,-y,-z
x,y,-z
-x,y,z
x,-y,z
1/2+x,1/2+y,1/2+z
1/2-x,1/2-y,1/2+z
1/2+x,1/2-y,1/2-z
1/2-x,1/2+y,1/2-z
1/2-x,1/2-y,1/2-z
1/2+x,1/2+y,1/2-z
1/2-x,1/2+y,1/2+z
1/2+x,1/2-y,1/2+z
loop_
_atom_site_type_symbol
_atom_site_label
_atom_site_fract_x
_atom_site_fract_y
_atom_site_fract_z
Si Si1 0.443186 0.338844 0.372836
Si Si2 0.402854 0.340609 0.761502
Si Si3 0.644188 0.839231 0.572126
Si Si4 0.310009 0.154124 0.788499
Si Si5 0.559724 0.154149 0.000000
Si Si6 0.557517 0.348569 0.106539
Si Si7 0.263409 0.153601 0.655950
O O1 0.500000 0.297950 0.390149
O O2 0.433182 0.500000 0.388476
O O3 0.435586 0.309350 0.299436
O O4 0.405419 0.247903 0.413621
O O5 0.383689 0.500000 0.761381
O O6 0.356908 0.237815 0.763400
O O7 0.436796 0.306970 0.821348
O O8 0.659100 0.817573 0.500000
O O9 0.690309 0.787538 0.615103
O O10 0.632504 0.000000 0.587221
O O11 0.275122 0.136298 0.728742
O O12 0.282506 0.236681 0.845580
O O13 0.324878 0.000000 0.813231
O O14 0.581328 0.233088 0.938865
O O15 0.500000 0.146949 0.000000
O O16 0.582535 0.000000 0.000000
O O17 0.500000 0.358922 0.089792
O O18 0.582412 0.500000 0.093776
O O19 0.247831 0.000000 0.629944
#
# Coordination Sequence:
#
# PCOD8288756 Si02
#       7
#    16  16  16  16   8  16  16
#     4  10  21  36  54  79 113 149 186 231 278 322
#     4  10  19  32  52  78 108 141 177 218 268 320
#     4  10  21  38  59  81 107 143 187 231 276 329
#     4  10  19  31  53  81 106 132 165 209 263 321
#     4   9  17  29  45  67  95 127 165 209 255 301
#     4   9  17  30  49  71  96 131 175 215 252 305
#     4   9  18  34  54  78 105 132 168 213 263 317
#
# _framework density 18.868213000000001
#
# number of rings (size 3 to 8) (size 9 to 14) (size 15 to 20)
#    0.000    2.385    1.538    1.154    0.000    5.538 
#    0.000    1.538    1.692    2.769    0.000    0.000 
#    0.000    0.000    0.000    0.000    0.000    0.000 
#
# Total GULP energy -644540.848950 kJ/mol
# GULP energy per Si atom -12395.016326 kJ/mol
# Density = 1.882527 g / cm^3
# Si number density = 18.868213 Si / 1000 Ang^3
#
#
#
# Elastic Constant Matrix: (Units=GPa)
#
#
# Indices 1 2 3 4 5 6 
#
# 1 47.7558 27.1063 7.4618 0.0000 0.0000 0.0000
# 2 27.1063 92.4050 28.3851 0.0000 0.0000 0.0000
# 3 7.4618 28.3851 72.5517 0.0000 0.0000 0.0000
# 4 0.0000 0.0000 0.0000 21.2618 0.0000 0.0000
# 5 0.0000 0.0000 0.0000 0.0000 20.0110 0.0000
# 6 0.0000 0.0000 0.0000 0.0000 0.0000 25.0985
#
#
#
# Elastic Compliance Matrix: (Units=1/GPa)
#
#
# Indices 1 2 3 4 5 6 
#
# 1 0.025130 -0.007476 0.000340 0.000000 0.000000 0.000000
# 2 -0.007476 0.014524 -0.004914 0.000000 0.000000 0.000000
# 3 0.000340 -0.004914 0.015671 0.000000 0.000000 0.000000
# 4 0.000000 0.000000 0.000000 0.047033 0.000000 0.000000
# 5 0.000000 0.000000 0.000000 0.000000 0.049973 0.000000
# 6 0.000000 0.000000 0.000000 0.000000 0.000000 0.039843
#
#
# Mechanical properties :
#
#
# Convention : Reuss Voigt Hill
#
# Bulk Modulus (GPa) = 32.02423 37.62432 34.82427
# Shear Modulus (GPa) = 22.05739 23.25821 22.65780
#
# Velocity S-wave (km/s) = 3.42281 3.51474 3.46908
# Velocity P-wave (km/s) = 5.71229 6.03781 5.87730
#
# Compressibility (1/GPa) = 0.03122636
#
# Stress axis : x y z
#
# Youngs Moduli (GPa) = 39.79263 68.84959 63.81354
#
# Poissons Ratio (x) = 0.51474 -0.02173
# Poissons Ratio (y) = 0.29750 0.31355
# Poissons Ratio (z) = -0.01355 0.33830
#
# Static dielectric constant tensor:
#      x y z
#    x 3.208290 0.000000 0.000000 
#    y 0.000000 3.819420 0.000000 
#    z 0.000000 0.000000 3.397730 
# 
# 
# High freq. dielectric constant tensor:
#      x y z
#    x 1.705830 0.000000 0.000000 
#    y 0.000000 1.738630 0.000000 
#    z 0.000000 0.000000 1.720430 
# 
# From -- ./inp_files/56257.got.cif
#   From: 2010.06.25/outbox.cif.g09.slc.cpg/sg71_29_cif.got.tgz:56257.got - 2010.06.28 04:59:45.
