data_PCOD8288422
_publ_section_title
;
Structure prediction by ZEFSAII (Michael W. Deem and Ramdas Pophale) SiO2 
 PCOD8288422
Probable space group: I M M M
;
_chemical_formula_sum "Si O2"
_cell_formula_units_Z 88
_cell_length_a 27.337451
_cell_length_b 19.980423
_cell_length_c 9.483011
_cell_angle_alpha 90.000000
_cell_angle_beta 90.000000
_cell_angle_gamma 90.000000
_cell_volume 5179.751803
_symmetry_space_group_name_H-M "I M M M"
_symmetry_group_IT_number 71
_symmetry_cell_setting 'orthorhombic'
loop_
_space_group_symop_operation_xyz
x,y,z
-x,-y,z
x,-y,-z
-x,y,-z
-x,-y,-z
x,y,-z
-x,y,z
x,-y,z
1/2+x,1/2+y,1/2+z
1/2-x,1/2-y,1/2+z
1/2+x,1/2-y,1/2-z
1/2-x,1/2+y,1/2-z
1/2-x,1/2-y,1/2-z
1/2+x,1/2+y,1/2-z
1/2-x,1/2+y,1/2+z
1/2+x,1/2-y,1/2+z
loop_
_atom_site_type_symbol
_atom_site_label
_atom_site_fract_x
_atom_site_fract_y
_atom_site_fract_z
Si Si1 0.883222 0.574092 0.167787
Si Si2 0.225867 0.572421 0.832964
Si Si3 0.283618 0.698168 0.832803
Si Si4 0.058636 0.921082 0.500000
Si Si5 0.056616 0.698143 0.838474
Si Si6 0.395768 0.693161 0.154906
O O1 0.899788 0.500000 0.221448
O O2 0.828508 0.589707 0.222148
O O3 0.916998 0.633199 0.229335
O O4 0.886252 0.574658 0.000000
O O5 0.242365 0.500000 0.774151
O O6 0.264674 0.626209 0.781090
O O7 0.223709 0.570276 0.000000
O O8 0.250000 0.750000 0.750000
O O9 0.340306 0.698013 0.787084
O O10 0.276992 0.709275 0.000000
O O11 0.082944 0.883452 0.637278
O O12 0.000000 0.911585 0.500000
O O13 0.072540 0.000000 0.500000
O O14 0.069690 0.766181 0.758724
O O15 0.000000 0.683770 0.822910
O O16 0.072426 0.708472 0.000000
O O17 0.397172 0.727316 0.000000
#
# Coordination Sequence:
#
# PCOD8288422 Si02
#       6
#    16  16  16   8  16  16
#     4   8  14  25  41  65  96 128 161 196 237 283
#     4   8  14  25  43  65  90 121 154 189 229 274
#     4  10  19  31  47  73 101 130 163 197 243 291
#     4   9  18  34  56  76  97 129 171 221 269 310
#     4  10  19  30  48  72  97 129 166 207 255 301
#     4   9  20  33  49  74 100 130 167 206 253 307
#
# _framework density 16.989232000000001
#
# number of rings (size 3 to 8) (size 9 to 14) (size 15 to 20)
#    0.545    2.455    0.000    2.727    0.000    3.273 
#    0.000    1.818    0.000    1.636    0.000   11.455 
#    0.000    0.000    0.000    0.000    0.000    0.000 
#
# Total GULP energy -545074.482728 kJ/mol
# GULP energy per Si atom -12388.056426 kJ/mol
# Density = 1.695056 g / cm^3
# Si number density = 16.989232 Si / 1000 Ang^3
#
#
#
# Elastic Constant Matrix: (Units=GPa)
#
#
# Indices 1 2 3 4 5 6 
#
# 1 66.7812 32.8389 18.8209 0.0000 0.0000 0.0000
# 2 32.8389 102.8623 23.7133 0.0000 0.0000 0.0000
# 3 18.8209 23.7133 24.4203 0.0000 0.0000 0.0000
# 4 0.0000 0.0000 0.0000 22.6397 0.0000 0.0000
# 5 0.0000 0.0000 0.0000 0.0000 21.0138 0.0000
# 6 0.0000 0.0000 0.0000 0.0000 0.0000 35.8784
#
#
#
# Elastic Compliance Matrix: (Units=1/GPa)
#
#
# Indices 1 2 3 4 5 6 
#
# 1 0.020153 -0.003676 -0.011963 0.000000 0.000000 0.000000
# 2 -0.003676 0.013196 -0.009981 0.000000 0.000000 0.000000
# 3 -0.011963 -0.009981 0.059861 0.000000 0.000000 0.000000
# 4 0.000000 0.000000 0.000000 0.044170 0.000000 0.000000
# 5 0.000000 0.000000 0.000000 0.000000 0.047588 0.000000
# 6 0.000000 0.000000 0.000000 0.000000 0.000000 0.027872
#
#
# Mechanical properties :
#
#
# Convention : Reuss Voigt Hill
#
# Bulk Modulus (GPa) = 23.82576 38.31222 31.06899
# Shear Modulus (GPa) = 17.98102 23.81909 20.90006
#
# Velocity S-wave (km/s) = 3.25680 3.74841 3.51122
# Velocity P-wave (km/s) = 5.31007 6.42914 5.89622
#
# Compressibility (1/GPa) = 0.04197138
#
# Stress axis : x y z
#
# Youngs Moduli (GPa) = 49.61944 75.77854 16.70530
#
# Poissons Ratio (x) = 0.27858 0.19984
# Poissons Ratio (y) = 0.18241 0.16674
# Poissons Ratio (z) = 0.59357 0.75635
#
# Static dielectric constant tensor:
#      x y z
#    x 3.292160 0.000000 0.000000 
#    y 0.000000 9.118650 0.000000 
#    z 0.000000 0.000000 2.733450 
# 
# 
# High freq. dielectric constant tensor:
#      x y z
#    x 1.664540 0.000000 0.000000 
#    y 0.000000 1.661860 0.000000 
#    z 0.000000 0.000000 1.598810 
# 
# From -- ./inp_files/30125.got.cif
#   From: 2010.06.25/outbox.cif.g09.slc.cpg/sg71_16_cif.got.tgz:30125.got - 2010.06.28 04:59:45.
