data_PCOD8288942
_publ_section_title
;
Structure prediction by ZEFSAII (Michael W. Deem and Ramdas Pophale) SiO2 
 PCOD8288942
Probable space group: I M M M
;
_chemical_formula_sum "Si O2"
_cell_formula_units_Z 68
_cell_length_a 24.672141
_cell_length_b 12.261910
_cell_length_c 12.782385
_cell_angle_alpha 90.000000
_cell_angle_beta 90.000000
_cell_angle_gamma 90.000000
_cell_volume 3867.023904
_symmetry_space_group_name_H-M "I M M M"
_symmetry_group_IT_number 71
_symmetry_cell_setting 'orthorhombic'
loop_
_space_group_symop_operation_xyz
x,y,z
-x,-y,z
x,-y,-z
-x,y,-z
-x,-y,-z
x,y,-z
-x,y,z
x,-y,z
1/2+x,1/2+y,1/2+z
1/2-x,1/2-y,1/2+z
1/2+x,1/2-y,1/2-z
1/2-x,1/2+y,1/2-z
1/2-x,1/2-y,1/2-z
1/2+x,1/2+y,1/2-z
1/2-x,1/2+y,1/2+z
1/2+x,1/2-y,1/2+z
loop_
_atom_site_type_symbol
_atom_site_label
_atom_site_fract_x
_atom_site_fract_y
_atom_site_fract_z
Si Si1 0.097149 0.375656 0.878360
Si Si2 0.891474 0.000000 0.619850
Si Si3 0.000000 0.775488 0.124070
Si Si4 0.700640 0.668308 0.120557
Si Si5 0.500000 0.500000 0.254735
Si Si6 0.801661 0.620648 0.739964
O O1 0.078746 0.500000 0.855403
O O2 0.051724 0.292973 0.837036
O O3 0.152368 0.344659 0.821339
O O4 0.108036 0.358343 0.000000
O O5 0.855890 0.892395 0.644655
O O6 0.910014 0.000000 0.500000
O O7 0.945850 0.000000 0.686596
O O8 0.000000 0.894333 0.172926
O O9 0.000000 0.787585 0.000000
O O10 0.745181 0.619943 0.198335
O O11 0.695889 0.797328 0.142236
O O12 0.717608 0.648957 0.000000
O O13 0.811584 0.500000 0.694106
#
# Coordination Sequence:
#
# PCOD8288942 Si02
#       6
#    16   8   8  16   4  16
#     4   9  17  30  51  75  99 128 165 206 247 295
#     4  10  21  37  55  74  95 130 176 216 249 289
#     4  10  20  33  48  73 106 137 165 199 249 304
#     4  10  20  34  52  73 101 132 166 210 253 295
#     4  12  22  34  52  70 100 136 172 210 248 294
#     4  10  19  32  52  77 101 130 167 205 251 303
#
# _framework density 17.584582000000001
#
# number of rings (size 3 to 8) (size 9 to 14) (size 15 to 20)
#    0.000    2.118    1.176    2.824    0.000    2.824 
#    0.000    0.000    0.000    1.412    0.000    0.000 
#    0.000   16.941    0.000    0.000    0.000    0.000 
#
# Total GULP energy -421571.823582 kJ/mol
# GULP energy per Si atom -12399.171282 kJ/mol
# Density = 1.754456 g / cm^3
# Si number density = 17.584582 Si / 1000 Ang^3
#
#
#
# Elastic Constant Matrix: (Units=GPa)
#
#
# Indices 1 2 3 4 5 6 
#
# 1 100.7221 35.1820 23.9529 0.0000 0.0000 0.0000
# 2 35.1820 107.6511 28.6106 0.0000 0.0000 0.0000
# 3 23.9529 28.6106 41.6599 0.0000 0.0000 0.0000
# 4 0.0000 0.0000 0.0000 19.6863 0.0000 0.0000
# 5 0.0000 0.0000 0.0000 0.0000 26.5264 0.0000
# 6 0.0000 0.0000 0.0000 0.0000 0.0000 20.5611
#
#
#
# Elastic Compliance Matrix: (Units=1/GPa)
#
#
# Indices 1 2 3 4 5 6 
#
# 1 0.012054 -0.002566 -0.005168 0.000000 0.000000 0.000000
# 2 -0.002566 0.011909 -0.006704 0.000000 0.000000 0.000000
# 3 -0.005168 -0.006704 0.031580 0.000000 0.000000 0.000000
# 4 0.000000 0.000000 0.000000 0.050797 0.000000 0.000000
# 5 0.000000 0.000000 0.000000 0.000000 0.037698 0.000000
# 6 0.000000 0.000000 0.000000 0.000000 0.000000 0.048636
#
#
# Mechanical properties :
#
#
# Convention : Reuss Voigt Hill
#
# Bulk Modulus (GPa) = 37.49980 47.28045 42.39012
# Shear Modulus (GPa) = 21.69783 24.17394 22.93588
#
# Velocity S-wave (km/s) = 3.51652 3.71175 3.61545
# Velocity P-wave (km/s) = 6.15301 6.73166 6.44883
#
# Compressibility (1/GPa) = 0.02666681
#
# Stress axis : x y z
#
# Youngs Moduli (GPa) = 82.96287 83.96674 31.66610
#
# Poissons Ratio (x) = 0.21543 0.16366
# Poissons Ratio (y) = 0.21286 0.21229
# Poissons Ratio (z) = 0.42878 0.56290
#
# Static dielectric constant tensor:
#      x y z
#    x 3.298750 0.000000 0.000000 
#    y 0.000000 3.465980 0.000000 
#    z 0.000000 0.000000 3.021360 
# 
# 
# High freq. dielectric constant tensor:
#      x y z
#    x 1.685520 0.000000 0.000000 
#    y 0.000000 1.692360 0.000000 
#    z 0.000000 0.000000 1.658510 
# 
# From -- ./inp_files/37534.got.cif
#   From: 2010.06.25/outbox.cif.g09.slc.cpg/sg71_19_cif.got.tgz:37534.got - 2010.06.28 04:59:45.
