data_PCOD8288038
_publ_section_title
;
Structure prediction by ZEFSAII (Michael W. Deem and Ramdas Pophale) SiO2 
 PCOD8288038
Probable space group: I M M M
;
_chemical_formula_sum "Si O2"
_cell_formula_units_Z 96
_cell_length_a 12.063118
_cell_length_b 28.801542
_cell_length_c 13.298934
_cell_angle_alpha 90.000000
_cell_angle_beta 90.000000
_cell_angle_gamma 90.000000
_cell_volume 4620.533749
_symmetry_space_group_name_H-M "I M M M"
_symmetry_group_IT_number 71
_symmetry_cell_setting 'orthorhombic'
loop_
_space_group_symop_operation_xyz
x,y,z
-x,-y,z
x,-y,-z
-x,y,-z
-x,-y,-z
x,y,-z
-x,y,z
x,-y,z
1/2+x,1/2+y,1/2+z
1/2-x,1/2-y,1/2+z
1/2+x,1/2-y,1/2-z
1/2-x,1/2+y,1/2-z
1/2-x,1/2-y,1/2-z
1/2+x,1/2+y,1/2-z
1/2-x,1/2+y,1/2+z
1/2+x,1/2-y,1/2+z
loop_
_atom_site_type_symbol
_atom_site_label
_atom_site_fract_x
_atom_site_fract_y
_atom_site_fract_z
Si Si1 0.263037 0.320536 0.816145
Si Si2 0.868246 0.592630 0.223578
Si Si3 0.500000 0.322715 0.390878
Si Si4 0.272820 0.722161 0.390237
Si Si5 0.500000 0.640967 0.878565
Si Si6 0.775126 0.052725 0.114894
Si Si7 0.000000 0.919574 0.787928
Si Si8 0.630974 0.000000 0.610783
O O1 0.184495 0.364739 0.839164
O O2 0.220542 0.305212 0.703855
O O3 0.241430 0.277560 0.889049
O O4 0.391536 0.333087 0.833699
O O5 0.813078 0.587828 0.334368
O O6 0.829587 0.545991 0.167483
O O7 0.000000 0.598350 0.232435
O O8 0.500000 0.346671 0.500000
O O9 0.598998 0.287508 0.376558
O O10 0.500000 0.365453 0.316359
O O11 0.228214 0.704710 0.500000
O O12 0.500000 0.587502 0.834275
O O13 0.500000 0.640060 0.000000
O O14 0.892397 0.054246 0.172095
O O15 0.730348 0.000000 0.118896
O O16 0.791271 0.069211 0.000000
O O17 0.500000 0.000000 0.603366
O O18 0.684208 0.000000 0.500000
#
# Coordination Sequence:
#
# PCOD8288038 Si02
#       8
#    16  16   8  16   8  16   8   8
#     4  11  23  41  63  92 130 169 216 271 327 388
#     4  11  23  41  65  96 131 171 217 269 322 392
#     4  10  18  33  61  89 120 160 207 263 320 373
#     4  10  21  38  61  91 125 168 218 264 318 383
#     4  12  24  41  64  91 123 168 215 267 334 390
#     4  11  23  40  66  98 132 171 215 268 328 390
#     4  12  21  41  63  96 127 173 218 271 316 388
#     4   9  20  40  63  86 121 168 217 264 314 373
#
# _framework density 20.776820000000001
#
# number of rings (size 3 to 8) (size 9 to 14) (size 15 to 20)
#    0.000    1.250    4.167    1.500    1.167    4.333 
#    1.500    0.833    0.000    0.500    0.000    0.000 
#    0.000    0.000    0.000    0.000    0.000    0.000 
#
# Total GULP energy -594749.106498 kJ/mol
# GULP energy per Si atom -12390.606385 kJ/mol
# Density = 2.072953 g / cm^3
# Si number density = 20.776820 Si / 1000 Ang^3
#
#
#
# Elastic Constant Matrix: (Units=GPa)
#
#
# Indices 1 2 3 4 5 6 
#
# 1 90.3245 33.2361 9.8968 0.0000 -0.0002 0.0000
# 2 33.2361 100.0209 21.0201 -0.0004 0.0004 0.0001
# 3 9.8968 21.0201 116.9716 -0.0032 0.0030 0.0007
# 4 0.0000 -0.0004 -0.0032 24.3344 0.0009 0.0002
# 5 -0.0002 0.0004 0.0030 0.0009 48.2599 -0.0002
# 6 0.0000 0.0001 0.0007 0.0002 -0.0002 33.1969
#
#
#
# Elastic Compliance Matrix: (Units=1/GPa)
#
#
# Indices 1 2 3 4 5 6 
#
# 1 0.012625 -0.004127 -0.000327 0.000000 0.000000 0.000000
# 2 -0.004127 0.011739 -0.001760 0.000000 0.000000 0.000000
# 3 -0.000327 -0.001760 0.008893 0.000001 -0.000001 0.000000
# 4 0.000000 0.000000 0.000001 0.041094 -0.000001 0.000000
# 5 0.000000 0.000000 -0.000001 -0.000001 0.020721 0.000000
# 6 0.000000 0.000000 0.000000 0.000000 0.000000 0.030123
#
#
# Mechanical properties :
#
#
# Convention : Reuss Voigt Hill
#
# Bulk Modulus (GPa) = 48.00723 48.40256 48.20489
# Shear Modulus (GPa) = 34.58601 37.36916 35.97759
#
# Velocity S-wave (km/s) = 4.08443 4.24559 4.16579
# Velocity P-wave (km/s) = 6.73793 6.88334 6.81103
#
# Compressibility (1/GPa) = 0.02083020
#
# Stress axis : x y z
#
# Youngs Moduli (GPa) = 79.20508 85.18512 112.44710
#
# Poissons Ratio (x) = 0.35153 0.03673
# Poissons Ratio (y) = 0.32685 0.19795
# Poissons Ratio (z) = 0.02587 0.14996
#
# Static dielectric constant tensor:
#      x y z
#    x 3.571170 0.000000 0.000000 
#    y 0.000000 3.796580 0.000000 
#    z 0.000000 0.000000 4.207860 
# 
# 
# High freq. dielectric constant tensor:
#      x y z
#    x 1.795870 0.000000 0.000000 
#    y 0.000000 1.815250 0.000000 
#    z 0.000000 0.000000 1.822690 
# 
# From -- ./inp_files/33275.got.cif
#   From: 2010.06.25/outbox.cif.g09.slc.cpg/sg71_17_cif.got.tgz:33275.got - 2010.06.28 04:59:45.
