data_PCOD8288348
_publ_section_title
;
Structure prediction by ZEFSAII (Michael W. Deem and Ramdas Pophale) SiO2 
 PCOD8288348
Probable space group: I M M M
;
_chemical_formula_sum "Si O2"
_cell_formula_units_Z 88
_cell_length_a 9.121624
_cell_length_b 20.430247
_cell_length_c 24.570322
_cell_angle_alpha 90.000000
_cell_angle_beta 90.000000
_cell_angle_gamma 90.000000
_cell_volume 4578.852268
_symmetry_space_group_name_H-M "I M M M"
_symmetry_group_IT_number 71
_symmetry_cell_setting 'orthorhombic'
loop_
_space_group_symop_operation_xyz
x,y,z
-x,-y,z
x,-y,-z
-x,y,-z
-x,-y,-z
x,y,-z
-x,y,z
x,-y,z
1/2+x,1/2+y,1/2+z
1/2-x,1/2-y,1/2+z
1/2+x,1/2-y,1/2-z
1/2-x,1/2+y,1/2-z
1/2-x,1/2-y,1/2-z
1/2+x,1/2+y,1/2-z
1/2-x,1/2+y,1/2+z
1/2+x,1/2-y,1/2+z
loop_
_atom_site_type_symbol
_atom_site_label
_atom_site_fract_x
_atom_site_fract_y
_atom_site_fract_z
Si Si1 0.831903 0.372050 0.559286
Si Si2 0.835418 0.500000 0.064749
Si Si3 0.827886 0.426078 0.325655
Si Si4 0.664593 0.696195 0.715302
Si Si5 0.669248 0.627290 0.936010
Si Si6 0.836708 0.751980 0.094478
O O1 0.810913 0.407553 0.500000
O O2 0.785666 0.417534 0.610183
O O3 0.735660 0.306601 0.556545
O O4 0.000000 0.350295 0.566894
O O5 0.750482 0.436766 0.086507
O O6 0.000000 0.500000 0.088254
O O7 0.836236 0.500000 0.000000
O O8 0.782305 0.500000 0.309227
O O9 0.745098 0.374609 0.286379
O O10 0.000000 0.414892 0.317150
O O11 0.500000 0.686893 0.738919
O O12 0.750000 0.750000 0.750000
O O13 0.656764 0.722308 0.654978
O O14 0.500000 0.620962 0.920729
O O15 0.738202 0.687807 0.904796
O O16 0.693466 0.636503 0.000000
O O17 0.000000 0.736160 0.072554
#
# Coordination Sequence:
#
# PCOD8288348 Si02
#       6
#    16   8  16  16  16  16
#     4   9  17  29  46  72 107 144 180 214 248 292
#     4   9  17  29  45  65  91 127 167 203 243 293
#     4   9  18  33  54  80 110 144 179 216 260 310
#     4  10  21  37  58  80 102 131 170 218 268 318
#     4  10  19  30  46  69  98 132 168 205 247 298
#     4  10  20  32  48  72  99 129 167 211 259 307
#
# _framework density 19.218789999999998
#
# number of rings (size 3 to 8) (size 9 to 14) (size 15 to 20)
#    0.000    2.455    0.000    2.455    0.000    7.636 
#    0.000    1.818    2.000    0.000    0.000    5.091 
#    0.000    0.000    0.000    0.000    0.000    0.000 
#
# Total GULP energy -545446.481428 kJ/mol
# GULP energy per Si atom -12396.510942 kJ/mol
# Density = 1.917505 g / cm^3
# Si number density = 19.218790 Si / 1000 Ang^3
#
#
#
# Elastic Constant Matrix: (Units=GPa)
#
#
# Indices 1 2 3 4 5 6 
#
# 1 124.6507 68.2439 17.8318 0.0000 0.0000 0.0000
# 2 68.2439 148.1718 21.0749 0.0000 0.0000 0.0000
# 3 17.8318 21.0749 38.0670 0.0000 0.0000 0.0000
# 4 0.0000 0.0000 0.0000 20.5948 0.0000 0.0000
# 5 0.0000 0.0000 0.0000 0.0000 22.0573 0.0000
# 6 0.0000 0.0000 0.0000 0.0000 0.0000 34.9157
#
#
#
# Elastic Compliance Matrix: (Units=1/GPa)
#
#
# Indices 1 2 3 4 5 6 
#
# 1 0.010948 -0.004682 -0.002537 0.000000 0.000000 0.000000
# 2 -0.004682 0.009328 -0.002971 0.000000 0.000000 0.000000
# 3 -0.002537 -0.002971 0.029103 0.000000 0.000000 0.000000
# 4 0.000000 0.000000 0.000000 0.048556 0.000000 0.000000
# 5 0.000000 0.000000 0.000000 0.000000 0.045337 0.000000
# 6 0.000000 0.000000 0.000000 0.000000 0.000000 0.028640
#
#
# Mechanical properties :
#
#
# Convention : Reuss Voigt Hill
#
# Bulk Modulus (GPa) = 34.48286 58.35452 46.41869
# Shear Modulus (GPa) = 24.75772 29.09615 26.92694
#
# Velocity S-wave (km/s) = 3.59305 3.89516 3.74715
# Velocity P-wave (km/s) = 5.93250 7.11751 6.55185
#
# Compressibility (1/GPa) = 0.02899991
#
# Stress axis : x y z
#
# Youngs Moduli (GPa) = 91.33689 107.20646 34.36124
#
# Poissons Ratio (x) = 0.50192 0.08716
# Poissons Ratio (y) = 0.42762 0.10209
# Poissons Ratio (z) = 0.23169 0.31851
#
# Static dielectric constant tensor:
#      x y z
#    x 3.820690 0.000000 0.000000 
#    y 0.000000 3.565540 0.000000 
#    z 0.000000 0.000000 3.330880 
# 
# 
# High freq. dielectric constant tensor:
#      x y z
#    x 1.756670 0.000000 0.000000 
#    y 0.000000 1.746010 0.000000 
#    z 0.000000 0.000000 1.715120 
# 
# From -- ./inp_files/50503.got.cif
#   From: 2010.06.25/outbox.cif.g09.slc.cpg/sg71_26_cif.got.tgz:50503.got - 2010.06.28 04:59:45.
