data_PCOD8288287
_publ_section_title
;
Structure prediction by ZEFSAII (Michael W. Deem and Ramdas Pophale) SiO2 
 PCOD8288287
Probable space group: I M M M
;
_chemical_formula_sum "Si O2"
_cell_formula_units_Z 80
_cell_length_a 12.208889
_cell_length_b 19.405506
_cell_length_c 19.808844
_cell_angle_alpha 90.000000
_cell_angle_beta 90.000000
_cell_angle_gamma 90.000000
_cell_volume 4693.104759
_symmetry_space_group_name_H-M "I M M M"
_symmetry_group_IT_number 71
_symmetry_cell_setting 'orthorhombic'
loop_
_space_group_symop_operation_xyz
x,y,z
-x,-y,z
x,-y,-z
-x,y,-z
-x,-y,-z
x,y,-z
-x,y,z
x,-y,z
1/2+x,1/2+y,1/2+z
1/2-x,1/2-y,1/2+z
1/2+x,1/2-y,1/2-z
1/2-x,1/2+y,1/2-z
1/2-x,1/2-y,1/2-z
1/2+x,1/2+y,1/2-z
1/2-x,1/2+y,1/2+z
1/2+x,1/2-y,1/2+z
loop_
_atom_site_type_symbol
_atom_site_label
_atom_site_fract_x
_atom_site_fract_y
_atom_site_fract_z
Si Si1 0.874832 0.663523 0.426631
Si Si2 0.871758 0.500000 0.926047
Si Si3 0.869692 0.577504 0.696798
Si Si4 0.871710 0.368284 0.158981
Si Si5 0.812721 0.816824 0.578186
Si Si6 0.000000 0.079121 0.420010
O O1 0.819186 0.647980 0.500000
O O2 0.818837 0.618279 0.367378
O O3 0.872984 0.744463 0.410964
O O4 0.000000 0.640235 0.430213
O O5 0.836106 0.565711 0.884239
O O6 0.000000 0.500000 0.936197
O O7 0.813881 0.500000 0.000000
O O8 0.821432 0.500000 0.698042
O O9 0.836485 0.618892 0.764016
O O10 0.000000 0.573829 0.694178
O O11 0.795893 0.310121 0.125172
O O12 0.000000 0.349439 0.152046
O O13 0.779271 0.827522 0.500000
O O14 0.892256 0.878600 0.603792
O O15 0.000000 0.077833 0.500000
O O16 0.000000 0.000000 0.391561
#
# Coordination Sequence:
#
# PCOD8288287 Si02
#       6
#    16   8  16  16  16   8
#     4   9  17  31  49  68  92 122 156 196 240 283
#     4   9  16  26  40  59  86 120 154 183 216 261
#     4   9  17  30  47  68  95 123 153 192 239 289
#     4  10  19  30  44  66  96 126 154 188 233 278
#     4  10  19  31  47  66  94 127 161 198 232 272
#     4   9  18  30  44  64  89 123 164 198 230 267
#
# _framework density 17.046285000000001
#
# number of rings (size 3 to 8) (size 9 to 14) (size 15 to 20)
#    0.000    2.600    2.000    0.600    1.400    2.400 
#    0.000    2.000    0.000    0.000    0.000    0.000 
#    0.000    0.000    0.000    4.400    0.000    0.200 
#
# Total GULP energy -495656.008476 kJ/mol
# GULP energy per Si atom -12391.400212 kJ/mol
# Density = 1.700749 g / cm^3
# Si number density = 17.046285 Si / 1000 Ang^3
#
#
#
# Elastic Constant Matrix: (Units=GPa)
#
#
# Indices 1 2 3 4 5 6 
#
# 1 50.5317 18.1906 33.2935 0.0000 0.0000 0.0000
# 2 18.1906 52.8704 41.8287 0.0000 0.0000 0.0000
# 3 33.2935 41.8287 126.2908 0.0000 0.0000 0.0000
# 4 0.0000 0.0000 0.0000 29.8188 0.0000 0.0000
# 5 0.0000 0.0000 0.0000 0.0000 13.5357 0.0000
# 6 0.0000 0.0000 0.0000 0.0000 0.0000 9.4215
#
#
#
# Elastic Compliance Matrix: (Units=1/GPa)
#
#
# Indices 1 2 3 4 5 6 
#
# 1 0.024728 -0.004540 -0.005015 0.000000 0.000000 0.000000
# 2 -0.004540 0.026464 -0.007568 0.000000 0.000000 0.000000
# 3 -0.005015 -0.007568 0.011747 0.000000 0.000000 0.000000
# 4 0.000000 0.000000 0.000000 0.033536 0.000000 0.000000
# 5 0.000000 0.000000 0.000000 0.000000 0.073879 0.000000
# 6 0.000000 0.000000 0.000000 0.000000 0.000000 0.106140
#
#
# Mechanical properties :
#
#
# Convention : Reuss Voigt Hill
#
# Bulk Modulus (GPa) = 34.85291 46.25759 40.55525
# Shear Modulus (GPa) = 15.61012 19.64720 17.62866
#
# Velocity S-wave (km/s) = 3.02942 3.39865 3.21933
# Velocity P-wave (km/s) = 5.72074 6.52660 6.13691
#
# Compressibility (1/GPa) = 0.02869201
#
# Stress axis : x y z
#
# Youngs Moduli (GPa) = 40.43940 37.78733 85.12778
#
# Poissons Ratio (x) = 0.17156 0.42694
# Poissons Ratio (y) = 0.18360 0.64426
# Poissons Ratio (z) = 0.20281 0.28598
#
# Static dielectric constant tensor:
#      x y z
#    x 2.808180 0.000000 0.000000 
#    y 0.000000 3.214450 0.000000 
#    z 0.000000 0.000000 3.437960 
# 
# 
# High freq. dielectric constant tensor:
#      x y z
#    x 1.611290 0.000000 0.000000 
#    y 0.000000 1.646320 0.000000 
#    z 0.000000 0.000000 1.657000 
# 
# From -- ./inp_files/25590.got.cif
#   From: 2010.06.25/outbox.cif.g09.slc.cpg/sg71_13_cif.got.tgz:25590.got - 2010.06.28 04:59:45.
