data_PCOD8288695
_publ_section_title
;
Structure prediction by ZEFSAII (Michael W. Deem and Ramdas Pophale) SiO2 
 PCOD8288695
Probable space group: I M M M
;
_chemical_formula_sum "Si O2"
_cell_formula_units_Z 112
_cell_length_a 14.248798
_cell_length_b 25.641054
_cell_length_c 14.161157
_cell_angle_alpha 90.000000
_cell_angle_beta 90.000000
_cell_angle_gamma 90.000000
_cell_volume 5173.838172
_symmetry_space_group_name_H-M "I M M M"
_symmetry_group_IT_number 71
_symmetry_cell_setting 'orthorhombic'
loop_
_space_group_symop_operation_xyz
x,y,z
-x,-y,z
x,-y,-z
-x,y,-z
-x,-y,-z
x,y,-z
-x,y,z
x,-y,z
1/2+x,1/2+y,1/2+z
1/2-x,1/2-y,1/2+z
1/2+x,1/2-y,1/2-z
1/2-x,1/2+y,1/2-z
1/2-x,1/2-y,1/2-z
1/2+x,1/2+y,1/2-z
1/2-x,1/2+y,1/2+z
1/2+x,1/2-y,1/2+z
loop_
_atom_site_type_symbol
_atom_site_label
_atom_site_fract_x
_atom_site_fract_y
_atom_site_fract_z
Si Si1 0.603619 0.884796 0.394569
Si Si2 0.395494 0.702875 0.605213
Si Si3 0.794351 0.650318 0.608712
Si Si4 0.106080 0.942791 0.387896
Si Si5 0.294050 0.660103 0.107974
Si Si6 0.892737 0.744656 0.292717
Si Si7 0.392972 0.059318 0.793843
O O1 0.614514 0.909472 0.500000
O O2 0.500000 0.859011 0.382319
O O3 0.681381 0.839885 0.380596
O O4 0.618204 0.930179 0.318001
O O5 0.381697 0.726849 0.500000
O O6 0.500000 0.677761 0.615523
O O7 0.317414 0.658168 0.622727
O O8 0.383740 0.750042 0.679414
O O9 0.823513 0.658868 0.500000
O O10 0.851053 0.689998 0.674980
O O11 0.821990 0.592988 0.642811
O O12 0.110841 0.943200 0.500000
O O13 0.169114 0.895136 0.349158
O O14 0.000000 0.932964 0.353499
O O15 0.140737 0.000000 0.350636
O O16 0.333832 0.708289 0.164398
O O17 0.326209 0.666696 0.000000
O O18 0.000000 0.748534 0.326865
O O19 0.500000 0.071186 0.825256
O O20 0.365910 0.000000 0.813533
#
# Coordination Sequence:
#
# PCOD8288695 Si02
#       7
#    16  16  16  16  16  16  16
#     4   9  19  36  57  82 114 153 198 246 292 340
#     4   9  20  40  64  88 116 153 195 237 282 336
#     4  11  23  40  63  89 120 155 190 236 294 351
#     4   8  14  25  41  63  95 136 179 221 267 323
#     4  10  19  31  50  78 114 154 192 232 283 343
#     4  11  22  36  58  88 122 157 194 239 289 344
#     4  10  22  40  61  85 114 150 194 244 297 355
#
# _framework density 21.647371
#
# number of rings (size 3 to 8) (size 9 to 14) (size 15 to 20)
#    0.000    2.286    0.000    3.000    0.000    3.714 
#    0.000    7.857    0.000   10.714    0.000    2.000 
#    0.000    0.000    0.000    0.000    0.000    0.000 
#
# Total GULP energy -694169.535690 kJ/mol
# GULP energy per Si atom -12395.884566 kJ/mol
# Density = 2.159810 g / cm^3
# Si number density = 21.647371 Si / 1000 Ang^3
#
#
#
# Elastic Constant Matrix: (Units=GPa)
#
#
# Indices 1 2 3 4 5 6 
#
# 1 135.8784 57.7124 58.7881 0.0000 0.0000 0.0000
# 2 57.7124 117.1927 44.0737 0.0002 0.0000 0.0000
# 3 58.7881 44.0737 101.8177 0.0005 0.0001 0.0000
# 4 0.0000 0.0002 0.0005 15.8683 0.0001 0.0000
# 5 0.0000 0.0000 0.0001 0.0001 25.2832 0.0000
# 6 0.0000 0.0000 0.0000 0.0000 0.0000 16.2268
#
#
#
# Elastic Compliance Matrix: (Units=1/GPa)
#
#
# Indices 1 2 3 4 5 6 
#
# 1 0.010950 -0.003601 -0.004764 0.000000 0.000000 0.000000
# 2 -0.003601 0.011376 -0.002845 0.000000 0.000000 0.000000
# 3 -0.004764 -0.002845 0.013804 0.000000 0.000000 0.000000
# 4 0.000000 0.000000 0.000000 0.063019 0.000000 0.000000
# 5 0.000000 0.000000 0.000000 0.000000 0.039552 0.000000
# 6 0.000000 0.000000 0.000000 0.000000 0.000000 0.061626
#
#
# Mechanical properties :
#
#
# Convention : Reuss Voigt Hill
#
# Bulk Modulus (GPa) = 72.93883 75.11523 74.02703
# Shear Modulus (GPa) = 21.99575 24.42998 23.21286
#
# Velocity S-wave (km/s) = 3.19108 3.36302 3.27818
# Velocity P-wave (km/s) = 6.88074 7.06079 6.97134
#
# Compressibility (1/GPa) = 0.01371012
#
# Stress axis : x y z
#
# Youngs Moduli (GPa) = 91.32479 87.90194 72.44493
#
# Poissons Ratio (x) = 0.31652 0.34510
# Poissons Ratio (y) = 0.32885 0.20613
# Poissons Ratio (z) = 0.43504 0.25011
#
# Static dielectric constant tensor:
#      x y z
#    x 4.297550 0.000000 0.000000 
#    y 0.000000 3.786730 0.000000 
#    z 0.000000 0.000000 3.975140 
# 
# 
# High freq. dielectric constant tensor:
#      x y z
#    x 1.866430 0.000000 0.000000 
#    y 0.000000 1.823800 0.000000 
#    z 0.000000 0.000000 1.840850 
# 
# From -- ./inp_files/34859.got.cif
#   From: 2010.06.25/outbox.cif.g09.slc.cpg/sg71_18_cif.got.tgz:34859.got - 2010.06.28 04:59:45.
