data_PCOD8288815
_publ_section_title
;
Structure prediction by ZEFSAII (Michael W. Deem and Ramdas Pophale) SiO2 
 PCOD8288815
Probable space group: I M M M
;
_chemical_formula_sum "Si O2"
_cell_formula_units_Z 120
_cell_length_a 27.776922
_cell_length_b 29.199326
_cell_length_c 8.832791
_cell_angle_alpha 90.000000
_cell_angle_beta 90.000000
_cell_angle_gamma 90.000000
_cell_volume 7163.988838
_symmetry_space_group_name_H-M "I M M M"
_symmetry_group_IT_number 71
_symmetry_cell_setting 'orthorhombic'
loop_
_space_group_symop_operation_xyz
x,y,z
-x,-y,z
x,-y,-z
-x,y,-z
-x,-y,-z
x,y,-z
-x,y,z
x,-y,z
1/2+x,1/2+y,1/2+z
1/2-x,1/2-y,1/2+z
1/2+x,1/2-y,1/2-z
1/2-x,1/2+y,1/2-z
1/2-x,1/2-y,1/2-z
1/2+x,1/2+y,1/2-z
1/2-x,1/2+y,1/2+z
1/2+x,1/2-y,1/2+z
loop_
_atom_site_type_symbol
_atom_site_label
_atom_site_fract_x
_atom_site_fract_y
_atom_site_fract_z
Si Si1 0.775542 0.054360 0.829693
Si Si2 0.056260 0.692907 0.177139
Si Si3 0.443389 0.621517 0.324529
Si Si4 0.589258 0.102239 0.821199
Si Si5 0.127294 0.946813 0.677073
Si Si6 0.678094 0.053849 0.324352
Si Si7 0.557189 0.285980 0.170516
Si Si8 0.000000 0.554167 0.171442
O O1 0.824607 0.073020 0.755598
O O2 0.730517 0.070847 0.729339
O O3 0.777151 0.000000 0.830521
O O4 0.770689 0.073696 0.000000
O O5 0.086528 0.653492 0.257919
O O6 0.075343 0.741045 0.241847
O O7 0.000000 0.685213 0.213398
O O8 0.066490 0.691952 0.000000
O O9 0.429953 0.620323 0.500000
O O10 0.500000 0.616470 0.297143
O O11 0.418870 0.579327 0.240182
O O12 0.423549 0.669117 0.256246
O O13 0.639840 0.080778 0.775393
O O14 0.547304 0.071128 0.754362
O O15 0.584106 0.103359 0.000000
O O16 0.132433 0.938333 0.500000
O O17 0.119675 0.000000 0.715453
O O18 0.671240 0.065976 0.500000
O O19 0.671320 0.000000 0.295232
O O20 0.500000 0.286445 0.170511
O O21 0.577593 0.285598 0.000000
O O22 0.000000 0.500000 0.171806
O O23 0.000000 0.573524 0.000000
#
# Coordination Sequence:
#
# PCOD8288815 Si02
#       8
#    16  16  16  16  16  16  16   8
#     4   9  17  31  51  73  96 123 160 206 250 290
#     4  10  19  32  50  69  94 126 162 203 249 298
#     4  10  20  33  49  72 103 137 172 205 242 289
#     4  12  23  33  48  70  96 126 164 206 250 299
#     4  10  20  33  50  73 102 136 171 205 244 289
#     4  10  20  34  51  70  95 127 163 204 250 298
#     4   9  17  30  49  71  96 125 161 204 248 290
#     4  11  23  37  49  63  91 131 169 203 246 303
#
# _framework density 16.750446
#
# number of rings (size 3 to 8) (size 9 to 14) (size 15 to 20)
#    0.000    1.933    0.667    4.200    0.000    8.533 
#    0.000    1.333    0.000    0.000    0.000    0.933 
#    0.000    0.000    0.000    0.000    0.000    0.000 
#
# Total GULP energy -744182.712124 kJ/mol
# GULP energy per Si atom -12403.045202 kJ/mol
# Density = 1.671232 g / cm^3
# Si number density = 16.750446 Si / 1000 Ang^3
#
#
#
# Elastic Constant Matrix: (Units=GPa)
#
#
# Indices 1 2 3 4 5 6 
#
# 1 57.1415 39.1323 28.7842 0.0000 0.0000 0.0000
# 2 39.1323 85.3863 52.6649 0.0000 0.0000 0.0000
# 3 28.7842 52.6649 110.2492 0.0000 0.0000 0.0000
# 4 0.0000 0.0000 0.0000 30.7890 0.0000 0.0000
# 5 0.0000 0.0000 0.0000 0.0000 28.1635 0.0000
# 6 0.0000 0.0000 0.0000 0.0000 0.0000 2.5652
#
#
#
# Elastic Compliance Matrix: (Units=1/GPa)
#
#
# Indices 1 2 3 4 5 6 
#
# 1 0.025688 -0.010826 -0.001535 0.000000 0.000000 0.000000
# 2 -0.010826 0.021166 -0.007284 0.000000 0.000000 0.000000
# 3 -0.001535 -0.007284 0.012951 0.000000 0.000000 0.000000
# 4 0.000000 0.000000 0.000000 0.032479 0.000000 0.000000
# 5 0.000000 0.000000 0.000000 0.000000 0.035507 0.000000
# 6 0.000000 0.000000 0.000000 0.000000 0.000000 0.389827
#
#
# Mechanical properties :
#
#
# Convention : Reuss Voigt Hill
#
# Bulk Modulus (GPa) = 48.74785 54.88220 51.81503
# Shear Modulus (GPa) = 8.86926 21.11659 14.99293
#
# Velocity S-wave (km/s) = 2.30357 3.55443 2.99503
# Velocity P-wave (km/s) = 6.02004 7.04848 6.55446
#
# Compressibility (1/GPa) = 0.02051372
#
# Stress axis : x y z
#
# Youngs Moduli (GPa) = 38.92942 47.24650 77.21536
#
# Poissons Ratio (x) = 0.51147 0.11855
# Poissons Ratio (y) = 0.42143 0.56245
# Poissons Ratio (z) = 0.05977 0.34415
#
# Static dielectric constant tensor:
#      x y z
#    x 2.961620 0.000000 0.000000 
#    y 0.000000 3.098850 0.000000 
#    z 0.000000 0.000000 3.372210 
# 
# 
# High freq. dielectric constant tensor:
#      x y z
#    x 1.620930 0.000000 0.000000 
#    y 0.000000 1.630540 0.000000 
#    z 0.000000 0.000000 1.668920 
# 
# From -- ./inp_files/15647.got.cif
#   From: 2010.06.25/outbox.cif.g09.slc.cpg/sg71_8_cif.got.tgz:15647.got - 2010.06.28 04:59:45.
