data_PCOD8288708
_publ_section_title
;
Structure prediction by ZEFSAII (Michael W. Deem and Ramdas Pophale) SiO2 
 PCOD8288708
Probable space group: I M M M
;
_chemical_formula_sum "Si O2"
_cell_formula_units_Z 88
_cell_length_a 13.272148
_cell_length_b 19.939120
_cell_length_c 18.536262
_cell_angle_alpha 90.000000
_cell_angle_beta 90.000000
_cell_angle_gamma 90.000000
_cell_volume 4905.342798
_symmetry_space_group_name_H-M "I M M M"
_symmetry_group_IT_number 71
_symmetry_cell_setting 'orthorhombic'
loop_
_space_group_symop_operation_xyz
x,y,z
-x,-y,z
x,-y,-z
-x,y,-z
-x,-y,-z
x,y,-z
-x,y,z
x,-y,z
1/2+x,1/2+y,1/2+z
1/2-x,1/2-y,1/2+z
1/2+x,1/2-y,1/2-z
1/2-x,1/2+y,1/2-z
1/2-x,1/2-y,1/2-z
1/2+x,1/2+y,1/2-z
1/2-x,1/2+y,1/2+z
1/2+x,1/2-y,1/2+z
loop_
_atom_site_type_symbol
_atom_site_label
_atom_site_fract_x
_atom_site_fract_y
_atom_site_fract_z
Si Si1 0.116975 0.292180 0.787602
Si Si2 0.384017 0.577553 0.154391
Si Si3 0.699587 0.648331 0.286341
Si Si4 0.889108 0.500000 0.085585
Si Si5 0.616233 0.422219 0.582310
Si Si6 0.791409 0.362915 0.916568
O O1 0.183113 0.335838 0.731077
O O2 0.131848 0.213925 0.772063
O O3 0.156834 0.304977 0.869344
O O4 0.000000 0.311909 0.779337
O O5 0.500000 0.596854 0.149502
O O6 0.366559 0.500000 0.133198
O O7 0.342577 0.589889 0.234849
O O8 0.327715 0.628196 0.098672
O O9 0.689210 0.622650 0.368147
O O10 0.835471 0.566829 0.112754
O O11 0.000000 0.500000 0.119022
O O12 0.891242 0.500000 0.000000
O O13 0.636160 0.400665 0.500000
O O14 0.500000 0.408655 0.603200
O O15 0.642242 0.500000 0.593118
O O16 0.813535 0.347259 0.000000
#
# Coordination Sequence:
#
# PCOD8288708 Si02
#       6
#    16  16  16   8  16  16
#     4  10  21  35  51  73 100 133 171 206 243 291
#     4  10  19  31  51  76 101 133 169 205 249 299
#     4  10  20  34  53  74 101 133 164 204 249 296
#     4   9  16  28  45  61  85 123 159 196 240 280
#     4   9  17  30  52  81 106 127 156 200 255 306
#     4  10  20  33  48  71 100 131 168 207 248 293
#
# _framework density 17.939623999999998
#
# number of rings (size 3 to 8) (size 9 to 14) (size 15 to 20)
#    0.000    2.273    0.909    3.273    0.000    3.636 
#    0.000    0.909    0.000    0.545    0.000    1.273 
#    0.000    0.000    0.000    0.000    0.000    0.000 
#
# Total GULP energy -545547.882304 kJ/mol
# GULP energy per Si atom -12398.815507 kJ/mol
# Density = 1.789879 g / cm^3
# Si number density = 17.939624 Si / 1000 Ang^3
#
#
#
# Elastic Constant Matrix: (Units=GPa)
#
#
# Indices 1 2 3 4 5 6 
#
# 1 129.3620 30.0585 42.2603 0.0000 0.0000 0.0000
# 2 30.0585 43.0460 25.5340 0.0000 0.0000 0.0000
# 3 42.2603 25.5340 97.0454 0.0000 0.0000 0.0000
# 4 0.0000 0.0000 0.0000 24.1801 0.0000 0.0000
# 5 0.0000 0.0000 0.0000 0.0000 21.9968 0.0000
# 6 0.0000 0.0000 0.0000 0.0000 0.0000 23.4763
#
#
#
# Elastic Compliance Matrix: (Units=1/GPa)
#
#
# Indices 1 2 3 4 5 6 
#
# 1 0.009893 -0.005157 -0.002951 0.000000 0.000000 0.000000
# 2 -0.005157 0.030216 -0.005704 0.000000 0.000000 0.000000
# 3 -0.002951 -0.005704 0.013090 0.000000 0.000000 0.000000
# 4 0.000000 0.000000 0.000000 0.041356 0.000000 0.000000
# 5 0.000000 0.000000 0.000000 0.000000 0.045461 0.000000
# 6 0.000000 0.000000 0.000000 0.000000 0.000000 0.042596
#
#
# Mechanical properties :
#
#
# Convention : Reuss Voigt Hill
#
# Bulk Modulus (GPa) = 39.10287 51.68434 45.39360
# Shear Modulus (GPa) = 22.85581 25.37068 24.11325
#
# Velocity S-wave (km/s) = 3.57324 3.76470 3.67022
# Velocity P-wave (km/s) = 6.23445 6.91158 6.58173
#
# Compressibility (1/GPa) = 0.02557357
#
# Stress axis : x y z
#
# Youngs Moduli (GPa) = 101.08509 33.09498 76.39192
#
# Poissons Ratio (x) = 0.17069 0.22543
# Poissons Ratio (y) = 0.52134 0.43577
# Poissons Ratio (z) = 0.29830 0.18879
#
# Static dielectric constant tensor:
#      x y z
#    x 3.342530 0.000000 0.000000 
#    y 0.000000 3.268440 0.000000 
#    z 0.000000 0.000000 3.175070 
# 
# 
# High freq. dielectric constant tensor:
#      x y z
#    x 1.688840 0.000000 0.000000 
#    y 0.000000 1.689180 0.000000 
#    z 0.000000 0.000000 1.681700 
# 
# From -- ./inp_files/38014.got.cif
#   From: 2010.06.25/outbox.cif.g09.slc.cpg/sg71_20_cif.got.tgz:38014.got - 2010.06.28 04:59:45.
