data_PCOD8288335
_publ_section_title
;
Structure prediction by ZEFSAII (Michael W. Deem and Ramdas Pophale) SiO2 
 PCOD8288335
Probable space group: I M M M
;
_chemical_formula_sum "Si O2"
_cell_formula_units_Z 104
_cell_length_a 24.077529
_cell_length_b 26.448251
_cell_length_c 9.416008
_cell_angle_alpha 90.000000
_cell_angle_beta 90.000000
_cell_angle_gamma 90.000000
_cell_volume 5996.194217
_symmetry_space_group_name_H-M "I M M M"
_symmetry_group_IT_number 71
_symmetry_cell_setting 'orthorhombic'
loop_
_space_group_symop_operation_xyz
x,y,z
-x,-y,z
x,-y,-z
-x,y,-z
-x,-y,-z
x,y,-z
-x,y,z
x,-y,z
1/2+x,1/2+y,1/2+z
1/2-x,1/2-y,1/2+z
1/2+x,1/2-y,1/2-z
1/2-x,1/2+y,1/2-z
1/2-x,1/2-y,1/2-z
1/2+x,1/2+y,1/2-z
1/2-x,1/2+y,1/2+z
1/2+x,1/2-y,1/2+z
loop_
_atom_site_type_symbol
_atom_site_label
_atom_site_fract_x
_atom_site_fract_y
_atom_site_fract_z
Si Si1 0.650591 0.556436 0.168567
Si Si2 0.062300 0.135942 0.669625
Si Si3 0.239872 0.863272 0.666474
Si Si4 0.157602 0.671111 0.335088
Si Si5 0.563276 0.094346 0.162305
Si Si6 0.148267 0.783617 0.332723
Si Si7 0.433894 0.000000 0.659988
O O1 0.651494 0.500000 0.234862
O O2 0.595857 0.586335 0.222847
O O3 0.706135 0.586593 0.213630
O O4 0.648369 0.553649 0.000000
O O5 0.061034 0.136337 0.500000
O O6 0.094346 0.186089 0.725859
O O7 0.000000 0.134918 0.732700
O O8 0.253395 0.864591 0.500000
O O9 0.296605 0.861466 0.753136
O O10 0.203909 0.813921 0.706567
O O11 0.174643 0.673049 0.500000
O O12 0.098354 0.644824 0.312307
O O13 0.152232 0.727337 0.268024
O O14 0.500000 0.107560 0.203266
O O15 0.587958 0.049811 0.260150
O O16 0.567428 0.075734 0.000000
O O17 0.141457 0.779268 0.500000
O O18 0.500000 0.000000 0.663634
O O19 0.410514 0.000000 0.500000
#
# Coordination Sequence:
#
# PCOD8288335 Si02
#       7
#    16  16  16  16  16  16   8
#     4   8  14  25  40  59  87 121 152 183 223 268
#     4   8  13  21  36  61  91 121 151 182 218 263
#     4   9  17  30  46  63  88 122 156 187 225 269
#     4  10  19  30  46  68  90 114 150 190 225 266
#     4   9  18  32  48  66  90 118 144 177 228 279
#     4   8  15  27  42  61  88 121 151 184 226 269
#     4   9  17  31  51  69  85 111 145 177 210 257
#
# _framework density 17.344335000000001
#
# number of rings (size 3 to 8) (size 9 to 14) (size 15 to 20)
#    0.000    3.308    0.000    2.538    0.000    2.462 
#    1.385    4.615    0.000    0.000    0.000    0.000 
#    0.000   14.769    0.000    5.538    0.000    6.154 
#
# Total GULP energy -644541.545730 kJ/mol
# GULP energy per Si atom -12395.029726 kJ/mol
# Density = 1.730486 g / cm^3
# Si number density = 17.344335 Si / 1000 Ang^3
#
#
#
# Elastic Constant Matrix: (Units=GPa)
#
#
# Indices 1 2 3 4 5 6 
#
# 1 112.7360 57.6630 27.8325 0.0000 0.0000 0.0000
# 2 57.6630 112.8456 27.2649 0.0000 0.0000 0.0000
# 3 27.8325 27.2649 35.1818 0.0000 0.0000 0.0000
# 4 0.0000 0.0000 0.0000 11.8233 0.0000 0.0000
# 5 0.0000 0.0000 0.0000 0.0000 17.4842 0.0000
# 6 0.0000 0.0000 0.0000 0.0000 0.0000 17.9654
#
#
#
# Elastic Compliance Matrix: (Units=1/GPa)
#
#
# Indices 1 2 3 4 5 6 
#
# 1 0.013070 -0.005143 -0.006353 0.000000 0.000000 0.000000
# 2 -0.005143 0.012927 -0.005949 0.000000 0.000000 0.000000
# 3 -0.006353 -0.005949 0.038061 0.000000 0.000000 0.000000
# 4 0.000000 0.000000 0.000000 0.084579 0.000000 0.000000
# 5 0.000000 0.000000 0.000000 0.000000 0.057195 0.000000
# 6 0.000000 0.000000 0.000000 0.000000 0.000000 0.055663
#
#
# Mechanical properties :
#
#
# Convention : Reuss Voigt Hill
#
# Bulk Modulus (GPa) = 34.28744 54.03156 44.15950
# Shear Modulus (GPa) = 16.33412 19.32144 17.82778
#
# Velocity S-wave (km/s) = 3.07213 3.34127 3.20952
# Velocity P-wave (km/s) = 5.69171 6.79009 6.26502
#
# Compressibility (1/GPa) = 0.02916520
#
# Stress axis : x y z
#
# Youngs Moduli (GPa) = 76.51352 77.35562 26.27383
#
# Poissons Ratio (x) = 0.39787 0.16693
# Poissons Ratio (y) = 0.39354 0.15631
# Poissons Ratio (z) = 0.48612 0.46022
#
# Static dielectric constant tensor:
#      x y z
#    x 3.227800 0.000000 0.000000 
#    y 0.000000 3.606170 0.000000 
#    z 0.000000 0.000000 2.766880 
# 
# 
# High freq. dielectric constant tensor:
#      x y z
#    x 1.665390 0.000000 0.000000 
#    y 0.000000 1.677430 0.000000 
#    z 0.000000 0.000000 1.614260 
# 
# From -- ./inp_files/13288.got.cif
#   From: 2010.06.25/outbox.cif.g09.slc.cpg/sg71_7_cif.got.tgz:13288.got - 2010.06.28 04:59:45.
