data_PCOD8288266
_publ_section_title
;
Structure prediction by ZEFSAII (Michael W. Deem and Ramdas Pophale) SiO2 
 PCOD8288266
Probable space group: I M M M
;
_chemical_formula_sum "Si O2"
_cell_formula_units_Z 96
_cell_length_a 23.796662
_cell_length_b 18.306199
_cell_length_c 13.685826
_cell_angle_alpha 90.000000
_cell_angle_beta 90.000000
_cell_angle_gamma 90.000000
_cell_volume 5961.907523
_symmetry_space_group_name_H-M "I M M M"
_symmetry_group_IT_number 71
_symmetry_cell_setting 'orthorhombic'
loop_
_space_group_symop_operation_xyz
x,y,z
-x,-y,z
x,-y,-z
-x,y,-z
-x,-y,-z
x,y,-z
-x,y,z
x,-y,z
1/2+x,1/2+y,1/2+z
1/2-x,1/2-y,1/2+z
1/2+x,1/2-y,1/2-z
1/2-x,1/2+y,1/2-z
1/2-x,1/2-y,1/2-z
1/2+x,1/2+y,1/2-z
1/2-x,1/2+y,1/2+z
1/2+x,1/2-y,1/2+z
loop_
_atom_site_type_symbol
_atom_site_label
_atom_site_fract_x
_atom_site_fract_y
_atom_site_fract_z
Si Si1 0.657873 0.083570 0.885797
Si Si2 0.563827 0.196832 0.112355
Si Si3 0.435901 0.349069 0.204929
Si Si4 0.668017 0.414082 0.106796
Si Si5 0.228756 0.086162 0.205885
Si Si6 0.885843 0.085441 0.111174
O O1 0.603520 0.130097 0.856226
O O2 0.711767 0.118260 0.829811
O O3 0.646091 0.000000 0.854824
O O4 0.671157 0.088479 0.000000
O O5 0.500000 0.169736 0.125918
O O6 0.577280 0.264407 0.183171
O O7 0.574767 0.220462 0.000000
O O8 0.500000 0.367519 0.176909
O O9 0.395833 0.398510 0.138333
O O10 0.425551 0.366160 0.319210
O O11 0.675219 0.500000 0.101767
O O12 0.711758 0.382062 0.186983
O O13 0.680547 0.379402 0.000000
O O14 0.179300 0.105855 0.129896
O O15 0.235683 0.000000 0.211003
O O16 0.896141 0.000000 0.134153
O O17 0.901399 0.104411 0.000000
#
# Coordination Sequence:
#
# PCOD8288266 Si02
#       6
#    16  16  16  16  16  16
#     4   9  16  27  47  71  89 109 140 175 213 262
#     4   9  18  31  45  63  89 118 144 174 216 260
#     4  10  19  30  43  59  84 118 151 180 214 257
#     4   9  17  28  42  61  86 116 148 181 213 245
#     4   8  14  26  44  65  88 112 140 176 217 259
#     4   9  17  29  45  65  90 118 147 182 219 250
#
# _framework density 16.102229000000001
#
# number of rings (size 3 to 8) (size 9 to 14) (size 15 to 20)
#    0.000    3.000    0.000    2.500    0.000    5.000 
#    0.000    6.667    0.000    3.000    0.000    0.000 
#    0.000    0.000    0.000   10.167    0.000    0.333 
#
# Total GULP energy -594955.016682 kJ/mol
# GULP energy per Si atom -12394.896181 kJ/mol
# Density = 1.606558 g / cm^3
# Si number density = 16.102229 Si / 1000 Ang^3
#
#
#
# Elastic Constant Matrix: (Units=GPa)
#
#
# Indices 1 2 3 4 5 6 
#
# 1 91.9716 34.3391 43.9756 0.0000 0.0000 0.0000
# 2 34.3391 43.8543 37.8827 0.0000 0.0000 0.0000
# 3 43.9756 37.8827 101.7492 0.0000 0.0000 0.0000
# 4 0.0000 0.0000 0.0000 18.4120 0.0000 0.0000
# 5 0.0000 0.0000 0.0000 0.0000 19.7242 0.0000
# 6 0.0000 0.0000 0.0000 0.0000 0.0000 13.8962
#
#
#
# Elastic Compliance Matrix: (Units=1/GPa)
#
#
# Indices 1 2 3 4 5 6 
#
# 1 0.016099 -0.009722 -0.003338 0.000000 0.000000 0.000000
# 2 -0.009722 0.039485 -0.010499 0.000000 0.000000 0.000000
# 3 -0.003338 -0.010499 0.015180 0.000000 0.000000 0.000000
# 4 0.000000 0.000000 0.000000 0.054312 0.000000 0.000000
# 5 0.000000 0.000000 0.000000 0.000000 0.050699 0.000000
# 6 0.000000 0.000000 0.000000 0.000000 0.000000 0.071962
#
#
# Mechanical properties :
#
#
# Convention : Reuss Voigt Hill
#
# Bulk Modulus (GPa) = 42.29241 52.21885 47.25563
# Shear Modulus (GPa) = 16.51597 18.49834 17.50715
#
# Velocity S-wave (km/s) = 3.20612 3.39308 3.30093
# Velocity P-wave (km/s) = 6.32674 6.91742 6.62866
#
# Compressibility (1/GPa) = 0.02364490
#
# Stress axis : x y z
#
# Youngs Moduli (GPa) = 62.11550 25.32617 65.87758
#
# Poissons Ratio (x) = 0.24623 0.21991
# Poissons Ratio (y) = 0.60391 0.69164
# Poissons Ratio (z) = 0.20735 0.26589
#
# Static dielectric constant tensor:
#      x y z
#    x 3.126350 0.000000 0.000000 
#    y 0.000000 2.779920 0.000000 
#    z 0.000000 0.000000 3.331210 
# 
# 
# High freq. dielectric constant tensor:
#      x y z
#    x 1.617570 0.000000 0.000000 
#    y 0.000000 1.585230 0.000000 
#    z 0.000000 0.000000 1.613360 
# 
# From -- ./inp_files/38250.got.cif
#   From: 2010.06.25/outbox.cif.g09.slc.cpg/sg71_20_cif.got.tgz:38250.got - 2010.06.28 04:59:45.
