data_PCOD8288494
_publ_section_title
;
Structure prediction by ZEFSAII (Michael W. Deem and Ramdas Pophale) SiO2 
 PCOD8288494
Probable space group: I M M M
;
_chemical_formula_sum "Si O2"
_cell_formula_units_Z 104
_cell_length_a 13.511783
_cell_length_b 23.456734
_cell_length_c 18.625443
_cell_angle_alpha 90.000000
_cell_angle_beta 90.000000
_cell_angle_gamma 90.000000
_cell_volume 5903.190737
_symmetry_space_group_name_H-M "I M M M"
_symmetry_group_IT_number 71
_symmetry_cell_setting 'orthorhombic'
loop_
_space_group_symop_operation_xyz
x,y,z
-x,-y,z
x,-y,-z
-x,y,-z
-x,-y,-z
x,y,-z
-x,y,z
x,-y,z
1/2+x,1/2+y,1/2+z
1/2-x,1/2-y,1/2+z
1/2+x,1/2-y,1/2-z
1/2-x,1/2+y,1/2-z
1/2-x,1/2-y,1/2-z
1/2+x,1/2+y,1/2-z
1/2-x,1/2+y,1/2+z
1/2+x,1/2-y,1/2+z
loop_
_atom_site_type_symbol
_atom_site_label
_atom_site_fract_x
_atom_site_fract_y
_atom_site_fract_z
Si Si1 0.291531 0.564461 0.145355
Si Si2 0.882932 0.062237 0.080853
Si Si3 0.614264 0.320495 0.644107
Si Si4 0.237828 0.721446 0.918472
Si Si5 0.390429 0.432359 0.000000
Si Si6 0.114241 0.828547 0.306489
Si Si7 0.612061 0.110905 0.417671
O O1 0.324057 0.500000 0.163758
O O2 0.333672 0.589252 0.069897
O O3 0.338665 0.607742 0.202126
O O4 0.173075 0.568711 0.135336
O O5 0.848905 0.114197 0.131982
O O6 0.000000 0.059243 0.080450
O O7 0.842278 0.000000 0.108025
O O8 0.844117 0.073604 0.000000
O O9 0.500000 0.313626 0.618736
O O10 0.685906 0.281363 0.597270
O O11 0.624155 0.302194 0.727262
O O12 0.328190 0.710606 0.863646
O O13 0.153086 0.674376 0.908575
O O14 0.279155 0.721808 0.000000
O O15 0.393536 0.500000 0.000000
O O16 0.500000 0.406233 0.000000
O O17 0.000000 0.833017 0.330093
O O18 0.619283 0.089595 0.500000
O O19 0.500000 0.109973 0.390274
#
# Coordination Sequence:
#
# PCOD8288494 Si02
#       7
#    16  16  16  16   8  16  16
#     4  10  19  31  45  66  93 126 167 202 241 293
#     4   8  14  25  43  70 102 130 156 190 232 283
#     4  10  19  32  51  74 100 130 161 194 244 305
#     4  10  20  34  52  72  95 126 167 208 245 295
#     4   9  16  26  41  59  81 115 160 202 230 265
#     4  10  22  35  48  69  98 131 163 205 254 297
#     4   9  17  29  45  67  94 120 152 201 253 290
#
# _framework density 17.617591999999998
#
# number of rings (size 3 to 8) (size 9 to 14) (size 15 to 20)
#    0.000    2.538    0.769    2.308    1.077    3.692 
#    0.000    2.308    0.000    0.000    0.000    0.000 
#    0.000    0.615    0.000    3.231    0.000    0.154 
#
# Total GULP energy -644538.769434 kJ/mol
# GULP energy per Si atom -12394.976335 kJ/mol
# Density = 1.757749 g / cm^3
# Si number density = 17.617592 Si / 1000 Ang^3
#
#
#
# Elastic Constant Matrix: (Units=GPa)
#
#
# Indices 1 2 3 4 5 6 
#
# 1 89.6331 20.6438 22.3342 0.0000 0.0000 0.0000
# 2 20.6438 86.2985 22.8295 0.0000 0.0000 0.0000
# 3 22.3342 22.8295 61.3447 0.0000 0.0000 0.0000
# 4 0.0000 0.0000 0.0000 23.8769 0.0000 0.0000
# 5 0.0000 0.0000 0.0000 0.0000 20.6956 0.0000
# 6 0.0000 0.0000 0.0000 0.0000 0.0000 20.2904
#
#
#
# Elastic Compliance Matrix: (Units=1/GPa)
#
#
# Indices 1 2 3 4 5 6 
#
# 1 0.012571 -0.001993 -0.003835 0.000000 0.000000 0.000000
# 2 -0.001993 0.013169 -0.004175 0.000000 0.000000 0.000000
# 3 -0.003835 -0.004175 0.019252 0.000000 0.000000 0.000000
# 4 0.000000 0.000000 0.000000 0.041881 0.000000 0.000000
# 5 0.000000 0.000000 0.000000 0.000000 0.048319 0.000000
# 6 0.000000 0.000000 0.000000 0.000000 0.000000 0.049284
#
#
# Mechanical properties :
#
#
# Convention : Reuss Voigt Hill
#
# Bulk Modulus (GPa) = 40.02393 40.98792 40.50593
# Shear Modulus (GPa) = 23.49495 24.40385 23.94940
#
# Velocity S-wave (km/s) = 3.65582 3.72586 3.69101
# Velocity P-wave (km/s) = 6.37083 6.46724 6.41922
#
# Compressibility (1/GPa) = 0.02498505
#
# Stress axis : x y z
#
# Youngs Moduli (GPa) = 79.54702 75.93650 51.94391
#
# Poissons Ratio (x) = 0.15131 0.19922
# Poissons Ratio (y) = 0.15851 0.21688
# Poissons Ratio (z) = 0.30509 0.31706
#
# Static dielectric constant tensor:
#      x y z
#    x 3.143700 0.000000 0.000000 
#    y 0.000000 3.328450 0.000000 
#    z 0.000000 0.000000 3.160570 
# 
# 
# High freq. dielectric constant tensor:
#      x y z
#    x 1.655830 0.000000 0.000000 
#    y 0.000000 1.678740 0.000000 
#    z 0.000000 0.000000 1.664010 
# 
# From -- ./inp_files/45129.got.cif
#   From: 2010.06.25/outbox.cif.g09.slc.cpg/sg71_23_cif.got.tgz:45129.got - 2010.06.28 04:59:45.
