data_PCOD8288411
_publ_section_title
;
Structure prediction by ZEFSAII (Michael W. Deem and Ramdas Pophale) SiO2 
 PCOD8288411
Probable space group: I M M M
;
_chemical_formula_sum "Si O2"
_cell_formula_units_Z 80
_cell_length_a 7.695837
_cell_length_b 23.153488
_cell_length_c 25.052841
_cell_angle_alpha 90.000000
_cell_angle_beta 90.000000
_cell_angle_gamma 90.000000
_cell_volume 4464.052239
_symmetry_space_group_name_H-M "I M M M"
_symmetry_group_IT_number 71
_symmetry_cell_setting 'orthorhombic'
loop_
_space_group_symop_operation_xyz
x,y,z
-x,-y,z
x,-y,-z
-x,y,-z
-x,-y,-z
x,y,-z
-x,y,z
x,-y,z
1/2+x,1/2+y,1/2+z
1/2-x,1/2-y,1/2+z
1/2+x,1/2-y,1/2-z
1/2-x,1/2+y,1/2-z
1/2-x,1/2-y,1/2-z
1/2+x,1/2+y,1/2-z
1/2-x,1/2+y,1/2+z
1/2+x,1/2-y,1/2+z
loop_
_atom_site_type_symbol
_atom_site_label
_atom_site_fract_x
_atom_site_fract_y
_atom_site_fract_z
Si Si1 0.195487 0.628518 0.940793
Si Si2 0.500000 0.435144 0.233283
Si Si3 0.700150 0.758803 0.057835
Si Si4 0.694968 0.154159 0.738149
Si Si5 0.196194 0.236488 0.174325
Si Si6 0.500000 0.561946 0.109800
O O1 0.276622 0.691066 0.944309
O O2 0.320169 0.592327 0.903667
O O3 0.000000 0.629904 0.916532
O O4 0.191632 0.601251 0.000000
O O5 0.500000 0.500000 0.260731
O O6 0.672848 0.398681 0.247691
O O7 0.500000 0.446613 0.171717
O O8 0.500000 0.775328 0.063260
O O9 0.794085 0.780510 0.111510
O O10 0.771073 0.783726 0.000000
O O11 0.500000 0.129538 0.728752
O O12 0.687193 0.192758 0.791850
O O13 0.750573 0.196586 0.688208
O O14 0.000000 0.227930 0.193927
O O15 0.500000 0.500000 0.080784
#
# Coordination Sequence:
#
# PCOD8288411 Si02
#       6
#    16   8  16  16  16   8
#     4  10  20  34  50  69  95 131 175 216 259 312
#     4  11  24  39  54  75 105 140 180 225 269 326
#     4  10  19  30  47  74 107 140 169 201 254 318
#     4  10  21  36  55  80 106 138 180 223 273 320
#     4  10  19  32  54  81 109 139 176 224 265 319
#     4  11  23  36  51  68  92 129 176 226 269 303
#
# _framework density 17.920936999999999
#
# number of rings (size 3 to 8) (size 9 to 14) (size 15 to 20)
#    0.000    1.800    2.000    2.700    2.800    5.200 
#    0.000    3.000    0.000    0.000    0.000    0.000 
#    0.000    1.600    0.000    4.200    0.000    0.000 
#
# Total GULP energy -495536.365725 kJ/mol
# GULP energy per Si atom -12388.409143 kJ/mol
# Density = 1.788015 g / cm^3
# Si number density = 17.920937 Si / 1000 Ang^3
#
#
#
# Elastic Constant Matrix: (Units=GPa)
#
#
# Indices 1 2 3 4 5 6 
#
# 1 70.3533 29.0865 7.3983 0.0000 0.0000 0.0000
# 2 29.0865 62.6468 8.9200 0.0000 0.0000 0.0000
# 3 7.3983 8.9200 94.8698 0.0000 0.0000 0.0000
# 4 0.0000 0.0000 0.0000 14.9017 0.0000 0.0000
# 5 0.0000 0.0000 0.0000 0.0000 25.4786 0.0000
# 6 0.0000 0.0000 0.0000 0.0000 0.0000 -172.4574
#
#
#
# Elastic Compliance Matrix: (Units=1/GPa)
#
#
# Indices 1 2 3 4 5 6 
#
# 1 0.017626 -0.008096 -0.000613 0.000000 0.000000 0.000000
# 2 -0.008096 0.019898 -0.001240 0.000000 0.000000 0.000000
# 3 -0.000613 -0.001240 0.010705 0.000000 0.000000 0.000000
# 4 0.000000 0.000000 0.000000 0.067107 0.000000 0.000000
# 5 0.000000 0.000000 0.000000 0.000000 0.039249 0.000000
# 6 0.000000 0.000000 0.000000 0.000000 0.000000 -0.005799
#
#
# Mechanical properties :
#
#
# Convention : Reuss Voigt Hill
#
# Bulk Modulus (GPa) = 35.29717 35.40884 35.35300
# Shear Modulus (GPa) = 28.06984 -14.25110 6.90937
#
# Velocity S-wave (km/s) = 3.96196 -2.82302 1.96567
# Velocity P-wave (km/s) = 6.37717 3.02908 4.99218
#
# Compressibility (1/GPa) = 0.02833088
#
# Stress axis : x y z
#
# Youngs Moduli (GPa) = 56.73527 50.25632 93.41309
#
# Poissons Ratio (x) = 0.40688 0.05729
# Poissons Ratio (y) = 0.45934 0.11579
# Poissons Ratio (z) = 0.03480 0.06229
#
# Static dielectric constant tensor:
#      x y z
#    x 3.365300 0.000000 0.000000 
#    y 0.000000 3.064230 0.000000 
#    z 0.000000 0.000000 3.544220 
# 
# 
# High freq. dielectric constant tensor:
#      x y z
#    x 1.709100 0.000000 0.000000 
#    y 0.000000 1.633280 0.000000 
#    z 0.000000 0.000000 1.693970 
# 
# From -- ./inp_files/57704.got.cif
#   From: 2010.06.25/outbox.cif.g09.slc.cpg/sg71_29_cif.got.tgz:57704.got - 2010.06.28 04:59:45.
