data_PCOD8288622
_publ_section_title
;
Structure prediction by ZEFSAII (Michael W. Deem and Ramdas Pophale) SiO2 
 PCOD8288622
Probable space group: I M M M
;
_chemical_formula_sum "Si O2"
_cell_formula_units_Z 88
_cell_length_a 30.592627
_cell_length_b 18.203768
_cell_length_c 8.930443
_cell_angle_alpha 90.000000
_cell_angle_beta 90.000000
_cell_angle_gamma 90.000000
_cell_volume 4973.373391
_symmetry_space_group_name_H-M "I M M M"
_symmetry_group_IT_number 71
_symmetry_cell_setting 'orthorhombic'
loop_
_space_group_symop_operation_xyz
x,y,z
-x,-y,z
x,-y,-z
-x,y,-z
-x,-y,-z
x,y,-z
-x,y,z
x,-y,z
1/2+x,1/2+y,1/2+z
1/2-x,1/2-y,1/2+z
1/2+x,1/2-y,1/2-z
1/2-x,1/2+y,1/2-z
1/2-x,1/2-y,1/2-z
1/2+x,1/2+y,1/2-z
1/2-x,1/2+y,1/2+z
1/2+x,1/2-y,1/2+z
loop_
_atom_site_type_symbol
_atom_site_label
_atom_site_fract_x
_atom_site_fract_y
_atom_site_fract_z
Si Si1 0.253532 0.584525 0.830849
Si Si2 0.951206 0.341372 0.821148
Si Si3 0.210298 0.706694 0.323645
Si Si4 0.375849 0.734725 0.325788
Si Si5 0.948138 0.500000 0.163774
Si Si6 0.344013 0.418454 0.327981
O O1 0.241600 0.500000 0.824266
O O2 0.216744 0.622877 0.729207
O O3 0.302150 0.600185 0.771622
O O4 0.251757 0.615040 0.000000
O O5 0.919369 0.275892 0.767099
O O6 0.935233 0.421967 0.756634
O O7 0.000000 0.322809 0.761870
O O8 0.951932 0.346812 0.000000
O O9 0.212839 0.713505 0.500000
O O10 0.250000 0.750000 0.250000
O O11 0.164180 0.735540 0.268699
O O12 0.367833 0.752388 0.500000
O O13 0.379885 0.646019 0.300229
O O14 0.000000 0.500000 0.146779
O O15 0.925964 0.500000 0.000000
O O16 0.328504 0.417091 0.500000
O O17 0.363068 0.500000 0.287868
#
# Coordination Sequence:
#
# PCOD8288622 Si02
#       6
#    16  16  16  16   8  16
#     4  10  20  34  52  72  95 128 171 212 247 292
#     4   8  14  26  46  71  98 127 161 203 249 296
#     4  12  23  35  51  71 101 136 169 208 254 301
#     4  10  19  31  49  73  99 128 166 209 254 301
#     4   7  10  20  40  66  95 125 157 195 239 287
#     4   9  17  29  46  67  93 129 169 207 246 292
#
# _framework density 17.694227000000001
#
# number of rings (size 3 to 8) (size 9 to 14) (size 15 to 20)
#    0.000    2.455    1.818    3.273    0.000    1.091 
#    1.636    0.000    0.000    1.091    0.000    3.818 
#    0.000    2.182    0.000    6.182    0.000    6.545 
#
# Total GULP energy -545144.033834 kJ/mol
# GULP energy per Si atom -12389.637133 kJ/mol
# Density = 1.765395 g / cm^3
# Si number density = 17.694227 Si / 1000 Ang^3
#
#
#
# Elastic Constant Matrix: (Units=GPa)
#
#
# Indices 1 2 3 4 5 6 
#
# 1 92.0419 73.2898 34.0379 0.0000 0.0000 0.0000
# 2 73.2898 153.7253 37.5163 0.0000 0.0000 0.0000
# 3 34.0379 37.5163 70.6977 0.0000 0.0000 0.0000
# 4 0.0000 0.0000 0.0000 17.2337 0.0000 0.0000
# 5 0.0000 0.0000 0.0000 0.0000 14.0252 0.0000
# 6 0.0000 0.0000 0.0000 0.0000 0.0000 31.7927
#
#
#
# Elastic Compliance Matrix: (Units=1/GPa)
#
#
# Indices 1 2 3 4 5 6 
#
# 1 0.018917 -0.007807 -0.004965 0.000000 0.000000 0.000000
# 2 -0.007807 0.010695 -0.001917 0.000000 0.000000 0.000000
# 3 -0.004965 -0.001917 0.017552 0.000000 0.000000 0.000000
# 4 0.000000 0.000000 0.000000 0.058026 0.000000 0.000000
# 5 0.000000 0.000000 0.000000 0.000000 0.071300 0.000000
# 6 0.000000 0.000000 0.000000 0.000000 0.000000 0.031454
#
#
# Mechanical properties :
#
#
# Convention : Reuss Voigt Hill
#
# Bulk Modulus (GPa) = 56.22056 67.35031 61.78543
# Shear Modulus (GPa) = 20.55490 24.05171 22.30330
#
# Velocity S-wave (km/s) = 3.41203 3.69086 3.55418
# Velocity P-wave (km/s) = 6.88222 7.50396 7.19980
#
# Compressibility (1/GPa) = 0.01778709
#
# Stress axis : x y z
#
# Youngs Moduli (GPa) = 52.86133 93.50112 56.97316
#
# Poissons Ratio (x) = 0.73000 0.28286
# Poissons Ratio (y) = 0.41271 0.10919
# Poissons Ratio (z) = 0.26245 0.17920
#
# Static dielectric constant tensor:
#      x y z
#    x 3.147950 0.000000 0.000000 
#    y 0.000000 3.989950 0.000000 
#    z 0.000000 0.000000 3.154790 
# 
# 
# High freq. dielectric constant tensor:
#      x y z
#    x 1.640230 0.000000 0.000000 
#    y 0.000000 1.709050 0.000000 
#    z 0.000000 0.000000 1.657030 
# 
# From -- ./inp_files/16886.got.cif
#   From: 2010.06.25/outbox.cif.g09.slc.cpg/sg71_9_cif.got.tgz:16886.got - 2010.06.28 04:59:45.
