data_PCOD8288570
_publ_section_title
;
Structure prediction by ZEFSAII (Michael W. Deem and Ramdas Pophale) SiO2 
 PCOD8288570
Probable space group: I M M M
;
_chemical_formula_sum "Si O2"
_cell_formula_units_Z 80
_cell_length_a 13.558680
_cell_length_b 26.112092
_cell_length_c 12.957270
_cell_angle_alpha 90.000000
_cell_angle_beta 90.000000
_cell_angle_gamma 90.000000
_cell_volume 4587.463130
_symmetry_space_group_name_H-M "I M M M"
_symmetry_group_IT_number 71
_symmetry_cell_setting 'orthorhombic'
loop_
_space_group_symop_operation_xyz
x,y,z
-x,-y,z
x,-y,-z
-x,y,-z
-x,-y,-z
x,y,-z
-x,y,z
x,-y,z
1/2+x,1/2+y,1/2+z
1/2-x,1/2-y,1/2+z
1/2+x,1/2-y,1/2-z
1/2-x,1/2+y,1/2-z
1/2-x,1/2-y,1/2-z
1/2+x,1/2+y,1/2-z
1/2-x,1/2+y,1/2+z
1/2+x,1/2-y,1/2+z
loop_
_atom_site_type_symbol
_atom_site_label
_atom_site_fract_x
_atom_site_fract_y
_atom_site_fract_z
Si Si1 0.110927 0.270552 0.693580
Si Si2 0.730559 0.194865 0.617822
Si Si3 0.237364 0.583205 0.201216
Si Si4 0.887792 0.381966 0.382654
Si Si5 0.384455 0.500000 0.124294
Si Si6 0.386418 0.000000 0.389980
O O1 0.168842 0.224557 0.640393
O O2 0.145241 0.282409 0.810162
O O3 0.122131 0.320764 0.623691
O O4 0.000000 0.251020 0.700659
O O5 0.697266 0.202335 0.500000
O O6 0.750133 0.135295 0.638733
O O7 0.204439 0.593703 0.319709
O O8 0.335702 0.549498 0.180720
O O9 0.142469 0.552059 0.165072
O O10 0.872933 0.399743 0.500000
O O11 0.000000 0.397410 0.345512
O O12 0.500000 0.500000 0.149999
O O13 0.367212 0.500000 0.000000
O O14 0.500000 0.000000 0.405564
O O15 0.330989 0.000000 0.500000
#
# Coordination Sequence:
#
# PCOD8288570 Si02
#       6
#    16  16  16  16   8   8
#     4   9  19  33  48  71 103 134 163 198 241 290
#     4  10  19  31  50  75 100 129 166 205 244 288
#     4  10  19  33  51  73 100 126 163 207 245 288
#     4   9  17  31  52  76 102 132 161 192 239 296
#     4  10  21  37  54  71  96 131 167 206 252 294
#     4  10  19  31  48  70  98 128 153 189 250 309
#
# _framework density 17.438832000000001
#
# number of rings (size 3 to 8) (size 9 to 14) (size 15 to 20)
#    0.000    2.400    0.000    3.600    0.000    3.200 
#    0.000    2.000    0.000    6.600    0.000    0.000 
#    0.000    0.000    0.000    0.000    0.000    0.000 
#
# Total GULP energy -495638.109895 kJ/mol
# GULP energy per Si atom -12390.952747 kJ/mol
# Density = 1.739914 g / cm^3
# Si number density = 17.438832 Si / 1000 Ang^3
#
#
#
# Elastic Constant Matrix: (Units=GPa)
#
#
# Indices 1 2 3 4 5 6 
#
# 1 98.5346 31.5947 31.6089 0.0000 0.0000 0.0000
# 2 31.5947 89.3619 31.4994 0.0000 0.0000 0.0000
# 3 31.6089 31.4994 104.0517 0.0005 -0.0003 0.0000
# 4 0.0000 0.0000 0.0005 60.7594 -0.0001 0.0000
# 5 0.0000 0.0000 -0.0003 -0.0001 0.7205 0.0000
# 6 0.0000 0.0000 0.0000 0.0000 0.0000 34.4173
#
#
#
# Elastic Compliance Matrix: (Units=1/GPa)
#
#
# Indices 1 2 3 4 5 6 
#
# 1 0.012069 -0.003330 -0.002658 0.000000 0.000000 0.000000
# 2 -0.003330 0.013446 -0.003059 0.000000 -0.000002 0.000000
# 3 -0.002658 -0.003059 0.011344 0.000000 0.000005 0.000000
# 4 0.000000 0.000000 0.000000 0.016458 0.000003 0.000000
# 5 0.000000 -0.000002 0.000005 0.000003 1.387879 0.000001
# 6 0.000000 0.000000 0.000000 0.000000 0.000001 0.029055
#
#
# Mechanical properties :
#
#
# Convention : Reuss Voigt Hill
#
# Bulk Modulus (GPa) = 53.29105 53.48378 53.38742
# Shear Modulus (GPa) = 3.34537 32.32915 17.83726
#
# Velocity S-wave (km/s) = 1.38655 4.31032 3.20167
# Velocity P-wave (km/s) = 5.76095 7.45035 6.65944
#
# Compressibility (1/GPa) = 0.01876488
#
# Stress axis : x y z
#
# Youngs Moduli (GPa) = 82.85506 74.37105 88.15124
#
# Poissons Ratio (x) = 0.24767 0.23433
# Poissons Ratio (y) = 0.27592 0.26964
# Poissons Ratio (z) = 0.22025 0.22749
#
# Static dielectric constant tensor:
#      x y z
#    x 3.198110 0.000000 0.000000 
#    y 0.000000 3.287430 0.000000 
#    z 0.000000 0.000000 3.277730 
# 
# 
# High freq. dielectric constant tensor:
#      x y z
#    x 1.666200 0.000000 0.000000 
#    y 0.000000 1.674730 0.000000 
#    z 0.000000 0.000000 1.674440 
# 
# From -- ./inp_files/22216.got.cif
#   From: 2010.06.25/outbox.cif.g09.slc.cpg/sg71_12_cif.got.tgz:22216.got - 2010.06.28 04:59:45.
