data_PCOD8288914
_publ_section_title
;
Structure prediction by ZEFSAII (Michael W. Deem and Ramdas Pophale) SiO2 
 PCOD8288914
Probable space group: I M M M
;
_chemical_formula_sum "Si O2"
_cell_formula_units_Z 72
_cell_length_a 9.373301
_cell_length_b 17.757710
_cell_length_c 20.143462
_cell_angle_alpha 90.000000
_cell_angle_beta 90.000000
_cell_angle_gamma 90.000000
_cell_volume 3352.846233
_symmetry_space_group_name_H-M "I M M M"
_symmetry_group_IT_number 71
_symmetry_cell_setting 'orthorhombic'
loop_
_space_group_symop_operation_xyz
x,y,z
-x,-y,z
x,-y,-z
-x,y,-z
-x,-y,-z
x,y,-z
-x,y,z
x,-y,z
1/2+x,1/2+y,1/2+z
1/2-x,1/2-y,1/2+z
1/2+x,1/2-y,1/2-z
1/2-x,1/2+y,1/2-z
1/2-x,1/2-y,1/2-z
1/2+x,1/2+y,1/2-z
1/2-x,1/2+y,1/2+z
1/2+x,1/2-y,1/2+z
loop_
_atom_site_type_symbol
_atom_site_label
_atom_site_fract_x
_atom_site_fract_y
_atom_site_fract_z
Si Si1 0.843056 0.000000 0.269222
Si Si2 0.841476 0.364396 0.232663
Si Si3 0.832778 0.352595 0.614506
Si Si4 0.837542 0.288752 0.100764
Si Si5 0.837400 0.000000 0.111611
Si Si6 0.332608 0.084896 0.500000
O O1 0.765075 0.926542 0.295545
O O2 0.842826 0.000000 0.190217
O O3 0.000000 0.000000 0.299526
O O4 0.805895 0.339458 0.307191
O O5 0.828878 0.296007 0.180840
O O6 0.000000 0.399446 0.231465
O O7 0.764832 0.279806 0.578496
O O8 0.750043 0.426457 0.587791
O O9 0.000000 0.359741 0.596917
O O10 0.787319 0.366019 0.064720
O O11 0.000000 0.269351 0.079534
O O12 0.000000 0.000000 0.082980
O O13 0.500000 0.072719 0.500000
O O14 0.262364 0.000000 0.500000
#
# Coordination Sequence:
#
# PCOD8288914 Si02
#       6
#     8  16  16  16   8   8
#     4   9  17  27  43  70 105 140 174 214 263 321
#     4   9  18  30  48  75 106 142 180 222 272 332
#     4  10  19  32  51  80 115 145 175 217 277 338
#     4  10  20  34  55  78 103 140 187 235 277 319
#     4   9  17  31  51  76 109 144 175 208 254 323
#     4   9  20  38  59  82 105 140 195 245 272 303
#
# _framework density 21.474292999999999
#
# number of rings (size 3 to 8) (size 9 to 14) (size 15 to 20)
#    0.000    2.556    0.000    2.000    1.556    4.444 
#    0.000    0.556    0.000    1.333    0.000    4.667 
#    0.000    0.000    0.000    0.000    0.000    0.000 
#
# Total GULP energy -446151.531798 kJ/mol
# GULP energy per Si atom -12393.098106 kJ/mol
# Density = 2.142542 g / cm^3
# Si number density = 21.474293 Si / 1000 Ang^3
#
#
#
# Elastic Constant Matrix: (Units=GPa)
#
#
# Indices 1 2 3 4 5 6 
#
# 1 141.2339 88.9933 8.0637 0.0000 0.0000 0.0000
# 2 88.9933 177.6346 21.6350 0.0000 0.0000 0.0000
# 3 8.0637 21.6350 42.9275 0.0000 0.0000 0.0000
# 4 0.0000 0.0000 0.0000 13.2885 0.0000 0.0000
# 5 0.0000 0.0000 0.0000 0.0000 6.8476 0.0000
# 6 0.0000 0.0000 0.0000 0.0000 0.0000 41.6902
#
#
#
# Elastic Compliance Matrix: (Units=1/GPa)
#
#
# Indices 1 2 3 4 5 6 
#
# 1 0.010367 -0.005281 0.000714 0.000000 0.000000 0.000000
# 2 -0.005281 0.008688 -0.003387 0.000000 0.000000 0.000000
# 3 0.000714 -0.003387 0.024868 0.000000 0.000000 0.000000
# 4 0.000000 0.000000 0.000000 0.075253 0.000000 0.000000
# 5 0.000000 0.000000 0.000000 0.000000 0.146037 0.000000
# 6 0.000000 0.000000 0.000000 0.000000 0.000000 0.023986
#
#
# Mechanical properties :
#
#
# Convention : Reuss Voigt Hill
#
# Bulk Modulus (GPa) = 35.69390 66.57558 51.13474
# Shear Modulus (GPa) = 15.90108 28.57218 22.23663
#
# Velocity S-wave (km/s) = 2.72411 3.65160 3.22141
# Velocity P-wave (km/s) = 5.15288 6.98918 6.14007
#
# Compressibility (1/GPa) = 0.02801599
#
# Stress axis : x y z
#
# Youngs Moduli (GPa) = 96.45791 115.10589 40.21278
#
# Poissons Ratio (x) = 0.60786 -0.02871
# Poissons Ratio (y) = 0.50938 0.13618
# Poissons Ratio (z) = -0.06888 0.38981
#
# Static dielectric constant tensor:
#      x y z
#    x 3.871550 0.000000 0.000000 
#    y 0.000000 3.824480 0.000000 
#    z 0.000000 0.000000 3.513970 
# 
# 
# High freq. dielectric constant tensor:
#      x y z
#    x 1.829790 0.000000 0.000000 
#    y 0.000000 1.841820 0.000000 
#    z 0.000000 0.000000 1.816950 
# 
# From -- ./inp_files/57328.got.cif
#   From: 2010.06.25/outbox.cif.g09.slc.cpg/sg71_29_cif.got.tgz:57328.got - 2010.06.28 04:59:45.
