data_PCOD8288320
_publ_section_title
;
Structure prediction by ZEFSAII (Michael W. Deem and Ramdas Pophale) SiO2 
 PCOD8288320
Probable space group: I M M M
;
_chemical_formula_sum "Si O2"
_cell_formula_units_Z 72
_cell_length_a 8.654101
_cell_length_b 14.645442
_cell_length_c 35.667334
_cell_angle_alpha 90.000000
_cell_angle_beta 90.000000
_cell_angle_gamma 90.000000
_cell_volume 4520.589702
_symmetry_space_group_name_H-M "I M M M"
_symmetry_group_IT_number 71
_symmetry_cell_setting 'orthorhombic'
loop_
_space_group_symop_operation_xyz
x,y,z
-x,-y,z
x,-y,-z
-x,y,-z
-x,-y,-z
x,y,-z
-x,y,z
x,-y,z
1/2+x,1/2+y,1/2+z
1/2-x,1/2-y,1/2+z
1/2+x,1/2-y,1/2-z
1/2-x,1/2+y,1/2-z
1/2-x,1/2-y,1/2-z
1/2+x,1/2+y,1/2-z
1/2-x,1/2+y,1/2+z
1/2+x,1/2-y,1/2+z
loop_
_atom_site_type_symbol
_atom_site_label
_atom_site_fract_x
_atom_site_fract_y
_atom_site_fract_z
Si Si1 0.682766 0.000000 0.729978
Si Si2 0.316832 0.800018 0.713059
Si Si3 0.817574 0.894867 0.922625
Si Si4 0.316468 0.000000 0.812495
Si Si5 0.183130 0.318386 0.648974
Si Si6 0.827013 0.391985 0.500000
O O1 0.737368 0.093884 0.710529
O O2 0.755563 0.000000 0.771330
O O3 0.500000 0.000000 0.733134
O O4 0.500000 0.791330 0.715924
O O5 0.250000 0.750000 0.750000
O O6 0.256951 0.761526 0.673635
O O7 0.742313 0.822680 0.893676
O O8 0.000000 0.889070 0.919827
O O9 0.761182 0.000000 0.915626
O O10 0.764244 0.859075 0.963236
O O11 0.253966 0.911623 0.833296
O O12 0.500000 0.000000 0.811726
O O13 0.000000 0.307793 0.649933
O O14 0.834192 0.500000 0.500000
O O15 0.000000 0.350727 0.500000
#
# Coordination Sequence:
#
# PCOD8288320 Si02
#       6
#     8  16  16   8  16   8
#     4   9  18  34  50  64  89 124 157 194 246 293
#     4  11  21  34  50  69  91 122 160 201 243 288
#     4  10  19  30  45  68  96 125 160 201 236 275
#     4   9  16  28  46  65  89 122 157 191 237 285
#     4  11  20  32  48  68  94 126 161 200 241 286
#     4   9  17  29  45  65  91 128 163 190 233 287
#
# _framework density 15.927125999999999
#
# number of rings (size 3 to 8) (size 9 to 14) (size 15 to 20)
#    0.000    1.889    3.333    2.333    0.000    2.222 
#    0.000    3.333    0.000    0.000    0.000    0.000 
#    0.000    0.889    0.000    9.556    0.000    4.222 
#
# Total GULP energy -446218.174481 kJ/mol
# GULP energy per Si atom -12394.949291 kJ/mol
# Density = 1.589088 g / cm^3
# Si number density = 15.927126 Si / 1000 Ang^3
#
#
#
# Elastic Constant Matrix: (Units=GPa)
#
#
# Indices 1 2 3 4 5 6 
#
# 1 66.7381 32.5114 33.7512 0.0000 0.0000 0.0000
# 2 32.5114 97.1394 55.7263 0.0000 0.0000 0.0000
# 3 33.7512 55.7263 132.6096 0.0000 0.0000 0.0000
# 4 0.0000 0.0000 0.0000 14.3037 0.0000 0.0000
# 5 0.0000 0.0000 0.0000 0.0000 30.7333 0.0000
# 6 0.0000 0.0000 0.0000 0.0000 0.0000 17.0245
#
#
#
# Elastic Compliance Matrix: (Units=1/GPa)
#
#
# Indices 1 2 3 4 5 6 
#
# 1 0.018660 -0.004639 -0.002800 0.000000 0.000000 0.000000
# 2 -0.004639 0.014718 -0.005004 0.000000 0.000000 0.000000
# 3 -0.002800 -0.005004 0.010356 0.000000 0.000000 0.000000
# 4 0.000000 0.000000 0.000000 0.069912 0.000000 0.000000
# 5 0.000000 0.000000 0.000000 0.000000 0.032538 0.000000
# 6 0.000000 0.000000 0.000000 0.000000 0.000000 0.058739
#
#
# Mechanical properties :
#
#
# Convention : Reuss Voigt Hill
#
# Bulk Modulus (GPa) = 53.05566 60.05165 56.55365
# Shear Modulus (GPa) = 21.17823 24.04552 22.61187
#
# Velocity S-wave (km/s) = 3.65045 3.88973 3.77199
# Velocity P-wave (km/s) = 7.15203 7.61309 7.38616
#
# Compressibility (1/GPa) = 0.01884813
#
# Stress axis : x y z
#
# Youngs Moduli (GPa) = 53.59128 67.94464 96.55867
#
# Poissons Ratio (x) = 0.31520 0.27034
# Poissons Ratio (y) = 0.24861 0.48319
# Poissons Ratio (z) = 0.15004 0.34001
#
# Static dielectric constant tensor:
#      x y z
#    x 2.963070 0.000000 0.000000 
#    y 0.000000 2.983730 0.000000 
#    z 0.000000 0.000000 3.142050 
# 
# 
# High freq. dielectric constant tensor:
#      x y z
#    x 1.613950 0.000000 0.000000 
#    y 0.000000 1.571710 0.000000 
#    z 0.000000 0.000000 1.612440 
# 
# From -- ./inp_files/67884.got.cif
#   From: 2010.06.25/outbox.cif.g09.slc.cpg/sg71_34_cif.got.tgz:67884.got - 2010.06.28 04:59:45.
