data_PCOD8288870
_publ_section_title
;
Structure prediction by ZEFSAII (Michael W. Deem and Ramdas Pophale) SiO2 
 PCOD8288870
Probable space group: I M M M
;
_chemical_formula_sum "Si O2"
_cell_formula_units_Z 80
_cell_length_a 18.233123
_cell_length_b 27.147973
_cell_length_c 9.091978
_cell_angle_alpha 90.000000
_cell_angle_beta 90.000000
_cell_angle_gamma 90.000000
_cell_volume 4500.459383
_symmetry_space_group_name_H-M "I M M M"
_symmetry_group_IT_number 71
_symmetry_cell_setting 'orthorhombic'
loop_
_space_group_symop_operation_xyz
x,y,z
-x,-y,z
x,-y,-z
-x,y,-z
-x,-y,-z
x,y,-z
-x,y,z
x,-y,z
1/2+x,1/2+y,1/2+z
1/2-x,1/2-y,1/2+z
1/2+x,1/2-y,1/2-z
1/2-x,1/2+y,1/2-z
1/2-x,1/2-y,1/2-z
1/2+x,1/2+y,1/2-z
1/2-x,1/2+y,1/2+z
1/2+x,1/2-y,1/2+z
loop_
_atom_site_type_symbol
_atom_site_label
_atom_site_fract_x
_atom_site_fract_y
_atom_site_fract_z
Si Si1 0.583780 0.942999 0.833560
Si Si2 0.146932 0.055341 0.670716
Si Si3 0.418121 0.354876 0.670923
Si Si4 0.206348 0.389133 0.829945
Si Si5 0.225642 0.799778 0.173843
O O1 0.500000 0.925957 0.818999
O O2 0.629232 0.911763 0.716841
O O3 0.591664 0.000000 0.792691
O O4 0.611816 0.933671 0.000000
O O5 0.127430 0.057449 0.500000
O O6 0.092427 0.092786 0.750541
O O7 0.231008 0.070413 0.698939
O O8 0.135544 0.000000 0.732273
O O9 0.407748 0.365504 0.500000
O O10 0.500000 0.334855 0.706792
O O11 0.357861 0.314416 0.721491
O O12 0.219663 0.341656 0.729796
O O13 0.203439 0.373096 0.000000
O O14 0.250000 0.750000 0.250000
O O15 0.232929 0.793716 0.000000
#
# Coordination Sequence:
#
# PCOD8288870 Si02
#       5
#    16  16  16  16  16
#     4   9  18  32  49  71 102 138 172 208 253 302
#     4   9  18  31  47  71 103 136 168 201 238 283
#     4   9  19  35  53  74 100 129 162 201 244 290
#     4  10  19  32  51  74 100 131 169 211 251 297
#     4  10  20  36  57  77  98 127 164 208 256 304
#
# _framework density 17.775962
#
# number of rings (size 3 to 8) (size 9 to 14) (size 15 to 20)
#    0.000    2.600    0.000    2.400    0.000    4.400 
#    0.000    4.000    0.000    3.600    0.000    0.000 
#    0.000    0.000    0.000    0.000    0.000    0.000 
#
# Total GULP energy -495992.731282 kJ/mol
# GULP energy per Si atom -12399.818282 kJ/mol
# Density = 1.773550 g / cm^3
# Si number density = 17.775962 Si / 1000 Ang^3
#
#
#
# Elastic Constant Matrix: (Units=GPa)
#
#
# Indices 1 2 3 4 5 6 
#
# 1 102.1438 55.9411 40.8123 0.0000 0.0000 0.0000
# 2 55.9411 118.3434 47.1506 0.0000 0.0000 0.0000
# 3 40.8123 47.1506 65.1781 0.0000 0.0000 0.0000
# 4 0.0000 0.0000 0.0000 33.3207 0.0000 0.0000
# 5 0.0000 0.0000 0.0000 0.0000 28.7378 0.0000
# 6 0.0000 0.0000 0.0000 0.0000 0.0000 18.5959
#
#
#
# Elastic Compliance Matrix: (Units=1/GPa)
#
#
# Indices 1 2 3 4 5 6 
#
# 1 0.014640 -0.004591 -0.005846 0.000000 0.000000 0.000000
# 2 -0.004591 0.013312 -0.006755 0.000000 0.000000 0.000000
# 3 -0.005846 -0.006755 0.023890 0.000000 0.000000 0.000000
# 4 0.000000 0.000000 0.000000 0.030011 0.000000 0.000000
# 5 0.000000 0.000000 0.000000 0.000000 0.034797 0.000000
# 6 0.000000 0.000000 0.000000 0.000000 0.000000 0.053775
#
#
# Mechanical properties :
#
#
# Convention : Reuss Voigt Hill
#
# Bulk Modulus (GPa) = 57.28209 63.71926 60.50067
# Shear Modulus (GPa) = 23.73844 25.58165 24.66004
#
# Velocity S-wave (km/s) = 3.65831 3.79768 3.72865
# Velocity P-wave (km/s) = 7.08087 7.42653 7.25576
#
# Compressibility (1/GPa) = 0.01745746
#
# Stress axis : x y z
#
# Youngs Moduli (GPa) = 68.30382 75.12239 41.85939
#
# Poissons Ratio (x) = 0.34492 0.24470
# Poissons Ratio (y) = 0.31361 0.28275
# Poissons Ratio (z) = 0.39929 0.50743
#
# Static dielectric constant tensor:
#      x y z
#    x 3.338060 0.000000 0.000000 
#    y 0.000000 3.307100 0.000000 
#    z 0.000000 0.000000 3.304780 
# 
# 
# High freq. dielectric constant tensor:
#      x y z
#    x 1.686290 0.000000 0.000000 
#    y 0.000000 1.674470 0.000000 
#    z 0.000000 0.000000 1.690700 
# 
# From -- ./inp_files/8312.got.cif
#   From: 2010.06.25/outbox.cif.g09.slc.cpg/sg71_5_cif.got.tgz:8312.got - 2010.06.28 04:59:45.
