data_PCOD8288388
_publ_section_title
;
Structure prediction by ZEFSAII (Michael W. Deem and Ramdas Pophale) SiO2 
 PCOD8288388
Probable space group: I M M M
;
_chemical_formula_sum "Si O2"
_cell_formula_units_Z 80
_cell_length_a 19.719484
_cell_length_b 25.733288
_cell_length_c 8.981529
_cell_angle_alpha 90.000000
_cell_angle_beta 90.000000
_cell_angle_gamma 90.000000
_cell_volume 4557.651392
_symmetry_space_group_name_H-M "I M M M"
_symmetry_group_IT_number 71
_symmetry_cell_setting 'orthorhombic'
loop_
_space_group_symop_operation_xyz
x,y,z
-x,-y,z
x,-y,-z
-x,y,-z
-x,-y,-z
x,y,-z
-x,y,z
x,-y,z
1/2+x,1/2+y,1/2+z
1/2-x,1/2-y,1/2+z
1/2+x,1/2-y,1/2-z
1/2-x,1/2+y,1/2-z
1/2-x,1/2-y,1/2-z
1/2+x,1/2+y,1/2-z
1/2-x,1/2+y,1/2+z
1/2+x,1/2-y,1/2+z
loop_
_atom_site_type_symbol
_atom_site_label
_atom_site_fract_x
_atom_site_fract_y
_atom_site_fract_z
Si Si1 0.668630 0.356224 0.176059
Si Si2 0.678190 0.255462 0.673396
Si Si3 0.322197 0.858429 0.673220
Si Si4 0.075550 0.557989 0.822832
Si Si5 0.578222 0.559900 0.328481
O O1 0.637909 0.303096 0.248892
O O2 0.745665 0.363110 0.237457
O O3 0.624536 0.405370 0.222930
O O4 0.666240 0.349790 0.000000
O O5 0.686632 0.268007 0.500000
O O6 0.750000 0.250000 0.750000
O O7 0.643907 0.198732 0.697749
O O8 0.316196 0.870824 0.500000
O O9 0.371405 0.901105 0.748834
O O10 0.097719 0.500000 0.774467
O O11 0.000000 0.570159 0.762248
O O12 0.074888 0.562557 0.000000
O O13 0.593520 0.573090 0.500000
O O14 0.500000 0.571425 0.291397
O O15 0.595316 0.500000 0.294767
#
# Coordination Sequence:
#
# PCOD8288388 Si02
#       5
#    16  16  16  16  16
#     4  10  19  30  47  71  96 123 155 193 238 286
#     4   9  16  28  45  65  93 127 159 195 238 281
#     4   8  15  26  40  62  91 122 157 193 229 270
#     4   8  13  22  37  57  84 118 150 181 221 266
#     4   9  19  36  54  70  92 123 156 192 238 291
#
# _framework density 17.552900000000001
#
# number of rings (size 3 to 8) (size 9 to 14) (size 15 to 20)
#    0.000    3.200    0.000    3.600    0.000    1.600 
#    0.000    4.000    0.000    3.600    0.000    0.000 
#    0.000   16.000    0.000   81.400    0.000   73.600 
#
# Total GULP energy -495620.147989 kJ/mol
# GULP energy per Si atom -12390.503700 kJ/mol
# Density = 1.751295 g / cm^3
# Si number density = 17.552900 Si / 1000 Ang^3
#
#
#
# Elastic Constant Matrix: (Units=GPa)
#
#
# Indices 1 2 3 4 5 6 
#
# 1 73.3266 70.9537 27.0640 0.0000 0.0000 0.0000
# 2 70.9537 147.1970 46.6009 0.0000 0.0000 0.0000
# 3 27.0640 46.6009 59.8409 0.0000 0.0000 0.0000
# 4 0.0000 0.0000 0.0000 26.7761 0.0000 0.0000
# 5 0.0000 0.0000 0.0000 0.0000 17.4675 0.0000
# 6 0.0000 0.0000 0.0000 0.0000 0.0000 13.4279
#
#
#
# Elastic Compliance Matrix: (Units=1/GPa)
#
#
# Indices 1 2 3 4 5 6 
#
# 1 0.025870 -0.011634 -0.002640 0.000000 0.000000 0.000000
# 2 -0.011634 0.014249 -0.005834 0.000000 0.000000 0.000000
# 3 -0.002640 -0.005834 0.022448 0.000000 0.000000 0.000000
# 4 0.000000 0.000000 0.000000 0.037347 0.000000 0.000000
# 5 0.000000 0.000000 0.000000 0.000000 0.057249 0.000000
# 6 0.000000 0.000000 0.000000 0.000000 0.000000 0.074472
#
#
# Mechanical properties :
#
#
# Convention : Reuss Voigt Hill
#
# Bulk Modulus (GPa) = 44.74296 63.28906 54.01601
# Shear Modulus (GPa) = 17.90179 20.58403 19.24291
#
# Velocity S-wave (km/s) = 3.19702 3.42816 3.31461
# Velocity P-wave (km/s) = 6.25888 7.19751 6.74454
#
# Compressibility (1/GPa) = 0.02234989
#
# Stress axis : x y z
#
# Youngs Moduli (GPa) = 38.65520 70.18113 44.54655
#
# Poissons Ratio (x) = 0.81651 0.11759
# Poissons Ratio (y) = 0.44973 0.25990
# Poissons Ratio (z) = 0.10204 0.40947
#
# Static dielectric constant tensor:
#      x y z
#    x 3.211800 0.000000 0.000000 
#    y 0.000000 3.773930 0.000000 
#    z 0.000000 0.000000 2.982950 
# 
# 
# High freq. dielectric constant tensor:
#      x y z
#    x 1.649690 0.000000 0.000000 
#    y 0.000000 1.696630 0.000000 
#    z 0.000000 0.000000 1.645630 
# 
# From -- ./inp_files/8345.got.cif
#   From: 2010.06.25/outbox.cif.g09.slc.cpg/sg71_5_cif.got.tgz:8345.got - 2010.06.28 04:59:45.
