data_PCOD8288768
_publ_section_title
;
Structure prediction by ZEFSAII (Michael W. Deem and Ramdas Pophale) SiO2 
 PCOD8288768
Probable space group: I M M M
;
_chemical_formula_sum "Si O2"
_cell_formula_units_Z 128
_cell_length_a 12.538343
_cell_length_b 20.026407
_cell_length_c 29.487503
_cell_angle_alpha 90.000000
_cell_angle_beta 90.000000
_cell_angle_gamma 90.000000
_cell_volume 7404.251849
_symmetry_space_group_name_H-M "I M M M"
_symmetry_group_IT_number 71
_symmetry_cell_setting 'orthorhombic'
loop_
_space_group_symop_operation_xyz
x,y,z
-x,-y,z
x,-y,-z
-x,y,-z
-x,-y,-z
x,y,-z
-x,y,z
x,-y,z
1/2+x,1/2+y,1/2+z
1/2-x,1/2-y,1/2+z
1/2+x,1/2-y,1/2-z
1/2-x,1/2+y,1/2-z
1/2-x,1/2-y,1/2-z
1/2+x,1/2+y,1/2-z
1/2-x,1/2+y,1/2+z
1/2+x,1/2-y,1/2+z
loop_
_atom_site_type_symbol
_atom_site_label
_atom_site_fract_x
_atom_site_fract_y
_atom_site_fract_z
Si Si1 0.877706 0.574842 0.053232
Si Si2 0.126437 0.425612 0.551234
Si Si3 0.616508 0.578447 0.274248
Si Si4 0.122324 0.072906 0.672616
Si Si5 0.875766 0.301946 0.387961
Si Si6 0.255223 0.829232 0.382965
Si Si7 0.623586 0.211789 0.296226
Si Si8 0.286990 0.830274 0.206816
O O1 0.841763 0.500000 0.068585
O O2 0.808032 0.633251 0.075051
O O3 0.000000 0.585742 0.067275
O O4 0.862736 0.582003 0.000000
O O5 0.166073 0.410605 0.500000
O O6 0.167617 0.500000 0.566290
O O7 0.167345 0.366460 0.584172
O O8 0.000000 0.426297 0.552677
O O9 0.500000 0.605110 0.291022
O O10 0.613750 0.500000 0.275481
O O11 0.637738 0.603513 0.222781
O O12 0.717257 0.603269 0.303598
O O13 0.162382 0.124744 0.635976
O O14 0.000000 0.062335 0.661996
O O15 0.179337 0.000000 0.668529
O O16 0.798719 0.239776 0.400191
O O17 0.866745 0.316592 0.334440
O O18 0.000000 0.286200 0.399124
O O19 0.343700 0.821232 0.343810
O O20 0.500000 0.231114 0.298620
O O21 0.643785 0.163263 0.252905
O O22 0.693645 0.276527 0.287533
#
# Coordination Sequence:
#
# PCOD8288768 Si02
#       8
#    16  16  16  16  16  16  16  16
#     4   9  19  36  56  76  99 131 170 211 258 309
#     4   8  15  31  53  71  90 122 161 196 236 296
#     4   9  17  30  48  68  91 123 166 212 250 288
#     4   9  17  29  46  67  92 126 168 207 242 288
#     4  10  21  32  47  75 106 134 165 206 259 307
#     4  11  19  31  50  73  99 129 166 210 250 295
#     4  10  20  31  45  65  91 126 164 198 235 285
#     4  10  19  32  46  66  94 130 162 198 243 295
#
# _framework density 17.287364
#
# number of rings (size 3 to 8) (size 9 to 14) (size 15 to 20)
#    0.000    2.500    1.250    3.375    0.000    1.000 
#    0.000    0.000    0.000    3.000    0.000    4.375 
#    0.000    0.000    0.000   49.500    0.000    4.250 
#
# Total GULP energy -793078.639602 kJ/mol
# GULP energy per Si atom -12391.853744 kJ/mol
# Density = 1.724802 g / cm^3
# Si number density = 17.287364 Si / 1000 Ang^3
#
#
#
# Elastic Constant Matrix: (Units=GPa)
#
#
# Indices 1 2 3 4 5 6 
#
# 1 59.2093 35.4570 32.5931 0.0000 0.0000 0.0000
# 2 35.4570 95.6118 44.6713 0.0000 0.0000 0.0000
# 3 32.5931 44.6713 55.4883 0.0000 0.0000 0.0000
# 4 0.0000 0.0000 0.0000 29.0234 0.0000 0.0000
# 5 0.0000 0.0000 0.0000 0.0000 16.4375 0.0000
# 6 0.0000 0.0000 0.0000 0.0000 0.0000 26.3206
#
#
#
# Elastic Compliance Matrix: (Units=1/GPa)
#
#
# Indices 1 2 3 4 5 6 
#
# 1 0.025880 -0.003999 -0.011982 0.000000 0.000000 0.000000
# 2 -0.003999 0.017383 -0.011645 0.000000 0.000000 0.000000
# 3 -0.011982 -0.011645 0.034435 0.000000 0.000000 0.000000
# 4 0.000000 0.000000 0.000000 0.034455 0.000000 0.000000
# 5 0.000000 0.000000 0.000000 0.000000 0.060836 0.000000
# 6 0.000000 0.000000 0.000000 0.000000 0.000000 0.037993
#
#
# Mechanical properties :
#
#
# Convention : Reuss Voigt Hill
#
# Bulk Modulus (GPa) = 44.55320 48.41690 46.48505
# Shear Modulus (GPa) = 18.26713 20.86218 19.56465
#
# Velocity S-wave (km/s) = 3.25418 3.47765 3.36777
# Velocity P-wave (km/s) = 6.32042 6.64781 6.48618
#
# Compressibility (1/GPa) = 0.02244508
#
# Stress axis : x y z
#
# Youngs Moduli (GPa) = 38.64008 57.52811 29.04044
#
# Poissons Ratio (x) = 0.23007 0.34796
# Poissons Ratio (y) = 0.15453 0.33818
# Poissons Ratio (z) = 0.46298 0.66992
#
# Static dielectric constant tensor:
#      x y z
#    x 3.219790 0.000000 0.000000 
#    y 0.000000 3.504590 0.000000 
#    z 0.000000 0.000000 3.153130 
# 
# 
# High freq. dielectric constant tensor:
#      x y z
#    x 1.652240 0.000000 0.000000 
#    y 0.000000 1.672410 0.000000 
#    z 0.000000 0.000000 1.647460 
# 
# From -- ./inp_files/59207.got.cif
#   From: 2010.06.25/outbox.cif.g09.slc.cpg/sg71_30_cif.got.tgz:59207.got - 2010.06.28 04:59:45.
