data_PCOD8288267
_publ_section_title
;
Structure prediction by ZEFSAII (Michael W. Deem and Ramdas Pophale) SiO2 
 PCOD8288267
Probable space group: I M M M
;
_chemical_formula_sum "Si O2"
_cell_formula_units_Z 88
_cell_length_a 30.111561
_cell_length_b 8.761814
_cell_length_c 23.886170
_cell_angle_alpha 90.000000
_cell_angle_beta 90.000000
_cell_angle_gamma 90.000000
_cell_volume 6301.933537
_symmetry_space_group_name_H-M "I M M M"
_symmetry_group_IT_number 71
_symmetry_cell_setting 'orthorhombic'
loop_
_space_group_symop_operation_xyz
x,y,z
-x,-y,z
x,-y,-z
-x,y,-z
-x,-y,-z
x,y,-z
-x,y,z
x,-y,z
1/2+x,1/2+y,1/2+z
1/2-x,1/2-y,1/2+z
1/2+x,1/2-y,1/2-z
1/2-x,1/2+y,1/2-z
1/2-x,1/2-y,1/2-z
1/2+x,1/2+y,1/2-z
1/2-x,1/2+y,1/2+z
1/2+x,1/2-y,1/2+z
loop_
_atom_site_type_symbol
_atom_site_label
_atom_site_fract_x
_atom_site_fract_y
_atom_site_fract_z
Si Si1 0.404873 0.321328 0.900370
Si Si2 0.646163 0.822615 0.000000
Si Si3 0.500000 0.678740 0.062851
Si Si4 0.740305 0.678903 0.000000
Si Si5 0.209929 0.676988 0.782742
Si Si6 0.839023 0.323819 0.324471
Si Si7 0.246567 0.179412 0.884016
O O1 0.398657 0.500000 0.914195
O O2 0.382047 0.214607 0.945797
O O3 0.456772 0.274196 0.901023
O O4 0.381327 0.279503 0.841686
O O5 0.688667 0.716154 0.000000
O O6 0.660480 0.000000 0.000000
O O7 0.500000 0.500000 0.053642
O O8 0.500000 0.753121 0.000000
O O9 0.762461 0.748758 0.944548
O O10 0.748168 0.500000 0.000000
O O11 0.219527 0.500000 0.792478
O O12 0.250000 0.750000 0.750000
O O13 0.167157 0.701090 0.742537
O O14 0.207288 0.759043 0.843081
O O15 0.849235 0.500000 0.337442
O O16 0.795103 0.273751 0.359675
O O17 0.242263 0.000000 0.888602
#
# Coordination Sequence:
#
# PCOD8288267 Si02
#       7
#    16   8   8   8  16  16  16
#     4  11  20  31  47  60  74 102 138 171 210 256
#     4  12  22  31  41  56  81 102 130 172 213 249
#     4   9  18  32  44  58  80 102 132 175 214 249
#     4  12  22  30  43  61  80 108 141 165 201 250
#     4   9  17  29  43  58  79 104 131 163 202 242
#     4   9  18  30  43  59  81 102 127 169 209 240
#     4  10  19  30  43  60  84 105 128 167 206 238
#
# _framework density 13.963967999999999
#
# number of rings (size 3 to 8) (size 9 to 14) (size 15 to 20)
#    0.000    1.909    2.727    4.364    0.000    3.636 
#    0.000    2.273    0.000    0.000    0.000    0.000 
#    0.000    0.000    0.000    0.000    0.000    0.909 
#
# Total GULP energy -545345.814211 kJ/mol
# GULP energy per Si atom -12394.223050 kJ/mol
# Density = 1.393219 g / cm^3
# Si number density = 13.963968 Si / 1000 Ang^3
#
#
#
# Elastic Constant Matrix: (Units=GPa)
#
#
# Indices 1 2 3 4 5 6 
#
# 1 50.9079 23.9025 41.3654 0.0000 0.0000 0.0000
# 2 23.9025 70.2727 42.9289 0.0000 0.0000 0.0000
# 3 41.3654 42.9289 110.8865 0.0000 0.0000 0.0000
# 4 0.0000 0.0000 0.0000 26.3105 0.0000 0.0000
# 5 0.0000 0.0000 0.0000 0.0000 29.8736 0.0000
# 6 0.0000 0.0000 0.0000 0.0000 0.0000 14.3054
#
#
#
# Elastic Compliance Matrix: (Units=1/GPa)
#
#
# Indices 1 2 3 4 5 6 
#
# 1 0.029140 -0.004284 -0.009212 0.000000 0.000000 0.000000
# 2 -0.004284 0.019268 -0.005861 0.000000 0.000000 0.000000
# 3 -0.009212 -0.005861 0.014724 0.000000 0.000000 0.000000
# 4 0.000000 0.000000 0.000000 0.038008 0.000000 0.000000
# 5 0.000000 0.000000 0.000000 0.000000 0.033474 0.000000
# 6 0.000000 0.000000 0.000000 0.000000 0.000000 0.069904
#
#
# Mechanical properties :
#
#
# Convention : Reuss Voigt Hill
#
# Bulk Modulus (GPa) = 40.95482 49.82898 45.39190
# Shear Modulus (GPa) = 19.89088 22.35592 21.12340
#
# Velocity S-wave (km/s) = 3.77827 4.00556 3.89357
# Velocity P-wave (km/s) = 6.95891 7.56003 7.26569
#
# Compressibility (1/GPa) = 0.02441715
#
# Stress axis : x y z
#
# Youngs Moduli (GPa) = 34.31708 51.89917 67.91712
#
# Poissons Ratio (x) = 0.22235 0.62564
# Poissons Ratio (y) = 0.14702 0.39808
# Poissons Ratio (z) = 0.31612 0.30420
#
# Static dielectric constant tensor:
#      x y z
#    x 2.654660 0.000000 0.000000 
#    y 0.000000 2.809120 0.000000 
#    z 0.000000 0.000000 3.049820 
# 
# 
# High freq. dielectric constant tensor:
#      x y z
#    x 1.480310 0.000000 0.000000 
#    y 0.000000 1.544620 0.000000 
#    z 0.000000 0.000000 1.526410 
# 
# From -- ./inp_files/58169.got.cif
#   From: 2010.06.25/outbox.cif.g09.slc.cpg/sg71_30_cif.got.tgz:58169.got - 2010.06.28 04:59:45.
