data_PCOD8288151
_publ_section_title
;
Structure prediction by ZEFSAII (Michael W. Deem and Ramdas Pophale) SiO2 
 PCOD8288151
Probable space group: I M M M
;
_chemical_formula_sum "Si O2"
_cell_formula_units_Z 96
_cell_length_a 27.703135
_cell_length_b 8.936626
_cell_length_c 29.000112
_cell_angle_alpha 90.000000
_cell_angle_beta 90.000000
_cell_angle_gamma 90.000000
_cell_volume 7179.631867
_symmetry_space_group_name_H-M "I M M M"
_symmetry_group_IT_number 71
_symmetry_cell_setting 'orthorhombic'
loop_
_space_group_symop_operation_xyz
x,y,z
-x,-y,z
x,-y,-z
-x,y,-z
-x,-y,-z
x,y,-z
-x,y,z
x,-y,z
1/2+x,1/2+y,1/2+z
1/2-x,1/2-y,1/2+z
1/2+x,1/2-y,1/2-z
1/2-x,1/2+y,1/2-z
1/2-x,1/2-y,1/2-z
1/2+x,1/2+y,1/2-z
1/2-x,1/2+y,1/2+z
1/2+x,1/2-y,1/2+z
loop_
_atom_site_type_symbol
_atom_site_label
_atom_site_fract_x
_atom_site_fract_y
_atom_site_fract_z
Si Si1 0.742222 0.668383 0.179280
Si Si2 0.659705 0.824325 0.129991
Si Si3 0.600324 0.325010 0.946656
Si Si4 0.097806 0.323848 0.281138
Si Si5 0.821177 0.168663 0.229246
Si Si6 0.500000 0.322083 0.197907
Si Si7 0.000000 0.822731 0.592984
O O1 0.753633 0.500000 0.163149
O O2 0.711518 0.750398 0.139792
O O3 0.792570 0.755390 0.186879
O O4 0.712532 0.667946 0.226294
O O5 0.640799 0.762863 0.081561
O O6 0.621557 0.781148 0.169811
O O7 0.667552 0.000000 0.127207
O O8 0.604194 0.500000 0.934767
O O9 0.547429 0.262349 0.933084
O O10 0.609740 0.292715 0.000000
O O11 0.090989 0.500000 0.275724
O O12 0.130950 0.264286 0.239534
O O13 0.046742 0.242125 0.276604
O O14 0.835585 0.000000 0.215391
O O15 0.500000 0.500000 0.200870
O O16 0.500000 0.263925 0.145266
O O17 0.000000 0.000000 0.591432
#
# Coordination Sequence:
#
# PCOD8288151 Si02
#       7
#    16  16  16  16  16   8   8
#     4   9  16  26  41  58  76  95 117 144 180 224
#     4  10  19  29  41  56  75  96 120 152 192 235
#     4  10  19  31  45  58  72  93 124 162 203 246
#     4  10  19  29  40  55  76  99 124 154 190 229
#     4   9  16  26  40  58  77  96 118 145 180 221
#     4  11  19  28  43  57  72  98 130 163 198 236
#     4   9  17  29  44  57  69  89 123 163 203 244
#
# _framework density 13.37116
#
# number of rings (size 3 to 8) (size 9 to 14) (size 15 to 20)
#    0.000    2.333    1.667    2.500    0.000    6.667 
#    0.000    0.417    0.000    1.000    0.000    0.000 
#    0.000    0.000    0.000    0.000    0.000    0.000 
#
# Total GULP energy -595259.665763 kJ/mol
# GULP energy per Si atom -12401.243037 kJ/mol
# Density = 1.334073 g / cm^3
# Si number density = 13.371160 Si / 1000 Ang^3
#
#
#
# Elastic Constant Matrix: (Units=GPa)
#
#
# Indices 1 2 3 4 5 6 
#
# 1 84.0680 45.2295 44.7320 0.0000 0.0000 0.0000
# 2 45.2295 79.8165 28.5294 0.0000 0.0000 0.0000
# 3 44.7320 28.5294 45.2381 0.0000 0.0000 0.0000
# 4 0.0000 0.0000 0.0000 17.1223 0.0000 0.0000
# 5 0.0000 0.0000 0.0000 0.0000 19.0196 0.0000
# 6 0.0000 0.0000 0.0000 0.0000 0.0000 24.5356
#
#
#
# Elastic Compliance Matrix: (Units=1/GPa)
#
#
# Indices 1 2 3 4 5 6 
#
# 1 0.028448 -0.007831 -0.023191 0.000000 0.000000 0.000000
# 2 -0.007831 0.018331 -0.003816 0.000000 0.000000 0.000000
# 3 -0.023191 -0.003816 0.047444 0.000000 0.000000 0.000000
# 4 0.000000 0.000000 0.000000 0.058403 0.000000 0.000000
# 5 0.000000 0.000000 0.000000 0.000000 0.052577 0.000000
# 6 0.000000 0.000000 0.000000 0.000000 0.000000 0.040757
#
#
# Mechanical properties :
#
#
# Convention : Reuss Voigt Hill
#
# Bulk Modulus (GPa) = 40.74189 49.56716 45.15453
# Shear Modulus (GPa) = 15.44065 18.17763 16.80914
#
# Velocity S-wave (km/s) = 3.40188 3.69109 3.54943
# Velocity P-wave (km/s) = 6.77986 7.43749 7.11628
#
# Compressibility (1/GPa) = 0.02454476
#
# Stress axis : x y z
#
# Youngs Moduli (GPa) = 35.15127 54.55328 21.07752
#
# Poissons Ratio (x) = 0.42723 0.48882
# Poissons Ratio (y) = 0.27529 0.08044
# Poissons Ratio (z) = 0.81520 0.20820
#
# Static dielectric constant tensor:
#      x y z
#    x 2.648420 0.000000 0.000000 
#    y 0.000000 2.732370 0.000000 
#    z 0.000000 0.000000 2.350960 
# 
# 
# High freq. dielectric constant tensor:
#      x y z
#    x 1.496880 0.000000 0.000000 
#    y 0.000000 1.521380 0.000000 
#    z 0.000000 0.000000 1.457070 
# 
# From -- ./inp_files/61886.got.cif
#   From: 2010.06.25/outbox.cif.g09.slc.cpg/sg71_31_cif.got.tgz:61886.got - 2010.06.28 04:59:45.
