data_PCOD8288135
_publ_section_title
;
Structure prediction by ZEFSAII (Michael W. Deem and Ramdas Pophale) SiO2 
 PCOD8288135
Probable space group: I M M M
;
_chemical_formula_sum "Si O2"
_cell_formula_units_Z 104
_cell_length_a 24.133963
_cell_length_b 13.714475
_cell_length_c 18.667623
_cell_angle_alpha 90.000000
_cell_angle_beta 90.000000
_cell_angle_gamma 90.000000
_cell_volume 6178.696333
_symmetry_space_group_name_H-M "I M M M"
_symmetry_group_IT_number 71
_symmetry_cell_setting 'orthorhombic'
loop_
_space_group_symop_operation_xyz
x,y,z
-x,-y,z
x,-y,-z
-x,y,-z
-x,-y,-z
x,y,-z
-x,y,z
x,-y,z
1/2+x,1/2+y,1/2+z
1/2-x,1/2-y,1/2+z
1/2+x,1/2-y,1/2-z
1/2-x,1/2+y,1/2-z
1/2-x,1/2-y,1/2-z
1/2+x,1/2+y,1/2-z
1/2-x,1/2+y,1/2+z
1/2+x,1/2-y,1/2+z
loop_
_atom_site_type_symbol
_atom_site_label
_atom_site_fract_x
_atom_site_fract_y
_atom_site_fract_z
Si Si1 0.709998 0.109998 0.578386
Si Si2 0.725484 0.608393 0.212824
Si Si3 0.160960 0.887254 0.083735
Si Si4 0.500000 0.885406 0.415217
Si Si5 0.169735 0.304183 0.281418
Si Si6 0.108219 0.712911 0.852425
Si Si7 0.288578 0.114843 0.081593
O O1 0.729873 0.142991 0.500000
O O2 0.763644 0.121583 0.628256
O O3 0.658933 0.174582 0.601101
O O4 0.687709 0.000000 0.579409
O O5 0.702499 0.500000 0.230735
O O6 0.783527 0.622239 0.253090
O O7 0.682409 0.690700 0.235306
O O8 0.115320 0.828635 0.131377
O O9 0.225000 0.856742 0.102486
O O10 0.152672 0.000000 0.103314
O O11 0.149862 0.869376 0.000000
O O12 0.500000 0.869131 0.500000
O O13 0.448050 0.832200 0.380308
O O14 0.500000 0.000000 0.396329
O O15 0.114713 0.317620 0.232230
O O16 0.166895 0.329629 0.366091
O O17 0.297157 0.000000 0.089504
O O18 0.301306 0.146852 0.000000
#
# Coordination Sequence:
#
# PCOD8288135 Si02
#       7
#    16  16  16   8  16  16  16
#     4   9  16  26  42  65  93 125 156 183 217 264
#     4   9  17  27  40  63  94 124 152 182 218 264
#     4   9  17  29  46  68  95 128 160 186 218 266
#     4  11  24  40  55  69  86 112 149 192 235 275
#     4  10  19  28  43  65  89 120 153 187 227 272
#     4  11  21  32  47  66  88 118 155 197 238 269
#     4   9  17  29  46  69  97 126 154 185 221 270
#
# _framework density 16.832028999999999
#
# number of rings (size 3 to 8) (size 9 to 14) (size 15 to 20)
#    0.000    2.385    0.000    6.000    0.000    6.769 
#    0.000    0.385    0.000    1.385    0.000    0.538 
#    0.000    1.846    0.000    0.000    0.000   10.846 
#
# Total GULP energy -644299.692354 kJ/mol
# GULP energy per Si atom -12390.378699 kJ/mol
# Density = 1.679372 g / cm^3
# Si number density = 16.832029 Si / 1000 Ang^3
#
#
#
# Elastic Constant Matrix: (Units=GPa)
#
#
# Indices 1 2 3 4 5 6 
#
# 1 55.5885 33.2715 37.6622 0.0000 0.0000 0.0000
# 2 33.2715 72.5894 41.5758 0.0000 0.0000 0.0000
# 3 37.6622 41.5758 102.3430 0.0000 0.0000 0.0000
# 4 0.0000 0.0000 0.0000 22.5413 0.0000 0.0000
# 5 0.0000 0.0000 0.0000 0.0000 15.8616 0.0000
# 6 0.0000 0.0000 0.0000 0.0000 0.0000 17.1342
#
#
#
# Elastic Compliance Matrix: (Units=1/GPa)
#
#
# Indices 1 2 3 4 5 6 
#
# 1 0.027832 -0.008980 -0.006594 0.000000 0.000000 0.000000
# 2 -0.008980 0.020851 -0.005166 0.000000 0.000000 0.000000
# 3 -0.006594 -0.005166 0.014296 0.000000 0.000000 0.000000
# 4 0.000000 0.000000 0.000000 0.044363 0.000000 0.000000
# 5 0.000000 0.000000 0.000000 0.000000 0.063045 0.000000
# 6 0.000000 0.000000 0.000000 0.000000 0.000000 0.058363
#
#
# Mechanical properties :
#
#
# Convention : Reuss Voigt Hill
#
# Bulk Modulus (GPa) = 46.51348 50.61552 48.56450
# Shear Modulus (GPa) = 18.02478 18.97485 18.49982
#
# Velocity S-wave (km/s) = 3.27595 3.36118 3.31884
# Velocity P-wave (km/s) = 6.48098 6.72307 6.60313
#
# Compressibility (1/GPa) = 0.02149915
#
# Stress axis : x y z
#
# Youngs Moduli (GPa) = 35.93021 47.95972 69.94844
#
# Poissons Ratio (x) = 0.43068 0.46125
# Poissons Ratio (y) = 0.32265 0.36134
# Poissons Ratio (z) = 0.23693 0.24775
#
# Static dielectric constant tensor:
#      x y z
#    x 2.983340 0.000000 0.000000 
#    y 0.000000 3.401640 0.000000 
#    z 0.000000 0.000000 3.505610 
# 
# 
# High freq. dielectric constant tensor:
#      x y z
#    x 1.559150 0.000000 0.000000 
#    y 0.000000 1.671730 0.000000 
#    z 0.000000 0.000000 1.664750 
# 
# From -- ./inp_files/49013.got.cif
#   From: 2010.06.25/outbox.cif.g09.slc.cpg/sg71_25_cif.got.tgz:49013.got - 2010.06.28 04:59:45.
