data_PCOD8288317
_publ_section_title
;
Structure prediction by ZEFSAII (Michael W. Deem and Ramdas Pophale) SiO2 
 PCOD8288317
Probable space group: I M M M
;
_chemical_formula_sum "Si O2"
_cell_formula_units_Z 96
_cell_length_a 23.838698
_cell_length_b 10.680759
_cell_length_c 21.541294
_cell_angle_alpha 90.000000
_cell_angle_beta 90.000000
_cell_angle_gamma 90.000000
_cell_volume 5484.744934
_symmetry_space_group_name_H-M "I M M M"
_symmetry_group_IT_number 71
_symmetry_cell_setting 'orthorhombic'
loop_
_space_group_symop_operation_xyz
x,y,z
-x,-y,z
x,-y,-z
-x,y,-z
-x,-y,-z
x,y,-z
-x,y,z
x,-y,z
1/2+x,1/2+y,1/2+z
1/2-x,1/2-y,1/2+z
1/2+x,1/2-y,1/2-z
1/2-x,1/2+y,1/2-z
1/2-x,1/2-y,1/2-z
1/2+x,1/2+y,1/2-z
1/2-x,1/2+y,1/2+z
1/2+x,1/2-y,1/2+z
loop_
_atom_site_type_symbol
_atom_site_label
_atom_site_fract_x
_atom_site_fract_y
_atom_site_fract_z
Si Si1 0.117936 0.854943 0.814658
Si Si2 0.383642 0.351679 0.930167
Si Si3 0.279219 0.260070 0.852745
Si Si4 0.193198 0.364400 0.234755
Si Si5 0.186441 0.857052 0.931454
Si Si6 0.500000 0.649309 0.873210
Si Si7 0.000000 0.853368 0.234391
O O1 0.155138 0.757969 0.775804
O O2 0.132530 0.839235 0.887153
O O3 0.054099 0.812284 0.804868
O O4 0.128283 0.000000 0.792850
O O5 0.383834 0.500000 0.930529
O O6 0.337101 0.307776 0.881414
O O7 0.444385 0.300960 0.908074
O O8 0.371953 0.300959 0.000000
O O9 0.247702 0.363458 0.810132
O O10 0.289031 0.141535 0.807161
O O11 0.239110 0.223609 0.909411
O O12 0.163396 0.500000 0.224223
O O13 0.206126 0.000000 0.932309
O O14 0.168680 0.811264 0.000000
O O15 0.500000 0.500000 0.872473
O O16 0.500000 0.705818 0.803343
O O17 0.000000 0.000000 0.243634
#
# Coordination Sequence:
#
# PCOD8288317 Si02
#       7
#    16  16  16  16  16   8   8
#     4   9  18  32  51  73  98 128 161 199 243 289
#     4  10  19  30  45  67  94 124 161 201 238 280
#     4  10  19  30  47  67  95 128 163 196 239 289
#     4  10  20  32  48  72 101 129 160 202 247 289
#     4   9  17  30  47  68  95 125 157 194 236 283
#     4   9  17  28  43  64  92 123 154 197 246 282
#     4   9  16  29  50  74  97 125 162 199 240 290
#
# _framework density 17.503093
#
# number of rings (size 3 to 8) (size 9 to 14) (size 15 to 20)
#    0.000    2.500    0.000    2.750    0.000    7.000 
#    0.000    0.833    0.000    7.000    0.000    1.750 
#    0.000   13.333    0.000    0.000    0.000    0.000 
#
# Total GULP energy -594797.016397 kJ/mol
# GULP energy per Si atom -12391.604508 kJ/mol
# Density = 1.746325 g / cm^3
# Si number density = 17.503093 Si / 1000 Ang^3
#
#
#
# Elastic Constant Matrix: (Units=GPa)
#
#
# Indices 1 2 3 4 5 6 
#
# 1 128.7531 33.1150 58.0695 0.0000 0.0000 0.0000
# 2 33.1150 68.4527 28.6979 0.0000 0.0000 0.0000
# 3 58.0695 28.6979 126.3755 0.0000 0.0000 0.0000
# 4 0.0000 0.0000 0.0000 8.0581 0.0000 0.0000
# 5 0.0000 0.0000 0.0000 0.0000 22.9440 0.0000
# 6 0.0000 0.0000 0.0000 0.0000 0.0000 13.5869
#
#
#
# Elastic Compliance Matrix: (Units=1/GPa)
#
#
# Indices 1 2 3 4 5 6 
#
# 1 0.010454 -0.003364 -0.004040 0.000000 0.000000 0.000000
# 2 -0.003364 0.017228 -0.002367 0.000000 0.000000 0.000000
# 3 -0.004040 -0.002367 0.010307 0.000000 0.000000 0.000000
# 4 0.000000 0.000000 0.000000 0.124099 0.000000 0.000000
# 5 0.000000 0.000000 0.000000 0.000000 0.043584 0.000000
# 6 0.000000 0.000000 0.000000 0.000000 0.000000 0.073601
#
#
# Mechanical properties :
#
#
# Convention : Reuss Voigt Hill
#
# Bulk Modulus (GPa) = 54.20483 62.59402 58.39942
# Shear Modulus (GPa) = 16.39547 22.49770 19.44659
#
# Velocity S-wave (km/s) = 3.06391 3.58908 3.33684
# Velocity P-wave (km/s) = 6.59944 7.28111 6.94864
#
# Compressibility (1/GPa) = 0.01844854
#
# Stress axis : x y z
#
# Youngs Moduli (GPa) = 95.65807 58.04503 97.02511
#
# Poissons Ratio (x) = 0.19524 0.39196
# Poissons Ratio (y) = 0.32176 0.22962
# Poissons Ratio (z) = 0.38643 0.13737
#
# Static dielectric constant tensor:
#      x y z
#    x 3.344540 0.000000 0.000000 
#    y 0.000000 2.915040 0.000000 
#    z 0.000000 0.000000 3.490530 
# 
# 
# High freq. dielectric constant tensor:
#      x y z
#    x 1.670310 0.000000 0.000000 
#    y 0.000000 1.638200 0.000000 
#    z 0.000000 0.000000 1.687830 
# 
# From -- ./inp_files/54931.got.cif
#   From: 2010.06.25/outbox.cif.g09.slc.cpg/sg71_28_cif.got.tgz:54931.got - 2010.06.28 04:59:45.
