data_PCOD8288070
_publ_section_title
;
Structure prediction by ZEFSAII (Michael W. Deem and Ramdas Pophale) SiO2 
 PCOD8288070
Probable space group: I M M M
;
_chemical_formula_sum "Si O2"
_cell_formula_units_Z 96
_cell_length_a 15.157673
_cell_length_b 19.473238
_cell_length_c 16.352548
_cell_angle_alpha 90.000000
_cell_angle_beta 90.000000
_cell_angle_gamma 90.000000
_cell_volume 4826.764813
_symmetry_space_group_name_H-M "I M M M"
_symmetry_group_IT_number 71
_symmetry_cell_setting 'orthorhombic'
loop_
_space_group_symop_operation_xyz
x,y,z
-x,-y,z
x,-y,-z
-x,y,-z
-x,-y,-z
x,y,-z
-x,y,z
x,-y,z
1/2+x,1/2+y,1/2+z
1/2-x,1/2-y,1/2+z
1/2+x,1/2-y,1/2-z
1/2-x,1/2+y,1/2-z
1/2-x,1/2-y,1/2-z
1/2+x,1/2+y,1/2-z
1/2-x,1/2+y,1/2+z
1/2+x,1/2-y,1/2+z
loop_
_atom_site_type_symbol
_atom_site_label
_atom_site_fract_x
_atom_site_fract_y
_atom_site_fract_z
Si Si1 0.636318 0.790700 0.839894
Si Si2 0.096251 0.682568 0.159542
Si Si3 0.711453 0.421986 0.500000
Si Si4 0.260831 0.921916 0.406281
Si Si5 0.333979 0.327672 0.648469
Si Si6 0.399709 0.636701 0.180232
Si Si7 0.596446 0.874445 0.000000
O O1 0.586728 0.812857 0.757698
O O2 0.737822 0.805842 0.821701
O O3 0.621272 0.710879 0.857745
O O4 0.599533 0.828949 0.918772
O O5 0.167063 0.625945 0.135703
O O6 0.118841 0.757109 0.120799
O O7 0.000000 0.660657 0.125720
O O8 0.677731 0.500000 0.500000
O O9 0.671157 0.383120 0.422874
O O10 0.818794 0.424316 0.500000
O O11 0.249874 0.899578 0.500000
O O12 0.166326 0.916715 0.362038
O O13 0.293898 0.000000 0.398260
O O14 0.385968 0.363337 0.722217
O O15 0.500000 0.614537 0.161129
O O16 0.500000 0.912485 0.000000
#
# Coordination Sequence:
#
# PCOD8288070 Si02
#       7
#    16  16   8  16  16  16   8
#     4  10  18  35  60  94 127 158 199 252 305 352
#     4  11  21  39  66  93 121 158 208 255 302 361
#     4  10  24  39  59  88 124 169 203 243 306 366
#     4  11  26  44  61  87 125 162 203 257 310 363
#     4  10  19  38  64  91 124 160 205 251 300 355
#     4  11  21  38  65  92 121 158 203 253 306 363
#     4  10  20  33  56  93 129 158 197 249 301 357
#
# _framework density 19.889098000000001
#
# number of rings (size 3 to 8) (size 9 to 14) (size 15 to 20)
#    0.000    1.500    3.333    4.000    2.333    2.167 
#    0.000    2.917    0.000    5.500    0.000    0.000 
#    0.000    0.000    0.000    0.000    0.000    0.000 
#
# Total GULP energy -595143.132014 kJ/mol
# GULP energy per Si atom -12398.815250 kJ/mol
# Density = 1.984383 g / cm^3
# Si number density = 19.889098 Si / 1000 Ang^3
#
#
#
# Elastic Constant Matrix: (Units=GPa)
#
#
# Indices 1 2 3 4 5 6 
#
# 1 124.7292 37.9066 23.0650 0.0000 0.0000 0.0000
# 2 37.9066 100.1163 58.0822 0.0001 0.0000 0.0000
# 3 23.0650 58.0822 81.1642 0.0002 0.0000 0.0001
# 4 0.0000 0.0001 0.0002 20.1958 0.0000 0.0001
# 5 0.0000 0.0000 0.0000 0.0000 11.1237 0.0000
# 6 0.0000 0.0000 0.0001 0.0001 0.0000 6.4450
#
#
#
# Elastic Compliance Matrix: (Units=1/GPa)
#
#
# Indices 1 2 3 4 5 6 
#
# 1 0.009062 -0.003312 -0.000205 0.000000 0.000000 0.000000
# 2 -0.003312 0.018289 -0.012147 0.000000 0.000000 0.000000
# 3 -0.000205 -0.012147 0.021071 0.000000 0.000000 0.000000
# 4 0.000000 0.000000 0.000000 0.049515 0.000000 0.000000
# 5 0.000000 0.000000 0.000000 0.000000 0.089898 0.000000
# 6 0.000000 0.000000 0.000000 0.000000 0.000000 0.155160
#
#
# Mechanical properties :
#
#
# Convention : Reuss Voigt Hill
#
# Bulk Modulus (GPa) = 58.49769 60.45748 59.47759
# Shear Modulus (GPa) = 13.15712 20.01662 16.58687
#
# Velocity S-wave (km/s) = 2.57480 3.17584 2.89098
# Velocity P-wave (km/s) = 6.18993 6.62656 6.41196
#
# Compressibility (1/GPa) = 0.01709469
#
# Stress axis : x y z
#
# Youngs Moduli (GPa) = 110.35245 54.67620 47.45750
#
# Poissons Ratio (x) = 0.18110 0.00973
# Poissons Ratio (y) = 0.36551 0.57647
# Poissons Ratio (z) = 0.02262 0.66415
#
# Static dielectric constant tensor:
#      x y z
#    x 3.770800 0.000000 0.000000 
#    y 0.000000 3.356840 0.000000 
#    z 0.000000 0.000000 3.623190 
# 
# 
# High freq. dielectric constant tensor:
#      x y z
#    x 1.788240 0.000000 0.000000 
#    y 0.000000 1.752770 0.000000 
#    z 0.000000 0.000000 1.777870 
# 
# From -- ./inp_files/34541.got.cif
#   From: 2010.06.25/outbox.cif.g09.slc.cpg/sg71_18_cif.got.tgz:34541.got - 2010.06.28 04:59:45.
