data_PCOD8288644
_publ_section_title
;
Structure prediction by ZEFSAII (Michael W. Deem and Ramdas Pophale) SiO2 
 PCOD8288644
Probable space group: I M M M
;
_chemical_formula_sum "Si O2"
_cell_formula_units_Z 88
_cell_length_a 7.708200
_cell_length_b 27.331285
_cell_length_c 23.124519
_cell_angle_alpha 90.000000
_cell_angle_beta 90.000000
_cell_angle_gamma 90.000000
_cell_volume 4871.758296
_symmetry_space_group_name_H-M "I M M M"
_symmetry_group_IT_number 71
_symmetry_cell_setting 'orthorhombic'
loop_
_space_group_symop_operation_xyz
x,y,z
-x,-y,z
x,-y,-z
-x,y,-z
-x,-y,-z
x,y,-z
-x,y,z
x,-y,z
1/2+x,1/2+y,1/2+z
1/2-x,1/2-y,1/2+z
1/2+x,1/2-y,1/2-z
1/2-x,1/2+y,1/2-z
1/2-x,1/2-y,1/2-z
1/2+x,1/2+y,1/2-z
1/2-x,1/2+y,1/2+z
1/2+x,1/2-y,1/2+z
loop_
_atom_site_type_symbol
_atom_site_label
_atom_site_fract_x
_atom_site_fract_y
_atom_site_fract_z
Si Si1 0.500000 0.359761 0.568744
Si Si2 0.693036 0.791150 0.068352
Si Si3 0.500000 0.556883 0.656411
Si Si4 0.300558 0.905315 0.635248
Si Si5 0.206378 0.685539 0.934653
Si Si6 0.699639 0.942843 0.243899
Si Si7 0.703391 0.500000 0.933462
O O1 0.500000 0.367031 0.500000
O O2 0.331340 0.330362 0.591544
O O3 0.500000 0.413086 0.597080
O O4 0.500000 0.808105 0.086684
O O5 0.730378 0.736864 0.092785
O O6 0.714765 0.787953 0.000000
O O7 0.500000 0.500000 0.639627
O O8 0.674037 0.570925 0.691358
O O9 0.500000 0.893581 0.643780
O O10 0.213609 0.858015 0.604760
O O11 0.226174 0.914848 0.699479
O O12 0.282199 0.952057 0.594845
O O13 0.000000 0.684437 0.935477
O O14 0.277673 0.678669 0.000000
O O15 0.500000 0.928776 0.228425
O O16 0.712221 0.000000 0.258508
O O17 0.500000 0.500000 0.924091
O O18 0.758152 0.500000 0.000000
#
# Coordination Sequence:
#
# PCOD8288644 Si02
#       7
#     8  16   8  16  16  16   8
#     4  10  20  37  60  86 114 135 164 204 255 331
#     4   9  17  31  53  79 107 141 176 209 253 312
#     4  10  22  37  60  86 108 140 165 211 268 310
#     4  10  19  31  50  71  96 141 189 232 277 315
#     4   9  16  28  47  74 105 137 179 229 272 314
#     4   9  18  34  54  77 102 137 190 227 255 309
#     4  11  23  31  39  65 107 145 181 236 291 328
#
# _framework density 18.063293999999999
#
# number of rings (size 3 to 8) (size 9 to 14) (size 15 to 20)
#    0.000    2.455    1.818    0.818    1.273    3.091 
#    0.000    1.818    0.000    1.091    0.000    5.091 
#    0.000    0.000    0.000    0.000    0.000    0.000 
#
# Total GULP energy -545439.902823 kJ/mol
# GULP energy per Si atom -12396.361428 kJ/mol
# Density = 1.802218 g / cm^3
# Si number density = 18.063294 Si / 1000 Ang^3
#
#
#
# Elastic Constant Matrix: (Units=GPa)
#
#
# Indices 1 2 3 4 5 6 
#
# 1 80.5625 38.6150 32.3985 0.0000 0.0000 0.0000
# 2 38.6150 112.8843 56.2288 0.0000 0.0000 0.0000
# 3 32.3985 56.2288 69.0653 -0.0002 0.0000 0.0000
# 4 0.0000 0.0000 -0.0002 17.6999 0.0000 0.0000
# 5 0.0000 0.0000 0.0000 0.0000 15.2676 0.0000
# 6 0.0000 0.0000 0.0000 0.0000 0.0000 7.0500
#
#
#
# Elastic Compliance Matrix: (Units=1/GPa)
#
#
# Indices 1 2 3 4 5 6 
#
# 1 0.015840 -0.002889 -0.005079 0.000000 0.000000 0.000000
# 2 -0.002889 0.015429 -0.011206 0.000000 0.000000 0.000000
# 3 -0.005079 -0.011206 0.025985 0.000000 0.000000 0.000000
# 4 0.000000 0.000000 0.000000 0.056497 0.000000 0.000000
# 5 0.000000 0.000000 0.000000 0.000000 0.065498 0.000000
# 6 0.000000 0.000000 0.000000 0.000000 0.000000 0.141844
#
#
# Mechanical properties :
#
#
# Convention : Reuss Voigt Hill
#
# Bulk Modulus (GPa) = 52.89201 57.44407 55.16804
# Shear Modulus (GPa) = 13.67088 17.02150 15.34619
#
# Velocity S-wave (km/s) = 2.75404 3.07306 2.91792
# Velocity P-wave (km/s) = 6.28156 6.66800 6.47766
#
# Compressibility (1/GPa) = 0.01890645
#
# Stress axis : x y z
#
# Youngs Moduli (GPa) = 63.13261 64.81488 38.48435
#
# Poissons Ratio (x) = 0.18723 0.19545
# Poissons Ratio (y) = 0.18237 0.43125
# Poissons Ratio (z) = 0.32062 0.72631
#
# Static dielectric constant tensor:
#      x y z
#    x 3.438500 0.000000 0.000000 
#    y 0.000000 3.314330 0.000000 
#    z 0.000000 0.000000 3.059910 
# 
# 
# High freq. dielectric constant tensor:
#      x y z
#    x 1.705880 0.000000 0.000000 
#    y 0.000000 1.689920 0.000000 
#    z 0.000000 0.000000 1.661840 
# 
# From -- ./inp_files/50547.got.cif
#   From: 2010.06.25/outbox.cif.g09.slc.cpg/sg71_26_cif.got.tgz:50547.got - 2010.06.28 04:59:45.
