data_PCOD8288990
_publ_section_title
;
Structure prediction by ZEFSAII (Michael W. Deem and Ramdas Pophale) SiO2 
 PCOD8288990
Probable space group: I M M M
;
_chemical_formula_sum "Si O2"
_cell_formula_units_Z 104
_cell_length_a 31.257590
_cell_length_b 19.197669
_cell_length_c 9.339176
_cell_angle_alpha 90.000000
_cell_angle_beta 90.000000
_cell_angle_gamma 90.000000
_cell_volume 5604.186114
_symmetry_space_group_name_H-M "I M M M"
_symmetry_group_IT_number 71
_symmetry_cell_setting 'orthorhombic'
loop_
_space_group_symop_operation_xyz
x,y,z
-x,-y,z
x,-y,-z
-x,y,-z
-x,-y,-z
x,y,-z
-x,y,z
x,-y,z
1/2+x,1/2+y,1/2+z
1/2-x,1/2-y,1/2+z
1/2+x,1/2-y,1/2-z
1/2-x,1/2+y,1/2-z
1/2-x,1/2-y,1/2-z
1/2+x,1/2+y,1/2-z
1/2-x,1/2+y,1/2+z
1/2+x,1/2-y,1/2+z
loop_
_atom_site_type_symbol
_atom_site_label
_atom_site_fract_x
_atom_site_fract_y
_atom_site_fract_z
Si Si1 0.828576 0.839002 0.666557
Si Si2 0.807672 0.294812 0.161715
Si Si3 0.415232 0.342229 0.667332
Si Si4 0.907036 0.314464 0.844824
Si Si5 0.000000 0.079119 0.169995
Si Si6 0.246977 0.422868 0.834347
Si Si7 0.047340 0.576419 0.668587
O O1 0.837771 0.822098 0.500000
O O2 0.804042 0.772799 0.736883
O O3 0.872667 0.861022 0.743768
O O4 0.796983 0.904432 0.684483
O O5 0.856581 0.315058 0.152334
O O6 0.782203 0.360577 0.231365
O O7 0.790622 0.277674 0.000000
O O8 0.406014 0.358227 0.500000
O O9 0.425888 0.261309 0.691151
O O10 0.456461 0.384356 0.726348
O O11 0.920025 0.367125 0.723171
O O12 0.924638 0.338386 0.000000
O O13 0.000000 0.000000 0.225674
O O14 0.000000 0.083503 0.000000
O O15 0.238760 0.500000 0.764704
O O16 0.234615 0.427383 0.000000
O O17 0.047073 0.579584 0.500000
O O18 0.062036 0.500000 0.720775
O O19 0.000000 0.592539 0.728157
#
# Coordination Sequence:
#
# PCOD8288990 Si02
#       7
#    16  16  16  16   8  16  16
#     4  10  19  32  53  78 104 135 171 211 254 304
#     4   9  18  34  54  74  99 133 171 211 254 300
#     4   9  19  35  54  77 104 133 169 212 255 303
#     4   9  18  30  49  75  98 124 163 211 253 287
#     4   9  18  34  57  81 104 135 172 210 257 307
#     4   9  18  32  51  76 104 136 173 211 255 305
#     4   9  19  34  48  65  94 131 165 198 244 301
#
# _framework density 18.557558
#
# number of rings (size 3 to 8) (size 9 to 14) (size 15 to 20)
#    0.000    2.846    0.000    2.308    1.077    4.308 
#    0.000    3.462    0.000    4.154    0.000    0.000 
#    0.000    0.000    0.000    0.000    0.000    0.000 
#
# Total GULP energy -644457.789717 kJ/mol
# GULP energy per Si atom -12393.419033 kJ/mol
# Density = 1.851532 g / cm^3
# Si number density = 18.557558 Si / 1000 Ang^3
#
#
#
# Elastic Constant Matrix: (Units=GPa)
#
#
# Indices 1 2 3 4 5 6 
#
# 1 68.3567 66.0458 22.1358 0.0000 0.0000 0.0000
# 2 66.0458 112.3480 31.4395 0.0000 0.0000 0.0000
# 3 22.1358 31.4395 47.9130 0.0000 0.0000 0.0000
# 4 0.0000 0.0000 0.0000 22.7531 0.0000 0.0000
# 5 0.0000 0.0000 0.0000 0.0000 22.4961 0.0000
# 6 0.0000 0.0000 0.0000 0.0000 0.0000 21.1852
#
#
#
# Elastic Compliance Matrix: (Units=1/GPa)
#
#
# Indices 1 2 3 4 5 6 
#
# 1 0.034259 -0.019244 -0.003200 0.000000 0.000000 0.000000
# 2 -0.019244 0.021713 -0.005357 0.000000 0.000000 0.000000
# 3 -0.003200 -0.005357 0.025865 0.000000 0.000000 0.000000
# 4 0.000000 0.000000 0.000000 0.043950 0.000000 0.000000
# 5 0.000000 0.000000 0.000000 0.000000 0.044452 0.000000
# 6 0.000000 0.000000 0.000000 0.000000 0.000000 0.047203
#
#
# Mechanical properties :
#
#
# Convention : Reuss Voigt Hill
#
# Bulk Modulus (GPa) = 38.11764 51.98444 45.05104
# Shear Modulus (GPa) = 17.74377 20.55332 19.14855
#
# Velocity S-wave (km/s) = 3.09552 3.33159 3.21572
# Velocity P-wave (km/s) = 5.77591 6.54772 6.17389
#
# Compressibility (1/GPa) = 0.02623458
#
# Stress axis : x y z
#
# Youngs Moduli (GPa) = 29.18926 46.05504 38.66296
#
# Poissons Ratio (x) = 0.88630 0.12372
# Poissons Ratio (y) = 0.56173 0.20711
# Poissons Ratio (z) = 0.09340 0.24671
#
# Static dielectric constant tensor:
#      x y z
#    x 3.431220 0.000000 0.000000 
#    y 0.000000 3.545510 0.000000 
#    z 0.000000 0.000000 3.270210 
# 
# 
# High freq. dielectric constant tensor:
#      x y z
#    x 1.722930 0.000000 0.000000 
#    y 0.000000 1.719770 0.000000 
#    z 0.000000 0.000000 1.691350 
# 
# From -- ./inp_files/17018.got.cif
#   From: 2010.06.25/outbox.cif.g09.slc.cpg/sg71_9_cif.got.tgz:17018.got - 2010.06.28 04:59:45.
