data_PCOD8288556
_publ_section_title
;
Structure prediction by ZEFSAII (Michael W. Deem and Ramdas Pophale) SiO2 
 PCOD8288556
Probable space group: I M M M
;
_chemical_formula_sum "Si O2"
_cell_formula_units_Z 104
_cell_length_a 27.141316
_cell_length_b 24.313201
_cell_length_c 9.282843
_cell_angle_alpha 90.000000
_cell_angle_beta 90.000000
_cell_angle_gamma 90.000000
_cell_volume 6125.676352
_symmetry_space_group_name_H-M "I M M M"
_symmetry_group_IT_number 71
_symmetry_cell_setting 'orthorhombic'
loop_
_space_group_symop_operation_xyz
x,y,z
-x,-y,z
x,-y,-z
-x,y,-z
-x,-y,-z
x,y,-z
-x,y,z
x,-y,z
1/2+x,1/2+y,1/2+z
1/2-x,1/2-y,1/2+z
1/2+x,1/2-y,1/2-z
1/2-x,1/2+y,1/2-z
1/2-x,1/2-y,1/2-z
1/2+x,1/2+y,1/2-z
1/2-x,1/2+y,1/2+z
1/2+x,1/2-y,1/2+z
loop_
_atom_site_type_symbol
_atom_site_label
_atom_site_fract_x
_atom_site_fract_y
_atom_site_fract_z
Si Si1 0.732467 0.301277 0.663601
Si Si2 0.869117 0.764233 0.830851
Si Si3 0.332378 0.157401 0.833057
Si Si4 0.904846 0.562733 0.667598
Si Si5 0.500000 0.065341 0.662631
Si Si6 0.441742 0.335493 0.834853
Si Si7 0.058494 0.939406 0.838813
O O1 0.735871 0.282568 0.500000
O O2 0.750000 0.250000 0.750000
O O3 0.674444 0.310197 0.699085
O O4 0.772683 0.349786 0.693406
O O5 0.854608 0.705173 0.766378
O O6 0.917971 0.785324 0.752347
O O7 0.879980 0.757332 0.000000
O O8 0.357432 0.099500 0.792836
O O9 0.342878 0.172434 0.000000
O O10 0.918624 0.566555 0.500000
O O11 0.892326 0.500000 0.711480
O O12 0.951319 0.586508 0.755797
O O13 0.500000 0.088429 0.500000
O O14 0.500000 0.000000 0.665205
O O15 0.500000 0.329659 0.817119
O O16 0.422124 0.393459 0.771270
O O17 0.425239 0.332624 0.000000
O O18 0.000000 0.940116 0.838314
O O19 0.078009 0.000000 0.792042
O O20 0.077451 0.925262 0.000000
#
# Coordination Sequence:
#
# PCOD8288556 Si02
#       7
#    16  16  16  16   8  16  16
#     4   8  15  28  47  69  90 113 145 187 231 275
#     4  10  19  31  48  69  94 124 158 196 238 286
#     4   9  17  31  50  71  94 119 152 195 238 284
#     4   9  17  30  49  71  94 123 158 195 237 285
#     4   9  17  29  45  65  91 123 157 193 230 271
#     4  10  20  32  46  66  94 127 160 193 231 278
#     4   8  14  26  45  67  89 115 149 188 227 266
#
# _framework density 16.977716999999998
#
# number of rings (size 3 to 8) (size 9 to 14) (size 15 to 20)
#    0.000    3.000    0.000    1.615    0.000    3.385 
#    1.385    1.538    0.000    0.923    0.000    4.308 
#    0.000    0.000    0.000    0.000    0.000    0.000 
#
# Total GULP energy -644192.508413 kJ/mol
# GULP energy per Si atom -12388.317469 kJ/mol
# Density = 1.693908 g / cm^3
# Si number density = 16.977717 Si / 1000 Ang^3
#
#
#
# Elastic Constant Matrix: (Units=GPa)
#
#
# Indices 1 2 3 4 5 6 
#
# 1 71.4830 39.8186 38.2417 0.0000 0.0000 0.0000
# 2 39.8186 71.4594 39.2457 0.0000 0.0000 0.0000
# 3 38.2417 39.2457 85.5544 0.0000 0.0000 0.0000
# 4 0.0000 0.0000 0.0000 24.2614 0.0000 0.0000
# 5 0.0000 0.0000 0.0000 0.0000 19.1615 0.0000
# 6 0.0000 0.0000 0.0000 0.0000 0.0000 26.2326
#
#
#
# Elastic Compliance Matrix: (Units=1/GPa)
#
#
# Indices 1 2 3 4 5 6 
#
# 1 0.022170 -0.009239 -0.005672 0.000000 0.000000 0.000000
# 2 -0.009239 0.022557 -0.006218 0.000000 0.000000 0.000000
# 3 -0.005672 -0.006218 0.017076 0.000000 0.000000 0.000000
# 4 0.000000 0.000000 0.000000 0.041218 0.000000 0.000000
# 5 0.000000 0.000000 0.000000 0.000000 0.052188 0.000000
# 6 0.000000 0.000000 0.000000 0.000000 0.000000 0.038121
#
#
# Mechanical properties :
#
#
# Convention : Reuss Voigt Hill
#
# Bulk Modulus (GPa) = 51.16035 51.45650 51.30843
# Shear Modulus (GPa) = 20.65263 21.34381 20.99822
#
# Velocity S-wave (km/s) = 3.49156 3.54950 3.52065
# Velocity P-wave (km/s) = 6.81571 6.86824 6.84202
#
# Compressibility (1/GPa) = 0.01954639
#
# Stress axis : x y z
#
# Youngs Moduli (GPa) = 45.10651 44.33279 58.56229
#
# Poissons Ratio (x) = 0.40957 0.33215
# Poissons Ratio (y) = 0.41672 0.36412
# Poissons Ratio (z) = 0.25583 0.27565
#
# Static dielectric constant tensor:
#      x y z
#    x 3.448960 0.000000 0.000000 
#    y 0.000000 3.047710 0.000000 
#    z 0.000000 0.000000 3.260200 
# 
# 
# High freq. dielectric constant tensor:
#      x y z
#    x 1.643160 0.000000 0.000000 
#    y 0.000000 1.625510 0.000000 
#    z 0.000000 0.000000 1.662150 
# 
# From -- ./inp_files/15326.got.cif
#   From: 2010.06.25/outbox.cif.g09.slc.cpg/sg71_8_cif.got.tgz:15326.got - 2010.06.28 04:59:45.
