data_PCOD8288525
_publ_section_title
;
Structure prediction by ZEFSAII (Michael W. Deem and Ramdas Pophale) SiO2 
 PCOD8288525
Probable space group: I M M M
;
_chemical_formula_sum "Si O2"
_cell_formula_units_Z 104
_cell_length_a 29.854161
_cell_length_b 8.873155
_cell_length_c 22.829513
_cell_angle_alpha 90.000000
_cell_angle_beta 90.000000
_cell_angle_gamma 90.000000
_cell_volume 6047.551645
_symmetry_space_group_name_H-M "I M M M"
_symmetry_group_IT_number 71
_symmetry_cell_setting 'orthorhombic'
loop_
_space_group_symop_operation_xyz
x,y,z
-x,-y,z
x,-y,-z
-x,y,-z
-x,-y,-z
x,y,-z
-x,y,z
x,-y,z
1/2+x,1/2+y,1/2+z
1/2-x,1/2-y,1/2+z
1/2+x,1/2-y,1/2-z
1/2-x,1/2+y,1/2-z
1/2-x,1/2-y,1/2-z
1/2+x,1/2+y,1/2-z
1/2-x,1/2+y,1/2+z
1/2+x,1/2-y,1/2+z
loop_
_atom_site_type_symbol
_atom_site_label
_atom_site_fract_x
_atom_site_fract_y
_atom_site_fract_z
Si Si1 0.373377 0.821945 0.432815
Si Si2 0.807209 0.175134 0.431143
Si Si3 0.450211 0.821219 0.217589
Si Si4 0.782933 0.169622 0.069590
Si Si5 0.447155 0.325209 0.000000
Si Si6 0.550025 0.179201 0.652273
Si Si7 0.603817 0.179082 0.893155
O O1 0.382209 0.775577 0.500000
O O2 0.328197 0.747601 0.407545
O O3 0.414722 0.757283 0.394903
O O4 0.367945 0.000000 0.426429
O O5 0.813376 0.205417 0.500000
O O6 0.759847 0.237279 0.407748
O O7 0.845595 0.263730 0.396933
O O8 0.810163 0.000000 0.416156
O O9 0.500000 0.759809 0.202647
O O10 0.435985 0.765316 0.282535
O O11 0.415294 0.763061 0.169160
O O12 0.451400 0.000000 0.216987
O O13 0.780275 0.000000 0.094067
O O14 0.783097 0.171516 0.000000
O O15 0.427112 0.248401 0.057030
O O16 0.433328 0.500000 0.000000
O O17 0.500000 0.301427 0.000000
O O18 0.500000 0.238240 0.636864
O O19 0.550115 0.000000 0.649850
O O20 0.602823 0.000000 0.899261
#
# Coordination Sequence:
#
# PCOD8288525 Si02
#       7
#    16  16  16  16   8  16  16
#     4   9  16  26  44  73 103 127 154 189 234 281
#     4  10  19  31  47  67  95 124 152 190 241 293
#     4   8  15  28  45  66  91 122 161 199 234 273
#     4   9  17  29  46  67  93 125 159 192 230 279
#     4  11  23  35  45  63  95 129 157 193 246 295
#     4   8  14  26  45  69  98 129 159 193 231 275
#     4  11  20  30  48  70  92 119 158 203 241 284
#
# _framework density 17.197042
#
# number of rings (size 3 to 8) (size 9 to 14) (size 15 to 20)
#    0.000    2.692    0.769    3.000    0.000    4.000 
#    0.000    1.538    0.000    3.231    0.000    6.462 
#    0.000    0.000    0.000    0.000    0.000    0.000 
#
# Total GULP energy -644657.372835 kJ/mol
# GULP energy per Si atom -12397.257170 kJ/mol
# Density = 1.715790 g / cm^3
# Si number density = 17.197042 Si / 1000 Ang^3
#
#
#
# Elastic Constant Matrix: (Units=GPa)
#
#
# Indices 1 2 3 4 5 6 
#
# 1 159.0828 48.4467 77.9118 0.0000 0.0000 0.0000
# 2 48.4467 61.7129 31.9465 0.0000 0.0000 0.0000
# 3 77.9118 31.9465 91.0137 0.0000 0.0000 0.0000
# 4 0.0000 0.0000 0.0000 5.7982 0.0000 0.0000
# 5 0.0000 0.0000 0.0000 0.0000 15.4554 0.0000
# 6 0.0000 0.0000 0.0000 0.0000 0.0000 24.7092
#
#
#
# Elastic Compliance Matrix: (Units=1/GPa)
#
#
# Indices 1 2 3 4 5 6 
#
# 1 0.011966 -0.004999 -0.008488 0.000000 0.000000 0.000000
# 2 -0.004999 0.021891 -0.003404 0.000000 0.000000 0.000000
# 3 -0.008488 -0.003404 0.019449 0.000000 0.000000 0.000000
# 4 0.000000 0.000000 0.000000 0.172467 0.000000 0.000000
# 5 0.000000 0.000000 0.000000 0.000000 0.064702 0.000000
# 6 0.000000 0.000000 0.000000 0.000000 0.000000 0.040471
#
#
# Mechanical properties :
#
#
# Convention : Reuss Voigt Hill
#
# Bulk Modulus (GPa) = 51.22565 69.82437 60.52501
# Shear Modulus (GPa) = 13.46850 19.42618 16.44734
#
# Velocity S-wave (km/s) = 2.80158 3.36463 3.09594
# Velocity P-wave (km/s) = 6.34959 7.46894 6.93190
#
# Compressibility (1/GPa) = 0.01952147
#
# Stress axis : x y z
#
# Youngs Moduli (GPa) = 83.57139 45.68092 51.41720
#
# Poissons Ratio (x) = 0.22838 0.43645
# Poissons Ratio (y) = 0.41781 0.17503
# Poissons Ratio (z) = 0.70939 0.15551
#
# Static dielectric constant tensor:
#      x y z
#    x 3.466440 0.000000 0.000000 
#    y 0.000000 3.034450 0.000000 
#    z 0.000000 0.000000 3.214260 
# 
# 
# High freq. dielectric constant tensor:
#      x y z
#    x 1.675230 0.000000 0.000000 
#    y 0.000000 1.643830 0.000000 
#    z 0.000000 0.000000 1.634510 
# 
# From -- ./inp_files/56682.got.cif
#   From: 2010.06.25/outbox.cif.g09.slc.cpg/sg71_29_cif.got.tgz:56682.got - 2010.06.28 04:59:45.
