data_PCOD8288104
_publ_section_title
;
Structure prediction by ZEFSAII (Michael W. Deem and Ramdas Pophale) SiO2 
 PCOD8288104
Probable space group: I M M M
;
_chemical_formula_sum "Si O2"
_cell_formula_units_Z 120
_cell_length_a 25.457114
_cell_length_b 25.323957
_cell_length_c 13.860897
_cell_angle_alpha 90.000000
_cell_angle_beta 90.000000
_cell_angle_gamma 90.000000
_cell_volume 8935.771837
_symmetry_space_group_name_H-M "I M M M"
_symmetry_group_IT_number 71
_symmetry_cell_setting 'orthorhombic'
loop_
_space_group_symop_operation_xyz
x,y,z
-x,-y,z
x,-y,-z
-x,y,-z
-x,-y,-z
x,y,-z
-x,y,z
x,-y,z
1/2+x,1/2+y,1/2+z
1/2-x,1/2-y,1/2+z
1/2+x,1/2-y,1/2-z
1/2-x,1/2+y,1/2-z
1/2-x,1/2-y,1/2-z
1/2+x,1/2+y,1/2-z
1/2-x,1/2+y,1/2+z
1/2+x,1/2-y,1/2+z
loop_
_atom_site_type_symbol
_atom_site_label
_atom_site_fract_x
_atom_site_fract_y
_atom_site_fract_z
Si Si1 0.938637 0.438778 0.609160
Si Si2 0.800296 0.795521 0.393532
Si Si3 0.061073 0.708022 0.888318
Si Si4 0.350793 0.265299 0.291332
Si Si5 0.105498 0.396848 0.797902
Si Si6 0.558718 0.000000 0.386616
Si Si7 0.760403 0.814522 0.105450
Si Si8 0.709787 0.155588 0.711781
O O1 0.920461 0.425249 0.500000
O O2 0.927183 0.500000 0.632821
O O3 0.906938 0.402031 0.683705
O O4 0.000000 0.426801 0.620610
O O5 0.822703 0.809106 0.500000
O O6 0.848378 0.790561 0.316861
O O7 0.769256 0.740980 0.394943
O O8 0.758763 0.841319 0.362366
O O9 0.090435 0.755141 0.830067
O O10 0.072800 0.651477 0.841486
O O11 0.000000 0.720608 0.879635
O O12 0.079472 0.707265 0.000000
O O13 0.320678 0.304795 0.363440
O O14 0.321759 0.209747 0.290765
O O15 0.089647 0.448863 0.853828
O O16 0.168341 0.390326 0.813391
O O17 0.500000 0.000000 0.340950
O O18 0.554597 0.000000 0.500000
O O19 0.732474 0.853888 0.180601
O O20 0.759374 0.841048 0.000000
#
# Coordination Sequence:
#
# PCOD8288104 Si02
#       8
#    16  16  16  16  16   8  16  16
#     4   9  17  29  43  53  60  80 116 154 192 229
#     4   8  13  23  38  53  70  90 110 134 168 214
#     4  10  19  28  38  53  73  96 120 148 185 223
#     4   8  14  24  36  52  70  92 116 136 167 211
#     4  11  19  29  41  53  70  90 116 156 196 229
#     4  11  22  32  41  51  63  87 124 160 194 229
#     4   8  12  21  36  52  70  87 105 132 166 209
#     4   8  16  23  33  54  71  85 107 137 181 223
#
# _framework density 13.429169999999999
#
# number of rings (size 3 to 8) (size 9 to 14) (size 15 to 20)
#    0.000    3.000    0.667    4.000    0.000    5.333 
#    0.000    2.000    0.000    1.200    0.000    0.000 
#    0.000    0.000    0.000    0.000    0.000    0.000 
#
# Total GULP energy -743480.982031 kJ/mol
# GULP energy per Si atom -12391.349701 kJ/mol
# Density = 1.339860 g / cm^3
# Si number density = 13.429170 Si / 1000 Ang^3
#
#
#
# Elastic Constant Matrix: (Units=GPa)
#
#
# Indices 1 2 3 4 5 6 
#
# 1 66.7846 32.6473 40.3136 0.0000 0.0000 0.0000
# 2 32.6473 29.4269 21.0032 0.0000 0.0000 0.0000
# 3 40.3136 21.0032 107.9976 0.0000 0.0000 0.0000
# 4 0.0000 0.0000 0.0000 11.9886 0.0000 0.0000
# 5 0.0000 0.0000 0.0000 0.0000 16.1335 0.0000
# 6 0.0000 0.0000 0.0000 0.0000 0.0000 26.2844
#
#
#
# Elastic Compliance Matrix: (Units=1/GPa)
#
#
# Indices 1 2 3 4 5 6 
#
# 1 0.036426 -0.035657 -0.006663 0.000000 0.000000 0.000000
# 2 -0.035657 0.074364 -0.001152 0.000000 0.000000 0.000000
# 3 -0.006663 -0.001152 0.011971 0.000000 0.000000 0.000000
# 4 0.000000 0.000000 0.000000 0.083413 0.000000 0.000000
# 5 0.000000 0.000000 0.000000 0.000000 0.061983 0.000000
# 6 0.000000 0.000000 0.000000 0.000000 0.000000 0.038045
#
#
# Mechanical properties :
#
#
# Convention : Reuss Voigt Hill
#
# Bulk Modulus (GPa) = 27.91960 43.57081 35.74521
# Shear Modulus (GPa) = 12.34310 18.23097 15.28704
#
# Velocity S-wave (km/s) = 3.03500 3.68851 3.37760
# Velocity P-wave (km/s) = 5.75474 7.11727 6.47196
#
# Compressibility (1/GPa) = 0.03581713
#
# Stress axis : x y z
#
# Youngs Moduli (GPa) = 27.45281 13.44734 83.53816
#
# Poissons Ratio (x) = 0.47949 0.55659
# Poissons Ratio (y) = 0.97889 0.09624
# Poissons Ratio (z) = 0.18291 0.01549
#
# Static dielectric constant tensor:
#      x y z
#    x 2.684200 0.000000 0.000000 
#    y 0.000000 2.456500 0.000000 
#    z 0.000000 0.000000 3.064810 
# 
# 
# High freq. dielectric constant tensor:
#      x y z
#    x 1.488640 0.000000 0.000000 
#    y 0.000000 1.451460 0.000000 
#    z 0.000000 0.000000 1.533340 
# 
# From -- ./inp_files/39741.got.cif
#   From: 2010.06.25/outbox.cif.g09.slc.cpg/sg71_20_cif.got.tgz:39741.got - 2010.06.28 04:59:45.
