data_PCOD8288956
_publ_section_title
;
Structure prediction by ZEFSAII (Michael W. Deem and Ramdas Pophale) SiO2 
 PCOD8288956
Probable space group: I M M M
;
_chemical_formula_sum "Si O2"
_cell_formula_units_Z 104
_cell_length_a 9.016000
_cell_length_b 23.661735
_cell_length_c 27.104730
_cell_angle_alpha 90.000000
_cell_angle_beta 90.000000
_cell_angle_gamma 90.000000
_cell_volume 5782.365966
_symmetry_space_group_name_H-M "I M M M"
_symmetry_group_IT_number 71
_symmetry_cell_setting 'orthorhombic'
loop_
_space_group_symop_operation_xyz
x,y,z
-x,-y,z
x,-y,-z
-x,y,-z
-x,-y,-z
x,y,-z
-x,y,z
x,-y,z
1/2+x,1/2+y,1/2+z
1/2-x,1/2-y,1/2+z
1/2+x,1/2-y,1/2-z
1/2-x,1/2+y,1/2-z
1/2-x,1/2-y,1/2-z
1/2+x,1/2+y,1/2-z
1/2-x,1/2+y,1/2+z
1/2+x,1/2-y,1/2+z
loop_
_atom_site_type_symbol
_atom_site_label
_atom_site_fract_x
_atom_site_fract_y
_atom_site_fract_z
Si Si1 0.673377 0.767200 0.300423
Si Si2 0.164631 0.933477 0.000000
Si Si3 0.831839 0.262859 0.443819
Si Si4 0.673153 0.934060 0.443766
Si Si5 0.174370 0.563646 0.400752
Si Si6 0.830582 0.164383 0.872192
Si Si7 0.327881 0.656405 0.876945
O O1 0.500000 0.780113 0.292755
O O2 0.750000 0.750000 0.250000
O O3 0.701579 0.711337 0.331938
O O4 0.746810 0.822351 0.326529
O O5 0.255237 0.914949 0.048049
O O6 0.000000 0.906102 0.000000
O O7 0.150028 0.000000 0.000000
O O8 0.793093 0.252110 0.500000
O O9 0.721748 0.310705 0.424464
O O10 0.803959 0.203668 0.417762
O O11 0.000000 0.283845 0.435364
O O12 0.724523 0.918471 0.500000
O O13 0.500000 0.920319 0.438237
O O14 0.759492 0.900137 0.400909
O O15 0.704552 0.000000 0.434213
O O16 0.223209 0.500000 0.386760
O O17 0.237093 0.607298 0.359760
O O18 0.000000 0.567986 0.405278
O O19 0.000000 0.146380 0.875206
O O20 0.500000 0.645642 0.864309
#
# Coordination Sequence:
#
# PCOD8288956 Si02
#       7
#    16   8  16  16  16  16  16
#     4  10  21  38  59  81 103 130 166 213 268 323
#     4   9  17  29  45  65  91 127 169 207 240 275
#     4   9  18  31  46  67  99 136 169 205 250 299
#     4   9  18  32  50  75 111 154 192 223 260 310
#     4  10  20  33  49  69  96 132 170 205 244 292
#     4  10  21  34  50  74 100 128 165 207 254 304
#     4  10  19  32  52  78 106 137 175 218 263 314
#
# _framework density 17.985717999999999
#
# number of rings (size 3 to 8) (size 9 to 14) (size 15 to 20)
#    0.000    2.385    0.000    3.000    1.077    5.846 
#    0.000    0.769    0.000    0.923    0.000    4.308 
#    0.000    0.000    0.000    0.000    0.000    0.000 
#
# Total GULP energy -644560.561237 kJ/mol
# GULP energy per Si atom -12395.395408 kJ/mol
# Density = 1.794478 g / cm^3
# Si number density = 17.985718 Si / 1000 Ang^3
#
#
#
# Elastic Constant Matrix: (Units=GPa)
#
#
# Indices 1 2 3 4 5 6 
#
# 1 102.7466 56.4823 47.8408 0.0000 0.0000 0.0000
# 2 56.4823 92.9857 36.5510 0.0000 0.0000 0.0000
# 3 47.8408 36.5510 87.0107 0.0000 0.0000 0.0000
# 4 0.0000 0.0000 0.0000 22.5411 0.0000 0.0000
# 5 0.0000 0.0000 0.0000 0.0000 28.6211 0.0000
# 6 0.0000 0.0000 0.0000 0.0000 0.0000 34.0395
#
#
#
# Elastic Compliance Matrix: (Units=1/GPa)
#
#
# Indices 1 2 3 4 5 6 
#
# 1 0.016838 -0.007892 -0.005943 0.000000 0.000000 0.000000
# 2 -0.007892 0.016580 -0.002626 0.000000 0.000000 0.000000
# 3 -0.005943 -0.002626 0.015863 0.000000 0.000000 0.000000
# 4 0.000000 0.000000 0.000000 0.044363 0.000000 0.000000
# 5 0.000000 0.000000 0.000000 0.000000 0.034939 0.000000
# 6 0.000000 0.000000 0.000000 0.000000 0.000000 0.029378
#
#
# Mechanical properties :
#
#
# Convention : Reuss Voigt Hill
#
# Bulk Modulus (GPa) = 61.12208 62.72126 61.92167
# Shear Modulus (GPa) = 25.46641 26.49826 25.98234
#
# Velocity S-wave (km/s) = 3.76696 3.84252 3.80493
# Velocity P-wave (km/s) = 7.27856 7.39156 7.33528
#
# Compressibility (1/GPa) = 0.01636070
#
# Stress axis : x y z
#
# Youngs Moduli (GPa) = 59.38866 60.31248 63.03817
#
# Poissons Ratio (x) = 0.47599 0.37463
# Poissons Ratio (y) = 0.46870 0.16552
# Poissons Ratio (z) = 0.35294 0.15836
#
# Static dielectric constant tensor:
#      x y z
#    x 3.448600 0.000000 0.000000 
#    y 0.000000 3.463210 0.000000 
#    z 0.000000 0.000000 3.186220 
# 
# 
# High freq. dielectric constant tensor:
#      x y z
#    x 1.707220 0.000000 0.000000 
#    y 0.000000 1.699580 0.000000 
#    z 0.000000 0.000000 1.665160 
# 
# From -- ./inp_files/13258.got.cif
#   From: 2010.06.25/outbox.cif.g09.slc.cpg/sg71_7_cif.got.tgz:13258.got - 2010.06.28 04:59:45.
