data_PCOD8288548
_publ_section_title
;
Structure prediction by ZEFSAII (Michael W. Deem and Ramdas Pophale) SiO2 
 PCOD8288548
Probable space group: I M M M
;
_chemical_formula_sum "Si O2"
_cell_formula_units_Z 80
_cell_length_a 8.873178
_cell_length_b 23.054172
_cell_length_c 26.245805
_cell_angle_alpha 90.000000
_cell_angle_beta 90.000000
_cell_angle_gamma 90.000000
_cell_volume 5368.940865
_symmetry_space_group_name_H-M "I M M M"
_symmetry_group_IT_number 71
_symmetry_cell_setting 'orthorhombic'
loop_
_space_group_symop_operation_xyz
x,y,z
-x,-y,z
x,-y,-z
-x,y,-z
-x,-y,-z
x,y,-z
-x,y,z
x,-y,z
1/2+x,1/2+y,1/2+z
1/2-x,1/2-y,1/2+z
1/2+x,1/2-y,1/2-z
1/2-x,1/2+y,1/2-z
1/2-x,1/2-y,1/2-z
1/2+x,1/2+y,1/2-z
1/2-x,1/2+y,1/2+z
1/2+x,1/2-y,1/2+z
loop_
_atom_site_type_symbol
_atom_site_label
_atom_site_fract_x
_atom_site_fract_y
_atom_site_fract_z
Si Si1 0.175394 0.000000 0.708062
Si Si2 0.171780 0.611620 0.762852
Si Si3 0.178643 0.500000 0.098283
Si Si4 0.175719 0.308351 0.139764
Si Si5 0.672770 0.385274 0.941129
Si Si6 0.824914 0.719539 0.297450
O O1 0.217766 0.943186 0.740678
O O2 0.268851 0.000000 0.656272
O O3 0.000000 0.000000 0.695474
O O4 0.209211 0.648289 0.813560
O O5 0.196455 0.650446 0.711764
O O6 0.000000 0.589652 0.765598
O O7 0.236782 0.443844 0.069094
O O8 0.000000 0.500000 0.097412
O O9 0.257429 0.331966 0.089809
O O10 0.243232 0.244217 0.152029
O O11 0.000000 0.302000 0.128741
O O12 0.500000 0.394959 0.924675
O O13 0.686348 0.368595 0.000000
O O14 0.750000 0.750000 0.250000
O O15 0.000000 0.736019 0.299405
#
# Coordination Sequence:
#
# PCOD8288548 Si02
#       6
#     8  16   8  16  16  16
#     4  12  22  29  45  66  88 119 151 187 224 259
#     4   9  18  31  45  63  87 115 145 179 221 266
#     4  12  23  35  48  61  84 116 152 191 233 275
#     4  10  19  31  48  66  86 113 144 182 227 271
#     4  11  23  36  49  65  85 112 151 195 233 269
#     4   9  17  29  46  65  86 111 142 180 221 266
#
# _framework density 14.900518999999999
#
# number of rings (size 3 to 8) (size 9 to 14) (size 15 to 20)
#    0.000    1.800    2.000    5.100    0.000    6.800 
#    0.000    0.000    0.000    0.000    0.000    0.000 
#    0.000    0.000    0.000    0.900    0.000   17.400 
#
# Total GULP energy -495948.519508 kJ/mol
# GULP energy per Si atom -12398.712988 kJ/mol
# Density = 1.486660 g / cm^3
# Si number density = 14.900519 Si / 1000 Ang^3
#
#
#
# Elastic Constant Matrix: (Units=GPa)
#
#
# Indices 1 2 3 4 5 6 
#
# 1 125.6605 52.4383 44.6632 0.0000 0.0000 0.0000
# 2 52.4383 73.5747 46.0170 0.0000 0.0000 0.0000
# 3 44.6632 46.0170 62.0783 0.0000 0.0000 0.0000
# 4 0.0000 0.0000 0.0000 -5.1708 0.0000 0.0000
# 5 0.0000 0.0000 0.0000 0.0000 20.6985 0.0000
# 6 0.0000 0.0000 0.0000 0.0000 0.0000 26.3325
#
#
#
# Elastic Compliance Matrix: (Units=1/GPa)
#
#
# Indices 1 2 3 4 5 6 
#
# 1 0.011897 -0.005827 -0.004239 0.000000 0.000000 0.000000
# 2 -0.005827 0.028194 -0.016707 0.000000 0.000000 0.000000
# 3 -0.004239 -0.016707 0.031543 0.000000 0.000000 0.000000
# 4 0.000000 0.000000 0.000000 -0.193394 0.000000 0.000000
# 5 0.000000 0.000000 0.000000 0.000000 0.048313 0.000000
# 6 0.000000 0.000000 0.000000 0.000000 0.000000 0.037976
#
#
# Mechanical properties :
#
#
# Convention : Reuss Voigt Hill
#
# Bulk Modulus (GPa) = 55.29035 60.83894 58.06464
# Shear Modulus (GPa) = 207.42497 16.25172 111.83834
#
# Velocity S-wave (km/s) = 11.81138 3.30613 8.67292
# Velocity P-wave (km/s) = 14.93983 7.44934 11.80447
#
# Compressibility (1/GPa) = 0.01808634
#
# Stress axis : x y z
#
# Youngs Moduli (GPa) = 84.05798 35.46812 31.70236
#
# Poissons Ratio (x) = 0.20669 0.13440
# Poissons Ratio (y) = 0.48984 0.52965
# Poissons Ratio (z) = 0.35636 0.59257
#
# Static dielectric constant tensor:
#      x y z
#    x 3.098640 0.000000 0.000000 
#    y 0.000000 3.108140 0.000000 
#    z 0.000000 0.000000 2.760600 
# 
# 
# High freq. dielectric constant tensor:
#      x y z
#    x 1.591730 0.000000 0.000000 
#    y 0.000000 1.557310 0.000000 
#    z 0.000000 0.000000 1.529390 
# 
# From -- ./inp_files/10719.got.cif
#   From: 2010.06.25/outbox.cif.g09.slc.cpg/sg71_6_cif.got.tgz:10719.got - 2010.06.28 04:59:45.
