data_PCOD8288620
_publ_section_title
;
Structure prediction by ZEFSAII (Michael W. Deem and Ramdas Pophale) SiO2 
 PCOD8288620
Probable space group: I M M M
;
_chemical_formula_sum "Si O2"
_cell_formula_units_Z 120
_cell_length_a 20.176618
_cell_length_b 17.481307
_cell_length_c 19.110188
_cell_angle_alpha 90.000000
_cell_angle_beta 90.000000
_cell_angle_gamma 90.000000
_cell_volume 6740.424228
_symmetry_space_group_name_H-M "I M M M"
_symmetry_group_IT_number 71
_symmetry_cell_setting 'orthorhombic'
loop_
_space_group_symop_operation_xyz
x,y,z
-x,-y,z
x,-y,-z
-x,y,-z
-x,-y,-z
x,y,-z
-x,y,z
x,-y,z
1/2+x,1/2+y,1/2+z
1/2-x,1/2-y,1/2+z
1/2+x,1/2-y,1/2-z
1/2-x,1/2+y,1/2-z
1/2-x,1/2-y,1/2-z
1/2+x,1/2+y,1/2-z
1/2-x,1/2+y,1/2+z
1/2+x,1/2-y,1/2+z
loop_
_atom_site_type_symbol
_atom_site_label
_atom_site_fract_x
_atom_site_fract_y
_atom_site_fract_z
Si Si1 0.884372 0.587902 0.075398
Si Si2 0.667200 0.206126 0.919190
Si Si3 0.077571 0.821454 0.637981
Si Si4 0.241300 0.139971 0.423522
Si Si5 0.679825 0.414251 0.789139
Si Si6 0.801395 0.409329 0.693385
Si Si7 0.078869 0.913442 0.500000
Si Si8 0.071091 0.409828 0.223229
O O1 0.861231 0.500000 0.084188
O O2 0.820164 0.641053 0.075448
O O3 0.929471 0.611980 0.140787
O O4 0.921518 0.598440 0.000000
O O5 0.599483 0.234687 0.880052
O O6 0.720954 0.272629 0.908577
O O7 0.695119 0.130006 0.882411
O O8 0.652739 0.186397 0.000000
O O9 0.116527 0.856797 0.705311
O O10 0.102664 0.870385 0.570398
O O11 0.000000 0.826300 0.653202
O O12 0.213195 0.112882 0.500000
O O13 0.217038 0.083114 0.363421
O O14 0.654843 0.500000 0.771630
O O15 0.732523 0.385759 0.730944
O O16 0.805033 0.500000 0.683285
O O17 0.864172 0.376804 0.737935
O O18 0.000000 0.911132 0.500000
O O19 0.105099 0.000000 0.500000
O O20 0.072686 0.500000 0.233112
O O21 0.000000 0.378260 0.252831
#
# Coordination Sequence:
#
# PCOD8288620 Si02
#       8
#    16  16  16  16  16  16   8  16
#     4   9  15  25  43  67  98 131 162 194 226 277
#     4  10  21  36  54  72  97 131 169 222 273 312
#     4  10  20  33  49  75 109 143 175 205 249 310
#     4   9  17  28  44  70  99 128 161 193 239 299
#     4  10  19  31  49  73 105 141 174 212 253 301
#     4  10  21  37  54  73  96 128 175 225 274 319
#     4   9  16  28  46  70 103 141 174 202 233 284
#     4   9  17  30  46  66  95 128 164 206 251 297
#
# _framework density 17.803032999999999
#
# number of rings (size 3 to 8) (size 9 to 14) (size 15 to 20)
#    0.000    2.467    2.000    0.800    0.933    4.800 
#    0.000    1.333    0.000    0.000    0.000    2.800 
#    0.000    0.533    0.000    2.933    0.000    0.000 
#
# Total GULP energy -743494.409305 kJ/mol
# GULP energy per Si atom -12391.573488 kJ/mol
# Density = 1.776251 g / cm^3
# Si number density = 17.803033 Si / 1000 Ang^3
#
#
#
# Elastic Constant Matrix: (Units=GPa)
#
#
# Indices 1 2 3 4 5 6 
#
# 1 100.6470 27.7118 40.6525 0.0000 0.0000 0.0000
# 2 27.7118 49.3431 36.3392 0.0000 0.0000 0.0000
# 3 40.6525 36.3392 74.1503 0.0000 0.0000 0.0000
# 4 0.0000 0.0000 0.0000 26.2295 0.0000 0.0000
# 5 0.0000 0.0000 0.0000 0.0000 14.9218 0.0000
# 6 0.0000 0.0000 0.0000 0.0000 0.0000 14.6501
#
#
#
# Elastic Compliance Matrix: (Units=1/GPa)
#
#
# Indices 1 2 3 4 5 6 
#
# 1 0.013083 -0.003232 -0.005589 0.000000 0.000000 0.000000
# 2 -0.003232 0.032510 -0.014161 0.000000 0.000000 0.000000
# 3 -0.005589 -0.014161 0.023490 0.000000 0.000000 0.000000
# 4 0.000000 0.000000 0.000000 0.038125 0.000000 0.000000
# 5 0.000000 0.000000 0.000000 0.000000 0.067016 0.000000
# 6 0.000000 0.000000 0.000000 0.000000 0.000000 0.068259
#
#
# Mechanical properties :
#
#
# Convention : Reuss Voigt Hill
#
# Bulk Modulus (GPa) = 43.25145 48.17196 45.71170
# Shear Modulus (GPa) = 16.88324 19.12274 18.00299
#
# Velocity S-wave (km/s) = 3.08285 3.28095 3.18344
# Velocity P-wave (km/s) = 6.08433 6.43971 6.26454
#
# Compressibility (1/GPa) = 0.02312061
#
# Stress axis : x y z
#
# Youngs Moduli (GPa) = 76.43560 30.75985 42.57129
#
# Poissons Ratio (x) = 0.09940 0.23793
# Poissons Ratio (y) = 0.24700 0.60284
# Poissons Ratio (z) = 0.42719 0.43558
#
# Static dielectric constant tensor:
#      x y z
#    x 3.386690 0.000000 0.000000 
#    y 0.000000 2.954300 0.000000 
#    z 0.000000 0.000000 3.211260 
# 
# 
# High freq. dielectric constant tensor:
#      x y z
#    x 1.691740 0.000000 0.000000 
#    y 0.000000 1.652240 0.000000 
#    z 0.000000 0.000000 1.670460 
# 
# From -- ./inp_files/47583.got.cif
#   From: 2010.06.25/outbox.cif.g09.slc.cpg/sg71_24_cif.got.tgz:47583.got - 2010.06.28 04:59:45.
