data_PCOD8288575
_publ_section_title
;
Structure prediction by ZEFSAII (Michael W. Deem and Ramdas Pophale) SiO2 
 PCOD8288575
Probable space group: I M M M
;
_chemical_formula_sum "Si O2"
_cell_formula_units_Z 88
_cell_length_a 25.736639
_cell_length_b 20.611014
_cell_length_c 8.750103
_cell_angle_alpha 90.000000
_cell_angle_beta 90.000000
_cell_angle_gamma 90.000000
_cell_volume 4641.564121
_symmetry_space_group_name_H-M "I M M M"
_symmetry_group_IT_number 71
_symmetry_cell_setting 'orthorhombic'
loop_
_space_group_symop_operation_xyz
x,y,z
-x,-y,z
x,-y,-z
-x,y,-z
-x,-y,-z
x,y,-z
-x,y,z
x,-y,z
1/2+x,1/2+y,1/2+z
1/2-x,1/2-y,1/2+z
1/2+x,1/2-y,1/2-z
1/2-x,1/2+y,1/2-z
1/2-x,1/2-y,1/2-z
1/2+x,1/2+y,1/2-z
1/2-x,1/2+y,1/2+z
1/2+x,1/2-y,1/2+z
loop_
_atom_site_type_symbol
_atom_site_label
_atom_site_fract_x
_atom_site_fract_y
_atom_site_fract_z
Si Si1 0.704752 0.207044 0.320592
Si Si2 0.062066 0.000000 0.672121
Si Si3 0.438836 0.628228 0.330062
Si Si4 0.100385 0.252607 0.677225
Si Si5 0.834576 0.570905 0.819205
Si Si6 0.057224 0.626788 0.177130
O O1 0.713464 0.206006 0.500000
O O2 0.750000 0.250000 0.250000
O O3 0.651425 0.241927 0.280285
O O4 0.700607 0.131617 0.258441
O O5 0.084497 0.937931 0.761480
O O6 0.084130 0.000000 0.500000
O O7 0.000000 0.000000 0.668949
O O8 0.415691 0.640691 0.500000
O O9 0.500000 0.621756 0.341634
O O10 0.425050 0.683952 0.211115
O O11 0.115083 0.258062 0.500000
O O12 0.059443 0.307908 0.723384
O O13 0.816687 0.500000 0.753499
O O14 0.895471 0.579887 0.772951
O O15 0.830001 0.569687 0.000000
O O16 0.000000 0.594657 0.204508
O O17 0.063928 0.646230 0.000000
#
# Coordination Sequence:
#
# PCOD8288575 Si02
#       6
#    16   8  16  16  16  16
#     4  10  20  36  58  80 102 129 167 214 265 320
#     4   9  17  29  45  67  95 129 169 207 247 303
#     4  10  19  31  48  70  99 135 172 211 257 307
#     4  11  21  32  49  73 100 132 172 215 260 307
#     4   8  15  29  51  79 107 136 172 214 258 306
#     4   9  17  29  46  72 107 143 177 212 251 298
#
# _framework density 18.959126999999999
#
# number of rings (size 3 to 8) (size 9 to 14) (size 15 to 20)
#    0.000    2.455    0.000    4.636    0.000    5.091 
#    0.000    1.818    2.000   13.636    0.000    5.091 
#    0.000    0.000    0.000    0.000    0.000    0.000 
#
# Total GULP energy -545240.174966 kJ/mol
# GULP energy per Si atom -12391.822158 kJ/mol
# Density = 1.891598 g / cm^3
# Si number density = 18.959127 Si / 1000 Ang^3
#
#
#
# Elastic Constant Matrix: (Units=GPa)
#
#
# Indices 1 2 3 4 5 6 
#
# 1 66.5563 33.0428 17.2653 0.0000 0.0000 0.0000
# 2 33.0428 142.0903 34.7847 0.0000 0.0000 0.0000
# 3 17.2653 34.7847 66.4481 0.0000 0.0000 0.0000
# 4 0.0000 0.0000 0.0000 19.4040 0.0000 0.0000
# 5 0.0000 0.0000 0.0000 0.0000 24.3811 0.0000
# 6 0.0000 0.0000 0.0000 0.0000 0.0000 19.6685
#
#
#
# Elastic Compliance Matrix: (Units=1/GPa)
#
#
# Indices 1 2 3 4 5 6 
#
# 1 0.017416 -0.003375 -0.002759 0.000000 0.000000 0.000000
# 2 -0.003375 0.008726 -0.003691 0.000000 0.000000 0.000000
# 3 -0.002759 -0.003691 0.017698 0.000000 0.000000 0.000000
# 4 0.000000 0.000000 0.000000 0.051536 0.000000 0.000000
# 5 0.000000 0.000000 0.000000 0.000000 0.041015 0.000000
# 6 0.000000 0.000000 0.000000 0.000000 0.000000 0.050843
#
#
# Mechanical properties :
#
#
# Convention : Reuss Voigt Hill
#
# Bulk Modulus (GPa) = 41.33679 49.47559 45.40619
# Shear Modulus (GPa) = 23.26156 25.35753 24.30954
#
# Velocity S-wave (km/s) = 3.50656 3.66113 3.58468
# Velocity P-wave (km/s) = 6.18426 6.63509 6.41364
#
# Compressibility (1/GPa) = 0.02419153
#
# Stress axis : x y z
#
# Youngs Moduli (GPa) = 57.41885 114.59753 56.50231
#
# Poissons Ratio (x) = 0.38673 0.15587
# Poissons Ratio (y) = 0.19377 0.20856
# Poissons Ratio (z) = 0.15839 0.42300
#
# Static dielectric constant tensor:
#      x y z
#    x 3.256860 0.000000 0.000000 
#    y 0.000000 3.814720 0.000000 
#    z 0.000000 0.000000 3.434280 
# 
# 
# High freq. dielectric constant tensor:
#      x y z
#    x 1.700110 0.000000 0.000000 
#    y 0.000000 1.743330 0.000000 
#    z 0.000000 0.000000 1.724280 
# 
# From -- ./inp_files/12508.got.cif
#   From: 2010.06.25/outbox.cif.g09.slc.cpg/sg71_7_cif.got.tgz:12508.got - 2010.06.28 04:59:45.
