data_PCOD8288093
_publ_section_title
;
Structure prediction by ZEFSAII (Michael W. Deem and Ramdas Pophale) SiO2 
 PCOD8288093
Probable space group: I M M M
;
_chemical_formula_sum "Si O2"
_cell_formula_units_Z 96
_cell_length_a 27.056393
_cell_length_b 9.290097
_cell_length_c 28.292604
_cell_angle_alpha 90.000000
_cell_angle_beta 90.000000
_cell_angle_gamma 90.000000
_cell_volume 7111.530354
_symmetry_space_group_name_H-M "I M M M"
_symmetry_group_IT_number 71
_symmetry_cell_setting 'orthorhombic'
loop_
_space_group_symop_operation_xyz
x,y,z
-x,-y,z
x,-y,-z
-x,y,-z
-x,-y,-z
x,y,-z
-x,y,z
x,-y,z
1/2+x,1/2+y,1/2+z
1/2-x,1/2-y,1/2+z
1/2+x,1/2-y,1/2-z
1/2-x,1/2+y,1/2-z
1/2-x,1/2-y,1/2-z
1/2+x,1/2+y,1/2-z
1/2-x,1/2+y,1/2+z
1/2+x,1/2-y,1/2+z
loop_
_atom_site_type_symbol
_atom_site_label
_atom_site_fract_x
_atom_site_fract_y
_atom_site_fract_z
Si Si1 0.295387 0.832748 0.727588
Si Si2 0.740707 0.336696 0.137376
Si Si3 0.710471 0.167417 0.053055
Si Si4 0.853011 0.168748 0.702728
Si Si5 0.109468 0.834329 0.447356
Si Si6 0.945732 0.829654 0.643928
O O1 0.250000 0.750000 0.750000
O O2 0.289077 0.816454 0.670867
O O3 0.344716 0.757628 0.748423
O O4 0.293930 0.000000 0.742268
O O5 0.737237 0.500000 0.119508
O O6 0.747561 0.235831 0.091547
O O7 0.690525 0.296556 0.165538
O O8 0.657463 0.238770 0.059718
O O9 0.704985 0.000000 0.063525
O O10 0.730874 0.195330 0.000000
O O11 0.904768 0.225190 0.681120
O O12 0.854007 0.000000 0.714861
O O13 0.087232 0.814207 0.500000
O O14 0.068746 0.784018 0.409460
O O15 0.124949 0.000000 0.438262
O O16 0.000000 0.764024 0.655553
O O17 0.948005 0.000000 0.647109
#
# Coordination Sequence:
#
# PCOD8288093 Si02
#       6
#    16  16  16  16  16  16
#     4   9  17  27  40  58  76  94 117 148 187 227
#     4   9  16  27  41  56  73  94 122 153 185 224
#     4  10  19  27  37  55  76  98 124 153 188 228
#     4   9  16  27  40  56  76  96 121 154 191 230
#     4   9  16  27  41  53  68  93 125 162 201 234
#     4   9  16  26  40  57  75  95 124 163 200 231
#
# _framework density 13.499203
#
# number of rings (size 3 to 8) (size 9 to 14) (size 15 to 20)
#    0.000    2.833    1.667    2.000    0.000    4.667 
#    0.000    1.667    0.000    2.000    0.000    2.333 
#    0.000    0.000    0.000    0.000    0.000    0.833 
#
# Total GULP energy -594810.126757 kJ/mol
# GULP energy per Si atom -12391.877641 kJ/mol
# Density = 1.346848 g / cm^3
# Si number density = 13.499203 Si / 1000 Ang^3
#
#
#
# Elastic Constant Matrix: (Units=GPa)
#
#
# Indices 1 2 3 4 5 6 
#
# 1 59.7685 25.3387 54.8432 0.0000 0.0000 0.0000
# 2 25.3387 62.1829 47.1271 0.0000 0.0000 0.0000
# 3 54.8432 47.1271 90.7320 0.0000 0.0000 0.0000
# 4 0.0000 0.0000 0.0000 22.8313 0.0000 0.0000
# 5 0.0000 0.0000 0.0000 0.0000 18.6715 0.0000
# 6 0.0000 0.0000 0.0000 0.0000 0.0000 10.8376
#
#
#
# Elastic Compliance Matrix: (Units=1/GPa)
#
#
# Indices 1 2 3 4 5 6 
#
# 1 0.037943 0.003167 -0.024580 0.000000 0.000000 0.000000
# 2 0.003167 0.026786 -0.015828 0.000000 0.000000 0.000000
# 3 -0.024580 -0.015828 0.034100 0.000000 0.000000 0.000000
# 4 0.000000 0.000000 0.000000 0.043800 0.000000 0.000000
# 5 0.000000 0.000000 0.000000 0.000000 0.053557 0.000000
# 6 0.000000 0.000000 0.000000 0.000000 0.000000 0.092271
#
#
# Mechanical properties :
#
#
# Convention : Reuss Voigt Hill
#
# Bulk Modulus (GPa) = 41.06976 51.92236 46.49606
# Shear Modulus (GPa) = 13.47516 16.15971 14.81743
#
# Velocity S-wave (km/s) = 3.16289 3.46365 3.31668
# Velocity P-wave (km/s) = 6.62030 7.38529 7.01324
#
# Compressibility (1/GPa) = 0.02434882
#
# Stress axis : x y z
#
# Youngs Moduli (GPa) = 26.35561 37.33239 29.32574
#
# Poissons Ratio (x) = -0.11824 0.72082
# Poissons Ratio (y) = -0.08348 0.46416
# Poissons Ratio (z) = 0.64781 0.59088
#
# Static dielectric constant tensor:
#      x y z
#    x 2.709640 0.000000 0.000000 
#    y 0.000000 2.709830 0.000000 
#    z 0.000000 0.000000 3.010510 
# 
# 
# High freq. dielectric constant tensor:
#      x y z
#    x 1.464830 0.000000 0.000000 
#    y 0.000000 1.510010 0.000000 
#    z 0.000000 0.000000 1.509840 
# 
# From -- ./inp_files/63663.got.cif
#   From: 2010.06.25/outbox.cif.g09.slc.cpg/sg71_32_cif.got.tgz:63663.got - 2010.06.28 04:59:45.
