data_PCOD8288866
_publ_section_title
;
Structure prediction by ZEFSAII (Michael W. Deem and Ramdas Pophale) SiO2 
 PCOD8288866
Probable space group: I M M M
;
_chemical_formula_sum "Si O2"
_cell_formula_units_Z 80
_cell_length_a 17.025150
_cell_length_b 27.589032
_cell_length_c 8.940094
_cell_angle_alpha 90.000000
_cell_angle_beta 90.000000
_cell_angle_gamma 90.000000
_cell_volume 4199.228381
_symmetry_space_group_name_H-M "I M M M"
_symmetry_group_IT_number 71
_symmetry_cell_setting 'orthorhombic'
loop_
_space_group_symop_operation_xyz
x,y,z
-x,-y,z
x,-y,-z
-x,y,-z
-x,-y,-z
x,y,-z
-x,y,z
x,-y,z
1/2+x,1/2+y,1/2+z
1/2-x,1/2-y,1/2+z
1/2+x,1/2-y,1/2-z
1/2-x,1/2+y,1/2-z
1/2-x,1/2-y,1/2-z
1/2+x,1/2+y,1/2-z
1/2-x,1/2+y,1/2+z
1/2+x,1/2-y,1/2+z
loop_
_atom_site_type_symbol
_atom_site_label
_atom_site_fract_x
_atom_site_fract_y
_atom_site_fract_z
Si Si1 0.653537 0.111105 0.322540
Si Si2 0.588402 0.500000 0.677707
Si Si3 0.500000 0.945590 0.677586
Si Si4 0.088435 0.816861 0.822299
Si Si5 0.685406 0.592590 0.322099
Si Si6 0.087792 0.710411 0.822530
O O1 0.663104 0.107433 0.500000
O O2 0.577532 0.081885 0.265333
O O3 0.728385 0.087268 0.245340
O O4 0.644596 0.167163 0.267845
O O5 0.500000 0.500000 0.743315
O O6 0.584851 0.500000 0.500000
O O7 0.633677 0.452441 0.735318
O O8 0.500000 0.946049 0.500000
O O9 0.500000 0.000000 0.742593
O O10 0.145649 0.858222 0.758369
O O11 0.118699 0.763471 0.769834
O O12 0.000000 0.825619 0.762309
O O13 0.087292 0.819965 0.000000
O O14 0.691408 0.593031 0.500000
O O15 0.000000 0.701853 0.758811
O O16 0.082771 0.708897 0.000000
#
# Coordination Sequence:
#
# PCOD8288866 Si02
#       6
#    16   8   8  16  16  16
#     4  10  19  32  51  73  97 125 160 198 238 281
#     4   9  18  34  55  72  93 128 166 197 229 277
#     4   9  18  32  51  71  91 125 169 202 226 272
#     4   8  14  26  47  71  94 123 162 200 232 274
#     4  10  20  32  48  74 101 123 154 199 244 283
#     4   8  13  25  46  70  93 122 162 201 230 268
#
# _framework density 19.051120000000001
#
# number of rings (size 3 to 8) (size 9 to 14) (size 15 to 20)
#    0.000    3.000    1.000    1.800    1.400    3.200 
#    0.000    0.500    0.000    3.600    0.000    2.800 
#    0.000    0.000    0.000    0.000    0.000    0.000 
#
# Total GULP energy -495764.996615 kJ/mol
# GULP energy per Si atom -12394.124915 kJ/mol
# Density = 1.900776 g / cm^3
# Si number density = 19.051120 Si / 1000 Ang^3
#
#
#
# Elastic Constant Matrix: (Units=GPa)
#
#
# Indices 1 2 3 4 5 6 
#
# 1 155.5512 92.7151 19.0699 0.0003 0.0000 0.0000
# 2 92.7151 175.1382 18.6563 -0.0002 -0.0001 0.0000
# 3 19.0699 18.6563 11.0504 -0.0025 0.0008 0.0003
# 4 0.0003 -0.0002 -0.0025 9.2658 0.0002 0.0001
# 5 0.0000 -0.0001 0.0008 0.0002 21.7241 0.0000
# 6 0.0000 0.0000 0.0003 0.0001 0.0000 32.7061
#
#
#
# Elastic Compliance Matrix: (Units=1/GPa)
#
#
# Indices 1 2 3 4 5 6 
#
# 1 0.010294 -0.004337 -0.010442 -0.000003 0.000000 0.000000
# 2 -0.004337 0.008789 -0.007354 -0.000002 0.000000 0.000000
# 3 -0.010442 -0.007354 0.120931 0.000033 -0.000004 -0.000001
# 4 -0.000003 -0.000002 0.000033 0.107924 -0.000001 0.000000
# 5 0.000000 0.000000 -0.000004 -0.000001 0.046032 0.000000
# 6 0.000000 0.000000 -0.000001 0.000000 0.000000 0.030575
#
#
# Mechanical properties :
#
#
# Convention : Reuss Voigt Hill
#
# Bulk Modulus (GPa) = 10.44416 66.95805 38.70110
# Shear Modulus (GPa) = 12.47729 26.82576 19.65153
#
# Velocity S-wave (km/s) = 2.56195 3.75653 3.21521
# Velocity P-wave (km/s) = 3.77433 7.35107 5.84310
#
# Compressibility (1/GPa) = 0.09574729
#
# Stress axis : x y z
#
# Youngs Moduli (GPa) = 97.14353 113.77648 8.26918
#
# Poissons Ratio (x) = 0.49346 0.08635
# Poissons Ratio (y) = 0.42133 0.06081
# Poissons Ratio (z) = 1.01440 0.83672
#
# Static dielectric constant tensor:
#      x y z
#    x 3.486940 0.000000 0.000000 
#    y 0.000000 4.011810 0.000000 
#    z 0.000000 0.000000 2.733840 
# 
# 
# High freq. dielectric constant tensor:
#      x y z
#    x 1.739790 0.000000 0.000000 
#    y 0.000000 1.762320 0.000000 
#    z 0.000000 0.000000 1.663540 
# 
# From -- ./inp_files/8393.got.cif
#   From: 2010.06.25/outbox.cif.g09.slc.cpg/sg71_5_cif.got.tgz:8393.got - 2010.06.28 04:59:45.
