data_PCOD8288017
_publ_section_title
;
Structure prediction by ZEFSAII (Michael W. Deem and Ramdas Pophale) SiO2 
 PCOD8288017
Probable space group: I M M M
;
_chemical_formula_sum "Si O2"
_cell_formula_units_Z 104
_cell_length_a 11.575090
_cell_length_b 27.013137
_cell_length_c 18.847371
_cell_angle_alpha 90.000000
_cell_angle_beta 90.000000
_cell_angle_gamma 90.000000
_cell_volume 5893.186389
_symmetry_space_group_name_H-M "I M M M"
_symmetry_group_IT_number 71
_symmetry_cell_setting 'orthorhombic'
loop_
_space_group_symop_operation_xyz
x,y,z
-x,-y,z
x,-y,-z
-x,y,-z
-x,-y,-z
x,y,-z
-x,y,z
x,-y,z
1/2+x,1/2+y,1/2+z
1/2-x,1/2-y,1/2+z
1/2+x,1/2-y,1/2-z
1/2-x,1/2+y,1/2-z
1/2-x,1/2-y,1/2-z
1/2+x,1/2+y,1/2-z
1/2-x,1/2+y,1/2+z
1/2+x,1/2-y,1/2+z
loop_
_atom_site_type_symbol
_atom_site_label
_atom_site_fract_x
_atom_site_fract_y
_atom_site_fract_z
Si Si1 0.234418 0.720629 0.853129
Si Si2 0.136515 0.500000 0.420903
Si Si3 0.000000 0.400998 0.916417
Si Si4 0.366627 0.919406 0.189611
Si Si5 0.368064 0.367271 0.918706
Si Si6 0.133679 0.307652 0.707169
Si Si7 0.500000 0.785721 0.417251
Si Si8 0.223046 0.556885 0.840769
O O1 0.289606 0.680613 0.905311
O O2 0.212252 0.695023 0.777274
O O3 0.321212 0.766930 0.848249
O O4 0.113606 0.740029 0.885057
O O5 0.192450 0.500000 0.500000
O O6 0.176420 0.450907 0.378172
O O7 0.000000 0.500000 0.428754
O O8 0.000000 0.343455 0.895601
O O9 0.111444 0.425927 0.883493
O O10 0.000000 0.409287 0.000000
O O11 0.500000 0.931814 0.207217
O O12 0.350853 0.861494 0.171973
O O13 0.291535 0.934836 0.257142
O O14 0.500000 0.353422 0.902216
O O15 0.332885 0.412496 0.868166
O O16 0.349855 0.383435 0.000000
O O17 0.000000 0.297249 0.726315
O O18 0.500000 0.777245 0.500000
O O19 0.247785 0.500000 0.857041
#
# Coordination Sequence:
#
# PCOD8288017 Si02
#       8
#    16   8   8  16  16  16   8  16
#     4  11  20  35  56  82 111 144 189 232 281 333
#     4   9  18  32  54  82 113 146 173 209 274 344
#     4  11  21  32  51  82 116 146 185 236 282 330
#     4  10  18  33  55  83 115 143 177 227 279 333
#     4  11  24  40  55  75 112 160 200 233 274 330
#     4  10  20  34  55  83 113 144 182 231 281 335
#     4  11  20  35  58  81 110 147 186 229 282 338
#     4  12  22  34  55  81 112 148 191 234 282 330
#
# _framework density 17.647499
#
# number of rings (size 3 to 8) (size 9 to 14) (size 15 to 20)
#    0.000    1.308    5.385    1.615    0.000    1.846 
#    0.000    2.308    0.000    3.692    0.000    0.000 
#    0.000    0.615    0.000    0.000    0.000    0.000 
#
# Total GULP energy -644985.342689 kJ/mol
# GULP energy per Si atom -12403.564282 kJ/mol
# Density = 1.760733 g / cm^3
# Si number density = 17.647499 Si / 1000 Ang^3
#
#
#
# Elastic Constant Matrix: (Units=GPa)
#
#
# Indices 1 2 3 4 5 6 
#
# 1 73.3147 24.4983 29.1588 0.0000 0.0000 0.0000
# 2 24.4983 93.3459 45.7620 -0.0001 0.0000 0.0000
# 3 29.1588 45.7620 97.6893 -0.0001 0.0000 0.0001
# 4 0.0000 -0.0001 -0.0001 25.5280 0.0000 0.0000
# 5 0.0000 0.0000 0.0000 0.0000 21.5136 0.0000
# 6 0.0000 0.0000 0.0001 0.0000 0.0000 23.3617
#
#
#
# Elastic Compliance Matrix: (Units=1/GPa)
#
#
# Indices 1 2 3 4 5 6 
#
# 1 0.015879 -0.002393 -0.003618 0.000000 0.000000 0.000000
# 2 -0.002393 0.014267 -0.005969 0.000000 0.000000 0.000000
# 3 -0.003618 -0.005969 0.014113 0.000000 0.000000 0.000000
# 4 0.000000 0.000000 0.000000 0.039173 0.000000 0.000000
# 5 0.000000 0.000000 0.000000 0.000000 0.046482 0.000000
# 6 0.000000 0.000000 0.000000 0.000000 0.000000 0.042805
#
#
# Mechanical properties :
#
#
# Convention : Reuss Voigt Hill
#
# Bulk Modulus (GPa) = 49.26825 51.46535 50.36680
# Shear Modulus (GPa) = 24.57654 25.07604 24.82629
#
# Velocity S-wave (km/s) = 3.73585 3.77363 3.75479
# Velocity P-wave (km/s) = 6.82549 6.94358 6.88479
#
# Compressibility (1/GPa) = 0.02029705
#
# Stress axis : x y z
#
# Youngs Moduli (GPa) = 62.97738 70.09058 70.85806
#
# Poissons Ratio (x) = 0.16776 0.25639
# Poissons Ratio (y) = 0.15073 0.42295
# Poissons Ratio (z) = 0.22788 0.41837
#
# Static dielectric constant tensor:
#      x y z
#    x 3.515110 0.000000 0.000000 
#    y 0.000000 3.356550 0.000000 
#    z 0.000000 0.000000 3.302300 
# 
# 
# High freq. dielectric constant tensor:
#      x y z
#    x 1.665610 0.000000 0.000000 
#    y 0.000000 1.679570 0.000000 
#    z 0.000000 0.000000 1.678070 
# 
# From -- ./inp_files/43803.got.cif
#   From: 2010.06.25/outbox.cif.g09.slc.cpg/sg71_22_cif.got.tgz:43803.got - 2010.06.28 04:59:45.
