data_PCOD8288342
_publ_section_title
;
Structure prediction by ZEFSAII (Michael W. Deem and Ramdas Pophale) SiO2 
 PCOD8288342
Probable space group: I M M M
;
_chemical_formula_sum "Si O2"
_cell_formula_units_Z 120
_cell_length_a 13.470326
_cell_length_b 20.092939
_cell_length_c 27.198417
_cell_angle_alpha 90.000000
_cell_angle_beta 90.000000
_cell_angle_gamma 90.000000
_cell_volume 7361.481078
_symmetry_space_group_name_H-M "I M M M"
_symmetry_group_IT_number 71
_symmetry_cell_setting 'orthorhombic'
loop_
_space_group_symop_operation_xyz
x,y,z
-x,-y,z
x,-y,-z
-x,y,-z
-x,-y,-z
x,y,-z
-x,y,z
x,-y,z
1/2+x,1/2+y,1/2+z
1/2-x,1/2-y,1/2+z
1/2+x,1/2-y,1/2-z
1/2-x,1/2+y,1/2-z
1/2-x,1/2-y,1/2-z
1/2+x,1/2+y,1/2-z
1/2-x,1/2+y,1/2+z
1/2+x,1/2-y,1/2+z
loop_
_atom_site_type_symbol
_atom_site_label
_atom_site_fract_x
_atom_site_fract_y
_atom_site_fract_z
Si Si1 0.238669 0.922845 0.410783
Si Si2 0.616122 0.577903 0.636283
Si Si3 0.697036 0.347402 0.272649
Si Si4 0.392122 0.578758 0.000000
Si Si5 0.113152 0.315392 0.107252
Si Si6 0.117298 0.182445 0.944398
Si Si7 0.112027 0.924514 0.316344
Si Si8 0.885806 0.298223 0.220679
O O1 0.163797 0.897165 0.451847
O O2 0.336612 0.879268 0.417318
O O3 0.187222 0.907045 0.359392
O O4 0.267340 0.000000 0.416880
O O5 0.500000 0.590430 0.649461
O O6 0.637821 0.500000 0.628609
O O7 0.686155 0.605710 0.679775
O O8 0.645879 0.615930 0.585974
O O9 0.634127 0.377804 0.228851
O O10 0.813405 0.338952 0.257695
O O11 0.645306 0.277894 0.282841
O O12 0.402360 0.500000 0.000000
O O13 0.500000 0.612560 0.000000
O O14 0.159252 0.246705 0.085473
O O15 0.126217 0.324216 0.165485
O O16 0.000000 0.318457 0.091210
O O17 0.000000 0.187837 0.947870
O O18 0.162016 0.178902 0.000000
O O19 0.000000 0.912776 0.335222
O O20 0.126652 0.000000 0.298586
O O21 0.000000 0.306165 0.238872
#
# Coordination Sequence:
#
# PCOD8288342 Si02
#       8
#    16  16  16   8  16  16  16  16
#     4  10  20  33  48  70  94 126 171 208 247 297
#     4  10  19  31  50  76 106 135 164 206 256 306
#     4  11  19  31  50  72  99 131 166 200 247 296
#     4   9  18  34  53  69  93 125 155 202 260 306
#     4  10  19  34  51  69  98 133 169 207 248 296
#     4   9  18  32  50  72  98 130 165 200 248 308
#     4  10  19  30  46  69  95 121 157 204 248 293
#     4  10  20  33  50  71  98 134 170 202 242 296
#
# _framework density 16.301067
#
# number of rings (size 3 to 8) (size 9 to 14) (size 15 to 20)
#    0.000    2.067    2.667    2.000    0.933    3.200 
#    0.000    1.333    0.000    2.800    0.000    0.000 
#    0.000    0.000    0.000    1.200    0.000    0.133 
#
# Total GULP energy -743840.277769 kJ/mol
# GULP energy per Si atom -12397.337963 kJ/mol
# Density = 1.626397 g / cm^3
# Si number density = 16.301067 Si / 1000 Ang^3
#
#
#
# Elastic Constant Matrix: (Units=GPa)
#
#
# Indices 1 2 3 4 5 6 
#
# 1 79.3162 46.4568 36.5353 0.0000 0.0000 0.0000
# 2 46.4568 85.5488 38.3212 0.0000 0.0000 0.0000
# 3 36.5353 38.3212 81.4176 0.0000 0.0000 0.0000
# 4 0.0000 0.0000 0.0000 21.6917 0.0000 0.0000
# 5 0.0000 0.0000 0.0000 0.0000 4.0096 0.0000
# 6 0.0000 0.0000 0.0000 0.0000 0.0000 21.4813
#
#
#
# Elastic Compliance Matrix: (Units=1/GPa)
#
#
# Indices 1 2 3 4 5 6 
#
# 1 0.019905 -0.008627 -0.004872 0.000000 0.000000 0.000000
# 2 -0.008627 0.018551 -0.004860 0.000000 0.000000 0.000000
# 3 -0.004872 -0.004860 0.016756 0.000000 0.000000 0.000000
# 4 0.000000 0.000000 0.000000 0.046101 0.000000 0.000000
# 5 0.000000 0.000000 0.000000 0.000000 0.249403 0.000000
# 6 0.000000 0.000000 0.000000 0.000000 0.000000 0.046552
#
#
# Mechanical properties :
#
#
# Convention : Reuss Voigt Hill
#
# Bulk Modulus (GPa) = 54.07067 54.32323 54.19695
# Shear Modulus (GPa) = 11.35978 17.76782 14.56380
#
# Velocity S-wave (km/s) = 2.64270 3.30506 2.99227
# Velocity P-wave (km/s) = 6.52333 6.92545 6.72740
#
# Compressibility (1/GPa) = 0.01849432
#
# Stress axis : x y z
#
# Youngs Moduli (GPa) = 50.23952 53.90487 59.67994
#
# Poissons Ratio (x) = 0.46503 0.29073
# Poissons Ratio (y) = 0.43341 0.29007
# Poissons Ratio (z) = 0.24474 0.26200
#
# Static dielectric constant tensor:
#      x y z
#    x 2.982450 0.000000 0.000000 
#    y 0.000000 3.056930 0.000000 
#    z 0.000000 0.000000 3.377670 
# 
# 
# High freq. dielectric constant tensor:
#      x y z
#    x 1.602120 0.000000 0.000000 
#    y 0.000000 1.622440 0.000000 
#    z 0.000000 0.000000 1.632680 
# 
# From -- ./inp_files/69554.got.cif
#   From: 2010.06.25/outbox.cif.g09.slc.cpg/sg71_35_cif.got.tgz:69554.got - 2010.06.28 04:59:45.
