data_PCOD8288470
_publ_section_title
;
Structure prediction by ZEFSAII (Michael W. Deem and Ramdas Pophale) SiO2 
 PCOD8288470
Probable space group: I M M M
;
_chemical_formula_sum "Si O2"
_cell_formula_units_Z 104
_cell_length_a 9.130750
_cell_length_b 27.583441
_cell_length_c 22.171218
_cell_angle_alpha 90.000000
_cell_angle_beta 90.000000
_cell_angle_gamma 90.000000
_cell_volume 5583.987624
_symmetry_space_group_name_H-M "I M M M"
_symmetry_group_IT_number 71
_symmetry_cell_setting 'orthorhombic'
loop_
_space_group_symop_operation_xyz
x,y,z
-x,-y,z
x,-y,-z
-x,y,-z
-x,-y,-z
x,y,-z
-x,y,z
x,-y,z
1/2+x,1/2+y,1/2+z
1/2-x,1/2-y,1/2+z
1/2+x,1/2-y,1/2-z
1/2-x,1/2+y,1/2-z
1/2-x,1/2-y,1/2-z
1/2+x,1/2+y,1/2-z
1/2-x,1/2+y,1/2+z
1/2+x,1/2-y,1/2+z
loop_
_atom_site_type_symbol
_atom_site_label
_atom_site_fract_x
_atom_site_fract_y
_atom_site_fract_z
Si Si1 0.826003 0.945330 0.349990
Si Si2 0.340608 0.945815 0.110675
Si Si3 0.326953 0.641375 0.067472
Si Si4 0.836827 0.941849 0.000000
Si Si5 0.327054 0.412864 0.282389
Si Si6 0.167386 0.317136 0.714995
Si Si7 0.168044 0.215497 0.668485
O O1 0.765997 0.907657 0.400263
O O2 0.774347 0.925261 0.285134
O O3 0.000000 0.946865 0.351408
O O4 0.764548 0.000000 0.361353
O O5 0.500000 0.919867 0.118838
O O6 0.250085 0.949962 0.172649
O O7 0.369524 0.000000 0.088594
O O8 0.246111 0.920049 0.058466
O O9 0.500000 0.636935 0.062707
O O10 0.285646 0.689595 0.105808
O O11 0.259083 0.645482 0.000000
O O12 0.000000 0.920258 0.000000
O O13 0.844270 0.000000 0.000000
O O14 0.500000 0.416734 0.288664
O O15 0.271092 0.360672 0.305523
O O16 0.180216 0.273931 0.665428
O O17 0.220163 0.301122 0.780737
O O18 0.000000 0.334464 0.720595
O O19 0.000000 0.200200 0.685244
#
# Coordination Sequence:
#
# PCOD8288470 Si02
#       7
#    16  16  16   8  16  16  16
#     4   9  17  28  44  71 106 138 171 216 263 308
#     4  10  20  33  50  74 104 136 173 217 262 310
#     4   9  16  28  49  75 103 135 172 214 263 321
#     4   9  17  31  51  73  97 131 175 213 251 305
#     4  11  20  32  50  73 105 140 176 218 265 319
#     4  10  19  30  50  75 100 128 164 212 265 321
#     4   9  17  32  51  75 101 126 162 208 260 319
#
# _framework density 18.624683000000001
#
# number of rings (size 3 to 8) (size 9 to 14) (size 15 to 20)
#    0.000    2.385    1.538    2.077    0.000    3.385 
#    0.000    1.538    1.692    0.462    0.000    0.000 
#    0.000    1.231    0.000    0.000    0.000    0.000 
#
# Total GULP energy -644385.954944 kJ/mol
# GULP energy per Si atom -12392.037595 kJ/mol
# Density = 1.858229 g / cm^3
# Si number density = 18.624683 Si / 1000 Ang^3
#
#
#
# Elastic Constant Matrix: (Units=GPa)
#
#
# Indices 1 2 3 4 5 6 
#
# 1 78.3725 18.7180 38.6294 0.0000 0.0000 0.0000
# 2 18.7180 92.6866 47.7057 0.0000 0.0000 0.0000
# 3 38.6294 47.7057 141.5882 0.0001 0.0000 0.0000
# 4 0.0000 0.0000 0.0001 25.4681 0.0000 0.0000
# 5 0.0000 0.0000 0.0000 0.0000 19.1981 0.0000
# 6 0.0000 0.0000 0.0000 0.0000 0.0000 22.0950
#
#
#
# Elastic Compliance Matrix: (Units=1/GPa)
#
#
# Indices 1 2 3 4 5 6 
#
# 1 0.014835 -0.001104 -0.003675 0.000000 0.000000 0.000000
# 2 -0.001104 0.013135 -0.004124 0.000000 0.000000 0.000000
# 3 -0.003675 -0.004124 0.009455 0.000000 0.000000 0.000000
# 4 0.000000 0.000000 0.000000 0.039265 0.000000 0.000000
# 5 0.000000 0.000000 0.000000 0.000000 0.052088 0.000000
# 6 0.000000 0.000000 0.000000 0.000000 0.000000 0.045259
#
#
# Mechanical properties :
#
#
# Convention : Reuss Voigt Hill
#
# Bulk Modulus (GPa) = 50.97595 58.08372 54.52984
# Shear Modulus (GPa) = 25.20367 27.19185 26.19776
#
# Velocity S-wave (km/s) = 3.68263 3.82513 3.75456
# Velocity P-wave (km/s) = 6.74625 7.12481 6.93811
#
# Compressibility (1/GPa) = 0.01961709
#
# Stress axis : x y z
#
# Youngs Moduli (GPa) = 67.40879 76.13358 105.76314
#
# Poissons Ratio (x) = 0.08407 0.38872
# Poissons Ratio (y) = 0.07443 0.43620
# Poissons Ratio (z) = 0.24775 0.31400
#
# Static dielectric constant tensor:
#      x y z
#    x 3.308640 0.000000 0.000000 
#    y 0.000000 3.566100 0.000000 
#    z 0.000000 0.000000 3.480240 
# 
# 
# High freq. dielectric constant tensor:
#      x y z
#    x 1.699840 0.000000 0.000000 
#    y 0.000000 1.710660 0.000000 
#    z 0.000000 0.000000 1.710880 
# 
# From -- ./inp_files/51196.got.cif
#   From: 2010.06.25/outbox.cif.g09.slc.cpg/sg71_26_cif.got.tgz:51196.got - 2010.06.28 04:59:45.
