data_PCOD8288991
_publ_section_title
;
Structure prediction by ZEFSAII (Michael W. Deem and Ramdas Pophale) SiO2 
 PCOD8288991
Probable space group: I M M M
;
_chemical_formula_sum "Si O2"
_cell_formula_units_Z 64
_cell_length_a 14.545904
_cell_length_b 14.782344
_cell_length_c 15.419575
_cell_angle_alpha 90.000000
_cell_angle_beta 90.000000
_cell_angle_gamma 90.000000
_cell_volume 3315.556440
_symmetry_space_group_name_H-M "I M M M"
_symmetry_group_IT_number 71
_symmetry_cell_setting 'orthorhombic'
loop_
_space_group_symop_operation_xyz
x,y,z
-x,-y,z
x,-y,-z
-x,y,-z
-x,-y,-z
x,y,-z
-x,y,z
x,-y,z
1/2+x,1/2+y,1/2+z
1/2-x,1/2-y,1/2+z
1/2+x,1/2-y,1/2-z
1/2-x,1/2+y,1/2-z
1/2-x,1/2-y,1/2-z
1/2+x,1/2+y,1/2-z
1/2-x,1/2+y,1/2+z
1/2+x,1/2-y,1/2+z
loop_
_atom_site_type_symbol
_atom_site_label
_atom_site_fract_x
_atom_site_fract_y
_atom_site_fract_z
Si Si1 0.790075 0.103987 0.763422
Si Si2 0.395530 0.281545 0.401886
Si Si3 0.396567 0.392700 0.904403
Si Si4 0.898201 0.399262 0.811000
O O1 0.827612 0.162983 0.841377
O O2 0.829603 0.142275 0.671794
O O3 0.679498 0.115422 0.762445
O O4 0.819616 0.000000 0.777874
O O5 0.367193 0.302385 0.500000
O O6 0.500000 0.312981 0.383435
O O7 0.386042 0.173996 0.386791
O O8 0.500000 0.358674 0.884286
O O9 0.394552 0.500000 0.906279
O O10 0.365267 0.356519 0.000000
O O11 0.885470 0.500000 0.851895
O O12 0.000000 0.390077 0.768179
#
# Coordination Sequence:
#
# PCOD8288991 Si02
#       4
#    16  16  16  16
#     4  10  19  32  53  78 106 141 175 212 263 319
#     4  10  21  35  52  78 111 144 177 213 256 313
#     4   8  14  25  42  67  99 132 167 208 254 305
#     4   9  19  36  56  76  99 133 180 230 273 307
#
# _framework density 19.302944
#
# number of rings (size 3 to 8) (size 9 to 14) (size 15 to 20)
#    0.000    2.750    0.000    2.250    0.000    3.500 
#    0.000    6.250    0.000    0.750    0.000    3.500 
#    0.000    0.000    0.000    0.000    0.000    0.500 
#
# Total GULP energy -396585.912484 kJ/mol
# GULP energy per Si atom -12393.309765 kJ/mol
# Density = 1.925901 g / cm^3
# Si number density = 19.302944 Si / 1000 Ang^3
#
#
#
# Elastic Constant Matrix: (Units=GPa)
#
#
# Indices 1 2 3 4 5 6 
#
# 1 129.8124 47.4341 76.0620 0.0000 0.0000 0.0000
# 2 47.4341 73.1822 54.7650 0.0000 0.0000 0.0000
# 3 76.0620 54.7650 131.8777 0.0000 0.0000 0.0000
# 4 0.0000 0.0000 0.0000 18.5780 0.0000 0.0000
# 5 0.0000 0.0000 0.0000 0.0000 16.9712 0.0000
# 6 0.0000 0.0000 0.0000 0.0000 0.0000 21.7969
#
#
#
# Elastic Compliance Matrix: (Units=1/GPa)
#
#
# Indices 1 2 3 4 5 6 
#
# 1 0.012351 -0.003881 -0.005512 0.000000 0.000000 0.000000
# 2 -0.003881 0.021045 -0.006501 0.000000 0.000000 0.000000
# 3 -0.005512 -0.006501 0.013462 0.000000 0.000000 0.000000
# 4 0.000000 0.000000 0.000000 0.053827 0.000000 0.000000
# 5 0.000000 0.000000 0.000000 0.000000 0.058923 0.000000
# 6 0.000000 0.000000 0.000000 0.000000 0.000000 0.045878
#
#
# Mechanical properties :
#
#
# Convention : Reuss Voigt Hill
#
# Bulk Modulus (GPa) = 66.35739 76.82161 71.58950
# Shear Modulus (GPa) = 20.63578 21.90996 21.27287
#
# Velocity S-wave (km/s) = 3.27318 3.37272 3.32332
# Velocity P-wave (km/s) = 6.98114 7.41965 7.20374
#
# Compressibility (1/GPa) = 0.01506991
#
# Stress axis : x y z
#
# Youngs Moduli (GPa) = 80.96352 47.51753 74.28463
#
# Poissons Ratio (x) = 0.18440 0.40947
# Poissons Ratio (y) = 0.31419 0.48293
# Poissons Ratio (z) = 0.44629 0.30892
#
# Static dielectric constant tensor:
#      x y z
#    x 3.831760 0.000000 0.000000 
#    y 0.000000 3.376320 0.000000 
#    z 0.000000 0.000000 3.383790 
# 
# 
# High freq. dielectric constant tensor:
#      x y z
#    x 1.765140 0.000000 0.000000 
#    y 0.000000 1.730680 0.000000 
#    z 0.000000 0.000000 1.719150 
# 
# From -- ./inp_files/21235.got.cif
#   From: 2010.06.25/outbox.cif.g09.slc.cpg/sg71_11_cif.got.tgz:21235.got - 2010.06.28 04:59:45.
