data_PCOD8288210
_publ_section_title
;
Structure prediction by ZEFSAII (Michael W. Deem and Ramdas Pophale) SiO2 
 PCOD8288210
Probable space group: I M M M
;
_chemical_formula_sum "Si O2"
_cell_formula_units_Z 72
_cell_length_a 9.045971
_cell_length_b 22.117858
_cell_length_c 19.615634
_cell_angle_alpha 90.000000
_cell_angle_beta 90.000000
_cell_angle_gamma 90.000000
_cell_volume 3924.647052
_symmetry_space_group_name_H-M "I M M M"
_symmetry_group_IT_number 71
_symmetry_cell_setting 'orthorhombic'
loop_
_space_group_symop_operation_xyz
x,y,z
-x,-y,z
x,-y,-z
-x,y,-z
-x,-y,-z
x,y,-z
-x,y,z
x,-y,z
1/2+x,1/2+y,1/2+z
1/2-x,1/2-y,1/2+z
1/2+x,1/2-y,1/2-z
1/2-x,1/2+y,1/2-z
1/2-x,1/2-y,1/2-z
1/2+x,1/2+y,1/2-z
1/2-x,1/2+y,1/2+z
1/2+x,1/2-y,1/2+z
loop_
_atom_site_type_symbol
_atom_site_label
_atom_site_fract_x
_atom_site_fract_y
_atom_site_fract_z
Si Si1 0.329809 0.569457 0.370949
Si Si2 0.325521 0.069578 0.730768
Si Si3 0.829264 0.770662 0.500000
Si Si4 0.325140 0.355926 0.500000
Si Si5 0.658463 0.932617 0.500000
Si Si6 0.673262 0.629832 0.889465
O O1 0.500000 0.584801 0.353004
O O2 0.314731 0.500000 0.393462
O O3 0.228049 0.584330 0.306600
O O4 0.267625 0.609925 0.432729
O O5 0.500000 0.078138 0.726067
O O6 0.249806 0.121352 0.683912
O O7 0.281100 0.000000 0.711515
O O8 0.729309 0.712262 0.500000
O O9 0.792073 0.808165 0.430773
O O10 0.000000 0.751993 0.500000
O O11 0.500000 0.356821 0.500000
O O12 0.500000 0.895685 0.500000
O O13 0.757485 0.923138 0.433860
O O14 0.607016 0.000000 0.500000
O O15 0.500000 0.620446 0.880700
#
# Coordination Sequence:
#
# PCOD8288210 Si02
#       6
#    16  16   8   8   8  16
#     4   9  18  34  56  82 110 136 164 204 256 314
#     4  10  20  33  51  79 111 139 170 211 261 313
#     4   9  21  38  53  73 102 137 178 221 259 299
#     4  10  20  35  58  83 103 131 173 215 257 308
#     4  10  19  29  44  70 101 132 169 214 262 308
#     4  10  20  34  51  71  99 138 180 217 255 302
#
# _framework density 18.345597999999999
#
# number of rings (size 3 to 8) (size 9 to 14) (size 15 to 20)
#    0.000    2.333    0.000    3.333    0.000    9.778 
#    0.000    1.111    0.000    3.333    0.000    0.000 
#    0.000    0.000    0.000    0.000    0.000    0.000 
#
# Total GULP energy -446156.207026 kJ/mol
# GULP energy per Si atom -12393.227973 kJ/mol
# Density = 1.830384 g / cm^3
# Si number density = 18.345598 Si / 1000 Ang^3
#
#
#
# Elastic Constant Matrix: (Units=GPa)
#
#
# Indices 1 2 3 4 5 6 
#
# 1 81.4998 38.2753 55.8439 0.0000 0.0000 0.0000
# 2 38.2753 78.9235 60.3715 0.0000 0.0000 0.0000
# 3 55.8439 60.3715 134.2693 0.0001 0.0000 0.0000
# 4 0.0000 0.0000 0.0001 6.2502 0.0000 0.0000
# 5 0.0000 0.0000 0.0000 0.0000 62.2553 0.0000
# 6 0.0000 0.0000 0.0000 0.0000 0.0000 25.7286
#
#
#
# Elastic Compliance Matrix: (Units=1/GPa)
#
#
# Indices 1 2 3 4 5 6 
#
# 1 0.018206 -0.004629 -0.005491 0.000000 0.000000 0.000000
# 2 -0.004629 0.020490 -0.007288 0.000000 0.000000 0.000000
# 3 -0.005491 -0.007288 0.013008 0.000000 0.000000 0.000000
# 4 0.000000 0.000000 0.000000 0.159994 0.000000 0.000000
# 5 0.000000 0.000000 0.000000 0.000000 0.016063 0.000000
# 6 0.000000 0.000000 0.000000 0.000000 0.000000 0.038867
#
#
# Mechanical properties :
#
#
# Convention : Reuss Voigt Hill
#
# Bulk Modulus (GPa) = 59.20945 67.07491 63.14218
# Shear Modulus (GPa) = 16.28274 28.19363 22.23818
#
# Velocity S-wave (km/s) = 2.98242 3.92446 3.48542
# Velocity P-wave (km/s) = 6.64863 7.56151 7.11972
#
# Compressibility (1/GPa) = 0.01688919
#
# Stress axis : x y z
#
# Youngs Moduli (GPa) = 54.92587 48.80398 76.87560
#
# Poissons Ratio (x) = 0.22594 0.42210
# Poissons Ratio (y) = 0.25428 0.56023
# Poissons Ratio (z) = 0.30158 0.35566
#
# Static dielectric constant tensor:
#      x y z
#    x 3.352470 0.000000 0.000000 
#    y 0.000000 3.165070 0.000000 
#    z 0.000000 0.000000 3.453370 
# 
# 
# High freq. dielectric constant tensor:
#      x y z
#    x 1.720480 0.000000 0.000000 
#    y 0.000000 1.684130 0.000000 
#    z 0.000000 0.000000 1.715980 
# 
# From -- ./inp_files/9978.got.cif
#   From: 2010.06.25/outbox.cif.g09.slc.cpg/sg71_5_cif.got.tgz:9978.got - 2010.06.28 04:59:45.
