data_PCOD8288036
_publ_section_title
;
Structure prediction by ZEFSAII (Michael W. Deem and Ramdas Pophale) SiO2 
 PCOD8288036
Probable space group: I M M M
;
_chemical_formula_sum "Si O2"
_cell_formula_units_Z 96
_cell_length_a 12.370407
_cell_length_b 17.183181
_cell_length_c 23.626189
_cell_angle_alpha 90.000000
_cell_angle_beta 90.000000
_cell_angle_gamma 90.000000
_cell_volume 5022.052254
_symmetry_space_group_name_H-M "I M M M"
_symmetry_group_IT_number 71
_symmetry_cell_setting 'orthorhombic'
loop_
_space_group_symop_operation_xyz
x,y,z
-x,-y,z
x,-y,-z
-x,y,-z
-x,-y,-z
x,y,-z
-x,y,z
x,-y,z
1/2+x,1/2+y,1/2+z
1/2-x,1/2-y,1/2+z
1/2+x,1/2-y,1/2-z
1/2-x,1/2+y,1/2-z
1/2-x,1/2-y,1/2-z
1/2+x,1/2+y,1/2-z
1/2-x,1/2+y,1/2+z
1/2+x,1/2-y,1/2+z
loop_
_atom_site_type_symbol
_atom_site_label
_atom_site_fract_x
_atom_site_fract_y
_atom_site_fract_z
Si Si1 0.116931 0.090293 0.322120
Si Si2 0.621745 0.907733 0.139193
Si Si3 0.773508 0.192887 0.064516
Si Si4 0.000000 0.408312 0.852529
Si Si5 0.678217 0.092039 0.262461
Si Si6 0.000000 0.264315 0.932981
Si Si7 0.623441 0.340050 0.937994
O O1 0.204584 0.127496 0.279551
O O2 0.149264 0.099157 0.388257
O O3 0.000000 0.129590 0.310026
O O4 0.110461 0.000000 0.309542
O O5 0.500000 0.883780 0.119211
O O6 0.717894 0.875253 0.100440
O O7 0.638588 0.873616 0.202697
O O8 0.633110 0.000000 0.138192
O O9 0.699201 0.267287 0.071505
O O10 0.894477 0.214522 0.085753
O O11 0.778457 0.163668 0.000000
O O12 0.898082 0.386249 0.814311
O O13 0.000000 0.351026 0.906312
O O14 0.000000 0.500000 0.871099
O O15 0.682551 0.000000 0.256164
O O16 0.000000 0.278836 0.000000
O O17 0.500000 0.310981 0.934651
O O18 0.646150 0.378254 0.000000
#
# Coordination Sequence:
#
# PCOD8288036 Si02
#       7
#    16  16  16   8  16   8  16
#     4   9  17  29  46  71 105 143 182 219 257 315
#     4  10  20  37  62  86 106 132 176 233 286 335
#     4  10  21  38  57  77 109 146 175 218 279 333
#     4  10  18  33  60  85 108 148 196 234 271 311
#     4   9  17  32  53  77 106 139 174 223 280 323
#     4  10  22  39  55  78 118 158 188 222 269 325
#     4   9  17  30  49  73 102 138 178 222 275 320
#
# _framework density 19.115691000000002
#
# number of rings (size 3 to 8) (size 9 to 14) (size 15 to 20)
#    0.000    2.500    0.833    1.500    0.000    1.833 
#    1.500    6.250    0.000    7.500    0.000    0.000 
#    0.000    0.000    0.000    0.000    0.000    0.000 
#
# Total GULP energy -594777.266688 kJ/mol
# GULP energy per Si atom -12391.193056 kJ/mol
# Density = 1.907218 g / cm^3
# Si number density = 19.115691 Si / 1000 Ang^3
#
#
#
# Elastic Constant Matrix: (Units=GPa)
#
#
# Indices 1 2 3 4 5 6 
#
# 1 138.4673 42.3805 57.1208 0.0000 0.0000 0.0000
# 2 42.3805 38.8122 33.8073 0.0000 0.0000 0.0000
# 3 57.1208 33.8073 81.7930 0.0000 0.0000 0.0000
# 4 0.0000 0.0000 0.0000 21.0154 0.0000 0.0000
# 5 0.0000 0.0000 0.0000 0.0000 29.5647 0.0000
# 6 0.0000 0.0000 0.0000 0.0000 0.0000 22.9665
#
#
#
# Elastic Compliance Matrix: (Units=1/GPa)
#
#
# Indices 1 2 3 4 5 6 
#
# 1 0.011850 -0.008955 -0.004574 0.000000 0.000000 0.000000
# 2 -0.008955 0.047027 -0.013184 0.000000 0.000000 0.000000
# 3 -0.004574 -0.013184 0.020870 0.000000 0.000000 0.000000
# 4 0.000000 0.000000 0.000000 0.047584 0.000000 0.000000
# 5 0.000000 0.000000 0.000000 0.000000 0.033824 0.000000
# 6 0.000000 0.000000 0.000000 0.000000 0.000000 0.043542
#
#
# Mechanical properties :
#
#
# Convention : Reuss Voigt Hill
#
# Bulk Modulus (GPa) = 37.99290 58.40995 48.20142
# Shear Modulus (GPa) = 18.73398 23.09359 20.91379
#
# Velocity S-wave (km/s) = 3.13394 3.47954 3.31125
# Velocity P-wave (km/s) = 5.74577 6.83851 6.31582
#
# Compressibility (1/GPa) = 0.02632071
#
# Stress axis : x y z
#
# Youngs Moduli (GPa) = 84.39119 21.26441 47.91680
#
# Poissons Ratio (x) = 0.19042 0.21917
# Poissons Ratio (y) = 0.75571 0.63173
# Poissons Ratio (z) = 0.38600 0.28035
#
# Static dielectric constant tensor:
#      x y z
#    x 4.158260 0.000000 0.000000 
#    y 0.000000 3.064540 0.000000 
#    z 0.000000 0.000000 3.642160 
# 
# 
# High freq. dielectric constant tensor:
#      x y z
#    x 1.762440 0.000000 0.000000 
#    y 0.000000 1.700630 0.000000 
#    z 0.000000 0.000000 1.741300 
# 
# From -- ./inp_files/52032.got.cif
#   From: 2010.06.25/outbox.cif.g09.slc.cpg/sg71_27_cif.got.tgz:52032.got - 2010.06.28 04:59:45.
