data_PCOD8288660
_publ_section_title
;
Structure prediction by ZEFSAII (Michael W. Deem and Ramdas Pophale) SiO2 
 PCOD8288660
Probable space group: I M M M
;
_chemical_formula_sum "Si O2"
_cell_formula_units_Z 88
_cell_length_a 28.899247
_cell_length_b 9.183939
_cell_length_c 18.247646
_cell_angle_alpha 90.000000
_cell_angle_beta 90.000000
_cell_angle_gamma 90.000000
_cell_volume 4843.088046
_symmetry_space_group_name_H-M "I M M M"
_symmetry_group_IT_number 71
_symmetry_cell_setting 'orthorhombic'
loop_
_space_group_symop_operation_xyz
x,y,z
-x,-y,z
x,-y,-z
-x,y,-z
-x,-y,-z
x,y,-z
-x,y,z
x,-y,z
1/2+x,1/2+y,1/2+z
1/2-x,1/2-y,1/2+z
1/2+x,1/2-y,1/2-z
1/2-x,1/2+y,1/2-z
1/2-x,1/2-y,1/2-z
1/2+x,1/2+y,1/2-z
1/2-x,1/2+y,1/2+z
1/2+x,1/2-y,1/2+z
loop_
_atom_site_type_symbol
_atom_site_label
_atom_site_fract_x
_atom_site_fract_y
_atom_site_fract_z
Si Si1 0.903281 0.830821 0.853976
Si Si2 0.947665 0.826492 0.295301
Si Si3 0.552581 0.326730 0.500000
Si Si4 0.696145 0.333748 0.692156
Si Si5 0.797158 0.331254 0.340682
Si Si6 0.376020 0.669968 0.916720
O O1 0.925885 0.763475 0.780183
O O2 0.848239 0.805498 0.858456
O O3 0.916068 0.000000 0.853416
O O4 0.924271 0.758446 0.927095
O O5 0.916386 0.770363 0.363168
O O6 0.000000 0.767216 0.304549
O O7 0.947611 0.000000 0.294731
O O8 0.558576 0.500000 0.500000
O O9 0.500000 0.277446 0.500000
O O10 0.696351 0.500000 0.722086
O O11 0.742394 0.304002 0.644557
O O12 0.691401 0.226302 0.760120
O O13 0.809977 0.500000 0.344526
O O14 0.827315 0.248593 0.401163
O O15 0.367799 0.500000 0.903340
O O16 0.391222 0.702544 0.000000
#
# Coordination Sequence:
#
# PCOD8288660 Si02
#       6
#    16  16   8  16  16  16
#     4   9  15  26  44  67  99 131 157 194 245 299
#     4   9  16  27  47  72  95 123 163 209 251 293
#     4   9  16  24  38  68 105 131 153 191 250 305
#     4   9  17  31  51  74  99 131 166 203 247 294
#     4  10  19  31  50  75 100 130 167 209 250 295
#     4  10  20  34  51  71 101 137 169 207 254 302
#
# _framework density 18.170226
#
# number of rings (size 3 to 8) (size 9 to 14) (size 15 to 20)
#    0.000    2.636    1.818    1.091    0.000    3.636 
#    1.636    1.818    0.000    0.545    0.000    1.273 
#    0.000    0.727    0.000    0.000    0.000    0.000 
#
# Total GULP energy -545440.192305 kJ/mol
# GULP energy per Si atom -12396.368007 kJ/mol
# Density = 1.812887 g / cm^3
# Si number density = 18.170226 Si / 1000 Ang^3
#
#
#
# Elastic Constant Matrix: (Units=GPa)
#
#
# Indices 1 2 3 4 5 6 
#
# 1 156.4343 28.3487 87.9085 0.0000 0.0000 0.0000
# 2 28.3487 30.6723 26.3227 0.0000 0.0000 0.0000
# 3 87.9085 26.3227 148.9736 0.0000 0.0000 0.0000
# 4 0.0000 0.0000 0.0000 13.8675 0.0000 0.0000
# 5 0.0000 0.0000 0.0000 0.0000 29.9446 0.0000
# 6 0.0000 0.0000 0.0000 0.0000 0.0000 18.8340
#
#
#
# Elastic Compliance Matrix: (Units=1/GPa)
#
#
# Indices 1 2 3 4 5 6 
#
# 1 0.010178 -0.005013 -0.005120 0.000000 0.000000 0.000000
# 2 -0.005013 0.040899 -0.004268 0.000000 0.000000 0.000000
# 3 -0.005120 -0.004268 0.010488 0.000000 0.000000 0.000000
# 4 0.000000 0.000000 0.000000 0.072111 0.000000 0.000000
# 5 0.000000 0.000000 0.000000 0.000000 0.033395 0.000000
# 6 0.000000 0.000000 0.000000 0.000000 0.000000 0.053096
#
#
# Mechanical properties :
#
#
# Convention : Reuss Voigt Hill
#
# Bulk Modulus (GPa) = 30.52317 69.02666 49.77492
# Shear Modulus (GPa) = 19.23880 25.42924 22.33402
#
# Velocity S-wave (km/s) = 3.25746 3.74505 3.50973
# Velocity P-wave (km/s) = 5.56624 7.53471 6.62401
#
# Compressibility (1/GPa) = 0.03276199
#
# Stress axis : x y z
#
# Youngs Moduli (GPa) = 98.24799 24.45047 95.34396
#
# Poissons Ratio (x) = 0.12257 0.48820
# Poissons Ratio (y) = 0.49251 0.40697
# Poissons Ratio (z) = 0.50307 0.10437
#
# Static dielectric constant tensor:
#      x y z
#    x 3.634760 0.000000 0.000000 
#    y 0.000000 2.899160 0.000000 
#    z 0.000000 0.000000 3.382950 
# 
# 
# High freq. dielectric constant tensor:
#      x y z
#    x 1.720180 0.000000 0.000000 
#    y 0.000000 1.647040 0.000000 
#    z 0.000000 0.000000 1.694250 
# 
# From -- ./inp_files/16684.got.cif
#   From: 2010.06.25/outbox.cif.g09.slc.cpg/sg71_9_cif.got.tgz:16684.got - 2010.06.28 04:59:45.
