data_PCOD8288436
_publ_section_title
;
Structure prediction by ZEFSAII (Michael W. Deem and Ramdas Pophale) SiO2 
 PCOD8288436
Probable space group: I M M M
;
_chemical_formula_sum "Si O2"
_cell_formula_units_Z 120
_cell_length_a 26.888202
_cell_length_b 26.774482
_cell_length_c 9.462972
_cell_angle_alpha 90.000000
_cell_angle_beta 90.000000
_cell_angle_gamma 90.000000
_cell_volume 6812.560853
_symmetry_space_group_name_H-M "I M M M"
_symmetry_group_IT_number 71
_symmetry_cell_setting 'orthorhombic'
loop_
_space_group_symop_operation_xyz
x,y,z
-x,-y,z
x,-y,-z
-x,y,-z
-x,-y,-z
x,y,-z
-x,y,z
x,-y,z
1/2+x,1/2+y,1/2+z
1/2-x,1/2-y,1/2+z
1/2+x,1/2-y,1/2-z
1/2-x,1/2+y,1/2-z
1/2-x,1/2-y,1/2-z
1/2+x,1/2+y,1/2-z
1/2-x,1/2+y,1/2+z
1/2+x,1/2-y,1/2+z
loop_
_atom_site_type_symbol
_atom_site_label
_atom_site_fract_x
_atom_site_fract_y
_atom_site_fract_z
Si Si1 0.943758 0.353917 0.163465
Si Si2 0.555043 0.500000 0.166088
Si Si3 0.642802 0.782309 0.335771
Si Si4 0.135807 0.077882 0.664408
Si Si5 0.837111 0.186300 0.340337
Si Si6 0.559151 0.945342 0.841393
Si Si7 0.270856 0.855923 0.664853
Si Si8 0.266712 0.556299 0.663644
O O1 0.911063 0.305490 0.197455
O O2 0.919957 0.401754 0.241896
O O3 0.000000 0.342225 0.213405
O O4 0.941755 0.367788 0.000000
O O5 0.500000 0.500000 0.237669
O O6 0.585375 0.549718 0.211237
O O7 0.548036 0.500000 0.000000
O O8 0.651134 0.772192 0.500000
O O9 0.644323 0.729495 0.260592
O O10 0.685047 0.820279 0.280997
O O11 0.149211 0.066581 0.500000
O O12 0.128898 0.137294 0.685925
O O13 0.179862 0.057686 0.761463
O O14 0.842606 0.205465 0.500000
O O15 0.780183 0.173219 0.306740
O O16 0.500000 0.944824 0.835749
O O17 0.578270 0.000000 0.790546
O O18 0.577943 0.935079 0.000000
O O19 0.276845 0.870159 0.500000
O O20 0.271559 0.906573 0.757158
O O21 0.272438 0.572492 0.500000
O O22 0.245493 0.500000 0.674407
#
# Coordination Sequence:
#
# PCOD8288436 Si02
#       8
#    16   8  16  16  16  16  16  16
#     4   9  18  32  49  69  93 123 161 199 233 279
#     4   9  16  28  51  79 105 137 175 213 250 289
#     4  10  20  34  51  71  96 128 164 202 245 293
#     4   9  17  31  51  74 100 132 170 206 244 293
#     4   9  18  31  49  74  98 122 159 204 247 293
#     4   8  14  26  45  68  91 115 148 190 234 278
#     4   9  19  34  51  72  97 126 163 203 246 297
#     4  10  19  30  48  75 103 130 163 201 244 300
#
# _framework density 17.614522999999998
#
# number of rings (size 3 to 8) (size 9 to 14) (size 15 to 20)
#    0.000    2.867    0.667    2.000    0.000    4.267 
#    0.000    2.667    0.000    5.600    0.000    0.000 
#    0.000    0.000    0.000    0.000    0.000    0.000 
#
# Total GULP energy -743803.926089 kJ/mol
# GULP energy per Si atom -12396.732101 kJ/mol
# Density = 1.757443 g / cm^3
# Si number density = 17.614523 Si / 1000 Ang^3
#
#
#
# Elastic Constant Matrix: (Units=GPa)
#
#
# Indices 1 2 3 4 5 6 
#
# 1 76.3260 54.5809 26.0704 0.0000 0.0000 0.0000
# 2 54.5809 142.0443 62.4025 0.0000 0.0000 0.0000
# 3 26.0704 62.4025 66.4985 0.0000 0.0000 0.0000
# 4 0.0000 0.0000 0.0000 35.6767 0.0000 0.0000
# 5 0.0000 0.0000 0.0000 0.0000 12.7603 0.0000
# 6 0.0000 0.0000 0.0000 0.0000 0.0000 18.0919
#
#
#
# Elastic Compliance Matrix: (Units=1/GPa)
#
#
# Indices 1 2 3 4 5 6 
#
# 1 0.018102 -0.006530 -0.000969 0.000000 0.000000 0.000000
# 2 -0.006530 0.014334 -0.010891 0.000000 0.000000 0.000000
# 3 -0.000969 -0.010891 0.025638 0.000000 0.000000 0.000000
# 4 0.000000 0.000000 0.000000 0.028029 0.000000 0.000000
# 5 0.000000 0.000000 0.000000 0.000000 0.078368 0.000000
# 6 0.000000 0.000000 0.000000 0.000000 0.000000 0.055273
#
#
# Mechanical properties :
#
#
# Convention : Reuss Voigt Hill
#
# Bulk Modulus (GPa) = 46.96142 63.44183 55.20162
# Shear Modulus (GPa) = 18.96649 22.76012 20.86331
#
# Velocity S-wave (km/s) = 3.28495 3.59851 3.44530
# Velocity P-wave (km/s) = 6.41143 7.30484 6.87266
#
# Compressibility (1/GPa) = 0.02129408
#
# Stress axis : x y z
#
# Youngs Moduli (GPa) = 55.24113 69.76508 39.00491
#
# Poissons Ratio (x) = 0.45558 0.03780
# Poissons Ratio (y) = 0.36074 0.42479
# Poissons Ratio (z) = 0.05353 0.75980
#
# Static dielectric constant tensor:
#      x y z
#    x 3.232530 0.000000 0.000000 
#    y 0.000000 3.386510 0.000000 
#    z 0.000000 0.000000 3.227720 
# 
# 
# High freq. dielectric constant tensor:
#      x y z
#    x 1.655070 0.000000 0.000000 
#    y 0.000000 1.686100 0.000000 
#    z 0.000000 0.000000 1.671630 
# 
# From -- ./inp_files/15616.got.cif
#   From: 2010.06.25/outbox.cif.g09.slc.cpg/sg71_8_cif.got.tgz:15616.got - 2010.06.28 04:59:45.
