data_PCOD8288329
_publ_section_title
;
Structure prediction by ZEFSAII (Michael W. Deem and Ramdas Pophale) SiO2 
 PCOD8288329
Probable space group: I M M M
;
_chemical_formula_sum "Si O2"
_cell_formula_units_Z 104
_cell_length_a 8.727430
_cell_length_b 26.829750
_cell_length_c 24.401935
_cell_angle_alpha 90.000000
_cell_angle_beta 90.000000
_cell_angle_gamma 90.000000
_cell_volume 5713.829357
_symmetry_space_group_name_H-M "I M M M"
_symmetry_group_IT_number 71
_symmetry_cell_setting 'orthorhombic'
loop_
_space_group_symop_operation_xyz
x,y,z
-x,-y,z
x,-y,-z
-x,y,-z
-x,-y,-z
x,y,-z
-x,y,z
x,-y,z
1/2+x,1/2+y,1/2+z
1/2-x,1/2-y,1/2+z
1/2+x,1/2-y,1/2-z
1/2-x,1/2+y,1/2-z
1/2-x,1/2-y,1/2-z
1/2+x,1/2+y,1/2-z
1/2-x,1/2+y,1/2+z
1/2+x,1/2-y,1/2+z
loop_
_atom_site_type_symbol
_atom_site_label
_atom_site_fract_x
_atom_site_fract_y
_atom_site_fract_z
Si Si1 0.819948 0.857447 0.270600
Si Si2 0.666337 0.500000 0.564707
Si Si3 0.181788 0.131836 0.562226
Si Si4 0.819314 0.290365 0.861256
Si Si5 0.680073 0.444522 0.846988
Si Si6 0.183972 0.893682 0.061096
Si Si7 0.681896 0.321281 0.652892
O O1 0.725170 0.818962 0.306519
O O2 0.781679 0.913708 0.291301
O O3 0.764761 0.848687 0.208589
O O4 0.000000 0.846425 0.278372
O O5 0.500000 0.500000 0.593980
O O6 0.641227 0.500000 0.500000
O O7 0.751277 0.448075 0.580005
O O8 0.239111 0.123556 0.500000
O O9 0.246466 0.183989 0.585117
O O10 0.242577 0.086071 0.600049
O O11 0.000000 0.134883 0.565113
O O12 0.753764 0.234495 0.853669
O O13 0.000000 0.290111 0.869108
O O14 0.500000 0.450548 0.853483
O O15 0.755237 0.500000 0.844352
O O16 0.249821 0.852753 0.102436
O O17 0.000000 0.896343 0.062514
O O18 0.240231 0.879700 0.000000
O O19 0.500000 0.320238 0.651068
#
# Coordination Sequence:
#
# PCOD8288329 Si02
#       7
#    16   8  16  16  16  16  16
#     4   9  17  31  47  64  90 119 150 188 230 272
#     4   7  10  18  32  48  72 110 143 163 198 259
#     4   9  18  32  49  69  94 124 154 186 228 274
#     4  10  19  30  46  66  90 121 156 189 224 266
#     4   8  14  26  45  68  92 117 146 184 230 274
#     4   8  13  22  35  53  81 114 144 175 216 265
#     4   9  17  27  40  62  87 115 152 190 225 266
#
# _framework density 18.201453999999998
#
# number of rings (size 3 to 8) (size 9 to 14) (size 15 to 20)
#    0.000    3.308    0.000    2.769    0.000    1.231 
#    1.385    3.846    0.000    7.385    0.000    4.308 
#    0.000    0.000    0.000    0.000    0.000   29.231 
#
# Total GULP energy -644281.569122 kJ/mol
# GULP energy per Si atom -12390.030175 kJ/mol
# Density = 1.816003 g / cm^3
# Si number density = 18.201454 Si / 1000 Ang^3
#
#
#
# Elastic Constant Matrix: (Units=GPa)
#
#
# Indices 1 2 3 4 5 6 
#
# 1 10.2407 10.8525 10.2425 0.0000 0.0000 0.0000
# 2 10.8525 173.8047 93.3884 0.0000 0.0000 0.0000
# 3 10.2425 93.3884 133.7122 0.0000 0.0000 0.0000
# 4 0.0000 0.0000 0.0000 21.5213 0.0000 0.0000
# 5 0.0000 0.0000 0.0000 0.0000 15.0202 0.0000
# 6 0.0000 0.0000 0.0000 0.0000 0.0000 15.3356
#
#
#
# Elastic Compliance Matrix: (Units=1/GPa)
#
#
# Indices 1 2 3 4 5 6 
#
# 1 0.107180 -0.003651 -0.005660 0.000000 0.000000 0.000000
# 2 -0.003651 0.009334 -0.006240 0.000000 0.000000 0.000000
# 3 -0.005660 -0.006240 0.012270 0.000000 0.000000 0.000000
# 4 0.000000 0.000000 0.000000 0.046466 0.000000 0.000000
# 5 0.000000 0.000000 0.000000 0.000000 0.066577 0.000000
# 6 0.000000 0.000000 0.000000 0.000000 0.000000 0.065208
#
#
# Mechanical properties :
#
#
# Convention : Reuss Voigt Hill
#
# Bulk Modulus (GPa) = 10.23723 60.74715 35.49219
# Shear Modulus (GPa) = 13.48811 23.92704 18.70758
#
# Velocity S-wave (km/s) = 2.72517 3.62963 3.20942
# Velocity P-wave (km/s) = 3.94191 7.14234 5.76852
#
# Compressibility (1/GPa) = 0.09768265
#
# Stress axis : x y z
#
# Youngs Moduli (GPa) = 9.33012 107.13266 81.49809
#
# Poissons Ratio (x) = 0.39116 0.46128
# Poissons Ratio (y) = 0.03407 0.50852
# Poissons Ratio (z) = 0.05281 0.66847
#
# Static dielectric constant tensor:
#      x y z
#    x 2.772470 0.000000 0.000000 
#    y 0.000000 3.861250 0.000000 
#    z 0.000000 0.000000 3.484850 
# 
# 
# High freq. dielectric constant tensor:
#      x y z
#    x 1.643570 0.000000 0.000000 
#    y 0.000000 1.717220 0.000000 
#    z 0.000000 0.000000 1.700620 
# 
# From -- ./inp_files/17234.got.cif
#   From: 2010.06.25/outbox.cif.g09.slc.cpg/sg71_9_cif.got.tgz:17234.got - 2010.06.28 04:59:45.
