data_PCOD8288506
_publ_section_title
;
Structure prediction by ZEFSAII (Michael W. Deem and Ramdas Pophale) SiO2 
 PCOD8288506
Probable space group: I M M M
;
_chemical_formula_sum "Si O2"
_cell_formula_units_Z 120
_cell_length_a 14.823470
_cell_length_b 21.850812
_cell_length_c 22.929004
_cell_angle_alpha 90.000000
_cell_angle_beta 90.000000
_cell_angle_gamma 90.000000
_cell_volume 7426.815742
_symmetry_space_group_name_H-M "I M M M"
_symmetry_group_IT_number 71
_symmetry_cell_setting 'orthorhombic'
loop_
_space_group_symop_operation_xyz
x,y,z
-x,-y,z
x,-y,-z
-x,y,-z
-x,-y,-z
x,y,-z
-x,y,z
x,-y,z
1/2+x,1/2+y,1/2+z
1/2-x,1/2-y,1/2+z
1/2+x,1/2-y,1/2-z
1/2-x,1/2+y,1/2-z
1/2-x,1/2-y,1/2-z
1/2+x,1/2+y,1/2-z
1/2-x,1/2+y,1/2+z
1/2+x,1/2-y,1/2+z
loop_
_atom_site_type_symbol
_atom_site_label
_atom_site_fract_x
_atom_site_fract_y
_atom_site_fract_z
Si Si1 0.103312 0.570593 0.733005
Si Si2 0.396265 0.860852 0.885333
Si Si3 0.752264 0.772025 0.155991
Si Si4 0.607266 0.930959 0.000000
Si Si5 0.744115 0.345097 0.226176
Si Si6 0.605070 0.692459 0.565430
Si Si7 0.899340 0.930132 0.240144
Si Si8 0.106521 0.065364 0.109918
O O1 0.135132 0.500000 0.739807
O O2 0.113948 0.589343 0.665653
O O3 0.162571 0.616544 0.772463
O O4 0.000000 0.577988 0.753510
O O5 0.500000 0.839402 0.891866
O O6 0.337194 0.800036 0.873850
O O7 0.359201 0.894098 0.943197
O O8 0.740259 0.700892 0.171852
O O9 0.775781 0.809143 0.214051
O O10 0.836011 0.770665 0.111496
O O11 0.500000 0.934676 0.000000
O O12 0.646979 0.000000 0.000000
O O13 0.662488 0.392094 0.215803
O O14 0.623662 0.716007 0.500000
O O15 0.500000 0.700185 0.582035
O O16 0.634497 0.620778 0.568060
O O17 0.856029 0.923602 0.175279
O O18 0.000000 0.902794 0.242246
O O19 0.899352 0.000000 0.260570
O O20 0.000000 0.060468 0.116198
O O21 0.143309 0.000000 0.085309
#
# Coordination Sequence:
#
# PCOD8288506 Si02
#       8
#    16  16  16   8  16  16  16  16
#     4   9  17  30  47  66  91 120 151 193 239 279
#     4   9  18  31  45  65  92 123 157 191 231 273
#     4  10  21  32  45  64  91 124 164 201 232 271
#     4   9  16  28  48  68  87 119 160 197 229 259
#     4  10  19  31  46  66  90 124 159 197 235 278
#     4  10  20  33  48  64  89 127 164 201 237 267
#     4   9  16  27  46  70  95 121 148 186 236 285
#     4   8  14  26  43  63  88 120 157 193 228 263
#
# _framework density 16.157664
#
# number of rings (size 3 to 8) (size 9 to 14) (size 15 to 20)
#    0.000    2.733    1.333    1.600    0.933    2.933 
#    0.000    4.667    0.000    0.000    0.000    0.000 
#    0.000    2.133    0.000    8.800    0.000    0.000 
#
# Total GULP energy -743728.026946 kJ/mol
# GULP energy per Si atom -12395.467116 kJ/mol
# Density = 1.612089 g / cm^3
# Si number density = 16.157664 Si / 1000 Ang^3
#
#
#
# Elastic Constant Matrix: (Units=GPa)
#
#
# Indices 1 2 3 4 5 6 
#
# 1 77.8447 46.4014 38.4832 0.0000 0.0000 0.0000
# 2 46.4014 88.0079 49.0582 0.0000 0.0000 0.0000
# 3 38.4832 49.0582 65.2332 0.0000 0.0000 0.0000
# 4 0.0000 0.0000 0.0000 25.1646 0.0000 0.0000
# 5 0.0000 0.0000 0.0000 0.0000 20.2117 0.0000
# 6 0.0000 0.0000 0.0000 0.0000 0.0000 24.8368
#
#
#
# Elastic Compliance Matrix: (Units=1/GPa)
#
#
# Indices 1 2 3 4 5 6 
#
# 1 0.020334 -0.006946 -0.006772 0.000000 0.000000 0.000000
# 2 -0.006946 0.021937 -0.012400 0.000000 0.000000 0.000000
# 3 -0.006772 -0.012400 0.028650 0.000000 0.000000 0.000000
# 4 0.000000 0.000000 0.000000 0.039738 0.000000 0.000000
# 5 0.000000 0.000000 0.000000 0.000000 0.049476 0.000000
# 6 0.000000 0.000000 0.000000 0.000000 0.000000 0.040263
#
#
# Mechanical properties :
#
#
# Convention : Reuss Voigt Hill
#
# Bulk Modulus (GPa) = 53.51849 55.44127 54.47988
# Shear Modulus (GPa) = 19.31523 20.51881 19.91702
#
# Velocity S-wave (km/s) = 3.46124 3.56745 3.51474
# Velocity P-wave (km/s) = 7.01200 7.16632 7.08958
#
# Compressibility (1/GPa) = 0.01868513
#
# Stress axis : x y z
#
# Youngs Moduli (GPa) = 49.17775 45.58532 34.90419
#
# Poissons Ratio (x) = 0.31664 0.23638
# Poissons Ratio (y) = 0.34160 0.43280
# Poissons Ratio (z) = 0.33304 0.56525
#
# Static dielectric constant tensor:
#      x y z
#    x 3.094420 0.000000 0.000000 
#    y 0.000000 3.040270 0.000000 
#    z 0.000000 0.000000 2.769620 
# 
# 
# High freq. dielectric constant tensor:
#      x y z
#    x 1.627200 0.000000 0.000000 
#    y 0.000000 1.605080 0.000000 
#    z 0.000000 0.000000 1.575800 
# 
# From -- ./inp_files/53438.got.cif
#   From: 2010.06.25/outbox.cif.g09.slc.cpg/sg71_27_cif.got.tgz:53438.got - 2010.06.28 04:59:45.
