data_PCOD8288915
_publ_section_title
;
Structure prediction by ZEFSAII (Michael W. Deem and Ramdas Pophale) SiO2 
 PCOD8288915
Probable space group: I M M M
;
_chemical_formula_sum "Si O2"
_cell_formula_units_Z 96
_cell_length_a 15.789109
_cell_length_b 25.516376
_cell_length_c 15.259344
_cell_angle_alpha 90.000000
_cell_angle_beta 90.000000
_cell_angle_gamma 90.000000
_cell_volume 6147.697358
_symmetry_space_group_name_H-M "I M M M"
_symmetry_group_IT_number 71
_symmetry_cell_setting 'orthorhombic'
loop_
_space_group_symop_operation_xyz
x,y,z
-x,-y,z
x,-y,-z
-x,y,-z
-x,-y,-z
x,y,-z
-x,y,z
x,-y,z
1/2+x,1/2+y,1/2+z
1/2-x,1/2-y,1/2+z
1/2+x,1/2-y,1/2-z
1/2-x,1/2+y,1/2-z
1/2-x,1/2-y,1/2-z
1/2+x,1/2+y,1/2-z
1/2-x,1/2+y,1/2+z
1/2+x,1/2-y,1/2+z
loop_
_atom_site_type_symbol
_atom_site_label
_atom_site_fract_x
_atom_site_fract_y
_atom_site_fract_z
Si Si1 0.185068 0.239878 0.404006
Si Si2 0.349292 0.188719 0.344414
Si Si3 0.157054 0.560147 0.398342
Si Si4 0.500000 0.938817 0.778999
Si Si5 0.241593 0.654043 0.322176
Si Si6 0.000000 0.621452 0.096778
Si Si7 0.404804 0.294543 0.738563
O O1 0.144426 0.237626 0.500000
O O2 0.275574 0.210987 0.405826
O O3 0.198222 0.300146 0.378044
O O4 0.120692 0.210043 0.340237
O O5 0.306355 0.151849 0.270842
O O6 0.415400 0.156141 0.401314
O O7 0.399268 0.236797 0.301315
O O8 0.131109 0.566574 0.500000
O O9 0.183542 0.500000 0.379387
O O10 0.080276 0.578794 0.336395
O O11 0.234281 0.598734 0.373227
O O12 0.500000 0.916202 0.680899
O O13 0.500000 0.000000 0.766178
O O14 0.341499 0.665367 0.309943
O O15 0.000000 0.593311 0.000000
O O16 0.500000 0.316446 0.729786
#
# Coordination Sequence:
#
# PCOD8288915 Si02
#       7
#    16  16  16   8  16   8  16
#     4   9  17  28  43  66  95 122 156 193 226 272
#     4   9  17  30  43  63  94 127 157 186 224 267
#     4  10  19  32  52  73  92 120 156 192 236 284
#     4  10  21  35  48  67  99 124 151 200 239 270
#     4   9  17  30  47  65  92 127 153 189 234 275
#     4  12  20  28  49  68  92 131 164 189 221 269
#     4   9  17  29  47  64  92 127 153 189 233 278
#
# _framework density 15.615602000000001
#
# number of rings (size 3 to 8) (size 9 to 14) (size 15 to 20)
#    0.000    2.500    2.500    3.250    0.000    1.500 
#    0.000    0.000    0.000    0.500    0.000    1.167 
#    0.000    0.000    0.000    4.333    0.000    0.000 
#
# Total GULP energy -594916.665337 kJ/mol
# GULP energy per Si atom -12394.097195 kJ/mol
# Density = 1.558006 g / cm^3
# Si number density = 15.615602 Si / 1000 Ang^3
#
#
#
# Elastic Constant Matrix: (Units=GPa)
#
#
# Indices 1 2 3 4 5 6 
#
# 1 87.5369 28.4213 23.8819 -0.0001 0.0000 0.0000
# 2 28.4213 58.6733 25.3862 -0.0002 0.0000 0.0000
# 3 23.8819 25.3862 102.0051 -0.0003 0.0000 0.0000
# 4 -0.0001 -0.0002 -0.0003 21.3420 0.0000 0.0000
# 5 0.0000 0.0000 0.0000 0.0000 14.3686 0.0000
# 6 0.0000 0.0000 0.0000 0.0000 0.0000 19.1130
#
#
#
# Elastic Compliance Matrix: (Units=1/GPa)
#
#
# Indices 1 2 3 4 5 6 
#
# 1 0.013832 -0.005939 -0.001761 0.000000 0.000000 0.000000
# 2 -0.005939 0.021650 -0.003998 0.000000 0.000000 0.000000
# 3 -0.001761 -0.003998 0.011211 0.000000 0.000000 0.000000
# 4 0.000000 0.000000 0.000000 0.046856 0.000000 0.000000
# 5 0.000000 0.000000 0.000000 0.000000 0.069596 0.000000
# 6 0.000000 0.000000 0.000000 0.000000 0.000000 0.052320
#
#
# Mechanical properties :
#
#
# Convention : Reuss Voigt Hill
#
# Bulk Modulus (GPa) = 42.92025 44.84380 43.88203
# Shear Modulus (GPa) = 20.27369 22.33311 21.30340
#
# Velocity S-wave (km/s) = 3.60710 3.78587 3.69757
# Velocity P-wave (km/s) = 6.70025 6.92027 6.81115
#
# Compressibility (1/GPa) = 0.02329902
#
# Stress axis : x y z
#
# Youngs Moduli (GPa) = 72.29521 46.18973 89.20193
#
# Poissons Ratio (x) = 0.27430 0.15704
# Poissons Ratio (y) = 0.42933 0.35660
# Poissons Ratio (z) = 0.12728 0.18465
#
# Static dielectric constant tensor:
#      x y z
#    x 2.887680 0.000000 0.000000 
#    y 0.000000 2.745570 0.000000 
#    z 0.000000 0.000000 2.977990 
# 
# 
# High freq. dielectric constant tensor:
#      x y z
#    x 1.586310 0.000000 0.000000 
#    y 0.000000 1.570090 0.000000 
#    z 0.000000 0.000000 1.606290 
# 
# From -- ./inp_files/35054.got.cif
#   From: 2010.06.25/outbox.cif.g09.slc.cpg/sg71_18_cif.got.tgz:35054.got - 2010.06.28 04:59:45.
