data_PCOD8288809
_publ_section_title
;
Structure prediction by ZEFSAII (Michael W. Deem and Ramdas Pophale) SiO2 
 PCOD8288809
Probable space group: I M M M
;
_chemical_formula_sum "Si O2"
_cell_formula_units_Z 80
_cell_length_a 13.440050
_cell_length_b 18.031168
_cell_length_c 18.879145
_cell_angle_alpha 90.000000
_cell_angle_beta 90.000000
_cell_angle_gamma 90.000000
_cell_volume 4575.168214
_symmetry_space_group_name_H-M "I M M M"
_symmetry_group_IT_number 71
_symmetry_cell_setting 'orthorhombic'
loop_
_space_group_symop_operation_xyz
x,y,z
-x,-y,z
x,-y,-z
-x,y,-z
-x,-y,-z
x,y,-z
-x,y,z
x,-y,z
1/2+x,1/2+y,1/2+z
1/2-x,1/2-y,1/2+z
1/2+x,1/2-y,1/2-z
1/2-x,1/2+y,1/2-z
1/2-x,1/2-y,1/2-z
1/2+x,1/2+y,1/2-z
1/2-x,1/2+y,1/2+z
1/2+x,1/2-y,1/2+z
loop_
_atom_site_type_symbol
_atom_site_label
_atom_site_fract_x
_atom_site_fract_y
_atom_site_fract_z
Si Si1 0.115459 0.416809 0.229430
Si Si2 0.113061 0.841085 0.918241
Si Si3 0.803391 0.581820 0.384731
Si Si4 0.610346 0.765922 0.079230
Si Si5 0.717516 0.779114 0.326594
O O1 0.125175 0.500000 0.198330
O O2 0.175347 0.409721 0.302031
O O3 0.166207 0.359600 0.175395
O O4 0.000000 0.396310 0.242196
O O5 0.185415 0.909679 0.899471
O O6 0.138953 0.773945 0.865528
O O7 0.000000 0.866665 0.904960
O O8 0.128543 0.815830 0.000000
O O9 0.837065 0.500000 0.411432
O O10 0.861233 0.646952 0.424759
O O11 0.500000 0.758225 0.111102
O O12 0.682352 0.716661 0.127280
O O13 0.614978 0.734215 0.000000
O O14 0.750000 0.750000 0.250000
#
# Coordination Sequence:
#
# PCOD8288809 Si02
#       5
#    16  16  16  16  16
#     4  10  20  34  53  79 109 136 166 212 266 312
#     4  10  21  35  51  74 105 141 178 215 258 309
#     4  10  19  32  49  73 106 142 177 211 252 304
#     4  10  21  35  52  78 108 139 176 214 258 311
#     4  11  19  33  56  80 102 135 177 217 257 305
#
# _framework density 17.485696000000001
#
# number of rings (size 3 to 8) (size 9 to 14) (size 15 to 20)
#    0.000    1.800    4.000    3.600    0.000    4.000 
#    0.000    2.000    0.000    3.000    0.000    8.400 
#    0.000    0.000    0.000    0.000    0.000    0.000 
#
# Total GULP energy -495806.461760 kJ/mol
# GULP energy per Si atom -12395.161544 kJ/mol
# Density = 1.744590 g / cm^3
# Si number density = 17.485696 Si / 1000 Ang^3
#
#
#
# Elastic Constant Matrix: (Units=GPa)
#
#
# Indices 1 2 3 4 5 6 
#
# 1 142.8439 33.8167 47.0955 0.0000 0.0000 0.0000
# 2 33.8167 78.7680 39.5218 0.0000 0.0000 0.0000
# 3 47.0955 39.5218 81.0937 0.0000 0.0000 0.0000
# 4 0.0000 0.0000 0.0000 18.6970 0.0000 0.0000
# 5 0.0000 0.0000 0.0000 0.0000 29.6086 0.0000
# 6 0.0000 0.0000 0.0000 0.0000 0.0000 19.5233
#
#
#
# Elastic Compliance Matrix: (Units=1/GPa)
#
#
# Indices 1 2 3 4 5 6 
#
# 1 0.008810 -0.001608 -0.004332 0.000000 0.000000 0.000000
# 2 -0.001608 0.017098 -0.007399 0.000000 0.000000 0.000000
# 3 -0.004332 -0.007399 0.018453 0.000000 0.000000 0.000000
# 4 0.000000 0.000000 0.000000 0.053485 0.000000 0.000000
# 5 0.000000 0.000000 0.000000 0.000000 0.033774 0.000000
# 6 0.000000 0.000000 0.000000 0.000000 0.000000 0.051221
#
#
# Mechanical properties :
#
#
# Convention : Reuss Voigt Hill
#
# Bulk Modulus (GPa) = 56.55466 60.39705 58.47585
# Shear Modulus (GPa) = 23.21100 25.71721 24.46411
#
# Velocity S-wave (km/s) = 3.64734 3.83921 3.74450
# Velocity P-wave (km/s) = 7.08174 7.36671 7.22563
#
# Compressibility (1/GPa) = 0.01768201
#
# Stress axis : x y z
#
# Youngs Moduli (GPa) = 113.50950 58.48473 54.19030
#
# Poissons Ratio (x) = 0.09407 0.23478
# Poissons Ratio (y) = 0.18257 0.40095
# Poissons Ratio (z) = 0.49178 0.43273
#
# Static dielectric constant tensor:
#      x y z
#    x 3.456530 0.000000 0.000000 
#    y 0.000000 3.243300 0.000000 
#    z 0.000000 0.000000 3.188630 
# 
# 
# High freq. dielectric constant tensor:
#      x y z
#    x 1.689710 0.000000 0.000000 
#    y 0.000000 1.652180 0.000000 
#    z 0.000000 0.000000 1.669640 
# 
# From -- ./inp_files/36242.got.cif
#   From: 2010.06.25/outbox.cif.g09.slc.cpg/sg71_19_cif.got.tgz:36242.got - 2010.06.28 04:59:45.
