data_PCOD8288670
_publ_section_title
;
Structure prediction by ZEFSAII (Michael W. Deem and Ramdas Pophale) SiO2 
 PCOD8288670
Probable space group: I M M M
;
_chemical_formula_sum "Si O2"
_cell_formula_units_Z 96
_cell_length_a 25.113760
_cell_length_b 9.577809
_cell_length_c 23.381260
_cell_angle_alpha 90.000000
_cell_angle_beta 90.000000
_cell_angle_gamma 90.000000
_cell_volume 5624.006617
_symmetry_space_group_name_H-M "I M M M"
_symmetry_group_IT_number 71
_symmetry_cell_setting 'orthorhombic'
loop_
_space_group_symop_operation_xyz
x,y,z
-x,-y,z
x,-y,-z
-x,y,-z
-x,-y,-z
x,y,-z
-x,y,z
x,-y,z
1/2+x,1/2+y,1/2+z
1/2-x,1/2-y,1/2+z
1/2+x,1/2-y,1/2-z
1/2-x,1/2+y,1/2-z
1/2-x,1/2-y,1/2-z
1/2+x,1/2+y,1/2-z
1/2-x,1/2+y,1/2+z
1/2+x,1/2-y,1/2+z
loop_
_atom_site_type_symbol
_atom_site_label
_atom_site_fract_x
_atom_site_fract_y
_atom_site_fract_z
Si Si1 0.255029 0.661159 0.434364
Si Si2 0.302899 0.839117 0.755205
Si Si3 0.840482 0.338200 0.131800
Si Si4 0.441357 0.834287 0.435726
Si Si5 0.353326 0.161200 0.873363
Si Si6 0.061389 0.838938 0.434954
O O1 0.263292 0.703546 0.500000
O O2 0.269668 0.500000 0.423388
O O3 0.291923 0.755178 0.395183
O O4 0.194138 0.690045 0.417783
O O5 0.250000 0.750000 0.750000
O O6 0.340238 0.817518 0.699940
O O7 0.336164 0.789738 0.810102
O O8 0.285413 0.000000 0.762283
O O9 0.833347 0.500000 0.114916
O O10 0.896365 0.277816 0.107601
O O11 0.427524 0.783212 0.500000
O O12 0.500000 0.777200 0.417740
O O13 0.442666 0.000000 0.434058
O O14 0.404290 0.249212 0.891251
O O15 0.370075 0.000000 0.873416
O O16 0.072036 0.790098 0.500000
O O17 0.000000 0.815636 0.418957
O O18 0.077238 0.000000 0.428019
#
# Coordination Sequence:
#
# PCOD8288670 Si02
#       6
#    16  16  16  16  16  16
#     4  10  20  32  47  70 102 135 163 200 253 306
#     4  10  20  34  51  72 100 134 171 207 248 297
#     4  10  19  31  50  75  98 124 167 213 248 289
#     4   8  14  26  45  69  97 126 154 192 245 294
#     4  10  20  34  51  73 102 135 172 207 249 309
#     4   9  19  36  56  78 104 133 168 213 262 308
#
# _framework density 17.069680999999999
#
# number of rings (size 3 to 8) (size 9 to 14) (size 15 to 20)
#    0.000    2.500    1.667    2.000    0.000    3.667 
#    0.000    1.667    0.000    3.500    0.000    2.333 
#    0.000    0.000    0.000    0.000    0.000    0.000 
#
# Total GULP energy -595186.199872 kJ/mol
# GULP energy per Si atom -12399.712497 kJ/mol
# Density = 1.703083 g / cm^3
# Si number density = 17.069681 Si / 1000 Ang^3
#
#
#
# Elastic Constant Matrix: (Units=GPa)
#
#
# Indices 1 2 3 4 5 6 
#
# 1 99.0201 45.1497 53.2039 0.0000 0.0000 0.0000
# 2 45.1497 50.6923 41.6955 0.0000 0.0000 0.0000
# 3 53.2039 41.6955 107.8822 0.0000 0.0000 0.0000
# 4 0.0000 0.0000 0.0000 24.3400 0.0000 0.0000
# 5 0.0000 0.0000 0.0000 0.0000 26.8810 0.0000
# 6 0.0000 0.0000 0.0000 0.0000 0.0000 25.5520
#
#
#
# Elastic Compliance Matrix: (Units=1/GPa)
#
#
# Indices 1 2 3 4 5 6 
#
# 1 0.018084 -0.012859 -0.003948 0.000000 0.000000 0.000000
# 2 -0.012859 0.038064 -0.008370 0.000000 0.000000 0.000000
# 3 -0.003948 -0.008370 0.014452 0.000000 0.000000 0.000000
# 4 0.000000 0.000000 0.000000 0.041085 0.000000 0.000000
# 5 0.000000 0.000000 0.000000 0.000000 0.037201 0.000000
# 6 0.000000 0.000000 0.000000 0.000000 0.000000 0.039136
#
#
# Mechanical properties :
#
#
# Convention : Reuss Voigt Hill
#
# Bulk Modulus (GPa) = 49.39489 59.74365 54.56927
# Shear Modulus (GPa) = 20.39791 23.19097 21.79444
#
# Velocity S-wave (km/s) = 3.46060 3.68993 3.57710
# Velocity P-wave (km/s) = 6.70579 7.29588 7.00705
#
# Compressibility (1/GPa) = 0.02024501
#
# Stress axis : x y z
#
# Youngs Moduli (GPa) = 55.29871 26.27148 69.19691
#
# Poissons Ratio (x) = 0.33782 0.27322
# Poissons Ratio (y) = 0.71107 0.57917
# Poissons Ratio (z) = 0.21834 0.21989
#
# Static dielectric constant tensor:
#      x y z
#    x 3.254970 0.000000 0.000000 
#    y 0.000000 3.007700 0.000000 
#    z 0.000000 0.000000 3.398010 
# 
# 
# High freq. dielectric constant tensor:
#      x y z
#    x 1.655770 0.000000 0.000000 
#    y 0.000000 1.638350 0.000000 
#    z 0.000000 0.000000 1.664120 
# 
# From -- ./inp_files/12802.got.cif
#   From: 2010.06.25/outbox.cif.g09.slc.cpg/sg71_7_cif.got.tgz:12802.got - 2010.06.28 04:59:45.
