data_PCOD8288340
_publ_section_title
;
Structure prediction by ZEFSAII (Michael W. Deem and Ramdas Pophale) SiO2 
 PCOD8288340
Probable space group: I M M M
;
_chemical_formula_sum "Si O2"
_cell_formula_units_Z 96
_cell_length_a 28.384682
_cell_length_b 7.869192
_cell_length_c 24.960747
_cell_angle_alpha 90.000000
_cell_angle_beta 90.000000
_cell_angle_gamma 90.000000
_cell_volume 5575.345086
_symmetry_space_group_name_H-M "I M M M"
_symmetry_group_IT_number 71
_symmetry_cell_setting 'orthorhombic'
loop_
_space_group_symop_operation_xyz
x,y,z
-x,-y,z
x,-y,-z
-x,y,-z
-x,-y,-z
x,y,-z
-x,y,z
x,-y,z
1/2+x,1/2+y,1/2+z
1/2-x,1/2-y,1/2+z
1/2+x,1/2-y,1/2-z
1/2-x,1/2+y,1/2-z
1/2-x,1/2-y,1/2-z
1/2+x,1/2+y,1/2-z
1/2-x,1/2+y,1/2+z
1/2+x,1/2-y,1/2+z
loop_
_atom_site_type_symbol
_atom_site_label
_atom_site_fract_x
_atom_site_fract_y
_atom_site_fract_z
Si Si1 0.697438 0.500000 0.936425
Si Si2 0.555686 0.312763 0.745336
Si Si3 0.133657 0.309251 0.438119
Si Si4 0.634230 0.689381 0.438354
Si Si5 0.053535 0.307849 0.132673
Si Si6 0.802558 0.500000 0.936410
Si Si7 0.053747 0.798051 0.362338
O O1 0.670991 0.670419 0.916279
O O2 0.750050 0.500000 0.911729
O O3 0.700712 0.500000 0.000000
O O4 0.500000 0.326260 0.750169
O O5 0.577079 0.500000 0.735193
O O6 0.570606 0.197613 0.694809
O O7 0.572635 0.241097 0.803072
O O8 0.122125 0.271920 0.500000
O O9 0.154416 0.500000 0.430862
O O10 0.084983 0.295152 0.406352
O O11 0.621713 0.728157 0.500000
O O12 0.656192 0.500000 0.432331
O O13 0.586050 0.693713 0.404876
O O14 0.670755 0.830056 0.416181
O O15 0.056897 0.500000 0.112231
O O16 0.000000 0.238692 0.128206
O O17 0.799657 0.500000 0.000000
O O18 0.000000 0.739393 0.371596
O O19 0.058185 0.000000 0.368098
#
# Coordination Sequence:
#
# PCOD8288340 Si02
#       7
#     8  16  16  16  16   8  16
#     4   9  18  34  53  71  97 127 156 204 256 291
#     4   8  15  28  45  66  93 126 166 207 238 274
#     4  10  20  32  48  73 102 130 165 201 239 295
#     4  10  20  33  50  73 101 130 163 200 241 293
#     4  10  19  30  46  69 101 136 167 200 238 282
#     4   9  18  34  53  73  97 123 158 206 252 293
#     4   9  17  30  48  69  99 136 168 201 242 284
#
# _framework density 17.218665999999999
#
# number of rings (size 3 to 8) (size 9 to 14) (size 15 to 20)
#    0.000    2.667    1.667    1.500    0.000    3.333 
#    0.000    8.333    0.000    0.000    0.000    1.167 
#    0.000    0.000    0.000    0.000    0.000    0.000 
#
# Total GULP energy -594934.551722 kJ/mol
# GULP energy per Si atom -12394.469828 kJ/mol
# Density = 1.717948 g / cm^3
# Si number density = 17.218666 Si / 1000 Ang^3
#
#
#
# Elastic Constant Matrix: (Units=GPa)
#
#
# Indices 1 2 3 4 5 6 
#
# 1 93.2497 48.3248 40.3653 0.0000 0.0000 0.0000
# 2 48.3248 104.4441 30.7926 0.0000 0.0000 0.0000
# 3 40.3653 30.7926 66.0043 0.0000 0.0000 0.0000
# 4 0.0000 0.0000 0.0000 21.6547 0.0000 0.0000
# 5 0.0000 0.0000 0.0000 0.0000 2.4096 0.0000
# 6 0.0000 0.0000 0.0000 0.0000 0.0000 15.3669
#
#
#
# Elastic Compliance Matrix: (Units=1/GPa)
#
#
# Indices 1 2 3 4 5 6 
#
# 1 0.016976 -0.005558 -0.007789 0.000000 0.000000 0.000000
# 2 -0.005558 0.012921 -0.002629 0.000000 0.000000 0.000000
# 3 -0.007789 -0.002629 0.021140 0.000000 0.000000 0.000000
# 4 0.000000 0.000000 0.000000 0.046179 0.000000 0.000000
# 5 0.000000 0.000000 0.000000 0.000000 0.415014 0.000000
# 6 0.000000 0.000000 0.000000 0.000000 0.000000 0.065075
#
#
# Mechanical properties :
#
#
# Convention : Reuss Voigt Hill
#
# Bulk Modulus (GPa) = 52.39514 55.85149 54.12331
# Shear Modulus (GPa) = 8.12191 17.50060 12.81126
#
# Velocity S-wave (km/s) = 2.17420 3.19152 2.73066
# Velocity P-wave (km/s) = 6.06615 6.78882 6.43764
#
# Compressibility (1/GPa) = 0.01908574
#
# Stress axis : x y z
#
# Youngs Moduli (GPa) = 58.90741 77.39176 47.30339
#
# Poissons Ratio (x) = 0.43016 0.36843
# Poissons Ratio (y) = 0.32742 0.12436
# Poissons Ratio (z) = 0.45881 0.20346
#
# Static dielectric constant tensor:
#      x y z
#    x 3.039610 0.000000 0.000000 
#    y 0.000000 3.306060 0.000000 
#    z 0.000000 0.000000 3.202210 
# 
# 
# High freq. dielectric constant tensor:
#      x y z
#    x 1.625470 0.000000 0.000000 
#    y 0.000000 1.674400 0.000000 
#    z 0.000000 0.000000 1.646830 
# 
# From -- ./inp_files/61898.got.cif
#   From: 2010.06.25/outbox.cif.g09.slc.cpg/sg71_31_cif.got.tgz:61898.got - 2010.06.28 04:59:45.
