data_PCOD8288356
_publ_section_title
;
Structure prediction by ZEFSAII (Michael W. Deem and Ramdas Pophale) SiO2 
 PCOD8288356
Probable space group: I M M M
;
_chemical_formula_sum "Si O2"
_cell_formula_units_Z 72
_cell_length_a 13.089061
_cell_length_b 14.602454
_cell_length_c 22.313008
_cell_angle_alpha 90.000000
_cell_angle_beta 90.000000
_cell_angle_gamma 90.000000
_cell_volume 4264.739019
_symmetry_space_group_name_H-M "I M M M"
_symmetry_group_IT_number 71
_symmetry_cell_setting 'orthorhombic'
loop_
_space_group_symop_operation_xyz
x,y,z
-x,-y,z
x,-y,-z
-x,y,-z
-x,-y,-z
x,y,-z
-x,y,z
x,-y,z
1/2+x,1/2+y,1/2+z
1/2-x,1/2-y,1/2+z
1/2+x,1/2-y,1/2-z
1/2-x,1/2+y,1/2-z
1/2-x,1/2-y,1/2-z
1/2+x,1/2+y,1/2-z
1/2-x,1/2+y,1/2+z
1/2+x,1/2-y,1/2+z
loop_
_atom_site_type_symbol
_atom_site_label
_atom_site_fract_x
_atom_site_fract_y
_atom_site_fract_z
Si Si1 0.771892 0.000000 0.697193
Si Si2 0.614053 0.302675 0.067342
Si Si3 0.117986 0.500000 0.696268
Si Si4 0.799118 0.000000 0.434145
Si Si5 0.800296 0.313870 0.666620
Si Si6 0.618292 0.330711 0.747232
O O1 0.841363 0.088958 0.709395
O O2 0.673563 0.000000 0.739359
O O3 0.732080 0.000000 0.627451
O O4 0.500000 0.283403 0.092215
O O5 0.630189 0.411128 0.069224
O O6 0.695529 0.246176 0.106447
O O7 0.625601 0.265955 0.000000
O O8 0.148818 0.587421 0.656439
O O9 0.000000 0.500000 0.711163
O O10 0.740363 0.000000 0.500000
O O11 0.681792 0.327731 0.685159
O O12 0.864537 0.265295 0.719429
O O13 0.500000 0.345877 0.731345
#
# Coordination Sequence:
#
# PCOD8288356 Si02
#       6
#     8  16   8   8  16  16
#     4  10  19  30  50  77  97 124 157 196 246 289
#     4  10  19  31  49  72  98 128 159 196 242 287
#     4  10  20  33  48  69  99 131 162 196 236 282
#     4  10  19  30  46  71 102 129 155 194 244 290
#     4  10  20  32  47  70  96 127 163 195 237 284
#     4  10  19  31  49  71  96 124 156 200 245 285
#
# _framework density 16.882628
#
# number of rings (size 3 to 8) (size 9 to 14) (size 15 to 20)
#    0.000    2.000    2.222    2.667    0.000    2.222 
#    0.000    0.556    0.000    3.000    0.000    3.111 
#    0.000    5.333    0.000    0.000    0.000    0.000 
#
# Total GULP energy -446238.602619 kJ/mol
# GULP energy per Si atom -12395.516739 kJ/mol
# Density = 1.684420 g / cm^3
# Si number density = 16.882628 Si / 1000 Ang^3
#
#
#
# Elastic Constant Matrix: (Units=GPa)
#
#
# Indices 1 2 3 4 5 6 
#
# 1 94.3464 32.7214 33.9545 0.0000 0.0000 0.0000
# 2 32.7214 114.2261 33.8790 0.0000 0.0000 0.0000
# 3 33.9545 33.8790 95.6695 0.0000 0.0000 0.0000
# 4 0.0000 0.0000 0.0000 26.8614 0.0000 0.0000
# 5 0.0000 0.0000 0.0000 0.0000 16.9861 0.0000
# 6 0.0000 0.0000 0.0000 0.0000 0.0000 14.3228
#
#
#
# Elastic Compliance Matrix: (Units=1/GPa)
#
#
# Indices 1 2 3 4 5 6 
#
# 1 0.012803 -0.002592 -0.003626 0.000000 0.000000 0.000000
# 2 -0.002592 0.010307 -0.002730 0.000000 0.000000 0.000000
# 3 -0.003626 -0.002730 0.012706 0.000000 0.000000 0.000000
# 4 0.000000 0.000000 0.000000 0.037228 0.000000 0.000000
# 5 0.000000 0.000000 0.000000 0.000000 0.058872 0.000000
# 6 0.000000 0.000000 0.000000 0.000000 0.000000 0.069819
#
#
# Mechanical properties :
#
#
# Convention : Reuss Voigt Hill
#
# Bulk Modulus (GPa) = 55.80341 56.15020 55.97680
# Shear Modulus (GPa) = 22.16263 25.21319 23.68791
#
# Velocity S-wave (km/s) = 3.62712 3.86870 3.74985
# Velocity P-wave (km/s) = 7.11806 7.29980 7.20950
#
# Compressibility (1/GPa) = 0.01792005
#
# Stress axis : x y z
#
# Youngs Moduli (GPa) = 78.10507 97.02339 78.70088
#
# Poissons Ratio (x) = 0.25150 0.28538
# Poissons Ratio (y) = 0.20246 0.21485
# Poissons Ratio (z) = 0.28322 0.26486
#
# Static dielectric constant tensor:
#      x y z
#    x 2.950140 0.000000 0.000000 
#    y 0.000000 3.358240 0.000000 
#    z 0.000000 0.000000 3.184490 
# 
# 
# High freq. dielectric constant tensor:
#      x y z
#    x 1.620320 0.000000 0.000000 
#    y 0.000000 1.667570 0.000000 
#    z 0.000000 0.000000 1.635710 
# 
# From -- ./inp_files/32637.got.cif
#   From: 2010.06.25/outbox.cif.g09.slc.cpg/sg71_17_cif.got.tgz:32637.got - 2010.06.28 04:59:45.
