data_PCOD8288183
_publ_section_title
;
Structure prediction by ZEFSAII (Michael W. Deem and Ramdas Pophale) SiO2 
 PCOD8288183
Probable space group: I M M M
;
_chemical_formula_sum "Si O2"
_cell_formula_units_Z 96
_cell_length_a 28.630334
_cell_length_b 9.152410
_cell_length_c 26.445608
_cell_angle_alpha 90.000000
_cell_angle_beta 90.000000
_cell_angle_gamma 90.000000
_cell_volume 6929.716021
_symmetry_space_group_name_H-M "I M M M"
_symmetry_group_IT_number 71
_symmetry_cell_setting 'orthorhombic'
loop_
_space_group_symop_operation_xyz
x,y,z
-x,-y,z
x,-y,-z
-x,y,-z
-x,-y,-z
x,y,-z
-x,y,z
x,-y,z
1/2+x,1/2+y,1/2+z
1/2-x,1/2-y,1/2+z
1/2+x,1/2-y,1/2-z
1/2-x,1/2+y,1/2-z
1/2-x,1/2-y,1/2-z
1/2+x,1/2+y,1/2-z
1/2-x,1/2+y,1/2+z
1/2+x,1/2-y,1/2+z
loop_
_atom_site_type_symbol
_atom_site_label
_atom_site_fract_x
_atom_site_fract_y
_atom_site_fract_z
Si Si1 0.860567 0.666681 0.740694
Si Si2 0.051930 0.171450 0.283917
Si Si3 0.728175 0.829914 0.297396
Si Si4 0.146471 0.170408 0.558001
Si Si5 0.949474 0.826881 0.601743
Si Si6 0.299502 0.826980 0.856076
O O1 0.874962 0.500000 0.733460
O O2 0.908056 0.755776 0.750254
O O3 0.827886 0.686731 0.790509
O O4 0.833884 0.719396 0.689721
O O5 0.058358 0.229320 0.341172
O O6 0.000000 0.213712 0.264179
O O7 0.059276 0.000000 0.281122
O O8 0.750000 0.750000 0.250000
O O9 0.748765 0.749529 0.347039
O O10 0.742488 0.000000 0.297696
O O11 0.159793 0.196813 0.500000
O O12 0.093186 0.226122 0.566767
O O13 0.181220 0.266689 0.591239
O O14 0.151190 0.000000 0.572919
O O15 0.000000 0.767912 0.581534
O O16 0.951595 0.000000 0.602396
O O17 0.292512 0.000000 0.859106
#
# Coordination Sequence:
#
# PCOD8288183 Si02
#       6
#    16  16  16  16  16  16
#     4   9  17  27  40  59  78  98 124 156 195 236
#     4   9  16  25  39  57  76 102 133 162 194 231
#     4   9  17  28  42  61  81  98 122 155 194 238
#     4  10  19  29  43  60  75  98 131 167 210 250
#     4   8  14  25  39  55  73  94 126 168 209 244
#     4  10  19  30  42  57  77 101 128 160 201 242
#
# _framework density 13.853381000000001
#
# number of rings (size 3 to 8) (size 9 to 14) (size 15 to 20)
#    0.000    2.833    1.667    3.000    0.000    4.333 
#    0.000    1.667    0.000    0.500    0.000    1.167 
#    0.000    0.000    0.000    0.000    0.000    0.833 
#
# Total GULP energy -594789.435363 kJ/mol
# GULP energy per Si atom -12391.446570 kJ/mol
# Density = 1.382185 g / cm^3
# Si number density = 13.853381 Si / 1000 Ang^3
#
#
#
# Elastic Constant Matrix: (Units=GPa)
#
#
# Indices 1 2 3 4 5 6 
#
# 1 93.7454 48.5483 45.0850 0.0000 0.0000 0.0000
# 2 48.5483 61.1118 28.5940 0.0000 0.0000 0.0000
# 3 45.0850 28.5940 47.8725 0.0000 0.0000 0.0000
# 4 0.0000 0.0000 0.0000 16.6876 0.0000 0.0000
# 5 0.0000 0.0000 0.0000 0.0000 21.1718 0.0000
# 6 0.0000 0.0000 0.0000 0.0000 0.0000 22.8409
#
#
#
# Elastic Compliance Matrix: (Units=1/GPa)
#
#
# Indices 1 2 3 4 5 6 
#
# 1 0.024588 -0.012072 -0.015945 0.000000 0.000000 0.000000
# 2 -0.012072 0.028638 -0.005736 0.000000 0.000000 0.000000
# 3 -0.015945 -0.005736 0.039332 0.000000 0.000000 0.000000
# 4 0.000000 0.000000 0.000000 0.059925 0.000000 0.000000
# 5 0.000000 0.000000 0.000000 0.000000 0.047233 0.000000
# 6 0.000000 0.000000 0.000000 0.000000 0.000000 0.043781
#
#
# Mechanical properties :
#
#
# Convention : Reuss Voigt Hill
#
# Bulk Modulus (GPa) = 39.91985 49.68715 44.80350
# Shear Modulus (GPa) = 15.65671 17.50689 16.58180
#
# Velocity S-wave (km/s) = 3.36545 3.55875 3.46345
# Velocity P-wave (km/s) = 6.63176 7.26846 6.95740
#
# Compressibility (1/GPa) = 0.02505019
#
# Stress axis : x y z
#
# Youngs Moduli (GPa) = 40.67105 34.91923 25.42479
#
# Poissons Ratio (x) = 0.42154 0.40541
# Poissons Ratio (y) = 0.49098 0.14584
# Poissons Ratio (z) = 0.64851 0.20030
#
# Static dielectric constant tensor:
#      x y z
#    x 3.249300 0.000000 0.000000 
#    y 0.000000 2.659180 0.000000 
#    z 0.000000 0.000000 2.612850 
# 
# 
# High freq. dielectric constant tensor:
#      x y z
#    x 1.525330 0.000000 0.000000 
#    y 0.000000 1.524150 0.000000 
#    z 0.000000 0.000000 1.475360 
# 
# From -- ./inp_files/15431.got.cif
#   From: 2010.06.25/outbox.cif.g09.slc.cpg/sg71_8_cif.got.tgz:15431.got - 2010.06.28 04:59:45.
