data_PCOD8288437
_publ_section_title
;
Structure prediction by ZEFSAII (Michael W. Deem and Ramdas Pophale) SiO2 
 PCOD8288437
Probable space group: I M M M
;
_chemical_formula_sum "Si O2"
_cell_formula_units_Z 120
_cell_length_a 28.381871
_cell_length_b 28.302688
_cell_length_c 7.944133
_cell_angle_alpha 90.000000
_cell_angle_beta 90.000000
_cell_angle_gamma 90.000000
_cell_volume 6381.388893
_symmetry_space_group_name_H-M "I M M M"
_symmetry_group_IT_number 71
_symmetry_cell_setting 'orthorhombic'
loop_
_space_group_symop_operation_xyz
x,y,z
-x,-y,z
x,-y,-z
-x,y,-z
-x,-y,-z
x,y,-z
-x,y,z
x,-y,z
1/2+x,1/2+y,1/2+z
1/2-x,1/2-y,1/2+z
1/2+x,1/2-y,1/2-z
1/2-x,1/2+y,1/2-z
1/2-x,1/2-y,1/2-z
1/2+x,1/2+y,1/2-z
1/2-x,1/2+y,1/2+z
1/2+x,1/2-y,1/2+z
loop_
_atom_site_type_symbol
_atom_site_label
_atom_site_fract_x
_atom_site_fract_y
_atom_site_fract_z
Si Si1 0.638114 0.196575 0.307574
Si Si2 0.202470 0.224076 0.199295
Si Si3 0.394267 0.947542 0.197636
Si Si4 0.200763 0.117025 0.802276
Si Si5 0.193836 0.388865 0.694880
Si Si6 0.052767 0.055945 0.000000
Si Si7 0.116641 0.945304 0.690104
Si Si8 0.051605 0.640951 0.196180
O O1 0.625897 0.206184 0.500000
O O2 0.658122 0.245298 0.227853
O O3 0.679050 0.157346 0.298311
O O4 0.590088 0.176734 0.219068
O O5 0.250000 0.250000 0.250000
O O6 0.198377 0.170780 0.267707
O O7 0.200705 0.222910 0.000000
O O8 0.340725 0.932050 0.240768
O O9 0.432099 0.912979 0.281149
O O10 0.401822 0.000000 0.271229
O O11 0.402875 0.946706 0.000000
O O12 0.252735 0.096666 0.761597
O O13 0.164137 0.084873 0.702798
O O14 0.189349 0.114504 0.000000
O O15 0.189768 0.374564 0.500000
O O16 0.079238 0.073059 0.829626
O O17 0.000000 0.077728 0.000000
O O18 0.049441 0.000000 0.000000
O O19 0.096086 0.939206 0.500000
O O20 0.129103 0.000000 0.725454
O O21 0.000000 0.648489 0.279560
O O22 0.048295 0.651405 0.000000
#
# Coordination Sequence:
#
# PCOD8288437 Si02
#       8
#    16  16  16  16  16   8  16  16
#     4   9  17  30  47  68  95 125 157 211 263 308
#     4  10  19  30  48  75 103 134 171 216 263 317
#     4   9  18  31  45  65  93 123 162 210 258 308
#     4  10  19  31  49  74 108 147 181 216 262 324
#     4   9  17  29  46  67  93 130 171 207 250 315
#     4   9  18  36  62  86 110 142 180 226 273 315
#     4  10  21  36  55  83 116 149 187 225 267 324
#     4   9  18  32  49  67  88 121 164 207 256 308
#
# _framework density 18.804684000000002
#
# number of rings (size 3 to 8) (size 9 to 14) (size 15 to 20)
#    0.000    2.600    2.000    0.000    0.000    2.667 
#    0.000    4.000    0.000    0.800    0.000    0.000 
#    0.000    0.000    0.000    0.000    0.000    0.000 
#
# Total GULP energy -743557.804614 kJ/mol
# GULP energy per Si atom -12392.630077 kJ/mol
# Density = 1.876188 g / cm^3
# Si number density = 18.804684 Si / 1000 Ang^3
#
#
#
# Elastic Constant Matrix: (Units=GPa)
#
#
# Indices 1 2 3 4 5 6 
#
# 1 150.1345 56.6296 32.0841 0.0000 0.0000 0.0000
# 2 56.6296 84.5592 15.7833 0.0000 0.0000 0.0000
# 3 32.0841 15.7833 49.1863 0.0000 0.0000 0.0000
# 4 0.0000 0.0000 0.0000 14.5725 0.0000 0.0000
# 5 0.0000 0.0000 0.0000 0.0000 19.3849 0.0000
# 6 0.0000 0.0000 0.0000 0.0000 0.0000 15.1701
#
#
#
# Elastic Compliance Matrix: (Units=1/GPa)
#
#
# Indices 1 2 3 4 5 6 
#
# 1 0.009785 -0.005703 -0.004552 0.000000 0.000000 0.000000
# 2 -0.005703 0.015904 -0.001383 0.000000 0.000000 0.000000
# 3 -0.004552 -0.001383 0.023744 0.000000 0.000000 0.000000
# 4 0.000000 0.000000 0.000000 0.068623 0.000000 0.000000
# 5 0.000000 0.000000 0.000000 0.000000 0.051587 0.000000
# 6 0.000000 0.000000 0.000000 0.000000 0.000000 0.065919
#
#
# Mechanical properties :
#
#
# Convention : Reuss Voigt Hill
#
# Bulk Modulus (GPa) = 38.23350 54.76379 46.49865
# Shear Modulus (GPa) = 18.68760 21.78434 20.23597
#
# Velocity S-wave (km/s) = 3.15584 3.40730 3.28398
# Velocity P-wave (km/s) = 5.80130 6.68320 6.25781
#
# Compressibility (1/GPa) = 0.02615508
#
# Stress axis : x y z
#
# Youngs Moduli (GPa) = 102.19974 62.87871 42.11543
#
# Poissons Ratio (x) = 0.35861 0.19173
# Poissons Ratio (y) = 0.58286 0.05825
# Poissons Ratio (z) = 0.46526 0.08697
#
# Static dielectric constant tensor:
#      x y z
#    x 3.726530 0.000000 0.000000 
#    y 0.000000 3.501890 0.000000 
#    z 0.000000 0.000000 3.329110 
# 
# 
# High freq. dielectric constant tensor:
#      x y z
#    x 1.724230 0.000000 0.000000 
#    y 0.000000 1.710970 0.000000 
#    z 0.000000 0.000000 1.717220 
# 
# From -- ./inp_files/15684.got.cif
#   From: 2010.06.25/outbox.cif.g09.slc.cpg/sg71_8_cif.got.tgz:15684.got - 2010.06.28 04:59:45.
