data_PCOD8288892
_publ_section_title
;
Structure prediction by ZEFSAII (Michael W. Deem and Ramdas Pophale) SiO2 
 PCOD8288892
Probable space group: I M M M
;
_chemical_formula_sum "Si O2"
_cell_formula_units_Z 96
_cell_length_a 8.944600
_cell_length_b 23.168639
_cell_length_c 25.430877
_cell_angle_alpha 90.000000
_cell_angle_beta 90.000000
_cell_angle_gamma 90.000000
_cell_volume 5270.147664
_symmetry_space_group_name_H-M "I M M M"
_symmetry_group_IT_number 71
_symmetry_cell_setting 'orthorhombic'
loop_
_space_group_symop_operation_xyz
x,y,z
-x,-y,z
x,-y,-z
-x,y,-z
-x,-y,-z
x,y,-z
-x,y,z
x,-y,z
1/2+x,1/2+y,1/2+z
1/2-x,1/2-y,1/2+z
1/2+x,1/2-y,1/2-z
1/2-x,1/2+y,1/2-z
1/2-x,1/2-y,1/2-z
1/2+x,1/2+y,1/2-z
1/2-x,1/2+y,1/2+z
1/2+x,1/2-y,1/2+z
loop_
_atom_site_type_symbol
_atom_site_label
_atom_site_fract_x
_atom_site_fract_y
_atom_site_fract_z
Si Si1 0.823669 0.134210 0.153406
Si Si2 0.827935 0.700289 0.060050
Si Si3 0.677987 0.434350 0.755351
Si Si4 0.164644 0.260818 0.697570
Si Si5 0.835354 0.138474 0.646597
Si Si6 0.326764 0.176773 0.060060
O O1 0.761765 0.093492 0.200581
O O2 0.773111 0.199270 0.164024
O O3 0.749379 0.125604 0.095602
O O4 0.000000 0.127803 0.148485
O O5 0.768290 0.646252 0.095206
O O6 0.740650 0.759773 0.070058
O O7 0.000000 0.711806 0.074197
O O8 0.807863 0.680239 0.000000
O O9 0.500000 0.429085 0.755217
O O10 0.733977 0.500000 0.757141
O O11 0.738747 0.402008 0.807801
O O12 0.250000 0.250000 0.750000
O O13 0.142314 0.201176 0.669333
O O14 0.000000 0.288737 0.707087
O O15 0.000000 0.113952 0.630648
O O16 0.500000 0.181292 0.075531
O O17 0.302960 0.157505 0.000000
#
# Coordination Sequence:
#
# PCOD8288892 Si02
#       6
#    16  16  16  16  16  16
#     4  11  20  32  52  77 104 135 170 208 256 309
#     4  10  20  32  48  74 107 140 172 206 248 301
#     4   9  19  36  55  75 100 131 170 217 261 298
#     4  11  20  30  46  74 107 137 167 203 254 309
#     4  10  19  32  51  75 103 136 171 206 254 308
#     4  10  20  33  49  73 107 142 172 205 249 302
#
# _framework density 18.215809
#
# number of rings (size 3 to 8) (size 9 to 14) (size 15 to 20)
#    0.000    1.833    3.333    2.000    0.000    2.667 
#    0.000    0.000    0.000    5.500    0.000    7.000 
#    0.000    0.000    0.000    0.000    0.000    0.000 
#
# Total GULP energy -594723.593797 kJ/mol
# GULP energy per Si atom -12390.074871 kJ/mol
# Density = 1.817435 g / cm^3
# Si number density = 18.215809 Si / 1000 Ang^3
#
#
#
# Elastic Constant Matrix: (Units=GPa)
#
#
# Indices 1 2 3 4 5 6 
#
# 1 78.9562 22.5564 55.0674 0.0000 0.0000 0.0000
# 2 22.5564 74.1364 45.9879 0.0000 0.0000 0.0000
# 3 55.0674 45.9879 141.8472 0.0000 0.0000 0.0000
# 4 0.0000 0.0000 0.0000 13.4104 0.0000 0.0000
# 5 0.0000 0.0000 0.0000 0.0000 28.8436 0.0000
# 6 0.0000 0.0000 0.0000 0.0000 0.0000 13.8126
#
#
#
# Elastic Compliance Matrix: (Units=1/GPa)
#
#
# Indices 1 2 3 4 5 6 
#
# 1 0.017481 -0.001388 -0.006336 0.000000 0.000000 0.000000
# 2 -0.001388 0.016995 -0.004971 0.000000 0.000000 0.000000
# 3 -0.006336 -0.004971 0.011121 0.000000 0.000000 0.000000
# 4 0.000000 0.000000 0.000000 0.074569 0.000000 0.000000
# 5 0.000000 0.000000 0.000000 0.000000 0.034670 0.000000
# 6 0.000000 0.000000 0.000000 0.000000 0.000000 0.072397
#
#
# Mechanical properties :
#
#
# Convention : Reuss Voigt Hill
#
# Bulk Modulus (GPa) = 49.48996 60.24037 54.86517
# Shear Modulus (GPa) = 19.27829 22.63520 20.95675
#
# Velocity S-wave (km/s) = 3.25672 3.52890 3.39554
# Velocity P-wave (km/s) = 6.43190 7.05311 6.74965
#
# Compressibility (1/GPa) = 0.02020612
#
# Stress axis : x y z
#
# Youngs Moduli (GPa) = 57.20466 58.84256 89.91742
#
# Poissons Ratio (x) = 0.08168 0.56975
# Poissons Ratio (y) = 0.07941 0.44696
# Poissons Ratio (z) = 0.36247 0.29250
#
# Static dielectric constant tensor:
#      x y z
#    x 3.616560 0.000000 0.000000 
#    y 0.000000 3.040120 0.000000 
#    z 0.000000 0.000000 3.627190 
# 
# 
# High freq. dielectric constant tensor:
#      x y z
#    x 1.700230 0.000000 0.000000 
#    y 0.000000 1.650770 0.000000 
#    z 0.000000 0.000000 1.727620 
# 
# From -- ./inp_files/13114.got.cif
#   From: 2010.06.25/outbox.cif.g09.slc.cpg/sg71_7_cif.got.tgz:13114.got - 2010.06.28 04:59:45.
