data_PCOD8288854
_publ_section_title
;
Structure prediction by ZEFSAII (Michael W. Deem and Ramdas Pophale) SiO2 
 PCOD8288854
Probable space group: I M M M
;
_chemical_formula_sum "Si O2"
_cell_formula_units_Z 92
_cell_length_a 7.790397
_cell_length_b 28.269771
_cell_length_c 21.851206
_cell_angle_alpha 90.000000
_cell_angle_beta 90.000000
_cell_angle_gamma 90.000000
_cell_volume 4812.350952
_symmetry_space_group_name_H-M "I M M M"
_symmetry_group_IT_number 71
_symmetry_cell_setting 'orthorhombic'
loop_
_space_group_symop_operation_xyz
x,y,z
-x,-y,z
x,-y,-z
-x,y,-z
-x,-y,-z
x,y,-z
-x,y,z
x,-y,z
1/2+x,1/2+y,1/2+z
1/2-x,1/2-y,1/2+z
1/2+x,1/2-y,1/2-z
1/2-x,1/2+y,1/2-z
1/2-x,1/2-y,1/2-z
1/2+x,1/2+y,1/2-z
1/2-x,1/2+y,1/2+z
1/2+x,1/2-y,1/2+z
loop_
_atom_site_type_symbol
_atom_site_label
_atom_site_fract_x
_atom_site_fract_y
_atom_site_fract_z
Si Si1 0.000000 0.500000 0.252702
Si Si2 0.000000 0.400806 0.690244
Si Si3 0.195833 0.838807 0.766478
Si Si4 0.298695 0.314401 0.869614
Si Si5 0.187263 0.500000 0.133397
Si Si6 0.000000 0.348031 0.567391
Si Si7 0.198561 0.908140 0.567577
Si Si8 0.691520 0.712694 0.389076
O O1 0.000000 0.543593 0.298951
O O2 0.167730 0.500000 0.207648
O O3 0.172684 0.381184 0.721122
O O4 0.000000 0.389514 0.617747
O O5 0.243835 0.815603 0.702110
O O6 0.220844 0.798454 0.817417
O O7 0.000000 0.858731 0.766187
O O8 0.500000 0.310113 0.881172
O O9 0.219458 0.361489 0.901263
O O10 0.209824 0.268738 0.899232
O O11 0.282950 0.546892 0.111537
O O12 0.000000 0.500000 0.101940
O O13 0.830849 0.315594 0.571910
O O14 0.000000 0.371483 0.500000
O O15 0.280115 0.916875 0.500000
O O16 0.000000 0.898034 0.559844
O O17 0.500000 0.697298 0.409991
#
# Coordination Sequence:
#
# PCOD8288854 Si02
#       8
#     4   8  16  16   8   8  16  16
#     4  10  22  38  60  92 110 124 176 226 290 342
#     4  10  20  38  61  83 116 148 170 236 286 325
#     4   9  19  33  54  82 113 149 191 226 279 345
#     4  10  19  32  50  79 111 148 191 237 286 324
#     4  10  22  36  55  75 101 132 176 225 283 327
#     4  10  22  40  59  80 113 154 190 216 268 339
#     4  10  21  36  53  73 102 146 193 233 271 324
#     4  10  20  34  54  83 113 147 190 235 278 326
#
# _framework density 19.117474999999999
#
# number of rings (size 3 to 8) (size 9 to 14) (size 15 to 20)
#    0.261    1.913    0.870    2.087    1.217    3.130 
#    0.000    1.522    0.000    0.000    0.000    0.000 
#    0.000    5.565    0.000    0.000    0.000    0.000 
#
# Total GULP energy -570255.322915 kJ/mol
# GULP energy per Si atom -12396.854846 kJ/mol
# Density = 1.907396 g / cm^3
# Si number density = 19.117475 Si / 1000 Ang^3
#
#
#
# Elastic Constant Matrix: (Units=GPa)
#
#
# Indices 1 2 3 4 5 6 
#
# 1 75.5379 25.9419 29.4675 0.0000 0.0000 0.0000
# 2 25.9419 133.5911 43.2806 0.0000 0.0000 0.0000
# 3 29.4675 43.2806 102.6412 0.0000 0.0000 0.0000
# 4 0.0000 0.0000 0.0000 15.6013 0.0000 0.0000
# 5 0.0000 0.0000 0.0000 0.0000 14.4446 0.0000
# 6 0.0000 0.0000 0.0000 0.0000 0.0000 19.0060
#
#
#
# Elastic Compliance Matrix: (Units=1/GPa)
#
#
# Indices 1 2 3 4 5 6 
#
# 1 0.015269 -0.001789 -0.003629 0.000000 0.000000 0.000000
# 2 -0.001789 0.008880 -0.003231 0.000000 0.000000 0.000000
# 3 -0.003629 -0.003231 0.012147 0.000000 0.000000 0.000000
# 4 0.000000 0.000000 0.000000 0.064097 0.000000 0.000000
# 5 0.000000 0.000000 0.000000 0.000000 0.069230 0.000000
# 6 0.000000 0.000000 0.000000 0.000000 0.000000 0.052615
#
#
# Mechanical properties :
#
#
# Convention : Reuss Voigt Hill
#
# Bulk Modulus (GPa) = 52.63920 56.57225 54.60573
# Shear Modulus (GPa) = 20.33615 24.01571 22.17593
#
# Velocity S-wave (km/s) = 3.26505 3.54816 3.40955
# Velocity P-wave (km/s) = 6.46595 6.81484 6.64269
#
# Compressibility (1/GPa) = 0.01899725
#
# Stress axis : x y z
#
# Youngs Moduli (GPa) = 65.49403 112.61736 82.32643
#
# Poissons Ratio (x) = 0.20150 0.29876
# Poissons Ratio (y) = 0.11719 0.26596
# Poissons Ratio (z) = 0.23768 0.36382
#
# Static dielectric constant tensor:
#      x y z
#    x 3.524920 0.000000 0.000000 
#    y 0.000000 3.261140 0.000000 
#    z 0.000000 0.000000 3.519860 
# 
# 
# High freq. dielectric constant tensor:
#      x y z
#    x 1.744360 0.000000 0.000000 
#    y 0.000000 1.724270 0.000000 
#    z 0.000000 0.000000 1.735090 
# 
# From -- ./inp_files/50870.got.cif
#   From: 2010.06.25/outbox.cif.g09.slc.cpg/sg71_26_cif.got.tgz:50870.got - 2010.06.28 04:59:45.
