data_PCOD8288574
_publ_section_title
;
Structure prediction by ZEFSAII (Michael W. Deem and Ramdas Pophale) SiO2 
 PCOD8288574
Probable space group: I M M M
;
_chemical_formula_sum "Si O2"
_cell_formula_units_Z 96
_cell_length_a 18.737286
_cell_length_b 9.212154
_cell_length_c 31.634606
_cell_angle_alpha 90.000000
_cell_angle_beta 90.000000
_cell_angle_gamma 90.000000
_cell_volume 5460.473516
_symmetry_space_group_name_H-M "I M M M"
_symmetry_group_IT_number 71
_symmetry_cell_setting 'orthorhombic'
loop_
_space_group_symop_operation_xyz
x,y,z
-x,-y,z
x,-y,-z
-x,y,-z
-x,-y,-z
x,y,-z
-x,y,z
x,-y,z
1/2+x,1/2+y,1/2+z
1/2-x,1/2-y,1/2+z
1/2+x,1/2-y,1/2-z
1/2-x,1/2+y,1/2-z
1/2-x,1/2-y,1/2-z
1/2+x,1/2+y,1/2-z
1/2-x,1/2+y,1/2+z
1/2+x,1/2-y,1/2+z
loop_
_atom_site_type_symbol
_atom_site_label
_atom_site_fract_x
_atom_site_fract_y
_atom_site_fract_z
Si Si1 0.666324 0.669893 0.673058
Si Si2 0.419628 0.669268 0.589923
Si Si3 0.711233 0.671020 0.127872
Si Si4 0.918572 0.666705 0.340096
Si Si5 0.701286 0.832351 0.452812
Si Si6 0.918379 0.666996 0.241813
O O1 0.682508 0.500000 0.677659
O O2 0.609186 0.704016 0.636608
O O3 0.740101 0.750980 0.662991
O O4 0.634801 0.728941 0.716684
O O5 0.500000 0.729280 0.586909
O O6 0.416734 0.500000 0.580253
O O7 0.371954 0.746860 0.554769
O O8 0.713194 0.500000 0.135843
O O9 0.630994 0.729481 0.131858
O O10 0.738265 0.713272 0.080861
O O11 0.902115 0.500000 0.351362
O O12 0.903871 0.695162 0.290912
O O13 0.000000 0.705189 0.351415
O O14 0.729640 0.797507 0.500000
O O15 0.682226 0.000000 0.447345
O O16 0.902983 0.500000 0.229970
O O17 0.000000 0.706524 0.230655
#
# Coordination Sequence:
#
# PCOD8288574 Si02
#       6
#    16  16  16  16  16  16
#     4  10  19  31  48  70  99 135 171 205 240 278
#     4   9  18  31  46  68  99 132 166 203 240 277
#     4  10  20  34  53  75  97 124 160 200 242 289
#     4   9  19  36  55  74  98 127 157 194 243 293
#     4   9  19  35  52  71  96 125 158 197 241 288
#     4   9  18  32  49  70  98 132 168 204 241 280
#
# _framework density 17.580893
#
# number of rings (size 3 to 8) (size 9 to 14) (size 15 to 20)
#    0.000    2.667    0.000    2.500    0.000    5.000 
#    0.000    3.333    0.000    0.500    0.000    3.500 
#    0.000    0.000    0.000    0.000    0.000    0.000 
#
# Total GULP energy -595282.749761 kJ/mol
# GULP energy per Si atom -12401.723953 kJ/mol
# Density = 1.754088 g / cm^3
# Si number density = 17.580893 Si / 1000 Ang^3
#
#
#
# Elastic Constant Matrix: (Units=GPa)
#
#
# Indices 1 2 3 4 5 6 
#
# 1 121.2497 58.4879 55.5155 0.0000 0.0000 0.0000
# 2 58.4879 75.7183 39.5259 0.0000 0.0000 0.0000
# 3 55.5155 39.5259 67.6094 0.0000 0.0000 0.0000
# 4 0.0000 0.0000 0.0000 25.4262 0.0000 0.0000
# 5 0.0000 0.0000 0.0000 0.0000 16.7342 0.0000
# 6 0.0000 0.0000 0.0000 0.0000 0.0000 32.0619
#
#
#
# Elastic Compliance Matrix: (Units=1/GPa)
#
#
# Indices 1 2 3 4 5 6 
#
# 1 0.015928 -0.007881 -0.008471 0.000000 0.000000 0.000000
# 2 -0.007881 0.022907 -0.006921 0.000000 0.000000 0.000000
# 3 -0.008471 -0.006921 0.025793 0.000000 0.000000 0.000000
# 4 0.000000 0.000000 0.000000 0.039330 0.000000 0.000000
# 5 0.000000 0.000000 0.000000 0.000000 0.059758 0.000000
# 6 0.000000 0.000000 0.000000 0.000000 0.000000 0.031190
#
#
# Mechanical properties :
#
#
# Convention : Reuss Voigt Hill
#
# Bulk Modulus (GPa) = 55.30452 63.51511 59.40982
# Shear Modulus (GPa) = 20.20384 22.24766 21.22575
#
# Velocity S-wave (km/s) = 3.39365 3.56117 3.47842
# Velocity P-wave (km/s) = 6.84699 7.28800 7.07094
#
# Compressibility (1/GPa) = 0.01808170
#
# Stress axis : x y z
#
# Youngs Moduli (GPa) = 62.78367 43.65419 38.77088
#
# Poissons Ratio (x) = 0.34405 0.32843
# Poissons Ratio (y) = 0.49481 0.26832
# Poissons Ratio (z) = 0.53184 0.30212
#
# Static dielectric constant tensor:
#      x y z
#    x 3.252930 0.000000 0.000000 
#    y 0.000000 3.216580 0.000000 
#    z 0.000000 0.000000 3.166070 
# 
# 
# High freq. dielectric constant tensor:
#      x y z
#    x 1.674370 0.000000 0.000000 
#    y 0.000000 1.681740 0.000000 
#    z 0.000000 0.000000 1.664810 
# 
# From -- ./inp_files/66341.got.cif
#   From: 2010.06.25/outbox.cif.g09.slc.cpg/sg71_34_cif.got.tgz:66341.got - 2010.06.28 04:59:45.
