data_PCOD8288953
_publ_section_title
;
Structure prediction by ZEFSAII (Michael W. Deem and Ramdas Pophale) SiO2 
 PCOD8288953
Probable space group: I M M M
;
_chemical_formula_sum "Si O2"
_cell_formula_units_Z 96
_cell_length_a 23.360334
_cell_length_b 12.082361
_cell_length_c 18.179105
_cell_angle_alpha 90.000000
_cell_angle_beta 90.000000
_cell_angle_gamma 90.000000
_cell_volume 5131.015818
_symmetry_space_group_name_H-M "I M M M"
_symmetry_group_IT_number 71
_symmetry_cell_setting 'orthorhombic'
loop_
_space_group_symop_operation_xyz
x,y,z
-x,-y,z
x,-y,-z
-x,y,-z
-x,-y,-z
x,y,-z
-x,y,z
x,-y,z
1/2+x,1/2+y,1/2+z
1/2-x,1/2-y,1/2+z
1/2+x,1/2-y,1/2-z
1/2-x,1/2+y,1/2-z
1/2-x,1/2-y,1/2-z
1/2+x,1/2+y,1/2-z
1/2-x,1/2+y,1/2+z
1/2+x,1/2-y,1/2+z
loop_
_atom_site_type_symbol
_atom_site_label
_atom_site_fract_x
_atom_site_fract_y
_atom_site_fract_z
Si Si1 0.112727 0.752516 0.915632
Si Si2 0.398615 0.370501 0.918196
Si Si3 0.296914 0.286780 0.827732
Si Si4 0.178204 0.626087 0.205966
Si Si5 0.225221 0.876120 0.918581
Si Si6 0.500000 0.631387 0.819246
Si Si7 0.000000 0.865607 0.149276
O O1 0.138899 0.652400 0.865975
O O2 0.158321 0.850783 0.912530
O O3 0.054465 0.806732 0.886790
O O4 0.104498 0.709594 0.000000
O O5 0.408636 0.500000 0.924849
O O6 0.336374 0.348589 0.885685
O O7 0.445228 0.319419 0.862455
O O8 0.404254 0.317654 0.000000
O O9 0.247411 0.373478 0.805114
O O10 0.334294 0.227502 0.763195
O O11 0.264058 0.185903 0.862406
O O12 0.162225 0.500000 0.231059
O O13 0.233758 0.000000 0.894912
O O14 0.247938 0.850462 0.000000
O O15 0.500000 0.500000 0.821835
O O16 0.500000 0.668658 0.734888
O O17 0.000000 0.000000 0.137406
#
# Coordination Sequence:
#
# PCOD8288953 Si02
#       7
#    16  16  16  16  16   8   8
#     4  10  21  35  52  76 104 136 178 223 270 326
#     4  10  19  32  52  78 109 141 171 207 254 310
#     4  10  19  32  52  78 104 134 180 219 253 311
#     4  10  21  36  53  74 105 143 177 220 274 318
#     4   9  17  30  48  73 106 137 164 205 261 313
#     4   9  19  33  49  74 106 137 166 201 253 308
#     4  11  21  35  58  83 108 139 177 224 274 324
#
# _framework density 18.709745999999999
#
# number of rings (size 3 to 8) (size 9 to 14) (size 15 to 20)
#    0.000    2.167    0.000    3.500    0.000    3.333 
#    0.000    5.417    0.000    1.000    0.000    1.750 
#    0.000    8.000    0.000    0.000    0.000    0.000 
#
# Total GULP energy -594679.661173 kJ/mol
# GULP energy per Si atom -12389.159608 kJ/mol
# Density = 1.866716 g / cm^3
# Si number density = 18.709746 Si / 1000 Ang^3
#
#
#
# Elastic Constant Matrix: (Units=GPa)
#
#
# Indices 1 2 3 4 5 6 
#
# 1 83.8680 5.7820 44.4178 0.0000 0.0000 0.0000
# 2 5.7820 50.6119 9.9572 0.0000 0.0000 0.0000
# 3 44.4178 9.9572 131.0754 0.0000 0.0000 0.0000
# 4 0.0000 0.0000 0.0000 -61.8220 0.0000 0.0000
# 5 0.0000 0.0000 0.0000 0.0000 51.4634 0.0000
# 6 0.0000 0.0000 0.0000 0.0000 0.0000 2.1464
#
#
#
# Elastic Compliance Matrix: (Units=1/GPa)
#
#
# Indices 1 2 3 4 5 6 
#
# 1 0.014556 -0.000703 -0.004879 0.000000 0.000000 0.000000
# 2 -0.000703 0.020092 -0.001288 0.000000 0.000000 0.000000
# 3 -0.004879 -0.001288 0.009380 0.000000 0.000000 0.000000
# 4 0.000000 0.000000 0.000000 -0.016175 0.000000 0.000000
# 5 0.000000 0.000000 0.000000 0.000000 0.019431 0.000000
# 6 0.000000 0.000000 0.000000 0.000000 0.000000 0.465896
#
#
# Mechanical properties :
#
#
# Convention : Reuss Voigt Hill
#
# Bulk Modulus (GPa) = 33.01651 42.87437 37.94544
# Shear Modulus (GPa) = 9.31069 12.05077 10.68073
#
# Velocity S-wave (km/s) = 2.23320 2.54065 2.39187
# Velocity P-wave (km/s) = 4.93301 5.61888 5.28708
#
# Compressibility (1/GPa) = 0.03028788
#
# Stress axis : x y z
#
# Youngs Moduli (GPa) = 68.69980 49.77122 106.60431
#
# Poissons Ratio (x) = 0.03499 0.52015
# Poissons Ratio (y) = 0.04830 0.13731
# Poissons Ratio (z) = 0.33520 0.06411
#
# Static dielectric constant tensor:
#      x y z
#    x 3.694520 0.000000 0.000000 
#    y 0.000000 3.105840 0.000000 
#    z 0.000000 0.000000 3.823530 
# 
# 
# High freq. dielectric constant tensor:
#      x y z
#    x 1.720260 0.000000 0.000000 
#    y 0.000000 1.695500 0.000000 
#    z 0.000000 0.000000 1.746390 
# 
# From -- ./inp_files/54932.got.cif
#   From: 2010.06.25/outbox.cif.g09.slc.cpg/sg71_28_cif.got.tgz:54932.got - 2010.06.28 04:59:45.
