data_PCOD8288872
_publ_section_title
;
Structure prediction by ZEFSAII (Michael W. Deem and Ramdas Pophale) SiO2 
 PCOD8288872
Probable space group: I M M M
;
_chemical_formula_sum "Si O2"
_cell_formula_units_Z 88
_cell_length_a 21.197642
_cell_length_b 13.500782
_cell_length_c 17.157044
_cell_angle_alpha 90.000000
_cell_angle_beta 90.000000
_cell_angle_gamma 90.000000
_cell_volume 4910.084237
_symmetry_space_group_name_H-M "I M M M"
_symmetry_group_IT_number 71
_symmetry_cell_setting 'orthorhombic'
loop_
_space_group_symop_operation_xyz
x,y,z
-x,-y,z
x,-y,-z
-x,y,-z
-x,-y,-z
x,y,-z
-x,y,z
x,-y,z
1/2+x,1/2+y,1/2+z
1/2-x,1/2-y,1/2+z
1/2+x,1/2-y,1/2-z
1/2-x,1/2+y,1/2-z
1/2-x,1/2-y,1/2-z
1/2+x,1/2+y,1/2-z
1/2-x,1/2+y,1/2+z
1/2+x,1/2-y,1/2+z
loop_
_atom_site_type_symbol
_atom_site_label
_atom_site_fract_x
_atom_site_fract_y
_atom_site_fract_z
Si Si1 0.134423 0.383679 0.651092
Si Si2 0.430702 0.197448 0.592412
Si Si3 0.252359 0.772529 0.088434
Si Si4 0.000000 0.616879 0.588143
Si Si5 0.318861 0.888355 0.676976
Si Si6 0.867692 0.107572 0.908853
O O1 0.142559 0.500000 0.631589
O O2 0.177754 0.316419 0.595532
O O3 0.062335 0.349172 0.635738
O O4 0.156493 0.358007 0.738020
O O5 0.428449 0.197875 0.500000
O O6 0.500000 0.167704 0.623176
O O7 0.379801 0.118569 0.621285
O O8 0.413866 0.307583 0.624860
O O9 0.238020 0.681664 0.147387
O O10 0.204250 0.861347 0.108424
O O11 0.241995 0.734418 0.000000
O O12 0.000000 0.500000 0.581783
O O13 0.000000 0.661370 0.500000
O O14 0.292948 0.000000 0.675619
O O15 0.880507 0.000000 0.869249
O O16 0.879621 0.097466 0.000000
#
# Coordination Sequence:
#
# PCOD8288872 Si02
#       6
#    16  16  16   8  16  16
#     4  10  20  33  52  77 105 135 165 206 260 311
#     4   9  18  30  44  65  93 129 173 213 250 298
#     4  10  19  32  51  74 101 132 170 211 255 308
#     4   9  18  32  50  76 106 132 164 203 246 306
#     4  10  21  34  49  70 101 135 170 211 255 303
#     4   8  14  25  42  65  92 121 155 199 248 296
#
# _framework density 17.922298999999999
#
# number of rings (size 3 to 8) (size 9 to 14) (size 15 to 20)
#    0.000    2.636    0.000    3.273    1.273    4.000 
#    0.000    2.727    0.000    0.000    0.000    0.636 
#    0.000    2.182    0.000    0.000    0.000    0.000 
#
# Total GULP energy -545337.376390 kJ/mol
# GULP energy per Si atom -12394.031282 kJ/mol
# Density = 1.788151 g / cm^3
# Si number density = 17.922299 Si / 1000 Ang^3
#
#
#
# Elastic Constant Matrix: (Units=GPa)
#
#
# Indices 1 2 3 4 5 6 
#
# 1 105.4380 18.6776 28.1101 0.0000 0.0000 0.0000
# 2 18.6776 59.2806 32.0082 0.0000 0.0000 0.0000
# 3 28.1101 32.0082 65.0056 0.0000 0.0000 0.0000
# 4 0.0000 0.0000 0.0000 19.0968 0.0000 0.0000
# 5 0.0000 0.0000 0.0000 0.0000 23.3737 0.0000
# 6 0.0000 0.0000 0.0000 0.0000 0.0000 20.8628
#
#
#
# Elastic Compliance Matrix: (Units=1/GPa)
#
#
# Indices 1 2 3 4 5 6 
#
# 1 0.010782 -0.001198 -0.004073 0.000000 0.000000 0.000000
# 2 -0.001198 0.023111 -0.010862 0.000000 0.000000 0.000000
# 3 -0.004073 -0.010862 0.022492 0.000000 0.000000 0.000000
# 4 0.000000 0.000000 0.000000 0.052365 0.000000 0.000000
# 5 0.000000 0.000000 0.000000 0.000000 0.042783 0.000000
# 6 0.000000 0.000000 0.000000 0.000000 0.000000 0.047932
#
#
# Mechanical properties :
#
#
# Convention : Reuss Voigt Hill
#
# Bulk Modulus (GPa) = 41.45733 43.03513 42.24623
# Shear Modulus (GPa) = 20.85323 22.72854 21.79089
#
# Velocity S-wave (km/s) = 3.41476 3.56500 3.49069
# Velocity P-wave (km/s) = 6.22330 6.40389 6.31424
#
# Compressibility (1/GPa) = 0.02412119
#
# Stress axis : x y z
#
# Youngs Moduli (GPa) = 92.74504 43.26927 44.45928
#
# Poissons Ratio (x) = 0.05185 0.18106
# Poissons Ratio (y) = 0.11113 0.48290
# Poissons Ratio (z) = 0.37771 0.46997
#
# Static dielectric constant tensor:
#      x y z
#    x 3.439430 0.000000 0.000000 
#    y 0.000000 3.299620 0.000000 
#    z 0.000000 0.000000 3.201010 
# 
# 
# High freq. dielectric constant tensor:
#      x y z
#    x 1.689980 0.000000 0.000000 
#    y 0.000000 1.673280 0.000000 
#    z 0.000000 0.000000 1.675140 
# 
# From -- ./inp_files/37745.got.cif
#   From: 2010.06.25/outbox.cif.g09.slc.cpg/sg71_19_cif.got.tgz:37745.got - 2010.06.28 04:59:45.
