data_PCOD8288824
_publ_section_title
;
Structure prediction by ZEFSAII (Michael W. Deem and Ramdas Pophale) SiO2 
 PCOD8288824
Probable space group: I M M M
;
_chemical_formula_sum "Si O2"
_cell_formula_units_Z 112
_cell_length_a 23.484919
_cell_length_b 27.525285
_cell_length_c 9.626876
_cell_angle_alpha 90.000000
_cell_angle_beta 90.000000
_cell_angle_gamma 90.000000
_cell_volume 6223.092679
_symmetry_space_group_name_H-M "I M M M"
_symmetry_group_IT_number 71
_symmetry_cell_setting 'orthorhombic'
loop_
_space_group_symop_operation_xyz
x,y,z
-x,-y,z
x,-y,-z
-x,y,-z
-x,-y,-z
x,y,-z
-x,y,z
x,-y,z
1/2+x,1/2+y,1/2+z
1/2-x,1/2-y,1/2+z
1/2+x,1/2-y,1/2-z
1/2-x,1/2+y,1/2-z
1/2-x,1/2-y,1/2-z
1/2+x,1/2+y,1/2-z
1/2-x,1/2+y,1/2+z
1/2+x,1/2-y,1/2+z
loop_
_atom_site_type_symbol
_atom_site_label
_atom_site_fract_x
_atom_site_fract_y
_atom_site_fract_z
Si Si1 0.933153 0.367243 0.836616
Si Si2 0.773907 0.107309 0.665249
Si Si3 0.000000 0.212603 0.665110
Si Si4 0.500000 0.395067 0.166177
Si Si5 0.885972 0.054522 0.665489
Si Si6 0.713107 0.283070 0.843687
Si Si7 0.159603 0.555015 0.163876
Si Si8 0.599995 0.222357 0.841736
O O1 0.899186 0.416847 0.798873
O O2 0.898987 0.325169 0.754972
O O3 0.000000 0.371767 0.791998
O O4 0.928451 0.356116 0.000000
O O5 0.773743 0.105069 0.500000
O O6 0.828519 0.078713 0.724830
O O7 0.782964 0.162464 0.716652
O O8 0.715127 0.083725 0.723851
O O9 0.947497 0.242933 0.721041
O O10 0.000000 0.208438 0.500000
O O11 0.000000 0.159004 0.728482
O O12 0.557026 0.420302 0.224031
O O13 0.500000 0.396009 0.000000
O O14 0.885909 0.057255 0.500000
O O15 0.886701 0.000000 0.720403
O O16 0.750000 0.250000 0.750000
O O17 0.652162 0.258760 0.836226
O O18 0.736864 0.283287 0.000000
O O19 0.156831 0.500000 0.225556
O O20 0.166584 0.551753 0.000000
O O21 0.588399 0.204953 0.000000
#
# Coordination Sequence:
#
# PCOD8288824 Si02
#       8
#    16  16   8   8  16  16  16  16
#     4  10  20  33  50  73  99 126 158 202 254 298
#     4   9  16  27  42  62  89 121 157 195 234 280
#     4   9  16  27  43  62  86 120 160 197 228 271
#     4   9  15  22  33  53  83 118 155 192 228 271
#     4   9  15  22  34  54  83 118 153 189 230 276
#     4  10  20  32  48  71  98 129 162 197 239 285
#     4   9  17  29  46  67  91 121 157 198 244 293
#     4  10  19  32  50  71  96 130 168 199 235 289
#
# _framework density 17.997482000000002
#
# number of rings (size 3 to 8) (size 9 to 14) (size 15 to 20)
#    0.000    2.571    0.714    2.357    0.000    8.000 
#    0.000    1.429    0.000    0.429    0.000    1.000 
#    0.000    1.714    0.000    0.571    0.000   11.857 
#
# Total GULP energy -693934.671856 kJ/mol
# GULP energy per Si atom -12391.690569 kJ/mol
# Density = 1.795652 g / cm^3
# Si number density = 17.997482 Si / 1000 Ang^3
#
#
#
# Elastic Constant Matrix: (Units=GPa)
#
#
# Indices 1 2 3 4 5 6 
#
# 1 105.7228 65.0619 18.6364 0.0000 0.0000 0.0000
# 2 65.0619 171.3081 29.5178 0.0000 0.0000 0.0000
# 3 18.6364 29.5178 21.5402 0.0000 0.0000 0.0000
# 4 0.0000 0.0000 0.0000 18.4445 0.0000 0.0000
# 5 0.0000 0.0000 0.0000 0.0000 14.7770 0.0000
# 6 0.0000 0.0000 0.0000 0.0000 0.0000 70.2532
#
#
#
# Elastic Compliance Matrix: (Units=1/GPa)
#
#
# Indices 1 2 3 4 5 6 
#
# 1 0.012876 -0.003889 -0.005811 0.000000 0.000000 0.000000
# 2 -0.003889 0.008816 -0.008717 0.000000 0.000000 0.000000
# 3 -0.005811 -0.008717 0.063398 0.000000 0.000000 0.000000
# 4 0.000000 0.000000 0.000000 0.054217 0.000000 0.000000
# 5 0.000000 0.000000 0.000000 0.000000 0.067673 0.000000
# 6 0.000000 0.000000 0.000000 0.000000 0.000000 0.014234
#
#
# Mechanical properties :
#
#
# Convention : Reuss Voigt Hill
#
# Bulk Modulus (GPa) = 20.72258 58.33369 39.52814
# Shear Modulus (GPa) = 18.23921 33.05192 25.64557
#
# Velocity S-wave (km/s) = 3.18690 4.29006 3.77895
# Velocity P-wave (km/s) = 5.00808 7.55129 6.40714
#
# Compressibility (1/GPa) = 0.04825653
#
# Stress axis : x y z
#
# Youngs Moduli (GPa) = 77.66144 113.42377 15.77339
#
# Poissons Ratio (x) = 0.44112 0.09166
# Poissons Ratio (y) = 0.30203 0.13750
# Poissons Ratio (z) = 0.45130 0.98871
#
# Static dielectric constant tensor:
#      x y z
#    x 3.383940 0.000000 0.000000 
#    y 0.000000 2.524470 0.000000 
#    z 0.000000 0.000000 2.728410 
# 
# 
# High freq. dielectric constant tensor:
#      x y z
#    x 1.715550 0.000000 0.000000 
#    y 0.000000 1.713250 0.000000 
#    z 0.000000 0.000000 1.619290 
# 
# From -- ./inp_files/27853.got.cif
#   From: 2010.06.25/outbox.cif.g09.slc.cpg/sg71_14_cif.got.tgz:27853.got - 2010.06.28 04:59:45.
