data_PCOD8288607
_publ_section_title
;
Structure prediction by ZEFSAII (Michael W. Deem and Ramdas Pophale) SiO2 
 PCOD8288607
Probable space group: I M M M
;
_chemical_formula_sum "Si O2"
_cell_formula_units_Z 104
_cell_length_a 9.167869
_cell_length_b 32.222633
_cell_length_c 19.928736
_cell_angle_alpha 90.000000
_cell_angle_beta 90.000000
_cell_angle_gamma 90.000000
_cell_volume 5887.205260
_symmetry_space_group_name_H-M "I M M M"
_symmetry_group_IT_number 71
_symmetry_cell_setting 'orthorhombic'
loop_
_space_group_symop_operation_xyz
x,y,z
-x,-y,z
x,-y,-z
-x,y,-z
-x,-y,-z
x,y,-z
-x,y,z
x,-y,z
1/2+x,1/2+y,1/2+z
1/2-x,1/2-y,1/2+z
1/2+x,1/2-y,1/2-z
1/2-x,1/2+y,1/2-z
1/2-x,1/2-y,1/2-z
1/2+x,1/2+y,1/2-z
1/2-x,1/2+y,1/2+z
1/2+x,1/2-y,1/2+z
loop_
_atom_site_type_symbol
_atom_site_label
_atom_site_fract_x
_atom_site_fract_y
_atom_site_fract_z
Si Si1 0.332295 0.154884 0.685072
Si Si2 0.170763 0.135774 0.179502
Si Si3 0.342178 0.500000 0.922874
Si Si4 0.833713 0.562365 0.846331
Si Si5 0.170704 0.276985 0.923356
Si Si6 0.334311 0.454813 0.715214
Si Si7 0.168374 0.692522 0.422007
O O1 0.500000 0.162299 0.707015
O O2 0.232890 0.155220 0.751420
O O3 0.314334 0.111426 0.647324
O O4 0.280075 0.188534 0.630466
O O5 0.201454 0.086139 0.171223
O O6 0.251285 0.155945 0.116961
O O7 0.000000 0.146047 0.176892
O O8 0.500000 0.500000 0.885785
O O9 0.254484 0.458379 0.906154
O O10 0.371072 0.500000 0.000000
O O11 0.774364 0.544372 0.777056
O O12 0.000000 0.548707 0.852072
O O13 0.259299 0.236189 0.903434
O O14 0.000000 0.267228 0.916808
O O15 0.207533 0.291098 0.000000
O O16 0.500000 0.450246 0.741472
O O17 0.315732 0.500000 0.677538
O O18 0.187353 0.682455 0.500000
O O19 0.000000 0.694271 0.400607
#
# Coordination Sequence:
#
# PCOD8288607 Si02
#       7
#    16  16   8  16  16  16  16
#     4   9  19  34  52  77 108 136 167 214 265 309
#     4  10  20  33  53  81 107 136 174 211 254 308
#     4  11  23  35  45  61  91 133 176 215 258 305
#     4  10  19  31  49  72  96 126 166 211 257 303
#     4   9  18  34  55  76 100 136 178 215 258 312
#     4   9  17  31  52  75 102 133 163 201 249 302
#     4  10  21  37  56  77 103 135 170 212 261 311
#
# _framework density 17.665427999999999
#
# number of rings (size 3 to 8) (size 9 to 14) (size 15 to 20)
#    0.000    2.385    0.769    1.615    0.000    4.615 
#    0.000    1.538    0.000    2.308    0.000    3.231 
#    0.000    0.000    0.000    0.000    0.000    0.000 
#
# Total GULP energy -644567.745634 kJ/mol
# GULP energy per Si atom -12395.533570 kJ/mol
# Density = 1.762522 g / cm^3
# Si number density = 17.665428 Si / 1000 Ang^3
#
#
#
# Elastic Constant Matrix: (Units=GPa)
#
#
# Indices 1 2 3 4 5 6 
#
# 1 109.9303 63.6732 45.6339 0.0001 0.0000 0.0000
# 2 63.6732 142.2830 64.2834 0.0001 0.0000 0.0000
# 3 45.6339 64.2834 67.4259 0.0004 0.0001 0.0000
# 4 0.0001 0.0001 0.0004 29.0128 0.0000 0.0000
# 5 0.0000 0.0000 0.0001 0.0000 26.4450 0.0001
# 6 0.0000 0.0000 0.0000 0.0000 0.0001 25.5920
#
#
#
# Elastic Compliance Matrix: (Units=1/GPa)
#
#
# Indices 1 2 3 4 5 6 
#
# 1 0.013509 -0.003363 -0.005936 0.000000 0.000000 0.000000
# 2 -0.003363 0.013184 -0.010293 0.000000 0.000000 0.000000
# 3 -0.005936 -0.010293 0.028662 0.000000 0.000000 0.000000
# 4 0.000000 0.000000 0.000000 0.034468 0.000000 0.000000
# 5 0.000000 0.000000 0.000000 0.000000 0.037814 0.000000
# 6 0.000000 0.000000 0.000000 0.000000 0.000000 0.039075
#
#
# Mechanical properties :
#
#
# Convention : Reuss Voigt Hill
#
# Bulk Modulus (GPa) = 61.84472 74.09114 67.96793
# Shear Modulus (GPa) = 23.66455 25.94653 24.80554
#
# Velocity S-wave (km/s) = 3.66402 3.83662 3.75131
# Velocity P-wave (km/s) = 7.27908 7.85230 7.57111
#
# Compressibility (1/GPa) = 0.01616953
#
# Stress axis : x y z
#
# Youngs Moduli (GPa) = 74.02430 75.85090 34.88948
#
# Poissons Ratio (x) = 0.25512 0.20711
# Poissons Ratio (y) = 0.24898 0.35911
# Poissons Ratio (z) = 0.43943 0.78073
#
# Static dielectric constant tensor:
#      x y z
#    x 3.475150 0.000000 0.000000 
#    y 0.000000 3.700570 0.000000 
#    z 0.000000 0.000000 3.022080 
# 
# 
# High freq. dielectric constant tensor:
#      x y z
#    x 1.695570 0.000000 0.000000 
#    y 0.000000 1.693040 0.000000 
#    z 0.000000 0.000000 1.653500 
# 
# From -- ./inp_files/51134.got.cif
#   From: 2010.06.25/outbox.cif.g09.slc.cpg/sg71_26_cif.got.tgz:51134.got - 2010.06.28 04:59:45.
