data_PCOD8288967
_publ_section_title
;
Structure prediction by ZEFSAII (Michael W. Deem and Ramdas Pophale) SiO2 
 PCOD8288967
Probable space group: I M M M
;
_chemical_formula_sum "Si O2"
_cell_formula_units_Z 80
_cell_length_a 10.958155
_cell_length_b 23.626769
_cell_length_c 17.218566
_cell_angle_alpha 90.000000
_cell_angle_beta 90.000000
_cell_angle_gamma 90.000000
_cell_volume 4457.986551
_symmetry_space_group_name_H-M "I M M M"
_symmetry_group_IT_number 71
_symmetry_cell_setting 'orthorhombic'
loop_
_space_group_symop_operation_xyz
x,y,z
-x,-y,z
x,-y,-z
-x,y,-z
-x,-y,-z
x,y,-z
-x,y,z
x,-y,z
1/2+x,1/2+y,1/2+z
1/2-x,1/2-y,1/2+z
1/2+x,1/2-y,1/2-z
1/2-x,1/2+y,1/2-z
1/2-x,1/2-y,1/2-z
1/2+x,1/2+y,1/2-z
1/2-x,1/2+y,1/2+z
1/2+x,1/2-y,1/2+z
loop_
_atom_site_type_symbol
_atom_site_label
_atom_site_fract_x
_atom_site_fract_y
_atom_site_fract_z
Si Si1 0.270472 0.932819 0.813547
Si Si2 0.859537 0.850100 0.084674
Si Si3 0.360816 0.882925 0.342381
Si Si4 0.854942 0.563798 0.000000
Si Si5 0.858663 0.253727 0.811607
Si Si6 0.500000 0.066988 0.086926
O O1 0.159032 0.903345 0.857759
O O2 0.280403 0.908741 0.726876
O O3 0.384813 0.911960 0.864497
O O4 0.253039 0.000000 0.811518
O O5 0.818175 0.791295 0.123534
O O6 0.000000 0.846547 0.068012
O O7 0.793990 0.857649 0.000000
O O8 0.500000 0.904049 0.330253
O O9 0.304650 0.905972 0.422736
O O10 0.354289 0.815698 0.348187
O O11 0.806686 0.500000 0.000000
O O12 0.000000 0.567238 0.000000
O O13 0.750000 0.250000 0.750000
O O14 0.000000 0.242208 0.781104
O O15 0.500000 0.000000 0.081315
O O16 0.500000 0.093107 0.000000
#
# Coordination Sequence:
#
# PCOD8288967 Si02
#       6
#    16  16  16   8  16   8
#     4  11  20  32  52  76 106 144 180 217 269 326
#     4  10  22  38  55  77 107 143 184 229 271 317
#     4  10  19  32  52  79 109 142 178 223 274 329
#     4   9  18  30  48  78 113 141 172 220 277 328
#     4  10  20  36  58  81 107 141 184 229 274 323
#     4   9  18  30  46  71 103 137 173 214 262 321
#
# _framework density 17.945321
#
# number of rings (size 3 to 8) (size 9 to 14) (size 15 to 20)
#    0.000    2.000    3.000    1.200    1.400    2.400 
#    0.000    1.000    0.000    0.000    0.000    2.100 
#    0.000    4.800    0.000    0.000    0.000    0.000 
#
# Total GULP energy -495742.430767 kJ/mol
# GULP energy per Si atom -12393.560769 kJ/mol
# Density = 1.790448 g / cm^3
# Si number density = 17.945321 Si / 1000 Ang^3
#
#
#
# Elastic Constant Matrix: (Units=GPa)
#
#
# Indices 1 2 3 4 5 6 
#
# 1 33.3094 15.9678 30.5353 0.0000 0.0000 0.0000
# 2 15.9678 116.4663 58.0907 0.0000 0.0000 0.0000
# 3 30.5353 58.0907 164.2366 0.0001 0.0000 0.0000
# 4 0.0000 0.0000 0.0001 30.4497 0.0000 0.0000
# 5 0.0000 0.0000 0.0000 0.0000 21.3872 0.0000
# 6 0.0000 0.0000 0.0000 0.0000 0.0000 23.4675
#
#
#
# Elastic Compliance Matrix: (Units=1/GPa)
#
#
# Indices 1 2 3 4 5 6 
#
# 1 0.036558 -0.001969 -0.006100 0.000000 0.000000 0.000000
# 2 -0.001969 0.010531 -0.003359 0.000000 0.000000 0.000000
# 3 -0.006100 -0.003359 0.008411 0.000000 0.000000 0.000000
# 4 0.000000 0.000000 0.000000 0.032841 0.000000 0.000000
# 5 0.000000 0.000000 0.000000 0.000000 0.046757 0.000000
# 6 0.000000 0.000000 0.000000 0.000000 0.000000 0.042612
#
#
# Mechanical properties :
#
#
# Convention : Reuss Voigt Hill
#
# Bulk Modulus (GPa) = 30.63427 58.13330 44.38379
# Shear Modulus (GPa) = 23.64638 29.02213 26.33425
#
# Velocity S-wave (km/s) = 3.63394 4.02587 3.83492
# Velocity P-wave (km/s) = 5.89197 7.35358 6.66298
#
# Compressibility (1/GPa) = 0.03264318
#
# Stress axis : x y z
#
# Youngs Moduli (GPa) = 27.35382 94.95329 118.89210
#
# Poissons Ratio (x) = 0.18701 0.72528
# Poissons Ratio (y) = 0.05387 0.39934
# Poissons Ratio (z) = 0.16687 0.31893
#
# Static dielectric constant tensor:
#      x y z
#    x 3.158160 0.000000 0.000000 
#    y 0.000000 3.392410 0.000000 
#    z 0.000000 0.000000 1.936750 
# 
# 
# High freq. dielectric constant tensor:
#      x y z
#    x 1.658830 0.000000 0.000000 
#    y 0.000000 1.700860 0.000000 
#    z 0.000000 0.000000 1.705470 
# 
# From -- ./inp_files/27112.got.cif
#   From: 2010.06.25/outbox.cif.g09.slc.cpg/sg71_14_cif.got.tgz:27112.got - 2010.06.28 04:59:45.
