data_PCOD8288662
_publ_section_title
;
Structure prediction by ZEFSAII (Michael W. Deem and Ramdas Pophale) SiO2 
 PCOD8288662
Probable space group: I M M M
;
_chemical_formula_sum "Si O2"
_cell_formula_units_Z 96
_cell_length_a 8.950695
_cell_length_b 19.470246
_cell_length_c 30.990103
_cell_angle_alpha 90.000000
_cell_angle_beta 90.000000
_cell_angle_gamma 90.000000
_cell_volume 5400.714467
_symmetry_space_group_name_H-M "I M M M"
_symmetry_group_IT_number 71
_symmetry_cell_setting 'orthorhombic'
loop_
_space_group_symop_operation_xyz
x,y,z
-x,-y,z
x,-y,-z
-x,y,-z
-x,-y,-z
x,y,-z
-x,y,z
x,-y,z
1/2+x,1/2+y,1/2+z
1/2-x,1/2-y,1/2+z
1/2+x,1/2-y,1/2-z
1/2-x,1/2+y,1/2-z
1/2-x,1/2-y,1/2-z
1/2+x,1/2+y,1/2-z
1/2-x,1/2+y,1/2+z
1/2+x,1/2-y,1/2+z
loop_
_atom_site_type_symbol
_atom_site_label
_atom_site_fract_x
_atom_site_fract_y
_atom_site_fract_z
Si Si1 0.828790 0.920984 0.204116
Si Si2 0.177887 0.324435 0.637428
Si Si3 0.170395 0.920281 0.303654
Si Si4 0.174940 0.321248 0.132440
Si Si5 0.166935 0.335883 0.545477
Si Si6 0.832916 0.172782 0.547174
O O1 0.720557 0.874375 0.175916
O O2 0.800158 0.902640 0.253783
O O3 0.000000 0.905948 0.191631
O O4 0.789088 0.000000 0.195109
O O5 0.245879 0.249625 0.645343
O O6 0.239578 0.357352 0.591585
O O7 0.000000 0.316295 0.634967
O O8 0.285532 0.876988 0.331635
O O9 0.000000 0.901526 0.315953
O O10 0.201039 0.000000 0.312434
O O11 0.225488 0.351316 0.085845
O O12 0.000000 0.308248 0.131582
O O13 0.248767 0.359289 0.500000
O O14 0.162271 0.254293 0.546650
O O15 0.000000 0.365881 0.543369
O O16 0.775779 0.146319 0.500000
O O17 0.000000 0.144238 0.555719
#
# Coordination Sequence:
#
# PCOD8288662 Si02
#       6
#    16  16  16  16  16  16
#     4   9  19  36  55  73  95 125 161 204 255 305
#     4  10  19  31  50  75 101 130 166 205 244 290
#     4   9  19  37  57  72  91 126 168 204 244 301
#     4  11  21  31  48  76 107 133 160 202 251 291
#     4   7  11  22  41  65  92 122 157 195 231 269
#     4   8  14  27  47  69  96 131 167 200 236 285
#
# _framework density 17.775426
#
# number of rings (size 3 to 8) (size 9 to 14) (size 15 to 20)
#    0.000    3.000    0.000    5.000    0.000    2.333 
#    0.000    1.667    0.000    2.500    0.000    7.000 
#    0.000    0.000    0.000    0.000    0.000    0.000 
#
# Total GULP energy -594629.261468 kJ/mol
# GULP energy per Si atom -12388.109614 kJ/mol
# Density = 1.773497 g / cm^3
# Si number density = 17.775426 Si / 1000 Ang^3
#
#
#
# Elastic Constant Matrix: (Units=GPa)
#
#
# Indices 1 2 3 4 5 6 
#
# 1 83.1535 32.6134 53.5167 0.0000 0.0000 0.0000
# 2 32.6134 48.9645 53.6978 0.0000 0.0000 0.0000
# 3 53.5167 53.6978 132.2003 0.0000 0.0000 0.0000
# 4 0.0000 0.0000 0.0000 -5.8902 0.0000 0.0000
# 5 0.0000 0.0000 0.0000 0.0000 28.3065 0.0000
# 6 0.0000 0.0000 0.0000 0.0000 0.0000 23.3586
#
#
#
# Elastic Compliance Matrix: (Units=1/GPa)
#
#
# Indices 1 2 3 4 5 6 
#
# 1 0.017503 -0.007010 -0.004238 0.000000 0.000000 0.000000
# 2 -0.007010 0.039636 -0.013262 0.000000 0.000000 0.000000
# 3 -0.004238 -0.013262 0.014667 0.000000 0.000000 0.000000
# 4 0.000000 0.000000 0.000000 -0.169773 0.000000 0.000000
# 5 0.000000 0.000000 0.000000 0.000000 0.035328 0.000000
# 6 0.000000 0.000000 0.000000 0.000000 0.000000 0.042811
#
#
# Mechanical properties :
#
#
# Convention : Reuss Voigt Hill
#
# Bulk Modulus (GPa) = 43.88762 60.44156 52.16459
# Shear Modulus (GPa) = 135.92319 17.45435 76.68877
#
# Velocity S-wave (km/s) = 8.75402 3.13699 6.57547
# Velocity P-wave (km/s) = 11.26592 6.87005 9.33055
#
# Compressibility (1/GPa) = 0.02278547
#
# Stress axis : x y z
#
# Youngs Moduli (GPa) = 57.13302 25.22963 68.18250
#
# Poissons Ratio (x) = 0.17687 0.28895
# Poissons Ratio (y) = 0.40053 0.90421
# Poissons Ratio (z) = 0.24213 0.33458
#
# Static dielectric constant tensor:
#      x y z
#    x 3.080870 0.000000 0.000000 
#    y 0.000000 2.843650 0.000000 
#    z 0.000000 0.000000 3.974950 
# 
# 
# High freq. dielectric constant tensor:
#      x y z
#    x 1.664550 0.000000 0.000000 
#    y 0.000000 1.641900 0.000000 
#    z 0.000000 0.000000 1.713100 
# 
# From -- ./inp_files/14862.got.cif
#   From: 2010.06.25/outbox.cif.g09.slc.cpg/sg71_8_cif.got.tgz:14862.got - 2010.06.28 04:59:45.
