data_PCOD8288128
_publ_section_title
;
Structure prediction by ZEFSAII (Michael W. Deem and Ramdas Pophale) SiO2 
 PCOD8288128
Probable space group: I M M M
;
_chemical_formula_sum "Si O2"
_cell_formula_units_Z 112
_cell_length_a 24.813612
_cell_length_b 14.755450
_cell_length_c 19.297989
_cell_angle_alpha 90.000000
_cell_angle_beta 90.000000
_cell_angle_gamma 90.000000
_cell_volume 7065.688716
_symmetry_space_group_name_H-M "I M M M"
_symmetry_group_IT_number 71
_symmetry_cell_setting 'orthorhombic'
loop_
_space_group_symop_operation_xyz
x,y,z
-x,-y,z
x,-y,-z
-x,y,-z
-x,-y,-z
x,y,-z
-x,y,z
x,-y,z
1/2+x,1/2+y,1/2+z
1/2-x,1/2-y,1/2+z
1/2+x,1/2-y,1/2-z
1/2-x,1/2+y,1/2-z
1/2-x,1/2-y,1/2-z
1/2+x,1/2+y,1/2-z
1/2-x,1/2+y,1/2+z
1/2+x,1/2-y,1/2+z
loop_
_atom_site_type_symbol
_atom_site_label
_atom_site_fract_x
_atom_site_fract_y
_atom_site_fract_z
Si Si1 0.904503 0.392413 0.171115
Si Si2 0.715805 0.106617 0.667493
Si Si3 0.000000 0.608308 0.077550
Si Si4 0.089823 0.600043 0.323652
Si Si5 0.588907 0.260016 0.080270
Si Si6 0.285465 0.262596 0.918819
Si Si7 0.000000 0.100747 0.581905
Si Si8 0.282475 0.900236 0.176382
O O1 0.900923 0.500000 0.168470
O O2 0.844694 0.354052 0.156129
O O3 0.926351 0.364749 0.247142
O O4 0.946417 0.353851 0.114889
O O5 0.754828 0.151030 0.611315
O O6 0.735499 0.128598 0.745922
O O7 0.717369 0.000000 0.653923
O O8 0.000000 0.500000 0.079240
O O9 0.000000 0.646420 0.000000
O O10 0.065179 0.500000 0.338958
O O11 0.067882 0.671088 0.379600
O O12 0.153724 0.592748 0.326200
O O13 0.651430 0.279340 0.095670
O O14 0.553859 0.345920 0.105663
O O15 0.578635 0.239761 0.000000
O O16 0.262872 0.173162 0.879795
O O17 0.273451 0.251639 0.000000
O O18 0.000000 0.091174 0.500000
O O19 0.000000 0.000000 0.615578
O O20 0.258420 0.000000 0.158021
#
# Coordination Sequence:
#
# PCOD8288128 Si02
#       8
#    16  16   8  16  16  16   8  16
#     4   8  15  27  41  59  83 112 143 166 193 242
#     4   9  17  29  44  61  85 116 144 172 208 251
#     4   9  16  25  38  56  79 108 140 170 195 228
#     4   8  14  26  44  64  86 110 134 166 208 251
#     4   9  18  30  43  62  83 105 140 176 209 254
#     4  10  19  28  42  66  90 109 135 178 223 258
#     4   9  18  33  47  53  69 108 147 177 208 241
#     4   8  15  29  46  61  81 114 149 173 203 255
#
# _framework density 15.85125
#
# number of rings (size 3 to 8) (size 9 to 14) (size 15 to 20)
#    0.000    3.286    0.000    2.143    0.000    2.571 
#    0.000    6.786    0.000    1.286    0.000    0.000 
#    0.000    0.000    0.000    0.000    0.000    5.786 
#
# Total GULP energy -694052.054692 kJ/mol
# GULP energy per Si atom -12393.786691 kJ/mol
# Density = 1.581517 g / cm^3
# Si number density = 15.851250 Si / 1000 Ang^3
#
#
#
# Elastic Constant Matrix: (Units=GPa)
#
#
# Indices 1 2 3 4 5 6 
#
# 1 63.9214 38.6795 46.9615 0.0000 0.0000 0.0000
# 2 38.6795 84.1725 54.4245 0.0000 0.0000 0.0000
# 3 46.9615 54.4245 105.2722 0.0000 0.0000 0.0000
# 4 0.0000 0.0000 0.0000 23.5608 0.0000 0.0000
# 5 0.0000 0.0000 0.0000 0.0000 21.0314 0.0000
# 6 0.0000 0.0000 0.0000 0.0000 0.0000 17.1183
#
#
#
# Elastic Compliance Matrix: (Units=1/GPa)
#
#
# Indices 1 2 3 4 5 6 
#
# 1 0.025464 -0.006544 -0.007976 0.000000 0.000000 0.000000
# 2 -0.006544 0.019528 -0.007176 0.000000 0.000000 0.000000
# 3 -0.007976 -0.007176 0.016767 0.000000 0.000000 0.000000
# 4 0.000000 0.000000 0.000000 0.042443 0.000000 0.000000
# 5 0.000000 0.000000 0.000000 0.000000 0.047548 0.000000
# 6 0.000000 0.000000 0.000000 0.000000 0.000000 0.058417
#
#
# Mechanical properties :
#
#
# Convention : Reuss Voigt Hill
#
# Bulk Modulus (GPa) = 54.44870 59.27747 56.86309
# Shear Modulus (GPa) = 19.25429 19.89547 19.57488
#
# Velocity S-wave (km/s) = 3.48902 3.54663 3.51794
# Velocity P-wave (km/s) = 7.11726 7.36537 7.24238
#
# Compressibility (1/GPa) = 0.01836591
#
# Stress axis : x y z
#
# Youngs Moduli (GPa) = 39.27102 51.20957 59.63972
#
# Poissons Ratio (x) = 0.33512 0.47570
# Poissons Ratio (y) = 0.25700 0.42799
# Poissons Ratio (z) = 0.31323 0.36749
#
# Static dielectric constant tensor:
#      x y z
#    x 2.949380 0.000000 0.000000 
#    y 0.000000 3.073840 0.000000 
#    z 0.000000 0.000000 3.102440 
# 
# 
# High freq. dielectric constant tensor:
#      x y z
#    x 1.592280 0.000000 0.000000 
#    y 0.000000 1.581520 0.000000 
#    z 0.000000 0.000000 1.603330 
# 
# From -- ./inp_files/49490.got.cif
#   From: 2010.06.25/outbox.cif.g09.slc.cpg/sg71_25_cif.got.tgz:49490.got - 2010.06.28 04:59:45.
