data_PCOD8288484
_publ_section_title
;
Structure prediction by ZEFSAII (Michael W. Deem and Ramdas Pophale) SiO2 
 PCOD8288484
Probable space group: I M M M
;
_chemical_formula_sum "Si O2"
_cell_formula_units_Z 104
_cell_length_a 8.390008
_cell_length_b 22.528445
_cell_length_c 27.315132
_cell_angle_alpha 90.000000
_cell_angle_beta 90.000000
_cell_angle_gamma 90.000000
_cell_volume 5162.937819
_symmetry_space_group_name_H-M "I M M M"
_symmetry_group_IT_number 71
_symmetry_cell_setting 'orthorhombic'
loop_
_space_group_symop_operation_xyz
x,y,z
-x,-y,z
x,-y,-z
-x,y,-z
-x,-y,-z
x,y,-z
-x,y,z
x,-y,z
1/2+x,1/2+y,1/2+z
1/2-x,1/2-y,1/2+z
1/2+x,1/2-y,1/2-z
1/2-x,1/2+y,1/2-z
1/2-x,1/2-y,1/2-z
1/2+x,1/2+y,1/2-z
1/2-x,1/2+y,1/2+z
1/2+x,1/2-y,1/2+z
loop_
_atom_site_type_symbol
_atom_site_label
_atom_site_fract_x
_atom_site_fract_y
_atom_site_fract_z
Si Si1 0.825593 0.116711 0.053809
Si Si2 0.000000 0.431241 0.557109
Si Si3 0.686657 0.166395 0.280888
Si Si4 0.187088 0.433906 0.854523
Si Si5 0.319729 0.214163 0.819716
Si Si6 0.184180 0.862475 0.555393
Si Si7 0.324531 0.258652 0.417112
O O1 0.664995 0.093712 0.081724
O O2 0.812322 0.187693 0.044786
O O3 0.000000 0.101671 0.079023
O O4 0.826810 0.087032 0.000000
O O5 0.000000 0.500000 0.566791
O O6 0.000000 0.413259 0.500000
O O7 0.500000 0.178972 0.292281
O O8 0.745827 0.106877 0.308880
O O9 0.714577 0.164072 0.222040
O O10 0.794899 0.219698 0.299558
O O11 0.263740 0.500000 0.850105
O O12 0.228018 0.405658 0.906999
O O13 0.000000 0.439820 0.851362
O O14 0.500000 0.208399 0.838091
O O15 0.205155 0.206791 0.865863
O O16 0.251151 0.871603 0.500000
O O17 0.202358 0.793770 0.571163
O O18 0.000000 0.878691 0.556977
O O19 0.500000 0.229249 0.416695
#
# Coordination Sequence:
#
# PCOD8288484 Si02
#       7
#    16   8  16  16  16  16  16
#     4   9  19  33  50  76 109 146 186 229 280 335
#     4   9  18  32  52  76 102 138 183 229 271 323
#     4   9  18  34  53  79 110 140 176 223 277 331
#     4  10  21  38  60  82 108 148 196 240 282 338
#     4  10  19  30  52  82 110 140 173 223 277 334
#     4  11  24  38  54  80 113 150 191 239 293 345
#     4  11  21  34  53  80 113 149 185 228 287 344
#
# _framework density 20.143571999999999
#
# number of rings (size 3 to 8) (size 9 to 14) (size 15 to 20)
#    0.000    2.077    1.538    1.846    2.154    3.385 
#    0.000    3.077    0.000    0.923    0.000    0.000 
#    0.000    0.000    0.000    0.000    0.000    0.000 
#
# Total GULP energy -644205.735209 kJ/mol
# GULP energy per Si atom -12388.571831 kJ/mol
# Density = 2.009772 g / cm^3
# Si number density = 20.143572 Si / 1000 Ang^3
#
#
#
# Elastic Constant Matrix: (Units=GPa)
#
#
# Indices 1 2 3 4 5 6 
#
# 1 80.9363 30.9985 7.9468 0.0000 0.0000 0.0000
# 2 30.9985 104.6877 38.3109 0.0000 0.0000 0.0000
# 3 7.9468 38.3109 97.5146 0.0000 0.0000 0.0000
# 4 0.0000 0.0000 0.0000 22.7855 0.0000 0.0000
# 5 0.0000 0.0000 0.0000 0.0000 21.5357 0.0000
# 6 0.0000 0.0000 0.0000 0.0000 0.0000 23.0272
#
#
#
# Elastic Compliance Matrix: (Units=1/GPa)
#
#
# Indices 1 2 3 4 5 6 
#
# 1 0.013963 -0.004342 0.000568 0.000000 0.000000 0.000000
# 2 -0.004342 0.012507 -0.004560 0.000000 0.000000 0.000000
# 3 0.000568 -0.004560 0.012000 0.000000 0.000000 0.000000
# 4 0.000000 0.000000 0.000000 0.043888 0.000000 0.000000
# 5 0.000000 0.000000 0.000000 0.000000 0.046435 0.000000
# 6 0.000000 0.000000 0.000000 0.000000 0.000000 0.043427
#
#
# Mechanical properties :
#
#
# Convention : Reuss Voigt Hill
#
# Bulk Modulus (GPa) = 45.86829 48.62791 47.24810
# Shear Modulus (GPa) = 25.49028 27.19517 26.34273
#
# Velocity S-wave (km/s) = 3.56115 3.67831 3.62020
# Velocity P-wave (km/s) = 6.30311 6.49870 6.40165
#
# Compressibility (1/GPa) = 0.02180155
#
# Stress axis : x y z
#
# Youngs Moduli (GPa) = 71.61932 79.95759 83.33370
#
# Poissons Ratio (x) = 0.34720 -0.04734
# Poissons Ratio (y) = 0.31099 0.37997
# Poissons Ratio (z) = -0.04069 0.36458
#
# Static dielectric constant tensor:
#      x y z
#    x 3.774690 0.000000 0.000000 
#    y 0.000000 3.567460 0.000000 
#    z 0.000000 0.000000 3.829520 
# 
# 
# High freq. dielectric constant tensor:
#      x y z
#    x 1.792520 0.000000 0.000000 
#    y 0.000000 1.758770 0.000000 
#    z 0.000000 0.000000 1.770060 
# 
# From -- ./inp_files/63544.got.cif
#   From: 2010.06.25/outbox.cif.g09.slc.cpg/sg71_32_cif.got.tgz:63544.got - 2010.06.28 04:59:45.
