data_PCOD8288253
_publ_section_title
;
Structure prediction by ZEFSAII (Michael W. Deem and Ramdas Pophale) SiO2 
 PCOD8288253
Probable space group: I M M M
;
_chemical_formula_sum "Si O2"
_cell_formula_units_Z 96
_cell_length_a 28.750825
_cell_length_b 9.611231
_cell_length_c 27.515333
_cell_angle_alpha 90.000000
_cell_angle_beta 90.000000
_cell_angle_gamma 90.000000
_cell_volume 7603.334545
_symmetry_space_group_name_H-M "I M M M"
_symmetry_group_IT_number 71
_symmetry_cell_setting 'orthorhombic'
loop_
_space_group_symop_operation_xyz
x,y,z
-x,-y,z
x,-y,-z
-x,y,-z
-x,-y,-z
x,y,-z
-x,y,z
x,-y,z
1/2+x,1/2+y,1/2+z
1/2-x,1/2-y,1/2+z
1/2+x,1/2-y,1/2-z
1/2-x,1/2+y,1/2-z
1/2-x,1/2-y,1/2-z
1/2+x,1/2+y,1/2-z
1/2-x,1/2+y,1/2+z
1/2+x,1/2-y,1/2+z
loop_
_atom_site_type_symbol
_atom_site_label
_atom_site_fract_x
_atom_site_fract_y
_atom_site_fract_z
Si Si1 0.406565 0.663358 0.000000
Si Si2 0.283250 0.837070 0.092444
Si Si3 0.445867 0.337850 0.100916
Si Si4 0.701280 0.665799 0.000000
Si Si5 0.318274 0.153765 0.753797
Si Si6 0.873651 0.662719 0.345482
Si Si7 0.225536 0.153268 0.183331
O O1 0.431504 0.723105 0.048089
O O2 0.352874 0.705605 0.000000
O O3 0.413711 0.500000 0.000000
O O4 0.275310 0.736341 0.046831
O O5 0.333138 0.803868 0.116035
O O6 0.242185 0.797390 0.130124
O O7 0.280476 0.000000 0.077837
O O8 0.500000 0.312895 0.109422
O O9 0.432476 0.500000 0.105186
O O10 0.418730 0.253270 0.142201
O O11 0.709750 0.500000 0.000000
O O12 0.357477 0.207766 0.791321
O O13 0.269787 0.149533 0.781830
O O14 0.314495 0.248899 0.705807
O O15 0.331280 0.000000 0.735482
O O16 0.886096 0.500000 0.346741
O O17 0.203623 0.000000 0.179655
#
# Coordination Sequence:
#
# PCOD8288253 Si02
#       7
#     8  16  16   8  16  16  16
#     4   9  17  29  40  51  65  83 113 153 193 226
#     4   9  17  28  39  51  71  94 114 141 179 214
#     4  10  19  30  42  53  67  88 115 151 192 228
#     4  11  19  26  39  55  68  90 124 153 180 218
#     4   8  14  24  37  53  71  88 106 132 169 208
#     4   9  17  28  40  53  70  90 111 140 179 221
#     4   8  14  24  37  53  70  89 110 133 165 207
#
# _framework density 12.62604
#
# number of rings (size 3 to 8) (size 9 to 14) (size 15 to 20)
#    0.000    3.000    1.667    2.500    0.000    2.667 
#    0.000    3.750    0.000    1.000    0.000    0.000 
#    0.000    0.000    0.000    0.000    0.000    0.000 
#
# Total GULP energy -594947.766789 kJ/mol
# GULP energy per Si atom -12394.745141 kJ/mol
# Density = 1.259730 g / cm^3
# Si number density = 12.626040 Si / 1000 Ang^3
#
#
#
# Elastic Constant Matrix: (Units=GPa)
#
#
# Indices 1 2 3 4 5 6 
#
# 1 42.2431 32.9977 43.6236 0.0000 0.0000 0.0000
# 2 32.9977 62.9651 55.5315 0.0000 0.0000 0.0000
# 3 43.6236 55.5315 85.6931 0.0000 0.0000 0.0000
# 4 0.0000 0.0000 0.0000 22.8524 0.0000 0.0000
# 5 0.0000 0.0000 0.0000 0.0000 17.2234 0.0000
# 6 0.0000 0.0000 0.0000 0.0000 0.0000 17.5549
#
#
#
# Elastic Compliance Matrix: (Units=1/GPa)
#
#
# Indices 1 2 3 4 5 6 
#
# 1 0.052064 -0.009125 -0.020591 0.000000 0.000000 0.000000
# 2 -0.009125 0.038665 -0.020411 0.000000 0.000000 0.000000
# 3 -0.020591 -0.020411 0.035378 0.000000 0.000000 0.000000
# 4 0.000000 0.000000 0.000000 0.043759 0.000000 0.000000
# 5 0.000000 0.000000 0.000000 0.000000 0.058061 0.000000
# 6 0.000000 0.000000 0.000000 0.000000 0.000000 0.056964
#
#
# Mechanical properties :
#
#
# Convention : Reuss Voigt Hill
#
# Bulk Modulus (GPa) = 38.67826 50.57856 44.62841
# Shear Modulus (GPa) = 12.69799 15.44271 14.07035
#
# Velocity S-wave (km/s) = 3.17472 3.50106 3.34187
# Velocity P-wave (km/s) = 6.64369 7.51592 7.09323
#
# Compressibility (1/GPa) = 0.02585432
#
# Stress axis : x y z
#
# Youngs Moduli (GPa) = 19.20696 25.86328 28.26576
#
# Poissons Ratio (x) = 0.23600 0.58202
# Poissons Ratio (y) = 0.17526 0.57692
# Poissons Ratio (z) = 0.39549 0.52789
#
# Static dielectric constant tensor:
#      x y z
#    x 2.264060 0.000000 0.000000 
#    y 0.000000 2.667430 0.000000 
#    z 0.000000 0.000000 2.579820 
# 
# 
# High freq. dielectric constant tensor:
#      x y z
#    x 1.431290 0.000000 0.000000 
#    y 0.000000 1.481440 0.000000 
#    z 0.000000 0.000000 1.467490 
# 
# From -- ./inp_files/71236.got.cif
#   From: 2010.06.25/outbox.cif.g09.slc.cpg/sg71_36_cif.got.tgz:71236.got - 2010.06.28 04:59:45.
