data_PCOD8288060
_publ_section_title
;
Structure prediction by ZEFSAII (Michael W. Deem and Ramdas Pophale) SiO2 
 PCOD8288060
Probable space group: I M M M
;
_chemical_formula_sum "Si O2"
_cell_formula_units_Z 88
_cell_length_a 17.070947
_cell_length_b 22.811942
_cell_length_c 11.546547
_cell_angle_alpha 90.000000
_cell_angle_beta 90.000000
_cell_angle_gamma 90.000000
_cell_volume 4496.473108
_symmetry_space_group_name_H-M "I M M M"
_symmetry_group_IT_number 71
_symmetry_cell_setting 'orthorhombic'
loop_
_space_group_symop_operation_xyz
x,y,z
-x,-y,z
x,-y,-z
-x,y,-z
-x,-y,-z
x,y,-z
-x,y,z
x,-y,z
1/2+x,1/2+y,1/2+z
1/2-x,1/2-y,1/2+z
1/2+x,1/2-y,1/2-z
1/2-x,1/2+y,1/2-z
1/2-x,1/2-y,1/2-z
1/2+x,1/2+y,1/2-z
1/2-x,1/2+y,1/2+z
1/2+x,1/2-y,1/2+z
loop_
_atom_site_type_symbol
_atom_site_label
_atom_site_fract_x
_atom_site_fract_y
_atom_site_fract_z
Si Si1 0.593128 0.565320 0.500000
Si Si2 0.408203 0.367407 0.275041
Si Si3 0.407877 0.759917 0.365244
Si Si4 0.500000 0.933437 0.863716
Si Si5 0.787232 0.068500 0.634442
Si Si6 0.634887 0.121327 0.276962
Si Si7 0.414862 0.938806 0.500000
O O1 0.627069 0.500000 0.500000
O O2 0.500000 0.566805 0.500000
O O3 0.623953 0.597354 0.385912
O O4 0.500000 0.377017 0.254344
O O5 0.388050 0.299955 0.298559
O O6 0.364517 0.393405 0.162421
O O7 0.380490 0.756708 0.500000
O O8 0.500000 0.773188 0.360154
O O9 0.360779 0.808191 0.289434
O O10 0.579995 0.899750 0.828396
O O11 0.500000 0.000000 0.812396
O O12 0.500000 0.935641 0.000000
O O13 0.762475 0.080306 0.500000
O O14 0.720427 0.091318 0.723489
O O15 0.804451 0.000000 0.655858
O O16 0.592587 0.101839 0.391684
O O17 0.500000 0.964997 0.500000
O O18 0.361725 0.000000 0.500000
#
# Coordination Sequence:
#
# PCOD8288060 Si02
#       7
#     8  16  16   8  16  16   8
#     4   9  16  31  57  85 109 141 196 253 303 365
#     4  10  21  38  60  85 117 162 206 255 314 366
#     4  10  18  34  61  93 121 152 198 251 301 362
#     4  11  24  41  59  85 127 172 207 244 298 369
#     4  11  24  40  59  88 124 158 204 264 316 363
#     4  12  21  37  61  90 121 160 200 249 303 359
#     4  11  18  27  55  91 114 145 197 246 295 346
#
# _framework density 19.570893999999999
#
# number of rings (size 3 to 8) (size 9 to 14) (size 15 to 20)
#    0.000    1.364    4.545    2.182    0.000    2.182 
#    1.636    1.818    0.000    0.000    0.000    0.000 
#    0.000    0.000    0.000    0.000    0.000    0.000 
#
# Total GULP energy -545341.280994 kJ/mol
# GULP energy per Si atom -12394.120023 kJ/mol
# Density = 1.952635 g / cm^3
# Si number density = 19.570894 Si / 1000 Ang^3
#
#
#
# Elastic Constant Matrix: (Units=GPa)
#
#
# Indices 1 2 3 4 5 6 
#
# 1 76.3207 44.0010 28.4101 0.0000 0.0000 0.0000
# 2 44.0010 155.8047 34.9441 0.0000 0.0000 0.0000
# 3 28.4101 34.9441 60.8102 0.0000 0.0000 0.0000
# 4 0.0000 0.0000 0.0000 32.5822 0.0000 0.0000
# 5 0.0000 0.0000 0.0000 0.0000 22.7476 0.0000
# 6 0.0000 0.0000 0.0000 0.0000 0.0000 29.3727
#
#
#
# Elastic Compliance Matrix: (Units=1/GPa)
#
#
# Indices 1 2 3 4 5 6 
#
# 1 0.017420 -0.003552 -0.006097 0.000000 0.000000 0.000000
# 2 -0.003552 0.008092 -0.002991 0.000000 0.000000 0.000000
# 3 -0.006097 -0.002991 0.021012 0.000000 0.000000 0.000000
# 4 0.000000 0.000000 0.000000 0.030692 0.000000 0.000000
# 5 0.000000 0.000000 0.000000 0.000000 0.043961 0.000000
# 6 0.000000 0.000000 0.000000 0.000000 0.000000 0.034045
#
#
# Mechanical properties :
#
#
# Convention : Reuss Voigt Hill
#
# Bulk Modulus (GPa) = 47.07218 56.40510 51.73864
# Shear Modulus (GPa) = 26.65482 29.31252 27.98367
#
# Velocity S-wave (km/s) = 3.69448 3.87429 3.78545
# Velocity P-wave (km/s) = 6.50410 6.99264 6.75279
#
# Compressibility (1/GPa) = 0.02124397
#
# Stress axis : x y z
#
# Youngs Moduli (GPa) = 57.40440 123.57602 47.59236
#
# Poissons Ratio (x) = 0.43896 0.29019
# Poissons Ratio (y) = 0.20391 0.14233
# Poissons Ratio (z) = 0.35002 0.36956
#
# Static dielectric constant tensor:
#      x y z
#    x 3.381630 0.000000 0.000000 
#    y 0.000000 3.889400 0.000000 
#    z 0.000000 0.000000 3.378010 
# 
# 
# High freq. dielectric constant tensor:
#      x y z
#    x 1.742480 0.000000 0.000000 
#    y 0.000000 1.784360 0.000000 
#    z 0.000000 0.000000 1.738970 
# 
# From -- ./inp_files/23986.got.cif
#   From: 2010.06.25/outbox.cif.g09.slc.cpg/sg71_12_cif.got.tgz:23986.got - 2010.06.28 04:59:45.
