data_PCOD8288750
_publ_section_title
;
Structure prediction by ZEFSAII (Michael W. Deem and Ramdas Pophale) SiO2 
 PCOD8288750
Probable space group: I M M M
;
_chemical_formula_sum "Si O2"
_cell_formula_units_Z 88
_cell_length_a 27.387000
_cell_length_b 19.400894
_cell_length_c 8.933897
_cell_angle_alpha 90.000000
_cell_angle_beta 90.000000
_cell_angle_gamma 90.000000
_cell_volume 4746.867898
_symmetry_space_group_name_H-M "I M M M"
_symmetry_group_IT_number 71
_symmetry_cell_setting 'orthorhombic'
loop_
_space_group_symop_operation_xyz
x,y,z
-x,-y,z
x,-y,-z
-x,y,-z
-x,-y,-z
x,y,-z
-x,y,z
x,-y,z
1/2+x,1/2+y,1/2+z
1/2-x,1/2-y,1/2+z
1/2+x,1/2-y,1/2-z
1/2-x,1/2+y,1/2-z
1/2-x,1/2-y,1/2-z
1/2+x,1/2+y,1/2-z
1/2-x,1/2+y,1/2+z
1/2+x,1/2-y,1/2+z
loop_
_atom_site_type_symbol
_atom_site_label
_atom_site_fract_x
_atom_site_fract_y
_atom_site_fract_z
Si Si1 0.410711 0.830326 0.177046
Si Si2 0.814943 0.311649 0.826257
Si Si3 0.206518 0.172453 0.328784
Si Si4 0.618493 0.421320 0.827407
Si Si5 0.442996 0.691349 0.327128
Si Si6 0.000000 0.422259 0.321784
O O1 0.357704 0.852783 0.239664
O O2 0.421958 0.753362 0.229745
O O3 0.451898 0.882835 0.238170
O O4 0.409257 0.831371 0.000000
O O5 0.814257 0.231901 0.777403
O O6 0.762611 0.346138 0.787986
O O7 0.827387 0.315211 0.000000
O O8 0.203910 0.199417 0.500000
O O9 0.173987 0.104823 0.304734
O O10 0.616786 0.500000 0.774539
O O11 0.581233 0.379627 0.724706
O O12 0.602634 0.413262 0.000000
O O13 0.430897 0.705421 0.500000
O O14 0.500000 0.684275 0.297840
O O15 0.000000 0.500000 0.257981
O O16 0.000000 0.422817 0.500000
#
# Coordination Sequence:
#
# PCOD8288750 Si02
#       6
#    16  16  16  16  16   8
#     4  11  20  34  58  84 110 143 184 228 273 326
#     4  10  19  31  52  82 112 141 178 227 275 321
#     4   9  18  33  52  77 109 144 182 224 272 325
#     4  10  21  37  57  80 109 148 192 233 274 326
#     4  11  23  37  55  81 112 144 183 231 280 331
#     4   9  20  38  59  83 110 143 182 225 275 330
#
# _framework density 18.538540000000001
#
# number of rings (size 3 to 8) (size 9 to 14) (size 15 to 20)
#    0.000    1.909    2.727    1.636    0.000    2.545 
#    0.000    2.727    0.000    5.455    0.000    0.000 
#    0.000    0.000    0.000    0.000    0.000    0.000 
#
# Total GULP energy -545668.302360 kJ/mol
# GULP energy per Si atom -12401.552326 kJ/mol
# Density = 1.849635 g / cm^3
# Si number density = 18.538540 Si / 1000 Ang^3
#
#
#
# Elastic Constant Matrix: (Units=GPa)
#
#
# Indices 1 2 3 4 5 6 
#
# 1 130.0798 28.1437 42.2951 0.0000 0.0000 0.0000
# 2 28.1437 59.4889 15.0781 0.0000 0.0000 0.0000
# 3 42.2951 15.0781 64.2776 0.0000 0.0000 0.0000
# 4 0.0000 0.0000 0.0000 11.1357 0.0000 0.0000
# 5 0.0000 0.0000 0.0000 0.0000 33.0781 0.0000
# 6 0.0000 0.0000 0.0000 0.0000 0.0000 27.8516
#
#
#
# Elastic Compliance Matrix: (Units=1/GPa)
#
#
# Indices 1 2 3 4 5 6 
#
# 1 0.010383 -0.003381 -0.006039 0.000000 0.000000 0.000000
# 2 -0.003381 0.018974 -0.002226 0.000000 0.000000 0.000000
# 3 -0.006039 -0.002226 0.020053 0.000000 0.000000 0.000000
# 4 0.000000 0.000000 0.000000 0.089801 0.000000 0.000000
# 5 0.000000 0.000000 0.000000 0.000000 0.030231 0.000000
# 6 0.000000 0.000000 0.000000 0.000000 0.000000 0.035905
#
#
# Mechanical properties :
#
#
# Convention : Reuss Voigt Hill
#
# Bulk Modulus (GPa) = 38.28816 47.20888 42.74852
# Shear Modulus (GPa) = 21.06643 25.63504 23.35074
#
# Velocity S-wave (km/s) = 3.37465 3.72263 3.55290
# Velocity P-wave (km/s) = 5.99020 6.63309 6.31982
#
# Compressibility (1/GPa) = 0.02611773
#
# Stress axis : x y z
#
# Youngs Moduli (GPa) = 96.31486 52.70451 49.86762
#
# Poissons Ratio (x) = 0.17821 0.30113
# Poissons Ratio (y) = 0.32568 0.11100
# Poissons Ratio (z) = 0.58161 0.11731
#
# Static dielectric constant tensor:
#      x y z
#    x 3.818080 0.000000 0.000000 
#    y 0.000000 3.196140 0.000000 
#    z 0.000000 0.000000 3.372470 
# 
# 
# High freq. dielectric constant tensor:
#      x y z
#    x 1.741670 0.000000 0.000000 
#    y 0.000000 1.687250 0.000000 
#    z 0.000000 0.000000 1.715640 
# 
# From -- ./inp_files/16629.got.cif
#   From: 2010.06.25/outbox.cif.g09.slc.cpg/sg71_9_cif.got.tgz:16629.got - 2010.06.28 04:59:45.
