data_PCOD8288181
_publ_section_title
;
Structure prediction by ZEFSAII (Michael W. Deem and Ramdas Pophale) SiO2 
 PCOD8288181
Probable space group: I M M M
;
_chemical_formula_sum "Si O2"
_cell_formula_units_Z 96
_cell_length_a 25.872187
_cell_length_b 9.191066
_cell_length_c 22.769154
_cell_angle_alpha 90.000000
_cell_angle_beta 90.000000
_cell_angle_gamma 90.000000
_cell_volume 5414.344943
_symmetry_space_group_name_H-M "I M M M"
_symmetry_group_IT_number 71
_symmetry_cell_setting 'orthorhombic'
loop_
_space_group_symop_operation_xyz
x,y,z
-x,-y,z
x,-y,-z
-x,y,-z
-x,-y,-z
x,y,-z
-x,y,z
x,-y,z
1/2+x,1/2+y,1/2+z
1/2-x,1/2-y,1/2+z
1/2+x,1/2-y,1/2-z
1/2-x,1/2+y,1/2-z
1/2-x,1/2-y,1/2-z
1/2+x,1/2+y,1/2-z
1/2-x,1/2+y,1/2+z
1/2+x,1/2-y,1/2+z
loop_
_atom_site_type_symbol
_atom_site_label
_atom_site_fract_x
_atom_site_fract_y
_atom_site_fract_z
Si Si1 0.722529 0.331692 0.568015
Si Si2 0.858621 0.339256 0.147693
Si Si3 0.619642 0.328395 0.169074
Si Si4 0.798671 0.340208 0.733808
Si Si5 0.440646 0.670888 0.284499
Si Si6 0.658736 0.169061 0.067684
O O1 0.710339 0.304276 0.500000
O O2 0.714684 0.500000 0.584273
O O3 0.680883 0.240127 0.604456
O O4 0.781617 0.284523 0.581996
O O5 0.872476 0.500000 0.122115
O O6 0.833514 0.361176 0.210203
O O7 0.910597 0.247558 0.161540
O O8 0.623841 0.500000 0.163628
O O9 0.674107 0.257293 0.185427
O O10 0.577339 0.283429 0.218253
O O11 0.614307 0.258529 0.104029
O O12 0.784360 0.500000 0.707912
O O13 0.750000 0.250000 0.750000
O O14 0.500000 0.716483 0.290138
O O15 0.431701 0.500000 0.292309
O O16 0.651370 0.000000 0.081944
O O17 0.647087 0.202149 0.000000
#
# Coordination Sequence:
#
# PCOD8288181 Si02
#       6
#    16  16  16  16  16  16
#     4   9  18  32  49  69  96 133 170 196 223 270
#     4  10  20  31  46  71  98 123 154 195 242 286
#     4  10  19  30  47  71  95 121 157 199 242 287
#     4  10  19  29  42  64  95 127 157 190 232 283
#     4   9  19  36  55  72  92 122 159 199 245 295
#     4   9  18  32  49  70  99 135 169 198 231 275
#
# _framework density 17.730677
#
# number of rings (size 3 to 8) (size 9 to 14) (size 15 to 20)
#    0.000    2.500    0.000    3.500    0.000    7.000 
#    0.000    1.667    0.000    1.000    0.000    7.000 
#    0.000    0.000    0.000    0.000    0.000    0.000 
#
# Total GULP energy -594667.231430 kJ/mol
# GULP energy per Si atom -12388.900655 kJ/mol
# Density = 1.769032 g / cm^3
# Si number density = 17.730677 Si / 1000 Ang^3
#
#
#
# Elastic Constant Matrix: (Units=GPa)
#
#
# Indices 1 2 3 4 5 6 
#
# 1 39.1957 18.1065 2.0956 0.0000 0.0000 0.0000
# 2 18.1065 66.1492 23.7075 0.0000 0.0000 0.0000
# 3 2.0956 23.7075 58.0563 0.0000 0.0000 0.0000
# 4 0.0000 0.0000 0.0000 30.8761 0.0000 0.0000
# 5 0.0000 0.0000 0.0000 0.0000 25.1210 0.0000
# 6 0.0000 0.0000 0.0000 0.0000 0.0000 21.4193
#
#
#
# Elastic Compliance Matrix: (Units=1/GPa)
#
#
# Indices 1 2 3 4 5 6 
#
# 1 0.029542 -0.009025 0.002619 0.000000 0.000000 0.000000
# 2 -0.009025 0.020466 -0.008032 0.000000 0.000000 0.000000
# 3 0.002619 -0.008032 0.020410 0.000000 0.000000 0.000000
# 4 0.000000 0.000000 0.000000 0.032387 0.000000 0.000000
# 5 0.000000 0.000000 0.000000 0.000000 0.039807 0.000000
# 6 0.000000 0.000000 0.000000 0.000000 0.000000 0.046687
#
#
# Mechanical properties :
#
#
# Convention : Reuss Voigt Hill
#
# Bulk Modulus (GPa) = 24.07151 27.91341 25.99246
# Shear Modulus (GPa) = 21.54962 23.44940 22.49951
#
# Velocity S-wave (km/s) = 3.49002 3.64061 3.56611
# Velocity P-wave (km/s) = 5.46315 5.78353 5.62562
#
# Compressibility (1/GPa) = 0.04154288
#
# Stress axis : x y z
#
# Youngs Moduli (GPa) = 33.84999 48.86111 48.99590
#
# Poissons Ratio (x) = 0.44097 -0.12832
# Poissons Ratio (y) = 0.30550 0.39352
# Poissons Ratio (z) = -0.08865 0.39244
#
# Static dielectric constant tensor:
#      x y z
#    x 2.998180 0.000000 0.000000 
#    y 0.000000 3.495950 0.000000 
#    z 0.000000 0.000000 3.361790 
# 
# 
# High freq. dielectric constant tensor:
#      x y z
#    x 1.652460 0.000000 0.000000 
#    y 0.000000 1.692700 0.000000 
#    z 0.000000 0.000000 1.686860 
# 
# From -- ./inp_files/10822.got.cif
#   From: 2010.06.25/outbox.cif.g09.slc.cpg/sg71_6_cif.got.tgz:10822.got - 2010.06.28 04:59:45.
