data_PCOD8288289
_publ_section_title
;
Structure prediction by ZEFSAII (Michael W. Deem and Ramdas Pophale) SiO2 
 PCOD8288289
Probable space group: I M M M
;
_chemical_formula_sum "Si O2"
_cell_formula_units_Z 120
_cell_length_a 13.362280
_cell_length_b 16.418410
_cell_length_c 32.774147
_cell_angle_alpha 90.000000
_cell_angle_beta 90.000000
_cell_angle_gamma 90.000000
_cell_volume 7190.234621
_symmetry_space_group_name_H-M "I M M M"
_symmetry_group_IT_number 71
_symmetry_cell_setting 'orthorhombic'
loop_
_space_group_symop_operation_xyz
x,y,z
-x,-y,z
x,-y,-z
-x,y,-z
-x,-y,-z
x,y,-z
-x,y,z
x,-y,z
1/2+x,1/2+y,1/2+z
1/2-x,1/2-y,1/2+z
1/2+x,1/2-y,1/2-z
1/2-x,1/2+y,1/2-z
1/2-x,1/2-y,1/2-z
1/2+x,1/2+y,1/2-z
1/2-x,1/2+y,1/2+z
1/2+x,1/2-y,1/2+z
loop_
_atom_site_type_symbol
_atom_site_label
_atom_site_fract_x
_atom_site_fract_y
_atom_site_fract_z
Si Si1 0.385097 0.239303 0.411406
Si Si2 0.382308 0.908739 0.724461
Si Si3 0.751152 0.643671 0.547281
Si Si4 0.887650 0.595270 0.616025
Si Si5 0.382873 0.087145 0.544219
Si Si6 0.116967 0.758933 0.181976
Si Si7 0.889027 0.000000 0.048315
Si Si8 0.256841 0.906520 0.194509
O O1 0.500000 0.260987 0.422698
O O2 0.310245 0.274987 0.445050
O O3 0.361490 0.144137 0.417082
O O4 0.359694 0.264957 0.365833
O O5 0.500000 0.902436 0.731050
O O6 0.345975 0.830840 0.697378
O O7 0.332637 0.900719 0.768310
O O8 0.356423 0.000000 0.705918
O O9 0.781499 0.633085 0.500000
O O10 0.850166 0.639961 0.574896
O O11 0.672904 0.576711 0.563711
O O12 0.887215 0.500000 0.607229
O O13 0.817512 0.617382 0.653999
O O14 0.000000 0.626202 0.625151
O O15 0.342870 0.119755 0.500000
O O16 0.500000 0.075889 0.540017
O O17 0.332297 0.000000 0.553944
O O18 0.171876 0.837395 0.201905
O O19 0.000000 0.768872 0.191484
O O20 0.000000 0.000000 0.068292
O O21 0.898912 0.000000 0.000000
O O22 0.213488 0.000000 0.191373
#
# Coordination Sequence:
#
# PCOD8288289 Si02
#       8
#    16  16  16  16  16  16   8  16
#     4  10  19  30  44  66  98 132 161 192 234 286
#     4   9  18  33  54  78 101 128 163 202 246 295
#     4  11  20  31  45  64  92 125 163 204 242 283
#     4  10  20  34  51  69  90 120 163 211 253 288
#     4   8  14  25  41  61  86 120 161 197 231 276
#     4  10  20  32  48  74 105 132 161 199 243 293
#     4   9  18  30  43  61  87 125 166 194 225 279
#     4  10  19  34  53  72  98 132 168 203 241 293
#
# _framework density 16.689302000000001
#
# number of rings (size 3 to 8) (size 9 to 14) (size 15 to 20)
#    0.000    2.333    2.000    2.000    0.000    4.000 
#    0.000    3.333    0.000    0.000    0.000    0.000 
#    0.000    1.600    0.000    2.800    0.000    0.133 
#
# Total GULP energy -743283.055970 kJ/mol
# GULP energy per Si atom -12388.050933 kJ/mol
# Density = 1.665132 g / cm^3
# Si number density = 16.689302 Si / 1000 Ang^3
#
#
#
# Elastic Constant Matrix: (Units=GPa)
#
#
# Indices 1 2 3 4 5 6 
#
# 1 52.0410 35.3889 22.0873 0.0000 0.0000 0.0000
# 2 35.3889 102.3816 25.4782 0.0000 0.0000 0.0000
# 3 22.0873 25.4782 49.0075 0.0000 0.0000 0.0000
# 4 0.0000 0.0000 0.0000 27.8315 0.0000 0.0000
# 5 0.0000 0.0000 0.0000 0.0000 22.5426 0.0000
# 6 0.0000 0.0000 0.0000 0.0000 0.0000 32.4997
#
#
#
# Elastic Compliance Matrix: (Units=1/GPa)
#
#
# Indices 1 2 3 4 5 6 
#
# 1 0.028031 -0.007518 -0.008725 0.000000 0.000000 0.000000
# 2 -0.007518 0.013235 -0.003492 0.000000 0.000000 0.000000
# 3 -0.008725 -0.003492 0.026153 0.000000 0.000000 0.000000
# 4 0.000000 0.000000 0.000000 0.035931 0.000000 0.000000
# 5 0.000000 0.000000 0.000000 0.000000 0.044360 0.000000
# 6 0.000000 0.000000 0.000000 0.000000 0.000000 0.030770
#
#
# Mechanical properties :
#
#
# Convention : Reuss Voigt Hill
#
# Bulk Modulus (GPa) = 35.78004 41.03764 38.40884
# Shear Modulus (GPa) = 22.00064 24.60646 23.30355
#
# Velocity S-wave (km/s) = 3.63471 3.84394 3.74079
# Velocity P-wave (km/s) = 6.25302 6.65911 6.45926
#
# Compressibility (1/GPa) = 0.02794854
#
# Stress axis : x y z
#
# Youngs Moduli (GPa) = 35.67489 75.55667 38.23661
#
# Poissons Ratio (x) = 0.56802 0.33361
# Poissons Ratio (y) = 0.26820 0.13354
# Poissons Ratio (z) = 0.31126 0.26388
#
# Static dielectric constant tensor:
#      x y z
#    x 2.943880 0.000000 0.000000 
#    y 0.000000 3.742500 0.000000 
#    z 0.000000 0.000000 3.026190 
# 
# 
# High freq. dielectric constant tensor:
#      x y z
#    x 1.608330 0.000000 0.000000 
#    y 0.000000 1.647550 0.000000 
#    z 0.000000 0.000000 1.638290 
# 
# From -- ./inp_files/70129.got.cif
#   From: 2010.06.25/outbox.cif.g09.slc.cpg/sg71_36_cif.got.tgz:70129.got - 2010.06.28 04:59:45.
