data_PCOD8288457
_publ_section_title
;
Structure prediction by ZEFSAII (Michael W. Deem and Ramdas Pophale) SiO2 
 PCOD8288457
Probable space group: I M M M
;
_chemical_formula_sum "Si O2"
_cell_formula_units_Z 88
_cell_length_a 20.447036
_cell_length_b 9.565618
_cell_length_c 25.341382
_cell_angle_alpha 90.000000
_cell_angle_beta 90.000000
_cell_angle_gamma 90.000000
_cell_volume 4956.483796
_symmetry_space_group_name_H-M "I M M M"
_symmetry_group_IT_number 71
_symmetry_cell_setting 'orthorhombic'
loop_
_space_group_symop_operation_xyz
x,y,z
-x,-y,z
x,-y,-z
-x,y,-z
-x,-y,-z
x,y,-z
-x,y,z
x,-y,z
1/2+x,1/2+y,1/2+z
1/2-x,1/2-y,1/2+z
1/2+x,1/2-y,1/2-z
1/2-x,1/2+y,1/2-z
1/2-x,1/2-y,1/2-z
1/2+x,1/2+y,1/2-z
1/2-x,1/2+y,1/2+z
1/2+x,1/2-y,1/2+z
loop_
_atom_site_type_symbol
_atom_site_label
_atom_site_fract_x
_atom_site_fract_y
_atom_site_fract_z
Si Si1 0.775942 0.838494 0.000000
Si Si2 0.301789 0.342995 0.691253
Si Si3 0.678485 0.336589 0.809435
Si Si4 0.000000 0.343122 0.937858
Si Si5 0.621052 0.657184 0.411385
Si Si6 0.644118 0.665825 0.000000
Si Si7 0.073263 0.834249 0.606807
O O1 0.818053 0.802495 0.948244
O O2 0.713769 0.739543 0.000000
O O3 0.753476 0.000000 0.000000
O O4 0.272846 0.500000 0.693965
O O5 0.333360 0.302079 0.747743
O O6 0.244236 0.240976 0.672697
O O7 0.359610 0.333034 0.649515
O O8 0.689101 0.500000 0.820088
O O9 0.617595 0.280634 0.844213
O O10 0.063697 0.265743 0.917929
O O11 0.000000 0.500000 0.914952
O O12 0.000000 0.344600 0.000000
O O13 0.597286 0.500000 0.425743
O O14 0.604081 0.715293 0.948565
O O15 0.655765 0.500000 0.000000
O O16 0.000000 0.771324 0.612512
O O17 0.069208 0.000000 0.607754
#
# Coordination Sequence:
#
# PCOD8288457 Si02
#       7
#     8  16  16   8  16   8  16
#     4  10  20  32  50  73  99 129 160 201 248 291
#     4   9  18  32  51  76 100 128 168 208 249 297
#     4   9  17  31  51  75 100 130 166 208 256 294
#     4  11  23  37  53  75 103 133 167 208 257 304
#     4  10  20  35  53  73 100 135 171 204 246 305
#     4  10  19  30  49  75  98 127 165 203 248 296
#     4   9  17  30  48  71 100 130 163 203 245 293
#
# _framework density 17.754522000000001
#
# number of rings (size 3 to 8) (size 9 to 14) (size 15 to 20)
#    0.000    2.455    0.909    1.636    0.000    2.909 
#    1.636    0.000    0.000    2.727    0.000    0.000 
#    0.000    0.000    0.000    0.000    0.000    0.000 
#
# Total GULP energy -545575.180930 kJ/mol
# GULP energy per Si atom -12399.435930 kJ/mol
# Density = 1.771411 g / cm^3
# Si number density = 17.754522 Si / 1000 Ang^3
#
#
#
# Elastic Constant Matrix: (Units=GPa)
#
#
# Indices 1 2 3 4 5 6 
#
# 1 141.9432 61.9927 68.3514 0.0000 0.0000 0.0000
# 2 61.9927 67.0806 35.1217 0.0000 0.0000 0.0000
# 3 68.3514 35.1217 111.0276 0.0000 0.0000 0.0000
# 4 0.0000 0.0000 0.0000 18.2862 0.0000 0.0000
# 5 0.0000 0.0000 0.0000 0.0000 22.6325 0.0000
# 6 0.0000 0.0000 0.0000 0.0000 0.0000 33.0984
#
#
#
# Elastic Compliance Matrix: (Units=1/GPa)
#
#
# Indices 1 2 3 4 5 6 
#
# 1 0.014135 -0.010196 -0.005477 0.000000 0.000000 0.000000
# 2 -0.010196 0.025221 -0.001701 0.000000 0.000000 0.000000
# 3 -0.005477 -0.001701 0.012917 0.000000 0.000000 0.000000
# 4 0.000000 0.000000 0.000000 0.054686 0.000000 0.000000
# 5 0.000000 0.000000 0.000000 0.000000 0.044184 0.000000
# 6 0.000000 0.000000 0.000000 0.000000 0.000000 0.030213
#
#
# Mechanical properties :
#
#
# Convention : Reuss Voigt Hill
#
# Bulk Modulus (GPa) = 57.06207 72.33144 64.69676
# Shear Modulus (GPa) = 22.52810 25.10912 23.81861
#
# Velocity S-wave (km/s) = 3.56598 3.76472 3.66669
# Velocity P-wave (km/s) = 7.01172 7.72823 7.37868
#
# Compressibility (1/GPa) = 0.01752478
#
# Stress axis : x y z
#
# Youngs Moduli (GPa) = 70.74522 39.65022 77.41956
#
# Poissons Ratio (x) = 0.40426 0.42401
# Poissons Ratio (y) = 0.72129 0.13172
# Poissons Ratio (z) = 0.38746 0.06746
#
# Static dielectric constant tensor:
#      x y z
#    x 3.256950 0.000000 0.000000 
#    y 0.000000 3.219590 0.000000 
#    z 0.000000 0.000000 3.509790 
# 
# 
# High freq. dielectric constant tensor:
#      x y z
#    x 1.678990 0.000000 0.000000 
#    y 0.000000 1.666290 0.000000 
#    z 0.000000 0.000000 1.700330 
# 
# From -- ./inp_files/61157.got.cif
#   From: 2010.06.25/outbox.cif.g09.slc.cpg/sg71_31_cif.got.tgz:61157.got - 2010.06.28 04:59:45.
