data_PCOD8288734
_publ_section_title
;
Structure prediction by ZEFSAII (Michael W. Deem and Ramdas Pophale) SiO2 
 PCOD8288734
Probable space group: I M M M
;
_chemical_formula_sum "Si O2"
_cell_formula_units_Z 88
_cell_length_a 21.723040
_cell_length_b 9.034571
_cell_length_c 23.962948
_cell_angle_alpha 90.000000
_cell_angle_beta 90.000000
_cell_angle_gamma 90.000000
_cell_volume 4702.928569
_symmetry_space_group_name_H-M "I M M M"
_symmetry_group_IT_number 71
_symmetry_cell_setting 'orthorhombic'
loop_
_space_group_symop_operation_xyz
x,y,z
-x,-y,z
x,-y,-z
-x,y,-z
-x,-y,-z
x,y,-z
-x,y,z
x,-y,z
1/2+x,1/2+y,1/2+z
1/2-x,1/2-y,1/2+z
1/2+x,1/2-y,1/2-z
1/2-x,1/2+y,1/2-z
1/2-x,1/2-y,1/2-z
1/2+x,1/2+y,1/2-z
1/2-x,1/2+y,1/2+z
1/2+x,1/2-y,1/2+z
loop_
_atom_site_type_symbol
_atom_site_label
_atom_site_fract_x
_atom_site_fract_y
_atom_site_fract_z
Si Si1 0.566457 0.666426 0.747932
Si Si2 0.646581 0.332170 0.351671
Si Si3 0.404162 0.175436 0.146160
Si Si4 0.000000 0.824528 0.566343
Si Si5 0.274042 0.831317 0.805519
Si Si6 0.567487 0.826139 0.437646
O O1 0.500000 0.663278 0.717522
O O2 0.584503 0.500000 0.768176
O O3 0.617787 0.730774 0.705998
O O4 0.558148 0.777353 0.799509
O O5 0.623471 0.500000 0.358056
O O6 0.719968 0.319867 0.351090
O O7 0.623139 0.240373 0.403396
O O8 0.437198 0.254743 0.093182
O O9 0.334229 0.231268 0.161661
O O10 0.406705 0.000000 0.135514
O O11 0.000000 0.790566 0.500000
O O12 0.000000 0.000000 0.577825
O O13 0.250000 0.750000 0.750000
O O14 0.286888 0.000000 0.787646
O O15 0.573352 0.763926 0.500000
O O16 0.500000 0.782669 0.413472
O O17 0.575334 0.000000 0.437298
#
# Coordination Sequence:
#
# PCOD8288734 Si02
#       6
#    16  16  16   8  16  16
#     4  10  19  31  51  80 115 151 184 226 281 335
#     4  10  20  34  53  80 113 149 188 225 268 327
#     4  11  22  36  58  88 116 145 187 236 289 346
#     4  11  25  45  67  87 111 151 200 247 300 357
#     4  10  21  36  55  83 118 154 188 225 278 342
#     4   9  19  36  55  76 106 144 185 231 279 322
#
# _framework density 18.711746000000002
#
# number of rings (size 3 to 8) (size 9 to 14) (size 15 to 20)
#    0.000    1.909    2.727    1.909    0.000    4.364 
#    0.000    1.818    0.000    5.455    0.000    0.000 
#    0.000    0.000    0.000    0.000    0.000    0.000 
#
# Total GULP energy -545198.289459 kJ/mol
# GULP energy per Si atom -12390.870215 kJ/mol
# Density = 1.866916 g / cm^3
# Si number density = 18.711746 Si / 1000 Ang^3
#
#
#
# Elastic Constant Matrix: (Units=GPa)
#
#
# Indices 1 2 3 4 5 6 
#
# 1 136.8229 38.7439 55.6907 0.0000 0.0000 0.0000
# 2 38.7439 62.3119 44.0699 0.0000 0.0000 0.0000
# 3 55.6907 44.0699 102.6944 0.0000 0.0000 0.0000
# 4 0.0000 0.0000 0.0000 30.8127 0.0000 0.0000
# 5 0.0000 0.0000 0.0000 0.0000 13.9018 0.0000
# 6 0.0000 0.0000 0.0000 0.0000 0.0000 27.1965
#
#
#
# Elastic Compliance Matrix: (Units=1/GPa)
#
#
# Indices 1 2 3 4 5 6 
#
# 1 0.009848 -0.003368 -0.003895 0.000000 0.000000 0.000000
# 2 -0.003368 0.024194 -0.008556 0.000000 0.000000 0.000000
# 3 -0.003895 -0.008556 0.015521 0.000000 0.000000 0.000000
# 4 0.000000 0.000000 0.000000 0.032454 0.000000 0.000000
# 5 0.000000 0.000000 0.000000 0.000000 0.071933 0.000000
# 6 0.000000 0.000000 0.000000 0.000000 0.000000 0.036769
#
#
# Mechanical properties :
#
#
# Convention : Reuss Voigt Hill
#
# Bulk Modulus (GPa) = 55.78866 64.31536 60.05201
# Shear Modulus (GPa) = 21.89788 25.27053 23.58420
#
# Velocity S-wave (km/s) = 3.42464 3.67892 3.55406
# Velocity P-wave (km/s) = 6.74663 7.24515 7.00033
#
# Compressibility (1/GPa) = 0.01792479
#
# Stress axis : x y z
#
# Youngs Moduli (GPa) = 101.54435 41.33308 64.42725
#
# Poissons Ratio (x) = 0.13923 0.25094
# Poissons Ratio (y) = 0.34205 0.55122
# Poissons Ratio (z) = 0.39551 0.35363
#
# Static dielectric constant tensor:
#      x y z
#    x 3.728090 0.000000 0.000000 
#    y 0.000000 3.375470 0.000000 
#    z 0.000000 0.000000 3.278670 
# 
# 
# High freq. dielectric constant tensor:
#      x y z
#    x 1.740990 0.000000 0.000000 
#    y 0.000000 1.721000 0.000000 
#    z 0.000000 0.000000 1.701550 
# 
# From -- ./inp_files/10409.got.cif
#   From: 2010.06.25/outbox.cif.g09.slc.cpg/sg71_6_cif.got.tgz:10409.got - 2010.06.28 04:59:45.
