data_PCOD8288073
_publ_section_title
;
Structure prediction by ZEFSAII (Michael W. Deem and Ramdas Pophale) SiO2 
 PCOD8288073
Probable space group: I M M M
;
_chemical_formula_sum "Si O2"
_cell_formula_units_Z 88
_cell_length_a 11.576139
_cell_length_b 18.504575
_cell_length_c 20.927441
_cell_angle_alpha 90.000000
_cell_angle_beta 90.000000
_cell_angle_gamma 90.000000
_cell_volume 4482.899204
_symmetry_space_group_name_H-M "I M M M"
_symmetry_group_IT_number 71
_symmetry_cell_setting 'orthorhombic'
loop_
_space_group_symop_operation_xyz
x,y,z
-x,-y,z
x,-y,-z
-x,y,-z
-x,-y,-z
x,y,-z
-x,y,z
x,-y,z
1/2+x,1/2+y,1/2+z
1/2-x,1/2-y,1/2+z
1/2+x,1/2-y,1/2-z
1/2-x,1/2+y,1/2-z
1/2-x,1/2-y,1/2-z
1/2+x,1/2+y,1/2-z
1/2-x,1/2+y,1/2+z
1/2+x,1/2-y,1/2+z
loop_
_atom_site_type_symbol
_atom_site_label
_atom_site_fract_x
_atom_site_fract_y
_atom_site_fract_z
Si Si1 0.785599 0.581408 0.218023
Si Si2 0.366265 0.915209 0.857465
Si Si3 0.242494 0.205574 0.075575
Si Si4 0.362378 0.418777 0.000000
Si Si5 0.500000 0.920406 0.374637
Si Si6 0.135054 0.162340 0.375184
Si Si7 0.000000 0.735707 0.926994
O O1 0.736836 0.500000 0.222953
O O2 0.828617 0.608872 0.286612
O O3 0.890339 0.585556 0.169836
O O4 0.685663 0.633232 0.191400
O O5 0.500000 0.894017 0.869112
O O6 0.280350 0.875865 0.907364
O O7 0.348780 0.000000 0.867876
O O8 0.334388 0.254494 0.113588
O O9 0.114934 0.226845 0.102321
O O10 0.252239 0.218153 0.000000
O O11 0.312879 0.381441 0.936109
O O12 0.315734 0.500000 0.000000
O O13 0.500000 0.414740 0.000000
O O14 0.500000 0.851615 0.421646
O O15 0.500000 0.000000 0.409558
O O16 0.000000 0.151900 0.370494
O O17 0.000000 0.756967 0.000000
#
# Coordination Sequence:
#
# PCOD8288073 Si02
#       7
#    16  16  16   8   8  16   8
#     4  10  20  37  59  85 121 159 199 246 292 350
#     4  10  22  42  67  91 115 149 197 253 310 361
#     4  11  23  41  63  87 120 155 194 249 305 362
#     4   9  18  32  50  75 116 164 199 231 279 340
#     4  10  18  35  62  85 114 162 206 241 287 341
#     4  11  21  34  55  87 123 161 201 241 295 350
#     4  10  22  41  59  86 124 158 196 243 295 353
#
# _framework density 19.630154000000001
#
# number of rings (size 3 to 8) (size 9 to 14) (size 15 to 20)
#    0.000    1.727    3.636    1.091    0.000    3.455 
#    1.636    1.364    0.000    1.636    0.000    0.000 
#    0.000    0.000    0.000    0.000    0.000    0.000 
#
# Total GULP energy -545545.826138 kJ/mol
# GULP energy per Si atom -12398.768776 kJ/mol
# Density = 1.958547 g / cm^3
# Si number density = 19.630154 Si / 1000 Ang^3
#
#
#
# Elastic Constant Matrix: (Units=GPa)
#
#
# Indices 1 2 3 4 5 6 
#
# 1 102.1022 52.4862 33.2327 0.0000 0.0000 0.0000
# 2 52.4862 96.5383 31.5543 0.0000 0.0000 0.0000
# 3 33.2327 31.5543 40.7278 0.0000 0.0000 0.0000
# 4 0.0000 0.0000 0.0000 31.5487 0.0000 0.0000
# 5 0.0000 0.0000 0.0000 0.0000 48.9497 0.0000
# 6 0.0000 0.0000 0.0000 0.0000 0.0000 34.1765
#
#
#
# Elastic Compliance Matrix: (Units=1/GPa)
#
#
# Indices 1 2 3 4 5 6 
#
# 1 0.015369 -0.005700 -0.008124 0.000000 0.000000 0.000000
# 2 -0.005700 0.015986 -0.007734 0.000000 0.000000 0.000000
# 3 -0.008124 -0.007734 0.037174 0.000000 0.000000 0.000000
# 4 0.000000 0.000000 0.000000 0.031697 0.000000 0.000000
# 5 0.000000 0.000000 0.000000 0.000000 0.020429 0.000000
# 6 0.000000 0.000000 0.000000 0.000000 0.000000 0.029260
#
#
# Mechanical properties :
#
#
# Convention : Reuss Voigt Hill
#
# Bulk Modulus (GPa) = 39.35124 52.65721 46.00422
# Shear Modulus (GPa) = 24.81378 31.07465 27.94422
#
# Velocity S-wave (km/s) = 3.55923 3.98302 3.77707
# Velocity P-wave (km/s) = 6.08117 6.93076 6.51982
#
# Compressibility (1/GPa) = 0.02541216
#
# Stress axis : x y z
#
# Youngs Moduli (GPa) = 65.06771 62.55647 26.90050
#
# Poissons Ratio (x) = 0.35659 0.21854
# Poissons Ratio (y) = 0.37090 0.20804
# Poissons Ratio (z) = 0.52861 0.48380
#
# Static dielectric constant tensor:
#      x y z
#    x 3.544170 0.000000 0.000000 
#    y 0.000000 3.580140 0.000000 
#    z 0.000000 0.000000 3.464030 
# 
# 
# High freq. dielectric constant tensor:
#      x y z
#    x 1.764970 0.000000 0.000000 
#    y 0.000000 1.762730 0.000000 
#    z 0.000000 0.000000 1.748580 
# 
# From -- ./inp_files/43372.got.cif
#   From: 2010.06.25/outbox.cif.g09.slc.cpg/sg71_22_cif.got.tgz:43372.got - 2010.06.28 04:59:45.
