data_PCOD8288041
_publ_section_title
;
Structure prediction by ZEFSAII (Michael W. Deem and Ramdas Pophale) SiO2 
 PCOD8288041
Probable space group: I M M M
;
_chemical_formula_sum "Si O2"
_cell_formula_units_Z 64
_cell_length_a 15.888833
_cell_length_b 10.630422
_cell_length_c 20.815354
_cell_angle_alpha 90.000000
_cell_angle_beta 90.000000
_cell_angle_gamma 90.000000
_cell_volume 3515.817365
_symmetry_space_group_name_H-M "I M M M"
_symmetry_group_IT_number 71
_symmetry_cell_setting 'orthorhombic'
loop_
_space_group_symop_operation_xyz
x,y,z
-x,-y,z
x,-y,-z
-x,y,-z
-x,-y,-z
x,y,-z
-x,y,z
x,-y,z
1/2+x,1/2+y,1/2+z
1/2-x,1/2-y,1/2+z
1/2+x,1/2-y,1/2-z
1/2-x,1/2+y,1/2-z
1/2-x,1/2-y,1/2-z
1/2+x,1/2+y,1/2-z
1/2-x,1/2+y,1/2+z
1/2+x,1/2-y,1/2+z
loop_
_atom_site_type_symbol
_atom_site_label
_atom_site_fract_x
_atom_site_fract_y
_atom_site_fract_z
Si Si1 0.347926 0.500000 0.726133
Si Si2 0.707757 0.258604 0.679930
Si Si3 0.500000 0.769097 0.889108
Si Si4 0.000000 0.000000 0.323714
Si Si5 0.500000 0.000000 0.794056
Si Si6 0.664856 0.000000 0.290813
Si Si7 0.326572 0.145244 0.071463
O O1 0.358514 0.625073 0.682021
O O2 0.415699 0.500000 0.781953
O O3 0.252259 0.500000 0.751696
O O4 0.750000 0.250000 0.750000
O O5 0.660919 0.126376 0.665681
O O6 0.774004 0.277454 0.623239
O O7 0.500000 0.625050 0.866134
O O8 0.418562 0.793630 0.932343
O O9 0.500000 0.869083 0.831606
O O10 0.585191 0.000000 0.754557
O O11 0.332433 0.000000 0.093427
O O12 0.286650 0.155951 0.000000
#
# Coordination Sequence:
#
# PCOD8288041 Si02
#       7
#     8  16   8   4   4   8  16
#     4  10  18  34  50  78 115 152 195 235 284 335
#     4  10  19  34  56  79 111 148 191 242 286 335
#     4  12  21  35  54  83 124 162 200 232 283 357
#     4  12  24  34  55  90 123 166 190 244 302 342
#     4  12  20  34  61  90 121 160 198 238 296 352
#     4  10  20  32  52  84 115 146 187 245 294 341
#     4  11  22  38  59  85 115 161 206 240 288 356
#
# _framework density 18.203448000000002
#
# number of rings (size 3 to 8) (size 9 to 14) (size 15 to 20)
#    0.000    1.250    2.500    7.875    0.000    1.000 
#    0.000    3.125    0.000    0.000    0.000    5.250 
#    0.000    0.000    0.000    0.000    0.000    0.000 
#
# Total GULP energy -396578.290930 kJ/mol
# GULP energy per Si atom -12393.071592 kJ/mol
# Density = 1.816202 g / cm^3
# Si number density = 18.203448 Si / 1000 Ang^3
#
#
#
# Elastic Constant Matrix: (Units=GPa)
#
#
# Indices 1 2 3 4 5 6 
#
# 1 61.9639 23.3423 33.9502 0.0000 0.0000 0.0000
# 2 23.3423 188.8336 40.5076 0.0000 0.0000 0.0000
# 3 33.9502 40.5076 91.3702 0.0000 0.0000 0.0000
# 4 0.0000 0.0000 0.0000 23.6143 0.0000 0.0000
# 5 0.0000 0.0000 0.0000 0.0000 23.7202 0.0000
# 6 0.0000 0.0000 0.0000 0.0000 0.0000 3.2906
#
#
#
# Elastic Compliance Matrix: (Units=1/GPa)
#
#
# Indices 1 2 3 4 5 6 
#
# 1 0.020430 -0.000991 -0.007152 0.000000 0.000000 0.000000
# 2 -0.000991 0.005900 -0.002247 0.000000 0.000000 0.000000
# 3 -0.007152 -0.002247 0.014598 0.000000 0.000000 0.000000
# 4 0.000000 0.000000 0.000000 0.042347 0.000000 0.000000
# 5 0.000000 0.000000 0.000000 0.000000 0.042158 0.000000
# 6 0.000000 0.000000 0.000000 0.000000 0.000000 0.303896
#
#
# Mechanical properties :
#
#
# Convention : Reuss Voigt Hill
#
# Bulk Modulus (GPa) = 49.63322 59.75199 54.69261
# Shear Modulus (GPa) = 10.94505 26.41620 18.68063
#
# Velocity S-wave (km/s) = 2.45473 3.81355 3.20693
# Velocity P-wave (km/s) = 5.94637 7.23095 6.61989
#
# Compressibility (1/GPa) = 0.02014780
#
# Stress axis : x y z
#
# Youngs Moduli (GPa) = 48.94677 169.48218 68.50136
#
# Poissons Ratio (x) = 0.16801 0.48991
# Poissons Ratio (y) = 0.04852 0.15396
# Poissons Ratio (z) = 0.35006 0.38091
#
# Static dielectric constant tensor:
#      x y z
#    x 3.225030 0.000000 0.000000 
#    y 0.000000 5.114640 0.000000 
#    z 0.000000 0.000000 3.038700 
# 
# 
# High freq. dielectric constant tensor:
#      x y z
#    x 1.679330 0.000000 0.000000 
#    y 0.000000 1.739100 0.000000 
#    z 0.000000 0.000000 1.669470 
# 
# From -- ./inp_files/23291.got.cif
#   From: 2010.06.25/outbox.cif.g09.slc.cpg/sg71_12_cif.got.tgz:23291.got - 2010.06.28 04:59:45.
