data_PCOD8288482
_publ_section_title
;
Structure prediction by ZEFSAII (Michael W. Deem and Ramdas Pophale) SiO2 
 PCOD8288482
Probable space group: I M M M
;
_chemical_formula_sum "Si O2"
_cell_formula_units_Z 88
_cell_length_a 9.409864
_cell_length_b 18.524828
_cell_length_c 28.554209
_cell_angle_alpha 90.000000
_cell_angle_beta 90.000000
_cell_angle_gamma 90.000000
_cell_volume 4977.458697
_symmetry_space_group_name_H-M "I M M M"
_symmetry_group_IT_number 71
_symmetry_cell_setting 'orthorhombic'
loop_
_space_group_symop_operation_xyz
x,y,z
-x,-y,z
x,-y,-z
-x,y,-z
-x,-y,-z
x,y,-z
-x,y,z
x,-y,z
1/2+x,1/2+y,1/2+z
1/2-x,1/2-y,1/2+z
1/2+x,1/2-y,1/2-z
1/2-x,1/2+y,1/2-z
1/2-x,1/2-y,1/2-z
1/2+x,1/2+y,1/2-z
1/2-x,1/2+y,1/2+z
1/2+x,1/2-y,1/2+z
loop_
_atom_site_type_symbol
_atom_site_label
_atom_site_fract_x
_atom_site_fract_y
_atom_site_fract_z
Si Si1 0.161707 0.000000 0.578370
Si Si2 0.334596 0.856462 0.727814
Si Si3 0.331025 0.741583 0.500000
Si Si4 0.168927 0.151536 0.912239
Si Si5 0.169285 0.000000 0.052880
Si Si6 0.165992 0.202292 0.812080
Si Si7 0.161978 0.114998 0.500000
Si Si8 0.667724 0.000000 0.673387
O O1 0.191652 0.069728 0.546781
O O2 0.264260 0.000000 0.622461
O O3 0.000000 0.000000 0.596442
O O4 0.500000 0.861509 0.740773
O O5 0.247272 0.848536 0.775537
O O6 0.302933 0.787052 0.695342
O O7 0.283003 0.928559 0.701348
O O8 0.500000 0.744445 0.500000
O O9 0.272290 0.700803 0.545801
O O10 0.273354 0.821493 0.500000
O O11 0.225754 0.182293 0.863188
O O12 0.000000 0.152873 0.913023
O O13 0.225563 0.070167 0.919571
O O14 0.000000 0.000000 0.050758
O O15 0.229305 0.000000 0.000000
O O16 0.000000 0.184934 0.806913
O O17 0.000000 0.143140 0.500000
O O18 0.500000 0.000000 0.665983
#
# Coordination Sequence:
#
# PCOD8288482 Si02
#       8
#     8  16   8  16   8  16   8   8
#     4   9  20  38  55  73 103 142 176 209 249 300
#     4   9  19  35  51  71 103 134 165 207 256 304
#     4  10  19  30  51  80 105 132 168 214 260 306
#     4   9  17  28  46  74 104 132 166 210 255 298
#     4   9  14  25  42  66 102 134 157 193 249 299
#     4   9  18  33  52  73 100 132 168 211 250 294
#     4   9  20  38  53  71 106 142 172 209 252 300
#     4  10  21  34  54  81 107 135 167 213 265 308
#
# _framework density 17.679704999999998
#
# number of rings (size 3 to 8) (size 9 to 14) (size 15 to 20)
#    0.000    2.818    0.909    0.545    2.545    2.182 
#    0.000    2.727    0.000    0.000    0.000    2.545 
#    0.000    0.000    0.000    0.000    0.000    0.000 
#
# Total GULP energy -545568.867699 kJ/mol
# GULP energy per Si atom -12399.292448 kJ/mol
# Density = 1.763947 g / cm^3
# Si number density = 17.679705 Si / 1000 Ang^3
#
#
#
# Elastic Constant Matrix: (Units=GPa)
#
#
# Indices 1 2 3 4 5 6 
#
# 1 28.8685 32.3912 41.6940 0.0000 0.0000 0.0000
# 2 32.3912 134.8820 81.3519 0.0000 0.0000 0.0000
# 3 41.6940 81.3519 171.7800 0.0000 0.0000 0.0000
# 4 0.0000 0.0000 0.0000 15.2057 0.0000 0.0000
# 5 0.0000 0.0000 0.0000 0.0000 26.8806 0.0000
# 6 0.0000 0.0000 0.0000 0.0000 0.0000 17.1298
#
#
#
# Elastic Compliance Matrix: (Units=1/GPa)
#
#
# Indices 1 2 3 4 5 6 
#
# 1 0.058517 -0.007680 -0.010566 0.000000 0.000000 0.000000
# 2 -0.007680 0.011386 -0.003528 0.000000 0.000000 0.000000
# 3 -0.010566 -0.003528 0.010057 0.000000 0.000000 0.000000
# 4 0.000000 0.000000 0.000000 0.065765 0.000000 0.000000
# 5 0.000000 0.000000 0.000000 0.000000 0.037202 0.000000
# 6 0.000000 0.000000 0.000000 0.000000 0.000000 0.058378
#
#
# Mechanical properties :
#
#
# Convention : Reuss Voigt Hill
#
# Bulk Modulus (GPa) = 27.46357 71.82275 49.64316
# Shear Modulus (GPa) = 16.83557 23.84943 20.34250
#
# Velocity S-wave (km/s) = 3.08921 3.67682 3.39575
# Velocity P-wave (km/s) = 5.31902 7.66407 6.59659
#
# Compressibility (1/GPa) = 0.03641187
#
# Stress axis : x y z
#
# Youngs Moduli (GPa) = 17.08900 87.82589 99.43410
#
# Poissons Ratio (x) = 0.67448 1.05063
# Poissons Ratio (y) = 0.13124 0.35083
# Poissons Ratio (z) = 0.18056 0.30987
#
# Static dielectric constant tensor:
#      x y z
#    x 2.917140 0.000000 0.000000 
#    y 0.000000 3.412940 0.000000 
#    z 0.000000 0.000000 3.401760 
# 
# 
# High freq. dielectric constant tensor:
#      x y z
#    x 1.646790 0.000000 0.000000 
#    y 0.000000 1.693310 0.000000 
#    z 0.000000 0.000000 1.690640 
# 
# From -- ./inp_files/68109.got.cif
#   From: 2010.06.25/outbox.cif.g09.slc.cpg/sg71_35_cif.got.tgz:68109.got - 2010.06.28 04:59:45.
