data_PCOD8288136
_publ_section_title
;
Structure prediction by ZEFSAII (Michael W. Deem and Ramdas Pophale) SiO2 
 PCOD8288136
Probable space group: I M M M
;
_chemical_formula_sum "Si O2"
_cell_formula_units_Z 104
_cell_length_a 18.685707
_cell_length_b 22.926974
_cell_length_c 13.897830
_cell_angle_alpha 90.000000
_cell_angle_beta 90.000000
_cell_angle_gamma 90.000000
_cell_volume 5953.923745
_symmetry_space_group_name_H-M "I M M M"
_symmetry_group_IT_number 71
_symmetry_cell_setting 'orthorhombic'
loop_
_space_group_symop_operation_xyz
x,y,z
-x,-y,z
x,-y,-z
-x,y,-z
-x,-y,-z
x,y,-z
-x,y,z
x,-y,z
1/2+x,1/2+y,1/2+z
1/2-x,1/2-y,1/2+z
1/2+x,1/2-y,1/2-z
1/2-x,1/2+y,1/2-z
1/2-x,1/2-y,1/2-z
1/2+x,1/2+y,1/2-z
1/2-x,1/2+y,1/2+z
1/2+x,1/2-y,1/2+z
loop_
_atom_site_type_symbol
_atom_site_label
_atom_site_fract_x
_atom_site_fract_y
_atom_site_fract_z
Si Si1 0.153611 0.894294 0.220695
Si Si2 0.080430 0.660635 0.889621
Si Si3 0.792667 0.660976 0.764150
Si Si4 0.919105 0.148993 0.392606
Si Si5 0.803553 0.243973 0.389518
Si Si6 0.917208 0.000000 0.885997
Si Si7 0.080484 0.202419 0.108198
O O1 0.239335 0.892536 0.236182
O O2 0.114861 0.900514 0.323870
O O3 0.133967 0.830292 0.179539
O O4 0.126390 0.944236 0.150438
O O5 0.137213 0.632386 0.815079
O O6 0.084306 0.729516 0.871587
O O7 0.000000 0.638204 0.866837
O O8 0.099970 0.645192 0.000000
O O9 0.812929 0.695338 0.666988
O O10 0.758089 0.704228 0.842891
O O11 0.914049 0.123349 0.500000
O O12 0.878711 0.210454 0.384361
O O13 0.000000 0.161762 0.361253
O O14 0.781770 0.257276 0.500000
O O15 0.000000 0.000000 0.850269
O O16 0.915053 0.000000 0.000000
O O17 0.000000 0.178961 0.124838
O O18 0.104550 0.188069 0.000000
#
# Coordination Sequence:
#
# PCOD8288136 Si02
#       7
#    16  16  16  16  16   8  16
#     4  11  21  32  47  67  92 124 161 202 245 279
#     4   9  17  29  47  72 101 130 158 191 232 283
#     4  10  19  28  43  66  93 126 160 196 238 287
#     4   9  17  29  45  65  91 126 161 187 219 271
#     4   9  17  27  40  63  95 129 162 195 231 275
#     4  11  24  40  57  75  94 119 157 205 245 272
#     4   9  16  26  43  68  98 132 166 198 235 280
#
# _framework density 17.467472000000001
#
# number of rings (size 3 to 8) (size 9 to 14) (size 15 to 20)
#    0.000    2.385    0.000    6.000    0.000    6.154 
#    0.000    0.385    0.000    1.385    0.000    0.538 
#    0.000    1.846    0.000    0.000    0.000    0.000 
#
# Total GULP energy -644670.328122 kJ/mol
# GULP energy per Si atom -12397.506310 kJ/mol
# Density = 1.742771 g / cm^3
# Si number density = 17.467472 Si / 1000 Ang^3
#
#
#
# Elastic Constant Matrix: (Units=GPa)
#
#
# Indices 1 2 3 4 5 6 
#
# 1 111.2822 23.3641 41.2192 0.0000 0.0000 0.0000
# 2 23.3641 31.6358 21.4653 0.0000 0.0000 0.0000
# 3 41.2192 21.4653 96.5514 0.0000 0.0000 0.0000
# 4 0.0000 0.0000 0.0000 20.1270 0.0000 0.0000
# 5 0.0000 0.0000 0.0000 0.0000 30.4145 0.0000
# 6 0.0000 0.0000 0.0000 0.0000 0.0000 13.7859
#
#
#
# Elastic Compliance Matrix: (Units=1/GPa)
#
#
# Indices 1 2 3 4 5 6 
#
# 1 0.011604 -0.006134 -0.003590 0.000000 0.000000 0.000000
# 2 -0.006134 0.040467 -0.006378 0.000000 0.000000 0.000000
# 3 -0.003590 -0.006378 0.013308 0.000000 0.000000 0.000000
# 4 0.000000 0.000000 0.000000 0.049685 0.000000 0.000000
# 5 0.000000 0.000000 0.000000 0.000000 0.032879 0.000000
# 6 0.000000 0.000000 0.000000 0.000000 0.000000 0.072538
#
#
# Mechanical properties :
#
#
# Convention : Reuss Voigt Hill
#
# Bulk Modulus (GPa) = 30.14327 45.72965 37.93646
# Shear Modulus (GPa) = 18.95785 23.09352 21.02569
#
# Velocity S-wave (km/s) = 3.29800 3.64000 3.47321
# Velocity P-wave (km/s) = 5.63885 6.62592 6.15221
#
# Compressibility (1/GPa) = 0.03317491
#
# Stress axis : x y z
#
# Youngs Moduli (GPa) = 86.17878 24.71120 75.14363
#
# Poissons Ratio (x) = 0.15157 0.26978
# Poissons Ratio (y) = 0.52861 0.47927
# Poissons Ratio (z) = 0.30939 0.15761
#
# Static dielectric constant tensor:
#      x y z
#    x 3.603460 0.000000 0.000000 
#    y 0.000000 2.638580 0.000000 
#    z 0.000000 0.000000 3.530220 
# 
# 
# High freq. dielectric constant tensor:
#      x y z
#    x 1.683570 0.000000 0.000000 
#    y 0.000000 1.598440 0.000000 
#    z 0.000000 0.000000 1.692610 
# 
# From -- ./inp_files/36931.got.cif
#   From: 2010.06.25/outbox.cif.g09.slc.cpg/sg71_19_cif.got.tgz:36931.got - 2010.06.28 04:59:45.
