data_PCOD8288358
_publ_section_title
;
Structure prediction by ZEFSAII (Michael W. Deem and Ramdas Pophale) SiO2 
 PCOD8288358
Probable space group: I M M M
;
_chemical_formula_sum "Si O2"
_cell_formula_units_Z 88
_cell_length_a 13.747839
_cell_length_b 27.283072
_cell_length_c 13.837395
_cell_angle_alpha 90.000000
_cell_angle_beta 90.000000
_cell_angle_gamma 90.000000
_cell_volume 5190.175521
_symmetry_space_group_name_H-M "I M M M"
_symmetry_group_IT_number 71
_symmetry_cell_setting 'orthorhombic'
loop_
_space_group_symop_operation_xyz
x,y,z
-x,-y,z
x,-y,-z
-x,y,-z
-x,-y,-z
x,y,-z
-x,y,z
x,-y,z
1/2+x,1/2+y,1/2+z
1/2-x,1/2-y,1/2+z
1/2+x,1/2-y,1/2-z
1/2-x,1/2+y,1/2-z
1/2-x,1/2-y,1/2-z
1/2+x,1/2+y,1/2-z
1/2-x,1/2+y,1/2+z
1/2+x,1/2-y,1/2+z
loop_
_atom_site_type_symbol
_atom_site_label
_atom_site_fract_x
_atom_site_fract_y
_atom_site_fract_z
Si Si1 0.615505 0.000000 0.107412
Si Si2 0.756782 0.225701 0.386092
Si Si3 0.106070 0.860625 0.613778
Si Si4 0.888307 0.411381 0.739471
Si Si5 0.759326 0.945099 0.387125
Si Si6 0.614316 0.202268 0.776597
O O1 0.651569 0.049799 0.160229
O O2 0.500000 0.000000 0.101540
O O3 0.660756 0.000000 0.000000
O O4 0.732730 0.224502 0.500000
O O5 0.819751 0.179845 0.347544
O O6 0.655710 0.222048 0.326536
O O7 0.821774 0.273381 0.361921
O O8 0.097081 0.854001 0.500000
O O9 0.144627 0.914564 0.640719
O O10 0.000000 0.853922 0.662181
O O11 0.834228 0.420471 0.839713
O O12 0.872335 0.355678 0.706116
O O13 0.000000 0.422210 0.761387
O O14 0.738168 0.943160 0.500000
O O15 0.776769 0.000000 0.349823
O O16 0.500000 0.216613 0.783189
#
# Coordination Sequence:
#
# PCOD8288358 Si02
#       6
#     8  16  16  16  16  16
#     4   9  18  32  49  69  96 133 171 205 243 286
#     4  10  20  35  53  75 104 136 169 208 257 309
#     4   9  17  30  48  69  96 131 165 198 243 298
#     4  10  19  32  49  71 101 132 164 204 248 299
#     4  10  19  30  46  71 103 133 162 200 245 298
#     4  10  21  34  52  78 104 133 171 214 256 304
#
# _framework density 16.955110000000001
#
# number of rings (size 3 to 8) (size 9 to 14) (size 15 to 20)
#    0.000    2.273    2.727    0.545    0.000    2.909 
#    0.000    6.364    0.000    0.000    0.000    0.000 
#    0.000    1.455    0.000    0.000    0.000    0.000 
#
# Total GULP energy -545419.880359 kJ/mol
# GULP energy per Si atom -12395.906372 kJ/mol
# Density = 1.691652 g / cm^3
# Si number density = 16.955110 Si / 1000 Ang^3
#
#
#
# Elastic Constant Matrix: (Units=GPa)
#
#
# Indices 1 2 3 4 5 6 
#
# 1 63.5924 24.7811 20.3706 -0.0004 -0.0001 0.0001
# 2 24.7811 92.2567 12.5145 -0.0001 0.0000 0.0000
# 3 20.3706 12.5145 51.1344 0.0004 0.0004 -0.0006
# 4 -0.0004 -0.0001 0.0004 22.4707 0.0001 -0.0003
# 5 -0.0001 0.0000 0.0004 0.0001 14.6068 0.0000
# 6 0.0001 0.0000 -0.0006 -0.0003 0.0000 14.5963
#
#
#
# Elastic Compliance Matrix: (Units=1/GPa)
#
#
# Indices 1 2 3 4 5 6 
#
# 1 0.019576 -0.004345 -0.006735 0.000000 0.000000 0.000000
# 2 -0.004345 0.012176 -0.001249 0.000000 0.000000 0.000000
# 3 -0.006735 -0.001249 0.022545 -0.000001 -0.000001 0.000001
# 4 0.000000 0.000000 -0.000001 0.044502 0.000000 0.000001
# 5 0.000000 0.000000 -0.000001 0.000000 0.068461 0.000000
# 6 0.000000 0.000000 0.000001 0.000001 0.000000 0.068511
#
#
# Mechanical properties :
#
#
# Convention : Reuss Voigt Hill
#
# Bulk Modulus (GPa) = 33.73948 35.81286 34.77617
# Shear Modulus (GPa) = 18.49742 20.28925 19.39333
#
# Velocity S-wave (km/s) = 3.30656 3.46301 3.38569
# Velocity P-wave (km/s) = 5.87539 6.09573 5.98658
#
# Compressibility (1/GPa) = 0.02963887
#
# Stress axis : x y z
#
# Youngs Moduli (GPa) = 51.08389 82.13032 44.35557
#
# Poissons Ratio (x) = 0.35682 0.29874
# Poissons Ratio (y) = 0.22194 0.05540
# Poissons Ratio (z) = 0.34406 0.10259
#
# Static dielectric constant tensor:
#      x y z
#    x 3.224500 0.000000 0.000000 
#    y 0.000000 3.446440 0.000000 
#    z 0.000000 0.000000 2.984020 
# 
# 
# High freq. dielectric constant tensor:
#      x y z
#    x 1.642840 0.000000 0.000000 
#    y 0.000000 1.670950 0.000000 
#    z 0.000000 0.000000 1.626500 
# 
# From -- ./inp_files/22312.got.cif
#   From: 2010.06.25/outbox.cif.g09.slc.cpg/sg71_12_cif.got.tgz:22312.got - 2010.06.28 04:59:45.
