data_PCOD8288498
_publ_section_title
;
Structure prediction by ZEFSAII (Michael W. Deem and Ramdas Pophale) SiO2 
 PCOD8288498
Probable space group: I M M M
;
_chemical_formula_sum "Si O2"
_cell_formula_units_Z 80
_cell_length_a 32.585658
_cell_length_b 9.126153
_cell_length_c 18.818665
_cell_angle_alpha 90.000000
_cell_angle_beta 90.000000
_cell_angle_gamma 90.000000
_cell_volume 5596.326599
_symmetry_space_group_name_H-M "I M M M"
_symmetry_group_IT_number 71
_symmetry_cell_setting 'orthorhombic'
loop_
_space_group_symop_operation_xyz
x,y,z
-x,-y,z
x,-y,-z
-x,y,-z
-x,-y,-z
x,y,-z
-x,y,z
x,-y,z
1/2+x,1/2+y,1/2+z
1/2-x,1/2-y,1/2+z
1/2+x,1/2-y,1/2-z
1/2-x,1/2+y,1/2-z
1/2-x,1/2-y,1/2-z
1/2+x,1/2+y,1/2-z
1/2-x,1/2+y,1/2+z
1/2+x,1/2-y,1/2+z
loop_
_atom_site_type_symbol
_atom_site_label
_atom_site_fract_x
_atom_site_fract_y
_atom_site_fract_z
Si Si1 0.377843 0.830855 0.872764
Si Si2 0.664196 0.332777 0.000000
Si Si3 0.953471 0.830243 0.582304
Si Si4 0.808489 0.667088 0.732855
Si Si5 0.770290 0.171019 0.142958
Si Si6 0.261080 0.832460 0.500000
O O1 0.352244 0.744760 0.930636
O O2 0.423635 0.764533 0.867458
O O3 0.354271 0.811575 0.798014
O O4 0.380508 0.000000 0.894872
O O5 0.712561 0.320448 0.000000
O O6 0.648805 0.500000 0.000000
O O7 0.941555 0.803358 0.500000
O O8 0.000000 0.778639 0.596336
O O9 0.948582 0.000000 0.601657
O O10 0.801171 0.500000 0.757673
O O11 0.803670 0.773364 0.799933
O O12 0.775286 0.707041 0.671911
O O13 0.776725 0.000000 0.129829
O O14 0.778739 0.253675 0.069553
O O15 0.276010 0.000000 0.500000
#
# Coordination Sequence:
#
# PCOD8288498 Si02
#       6
#    16   8  16  16  16   8
#     4  11  20  30  45  63  84 109 142 184 221 254
#     4  11  21  29  40  60  83 111 147 179 213 258
#     4   9  18  31  44  60  84 112 142 177 216 257
#     4   9  19  32  43  60  86 111 138 177 220 256
#     4  10  19  31  46  62  83 110 143 179 213 255
#     4  11  21  31  45  62  84 113 144 180 220 258
#
# _framework density 14.295090999999999
#
# number of rings (size 3 to 8) (size 9 to 14) (size 15 to 20)
#    0.000    2.000    3.000    2.400    0.000    3.600 
#    0.000    1.000    0.000    0.000    0.000    0.000 
#    0.000    0.000    0.000    0.900    0.000   16.800 
#
# Total GULP energy -496046.805601 kJ/mol
# GULP energy per Si atom -12401.170140 kJ/mol
# Density = 1.426255 g / cm^3
# Si number density = 14.295091 Si / 1000 Ang^3
#
#
#
# Elastic Constant Matrix: (Units=GPa)
#
#
# Indices 1 2 3 4 5 6 
#
# 1 69.2516 40.7596 30.4241 0.0000 0.0000 0.0000
# 2 40.7596 99.7834 53.8815 0.0000 0.0000 0.0000
# 3 30.4241 53.8815 81.9183 0.0000 0.0000 0.0000
# 4 0.0000 0.0000 0.0000 25.8729 0.0000 0.0000
# 5 0.0000 0.0000 0.0000 0.0000 17.4824 0.0000
# 6 0.0000 0.0000 0.0000 0.0000 0.0000 23.2997
#
#
#
# Elastic Compliance Matrix: (Units=1/GPa)
#
#
# Indices 1 2 3 4 5 6 
#
# 1 0.019508 -0.006291 -0.003108 0.000000 0.000000 0.000000
# 2 -0.006291 0.017570 -0.009220 0.000000 0.000000 0.000000
# 3 -0.003108 -0.009220 0.019426 0.000000 0.000000 0.000000
# 4 0.000000 0.000000 0.000000 0.038650 0.000000 0.000000
# 5 0.000000 0.000000 0.000000 0.000000 0.057200 0.000000
# 6 0.000000 0.000000 0.000000 0.000000 0.000000 0.042919
#
#
# Mechanical properties :
#
#
# Convention : Reuss Voigt Hill
#
# Bulk Modulus (GPa) = 51.90210 55.67599 53.78904
# Shear Modulus (GPa) = 20.92634 21.72354 21.32494
#
# Velocity S-wave (km/s) = 3.83022 3.90250 3.86653
# Velocity P-wave (km/s) = 7.47979 7.70313 7.59228
#
# Compressibility (1/GPa) = 0.01926704
#
# Stress axis : x y z
#
# Youngs Moduli (GPa) = 51.26163 56.91471 51.47712
#
# Poissons Ratio (x) = 0.35802 0.15997
# Poissons Ratio (y) = 0.32246 0.47464
# Poissons Ratio (z) = 0.15930 0.52478
#
# Static dielectric constant tensor:
#      x y z
#    x 2.718880 0.000000 0.000000 
#    y 0.000000 2.923920 0.000000 
#    z 0.000000 0.000000 2.603060 
# 
# 
# High freq. dielectric constant tensor:
#      x y z
#    x 1.521170 0.000000 0.000000 
#    y 0.000000 1.562070 0.000000 
#    z 0.000000 0.000000 1.516940 
# 
# From -- ./inp_files/49158.got.cif
#   From: 2010.06.25/outbox.cif.g09.slc.cpg/sg71_25_cif.got.tgz:49158.got - 2010.06.28 04:59:45.
