data_PCOD8288901
_publ_section_title
;
Structure prediction by ZEFSAII (Michael W. Deem and Ramdas Pophale) SiO2 
 PCOD8288901
Probable space group: I M M M
;
_chemical_formula_sum "Si O2"
_cell_formula_units_Z 104
_cell_length_a 21.354274
_cell_length_b 27.984678
_cell_length_c 9.270324
_cell_angle_alpha 90.000000
_cell_angle_beta 90.000000
_cell_angle_gamma 90.000000
_cell_volume 5539.875926
_symmetry_space_group_name_H-M "I M M M"
_symmetry_group_IT_number 71
_symmetry_cell_setting 'orthorhombic'
loop_
_space_group_symop_operation_xyz
x,y,z
-x,-y,z
x,-y,-z
-x,y,-z
-x,-y,-z
x,y,-z
-x,y,z
x,-y,z
1/2+x,1/2+y,1/2+z
1/2-x,1/2-y,1/2+z
1/2+x,1/2-y,1/2-z
1/2-x,1/2+y,1/2-z
1/2-x,1/2-y,1/2-z
1/2+x,1/2+y,1/2-z
1/2-x,1/2+y,1/2+z
1/2+x,1/2-y,1/2+z
loop_
_atom_site_type_symbol
_atom_site_label
_atom_site_fract_x
_atom_site_fract_y
_atom_site_fract_z
Si Si1 0.241580 0.056073 0.839477
Si Si2 0.862045 0.444171 0.167880
Si Si3 0.500000 0.554173 0.829198
Si Si4 0.570550 0.868436 0.166324
Si Si5 0.319451 0.799716 0.168915
Si Si6 0.302785 0.307504 0.833610
Si Si7 0.629503 0.402037 0.167896
O O1 0.300016 0.075653 0.747561
O O2 0.177618 0.066968 0.758701
O O3 0.248227 0.000000 0.852648
O O4 0.242564 0.079163 0.000000
O O5 0.873943 0.500000 0.194507
O O6 0.919999 0.415506 0.236168
O O7 0.855053 0.432507 0.000000
O O8 0.500000 0.500000 0.765908
O O9 0.560593 0.583685 0.775923
O O10 0.500000 0.551414 0.000000
O O11 0.500000 0.849655 0.189433
O O12 0.617506 0.826625 0.217280
O O13 0.582455 0.882364 0.000000
O O14 0.327306 0.744374 0.216583
O O15 0.258944 0.822917 0.245358
O O16 0.308213 0.804244 0.000000
O O17 0.358043 0.345738 0.805165
O O18 0.283099 0.306774 0.000000
O O19 0.637843 0.415312 0.000000
#
# Coordination Sequence:
#
# PCOD8288901 Si02
#       7
#    16  16   8  16  16  16  16
#     4  10  20  33  51  76 104 134 170 214 264 313
#     4  10  21  36  54  77 104 134 170 214 260 305
#     4   9  18  32  49  71 103 141 177 215 260 311
#     4  10  21  36  53  75 104 140 177 209 251 305
#     4   9  18  34  53  75 103 134 167 208 259 311
#     4   9  18  32  52  78 103 128 167 216 262 306
#     4  10  19  32  51  76 103 136 177 218 262 311
#
# _framework density 18.772983
#
# number of rings (size 3 to 8) (size 9 to 14) (size 15 to 20)
#    0.000    2.385    0.000    2.308    0.000    6.769 
#    1.385    1.923    0.000    1.385    0.000    0.000 
#    0.000    0.000    0.000    0.000    0.000    0.000 
#
# Total GULP energy -644843.724700 kJ/mol
# GULP energy per Si atom -12400.840860 kJ/mol
# Density = 1.873026 g / cm^3
# Si number density = 18.772983 Si / 1000 Ang^3
#
#
#
# Elastic Constant Matrix: (Units=GPa)
#
#
# Indices 1 2 3 4 5 6 
#
# 1 143.9562 66.7825 47.2672 0.0000 0.0000 0.0000
# 2 66.7825 84.1846 38.4480 0.0000 0.0000 0.0000
# 3 47.2672 38.4480 71.0800 0.0000 0.0000 0.0000
# 4 0.0000 0.0000 0.0000 23.6588 0.0000 0.0000
# 5 0.0000 0.0000 0.0000 0.0000 26.0051 0.0000
# 6 0.0000 0.0000 0.0000 0.0000 0.0000 30.3948
#
#
#
# Elastic Compliance Matrix: (Units=1/GPa)
#
#
# Indices 1 2 3 4 5 6 
#
# 1 0.011665 -0.007585 -0.003654 0.000000 0.000000 0.000000
# 2 -0.007585 0.020708 -0.006157 0.000000 0.000000 0.000000
# 3 -0.003654 -0.006157 0.019829 0.000000 0.000000 0.000000
# 4 0.000000 0.000000 0.000000 0.042268 0.000000 0.000000
# 5 0.000000 0.000000 0.000000 0.000000 0.038454 0.000000
# 6 0.000000 0.000000 0.000000 0.000000 0.000000 0.032900
#
#
# Mechanical properties :
#
#
# Convention : Reuss Voigt Hill
#
# Bulk Modulus (GPa) = 57.44097 67.13514 62.28806
# Shear Modulus (GPa) = 24.22247 25.79329 25.00788
#
# Velocity S-wave (km/s) = 3.59595 3.71071 3.65378
# Velocity P-wave (km/s) = 6.92136 7.36196 7.14506
#
# Compressibility (1/GPa) = 0.01740918
#
# Stress axis : x y z
#
# Youngs Moduli (GPa) = 85.72583 48.29144 50.43027
#
# Poissons Ratio (x) = 0.36628 0.18430
# Poissons Ratio (y) = 0.65021 0.31051
# Poissons Ratio (z) = 0.31328 0.29734
#
# Static dielectric constant tensor:
#      x y z
#    x 3.467230 0.000000 0.000000 
#    y 0.000000 3.554700 0.000000 
#    z 0.000000 0.000000 3.417790 
# 
# 
# High freq. dielectric constant tensor:
#      x y z
#    x 1.719450 0.000000 0.000000 
#    y 0.000000 1.733850 0.000000 
#    z 0.000000 0.000000 1.719490 
# 
# From -- ./inp_files/11535.got.cif
#   From: 2010.06.25/outbox.cif.g09.slc.cpg/sg71_6_cif.got.tgz:11535.got - 2010.06.28 04:59:45.
