data_PCOD8288683
_publ_section_title
;
Structure prediction by ZEFSAII (Michael W. Deem and Ramdas Pophale) SiO2 
 PCOD8288683
Probable space group: I M M M
;
_chemical_formula_sum "Si O2"
_cell_formula_units_Z 104
_cell_length_a 26.668997
_cell_length_b 12.344850
_cell_length_c 17.893377
_cell_angle_alpha 90.000000
_cell_angle_beta 90.000000
_cell_angle_gamma 90.000000
_cell_volume 5890.942885
_symmetry_space_group_name_H-M "I M M M"
_symmetry_group_IT_number 71
_symmetry_cell_setting 'orthorhombic'
loop_
_space_group_symop_operation_xyz
x,y,z
-x,-y,z
x,-y,-z
-x,y,-z
-x,-y,-z
x,y,-z
-x,y,z
x,-y,z
1/2+x,1/2+y,1/2+z
1/2-x,1/2-y,1/2+z
1/2+x,1/2-y,1/2-z
1/2-x,1/2+y,1/2-z
1/2-x,1/2-y,1/2-z
1/2+x,1/2+y,1/2-z
1/2-x,1/2+y,1/2+z
1/2+x,1/2-y,1/2+z
loop_
_atom_site_type_symbol
_atom_site_label
_atom_site_fract_x
_atom_site_fract_y
_atom_site_fract_z
Si Si1 0.597449 0.375426 0.347747
Si Si2 0.239875 0.883312 0.413386
Si Si3 0.140015 0.763483 0.411701
Si Si4 0.807070 0.376339 0.699149
Si Si5 0.200912 0.214504 0.825289
Si Si6 0.558604 0.372530 0.188833
Si Si7 0.558555 0.621942 0.500000
O O1 0.581516 0.500000 0.349320
O O2 0.657169 0.363081 0.353122
O O3 0.573827 0.327939 0.271234
O O4 0.576077 0.318382 0.423264
O O5 0.247429 0.894422 0.500000
O O6 0.182894 0.851754 0.394376
O O7 0.280427 0.796777 0.387997
O O8 0.249831 0.000000 0.374529
O O9 0.130863 0.745890 0.500000
O O10 0.161785 0.651401 0.376461
O O11 0.088830 0.804739 0.373685
O O12 0.819653 0.500000 0.721203
O O13 0.823611 0.286843 0.759507
O O14 0.746696 0.364015 0.696115
O O15 0.500000 0.350414 0.175266
O O16 0.571301 0.500000 0.180506
O O17 0.581151 0.500000 0.500000
O O18 0.500000 0.619763 0.500000
#
# Coordination Sequence:
#
# PCOD8288683 Si02
#       7
#    16  16  16  16  16  16   8
#     4  10  19  32  51  76 107 138 167 203 252 307
#     4   9  18  31  48  72 105 139 168 203 247 299
#     4  10  20  35  52  74 103 138 173 209 259 313
#     4  10  20  34  51  74 103 137 174 211 253 304
#     4  10  19  31  50  77 103 134 171 211 250 298
#     4  10  20  34  54  79 104 130 167 217 267 313
#     4   9  18  32  50  74 105 139 169 199 245 304
#
# _framework density 17.654219999999999
#
# number of rings (size 3 to 8) (size 9 to 14) (size 15 to 20)
#    0.000    2.231    1.538    1.846    1.077    3.385 
#    0.000    0.769    0.000    0.462    0.000    1.077 
#    0.000    2.462    0.000    0.000    0.000    0.000 
#
# Total GULP energy -644377.588707 kJ/mol
# GULP energy per Si atom -12391.876706 kJ/mol
# Density = 1.761404 g / cm^3
# Si number density = 17.654220 Si / 1000 Ang^3
#
#
#
# Elastic Constant Matrix: (Units=GPa)
#
#
# Indices 1 2 3 4 5 6 
#
# 1 79.8811 10.7520 46.0346 0.0000 0.0000 0.0000
# 2 10.7520 45.5440 23.6020 0.0000 0.0000 0.0000
# 3 46.0346 23.6020 103.9326 0.0000 0.0000 0.0000
# 4 0.0000 0.0000 0.0000 5.5894 0.0000 0.0000
# 5 0.0000 0.0000 0.0000 0.0000 30.0168 0.0000
# 6 0.0000 0.0000 0.0000 0.0000 0.0000 5.1973
#
#
#
# Elastic Compliance Matrix: (Units=1/GPa)
#
#
# Indices 1 2 3 4 5 6 
#
# 1 0.016810 -0.000125 -0.007417 0.000000 0.000000 0.000000
# 2 -0.000125 0.024886 -0.005596 0.000000 0.000000 0.000000
# 3 -0.007417 -0.005596 0.014178 0.000000 0.000000 0.000000
# 4 0.000000 0.000000 0.000000 0.178910 0.000000 0.000000
# 5 0.000000 0.000000 0.000000 0.000000 0.033315 0.000000
# 6 0.000000 0.000000 0.000000 0.000000 0.000000 0.192408
#
#
# Mechanical properties :
#
#
# Convention : Reuss Voigt Hill
#
# Bulk Modulus (GPa) = 33.78639 43.34832 38.56735
# Shear Modulus (GPa) = 10.06748 18.09197 14.07972
#
# Velocity S-wave (km/s) = 2.39060 3.20472 2.82712
# Velocity P-wave (km/s) = 5.17681 6.18878 5.70528
#
# Compressibility (1/GPa) = 0.02959772
#
# Stress axis : x y z
#
# Youngs Moduli (GPa) = 59.48887 40.18274 70.53295
#
# Poissons Ratio (x) = 0.00501 0.52316
# Poissons Ratio (y) = 0.00742 0.39472
# Poissons Ratio (z) = 0.44124 0.22487
#
# Static dielectric constant tensor:
#      x y z
#    x 3.096650 0.000000 0.000000 
#    y 0.000000 3.127860 0.000000 
#    z 0.000000 0.000000 3.567760 
# 
# 
# High freq. dielectric constant tensor:
#      x y z
#    x 1.671180 0.000000 0.000000 
#    y 0.000000 1.647960 0.000000 
#    z 0.000000 0.000000 1.695960 
# 
# From -- ./inp_files/39467.got.cif
#   From: 2010.06.25/outbox.cif.g09.slc.cpg/sg71_20_cif.got.tgz:39467.got - 2010.06.28 04:59:45.
