data_PCOD8288701
_publ_section_title
;
Structure prediction by ZEFSAII (Michael W. Deem and Ramdas Pophale) SiO2 
 PCOD8288701
Probable space group: I M M M
;
_chemical_formula_sum "Si O2"
_cell_formula_units_Z 80
_cell_length_a 27.816555
_cell_length_b 9.694878
_cell_length_c 16.431646
_cell_angle_alpha 90.000000
_cell_angle_beta 90.000000
_cell_angle_gamma 90.000000
_cell_volume 4431.255190
_symmetry_space_group_name_H-M "I M M M"
_symmetry_group_IT_number 71
_symmetry_cell_setting 'orthorhombic'
loop_
_space_group_symop_operation_xyz
x,y,z
-x,-y,z
x,-y,-z
-x,y,-z
-x,-y,-z
x,y,-z
-x,y,z
x,-y,z
1/2+x,1/2+y,1/2+z
1/2-x,1/2-y,1/2+z
1/2+x,1/2-y,1/2-z
1/2-x,1/2+y,1/2-z
1/2-x,1/2-y,1/2-z
1/2+x,1/2+y,1/2-z
1/2-x,1/2+y,1/2+z
1/2+x,1/2-y,1/2+z
loop_
_atom_site_type_symbol
_atom_site_label
_atom_site_fract_x
_atom_site_fract_y
_atom_site_fract_z
Si Si1 0.684541 0.500000 0.909130
Si Si2 0.056121 0.000000 0.745040
Si Si3 0.763847 0.500000 0.339736
Si Si4 0.364316 0.000000 0.906180
Si Si5 0.373952 0.282580 0.176666
Si Si6 0.891861 0.000000 0.909260
Si Si7 0.319741 0.288228 0.344300
Si Si8 0.786780 0.500000 0.159829
O O1 0.652199 0.365393 0.895052
O O2 0.729814 0.500000 0.850258
O O3 0.704339 0.500000 0.000000
O O4 0.077786 0.861853 0.704443
O O5 0.066198 0.000000 0.842187
O O6 0.000000 0.000000 0.728977
O O7 0.805945 0.500000 0.407143
O O8 0.731512 0.635952 0.348202
O O9 0.794099 0.500000 0.256565
O O10 0.386159 0.868042 0.858230
O O11 0.381827 0.000000 0.000000
O O12 0.337135 0.281300 0.251677
O O13 0.858676 0.864875 0.899762
O O14 0.914357 0.000000 0.000000
O O15 0.312011 0.134378 0.379223
#
# Coordination Sequence:
#
# PCOD8288701 Si02
#       8
#     8   8   8   8  16   8  16   8
#     4  11  21  30  45  70 102 143 185 223 255 284
#     4   9  20  39  66  86  94 125 172 205 260 335
#     4  11  18  30  49  69 107 147 194 229 248 291
#     4  12  23  32  51  80 109 142 177 218 266 301
#     4  10  19  36  53  74 105 135 169 217 258 313
#     4   9  20  36  54  80 114 135 161 214 269 310
#     4  10  19  31  51  72 102 152 187 212 253 299
#     4  12  18  29  50  70 105 145 194 226 240 291
#
# _framework density 18.053574999999999
#
# number of rings (size 3 to 8) (size 9 to 14) (size 15 to 20)
#    0.000    1.600    4.000    3.600    0.000    2.600 
#    0.000    0.500    0.000   11.400    0.000    0.000 
#    0.000    6.400    0.000    0.000    0.000    0.000 
#
# Total GULP energy -495967.250272 kJ/mol
# GULP energy per Si atom -12399.181257 kJ/mol
# Density = 1.801248 g / cm^3
# Si number density = 18.053575 Si / 1000 Ang^3
#
#
#
# Elastic Constant Matrix: (Units=GPa)
#
#
# Indices 1 2 3 4 5 6 
#
# 1 90.2722 45.3659 17.9396 0.0000 0.0000 0.0000
# 2 45.3659 163.2475 31.5786 0.0000 0.0000 0.0000
# 3 17.9396 31.5786 85.7969 0.0000 0.0000 0.0000
# 4 0.0000 0.0000 0.0000 14.8664 0.0000 0.0000
# 5 0.0000 0.0000 0.0000 0.0000 10.2910 0.0000
# 6 0.0000 0.0000 0.0000 0.0000 0.0000 9.2132
#
#
#
# Elastic Compliance Matrix: (Units=1/GPa)
#
#
# Indices 1 2 3 4 5 6 
#
# 1 0.013053 -0.003337 -0.001501 0.000000 0.000000 0.000000
# 2 -0.003337 0.007448 -0.002044 0.000000 0.000000 0.000000
# 3 -0.001501 -0.002044 0.012722 0.000000 0.000000 0.000000
# 4 0.000000 0.000000 0.000000 0.067266 0.000000 0.000000
# 5 0.000000 0.000000 0.000000 0.000000 0.097172 0.000000
# 6 0.000000 0.000000 0.000000 0.000000 0.000000 0.108540
#
#
# Mechanical properties :
#
#
# Convention : Reuss Voigt Hill
#
# Bulk Modulus (GPa) = 51.38952 58.78723 55.08837
# Shear Modulus (GPa) = 15.31626 23.16962 19.24294
#
# Velocity S-wave (km/s) = 2.91585 3.58632 3.26832
# Velocity P-wave (km/s) = 6.31372 7.05565 6.69497
#
# Compressibility (1/GPa) = 0.01945922
#
# Stress axis : x y z
#
# Youngs Moduli (GPa) = 76.61134 134.25805 78.60702
#
# Poissons Ratio (x) = 0.44802 0.11799
# Poissons Ratio (y) = 0.25565 0.16065
# Poissons Ratio (z) = 0.11500 0.27438
#
# Static dielectric constant tensor:
#      x y z
#    x 2.866880 0.000000 0.000000 
#    y 0.000000 3.671510 0.000000 
#    z 0.000000 0.000000 3.136090 
# 
# 
# High freq. dielectric constant tensor:
#      x y z
#    x 1.651750 0.000000 0.000000 
#    y 0.000000 1.713850 0.000000 
#    z 0.000000 0.000000 1.690150 
# 
# From -- ./inp_files/48663.got.cif
#   From: 2010.06.25/outbox.cif.g09.slc.cpg/sg71_25_cif.got.tgz:48663.got - 2010.06.28 04:59:45.
