data_PCOD8288830
_publ_section_title
;
Structure prediction by ZEFSAII (Michael W. Deem and Ramdas Pophale) SiO2 
 PCOD8288830
Probable space group: I M M M
;
_chemical_formula_sum "Si O2"
_cell_formula_units_Z 120
_cell_length_a 8.589960
_cell_length_b 28.021018
_cell_length_c 26.670729
_cell_angle_alpha 90.000000
_cell_angle_beta 90.000000
_cell_angle_gamma 90.000000
_cell_volume 6419.629102
_symmetry_space_group_name_H-M "I M M M"
_symmetry_group_IT_number 71
_symmetry_cell_setting 'orthorhombic'
loop_
_space_group_symop_operation_xyz
x,y,z
-x,-y,z
x,-y,-z
-x,y,-z
-x,-y,-z
x,y,-z
-x,y,z
x,-y,z
1/2+x,1/2+y,1/2+z
1/2-x,1/2-y,1/2+z
1/2+x,1/2-y,1/2-z
1/2-x,1/2+y,1/2-z
1/2-x,1/2-y,1/2-z
1/2+x,1/2+y,1/2-z
1/2-x,1/2+y,1/2+z
1/2+x,1/2-y,1/2+z
loop_
_atom_site_type_symbol
_atom_site_label
_atom_site_fract_x
_atom_site_fract_y
_atom_site_fract_z
Si Si1 0.819652 0.305870 0.947415
Si Si2 0.174267 0.943300 0.898633
Si Si3 0.675297 0.057159 0.000000
Si Si4 0.178057 0.705023 0.553659
Si Si5 0.679990 0.803597 0.162722
Si Si6 0.181683 0.554450 0.704655
Si Si7 0.179370 0.140722 0.252025
Si Si8 0.183727 0.699567 0.160102
O O1 0.794207 0.249274 0.946990
O O2 0.760115 0.324760 0.893152
O O3 0.000000 0.317109 0.950825
O O4 0.743152 0.326664 0.000000
O O5 0.242491 0.921890 0.950276
O O6 0.279262 0.927602 0.851550
O O7 0.000000 0.923691 0.890663
O O8 0.174165 0.000000 0.903175
O O9 0.500000 0.076396 0.000000
O O10 0.679612 0.000000 0.000000
O O11 0.200205 0.676412 0.500000
O O12 0.212797 0.676727 0.605634
O O13 0.000000 0.723856 0.557140
O O14 0.500000 0.810987 0.177811
O O15 0.787798 0.833164 0.199732
O O16 0.720626 0.747921 0.168873
O O17 0.234994 0.500000 0.712206
O O18 0.274478 0.585353 0.745556
O O19 0.000000 0.561311 0.713475
O O20 0.282145 0.162527 0.296171
O O21 0.000000 0.145558 0.266442
O O22 0.000000 0.711339 0.158769
#
# Coordination Sequence:
#
# PCOD8288830 Si02
#       8
#    16  16   8  16  16  16  16  16
#     4   8  14  25  43  68  97 129 163 198 236 279
#     4   9  16  27  45  69  94 118 146 186 239 296
#     4   9  15  23  39  65  93 119 149 187 235 291
#     4   8  14  25  43  66  91 123 162 203 245 290
#     4  10  19  32  50  72 101 134 170 209 251 297
#     4  10  21  38  58  76  94 119 156 203 255 309
#     4  12  24  36  51  71  99 132 169 207 248 298
#     4  10  19  32  50  74 105 137 170 205 244 290
#
# _framework density 18.692668000000001
#
# number of rings (size 3 to 8) (size 9 to 14) (size 15 to 20)
#    0.000    2.467    0.000    3.400    0.000    4.267 
#    0.000    0.000    1.467    0.000    0.000    0.000 
#    0.000    0.533    0.000    6.133    0.000    1.733 
#
# Total GULP energy -743330.386094 kJ/mol
# GULP energy per Si atom -12388.839768 kJ/mol
# Density = 1.865012 g / cm^3
# Si number density = 18.692668 Si / 1000 Ang^3
#
#
#
# Elastic Constant Matrix: (Units=GPa)
#
#
# Indices 1 2 3 4 5 6 
#
# 1 50.0250 2.6875 8.7906 0.0000 0.0000 0.0000
# 2 2.6875 34.4631 32.0648 0.0000 0.0000 0.0000
# 3 8.7906 32.0648 128.8274 0.0000 0.0000 0.0000
# 4 0.0000 0.0000 0.0000 14.6058 0.0000 0.0000
# 5 0.0000 0.0000 0.0000 0.0000 20.2735 0.0000
# 6 0.0000 0.0000 0.0000 0.0000 0.0000 18.7963
#
#
#
# Elastic Compliance Matrix: (Units=1/GPa)
#
#
# Indices 1 2 3 4 5 6 
#
# 1 0.020236 -0.000382 -0.001286 0.000000 0.000000 0.000000
# 2 -0.000382 0.037768 -0.009374 0.000000 0.000000 0.000000
# 3 -0.001286 -0.009374 0.010183 0.000000 0.000000 0.000000
# 4 0.000000 0.000000 0.000000 0.068466 0.000000 0.000000
# 5 0.000000 0.000000 0.000000 0.000000 0.049325 0.000000
# 6 0.000000 0.000000 0.000000 0.000000 0.000000 0.053202
#
#
# Mechanical properties :
#
#
# Convention : Reuss Voigt Hill
#
# Bulk Modulus (GPa) = 21.68998 33.37791 27.53395
# Shear Modulus (GPa) = 18.07445 22.05328 20.06386
#
# Velocity S-wave (km/s) = 3.11292 3.43852 3.27976
# Velocity P-wave (km/s) = 4.95470 5.80168 5.39484
#
# Compressibility (1/GPa) = 0.04610424
#
# Stress axis : x y z
#
# Youngs Moduli (GPa) = 49.41570 26.47722 98.19974
#
# Poissons Ratio (x) = 0.01011 0.12627
# Poissons Ratio (y) = 0.01886 0.92056
# Poissons Ratio (z) = 0.06354 0.24821
#
# Static dielectric constant tensor:
#      x y z
#    x 3.434690 0.000000 0.000000 
#    y 0.000000 2.969910 0.000000 
#    z 0.000000 0.000000 3.972090 
# 
# 
# High freq. dielectric constant tensor:
#      x y z
#    x 1.730000 0.000000 0.000000 
#    y 0.000000 1.664400 0.000000 
#    z 0.000000 0.000000 1.739200 
# 
# From -- ./inp_files/63768.got.cif
#   From: 2010.06.25/outbox.cif.g09.slc.cpg/sg71_32_cif.got.tgz:63768.got - 2010.06.28 04:59:45.
