data_PCOD8288600
_publ_section_title
;
Structure prediction by ZEFSAII (Michael W. Deem and Ramdas Pophale) SiO2 
 PCOD8288600
Probable space group: I M M M
;
_chemical_formula_sum "Si O2"
_cell_formula_units_Z 104
_cell_length_a 20.252314
_cell_length_b 32.215220
_cell_length_c 8.936856
_cell_angle_alpha 90.000000
_cell_angle_beta 90.000000
_cell_angle_gamma 90.000000
_cell_volume 5830.697546
_symmetry_space_group_name_H-M "I M M M"
_symmetry_group_IT_number 71
_symmetry_cell_setting 'orthorhombic'
loop_
_space_group_symop_operation_xyz
x,y,z
-x,-y,z
x,-y,-z
-x,y,-z
-x,-y,-z
x,y,-z
-x,y,z
x,-y,z
1/2+x,1/2+y,1/2+z
1/2-x,1/2-y,1/2+z
1/2+x,1/2-y,1/2-z
1/2-x,1/2+y,1/2-z
1/2-x,1/2-y,1/2-z
1/2+x,1/2+y,1/2-z
1/2-x,1/2+y,1/2+z
1/2+x,1/2-y,1/2+z
loop_
_atom_site_type_symbol
_atom_site_label
_atom_site_fract_x
_atom_site_fract_y
_atom_site_fract_z
Si Si1 0.707840 0.453638 0.824855
Si Si2 0.680149 0.844547 0.170490
Si Si3 0.573567 0.781526 0.822134
Si Si4 0.576630 0.687154 0.828894
Si Si5 0.423837 0.000000 0.336078
Si Si6 0.843839 0.437056 0.328645
Si Si7 0.178150 0.128997 0.822764
O O1 0.678393 0.500000 0.792674
O O2 0.781814 0.452605 0.765049
O O3 0.666422 0.417109 0.744229
O O4 0.707413 0.444214 0.000000
O O5 0.631713 0.810537 0.248637
O O6 0.642943 0.888215 0.184441
O O7 0.753869 0.849760 0.240942
O O8 0.689758 0.830621 0.000000
O O9 0.500000 0.793386 0.760669
O O10 0.590219 0.734307 0.778055
O O11 0.571761 0.786352 0.000000
O O12 0.500000 0.676128 0.811065
O O13 0.616803 0.657346 0.719943
O O14 0.599316 0.680359 0.000000
O O15 0.406836 0.040804 0.241167
O O16 0.500000 0.000000 0.362886
O O17 0.388815 0.000000 0.500000
O O18 0.832750 0.450196 0.500000
O O19 0.183981 0.123833 0.000000
#
# Coordination Sequence:
#
# PCOD8288600 Si02
#       7
#    16  16  16  16   8  16  16
#     4  10  19  32  53  76 100 131 165 201 246 303
#     4   8  16  29  45  72 104 129 161 210 259 304
#     4   8  14  27  48  71  97 133 173 210 252 303
#     4   9  18  33  53  75  99 131 171 211 251 303
#     4  11  23  35  45  61  91 133 178 219 260 309
#     4  10  19  31  49  71  97 127 164 214 264 307
#     4  10  20  32  49  76 107 136 167 207 256 303
#
# _framework density 17.836631000000001
#
# number of rings (size 3 to 8) (size 9 to 14) (size 15 to 20)
#    0.000    2.692    0.769    3.462    0.000    3.077 
#    0.000    1.538    0.000    5.077    0.000    3.231 
#    0.000    0.000    0.000    0.000    0.000    0.000 
#
# Total GULP energy -644423.772577 kJ/mol
# GULP energy per Si atom -12392.764857 kJ/mol
# Density = 1.779603 g / cm^3
# Si number density = 17.836631 Si / 1000 Ang^3
#
#
#
# Elastic Constant Matrix: (Units=GPa)
#
#
# Indices 1 2 3 4 5 6 
#
# 1 70.9451 60.0974 29.3686 0.0004 0.0001 0.0118
# 2 60.0974 120.9619 43.4243 0.0001 0.0002 0.0154
# 3 29.3686 43.4243 61.5110 -0.0011 -0.0009 -0.3163
# 4 0.0004 0.0001 -0.0011 20.5106 -0.0003 -0.0323
# 5 0.0001 0.0002 -0.0009 -0.0003 20.9773 -0.0092
# 6 0.0118 0.0154 -0.3163 -0.0323 -0.0092 569.1048
#
#
#
# Elastic Compliance Matrix: (Units=1/GPa)
#
#
# Indices 1 2 3 4 5 6 
#
# 1 0.025148 -0.010962 -0.004268 -0.000001 0.000000 -0.000003
# 2 -0.010962 0.015852 -0.005957 0.000000 0.000000 -0.000004
# 3 -0.004268 -0.005957 0.022501 0.000001 0.000001 0.000013
# 4 -0.000001 0.000000 0.000001 0.048755 0.000001 0.000003
# 5 0.000000 0.000000 0.000001 0.000001 0.047671 0.000001
# 6 -0.000003 -0.000004 0.000013 0.000003 0.000001 0.001757
#
#
# Mechanical properties :
#
#
# Convention : Reuss Voigt Hill
#
# Bulk Modulus (GPa) = 47.33491 57.68872 52.51181
# Shear Modulus (GPa) = 23.68542 130.15372 76.91957
#
# Velocity S-wave (km/s) = 3.64800 8.55151 6.57405
# Velocity P-wave (km/s) = 6.65879 11.39813 9.33426
#
# Compressibility (1/GPa) = 0.02112606
#
# Stress axis : x y z
#
# Youngs Moduli (GPa) = 39.76415 63.08423 44.44333
#
# Poissons Ratio (x) = 0.69154 0.18970
# Poissons Ratio (y) = 0.43590 0.26474
# Poissons Ratio (z) = 0.16973 0.37579
#
# Static dielectric constant tensor:
#      x y z
#    x 3.204550 0.000000 0.000000 
#    y 0.000000 3.462640 0.000000 
#    z 0.000000 0.000000 3.143800 
# 
# 
# High freq. dielectric constant tensor:
#      x y z
#    x 1.668400 0.000000 0.000000 
#    y 0.000000 1.697560 0.000000 
#    z 0.000000 0.000000 1.668940 
# 
# From -- ./inp_files/11500.got.cif
#   From: 2010.06.25/outbox.cif.g09.slc.cpg/sg71_6_cif.got.tgz:11500.got - 2010.06.28 04:59:45.
