data_PCOD8288134
_publ_section_title
;
Structure prediction by ZEFSAII (Michael W. Deem and Ramdas Pophale) SiO2 
 PCOD8288134
Probable space group: I M M M
;
_chemical_formula_sum "Si O2"
_cell_formula_units_Z 96
_cell_length_a 16.821237
_cell_length_b 14.174771
_cell_length_c 25.089329
_cell_angle_alpha 90.000000
_cell_angle_beta 90.000000
_cell_angle_gamma 90.000000
_cell_volume 5982.228915
_symmetry_space_group_name_H-M "I M M M"
_symmetry_group_IT_number 71
_symmetry_cell_setting 'orthorhombic'
loop_
_space_group_symop_operation_xyz
x,y,z
-x,-y,z
x,-y,-z
-x,y,-z
-x,-y,-z
x,y,-z
-x,y,z
x,-y,z
1/2+x,1/2+y,1/2+z
1/2-x,1/2-y,1/2+z
1/2+x,1/2-y,1/2-z
1/2-x,1/2+y,1/2-z
1/2-x,1/2-y,1/2-z
1/2+x,1/2+y,1/2-z
1/2-x,1/2+y,1/2+z
1/2+x,1/2-y,1/2+z
loop_
_atom_site_type_symbol
_atom_site_label
_atom_site_fract_x
_atom_site_fract_y
_atom_site_fract_z
Si Si1 0.594033 0.894448 0.441134
Si Si2 0.905765 0.272406 0.156804
Si Si3 0.000000 0.387167 0.440074
Si Si4 0.906206 0.392144 0.741910
Si Si5 0.410922 0.388556 0.500000
Si Si6 0.354463 0.110800 0.128400
Si Si7 0.824253 0.889501 0.107469
O O1 0.616749 0.854089 0.500000
O O2 0.500000 0.899845 0.434982
O O3 0.628302 0.828730 0.394516
O O4 0.629002 0.000000 0.434561
O O5 0.877767 0.326832 0.209528
O O6 0.866118 0.168631 0.155174
O O7 0.000000 0.261241 0.155334
O O8 0.078178 0.346541 0.410365
O O9 0.000000 0.500000 0.440796
O O10 0.000000 0.347245 0.500000
O O11 0.881240 0.500000 0.754599
O O12 0.863773 0.351631 0.688860
O O13 0.000000 0.386075 0.732911
O O14 0.417900 0.500000 0.500000
O O15 0.500000 0.343626 0.500000
O O16 0.363935 0.355748 0.552272
O O17 0.268654 0.136238 0.104716
O O18 0.368447 0.000000 0.131143
O O19 0.837638 0.000000 0.118926
#
# Coordination Sequence:
#
# PCOD8288134 Si02
#       7
#    16  16   8  16   8  16  16
#     4   8  14  25  40  59  83 108 140 187 233 266
#     4  10  19  28  43  64  85 120 160 187 218 264
#     4   9  16  26  46  70  90 114 142 176 229 288
#     4   9  16  29  48  68  90 114 146 185 230 283
#     4   9  18  32  46  57  80 122 160 187 211 240
#     4   9  17  30  46  66  90 116 144 184 232 275
#     4  10  21  32  43  62  89 121 159 194 221 256
#
# _framework density 16.047530999999999
#
# number of rings (size 3 to 8) (size 9 to 14) (size 15 to 20)
#    0.000    2.833    0.833    1.500    2.333    3.667 
#    0.000    0.000    0.000    0.000    0.000    0.000 
#    0.000    0.000    0.000    0.500    0.000    8.000 
#
# Total GULP energy -595017.496255 kJ/mol
# GULP energy per Si atom -12396.197839 kJ/mol
# Density = 1.601101 g / cm^3
# Si number density = 16.047531 Si / 1000 Ang^3
#
#
#
# Elastic Constant Matrix: (Units=GPa)
#
#
# Indices 1 2 3 4 5 6 
#
# 1 81.3744 30.2599 62.2210 0.0000 0.0000 0.0000
# 2 30.2599 46.9937 42.8262 0.0000 0.0000 0.0000
# 3 62.2210 42.8262 135.9159 0.0000 0.0000 0.0000
# 4 0.0000 0.0000 0.0000 11.8472 0.0000 0.0000
# 5 0.0000 0.0000 0.0000 0.0000 22.4863 0.0000
# 6 0.0000 0.0000 0.0000 0.0000 0.0000 12.0407
#
#
#
# Elastic Compliance Matrix: (Units=1/GPa)
#
#
# Indices 1 2 3 4 5 6 
#
# 1 0.020201 -0.006425 -0.007224 0.000000 0.000000 0.000000
# 2 -0.006425 0.031895 -0.007109 0.000000 0.000000 0.000000
# 3 -0.007224 -0.007109 0.012904 0.000000 0.000000 0.000000
# 4 0.000000 0.000000 0.000000 0.084408 0.000000 0.000000
# 5 0.000000 0.000000 0.000000 0.000000 0.044471 0.000000
# 6 0.000000 0.000000 0.000000 0.000000 0.000000 0.083052
#
#
# Mechanical properties :
#
#
# Convention : Reuss Voigt Hill
#
# Bulk Modulus (GPa) = 42.57817 59.43312 51.00565
# Shear Modulus (GPa) = 15.32453 17.87330 16.59892
#
# Velocity S-wave (km/s) = 3.09357 3.34094 3.21964
# Velocity P-wave (km/s) = 6.27299 7.21101 6.75829
#
# Compressibility (1/GPa) = 0.02348621
#
# Stress axis : x y z
#
# Youngs Moduli (GPa) = 49.50159 31.35312 77.49419
#
# Poissons Ratio (x) = 0.20144 0.55978
# Poissons Ratio (y) = 0.31805 0.55087
# Poissons Ratio (z) = 0.35757 0.22287
#
# Static dielectric constant tensor:
#      x y z
#    x 2.849450 0.000000 0.000000 
#    y 0.000000 2.864510 0.000000 
#    z 0.000000 0.000000 3.231750 
# 
# 
# High freq. dielectric constant tensor:
#      x y z
#    x 1.588100 0.000000 0.000000 
#    y 0.000000 1.585180 0.000000 
#    z 0.000000 0.000000 1.624410 
# 
# From -- ./inp_files/59841.got.cif
#   From: 2010.06.25/outbox.cif.g09.slc.cpg/sg71_30_cif.got.tgz:59841.got - 2010.06.28 04:59:45.
