data_PCOD8288062
_publ_section_title
;
Structure prediction by ZEFSAII (Michael W. Deem and Ramdas Pophale) SiO2 
 PCOD8288062
Probable space group: I M M M
;
_chemical_formula_sum "Si O2"
_cell_formula_units_Z 104
_cell_length_a 21.724190
_cell_length_b 14.622097
_cell_length_c 17.601087
_cell_angle_alpha 90.000000
_cell_angle_beta 90.000000
_cell_angle_gamma 90.000000
_cell_volume 5591.041845
_symmetry_space_group_name_H-M "I M M M"
_symmetry_group_IT_number 71
_symmetry_cell_setting 'orthorhombic'
loop_
_space_group_symop_operation_xyz
x,y,z
-x,-y,z
x,-y,-z
-x,y,-z
-x,-y,-z
x,y,-z
-x,y,z
x,-y,z
1/2+x,1/2+y,1/2+z
1/2-x,1/2-y,1/2+z
1/2+x,1/2-y,1/2-z
1/2-x,1/2+y,1/2-z
1/2-x,1/2-y,1/2-z
1/2+x,1/2+y,1/2-z
1/2-x,1/2+y,1/2+z
1/2+x,1/2-y,1/2+z
loop_
_atom_site_type_symbol
_atom_site_label
_atom_site_fract_x
_atom_site_fract_y
_atom_site_fract_z
Si Si1 0.500000 0.601638 0.090687
Si Si2 0.608630 0.274916 0.912421
Si Si3 0.267771 0.337532 0.701980
Si Si4 0.428632 0.895089 0.661311
Si Si5 0.326366 0.209081 0.588769
Si Si6 0.366300 0.897976 0.822782
Si Si7 0.213497 0.898555 0.642518
O O1 0.500000 0.500000 0.125577
O O2 0.559316 0.654694 0.122130
O O3 0.500000 0.596529 0.000000
O O4 0.600531 0.175958 0.875386
O O5 0.674792 0.319511 0.898414
O O6 0.596417 0.259057 0.000000
O O7 0.250000 0.250000 0.750000
O O8 0.312779 0.305153 0.633511
O O9 0.207229 0.386796 0.669836
O O10 0.299233 0.401983 0.766056
O O11 0.500000 0.866604 0.671378
O O12 0.396318 0.826346 0.601384
O O13 0.391036 0.881608 0.738691
O O14 0.424291 0.000000 0.633141
O O15 0.315157 0.227493 0.500000
O O16 0.283456 0.127399 0.621332
O O17 0.383698 0.000000 0.850692
O O18 0.198669 0.000000 0.610366
#
# Coordination Sequence:
#
# PCOD8288062 Si02
#       7
#     8  16  16  16  16  16  16
#     4   9  20  38  55  73 107 147 179 222 284 340
#     4  11  22  36  53  80 113 147 186 235 287 343
#     4  10  18  35  55  77 109 143 181 228 287 337
#     4  10  21  36  54  78 110 152 199 241 285 341
#     4  11  21  34  54  81 115 147 185 233 289 348
#     4  11  21  37  57  79 111 154 195 234 283 341
#     4  11  20  33  57  82 106 142 186 232 284 343
#
# _framework density 18.601185000000001
#
# number of rings (size 3 to 8) (size 9 to 14) (size 15 to 20)
#    0.000    1.462    6.154    1.846    1.077    3.385 
#    0.000    0.769    0.000    2.769    0.000    0.000 
#    0.000    0.000    0.000    8.154    0.000    0.000 
#
# Total GULP energy -644574.752668 kJ/mol
# GULP energy per Si atom -12395.668321 kJ/mol
# Density = 1.855885 g / cm^3
# Si number density = 18.601185 Si / 1000 Ang^3
#
#
#
# Elastic Constant Matrix: (Units=GPa)
#
#
# Indices 1 2 3 4 5 6 
#
# 1 87.0994 26.5513 19.4181 0.0000 0.0000 0.0000
# 2 26.5513 103.7369 29.5338 0.0000 0.0000 0.0000
# 3 19.4181 29.5338 81.0181 0.0000 0.0000 0.0000
# 4 0.0000 0.0000 0.0000 19.6323 0.0000 0.0000
# 5 0.0000 0.0000 0.0000 0.0000 18.0858 0.0000
# 6 0.0000 0.0000 0.0000 0.0000 0.0000 30.3608
#
#
#
# Elastic Compliance Matrix: (Units=1/GPa)
#
#
# Indices 1 2 3 4 5 6 
#
# 1 0.012761 -0.002673 -0.002084 0.000000 0.000000 0.000000
# 2 -0.002673 0.011316 -0.003484 0.000000 0.000000 0.000000
# 3 -0.002084 -0.003484 0.014113 0.000000 0.000000 0.000000
# 4 0.000000 0.000000 0.000000 0.050937 0.000000 0.000000
# 5 0.000000 0.000000 0.000000 0.000000 0.055292 0.000000
# 6 0.000000 0.000000 0.000000 0.000000 0.000000 0.032937
#
#
# Mechanical properties :
#
#
# Convention : Reuss Voigt Hill
#
# Bulk Modulus (GPa) = 46.06906 46.98454 46.52680
# Shear Modulus (GPa) = 24.86665 26.70587 25.78626
#
# Velocity S-wave (km/s) = 3.66024 3.79318 3.72730
# Velocity P-wave (km/s) = 6.53327 6.67069 6.60234
#
# Compressibility (1/GPa) = 0.02170654
#
# Stress axis : x y z
#
# Youngs Moduli (GPa) = 78.36680 88.37160 70.85859
#
# Poissons Ratio (x) = 0.23619 0.14768
# Poissons Ratio (y) = 0.20945 0.24690
# Poissons Ratio (z) = 0.16332 0.30792
#
# Static dielectric constant tensor:
#      x y z
#    x 3.468000 0.000000 0.000000 
#    y 0.000000 3.575600 0.000000 
#    z 0.000000 0.000000 3.473930 
# 
# 
# High freq. dielectric constant tensor:
#      x y z
#    x 1.710900 0.000000 0.000000 
#    y 0.000000 1.716310 0.000000 
#    z 0.000000 0.000000 1.701880 
# 
# From -- ./inp_files/47318.got.cif
#   From: 2010.06.25/outbox.cif.g09.slc.cpg/sg71_24_cif.got.tgz:47318.got - 2010.06.28 04:59:45.
