data_PCOD8288415
_publ_section_title
;
Structure prediction by ZEFSAII (Michael W. Deem and Ramdas Pophale) SiO2 
 PCOD8288415
Probable space group: I M M M
;
_chemical_formula_sum "Si O2"
_cell_formula_units_Z 104
_cell_length_a 9.083510
_cell_length_b 26.166531
_cell_length_c 22.495789
_cell_angle_alpha 90.000000
_cell_angle_beta 90.000000
_cell_angle_gamma 90.000000
_cell_volume 5346.887898
_symmetry_space_group_name_H-M "I M M M"
_symmetry_group_IT_number 71
_symmetry_cell_setting 'orthorhombic'
loop_
_space_group_symop_operation_xyz
x,y,z
-x,-y,z
x,-y,-z
-x,y,-z
-x,-y,-z
x,y,-z
-x,y,z
x,-y,z
1/2+x,1/2+y,1/2+z
1/2-x,1/2-y,1/2+z
1/2+x,1/2-y,1/2-z
1/2-x,1/2+y,1/2-z
1/2-x,1/2-y,1/2-z
1/2+x,1/2+y,1/2-z
1/2-x,1/2+y,1/2+z
1/2+x,1/2-y,1/2+z
loop_
_atom_site_type_symbol
_atom_site_label
_atom_site_fract_x
_atom_site_fract_y
_atom_site_fract_z
Si Si1 0.667168 0.557075 0.621793
Si Si2 0.827225 0.298438 0.677805
Si Si3 0.672423 0.000000 0.429929
Si Si4 0.670446 0.683991 0.205471
Si Si5 0.660984 0.941721 0.766658
Si Si6 0.831760 0.841617 0.934231
Si Si7 0.328049 0.419273 0.850207
O O1 0.500000 0.555169 0.645250
O O2 0.716920 0.500000 0.601756
O O3 0.764459 0.582175 0.674733
O O4 0.683408 0.596580 0.567529
O O5 0.759143 0.329779 0.733863
O O6 0.779854 0.239062 0.682192
O O7 0.770528 0.315483 0.614072
O O8 0.000000 0.306121 0.680323
O O9 0.742539 0.947931 0.403353
O O10 0.500000 0.000000 0.414309
O O11 0.701483 0.000000 0.500000
O O12 0.500000 0.683084 0.223257
O O13 0.702278 0.642079 0.153411
O O14 0.500000 0.916244 0.753784
O O15 0.771286 0.940789 0.711726
O O16 0.635992 0.000000 0.783313
O O17 0.000000 0.825361 0.921823
O O18 0.782293 0.823882 0.000000
O O19 0.500000 0.431447 0.858040
#
# Coordination Sequence:
#
# PCOD8288415 Si02
#       7
#    16  16   8  16  16  16  16
#     4   9  18  32  50  73 103 139 182 227 268 314
#     4  10  20  36  58  84 113 145 182 227 281 333
#     4  11  25  43  59  79 113 151 186 229 280 337
#     4   9  20  37  58  86 115 141 176 227 282 334
#     4  10  19  30  47  75 111 142 170 212 264 315
#     4  10  21  36  53  74 104 144 186 227 271 321
#     4  11  21  35  58  83 108 142 183 224 269 327
#
# _framework density 19.450566999999999
#
# number of rings (size 3 to 8) (size 9 to 14) (size 15 to 20)
#    0.000    2.077    0.769    2.538    0.000    8.000 
#    0.000    2.308    0.000    4.615    0.000    3.231 
#    0.000    0.000    0.000    0.000    0.000    0.000 
#
# Total GULP energy -644516.597861 kJ/mol
# GULP energy per Si atom -12394.549959 kJ/mol
# Density = 1.940630 g / cm^3
# Si number density = 19.450567 Si / 1000 Ang^3
#
#
#
# Elastic Constant Matrix: (Units=GPa)
#
#
# Indices 1 2 3 4 5 6 
#
# 1 90.2008 38.3241 47.7293 0.0000 0.0000 0.0000
# 2 38.3241 79.8467 47.4577 0.0000 0.0000 0.0000
# 3 47.7293 47.4577 109.7832 0.0000 0.0000 0.0000
# 4 0.0000 0.0000 0.0000 25.4375 0.0000 0.0000
# 5 0.0000 0.0000 0.0000 0.0000 28.1209 0.0000
# 6 0.0000 0.0000 0.0000 0.0000 0.0000 25.6407
#
#
#
# Elastic Compliance Matrix: (Units=1/GPa)
#
#
# Indices 1 2 3 4 5 6 
#
# 1 0.015582 -0.004646 -0.004766 0.000000 0.000000 0.000000
# 2 -0.004646 0.018240 -0.005865 0.000000 0.000000 0.000000
# 3 -0.004766 -0.005865 0.013716 0.000000 0.000000 0.000000
# 4 0.000000 0.000000 0.000000 0.039312 0.000000 0.000000
# 5 0.000000 0.000000 0.000000 0.000000 0.035561 0.000000
# 6 0.000000 0.000000 0.000000 0.000000 0.000000 0.039000
#
#
# Mechanical properties :
#
#
# Convention : Reuss Voigt Hill
#
# Bulk Modulus (GPa) = 58.87851 60.76144 59.81998
# Shear Modulus (GPa) = 25.30010 25.59446 25.44728
#
# Velocity S-wave (km/s) = 3.61049 3.63143 3.62097
# Velocity P-wave (km/s) = 6.90778 6.99212 6.95008
#
# Compressibility (1/GPa) = 0.01698413
#
# Stress axis : x y z
#
# Youngs Moduli (GPa) = 64.17479 54.82478 72.90634
#
# Poissons Ratio (x) = 0.25474 0.34748
# Poissons Ratio (y) = 0.29818 0.42758
# Poissons Ratio (z) = 0.30586 0.32154
#
# Static dielectric constant tensor:
#      x y z
#    x 3.748270 0.000000 0.000000 
#    y 0.000000 3.848170 0.000000 
#    z 0.000000 0.000000 3.284580 
# 
# 
# High freq. dielectric constant tensor:
#      x y z
#    x 1.762820 0.000000 0.000000 
#    y 0.000000 1.766390 0.000000 
#    z 0.000000 0.000000 1.729530 
# 
# From -- ./inp_files/50913.got.cif
#   From: 2010.06.25/outbox.cif.g09.slc.cpg/sg71_26_cif.got.tgz:50913.got - 2010.06.28 04:59:45.
