data_PCOD8288520
_publ_section_title
;
Structure prediction by ZEFSAII (Michael W. Deem and Ramdas Pophale) SiO2 
 PCOD8288520
Probable space group: I M M M
;
_chemical_formula_sum "Si O2"
_cell_formula_units_Z 80
_cell_length_a 9.143024
_cell_length_b 22.957356
_cell_length_c 24.408329
_cell_angle_alpha 90.000000
_cell_angle_beta 90.000000
_cell_angle_gamma 90.000000
_cell_volume 5123.299882
_symmetry_space_group_name_H-M "I M M M"
_symmetry_group_IT_number 71
_symmetry_cell_setting 'orthorhombic'
loop_
_space_group_symop_operation_xyz
x,y,z
-x,-y,z
x,-y,-z
-x,y,-z
-x,-y,-z
x,y,-z
-x,y,z
x,-y,z
1/2+x,1/2+y,1/2+z
1/2-x,1/2-y,1/2+z
1/2+x,1/2-y,1/2-z
1/2-x,1/2+y,1/2-z
1/2-x,1/2-y,1/2-z
1/2+x,1/2+y,1/2-z
1/2-x,1/2+y,1/2+z
1/2+x,1/2-y,1/2+z
loop_
_atom_site_type_symbol
_atom_site_label
_atom_site_fract_x
_atom_site_fract_y
_atom_site_fract_z
Si Si1 0.669294 0.718547 0.326479
Si Si2 0.832474 0.933504 0.337246
Si Si3 0.669234 0.839680 0.267048
Si Si4 0.169250 0.389106 0.062036
Si Si5 0.326359 0.242605 0.559209
O O1 0.500000 0.700924 0.320908
O O2 0.695187 0.783919 0.305252
O O3 0.764179 0.672211 0.293017
O O4 0.724524 0.717206 0.389906
O O5 0.747635 0.894772 0.293305
O O6 0.763357 0.928829 0.397643
O O7 0.000000 0.912822 0.339717
O O8 0.820200 0.000000 0.317626
O O9 0.500000 0.854495 0.260029
O O10 0.229941 0.323259 0.066790
O O11 0.000000 0.392323 0.080175
O O12 0.188250 0.412221 0.000000
O O13 0.270970 0.267398 0.500000
O O14 0.500000 0.239455 0.559114
#
# Coordination Sequence:
#
# PCOD8288520 Si02
#       5
#    16  16  16  16  16
#     4   9  16  28  47  69  92 117 145 183 228 272
#     4  11  23  35  46  62  88 120 155 197 238 273
#     4  10  19  31  47  67  88 116 153 189 228 272
#     4   9  17  31  49  66  86 116 157 197 228 265
#     4   8  13  24  44  68  92 117 147 182 219 261
#
# _framework density 15.614936999999999
#
# number of rings (size 3 to 8) (size 9 to 14) (size 15 to 20)
#    0.000    2.600    2.000    2.400    0.000    3.200 
#    0.000    2.000    0.000    0.600    0.000    0.000 
#    0.000    0.800    0.000    9.200    0.000    2.600 
#
# Total GULP energy -495842.346946 kJ/mol
# GULP energy per Si atom -12396.058674 kJ/mol
# Density = 1.557940 g / cm^3
# Si number density = 15.614937 Si / 1000 Ang^3
#
#
#
# Elastic Constant Matrix: (Units=GPa)
#
#
# Indices 1 2 3 4 5 6 
#
# 1 86.2624 42.0983 52.6993 0.0000 0.0000 0.0000
# 2 42.0983 53.7574 45.7486 0.0000 0.0000 0.0000
# 3 52.6993 45.7486 125.6366 0.0000 0.0000 0.0000
# 4 0.0000 0.0000 0.0000 20.5554 0.0000 0.0000
# 5 0.0000 0.0000 0.0000 0.0000 23.7678 0.0000
# 6 0.0000 0.0000 0.0000 0.0000 0.0000 20.2454
#
#
#
# Elastic Compliance Matrix: (Units=1/GPa)
#
#
# Indices 1 2 3 4 5 6 
#
# 1 0.019996 -0.012347 -0.003891 0.000000 0.000000 0.000000
# 2 -0.012347 0.034580 -0.007412 0.000000 0.000000 0.000000
# 3 -0.003891 -0.007412 0.012291 0.000000 0.000000 0.000000
# 4 0.000000 0.000000 0.000000 0.048649 0.000000 0.000000
# 5 0.000000 0.000000 0.000000 0.000000 0.042074 0.000000
# 6 0.000000 0.000000 0.000000 0.000000 0.000000 0.049394
#
#
# Mechanical properties :
#
#
# Convention : Reuss Voigt Hill
#
# Bulk Modulus (GPa) = 51.11433 60.74986 55.93210
# Shear Modulus (GPa) = 19.17134 21.25442 20.21288
#
# Velocity S-wave (km/s) = 3.50774 3.69339 3.60176
# Velocity P-wave (km/s) = 7.01505 7.56159 7.29344
#
# Compressibility (1/GPa) = 0.01956398
#
# Stress axis : x y z
#
# Youngs Moduli (GPa) = 50.01098 28.91873 81.36187
#
# Poissons Ratio (x) = 0.35707 0.31660
# Poissons Ratio (y) = 0.61751 0.60309
# Poissons Ratio (z) = 0.19460 0.21436
#
# Static dielectric constant tensor:
#      x y z
#    x 2.889720 0.000000 0.000000 
#    y 0.000000 2.619100 0.000000 
#    z 0.000000 0.000000 3.356090 
# 
# 
# High freq. dielectric constant tensor:
#      x y z
#    x 1.589060 0.000000 0.000000 
#    y 0.000000 1.552660 0.000000 
#    z 0.000000 0.000000 1.605210 
# 
# From -- ./inp_files/8275.got.cif
#   From: 2010.06.25/outbox.cif.g09.slc.cpg/sg71_5_cif.got.tgz:8275.got - 2010.06.28 04:59:45.
