data_PCOD8288982
_publ_section_title
;
Structure prediction by ZEFSAII (Michael W. Deem and Ramdas Pophale) SiO2 
 PCOD8288982
Probable space group: I M M M
;
_chemical_formula_sum "Si O2"
_cell_formula_units_Z 104
_cell_length_a 16.827378
_cell_length_b 22.690639
_cell_length_c 14.343200
_cell_angle_alpha 90.000000
_cell_angle_beta 90.000000
_cell_angle_gamma 90.000000
_cell_volume 5476.577416
_symmetry_space_group_name_H-M "I M M M"
_symmetry_group_IT_number 71
_symmetry_cell_setting 'orthorhombic'
loop_
_space_group_symop_operation_xyz
x,y,z
-x,-y,z
x,-y,-z
-x,y,-z
-x,-y,-z
x,y,-z
-x,y,z
x,-y,z
1/2+x,1/2+y,1/2+z
1/2-x,1/2-y,1/2+z
1/2+x,1/2-y,1/2-z
1/2-x,1/2+y,1/2-z
1/2-x,1/2-y,1/2-z
1/2+x,1/2+y,1/2-z
1/2-x,1/2+y,1/2+z
1/2+x,1/2-y,1/2+z
loop_
_atom_site_type_symbol
_atom_site_label
_atom_site_fract_x
_atom_site_fract_y
_atom_site_fract_z
Si Si1 0.159546 0.669914 0.109298
Si Si2 0.324715 0.877822 0.104368
Si Si3 0.178705 0.239113 0.604607
Si Si4 0.588974 0.270168 0.284439
Si Si5 0.406636 0.069059 0.278258
Si Si6 0.653702 0.370247 0.392341
Si Si7 0.500000 0.564362 0.388769
O O1 0.246196 0.697510 0.130100
O O2 0.095990 0.704622 0.173126
O O3 0.148538 0.602397 0.144923
O O4 0.138856 0.673743 0.000000
O O5 0.304925 0.808575 0.114704
O O6 0.387764 0.904512 0.175766
O O7 0.236618 0.905598 0.122006
O O8 0.355988 0.892192 0.000000
O O9 0.150377 0.224185 0.500000
O O10 0.107038 0.225388 0.674665
O O11 0.500000 0.293300 0.300946
O O12 0.653818 0.308155 0.339574
O O13 0.500000 0.078335 0.298664
O O14 0.384635 0.000000 0.281455
O O15 0.640322 0.355070 0.500000
O O16 0.580359 0.406643 0.350379
O O17 0.500000 0.500000 0.345763
O O18 0.500000 0.563720 0.500000
#
# Coordination Sequence:
#
# PCOD8288982 Si02
#       7
#    16  16  16  16  16  16   8
#     4  11  22  38  60  84 111 148 188 232 290 346
#     4  10  20  37  60  82 110 149 188 232 285 337
#     4  10  21  37  58  84 114 144 180 230 287 343
#     4  12  21  31  54  85 115 143 177 226 282 341
#     4  11  25  42  57  80 115 154 200 246 282 329
#     4  10  19  32  52  82 115 145 180 222 273 336
#     4   9  18  32  48  72 113 151 174 210 266 327
#
# _framework density 18.989962999999999
#
# number of rings (size 3 to 8) (size 9 to 14) (size 15 to 20)
#    0.000    1.462    3.846    2.308    0.000    3.692 
#    0.000    4.615    0.000    0.000    0.000    0.000 
#    0.000    0.615    0.000    0.000    0.000    0.000 
#
# Total GULP energy -644502.341454 kJ/mol
# GULP energy per Si atom -12394.275797 kJ/mol
# Density = 1.894674 g / cm^3
# Si number density = 18.989963 Si / 1000 Ang^3
#
#
#
# Elastic Constant Matrix: (Units=GPa)
#
#
# Indices 1 2 3 4 5 6 
#
# 1 54.7811 21.3309 33.6797 0.0000 0.0000 0.0000
# 2 21.3309 90.9729 34.1353 0.0000 0.0000 0.0000
# 3 33.6797 34.1353 105.9302 -0.0001 0.0000 0.0000
# 4 0.0000 0.0000 -0.0001 17.1468 0.0000 0.0000
# 5 0.0000 0.0000 0.0000 0.0000 25.2027 0.0000
# 6 0.0000 0.0000 0.0000 0.0000 0.0000 23.1896
#
#
#
# Elastic Compliance Matrix: (Units=1/GPa)
#
#
# Indices 1 2 3 4 5 6 
#
# 1 0.023419 -0.003068 -0.006457 0.000000 0.000000 0.000000
# 2 -0.003068 0.012906 -0.003183 0.000000 0.000000 0.000000
# 3 -0.006457 -0.003183 0.012519 0.000000 0.000000 0.000000
# 4 0.000000 0.000000 0.000000 0.058320 0.000000 0.000000
# 5 0.000000 0.000000 0.000000 0.000000 0.039678 0.000000
# 6 0.000000 0.000000 0.000000 0.000000 0.000000 0.043123
#
#
# Mechanical properties :
#
#
# Convention : Reuss Voigt Hill
#
# Bulk Modulus (GPa) = 42.68657 47.77510 45.23083
# Shear Modulus (GPa) = 22.40223 23.94371 23.17297
#
# Velocity S-wave (km/s) = 3.43838 3.55471 3.49703
# Velocity P-wave (km/s) = 6.18794 6.48542 6.33843
#
# Compressibility (1/GPa) = 0.02342657
#
# Stress axis : x y z
#
# Youngs Moduli (GPa) = 42.70017 77.48206 79.87845
#
# Poissons Ratio (x) = 0.23774 0.51579
# Poissons Ratio (y) = 0.13102 0.25428
# Poissons Ratio (z) = 0.27572 0.24666
#
# Static dielectric constant tensor:
#      x y z
#    x 3.399060 0.000000 0.000000 
#    y 0.000000 3.461570 0.000000 
#    z 0.000000 0.000000 3.471950 
# 
# 
# High freq. dielectric constant tensor:
#      x y z
#    x 1.735570 0.000000 0.000000 
#    y 0.000000 1.720050 0.000000 
#    z 0.000000 0.000000 1.730830 
# 
# From -- ./inp_files/34876.got.cif
#   From: 2010.06.25/outbox.cif.g09.slc.cpg/sg71_18_cif.got.tgz:34876.got - 2010.06.28 04:59:45.
