data_PCOD8288653
_publ_section_title
;
Structure prediction by ZEFSAII (Michael W. Deem and Ramdas Pophale) SiO2 
 PCOD8288653
Probable space group: I M M M
;
_chemical_formula_sum "Si O2"
_cell_formula_units_Z 104
_cell_length_a 9.026900
_cell_length_b 32.314293
_cell_length_c 20.280477
_cell_angle_alpha 90.000000
_cell_angle_beta 90.000000
_cell_angle_gamma 90.000000
_cell_volume 5915.772379
_symmetry_space_group_name_H-M "I M M M"
_symmetry_group_IT_number 71
_symmetry_cell_setting 'orthorhombic'
loop_
_space_group_symop_operation_xyz
x,y,z
-x,-y,z
x,-y,-z
-x,y,-z
-x,-y,-z
x,y,-z
-x,y,z
x,-y,z
1/2+x,1/2+y,1/2+z
1/2-x,1/2-y,1/2+z
1/2+x,1/2-y,1/2-z
1/2-x,1/2+y,1/2-z
1/2-x,1/2-y,1/2-z
1/2+x,1/2+y,1/2-z
1/2-x,1/2+y,1/2+z
1/2+x,1/2-y,1/2+z
loop_
_atom_site_type_symbol
_atom_site_label
_atom_site_fract_x
_atom_site_fract_y
_atom_site_fract_z
Si Si1 0.169757 0.437430 0.653586
Si Si2 0.176288 0.720730 0.574657
Si Si3 0.329076 0.194663 0.424761
Si Si4 0.326591 0.453725 0.789076
Si Si5 0.324476 0.127609 0.681439
Si Si6 0.338411 0.500000 0.575723
Si Si7 0.831522 0.654732 0.677324
O O1 0.258987 0.452630 0.716695
O O2 0.243543 0.459364 0.591672
O O3 0.182072 0.388760 0.640031
O O4 0.000000 0.450995 0.662497
O O5 0.231608 0.709862 0.500000
O O6 0.232363 0.765896 0.595373
O O7 0.244119 0.688756 0.629010
O O8 0.000000 0.720086 0.576074
O O9 0.299347 0.181408 0.500000
O O10 0.500000 0.206096 0.412869
O O11 0.280460 0.156289 0.379677
O O12 0.500000 0.444232 0.785707
O O13 0.298138 0.500000 0.818988
O O14 0.249166 0.417316 0.831623
O O15 0.500000 0.120411 0.688436
O O16 0.262446 0.149322 0.748980
O O17 0.500000 0.500000 0.611751
O O18 0.369291 0.500000 0.500000
O O19 0.000000 0.668670 0.687128
#
# Coordination Sequence:
#
# PCOD8288653 Si02
#       7
#    16  16  16  16  16   8  16
#     4  10  19  32  51  70  92 126 167 208 249 297
#     4   9  17  30  48  68  93 128 164 197 240 294
#     4   9  18  33  51  71  97 127 160 201 246 292
#     4  10  19  31  50  74 101 127 153 194 245 296
#     4   9  18  32  50  72  97 127 164 202 242 290
#     4  11  23  35  45  63  95 131 168 213 260 299
#     4   8  16  30  47  70  96 121 157 205 246 286
#
# _framework density 17.580120999999998
#
# number of rings (size 3 to 8) (size 9 to 14) (size 15 to 20)
#    0.000    2.692    0.769    2.077    0.000    3.385 
#    0.000    5.385    0.000    2.308    0.000    3.231 
#    0.000    0.000    0.000    0.000    0.000    0.000 
#
# Total GULP energy -644447.963873 kJ/mol
# GULP energy per Si atom -12393.230074 kJ/mol
# Density = 1.754011 g / cm^3
# Si number density = 17.580121 Si / 1000 Ang^3
#
#
#
# Elastic Constant Matrix: (Units=GPa)
#
#
# Indices 1 2 3 4 5 6 
#
# 1 53.6856 44.8208 29.0991 0.0001 0.0000 0.0000
# 2 44.8208 134.7147 69.2061 0.0002 0.0000 0.0000
# 3 29.0991 69.2061 80.4562 0.0008 0.0001 0.0000
# 4 0.0001 0.0002 0.0008 51.3792 0.0001 0.0000
# 5 0.0000 0.0000 0.0001 0.0001 17.5661 0.0000
# 6 0.0000 0.0000 0.0000 0.0000 0.0000 28.2209
#
#
#
# Elastic Compliance Matrix: (Units=1/GPa)
#
#
# Indices 1 2 3 4 5 6 
#
# 1 0.026349 -0.006936 -0.003564 0.000000 0.000000 0.000000
# 2 -0.006936 0.015126 -0.010503 0.000000 0.000000 0.000000
# 3 -0.003564 -0.010503 0.022752 0.000000 0.000000 0.000000
# 4 0.000000 0.000000 0.000000 0.019463 0.000000 0.000000
# 5 0.000000 0.000000 0.000000 0.000000 0.056928 0.000000
# 6 0.000000 0.000000 0.000000 0.000000 0.000000 0.035435
#
#
# Mechanical properties :
#
#
# Convention : Reuss Voigt Hill
#
# Bulk Modulus (GPa) = 44.99855 61.67872 53.33863
# Shear Modulus (GPa) = 22.17637 27.81526 24.99582
#
# Velocity S-wave (km/s) = 3.55554 3.98200 3.77480
# Velocity P-wave (km/s) = 6.51979 7.50349 7.02887
#
# Compressibility (1/GPa) = 0.02222294
#
# Stress axis : x y z
#
# Youngs Moduli (GPa) = 37.95183 66.11102 43.95197
#
# Poissons Ratio (x) = 0.45853 0.15664
# Poissons Ratio (y) = 0.26322 0.46161
# Poissons Ratio (z) = 0.13526 0.69433
#
# Static dielectric constant tensor:
#      x y z
#    x 3.206440 0.000000 0.000000 
#    y 0.000000 3.451220 0.000000 
#    z 0.000000 0.000000 3.200870 
# 
# 
# High freq. dielectric constant tensor:
#      x y z
#    x 1.667850 0.000000 0.000000 
#    y 0.000000 1.684840 0.000000 
#    z 0.000000 0.000000 1.657610 
# 
# From -- ./inp_files/57960.got.cif
#   From: 2010.06.25/outbox.cif.g09.slc.cpg/sg71_29_cif.got.tgz:57960.got - 2010.06.28 04:59:45.
