data_PCOD8288113
_publ_section_title
;
Structure prediction by ZEFSAII (Michael W. Deem and Ramdas Pophale) SiO2 
 PCOD8288113
Probable space group: I M M M
;
_chemical_formula_sum "Si O2"
_cell_formula_units_Z 112
_cell_length_a 33.388529
_cell_length_b 17.473924
_cell_length_c 12.992032
_cell_angle_alpha 90.000000
_cell_angle_beta 90.000000
_cell_angle_gamma 90.000000
_cell_volume 7579.923278
_symmetry_space_group_name_H-M "I M M M"
_symmetry_group_IT_number 71
_symmetry_cell_setting 'orthorhombic'
loop_
_space_group_symop_operation_xyz
x,y,z
-x,-y,z
x,-y,-z
-x,y,-z
-x,-y,-z
x,y,-z
-x,y,z
x,-y,z
1/2+x,1/2+y,1/2+z
1/2-x,1/2-y,1/2+z
1/2+x,1/2-y,1/2-z
1/2-x,1/2+y,1/2-z
1/2-x,1/2-y,1/2-z
1/2+x,1/2+y,1/2-z
1/2-x,1/2+y,1/2+z
1/2+x,1/2-y,1/2+z
loop_
_atom_site_type_symbol
_atom_site_label
_atom_site_fract_x
_atom_site_fract_y
_atom_site_fract_z
Si Si1 0.544550 0.589196 0.823110
Si Si2 0.375565 0.654887 0.882362
Si Si3 0.335959 0.413596 0.619693
Si Si4 0.924693 0.910713 0.109708
Si Si5 0.231044 0.331843 0.122204
Si Si6 0.663826 0.500000 0.877233
Si Si7 0.752533 0.500000 0.879739
Si Si8 0.691490 0.712082 0.241632
O O1 0.500000 0.607191 0.865322
O O2 0.555484 0.500000 0.847155
O O3 0.576134 0.648107 0.873830
O O4 0.544139 0.605771 0.700678
O O5 0.358347 0.575459 0.835818
O O6 0.352300 0.718887 0.814682
O O7 0.364009 0.669526 0.000000
O O8 0.324244 0.413719 0.500000
O O9 0.332794 0.500000 0.664745
O O10 0.380635 0.377683 0.635473
O O11 0.305356 0.359032 0.679707
O O12 0.917768 0.000000 0.095121
O O13 0.940769 0.877119 0.000000
O O14 0.224745 0.421734 0.150861
O O15 0.275019 0.300915 0.153618
O O16 0.198045 0.288460 0.191126
O O17 0.225035 0.317502 0.000000
O O18 0.708312 0.500000 0.831365
O O19 0.661321 0.500000 0.000000
O O20 0.745175 0.500000 0.000000
#
# Coordination Sequence:
#
# PCOD8288113 Si02
#       8
#    16  16  16  16  16   8   8  16
#     4  10  19  28  39  59  87 118 154 194 232 261
#     4  11  20  30  44  62  83 115 157 194 224 259
#     4   9  17  27  41  61  84 111 146 187 223 257
#     4   8  14  25  39  54  74 104 145 187 221 256
#     4  10  21  33  45  67  90 111 143 187 232 272
#     4   9  16  26  43  60  77 107 153 194 214 248
#     4   9  16  30  48  63  84 111 142 182 227 268
#     4  11  20  29  47  65  84 116 147 190 229 262
#
# _framework density 14.775876
#
# number of rings (size 3 to 8) (size 9 to 14) (size 15 to 20)
#    0.000    2.286    3.571    1.714    2.000    0.571 
#    0.000    2.143    0.000    0.000    0.000    0.000 
#    0.000    0.000    0.000    0.643    0.000    5.643 
#
# Total GULP energy -693904.159493 kJ/mol
# GULP energy per Si atom -12391.145705 kJ/mol
# Density = 1.474224 g / cm^3
# Si number density = 14.775876 Si / 1000 Ang^3
#
#
#
# Elastic Constant Matrix: (Units=GPa)
#
#
# Indices 1 2 3 4 5 6 
#
# 1 74.6080 30.3530 29.4049 0.0000 0.0000 0.0000
# 2 30.3530 59.5704 29.9692 0.0000 0.0000 0.0000
# 3 29.4049 29.9692 60.0615 0.0000 0.0000 0.0000
# 4 0.0000 0.0000 0.0000 18.5755 0.0000 0.0000
# 5 0.0000 0.0000 0.0000 0.0000 16.3476 0.0000
# 6 0.0000 0.0000 0.0000 0.0000 0.0000 19.1491
#
#
#
# Elastic Compliance Matrix: (Units=1/GPa)
#
#
# Indices 1 2 3 4 5 6 
#
# 1 0.018281 -0.006425 -0.005744 0.000000 0.000000 0.000000
# 2 -0.006425 0.024671 -0.009165 0.000000 0.000000 0.000000
# 3 -0.005744 -0.009165 0.024035 0.000000 0.000000 0.000000
# 4 0.000000 0.000000 0.000000 0.053834 0.000000 0.000000
# 5 0.000000 0.000000 0.000000 0.000000 0.061171 0.000000
# 6 0.000000 0.000000 0.000000 0.000000 0.000000 0.052222
#
#
# Mechanical properties :
#
#
# Convention : Reuss Voigt Hill
#
# Bulk Modulus (GPa) = 41.11953 41.52157 41.32055
# Shear Modulus (GPa) = 17.54452 17.78196 17.66324
#
# Velocity S-wave (km/s) = 3.44957 3.47283 3.46122
# Velocity P-wave (km/s) = 6.61478 6.65152 6.63317
#
# Compressibility (1/GPa) = 0.02431934
#
# Stress axis : x y z
#
# Youngs Moduli (GPa) = 54.70091 40.53281 41.60624
#
# Poissons Ratio (x) = 0.26043 0.23899
# Poissons Ratio (y) = 0.35146 0.38131
# Poissons Ratio (z) = 0.31421 0.37148
#
# Static dielectric constant tensor:
#      x y z
#    x 2.720520 0.000000 0.000000 
#    y 0.000000 2.602290 0.000000 
#    z 0.000000 0.000000 3.055950 
# 
# 
# High freq. dielectric constant tensor:
#      x y z
#    x 1.541410 0.000000 0.000000 
#    y 0.000000 1.499710 0.000000 
#    z 0.000000 0.000000 1.593110 
# 
# From -- ./inp_files/41230.got.cif
#   From: 2010.06.25/outbox.cif.g09.slc.cpg/sg71_21_cif.got.tgz:41230.got - 2010.06.28 04:59:45.
