data_PCOD8288904
_publ_section_title
;
Structure prediction by ZEFSAII (Michael W. Deem and Ramdas Pophale) SiO2 
 PCOD8288904
Probable space group: I M M M
;
_chemical_formula_sum "Si O2"
_cell_formula_units_Z 96
_cell_length_a 24.578921
_cell_length_b 9.177560
_cell_length_c 22.505671
_cell_angle_alpha 90.000000
_cell_angle_beta 90.000000
_cell_angle_gamma 90.000000
_cell_volume 5076.705983
_symmetry_space_group_name_H-M "I M M M"
_symmetry_group_IT_number 71
_symmetry_cell_setting 'orthorhombic'
loop_
_space_group_symop_operation_xyz
x,y,z
-x,-y,z
x,-y,-z
-x,y,-z
-x,-y,-z
x,y,-z
-x,y,z
x,-y,z
1/2+x,1/2+y,1/2+z
1/2-x,1/2-y,1/2+z
1/2+x,1/2-y,1/2-z
1/2-x,1/2+y,1/2-z
1/2-x,1/2-y,1/2-z
1/2+x,1/2+y,1/2-z
1/2-x,1/2+y,1/2+z
1/2+x,1/2-y,1/2+z
loop_
_atom_site_type_symbol
_atom_site_label
_atom_site_fract_x
_atom_site_fract_y
_atom_site_fract_z
Si Si1 0.500000 0.174228 0.219166
Si Si2 0.801565 0.667933 0.902183
Si Si3 0.387215 0.172306 0.170606
Si Si4 0.696509 0.833517 0.265857
Si Si5 0.094811 0.165721 0.934311
Si Si6 0.690390 0.829644 0.932322
Si Si7 0.000000 0.826759 0.846784
O O1 0.448453 0.230131 0.180500
O O2 0.500000 0.245053 0.284223
O O3 0.500000 0.000000 0.228177
O O4 0.795387 0.500000 0.920549
O O5 0.818308 0.687160 0.833981
O O6 0.850655 0.738929 0.937972
O O7 0.745025 0.745357 0.916377
O O8 0.352529 0.230408 0.226552
O O9 0.359244 0.227232 0.109358
O O10 0.389296 0.000000 0.170032
O O11 0.750000 0.750000 0.250000
O O12 0.707126 0.000000 0.248855
O O13 0.052614 0.222950 0.884840
O O14 0.111471 0.000000 0.919478
O O15 0.067763 0.174853 0.000000
O O16 0.701643 0.000000 0.921314
O O17 0.673048 0.798530 0.000000
O O18 0.000000 0.000000 0.836974
#
# Coordination Sequence:
#
# PCOD8288904 Si02
#       7
#     8  16  16  16  16  16   8
#     4  10  20  37  60  81 108 144 173 216 280 335
#     4  11  22  34  52  82 113 142 179 224 274 324
#     4   9  18  34  55  79 107 138 176 218 265 320
#     4  10  19  32  51  76 105 137 174 215 263 316
#     4  10  21  37  56  77 106 148 189 222 262 315
#     4  10  20  35  55  77 105 144 185 222 265 322
#     4  10  21  38  58  81 107 137 181 232 268 309
#
# _framework density 18.909901000000001
#
# number of rings (size 3 to 8) (size 9 to 14) (size 15 to 20)
#    0.000    2.000    1.667    2.250    0.000    6.333 
#    0.000    2.083    0.000    4.000    0.000    0.000 
#    0.000    2.000    0.000    0.000    0.000    0.000 
#
# Total GULP energy -595094.410548 kJ/mol
# GULP energy per Si atom -12397.800220 kJ/mol
# Density = 1.886686 g / cm^3
# Si number density = 18.909901 Si / 1000 Ang^3
#
#
#
# Elastic Constant Matrix: (Units=GPa)
#
#
# Indices 1 2 3 4 5 6 
#
# 1 165.5797 42.2357 74.7321 0.0000 0.0000 0.0000
# 2 42.2357 52.4830 37.2338 0.0000 0.0000 0.0000
# 3 74.7321 37.2338 134.3367 0.0000 0.0000 0.0000
# 4 0.0000 0.0000 0.0000 24.6290 0.0000 0.0000
# 5 0.0000 0.0000 0.0000 0.0000 28.3798 0.0000
# 6 0.0000 0.0000 0.0000 0.0000 0.0000 20.9716
#
#
#
# Elastic Compliance Matrix: (Units=1/GPa)
#
#
# Indices 1 2 3 4 5 6 
#
# 1 0.008848 -0.004517 -0.003670 0.000000 0.000000 0.000000
# 2 -0.004517 0.026023 -0.004700 0.000000 0.000000 0.000000
# 3 -0.003670 -0.004700 0.010789 0.000000 0.000000 0.000000
# 4 0.000000 0.000000 0.000000 0.040603 0.000000 0.000000
# 5 0.000000 0.000000 0.000000 0.000000 0.035236 0.000000
# 6 0.000000 0.000000 0.000000 0.000000 0.000000 0.047684
#
#
# Mechanical properties :
#
#
# Convention : Reuss Voigt Hill
#
# Bulk Modulus (GPa) = 50.28801 73.42250 61.85525
# Shear Modulus (GPa) = 24.80348 28.00926 26.40637
#
# Velocity S-wave (km/s) = 3.62562 3.85281 3.74094
# Velocity P-wave (km/s) = 6.64666 7.66185 7.17224
#
# Compressibility (1/GPa) = 0.01988546
#
# Stress axis : x y z
#
# Youngs Moduli (GPa) = 113.01965 38.42758 92.69086
#
# Poissons Ratio (x) = 0.17356 0.34021
# Poissons Ratio (y) = 0.51046 0.43566
# Poissons Ratio (z) = 0.41482 0.18062
#
# Static dielectric constant tensor:
#      x y z
#    x 3.502650 0.000000 0.000000 
#    y 0.000000 3.241500 0.000000 
#    z 0.000000 0.000000 3.152450 
# 
# 
# High freq. dielectric constant tensor:
#      x y z
#    x 1.734800 0.000000 0.000000 
#    y 0.000000 1.710340 0.000000 
#    z 0.000000 0.000000 1.745610 
# 
# From -- ./inp_files/61565.got.cif
#   From: 2010.06.25/outbox.cif.g09.slc.cpg/sg71_31_cif.got.tgz:61565.got - 2010.06.28 04:59:45.
