data_PCOD8288109
_publ_section_title
;
Structure prediction by ZEFSAII (Michael W. Deem and Ramdas Pophale) SiO2 
 PCOD8288109
Probable space group: I M M M
;
_chemical_formula_sum "Si O2"
_cell_formula_units_Z 112
_cell_length_a 32.547499
_cell_length_b 9.823584
_cell_length_c 28.903307
_cell_angle_alpha 90.000000
_cell_angle_beta 90.000000
_cell_angle_gamma 90.000000
_cell_volume 9241.343670
_symmetry_space_group_name_H-M "I M M M"
_symmetry_group_IT_number 71
_symmetry_cell_setting 'orthorhombic'
loop_
_space_group_symop_operation_xyz
x,y,z
-x,-y,z
x,-y,-z
-x,y,-z
-x,-y,-z
x,y,-z
-x,y,z
x,-y,z
1/2+x,1/2+y,1/2+z
1/2-x,1/2-y,1/2+z
1/2+x,1/2-y,1/2-z
1/2-x,1/2+y,1/2-z
1/2-x,1/2-y,1/2-z
1/2+x,1/2+y,1/2-z
1/2-x,1/2+y,1/2+z
1/2+x,1/2-y,1/2+z
loop_
_atom_site_type_symbol
_atom_site_label
_atom_site_fract_x
_atom_site_fract_y
_atom_site_fract_z
Si Si1 0.629079 0.341278 0.446902
Si Si2 0.194761 0.650554 0.724460
Si Si3 0.617876 0.841102 0.718500
Si Si4 0.044222 0.839161 0.908419
Si Si5 0.252605 0.849705 0.682819
Si Si6 0.669063 0.159036 0.372206
Si Si7 0.453401 0.657131 0.697379
O O1 0.641081 0.319063 0.500000
O O2 0.632854 0.500000 0.432686
O O3 0.582310 0.287461 0.439170
O O4 0.659847 0.252115 0.416387
O O5 0.192775 0.500000 0.702614
O O6 0.149423 0.697497 0.740340
O O7 0.213493 0.749538 0.685378
O O8 0.223480 0.648150 0.769088
O O9 0.637893 0.804245 0.669083
O O10 0.577205 0.751464 0.726978
O O11 0.606571 0.000000 0.720479
O O12 0.050631 0.794448 0.855560
O O13 0.000000 0.780279 0.926375
O O14 0.041718 0.000000 0.910982
O O15 0.284387 0.804817 0.642908
O O16 0.235410 0.000000 0.672052
O O17 0.665248 0.000000 0.385169
O O18 0.500000 0.678657 0.715049
O O19 0.440304 0.500000 0.702998
#
# Coordination Sequence:
#
# PCOD8288109 Si02
#       7
#    16  16  16  16  16  16  16
#     4  10  19  28  39  54  66  79 106 139 170 208
#     4   8  14  23  34  51  71  86 101 124 153 186
#     4   9  16  25  37  52  69  87 107 130 160 199
#     4   8  14  25  38  50  63  77  98 133 174 210
#     4   8  14  24  36  50  67  85 105 124 147 188
#     4   9  17  28  39  50  66  87 106 127 161 202
#     4   9  16  25  37  51  65  84 112 141 167 199
#
# _framework density 12.119448999999999
#
# number of rings (size 3 to 8) (size 9 to 14) (size 15 to 20)
#    0.000    3.286    1.429    2.571    0.000    2.000 
#    0.000    4.286    0.000    0.429    0.000    1.000 
#    0.000    0.000    0.000    0.000    0.000    0.000 
#
# Total GULP energy -693963.671673 kJ/mol
# GULP energy per Si atom -12392.208423 kJ/mol
# Density = 1.209186 g / cm^3
# Si number density = 12.119449 Si / 1000 Ang^3
#
#
#
# Elastic Constant Matrix: (Units=GPa)
#
#
# Indices 1 2 3 4 5 6 
#
# 1 75.5814 52.1190 38.1025 0.0000 0.0000 0.0000
# 2 52.1190 60.2438 30.8564 0.0000 0.0000 0.0000
# 3 38.1025 30.8564 34.7577 0.0000 0.0000 0.0000
# 4 0.0000 0.0000 0.0000 15.2474 0.0000 0.0000
# 5 0.0000 0.0000 0.0000 0.0000 18.0199 0.0000
# 6 0.0000 0.0000 0.0000 0.0000 0.0000 22.3236
#
#
#
# Elastic Compliance Matrix: (Units=1/GPa)
#
#
# Indices 1 2 3 4 5 6 
#
# 1 0.042327 -0.023570 -0.025476 0.000000 0.000000 0.000000
# 2 -0.023570 0.043566 -0.012838 0.000000 0.000000 0.000000
# 3 -0.025476 -0.012838 0.068094 0.000000 0.000000 0.000000
# 4 0.000000 0.000000 0.000000 0.065585 0.000000 0.000000
# 5 0.000000 0.000000 0.000000 0.000000 0.055494 0.000000
# 6 0.000000 0.000000 0.000000 0.000000 0.000000 0.044796
#
#
# Mechanical properties :
#
#
# Convention : Reuss Voigt Hill
#
# Bulk Modulus (GPa) = 33.09002 45.85987 39.47494
# Shear Modulus (GPa) = 11.02043 14.41851 12.71947
#
# Velocity S-wave (km/s) = 3.01876 3.45294 3.24313
# Velocity P-wave (km/s) = 6.28594 7.33615 6.83126
#
# Compressibility (1/GPa) = 0.03022060
#
# Stress axis : x y z
#
# Youngs Moduli (GPa) = 23.62553 22.95368 14.68550
#
# Poissons Ratio (x) = 0.54102 0.37412
# Poissons Ratio (y) = 0.55686 0.18853
# Poissons Ratio (z) = 0.60187 0.29467
#
# Static dielectric constant tensor:
#      x y z
#    x 2.821990 0.000000 0.000000 
#    y 0.000000 2.534620 0.000000 
#    z 0.000000 0.000000 2.158690 
# 
# 
# High freq. dielectric constant tensor:
#      x y z
#    x 1.450620 0.000000 0.000000 
#    y 0.000000 1.456960 0.000000 
#    z 0.000000 0.000000 1.404610 
# 
# From -- ./inp_files/62133.got.cif
#   From: 2010.06.25/outbox.cif.g09.slc.cpg/sg71_32_cif.got.tgz:62133.got - 2010.06.28 04:59:45.
