data_PCOD8288801
_publ_section_title
;
Structure prediction by ZEFSAII (Michael W. Deem and Ramdas Pophale) SiO2 
 PCOD8288801
Probable space group: I M M M
;
_chemical_formula_sum "Si O2"
_cell_formula_units_Z 72
_cell_length_a 14.488121
_cell_length_b 8.986929
_cell_length_c 30.562527
_cell_angle_alpha 90.000000
_cell_angle_beta 90.000000
_cell_angle_gamma 90.000000
_cell_volume 3979.354548
_symmetry_space_group_name_H-M "I M M M"
_symmetry_group_IT_number 71
_symmetry_cell_setting 'orthorhombic'
loop_
_space_group_symop_operation_xyz
x,y,z
-x,-y,z
x,-y,-z
-x,y,-z
-x,-y,-z
x,y,-z
-x,y,z
x,-y,z
1/2+x,1/2+y,1/2+z
1/2-x,1/2-y,1/2+z
1/2+x,1/2-y,1/2-z
1/2-x,1/2+y,1/2-z
1/2-x,1/2-y,1/2-z
1/2+x,1/2+y,1/2-z
1/2-x,1/2+y,1/2+z
1/2+x,1/2-y,1/2+z
loop_
_atom_site_type_symbol
_atom_site_label
_atom_site_fract_x
_atom_site_fract_y
_atom_site_fract_z
Si Si1 0.301872 0.322302 0.451183
Si Si2 0.000000 0.161745 0.051658
Si Si3 0.500000 0.676797 0.161759
Si Si4 0.303785 0.674713 0.711091
Si Si5 0.317319 0.824693 0.129188
Si Si6 0.500000 0.324042 0.738869
O O1 0.274904 0.266326 0.500000
O O2 0.311275 0.500000 0.450901
O O3 0.402979 0.256040 0.436295
O O4 0.223140 0.271430 0.417482
O O5 0.000000 0.000000 0.075131
O O6 0.000000 0.138336 0.000000
O O7 0.500000 0.500000 0.160325
O O8 0.410825 0.736152 0.136629
O O9 0.500000 0.739004 0.211458
O O10 0.299036 0.500000 0.719050
O O11 0.250000 0.750000 0.750000
O O12 0.258770 0.720008 0.665224
O O13 0.409819 0.731738 0.712612
O O14 0.338359 0.000000 0.130168
O O15 0.500000 0.500000 0.742122
#
# Coordination Sequence:
#
# PCOD8288801 Si02
#       6
#    16   8   8  16  16   8
#     4   8  14  26  45  72 105 134 159 197 250 298
#     4   7  10  19  39  67  98 129 154 179 228 296
#     4  11  21  35  53  68  93 136 172 202 248 304
#     4  10  19  32  49  71  98 126 160 199 239 286
#     4  10  20  32  51  77 100 125 165 211 247 288
#     4   9  18  32  49  69  96 130 162 192 240 296
#
# _framework density 18.093385999999999
#
# number of rings (size 3 to 8) (size 9 to 14) (size 15 to 20)
#    0.000    2.778    2.222    1.667    0.000    0.889 
#    0.000    5.556    0.000    4.000    0.000    2.333 
#    0.000    2.667    0.000    0.000    0.000    0.000 
#
# Total GULP energy -446091.475560 kJ/mol
# GULP energy per Si atom -12391.429877 kJ/mol
# Density = 1.805220 g / cm^3
# Si number density = 18.093386 Si / 1000 Ang^3
#
#
#
# Elastic Constant Matrix: (Units=GPa)
#
#
# Indices 1 2 3 4 5 6 
#
# 1 184.7112 33.7955 85.0515 0.0000 0.0000 0.0000
# 2 33.7955 23.1583 26.5603 0.0000 0.0000 0.0000
# 3 85.0515 26.5603 122.7418 0.0000 0.0000 0.0000
# 4 0.0000 0.0000 0.0000 15.6108 0.0000 0.0000
# 5 0.0000 0.0000 0.0000 0.0000 28.8026 0.0000
# 6 0.0000 0.0000 0.0000 0.0000 0.0000 15.4740
#
#
#
# Elastic Compliance Matrix: (Units=1/GPa)
#
#
# Indices 1 2 3 4 5 6 
#
# 1 0.008915 -0.007881 -0.004472 0.000000 0.000000 0.000000
# 2 -0.007881 0.064402 -0.008475 0.000000 0.000000 0.000000
# 3 -0.004472 -0.008475 0.013080 0.000000 0.000000 0.000000
# 4 0.000000 0.000000 0.000000 0.064058 0.000000 0.000000
# 5 0.000000 0.000000 0.000000 0.000000 0.034719 0.000000
# 6 0.000000 0.000000 0.000000 0.000000 0.000000 0.064624
#
#
# Mechanical properties :
#
#
# Convention : Reuss Voigt Hill
#
# Bulk Modulus (GPa) = 22.35105 69.04733 45.69919
# Shear Modulus (GPa) = 16.32022 24.32441 20.32232
#
# Velocity S-wave (km/s) = 3.00659 3.67056 3.35504
# Velocity P-wave (km/s) = 4.94295 7.49723 6.34985
#
# Compressibility (1/GPa) = 0.04474063
#
# Stress axis : x y z
#
# Youngs Moduli (GPa) = 112.17093 15.52751 76.45252
#
# Poissons Ratio (x) = 0.12237 0.34190
# Poissons Ratio (y) = 0.88399 0.64795
# Poissons Ratio (z) = 0.50164 0.13160
#
# Static dielectric constant tensor:
#      x y z
#    x 3.750450 0.000000 0.000000 
#    y 0.000000 2.855780 0.000000 
#    z 0.000000 0.000000 2.889020 
# 
# 
# High freq. dielectric constant tensor:
#      x y z
#    x 1.717090 0.000000 0.000000 
#    y 0.000000 1.643910 0.000000 
#    z 0.000000 0.000000 1.692710 
# 
# From -- ./inp_files/40716.got.cif
#   From: 2010.06.25/outbox.cif.g09.slc.cpg/sg71_21_cif.got.tgz:40716.got - 2010.06.28 04:59:45.
