data_PCOD8288414
_publ_section_title
;
Structure prediction by ZEFSAII (Michael W. Deem and Ramdas Pophale) SiO2 
 PCOD8288414
Probable space group: I M M M
;
_chemical_formula_sum "Si O2"
_cell_formula_units_Z 72
_cell_length_a 9.375393
_cell_length_b 17.958837
_cell_length_c 19.726650
_cell_angle_alpha 90.000000
_cell_angle_beta 90.000000
_cell_angle_gamma 90.000000
_cell_volume 3321.398839
_symmetry_space_group_name_H-M "I M M M"
_symmetry_group_IT_number 71
_symmetry_cell_setting 'orthorhombic'
loop_
_space_group_symop_operation_xyz
x,y,z
-x,-y,z
x,-y,-z
-x,y,-z
-x,-y,-z
x,y,-z
-x,y,z
x,-y,z
1/2+x,1/2+y,1/2+z
1/2-x,1/2-y,1/2+z
1/2+x,1/2-y,1/2-z
1/2-x,1/2+y,1/2-z
1/2-x,1/2-y,1/2-z
1/2+x,1/2+y,1/2-z
1/2-x,1/2+y,1/2+z
1/2+x,1/2-y,1/2+z
loop_
_atom_site_type_symbol
_atom_site_label
_atom_site_fract_x
_atom_site_fract_y
_atom_site_fract_z
Si Si1 0.330954 0.585482 0.000000
Si Si2 0.340628 0.500000 0.392502
Si Si3 0.660406 0.861477 0.113234
Si Si4 0.839079 0.000000 0.731306
Si Si5 0.834235 0.800719 0.614486
Si Si6 0.665239 0.140535 0.728023
O O1 0.280351 0.632839 0.065461
O O2 0.270063 0.500000 0.000000
O O3 0.500000 0.582673 0.000000
O O4 0.500000 0.500000 0.422291
O O5 0.262696 0.575184 0.418196
O O6 0.339651 0.500000 0.312049
O O7 0.500000 0.890605 0.101360
O O8 0.684459 0.780665 0.078349
O O9 0.687751 0.847347 0.192741
O O10 0.753984 0.930521 0.702434
O O11 0.000000 0.000000 0.702066
O O12 0.737167 0.795374 0.682361
O O13 0.000000 0.810912 0.635247
O O14 0.500000 0.131641 0.709461
#
# Coordination Sequence:
#
# PCOD8288414 Si02
#       6
#     8   8  16   8  16  16
#     4   9  20  38  57  78 103 138 189 238 266 296
#     4   9  17  29  49  76 105 136 168 204 253 321
#     4   9  18  32  50  76 110 143 173 212 267 327
#     4   9  17  29  45  68 101 138 173 208 252 317
#     4  10  20  34  54  76 101 139 184 226 269 316
#     4  10  19  30  47  75 108 139 171 217 272 324
#
# _framework density 21.677613000000001
#
# number of rings (size 3 to 8) (size 9 to 14) (size 15 to 20)
#    0.000    2.556    0.000    2.000    1.556    4.444 
#    0.000    0.556    0.000    1.333    0.000    4.667 
#    0.000    0.000    0.000    0.000    0.000    0.000 
#
# Total GULP energy -446111.804318 kJ/mol
# GULP energy per Si atom -12391.994564 kJ/mol
# Density = 2.162827 g / cm^3
# Si number density = 21.677613 Si / 1000 Ang^3
#
#
#
# Elastic Constant Matrix: (Units=GPa)
#
#
# Indices 1 2 3 4 5 6 
#
# 1 116.9189 63.7058 18.3876 0.0000 0.0000 0.0000
# 2 63.7058 160.3073 16.3561 0.0000 0.0000 0.0000
# 3 18.3876 16.3561 44.6895 0.0000 0.0000 0.0000
# 4 0.0000 0.0000 0.0000 19.4558 0.0000 0.0000
# 5 0.0000 0.0000 0.0000 0.0000 6.8199 0.0000
# 6 0.0000 0.0000 0.0000 0.0000 0.0000 32.4507
#
#
#
# Elastic Compliance Matrix: (Units=1/GPa)
#
#
# Indices 1 2 3 4 5 6 
#
# 1 0.011323 -0.004180 -0.003129 0.000000 0.000000 0.000000
# 2 -0.004180 0.008023 -0.001216 0.000000 0.000000 0.000000
# 3 -0.003129 -0.001216 0.024109 0.000000 0.000000 0.000000
# 4 0.000000 0.000000 0.000000 0.051399 0.000000 0.000000
# 5 0.000000 0.000000 0.000000 0.000000 0.146630 0.000000
# 6 0.000000 0.000000 0.000000 0.000000 0.000000 0.030816
#
#
# Mechanical properties :
#
#
# Convention : Reuss Voigt Hill
#
# Bulk Modulus (GPa) = 37.87298 57.64610 47.75954
# Shear Modulus (GPa) = 16.76995 26.64302 21.70649
#
# Velocity S-wave (km/s) = 2.78440 3.50959 3.16782
# Velocity P-wave (km/s) = 5.27694 6.56302 5.95480
#
# Compressibility (1/GPa) = 0.02640405
#
# Stress axis : x y z
#
# Youngs Moduli (GPa) = 88.31748 124.63497 41.47791
#
# Poissons Ratio (x) = 0.52103 0.12978
# Poissons Ratio (y) = 0.36920 0.05046
# Poissons Ratio (z) = 0.27633 0.15162
#
# Static dielectric constant tensor:
#      x y z
#    x 3.788170 0.000000 0.000000 
#    y 0.000000 4.254070 0.000000 
#    z 0.000000 0.000000 3.420310 
# 
# 
# High freq. dielectric constant tensor:
#      x y z
#    x 1.829690 0.000000 0.000000 
#    y 0.000000 1.869410 0.000000 
#    z 0.000000 0.000000 1.820220 
# 
# From -- ./inp_files/8031.got.cif
#   From: 2010.06.25/outbox.cif.g09.slc.cpg/sg71_5_cif.got.tgz:8031.got - 2010.06.28 04:59:45.
