data_PCOD8288247
_publ_section_title
;
Structure prediction by ZEFSAII (Michael W. Deem and Ramdas Pophale) SiO2 
 PCOD8288247
Probable space group: I M M M
;
_chemical_formula_sum "Si O2"
_cell_formula_units_Z 128
_cell_length_a 20.456910
_cell_length_b 18.592912
_cell_length_c 18.957761
_cell_angle_alpha 90.000000
_cell_angle_beta 90.000000
_cell_angle_gamma 90.000000
_cell_volume 7210.651268
_symmetry_space_group_name_H-M "I M M M"
_symmetry_group_IT_number 71
_symmetry_cell_setting 'orthorhombic'
loop_
_space_group_symop_operation_xyz
x,y,z
-x,-y,z
x,-y,-z
-x,y,-z
-x,-y,-z
x,y,-z
-x,y,z
x,-y,z
1/2+x,1/2+y,1/2+z
1/2-x,1/2-y,1/2+z
1/2+x,1/2-y,1/2-z
1/2-x,1/2+y,1/2-z
1/2-x,1/2-y,1/2-z
1/2+x,1/2+y,1/2-z
1/2-x,1/2+y,1/2+z
1/2+x,1/2-y,1/2+z
loop_
_atom_site_type_symbol
_atom_site_label
_atom_site_fract_x
_atom_site_fract_y
_atom_site_fract_z
Si Si1 0.809080 0.332682 0.923001
Si Si2 0.711597 0.917971 0.292495
Si Si3 0.924539 0.916386 0.827835
Si Si4 0.323446 0.670386 0.582887
Si Si5 0.841209 0.802170 0.421348
Si Si6 0.929209 0.584128 0.422498
Si Si7 0.365016 0.419072 0.180681
Si Si8 0.185522 0.656097 0.349166
O O1 0.825714 0.392380 0.863939
O O2 0.835342 0.254369 0.899828
O O3 0.731814 0.328733 0.931163
O O4 0.838357 0.354968 0.000000
O O5 0.788985 0.914563 0.300691
O O6 0.692980 0.858946 0.233792
O O7 0.689737 0.000000 0.274712
O O8 0.883191 0.872805 0.884557
O O9 0.905874 0.893713 0.748556
O O10 0.000000 0.898578 0.841267
O O11 0.908736 0.000000 0.839068
O O12 0.321202 0.656553 0.500000
O O13 0.254805 0.641895 0.613533
O O14 0.869803 0.784822 0.500000
O O15 0.882552 0.865830 0.384023
O O16 0.842473 0.734579 0.368200
O O17 0.916001 0.617837 0.500000
O O18 0.934256 0.500000 0.429359
O O19 0.869053 0.600224 0.372433
O O20 0.000000 0.613303 0.394107
O O21 0.384529 0.500000 0.158169
#
# Coordination Sequence:
#
# PCOD8288247 Si02
#       8
#    16  16  16  16  16  16  16  16
#     4   8  17  32  49  73 104 135 167 212 265 311
#     4  10  19  29  49  79 104 134 175 212 254 306
#     4  10  21  36  52  72 104 142 178 219 268 317
#     4  10  20  33  53  77 102 135 176 217 262 315
#     4   9  18  30  49  77 103 134 171 208 258 310
#     4   9  18  32  48  66  95 138 174 199 242 299
#     4   9  18  33  51  72  99 133 174 218 261 305
#     4  11  19  30  51  77 109 133 166 213 255 307
#
# _framework density 17.751517
#
# number of rings (size 3 to 8) (size 9 to 14) (size 15 to 20)
#    0.000    2.500    1.250    2.625    1.750    3.000 
#    0.000    3.750    0.000    1.125    0.000    1.750 
#    0.000    0.000    0.000    5.375    0.000    2.000 
#
# Total GULP energy -793153.431928 kJ/mol
# GULP energy per Si atom -12393.022374 kJ/mol
# Density = 1.771111 g / cm^3
# Si number density = 17.751517 Si / 1000 Ang^3
#
#
#
# Elastic Constant Matrix: (Units=GPa)
#
#
# Indices 1 2 3 4 5 6 
#
# 1 59.4288 25.6071 30.1572 0.0000 0.0000 0.0000
# 2 25.6071 81.9381 65.4300 0.0000 0.0000 0.0000
# 3 30.1572 65.4300 124.0291 0.0000 0.0000 0.0000
# 4 0.0000 0.0000 0.0000 27.1453 0.0000 0.0000
# 5 0.0000 0.0000 0.0000 0.0000 -50.1527 0.0000
# 6 0.0000 0.0000 0.0000 0.0000 0.0000 13.6434
#
#
#
# Elastic Compliance Matrix: (Units=1/GPa)
#
#
# Indices 1 2 3 4 5 6 
#
# 1 0.019955 -0.004081 -0.002699 0.000000 0.000000 0.000000
# 2 -0.004081 0.021922 -0.010572 0.000000 0.000000 0.000000
# 3 -0.002699 -0.010572 0.014296 0.000000 0.000000 0.000000
# 4 0.000000 0.000000 0.000000 0.036839 0.000000 0.000000
# 5 0.000000 0.000000 0.000000 0.000000 -0.019939 0.000000
# 6 0.000000 0.000000 0.000000 0.000000 0.000000 0.073295
#
#
# Mechanical properties :
#
#
# Convention : Reuss Voigt Hill
#
# Bulk Modulus (GPa) = 46.58035 56.42051 51.50043
# Shear Modulus (GPa) = 26.56328 7.74063 17.15196
#
# Velocity S-wave (km/s) = 3.87252 2.09046 3.11179
# Velocity P-wave (km/s) = 6.80385 6.13834 6.47964
#
# Compressibility (1/GPa) = 0.02146828
#
# Stress axis : x y z
#
# Youngs Moduli (GPa) = 50.11281 45.61604 69.94828
#
# Poissons Ratio (x) = 0.18616 0.18880
# Poissons Ratio (y) = 0.20451 0.73953
# Poissons Ratio (z) = 0.13526 0.48227
#
# Static dielectric constant tensor:
#      x y z
#    x 3.080390 0.000000 0.000000 
#    y 0.000000 3.383430 0.000000 
#    z 0.000000 0.000000 3.620340 
# 
# 
# High freq. dielectric constant tensor:
#      x y z
#    x 1.647370 0.000000 0.000000 
#    y 0.000000 1.683730 0.000000 
#    z 0.000000 0.000000 1.691250 
# 
# From -- ./inp_files/47724.got.cif
#   From: 2010.06.25/outbox.cif.g09.slc.cpg/sg71_24_cif.got.tgz:47724.got - 2010.06.28 04:59:45.
