data_PCOD8288217
_publ_section_title
;
Structure prediction by ZEFSAII (Michael W. Deem and Ramdas Pophale) SiO2 
 PCOD8288217
Probable space group: I M M M
;
_chemical_formula_sum "Si O2"
_cell_formula_units_Z 120
_cell_length_a 22.099006
_cell_length_b 17.709915
_cell_length_c 17.692545
_cell_angle_alpha 90.000000
_cell_angle_beta 90.000000
_cell_angle_gamma 90.000000
_cell_volume 6924.358191
_symmetry_space_group_name_H-M "I M M M"
_symmetry_group_IT_number 71
_symmetry_cell_setting 'orthorhombic'
loop_
_space_group_symop_operation_xyz
x,y,z
-x,-y,z
x,-y,-z
-x,y,-z
-x,-y,-z
x,y,-z
-x,y,z
x,-y,z
1/2+x,1/2+y,1/2+z
1/2-x,1/2-y,1/2+z
1/2+x,1/2-y,1/2-z
1/2-x,1/2+y,1/2-z
1/2-x,1/2-y,1/2-z
1/2+x,1/2+y,1/2-z
1/2-x,1/2+y,1/2+z
1/2+x,1/2-y,1/2+z
loop_
_atom_site_type_symbol
_atom_site_label
_atom_site_fract_x
_atom_site_fract_y
_atom_site_fract_z
Si Si1 0.750506 0.855784 0.656241
Si Si2 0.567774 0.629918 0.773164
Si Si3 0.684794 0.586418 0.301853
Si Si4 0.566560 0.911183 0.500000
Si Si5 0.376297 0.915907 0.344815
Si Si6 0.180346 0.782953 0.909976
Si Si7 0.633899 0.412923 0.085147
Si Si8 0.068387 0.728814 0.177363
O O1 0.780789 0.863215 0.738762
O O2 0.695886 0.915762 0.656803
O O3 0.726005 0.772646 0.635336
O O4 0.799232 0.878260 0.593150
O O5 0.500000 0.597601 0.761232
O O6 0.614215 0.581525 0.722341
O O7 0.585156 0.627345 0.861364
O O8 0.571306 0.717499 0.749971
O O9 0.709094 0.500000 0.309820
O O10 0.692969 0.631421 0.380735
O O11 0.500000 0.873769 0.500000
O O12 0.603783 0.885809 0.572754
O O13 0.559905 0.000000 0.500000
O O14 0.407589 0.852974 0.291386
O O15 0.400041 0.000000 0.325277
O O16 0.111473 0.760717 0.889289
O O17 0.190412 0.779414 0.000000
O O18 0.637872 0.500000 0.108938
O O19 0.611200 0.401948 0.000000
O O20 0.000000 0.722698 0.145747
#
# Coordination Sequence:
#
# PCOD8288217 Si02
#       8
#    16  16  16   8  16  16  16  16
#     4  10  19  33  49  70  98 130 163 195 234 290
#     4   9  18  34  50  68  94 125 162 197 240 296
#     4  10  20  35  54  73  95 125 162 205 246 286
#     4   9  18  28  38  60  94 128 156 184 226 270
#     4  10  19  29  45  68  95 128 162 197 234 275
#     4  10  21  34  51  74  97 127 162 200 247 291
#     4  10  20  31  48  74 100 124 152 195 245 292
#     4   9  19  32  48  67  93 131 167 200 234 281
#
# _framework density 17.330124999999999
#
# number of rings (size 3 to 8) (size 9 to 14) (size 15 to 20)
#    0.000    2.333    0.000    3.600    4.667    3.733 
#    0.000    0.667    0.000    0.000    0.000    3.733 
#    0.000    0.533    0.000    2.933    0.000    0.000 
#
# Total GULP energy -743590.606301 kJ/mol
# GULP energy per Si atom -12393.176772 kJ/mol
# Density = 1.729068 g / cm^3
# Si number density = 17.330125 Si / 1000 Ang^3
#
#
#
# Elastic Constant Matrix: (Units=GPa)
#
#
# Indices 1 2 3 4 5 6 
#
# 1 99.3165 28.0486 33.6546 0.0000 0.0000 0.0000
# 2 28.0486 109.4865 48.3316 0.0000 0.0000 0.0000
# 3 33.6546 48.3316 76.4605 0.0000 0.0000 0.0000
# 4 0.0000 0.0000 0.0000 22.9650 0.0000 0.0000
# 5 0.0000 0.0000 0.0000 0.0000 15.8885 0.0000
# 6 0.0000 0.0000 0.0000 0.0000 0.0000 17.9703
#
#
#
# Elastic Compliance Matrix: (Units=1/GPa)
#
#
# Indices 1 2 3 4 5 6 
#
# 1 0.011916 -0.001023 -0.004598 0.000000 0.000000 0.000000
# 2 -0.001023 0.012756 -0.007613 0.000000 0.000000 0.000000
# 3 -0.004598 -0.007613 0.019915 0.000000 0.000000 0.000000
# 4 0.000000 0.000000 0.000000 0.043544 0.000000 0.000000
# 5 0.000000 0.000000 0.000000 0.000000 0.062939 0.000000
# 6 0.000000 0.000000 0.000000 0.000000 0.000000 0.055647
#
#
# Mechanical properties :
#
#
# Convention : Reuss Voigt Hill
#
# Bulk Modulus (GPa) = 55.19205 56.14812 55.67009
# Shear Modulus (GPa) = 20.90073 23.04667 21.97370
#
# Velocity S-wave (km/s) = 3.47657 3.65068 3.56469
# Velocity P-wave (km/s) = 6.93051 7.08798 7.00969
#
# Compressibility (1/GPa) = 0.01811855
#
# Stress axis : x y z
#
# Youngs Moduli (GPa) = 83.92168 78.39231 50.21318
#
# Poissons Ratio (x) = 0.08018 0.23090
# Poissons Ratio (y) = 0.08583 0.38229
# Poissons Ratio (z) = 0.38590 0.59682
#
# Static dielectric constant tensor:
#      x y z
#    x 3.359380 0.000000 0.000000 
#    y 0.000000 3.276740 0.000000 
#    z 0.000000 0.000000 3.065830 
# 
# 
# High freq. dielectric constant tensor:
#      x y z
#    x 1.673610 0.000000 0.000000 
#    y 0.000000 1.671890 0.000000 
#    z 0.000000 0.000000 1.638990 
# 
# From -- ./inp_files/47575.got.cif
#   From: 2010.06.25/outbox.cif.g09.slc.cpg/sg71_24_cif.got.tgz:47575.got - 2010.06.28 04:59:45.
