data_PCOD8288541
_publ_section_title
;
Structure prediction by ZEFSAII (Michael W. Deem and Ramdas Pophale) SiO2 
 PCOD8288541
Probable space group: I M M M
;
_chemical_formula_sum "Si O2"
_cell_formula_units_Z 88
_cell_length_a 21.539645
_cell_length_b 13.893490
_cell_length_c 17.447066
_cell_angle_alpha 90.000000
_cell_angle_beta 90.000000
_cell_angle_gamma 90.000000
_cell_volume 5221.223669
_symmetry_space_group_name_H-M "I M M M"
_symmetry_group_IT_number 71
_symmetry_cell_setting 'orthorhombic'
loop_
_space_group_symop_operation_xyz
x,y,z
-x,-y,z
x,-y,-z
-x,y,-z
-x,-y,-z
x,y,-z
-x,y,z
x,-y,z
1/2+x,1/2+y,1/2+z
1/2-x,1/2-y,1/2+z
1/2+x,1/2-y,1/2-z
1/2-x,1/2+y,1/2-z
1/2-x,1/2-y,1/2-z
1/2+x,1/2+y,1/2-z
1/2-x,1/2+y,1/2+z
1/2+x,1/2-y,1/2+z
loop_
_atom_site_type_symbol
_atom_site_label
_atom_site_fract_x
_atom_site_fract_y
_atom_site_fract_z
Si Si1 0.574079 0.892851 0.000000
Si Si2 0.429115 0.783212 0.854270
Si Si3 0.154994 0.706778 0.788303
Si Si4 0.366642 0.608472 0.912908
Si Si5 0.571456 0.111127 0.410388
Si Si6 0.716542 0.390028 0.228237
O O1 0.600563 0.843573 0.076117
O O2 0.500000 0.884938 0.000000
O O3 0.599195 0.000000 0.000000
O O4 0.500000 0.809051 0.839197
O O5 0.393387 0.812543 0.778736
O O6 0.422528 0.671786 0.878583
O O7 0.118932 0.682511 0.866778
O O8 0.211064 0.633529 0.773881
O O9 0.179789 0.817575 0.785887
O O10 0.391261 0.500000 0.909317
O O11 0.306585 0.624001 0.859284
O O12 0.348786 0.637296 0.000000
O O13 0.583617 0.126678 0.500000
O O14 0.500000 0.137184 0.390319
O O15 0.584689 0.000000 0.387812
O O16 0.705957 0.500000 0.256389
#
# Coordination Sequence:
#
# PCOD8288541 Si02
#       6
#     8  16  16  16  16  16
#     4   9  18  30  41  59  91 127 158 192 226 259
#     4  10  19  31  47  70  98 127 162 197 232 287
#     4  10  19  32  52  73  95 133 165 199 245 298
#     4   9  17  30  49  72  98 127 158 197 243 286
#     4   9  18  32  51  78 106 125 151 200 256 305
#     4   9  19  33  48  71 100 129 166 209 245 282
#
# _framework density 16.854286999999999
#
# number of rings (size 3 to 8) (size 9 to 14) (size 15 to 20)
#    0.000    2.636    0.909    1.636    0.000    2.545 
#    0.000    4.545    0.000    2.182    0.000    1.273 
#    0.000    0.000    0.000    0.000    0.000    0.000 
#
# Total GULP energy -545419.284906 kJ/mol
# GULP energy per Si atom -12395.892839 kJ/mol
# Density = 1.681593 g / cm^3
# Si number density = 16.854287 Si / 1000 Ang^3
#
#
#
# Elastic Constant Matrix: (Units=GPa)
#
#
# Indices 1 2 3 4 5 6 
#
# 1 82.1549 37.7005 44.3896 0.0000 0.0000 0.0000
# 2 37.7005 89.5698 43.0909 0.0000 0.0000 0.0000
# 3 44.3896 43.0909 87.8282 0.0000 0.0000 0.0000
# 4 0.0000 0.0000 0.0000 27.9979 0.0000 0.0000
# 5 0.0000 0.0000 0.0000 0.0000 12.6375 0.0000
# 6 0.0000 0.0000 0.0000 0.0000 0.0000 22.8557
#
#
#
# Elastic Compliance Matrix: (Units=1/GPa)
#
#
# Indices 1 2 3 4 5 6 
#
# 1 0.017852 -0.004154 -0.006985 0.000000 0.000000 0.000000
# 2 -0.004154 0.015580 -0.005545 0.000000 0.000000 0.000000
# 3 -0.006985 -0.005545 0.017636 0.000000 0.000000 0.000000
# 4 0.000000 0.000000 0.000000 0.035717 0.000000 0.000000
# 5 0.000000 0.000000 0.000000 0.000000 0.079129 0.000000
# 6 0.000000 0.000000 0.000000 0.000000 0.000000 0.043753
#
#
# Mechanical properties :
#
#
# Convention : Reuss Voigt Hill
#
# Bulk Modulus (GPa) = 56.48961 56.65718 56.57339
# Shear Modulus (GPa) = 20.08550 21.65636 20.87093
#
# Velocity S-wave (km/s) = 3.45587 3.58846 3.52279
# Velocity P-wave (km/s) = 7.03656 7.13150 7.08419
#
# Compressibility (1/GPa) = 0.01770237
#
# Stress axis : x y z
#
# Youngs Moduli (GPa) = 56.01513 64.18337 56.70063
#
# Poissons Ratio (x) = 0.26661 0.39604
# Poissons Ratio (y) = 0.23268 0.31439
# Poissons Ratio (z) = 0.39126 0.35588
#
# Static dielectric constant tensor:
#      x y z
#    x 3.019910 0.000000 0.000000 
#    y 0.000000 3.229230 0.000000 
#    z 0.000000 0.000000 3.167790 
# 
# 
# High freq. dielectric constant tensor:
#      x y z
#    x 1.639560 0.000000 0.000000 
#    y 0.000000 1.649160 0.000000 
#    z 0.000000 0.000000 1.645320 
# 
# From -- ./inp_files/38019.got.cif
#   From: 2010.06.25/outbox.cif.g09.slc.cpg/sg71_20_cif.got.tgz:38019.got - 2010.06.28 04:59:45.
