data_PCOD8288948
_publ_section_title
;
Structure prediction by ZEFSAII (Michael W. Deem and Ramdas Pophale) SiO2 
 PCOD8288948
Probable space group: I M M M
;
_chemical_formula_sum "Si O2"
_cell_formula_units_Z 88
_cell_length_a 9.917123
_cell_length_b 20.857091
_cell_length_c 23.250476
_cell_angle_alpha 90.000000
_cell_angle_beta 90.000000
_cell_angle_gamma 90.000000
_cell_volume 4809.182789
_symmetry_space_group_name_H-M "I M M M"
_symmetry_group_IT_number 71
_symmetry_cell_setting 'orthorhombic'
loop_
_space_group_symop_operation_xyz
x,y,z
-x,-y,z
x,-y,-z
-x,y,-z
-x,-y,-z
x,y,-z
-x,y,z
x,-y,z
1/2+x,1/2+y,1/2+z
1/2-x,1/2-y,1/2+z
1/2+x,1/2-y,1/2-z
1/2-x,1/2+y,1/2-z
1/2-x,1/2-y,1/2-z
1/2+x,1/2+y,1/2-z
1/2-x,1/2+y,1/2+z
1/2+x,1/2-y,1/2+z
loop_
_atom_site_type_symbol
_atom_site_label
_atom_site_fract_x
_atom_site_fract_y
_atom_site_fract_z
Si Si1 0.000000 0.576227 0.937137
Si Si2 0.844138 0.337283 0.226856
Si Si3 0.500000 0.576509 0.064572
Si Si4 0.344717 0.382012 0.433667
Si Si5 0.844555 0.500000 0.567854
Si Si6 0.847540 0.797701 0.173899
Si Si7 0.748702 0.924331 0.634513
O O1 0.873098 0.601849 0.903246
O O2 0.000000 0.500000 0.941514
O O3 0.000000 0.607340 0.000000
O O4 0.830951 0.278557 0.181827
O O5 0.765325 0.329312 0.286187
O O6 0.768430 0.397277 0.198215
O O7 0.000000 0.352291 0.241057
O O8 0.500000 0.500000 0.060744
O O9 0.624183 0.603157 0.100734
O O10 0.500000 0.604937 0.000000
O O11 0.315317 0.361777 0.500000
O O12 0.500000 0.406617 0.428352
O O13 0.241003 0.437426 0.412790
O O14 0.322101 0.320416 0.391941
O O15 0.853466 0.500000 0.500000
O O16 0.000000 0.500000 0.592740
O O17 0.000000 0.817428 0.193050
O O18 0.754579 0.000000 0.640014
#
# Coordination Sequence:
#
# PCOD8288948 Si02
#       7
#     8  16   8  16   8  16  16
#     4   9  16  28  48  73 102 136 169 203 256 316
#     4  10  20  36  55  77 105 141 181 217 261 313
#     4   9  18  32  50  73 104 142 179 213 260 314
#     4   9  17  33  56  80 107 137 173 218 265 313
#     4   9  17  29  51  81 111 139 165 201 262 327
#     4   9  20  37  57  77 100 141 183 215 255 314
#     4  10  19  32  52  77 106 138 173 221 267 307
#
# _framework density 18.298328000000001
#
# number of rings (size 3 to 8) (size 9 to 14) (size 15 to 20)
#    0.000    2.636    0.909    0.818    1.273    4.000 
#    1.636    1.818    0.000    0.000    0.000    0.000 
#    0.000    0.000    0.000    0.000    0.000    0.000 
#
# Total GULP energy -545251.825695 kJ/mol
# GULP energy per Si atom -12392.086948 kJ/mol
# Density = 1.825668 g / cm^3
# Si number density = 18.298328 Si / 1000 Ang^3
#
#
#
# Elastic Constant Matrix: (Units=GPa)
#
#
# Indices 1 2 3 4 5 6 
#
# 1 140.3248 31.4697 53.8272 0.0000 0.0000 0.0000
# 2 31.4697 36.1460 36.5733 0.0000 0.0000 0.0000
# 3 53.8272 36.5733 100.0475 0.0000 0.0000 0.0000
# 4 0.0000 0.0000 0.0000 30.1816 0.0000 0.0000
# 5 0.0000 0.0000 0.0000 0.0000 28.7670 0.0000
# 6 0.0000 0.0000 0.0000 0.0000 0.0000 25.6220
#
#
#
# Elastic Compliance Matrix: (Units=1/GPa)
#
#
# Indices 1 2 3 4 5 6 
#
# 1 0.009500 -0.004919 -0.003313 0.000000 0.000000 0.000000
# 2 -0.004919 0.046452 -0.014335 0.000000 0.000000 0.000000
# 3 -0.003313 -0.014335 0.017018 0.000000 0.000000 0.000000
# 4 0.000000 0.000000 0.000000 0.033133 0.000000 0.000000
# 5 0.000000 0.000000 0.000000 0.000000 0.034762 0.000000
# 6 0.000000 0.000000 0.000000 0.000000 0.000000 0.039029
#
#
# Mechanical properties :
#
#
# Convention : Reuss Voigt Hill
#
# Bulk Modulus (GPa) = 35.92326 57.80649 46.86488
# Shear Modulus (GPa) = 21.33957 27.22399 24.28178
#
# Velocity S-wave (km/s) = 3.41868 3.86137 3.64675
# Velocity P-wave (km/s) = 5.93782 7.17913 6.58778
#
# Compressibility (1/GPa) = 0.02783711
#
# Stress axis : x y z
#
# Youngs Moduli (GPa) = 105.25909 21.52755 58.76162
#
# Poissons Ratio (x) = 0.10589 0.19469
# Poissons Ratio (y) = 0.51776 0.84232
# Poissons Ratio (z) = 0.34874 0.30859
#
# Static dielectric constant tensor:
#      x y z
#    x 3.675710 0.000000 0.000000 
#    y 0.000000 3.099760 0.000000 
#    z 0.000000 0.000000 3.324440 
# 
# 
# High freq. dielectric constant tensor:
#      x y z
#    x 1.724820 0.000000 0.000000 
#    y 0.000000 1.675750 0.000000 
#    z 0.000000 0.000000 1.700910 
# 
# From -- ./inp_files/50593.got.cif
#   From: 2010.06.25/outbox.cif.g09.slc.cpg/sg71_26_cif.got.tgz:50593.got - 2010.06.28 04:59:45.
