data_PCOD8288182
_publ_section_title
;
Structure prediction by ZEFSAII (Michael W. Deem and Ramdas Pophale) SiO2 
 PCOD8288182
Probable space group: I M M M
;
_chemical_formula_sum "Si O2"
_cell_formula_units_Z 112
_cell_length_a 8.884502
_cell_length_b 31.208932
_cell_length_c 32.421274
_cell_angle_alpha 90.000000
_cell_angle_beta 90.000000
_cell_angle_gamma 90.000000
_cell_volume 8989.635294
_symmetry_space_group_name_H-M "I M M M"
_symmetry_group_IT_number 71
_symmetry_cell_setting 'orthorhombic'
loop_
_space_group_symop_operation_xyz
x,y,z
-x,-y,z
x,-y,-z
-x,y,-z
-x,-y,-z
x,y,-z
-x,y,z
x,-y,z
1/2+x,1/2+y,1/2+z
1/2-x,1/2-y,1/2+z
1/2+x,1/2-y,1/2-z
1/2-x,1/2+y,1/2-z
1/2-x,1/2-y,1/2-z
1/2+x,1/2+y,1/2-z
1/2-x,1/2+y,1/2+z
1/2+x,1/2-y,1/2+z
loop_
_atom_site_type_symbol
_atom_site_label
_atom_site_fract_x
_atom_site_fract_y
_atom_site_fract_z
Si Si1 0.176598 0.712700 0.276074
Si Si2 0.322210 0.414668 0.000000
Si Si3 0.824848 0.797719 0.417586
Si Si4 0.327391 0.049275 0.420610
Si Si5 0.167327 0.660583 0.798141
Si Si6 0.670022 0.248838 0.652502
Si Si7 0.672748 0.616338 0.866755
Si Si8 0.178385 0.678427 0.000000
O O1 0.250000 0.750000 0.250000
O O2 0.205285 0.668354 0.250499
O O3 0.252831 0.712384 0.321437
O O4 0.000000 0.721813 0.280821
O O5 0.275433 0.441266 0.960002
O O6 0.244562 0.368941 0.000000
O O7 0.500000 0.407414 0.000000
O O8 0.762900 0.759225 0.389304
O O9 0.795569 0.843611 0.396528
O O10 0.734757 0.795900 0.460168
O O11 0.000000 0.790195 0.425916
O O12 0.500000 0.060455 0.431369
O O13 0.273925 0.076983 0.381703
O O14 0.308900 0.000000 0.408053
O O15 0.174699 0.706270 0.820315
O O16 0.283166 0.627977 0.819639
O O17 0.000000 0.641261 0.802799
O O18 0.500000 0.262064 0.641374
O O19 0.500000 0.602400 0.867698
O O20 0.000000 0.675814 0.000000
#
# Coordination Sequence:
#
# PCOD8288182 Si02
#       8
#    16   8  16  16  16  16  16   8
#     4   9  15  23  35  52  72  93 114 134 158 189
#     4  12  23  35  48  61  72  84 106 138 176 216
#     4  10  19  30  42  56  72  90 113 140 170 205
#     4  11  23  36  48  59  71  88 109 136 175 220
#     4   8  15  25  37  52  72  93 112 132 158 193
#     4   9  16  25  37  53  72  93 114 135 162 194
#     4  10  19  29  43  58  72  88 109 136 167 205
#     4  12  22  31  45  58  72  91 112 142 176 214
#
# _framework density 12.458792000000001
#
# number of rings (size 3 to 8) (size 9 to 14) (size 15 to 20)
#    0.000    2.143    1.429    4.500    0.000    7.143 
#    0.000    0.000    0.000    0.000    0.000    0.000 
#    0.000    0.000    0.000    0.000    0.000    0.000 
#
# Total GULP energy -694230.271734 kJ/mol
# GULP energy per Si atom -12396.969138 kJ/mol
# Density = 1.243044 g / cm^3
# Si number density = 12.458792 Si / 1000 Ang^3
#
#
#
# Elastic Constant Matrix: (Units=GPa)
#
#
# Indices 1 2 3 4 5 6 
#
# 1 97.0933 25.0496 47.8660 0.0000 0.0000 0.0000
# 2 25.0496 26.6530 36.5489 0.0000 0.0000 0.0000
# 3 47.8660 36.5489 75.9797 0.0000 0.0000 0.0000
# 4 0.0000 0.0000 0.0000 5.5151 0.0000 0.0000
# 5 0.0000 0.0000 0.0000 0.0000 23.3266 0.0000
# 6 0.0000 0.0000 0.0000 0.0000 0.0000 13.4207
#
#
#
# Elastic Compliance Matrix: (Units=1/GPa)
#
#
# Indices 1 2 3 4 5 6 
#
# 1 0.015041 -0.003356 -0.007861 0.000000 0.000000 0.000000
# 2 -0.003356 0.110981 -0.051271 0.000000 0.000000 0.000000
# 3 -0.007861 -0.051271 0.042777 0.000000 0.000000 0.000000
# 4 0.000000 0.000000 0.000000 0.181320 0.000000 0.000000
# 5 0.000000 0.000000 0.000000 0.000000 0.042870 0.000000
# 6 0.000000 0.000000 0.000000 0.000000 0.000000 0.074512
#
#
# Mechanical properties :
#
#
# Convention : Reuss Voigt Hill
#
# Bulk Modulus (GPa) = 22.81975 46.51722 34.66849
# Shear Modulus (GPa) = 8.23609 14.46992 11.35301
#
# Velocity S-wave (km/s) = 2.57391 3.41166 3.02196
# Velocity P-wave (km/s) = 5.21434 7.27579 6.32955
#
# Compressibility (1/GPa) = 0.04382168
#
# Stress axis : x y z
#
# Youngs Moduli (GPa) = 66.48674 9.01052 23.37709
#
# Poissons Ratio (x) = 0.03024 0.18376
# Poissons Ratio (y) = 0.22315 1.19858
# Poissons Ratio (z) = 0.52264 0.46198
#
# Static dielectric constant tensor:
#      x y z
#    x 2.756230 0.000000 0.000000 
#    y 0.000000 2.252030 0.000000 
#    z 0.000000 0.000000 2.716210 
# 
# 
# High freq. dielectric constant tensor:
#      x y z
#    x 1.494770 0.000000 0.000000 
#    y 0.000000 1.410920 0.000000 
#    z 0.000000 0.000000 1.463180 
# 
# From -- ./inp_files/17618.got.cif
#   From: 2010.06.25/outbox.cif.g09.slc.cpg/sg71_9_cif.got.tgz:17618.got - 2010.06.28 04:59:45.
