data_PCOD8288646
_publ_section_title
;
Structure prediction by ZEFSAII (Michael W. Deem and Ramdas Pophale) SiO2 
 PCOD8288646
Probable space group: I M M M
;
_chemical_formula_sum "Si O2"
_cell_formula_units_Z 104
_cell_length_a 10.424301
_cell_length_b 19.598543
_cell_length_c 29.749687
_cell_angle_alpha 90.000000
_cell_angle_beta 90.000000
_cell_angle_gamma 90.000000
_cell_volume 6077.894118
_symmetry_space_group_name_H-M "I M M M"
_symmetry_group_IT_number 71
_symmetry_cell_setting 'orthorhombic'
loop_
_space_group_symop_operation_xyz
x,y,z
-x,-y,z
x,-y,-z
-x,y,-z
-x,-y,-z
x,y,-z
-x,y,z
x,-y,z
1/2+x,1/2+y,1/2+z
1/2-x,1/2-y,1/2+z
1/2+x,1/2-y,1/2-z
1/2-x,1/2+y,1/2-z
1/2-x,1/2-y,1/2-z
1/2+x,1/2+y,1/2-z
1/2-x,1/2+y,1/2+z
1/2+x,1/2-y,1/2+z
loop_
_atom_site_type_symbol
_atom_site_label
_atom_site_fract_x
_atom_site_fract_y
_atom_site_fract_z
Si Si1 0.273753 0.214907 0.177707
Si Si2 0.359474 0.325432 0.888691
Si Si3 0.359230 0.829199 0.729376
Si Si4 0.647357 0.366760 0.603097
Si Si5 0.854258 0.078919 0.309669
Si Si6 0.346852 0.500000 0.448547
Si Si7 0.144380 0.272010 0.052276
O O1 0.358549 0.260779 0.144583
O O2 0.362328 0.188966 0.217991
O O3 0.160718 0.262013 0.198631
O O4 0.217552 0.150456 0.150072
O O5 0.500000 0.326374 0.912213
O O6 0.338645 0.394453 0.860487
O O7 0.245859 0.322712 0.924884
O O8 0.500000 0.858865 0.717013
O O9 0.246411 0.883800 0.722663
O O10 0.500000 0.379902 0.614969
O O11 0.704841 0.433718 0.578525
O O12 0.665272 0.304785 0.568611
O O13 0.000000 0.092661 0.292464
O O14 0.820269 0.000000 0.309396
O O15 0.500000 0.500000 0.450506
O O16 0.293841 0.500000 0.500000
O O17 0.000000 0.296665 0.064052
O O18 0.170831 0.273805 0.000000
#
# Coordination Sequence:
#
# PCOD8288646 Si02
#       7
#    16  16  16  16  16   8  16
#     4   9  18  30  46  68  97 126 156 196 245 285
#     4   9  17  30  50  72  93 120 155 192 231 281
#     4  10  19  31  50  72  95 126 164 203 240 286
#     4   9  16  27  43  65  93 126 160 195 236 282
#     4   9  19  35  51  69  95 126 157 193 240 288
#     4   9  16  26  42  64  91 125 163 199 235 281
#     4   9  17  29  46  70  98 123 150 192 242 282
#
# _framework density 17.111190000000001
#
# number of rings (size 3 to 8) (size 9 to 14) (size 15 to 20)
#    0.000    2.846    0.000    1.385    0.000   10.462 
#    1.385    0.000    0.000    0.462    0.000    8.077 
#    0.000   20.308    0.000    0.000    0.000    0.000 
#
# Total GULP energy -644555.459206 kJ/mol
# GULP energy per Si atom -12395.297292 kJ/mol
# Density = 1.707224 g / cm^3
# Si number density = 17.111190 Si / 1000 Ang^3
#
#
#
# Elastic Constant Matrix: (Units=GPa)
#
#
# Indices 1 2 3 4 5 6 
#
# 1 103.4774 34.3310 41.6924 0.0000 0.0000 0.0000
# 2 34.3310 77.7554 30.7494 0.0000 0.0000 0.0000
# 3 41.6924 30.7494 87.6233 0.0000 0.0000 0.0000
# 4 0.0000 0.0000 0.0000 22.6344 0.0000 0.0000
# 5 0.0000 0.0000 0.0000 0.0000 19.8102 0.0000
# 6 0.0000 0.0000 0.0000 0.0000 0.0000 19.3785
#
#
#
# Elastic Compliance Matrix: (Units=1/GPa)
#
#
# Indices 1 2 3 4 5 6 
#
# 1 0.012846 -0.003779 -0.004786 0.000000 0.000000 0.000000
# 2 -0.003779 0.016045 -0.003832 0.000000 0.000000 0.000000
# 3 -0.004786 -0.003832 0.015035 0.000000 0.000000 0.000000
# 4 0.000000 0.000000 0.000000 0.044180 0.000000 0.000000
# 5 0.000000 0.000000 0.000000 0.000000 0.050479 0.000000
# 6 0.000000 0.000000 0.000000 0.000000 0.000000 0.051604
#
#
# Mechanical properties :
#
#
# Convention : Reuss Voigt Hill
#
# Bulk Modulus (GPa) = 52.27298 53.60020 52.93659
# Shear Modulus (GPa) = 22.58747 23.17017 22.87882
#
# Velocity S-wave (km/s) = 3.63718 3.68379 3.66056
# Velocity P-wave (km/s) = 6.94652 7.03466 6.99073
#
# Compressibility (1/GPa) = 0.01913034
#
# Stress axis : x y z
#
# Youngs Moduli (GPa) = 77.84405 62.32459 66.51265
#
# Poissons Ratio (x) = 0.23554 0.31834
# Poissons Ratio (y) = 0.29419 0.25491
# Poissons Ratio (z) = 0.37258 0.23886
#
# Static dielectric constant tensor:
#      x y z
#    x 3.160570 0.000000 0.000000 
#    y 0.000000 3.097410 0.000000 
#    z 0.000000 0.000000 3.180070 
# 
# 
# High freq. dielectric constant tensor:
#      x y z
#    x 1.651300 0.000000 0.000000 
#    y 0.000000 1.638020 0.000000 
#    z 0.000000 0.000000 1.654720 
# 
# From -- ./inp_files/68290.got.cif
#   From: 2010.06.25/outbox.cif.g09.slc.cpg/sg71_35_cif.got.tgz:68290.got - 2010.06.28 04:59:45.
