data_PCOD8288199
_publ_section_title
;
Structure prediction by ZEFSAII (Michael W. Deem and Ramdas Pophale) SiO2 
 PCOD8288199
Probable space group: I M M M
;
_chemical_formula_sum "Si O2"
_cell_formula_units_Z 80
_cell_length_a 23.231306
_cell_length_b 23.118552
_cell_length_c 9.178171
_cell_angle_alpha 90.000000
_cell_angle_beta 90.000000
_cell_angle_gamma 90.000000
_cell_volume 4929.358442
_symmetry_space_group_name_H-M "I M M M"
_symmetry_group_IT_number 71
_symmetry_cell_setting 'orthorhombic'
loop_
_space_group_symop_operation_xyz
x,y,z
-x,-y,z
x,-y,-z
-x,y,-z
-x,-y,-z
x,y,-z
-x,y,z
x,-y,z
1/2+x,1/2+y,1/2+z
1/2-x,1/2-y,1/2+z
1/2+x,1/2-y,1/2-z
1/2-x,1/2+y,1/2-z
1/2-x,1/2-y,1/2-z
1/2+x,1/2+y,1/2-z
1/2-x,1/2+y,1/2+z
1/2+x,1/2-y,1/2+z
loop_
_atom_site_type_symbol
_atom_site_label
_atom_site_fract_x
_atom_site_fract_y
_atom_site_fract_z
Si Si1 0.868941 0.064391 0.664889
Si Si2 0.261666 0.500000 0.169683
Si Si3 0.068442 0.725011 0.335482
Si Si4 0.865352 0.500000 0.826134
Si Si5 0.066715 0.837915 0.170039
Si Si6 0.433102 0.111948 0.329814
O O1 0.876345 0.088553 0.500000
O O2 0.898505 0.106074 0.779795
O O3 0.897304 0.000000 0.674249
O O4 0.800582 0.057124 0.705620
O O5 0.198981 0.500000 0.245105
O O6 0.248812 0.500000 0.000000
O O7 0.092069 0.725651 0.500000
O O8 0.091457 0.781772 0.252628
O O9 0.091138 0.667793 0.254688
O O10 0.000000 0.725157 0.331178
O O11 0.898322 0.556805 0.770055
O O12 0.865663 0.500000 0.000000
O O13 0.000000 0.848148 0.207758
O O14 0.076355 0.828082 0.000000
O O15 0.422719 0.122821 0.500000
O O16 0.500000 0.100765 0.296599
#
# Coordination Sequence:
#
# PCOD8288199 Si02
#       6
#    16   8  16   8  16  16
#     4   8  16  30  46  64  87 117 150 185 221 258
#     4   7  14  29  46  65  86 115 154 187 218 256
#     4   9  17  29  44  62  89 124 153 177 213 263
#     4   9  15  26  48  71  91 118 150 183 218 262
#     4  10  19  29  44  67  92 117 146 181 222 267
#     4   9  16  26  43  70  99 121 144 177 218 262
#
# _framework density 16.229292000000001
#
# number of rings (size 3 to 8) (size 9 to 14) (size 15 to 20)
#    0.600    2.600    0.000    1.500    0.000    5.600 
#    0.000    2.500    0.000    6.000    0.000    0.000 
#    0.000    0.000    0.000    0.000    0.000    0.000 
#
# Total GULP energy -495649.945448 kJ/mol
# GULP energy per Si atom -12391.248636 kJ/mol
# Density = 1.619235 g / cm^3
# Si number density = 16.229292 Si / 1000 Ang^3
#
#
#
# Elastic Constant Matrix: (Units=GPa)
#
#
# Indices 1 2 3 4 5 6 
#
# 1 67.6916 52.1676 34.1715 0.0000 0.0000 0.0000
# 2 52.1676 128.1260 52.9683 0.0000 0.0000 0.0000
# 3 34.1715 52.9683 70.9275 0.0000 0.0000 0.0000
# 4 0.0000 0.0000 0.0000 28.9151 0.0000 0.0000
# 5 0.0000 0.0000 0.0000 0.0000 10.5179 0.0000
# 6 0.0000 0.0000 0.0000 0.0000 0.0000 0.3623
#
#
#
# Elastic Compliance Matrix: (Units=1/GPa)
#
#
# Indices 1 2 3 4 5 6 
#
# 1 0.023143 -0.006963 -0.005950 0.000000 0.000000 0.000000
# 2 -0.006963 0.013386 -0.006642 0.000000 0.000000 0.000000
# 3 -0.005950 -0.006642 0.021925 0.000000 0.000000 0.000000
# 4 0.000000 0.000000 0.000000 0.034584 0.000000 0.000000
# 5 0.000000 0.000000 0.000000 0.000000 0.095076 0.000000
# 6 0.000000 0.000000 0.000000 0.000000 0.000000 2.760143
#
#
# Mechanical properties :
#
#
# Convention : Reuss Voigt Hill
#
# Bulk Modulus (GPa) = 51.69370 60.59557 56.14463
# Shear Modulus (GPa) = 1.67011 16.45490 9.06251
#
# Velocity S-wave (km/s) = 1.01553 3.18764 2.36562
# Velocity P-wave (km/s) = 5.77030 7.13907 6.49086
#
# Compressibility (1/GPa) = 0.01934472
#
# Stress axis : x y z
#
# Youngs Moduli (GPa) = 43.21052 74.70720 45.60948
#
# Poissons Ratio (x) = 0.52019 0.27136
# Poissons Ratio (y) = 0.30088 0.30292
# Poissons Ratio (z) = 0.25709 0.49618
#
# Static dielectric constant tensor:
#      x y z
#    x 2.946220 0.000000 0.000000 
#    y 0.000000 3.103470 0.000000 
#    z 0.000000 0.000000 2.911320 
# 
# 
# High freq. dielectric constant tensor:
#      x y z
#    x 1.586710 0.000000 0.000000 
#    y 0.000000 1.626210 0.000000 
#    z 0.000000 0.000000 1.610560 
# 
# From -- ./inp_files/14765.got.cif
#   From: 2010.06.25/outbox.cif.g09.slc.cpg/sg71_8_cif.got.tgz:14765.got - 2010.06.28 04:59:45.
