data_PCOD8288700
_publ_section_title
;
Structure prediction by ZEFSAII (Michael W. Deem and Ramdas Pophale) SiO2 
 PCOD8288700
Probable space group: I M M M
;
_chemical_formula_sum "Si O2"
_cell_formula_units_Z 56
_cell_length_a 8.883511
_cell_length_b 14.470739
_cell_length_c 20.629434
_cell_angle_alpha 90.000000
_cell_angle_beta 90.000000
_cell_angle_gamma 90.000000
_cell_volume 2651.933732
_symmetry_space_group_name_H-M "I M M M"
_symmetry_group_IT_number 71
_symmetry_cell_setting 'orthorhombic'
loop_
_space_group_symop_operation_xyz
x,y,z
-x,-y,z
x,-y,-z
-x,y,-z
-x,-y,-z
x,y,-z
-x,y,z
x,-y,z
1/2+x,1/2+y,1/2+z
1/2-x,1/2-y,1/2+z
1/2+x,1/2-y,1/2-z
1/2-x,1/2+y,1/2-z
1/2-x,1/2-y,1/2-z
1/2+x,1/2+y,1/2-z
1/2-x,1/2+y,1/2+z
1/2+x,1/2-y,1/2+z
loop_
_atom_site_type_symbol
_atom_site_label
_atom_site_fract_x
_atom_site_fract_y
_atom_site_fract_z
Si Si1 0.677888 0.500000 0.384588
Si Si2 0.337928 0.500000 0.072423
Si Si3 0.325068 0.000000 0.252687
Si Si4 0.175430 0.314159 0.573776
Si Si5 0.824203 0.348767 0.141434
O O1 0.500000 0.500000 0.391420
O O2 0.720606 0.500000 0.309232
O O3 0.743931 0.411883 0.420858
O O4 0.500000 0.500000 0.111508
O O5 0.236564 0.589262 0.083480
O O6 0.388510 0.500000 0.000000
O O7 0.287263 0.094007 0.292805
O O8 0.500000 0.000000 0.232938
O O9 0.201851 0.276815 0.500000
O O10 0.240450 0.248749 0.631315
O O11 0.000000 0.326581 0.588235
O O12 0.000000 0.330780 0.134459
#
# Coordination Sequence:
#
# PCOD8288700 Si02
#       5
#     8   8   8  16  16
#     4  12  26  42  64  90 117 157 206 256 303 350
#     4  10  19  31  50  80 119 160 198 239 295 359
#     4   9  21  42  63  88 124 162 200 243 298 360
#     4  11  24  42  64  90 122 161 201 245 303 364
#     4  10  21  37  60  89 120 156 199 248 298 351
#
# _framework density 21.116668000000001
#
# number of rings (size 3 to 8) (size 9 to 14) (size 15 to 20)
#    0.000    1.571    0.000    5.571    0.000   13.143 
#    0.000    0.000    0.000    0.000    0.000    0.000 
#    0.000    0.000    0.000    0.000    0.000    0.000 
#
# Total GULP energy -347003.489479 kJ/mol
# GULP energy per Si atom -12392.981767 kJ/mol
# Density = 2.106861 g / cm^3
# Si number density = 21.116668 Si / 1000 Ang^3
#
#
#
# Elastic Constant Matrix: (Units=GPa)
#
#
# Indices 1 2 3 4 5 6 
#
# 1 144.6065 43.3997 43.3622 0.0000 0.0000 0.0000
# 2 43.3997 114.9194 15.0497 0.0000 0.0000 0.0000
# 3 43.3622 15.0497 71.2434 0.0000 0.0000 0.0000
# 4 0.0000 0.0000 0.0000 48.9396 0.0000 0.0000
# 5 0.0000 0.0000 0.0000 0.0000 31.8630 0.0000
# 6 0.0000 0.0000 0.0000 0.0000 0.0000 72.3238
#
#
#
# Elastic Compliance Matrix: (Units=1/GPa)
#
#
# Indices 1 2 3 4 5 6 
#
# 1 0.009283 -0.002845 -0.005049 0.000000 0.000000 0.000000
# 2 -0.002845 0.009821 -0.000343 0.000000 0.000000 0.000000
# 3 -0.005049 -0.000343 0.017182 0.000000 0.000000 0.000000
# 4 0.000000 0.000000 0.000000 0.020433 0.000000 0.000000
# 5 0.000000 0.000000 0.000000 0.000000 0.031384 0.000000
# 6 0.000000 0.000000 0.000000 0.000000 0.000000 0.013827
#
#
# Mechanical properties :
#
#
# Convention : Reuss Voigt Hill
#
# Bulk Modulus (GPa) = 50.47440 59.37694 54.92567
# Shear Modulus (GPa) = 39.99715 45.88913 42.94314
#
# Velocity S-wave (km/s) = 4.35685 4.66673 4.51445
# Velocity P-wave (km/s) = 7.01884 7.56422 7.29663
#
# Compressibility (1/GPa) = 0.01981202
#
# Stress axis : x y z
#
# Youngs Moduli (GPa) = 107.72228 101.82301 58.19997
#
# Poissons Ratio (x) = 0.28964 0.29387
# Poissons Ratio (y) = 0.30642 0.01998
# Poissons Ratio (z) = 0.54392 0.03495
#
# Static dielectric constant tensor:
#      x y z
#    x 3.864610 0.000000 0.000000 
#    y 0.000000 3.918480 0.000000 
#    z 0.000000 0.000000 3.681770 
# 
# 
# High freq. dielectric constant tensor:
#      x y z
#    x 1.843830 0.000000 0.000000 
#    y 0.000000 1.833510 0.000000 
#    z 0.000000 0.000000 1.815940 
# 
# From -- ./inp_files/30982.got.cif
#   From: 2010.06.25/outbox.cif.g09.slc.cpg/sg71_16_cif.got.tgz:30982.got - 2010.06.28 04:59:45.
