data_PCOD8288177
_publ_section_title
;
Structure prediction by ZEFSAII (Michael W. Deem and Ramdas Pophale) SiO2 
 PCOD8288177
Probable space group: I M M M
;
_chemical_formula_sum "Si O2"
_cell_formula_units_Z 120
_cell_length_a 24.613869
_cell_length_b 9.666490
_cell_length_c 30.315563
_cell_angle_alpha 90.000000
_cell_angle_beta 90.000000
_cell_angle_gamma 90.000000
_cell_volume 7212.973372
_symmetry_space_group_name_H-M "I M M M"
_symmetry_group_IT_number 71
_symmetry_cell_setting 'orthorhombic'
loop_
_space_group_symop_operation_xyz
x,y,z
-x,-y,z
x,-y,-z
-x,y,-z
-x,-y,-z
x,y,-z
-x,y,z
x,-y,z
1/2+x,1/2+y,1/2+z
1/2-x,1/2-y,1/2+z
1/2+x,1/2-y,1/2-z
1/2-x,1/2+y,1/2-z
1/2-x,1/2-y,1/2-z
1/2+x,1/2+y,1/2-z
1/2-x,1/2+y,1/2+z
1/2+x,1/2-y,1/2+z
loop_
_atom_site_type_symbol
_atom_site_label
_atom_site_fract_x
_atom_site_fract_y
_atom_site_fract_z
Si Si1 0.561934 0.841471 0.761535
Si Si2 0.560865 0.664986 0.000000
Si Si3 0.748183 0.843279 0.292990
Si Si4 0.361685 0.664504 0.076266
Si Si5 0.756376 0.664887 0.950645
Si Si6 0.368759 0.343652 0.174308
Si Si7 0.559115 0.835522 0.661655
Si Si8 0.828142 0.335236 0.871053
O O1 0.500000 0.825643 0.777522
O O2 0.600484 0.752100 0.791798
O O3 0.568266 0.785618 0.711756
O O4 0.580996 0.000000 0.764750
O O5 0.592389 0.720230 0.956949
O O6 0.559472 0.500000 0.000000
O O7 0.500000 0.726072 0.000000
O O8 0.750000 0.750000 0.250000
O O9 0.804864 0.839135 0.318023
O O10 0.703573 0.784282 0.327311
O O11 0.733699 0.000000 0.278636
O O12 0.358036 0.500000 0.074817
O O13 0.302918 0.724036 0.062128
O O14 0.378636 0.713716 0.125010
O O15 0.755430 0.500000 0.948812
O O16 0.800700 0.723666 0.915743
O O17 0.771915 0.715360 0.000000
O O18 0.390839 0.500000 0.179429
O O19 0.500000 0.780566 0.644351
O O20 0.609189 0.781749 0.631567
O O21 0.557768 0.000000 0.661732
O O22 0.825636 0.500000 0.871967
#
# Coordination Sequence:
#
# PCOD8288177 Si02
#       8
#    16   8  16  16  16  16  16  16
#     4   9  18  32  47  62  83 117 158 187 211 256
#     4   9  16  24  36  54  77 109 142 170 210 262
#     4  10  19  29  42  63  91 121 150 183 224 269
#     4   9  15  25  38  54  82 111 135 172 217 262
#     4   9  14  22  38  57  79 111 143 172 215 268
#     4  10  19  29  43  65  91 115 143 184 232 268
#     4   8  14  25  41  58  76 104 144 184 212 243
#     4   9  15  24  39  59  82 108 141 177 217 265
#
# _framework density 16.636690999999999
#
# number of rings (size 3 to 8) (size 9 to 14) (size 15 to 20)
#    0.000    2.867    2.000    1.600    0.000    2.400 
#    0.000    1.333    0.000    0.400    0.000    3.267 
#    0.000    3.200    0.000    0.000    0.000    0.000 
#
# Total GULP energy -743634.368658 kJ/mol
# GULP energy per Si atom -12393.906144 kJ/mol
# Density = 1.659883 g / cm^3
# Si number density = 16.636691 Si / 1000 Ang^3
#
#
#
# Elastic Constant Matrix: (Units=GPa)
#
#
# Indices 1 2 3 4 5 6 
#
# 1 136.2802 15.1257 66.5704 0.0000 0.0000 0.0000
# 2 15.1257 20.2556 15.2485 0.0000 0.0000 0.0000
# 3 66.5704 15.2485 103.5983 0.0000 0.0000 0.0000
# 4 0.0000 0.0000 0.0000 12.7104 0.0000 0.0000
# 5 0.0000 0.0000 0.0000 0.0000 28.6790 0.0000
# 6 0.0000 0.0000 0.0000 0.0000 0.0000 13.6555
#
#
#
# Elastic Compliance Matrix: (Units=1/GPa)
#
#
# Indices 1 2 3 4 5 6 
#
# 1 0.010878 -0.003218 -0.006516 0.000000 0.000000 0.000000
# 2 -0.003218 0.056473 -0.006245 0.000000 0.000000 0.000000
# 3 -0.006516 -0.006245 0.014759 0.000000 0.000000 0.000000
# 4 0.000000 0.000000 0.000000 0.078676 0.000000 0.000000
# 5 0.000000 0.000000 0.000000 0.000000 0.034869 0.000000
# 6 0.000000 0.000000 0.000000 0.000000 0.000000 0.073230
#
#
# Mechanical properties :
#
#
# Convention : Reuss Voigt Hill
#
# Bulk Modulus (GPa) = 19.93913 50.44705 35.19309
# Shear Modulus (GPa) = 15.74509 21.88829 18.81669
#
# Velocity S-wave (km/s) = 3.07971 3.63114 3.36674
# Velocity P-wave (km/s) = 4.96560 6.92596 6.02603
#
# Compressibility (1/GPa) = 0.05015265
#
# Stress axis : x y z
#
# Youngs Moduli (GPa) = 91.92762 17.70769 67.75441
#
# Poissons Ratio (x) = 0.05697 0.44152
# Poissons Ratio (y) = 0.29578 0.42310
# Poissons Ratio (z) = 0.59905 0.11058
#
# Static dielectric constant tensor:
#      x y z
#    x 3.432200 0.000000 0.000000 
#    y 0.000000 2.595200 0.000000 
#    z 0.000000 0.000000 3.299260 
# 
# 
# High freq. dielectric constant tensor:
#      x y z
#    x 1.651110 0.000000 0.000000 
#    y 0.000000 1.567350 0.000000 
#    z 0.000000 0.000000 1.640500 
# 
# From -- ./inp_files/67205.got.cif
#   From: 2010.06.25/outbox.cif.g09.slc.cpg/sg71_34_cif.got.tgz:67205.got - 2010.06.28 04:59:45.
