data_PCOD8288730
_publ_section_title
;
Structure prediction by ZEFSAII (Michael W. Deem and Ramdas Pophale) SiO2 
 PCOD8288730
Probable space group: I M M M
;
_chemical_formula_sum "Si O2"
_cell_formula_units_Z 72
_cell_length_a 17.655055
_cell_length_b 7.742307
_cell_length_c 27.384878
_cell_angle_alpha 90.000000
_cell_angle_beta 90.000000
_cell_angle_gamma 90.000000
_cell_volume 3743.262413
_symmetry_space_group_name_H-M "I M M M"
_symmetry_group_IT_number 71
_symmetry_cell_setting 'orthorhombic'
loop_
_space_group_symop_operation_xyz
x,y,z
-x,-y,z
x,-y,-z
-x,y,-z
-x,-y,-z
x,y,-z
-x,y,z
x,-y,z
1/2+x,1/2+y,1/2+z
1/2-x,1/2-y,1/2+z
1/2+x,1/2-y,1/2-z
1/2-x,1/2+y,1/2-z
1/2-x,1/2-y,1/2-z
1/2+x,1/2+y,1/2-z
1/2-x,1/2+y,1/2+z
1/2+x,1/2-y,1/2+z
loop_
_atom_site_type_symbol
_atom_site_label
_atom_site_fract_x
_atom_site_fract_y
_atom_site_fract_z
Si Si1 0.910430 0.000000 0.443751
Si Si2 0.270057 0.298056 0.304519
Si Si3 0.172594 0.300898 0.054766
Si Si4 0.179876 0.304216 0.603842
Si Si5 0.083033 0.204369 0.855688
O O1 0.881954 0.826462 0.417363
O O2 0.882685 0.000000 0.500000
O O3 0.000000 0.000000 0.440288
O O4 0.277263 0.500000 0.310537
O O5 0.250000 0.250000 0.250000
O O6 0.204354 0.236777 0.341915
O O7 0.351961 0.217771 0.319699
O O8 0.196837 0.500000 0.058775
O O9 0.245166 0.189717 0.070602
O O10 0.101129 0.259776 0.088928
O O11 0.148795 0.250567 0.000000
O O12 0.146383 0.500000 0.605222
O O13 0.000000 0.279243 0.841477
O O14 0.081214 0.000000 0.852031
#
# Coordination Sequence:
#
# PCOD8288730 Si02
#       5
#     8  16  16  16  16
#     4  11  24  40  60  88 119 157 203 247 305 366
#     4   9  19  34  58  85 108 146 195 238 291 351
#     4  10  19  31  51  79 109 145 189 228 268 330
#     4  10  21  38  59  85 118 152 192 246 294 347
#     4   9  19  35  51  73 108 145 184 230 279 334
#
# _framework density 19.234559000000001
#
# number of rings (size 3 to 8) (size 9 to 14) (size 15 to 20)
#    0.000    2.333    1.111    2.667    1.556    5.333 
#    0.000    4.444    0.000    1.333    0.000    0.000 
#    0.000    0.000    0.000    0.000    0.000    0.000 
#
# Total GULP energy -446239.609802 kJ/mol
# GULP energy per Si atom -12395.544717 kJ/mol
# Density = 1.919078 g / cm^3
# Si number density = 19.234559 Si / 1000 Ang^3
#
#
#
# Elastic Constant Matrix: (Units=GPa)
#
#
# Indices 1 2 3 4 5 6 
#
# 1 101.2106 33.9957 73.0395 0.0000 0.0000 0.0000
# 2 33.9957 62.5283 24.8407 0.0000 0.0000 0.0000
# 3 73.0395 24.8407 163.6998 0.0000 0.0000 0.0000
# 4 0.0000 0.0000 0.0000 28.6699 0.0000 0.0000
# 5 0.0000 0.0000 0.0000 0.0000 21.2818 0.0000
# 6 0.0000 0.0000 0.0000 0.0000 0.0000 22.7148
#
#
#
# Elastic Compliance Matrix: (Units=1/GPa)
#
#
# Indices 1 2 3 4 5 6 
#
# 1 0.016754 -0.006533 -0.006484 0.000000 0.000000 0.000000
# 2 -0.006533 0.019566 -0.000054 0.000000 0.000000 0.000000
# 3 -0.006484 -0.000054 0.009010 0.000000 0.000000 0.000000
# 4 0.000000 0.000000 0.000000 0.034880 0.000000 0.000000
# 5 0.000000 0.000000 0.000000 0.000000 0.046989 0.000000
# 6 0.000000 0.000000 0.000000 0.000000 0.000000 0.044024
#
#
# Mechanical properties :
#
#
# Convention : Reuss Voigt Hill
#
# Bulk Modulus (GPa) = 52.11622 65.68782 58.90202
# Shear Modulus (GPa) = 24.53859 27.57081 26.05470
#
# Velocity S-wave (km/s) = 3.57565 3.79013 3.68445
# Velocity P-wave (km/s) = 6.64838 7.30606 6.98496
#
# Compressibility (1/GPa) = 0.01918789
#
# Stress axis : x y z
#
# Youngs Moduli (GPa) = 59.68750 51.10859 110.98837
#
# Poissons Ratio (x) = 0.33389 0.71964
# Poissons Ratio (y) = 0.38994 0.00601
# Poissons Ratio (z) = 0.38701 0.00277
#
# Static dielectric constant tensor:
#      x y z
#    x 3.482720 0.000000 0.000000 
#    y 0.000000 3.549540 0.000000 
#    z 0.000000 0.000000 3.276720 
# 
# 
# High freq. dielectric constant tensor:
#      x y z
#    x 1.730190 0.000000 0.000000 
#    y 0.000000 1.749340 0.000000 
#    z 0.000000 0.000000 1.745000 
# 
# From -- ./inp_files/14472.got.cif
#   From: 2010.06.25/outbox.cif.g09.slc.cpg/sg71_8_cif.got.tgz:14472.got - 2010.06.28 04:59:45.
