data_PCOD8288102
_publ_section_title
;
Structure prediction by ZEFSAII (Michael W. Deem and Ramdas Pophale) SiO2 
 PCOD8288102
Probable space group: I M M M
;
_chemical_formula_sum "Si O2"
_cell_formula_units_Z 80
_cell_length_a 8.620856
_cell_length_b 22.960775
_cell_length_c 29.261618
_cell_angle_alpha 90.000000
_cell_angle_beta 90.000000
_cell_angle_gamma 90.000000
_cell_volume 5792.089581
_symmetry_space_group_name_H-M "I M M M"
_symmetry_group_IT_number 71
_symmetry_cell_setting 'orthorhombic'
loop_
_space_group_symop_operation_xyz
x,y,z
-x,-y,z
x,-y,-z
-x,y,-z
-x,-y,-z
x,y,-z
-x,y,z
x,-y,z
1/2+x,1/2+y,1/2+z
1/2-x,1/2-y,1/2+z
1/2+x,1/2-y,1/2-z
1/2-x,1/2+y,1/2-z
1/2-x,1/2-y,1/2-z
1/2+x,1/2+y,1/2-z
1/2-x,1/2+y,1/2+z
1/2+x,1/2-y,1/2+z
loop_
_atom_site_type_symbol
_atom_site_label
_atom_site_fract_x
_atom_site_fract_y
_atom_site_fract_z
Si Si1 0.822732 0.229668 0.321820
Si Si2 0.180227 0.933220 0.552217
Si Si3 0.682446 0.433785 0.221087
Si Si4 0.318856 0.168930 0.763812
Si Si5 0.321150 0.128867 0.634721
O O1 0.791380 0.198294 0.273737
O O2 0.787507 0.298842 0.312822
O O3 0.718265 0.198222 0.360494
O O4 0.000000 0.220624 0.336359
O O5 0.220408 0.917852 0.500000
O O6 0.281226 0.891174 0.583774
O O7 0.000000 0.922645 0.562191
O O8 0.223921 0.000000 0.562699
O O9 0.500000 0.429622 0.228467
O O10 0.740845 0.500000 0.223428
O O11 0.769176 0.398971 0.262478
O O12 0.723651 0.408017 0.171356
O O13 0.500000 0.175897 0.750606
O O14 0.500000 0.118376 0.644872
#
# Coordination Sequence:
#
# PCOD8288102 Si02
#       5
#    16  16  16  16  16
#     4   9  16  26  39  53  70  92 117 146 181 220
#     4   9  18  32  46  56  69  93 122 151 187 229
#     4  10  19  28  38  52  72  99 126 151 182 220
#     4   9  16  25  38  54  70  90 117 150 184 213
#     4  11  20  27  39  57  74  93 119 154 190 219
#
# _framework density 13.811940999999999
#
# number of rings (size 3 to 8) (size 9 to 14) (size 15 to 20)
#    0.000    2.400    0.000    7.200    0.000    7.200 
#    0.000    1.000    0.000    0.000    0.000    0.000 
#    0.000    0.000    0.000    0.000    0.000    1.000 
#
# Total GULP energy -495627.346448 kJ/mol
# GULP energy per Si atom -12390.683661 kJ/mol
# Density = 1.378050 g / cm^3
# Si number density = 13.811941 Si / 1000 Ang^3
#
#
#
# Elastic Constant Matrix: (Units=GPa)
#
#
# Indices 1 2 3 4 5 6 
#
# 1 45.7088 23.6346 20.3154 0.0000 0.0000 0.0000
# 2 23.6346 81.2505 43.4325 0.0000 0.0000 0.0000
# 3 20.3154 43.4325 53.3371 0.0000 0.0000 0.0000
# 4 0.0000 0.0000 0.0000 25.3598 0.0000 0.0000
# 5 0.0000 0.0000 0.0000 0.0000 17.3838 0.0000
# 6 0.0000 0.0000 0.0000 0.0000 0.0000 20.8701
#
#
#
# Elastic Compliance Matrix: (Units=1/GPa)
#
#
# Indices 1 2 3 4 5 6 
#
# 1 0.027119 -0.004192 -0.006916 0.000000 0.000000 0.000000
# 2 -0.004192 0.022442 -0.016678 0.000000 0.000000 0.000000
# 3 -0.006916 -0.016678 0.034964 0.000000 0.000000 0.000000
# 4 0.000000 0.000000 0.000000 0.039433 0.000000 0.000000
# 5 0.000000 0.000000 0.000000 0.000000 0.057525 0.000000
# 6 0.000000 0.000000 0.000000 0.000000 0.000000 0.047916
#
#
# Mechanical properties :
#
#
# Convention : Reuss Voigt Hill
#
# Bulk Modulus (GPa) = 34.53818 39.45125 36.99472
# Shear Modulus (GPa) = 16.97096 18.91698 17.94397
#
# Velocity S-wave (km/s) = 3.50911 3.70484 3.60830
# Velocity P-wave (km/s) = 6.44040 6.85028 6.64850
#
# Compressibility (1/GPa) = 0.02895346
#
# Stress axis : x y z
#
# Youngs Moduli (GPa) = 36.87484 44.55882 28.60080
#
# Poissons Ratio (x) = 0.18677 0.19780
# Poissons Ratio (y) = 0.15456 0.47701
# Poissons Ratio (z) = 0.25503 0.74316
#
# Static dielectric constant tensor:
#      x y z
#    x 2.746830 0.000000 0.000000 
#    y 0.000000 3.167790 0.000000 
#    z 0.000000 0.000000 2.507110 
# 
# 
# High freq. dielectric constant tensor:
#      x y z
#    x 1.541130 0.000000 0.000000 
#    y 0.000000 1.517690 0.000000 
#    z 0.000000 0.000000 1.474880 
# 
# From -- ./inp_files/58115.got.cif
#   From: 2010.06.25/outbox.cif.g09.slc.cpg/sg71_30_cif.got.tgz:58115.got - 2010.06.28 04:59:45.
