data_PCOD8288091
_publ_section_title
;
Structure prediction by ZEFSAII (Michael W. Deem and Ramdas Pophale) SiO2 
 PCOD8288091
Probable space group: I M M M
;
_chemical_formula_sum "Si O2"
_cell_formula_units_Z 80
_cell_length_a 9.174250
_cell_length_b 30.128202
_cell_length_c 22.269679
_cell_angle_alpha 90.000000
_cell_angle_beta 90.000000
_cell_angle_gamma 90.000000
_cell_volume 6155.420720
_symmetry_space_group_name_H-M "I M M M"
_symmetry_group_IT_number 71
_symmetry_cell_setting 'orthorhombic'
loop_
_space_group_symop_operation_xyz
x,y,z
-x,-y,z
x,-y,-z
-x,y,-z
-x,-y,-z
x,y,-z
-x,y,z
x,-y,z
1/2+x,1/2+y,1/2+z
1/2-x,1/2-y,1/2+z
1/2+x,1/2-y,1/2-z
1/2-x,1/2+y,1/2-z
1/2-x,1/2-y,1/2-z
1/2+x,1/2+y,1/2-z
1/2-x,1/2+y,1/2+z
1/2+x,1/2-y,1/2+z
loop_
_atom_site_type_symbol
_atom_site_label
_atom_site_fract_x
_atom_site_fract_y
_atom_site_fract_z
Si Si1 0.831814 0.782970 0.429996
Si Si2 0.161533 0.316405 0.244515
Si Si3 0.826950 0.363454 0.129005
Si Si4 0.162668 0.770162 0.162506
Si Si5 0.327006 0.048663 0.432633
O O1 0.815067 0.773249 0.500000
O O2 0.752429 0.828868 0.414459
O O3 0.759284 0.741457 0.395488
O O4 0.000000 0.786593 0.410360
O O5 0.214259 0.355252 0.198992
O O6 0.158684 0.271659 0.206139
O O7 0.268552 0.311873 0.301366
O O8 0.000000 0.326742 0.269262
O O9 0.771279 0.412732 0.111788
O O10 0.000000 0.357116 0.119463
O O11 0.000000 0.783341 0.141947
O O12 0.268897 0.058007 0.500000
O O13 0.500000 0.048786 0.433512
O O14 0.271195 0.000000 0.410746
#
# Coordination Sequence:
#
# PCOD8288091 Si02
#       5
#    16  16  16  16  16
#     4  10  19  27  35  49  69  91 113 140 174 206
#     4   8  14  23  34  49  67  85 107 138 173 204
#     4   9  16  25  38  53  67  87 116 147 176 206
#     4   9  16  25  37  50  64  85 111 138 168 202
#     4   8  13  21  34  52  71  89 112 145 180 208
#
# _framework density 12.996674000000001
#
# number of rings (size 3 to 8) (size 9 to 14) (size 15 to 20)
#    0.000    3.200    0.000    3.600    0.000    7.200 
#    0.000    0.000    0.000    0.600    0.000    2.800 
#    0.000    0.000    0.000    0.000    0.000    1.000 
#
# Total GULP energy -495696.306358 kJ/mol
# GULP energy per Si atom -12392.407659 kJ/mol
# Density = 1.296709 g / cm^3
# Si number density = 12.996674 Si / 1000 Ang^3
#
#
#
# Elastic Constant Matrix: (Units=GPa)
#
#
# Indices 1 2 3 4 5 6 
#
# 1 64.1674 26.8573 38.6370 0.0000 0.0000 0.0000
# 2 26.8573 74.4878 52.1057 0.0000 0.0000 0.0000
# 3 38.6370 52.1057 68.1548 0.0000 0.0000 0.0000
# 4 0.0000 0.0000 0.0000 23.9984 0.0000 0.0000
# 5 0.0000 0.0000 0.0000 0.0000 18.6602 0.0000
# 6 0.0000 0.0000 0.0000 0.0000 0.0000 9.2947
#
#
#
# Elastic Compliance Matrix: (Units=1/GPa)
#
#
# Indices 1 2 3 4 5 6 
#
# 1 0.023777 0.001840 -0.014886 0.000000 0.000000 0.000000
# 2 0.001840 0.029001 -0.023215 0.000000 0.000000 0.000000
# 3 -0.014886 -0.023215 0.040860 0.000000 0.000000 0.000000
# 4 0.000000 0.000000 0.000000 0.041670 0.000000 0.000000
# 5 0.000000 0.000000 0.000000 0.000000 0.053590 0.000000
# 6 0.000000 0.000000 0.000000 0.000000 0.000000 0.107588
#
#
# Mechanical properties :
#
#
# Convention : Reuss Voigt Hill
#
# Bulk Modulus (GPa) = 47.35749 49.11220 48.23485
# Shear Modulus (GPa) = 13.29624 16.33799 14.81712
#
# Velocity S-wave (km/s) = 3.20198 3.54939 3.38016
# Velocity P-wave (km/s) = 7.08432 7.39378 7.24070
#
# Compressibility (1/GPa) = 0.02111598
#
# Stress axis : x y z
#
# Youngs Moduli (GPa) = 42.05657 34.48180 24.47407
#
# Poissons Ratio (x) = -0.06345 0.36432
# Poissons Ratio (y) = -0.07738 0.56816
# Poissons Ratio (z) = 0.62606 0.80049
#
# Static dielectric constant tensor:
#      x y z
#    x 2.664750 0.000000 0.000000 
#    y 0.000000 2.640400 0.000000 
#    z 0.000000 0.000000 2.622170 
# 
# 
# High freq. dielectric constant tensor:
#      x y z
#    x 1.490810 0.000000 0.000000 
#    y 0.000000 1.454340 0.000000 
#    z 0.000000 0.000000 1.476330 
# 
# From -- ./inp_files/11252.got.cif
#   From: 2010.06.25/outbox.cif.g09.slc.cpg/sg71_6_cif.got.tgz:11252.got - 2010.06.28 04:59:45.
