data_PCOD8288844
_publ_section_title
;
Structure prediction by ZEFSAII (Michael W. Deem and Ramdas Pophale) SiO2 
 PCOD8288844
Probable space group: I M M M
;
_chemical_formula_sum "Si O2"
_cell_formula_units_Z 88
_cell_length_a 19.161520
_cell_length_b 29.123062
_cell_length_c 7.689751
_cell_angle_alpha 90.000000
_cell_angle_beta 90.000000
_cell_angle_gamma 90.000000
_cell_volume 4291.205065
_symmetry_space_group_name_H-M "I M M M"
_symmetry_group_IT_number 71
_symmetry_cell_setting 'orthorhombic'
loop_
_space_group_symop_operation_xyz
x,y,z
-x,-y,z
x,-y,-z
-x,y,-z
-x,-y,-z
x,y,-z
-x,y,z
x,-y,z
1/2+x,1/2+y,1/2+z
1/2-x,1/2-y,1/2+z
1/2+x,1/2-y,1/2-z
1/2-x,1/2+y,1/2-z
1/2-x,1/2-y,1/2-z
1/2+x,1/2+y,1/2-z
1/2-x,1/2+y,1/2+z
1/2+x,1/2-y,1/2+z
loop_
_atom_site_type_symbol
_atom_site_label
_atom_site_fract_x
_atom_site_fract_y
_atom_site_fract_z
Si Si1 0.421829 0.448671 0.206780
Si Si2 0.578794 0.054120 0.000000
Si Si3 0.654744 0.104978 0.697071
Si Si4 0.920056 0.304586 0.294233
Si Si5 0.311130 0.376049 0.206806
Si Si6 0.178595 0.774505 0.296545
O O1 0.500000 0.435902 0.270071
O O2 0.402166 0.500000 0.272038
O O3 0.367239 0.411963 0.285423
O O4 0.418937 0.447566 0.000000
O O5 0.615272 0.070723 0.175460
O O6 0.500000 0.073612 0.000000
O O7 0.579859 0.000000 0.000000
O O8 0.650873 0.085627 0.500000
O O9 0.620009 0.154939 0.697306
O O10 0.734173 0.108221 0.763244
O O11 0.912149 0.312268 0.500000
O O12 0.885879 0.256633 0.232139
O O13 0.000000 0.303932 0.235017
O O14 0.325944 0.325402 0.287203
O O15 0.316385 0.374658 0.000000
O O16 0.174082 0.780741 0.500000
O O17 0.250000 0.750000 0.250000
#
# Coordination Sequence:
#
# PCOD8288844 Si02
#       6
#    16   8  16  16  16  16
#     4   8  14  26  46  74 110 148 183 228 287 344
#     4  11  26  46  64  86 119 153 195 251 301 355
#     4  11  22  38  62  89 117 154 196 242 299 357
#     4  10  20  34  54  80 112 153 199 243 289 348
#     4   9  18  31  51  81 115 151 194 242 290 345
#     4  10  19  32  50  74 109 148 184 230 284 335
#
# _framework density 20.507061
#
# number of rings (size 3 to 8) (size 9 to 14) (size 15 to 20)
#    0.000    2.273    2.727    1.091    0.000    3.273 
#    0.000    6.364    0.000    0.000    0.000    0.636 
#    0.000    2.182    0.000    0.182    0.000    0.000 
#
# Total GULP energy -545516.039654 kJ/mol
# GULP energy per Si atom -12398.091810 kJ/mol
# Density = 2.046039 g / cm^3
# Si number density = 20.507061 Si / 1000 Ang^3
#
#
#
# Elastic Constant Matrix: (Units=GPa)
#
#
# Indices 1 2 3 4 5 6 
#
# 1 184.7245 93.6833 20.3018 -0.0001 -0.0001 0.0000
# 2 93.6833 144.6811 17.6682 0.0000 0.0000 0.0000
# 3 20.3018 17.6682 48.6656 -0.0006 -0.0008 -0.0002
# 4 -0.0001 0.0000 -0.0006 10.6554 -0.0002 0.0000
# 5 -0.0001 0.0000 -0.0008 -0.0002 19.2504 -0.0001
# 6 0.0000 0.0000 -0.0002 0.0000 -0.0001 43.7065
#
#
#
# Elastic Compliance Matrix: (Units=1/GPa)
#
#
# Indices 1 2 3 4 5 6 
#
# 1 0.008172 -0.005101 -0.001557 0.000000 0.000000 0.000000
# 2 -0.005101 0.010417 -0.001654 0.000000 0.000000 0.000000
# 3 -0.001557 -0.001654 0.021798 0.000001 0.000001 0.000000
# 4 0.000000 0.000000 0.000001 0.093849 0.000001 0.000000
# 5 0.000000 0.000000 0.000001 0.000001 0.051947 0.000000
# 6 0.000000 0.000000 0.000000 0.000000 0.000000 0.022880
#
#
# Mechanical properties :
#
#
# Convention : Reuss Voigt Hill
#
# Bulk Modulus (GPa) = 42.08237 71.26420 56.67329
# Shear Modulus (GPa) = 21.40347 31.15035 26.27691
#
# Velocity S-wave (km/s) = 3.23416 3.90167 3.58349
# Velocity P-wave (km/s) = 5.87468 7.42455 6.69461
#
# Compressibility (1/GPa) = 0.02376292
#
# Stress axis : x y z
#
# Youngs Moduli (GPa) = 122.37476 95.99908 45.87508
#
# Poissons Ratio (x) = 0.48970 0.07143
# Poissons Ratio (y) = 0.62425 0.07587
# Poissons Ratio (z) = 0.19053 0.15876
#
# Static dielectric constant tensor:
#      x y z
#    x 3.967980 0.000000 0.000000 
#    y 0.000000 4.014610 0.000000 
#    z 0.000000 0.000000 3.434920 
# 
# 
# High freq. dielectric constant tensor:
#      x y z
#    x 1.808850 0.000000 0.000000 
#    y 0.000000 1.803670 0.000000 
#    z 0.000000 0.000000 1.775860 
# 
# From -- ./inp_files/8781.got.cif
#   From: 2010.06.25/outbox.cif.g09.slc.cpg/sg71_5_cif.got.tgz:8781.got - 2010.06.28 04:59:45.
