data_PCOD8288932
_publ_section_title
;
Structure prediction by ZEFSAII (Michael W. Deem and Ramdas Pophale) SiO2 
 PCOD8288932
Probable space group: I M M M
;
_chemical_formula_sum "Si O2"
_cell_formula_units_Z 80
_cell_length_a 22.976141
_cell_length_b 10.102842
_cell_length_c 18.234635
_cell_angle_alpha 90.000000
_cell_angle_beta 90.000000
_cell_angle_gamma 90.000000
_cell_volume 4232.702292
_symmetry_space_group_name_H-M "I M M M"
_symmetry_group_IT_number 71
_symmetry_cell_setting 'orthorhombic'
loop_
_space_group_symop_operation_xyz
x,y,z
-x,-y,z
x,-y,-z
-x,y,-z
-x,-y,-z
x,y,-z
-x,y,z
x,-y,z
1/2+x,1/2+y,1/2+z
1/2-x,1/2-y,1/2+z
1/2+x,1/2-y,1/2-z
1/2-x,1/2+y,1/2-z
1/2-x,1/2-y,1/2-z
1/2+x,1/2+y,1/2-z
1/2-x,1/2+y,1/2+z
1/2+x,1/2-y,1/2+z
loop_
_atom_site_type_symbol
_atom_site_label
_atom_site_fract_x
_atom_site_fract_y
_atom_site_fract_z
Si Si1 0.249433 0.844223 0.918890
Si Si2 0.861347 0.653655 0.335996
Si Si3 0.436183 0.357208 0.914108
Si Si4 0.433523 0.151582 0.694319
Si Si5 0.119607 0.848302 0.085737
O O1 0.293953 0.806811 0.852763
O O2 0.184930 0.794292 0.897873
O O3 0.245257 0.000000 0.927443
O O4 0.267873 0.787274 0.000000
O O5 0.872135 0.500000 0.352251
O O6 0.896467 0.734930 0.395142
O O7 0.885219 0.690444 0.255596
O O8 0.500000 0.335675 0.879085
O O9 0.411267 0.500000 0.885985
O O10 0.441951 0.362108 0.000000
O O11 0.500000 0.167811 0.723566
O O12 0.424790 0.251494 0.627101
O O13 0.423337 0.000000 0.668833
O O14 0.111350 0.000000 0.112950
O O15 0.105508 0.839347 0.000000
#
# Coordination Sequence:
#
# PCOD8288932 Si02
#       5
#    16  16  16  16  16
#     4   8  15  30  53  80 107 133 165 211 260 298
#     4  10  19  32  52  76 103 137 174 207 246 305
#     4   9  18  31  45  65  98 138 177 218 260 295
#     4  10  22  37  51  74 109 141 170 212 262 304
#     4   9  19  37  59  80 101 128 168 216 262 313
#
# _framework density 18.900455999999998
#
# number of rings (size 3 to 8) (size 9 to 14) (size 15 to 20)
#    0.000    2.800    0.000    3.000    0.000    5.200 
#    0.000    4.000    0.000    1.200    0.000    0.000 
#    0.000    0.000    0.000    0.000    0.000    0.000 
#
# Total GULP energy -495564.415576 kJ/mol
# GULP energy per Si atom -12389.110389 kJ/mol
# Density = 1.885744 g / cm^3
# Si number density = 18.900456 Si / 1000 Ang^3
#
#
#
# Elastic Constant Matrix: (Units=GPa)
#
#
# Indices 1 2 3 4 5 6 
#
# 1 72.0942 27.8644 36.9049 0.0000 0.0000 0.0000
# 2 27.8644 60.8284 32.6028 0.0000 0.0000 0.0000
# 3 36.9049 32.6028 60.8583 0.0000 0.0000 0.0000
# 4 0.0000 0.0000 0.0000 27.9813 0.0000 0.0000
# 5 0.0000 0.0000 0.0000 0.0000-1184.1051 0.0000
# 6 0.0000 0.0000 0.0000 0.0000 0.0000 21.7603
#
#
#
# Elastic Compliance Matrix: (Units=1/GPa)
#
#
# Indices 1 2 3 4 5 6 
#
# 1 0.020745 -0.003872 -0.010506 0.000000 0.000000 0.000000
# 2 -0.003872 0.023784 -0.010393 0.000000 0.000000 0.000000
# 3 -0.010506 -0.010393 0.028370 0.000000 0.000000 0.000000
# 4 0.000000 0.000000 0.000000 0.035738 0.000000 0.000000
# 5 0.000000 0.000000 0.000000 0.000000 -0.000845 0.000000
# 6 0.000000 0.000000 0.000000 0.000000 0.000000 0.045955
#
#
# Mechanical properties :
#
#
# Convention : Reuss Voigt Hill
#
# Bulk Modulus (GPa) = 42.81362 43.16945 42.99153
# Shear Modulus (GPa) = 23.68810 -220.44543 -98.37867
#
# Velocity S-wave (km/s) = 3.54405 -10.81148 -7.22246
# Velocity P-wave (km/s) = 6.28080 11.53087 6.83785
#
# Compressibility (1/GPa) = 0.02335705
#
# Stress axis : x y z
#
# Youngs Moduli (GPa) = 48.20399 42.04490 35.24825
#
# Poissons Ratio (x) = 0.16281 0.37031
# Poissons Ratio (y) = 0.18665 0.36635
# Poissons Ratio (z) = 0.50641 0.43699
#
# Static dielectric constant tensor:
#      x y z
#    x 3.652320 0.000000 0.000000 
#    y 0.000000 3.365790 0.000000 
#    z 0.000000 0.000000 3.225340 
# 
# 
# High freq. dielectric constant tensor:
#      x y z
#    x 1.734790 0.000000 0.000000 
#    y 0.000000 1.720050 0.000000 
#    z 0.000000 0.000000 1.715230 
# 
# From -- ./inp_files/38955.got.cif
#   From: 2010.06.25/outbox.cif.g09.slc.cpg/sg71_20_cif.got.tgz:38955.got - 2010.06.28 04:59:45.
