data_PCOD8288460
_publ_section_title
;
Structure prediction by ZEFSAII (Michael W. Deem and Ramdas Pophale) SiO2 
 PCOD8288460
Probable space group: I M M M
;
_chemical_formula_sum "Si O2"
_cell_formula_units_Z 104
_cell_length_a 28.741745
_cell_length_b 24.544958
_cell_length_c 7.770098
_cell_angle_alpha 90.000000
_cell_angle_beta 90.000000
_cell_angle_gamma 90.000000
_cell_volume 5481.531594
_symmetry_space_group_name_H-M "I M M M"
_symmetry_group_IT_number 71
_symmetry_cell_setting 'orthorhombic'
loop_
_space_group_symop_operation_xyz
x,y,z
-x,-y,z
x,-y,-z
-x,y,-z
-x,-y,-z
x,y,-z
-x,y,z
x,-y,z
1/2+x,1/2+y,1/2+z
1/2-x,1/2-y,1/2+z
1/2+x,1/2-y,1/2-z
1/2-x,1/2+y,1/2-z
1/2-x,1/2-y,1/2-z
1/2+x,1/2+y,1/2-z
1/2-x,1/2+y,1/2+z
1/2+x,1/2-y,1/2+z
loop_
_atom_site_type_symbol
_atom_site_label
_atom_site_fract_x
_atom_site_fract_y
_atom_site_fract_z
Si Si1 0.551426 0.746156 0.702559
Si Si2 0.601510 0.366115 0.705868
Si Si3 0.054899 0.935433 0.500000
Si Si4 0.447565 0.938343 0.798311
Si Si5 0.796374 0.303040 0.303983
Si Si6 0.886874 0.657389 0.194256
Si Si7 0.695756 0.315625 0.303772
O O1 0.548372 0.755140 0.500000
O O2 0.500000 0.748952 0.784732
O O3 0.572905 0.688147 0.747096
O O4 0.581805 0.795460 0.783189
O O5 0.598587 0.380971 0.500000
O O6 0.654471 0.353560 0.772451
O O7 0.579361 0.413081 0.825125
O O8 0.000000 0.920492 0.500000
O O9 0.062107 0.000000 0.500000
O O10 0.500000 0.923695 0.741846
O O11 0.412094 0.900357 0.698135
O O12 0.435949 0.000000 0.745950
O O13 0.441458 0.929610 0.000000
O O14 0.785259 0.288001 0.500000
O O15 0.837000 0.347816 0.289483
O O16 0.747498 0.325038 0.221238
O O17 0.815739 0.248573 0.212591
O O18 0.875826 0.673652 0.000000
O O19 0.696421 0.332961 0.500000
#
# Coordination Sequence:
#
# PCOD8288460 Si02
#       7
#    16  16   8  16  16  16  16
#     4   9  17  29  47  73 108 147 179 216 274 336
#     4  10  20  38  62  85 116 155 191 232 288 346
#     4  11  26  44  62  90 120 148 195 247 290 350
#     4   9  19  36  54  71  97 138 186 229 269 320
#     4  10  19  30  49  78 115 152 185 222 274 333
#     4  11  20  31  48  75 111 142 178 228 276 325
#     4   9  18  33  52  80 114 148 186 225 271 333
#
# _framework density 18.972798999999998
#
# number of rings (size 3 to 8) (size 9 to 14) (size 15 to 20)
#    0.000    2.231    1.538    2.308    1.077    3.077 
#    1.385    1.538    0.000    0.923    0.000    2.154 
#    0.000    0.000    0.000    0.000    0.000    0.000 
#
# Total GULP energy -644389.326208 kJ/mol
# GULP energy per Si atom -12392.102427 kJ/mol
# Density = 1.892962 g / cm^3
# Si number density = 18.972799 Si / 1000 Ang^3
#
#
#
# Elastic Constant Matrix: (Units=GPa)
#
#
# Indices 1 2 3 4 5 6 
#
# 1 170.0704 70.2470 36.4878 0.0000 0.0000 0.0000
# 2 70.2470 90.1126 25.8665 0.0000 0.0000 0.0000
# 3 36.4878 25.8665 49.6512 0.0000 0.0000 0.0000
# 4 0.0000 0.0000 0.0000 24.6409 0.0000 0.0000
# 5 0.0000 0.0000 0.0000 0.0000 19.8526 0.0000
# 6 0.0000 0.0000 0.0000 0.0000 0.0000 26.1139
#
#
#
# Elastic Compliance Matrix: (Units=1/GPa)
#
#
# Indices 1 2 3 4 5 6 
#
# 1 0.009174 -0.006134 -0.003547 0.000000 0.000000 0.000000
# 2 -0.006134 0.017149 -0.004427 0.000000 0.000000 0.000000
# 3 -0.003547 -0.004427 0.025053 0.000000 0.000000 0.000000
# 4 0.000000 0.000000 0.000000 0.040583 0.000000 0.000000
# 5 0.000000 0.000000 0.000000 0.000000 0.050371 0.000000
# 6 0.000000 0.000000 0.000000 0.000000 0.000000 0.038294
#
#
# Mechanical properties :
#
#
# Convention : Reuss Voigt Hill
#
# Bulk Modulus (GPa) = 43.17278 63.89295 53.53286
# Shear Modulus (GPa) = 23.08832 25.93701 24.51267
#
# Velocity S-wave (km/s) = 3.49222 3.70139 3.59833
# Velocity P-wave (km/s) = 6.25022 7.21223 6.74839
#
# Compressibility (1/GPa) = 0.02316275
#
# Stress axis : x y z
#
# Youngs Moduli (GPa) = 108.99925 58.31082 39.91546
#
# Poissons Ratio (x) = 0.35767 0.14156
# Poissons Ratio (y) = 0.66858 0.17669
# Poissons Ratio (z) = 0.38658 0.25812
#
# Static dielectric constant tensor:
#      x y z
#    x 3.903220 0.000000 0.000000 
#    y 0.000000 3.154620 0.000000 
#    z 0.000000 0.000000 3.288540 
# 
# 
# High freq. dielectric constant tensor:
#      x y z
#    x 1.756300 0.000000 0.000000 
#    y 0.000000 1.694280 0.000000 
#    z 0.000000 0.000000 1.727170 
# 
# From -- ./inp_files/17241.got.cif
#   From: 2010.06.25/outbox.cif.g09.slc.cpg/sg71_9_cif.got.tgz:17241.got - 2010.06.28 04:59:45.
