data_PCOD8288206
_publ_section_title
;
Structure prediction by ZEFSAII (Michael W. Deem and Ramdas Pophale) SiO2 
 PCOD8288206
Probable space group: I M M M
;
_chemical_formula_sum "Si O2"
_cell_formula_units_Z 104
_cell_length_a 23.007838
_cell_length_b 9.507289
_cell_length_c 27.785008
_cell_angle_alpha 90.000000
_cell_angle_beta 90.000000
_cell_angle_gamma 90.000000
_cell_volume 6077.752808
_symmetry_space_group_name_H-M "I M M M"
_symmetry_group_IT_number 71
_symmetry_cell_setting 'orthorhombic'
loop_
_space_group_symop_operation_xyz
x,y,z
-x,-y,z
x,-y,-z
-x,y,-z
-x,-y,-z
x,y,-z
-x,y,z
x,-y,z
1/2+x,1/2+y,1/2+z
1/2-x,1/2-y,1/2+z
1/2+x,1/2-y,1/2-z
1/2-x,1/2+y,1/2-z
1/2-x,1/2-y,1/2-z
1/2+x,1/2+y,1/2-z
1/2-x,1/2+y,1/2+z
1/2+x,1/2-y,1/2+z
loop_
_atom_site_type_symbol
_atom_site_label
_atom_site_fract_x
_atom_site_fract_y
_atom_site_fract_z
Si Si1 0.931375 0.160290 0.588393
Si Si2 0.930716 0.658293 0.500000
Si Si3 0.371614 0.659824 0.184296
Si Si4 0.434299 0.167454 0.553753
Si Si5 0.565294 0.161939 0.261101
Si Si6 0.367485 0.161747 0.355203
Si Si7 0.242520 0.661756 0.798277
O O1 0.907001 0.259644 0.546446
O O2 0.904589 0.218064 0.637680
O O3 0.000000 0.171159 0.592539
O O4 0.911894 0.000000 0.577904
O O5 0.906053 0.500000 0.500000
O O6 0.000000 0.658257 0.500000
O O7 0.390665 0.500000 0.195129
O O8 0.388691 0.751871 0.230069
O O9 0.303185 0.669612 0.173400
O O10 0.413521 0.212911 0.500000
O O11 0.500000 0.223353 0.562806
O O12 0.390003 0.230550 0.594343
O O13 0.435140 0.000000 0.558005
O O14 0.500000 0.218080 0.252656
O O15 0.580681 0.181224 0.317004
O O16 0.570396 0.000000 0.245731
O O17 0.307714 0.227079 0.333111
O O18 0.353811 0.000000 0.365485
O O19 0.226749 0.500000 0.784458
O O20 0.250000 0.750000 0.750000
#
# Coordination Sequence:
#
# PCOD8288206 Si02
#       7
#    16   8  16  16  16  16  16
#     4   9  17  30  47  65  89 122 153 184 231 284
#     4   9  17  29  47  71  93 113 145 189 230 273
#     4  10  20  32  47  67  93 125 161 196 233 282
#     4   8  13  22  39  64  93 124 155 189 236 291
#     4  10  19  29  44  68  96 125 155 189 235 286
#     4   9  16  27  43  63  92 125 157 193 233 280
#     4  10  19  32  49  67  91 125 163 197 233 277
#
# _framework density 17.111588999999999
#
# number of rings (size 3 to 8) (size 9 to 14) (size 15 to 20)
#    0.000    2.692    1.538    1.615    0.000    4.308 
#    0.000    1.538    1.692    0.000    0.000    0.000 
#    0.000    1.846    0.000    8.462    0.000    7.692 
#
# Total GULP energy -644526.408779 kJ/mol
# GULP energy per Si atom -12394.738630 kJ/mol
# Density = 1.707264 g / cm^3
# Si number density = 17.111589 Si / 1000 Ang^3
#
#
#
# Elastic Constant Matrix: (Units=GPa)
#
#
# Indices 1 2 3 4 5 6 
#
# 1 82.9221 17.6631 46.9502 0.0000 0.0000 0.0000
# 2 17.6631 42.6378 36.3452 0.0000 0.0000 0.0000
# 3 46.9502 36.3452 132.6641 0.0000 0.0000 0.0000
# 4 0.0000 0.0000 0.0000 18.4834 0.0000 0.0000
# 5 0.0000 0.0000 0.0000 0.0000 23.0734 0.0000
# 6 0.0000 0.0000 0.0000 0.0000 0.0000 15.0718
#
#
#
# Elastic Compliance Matrix: (Units=1/GPa)
#
#
# Indices 1 2 3 4 5 6 
#
# 1 0.015244 -0.002239 -0.004781 0.000000 0.000000 0.000000
# 2 -0.002239 0.030928 -0.007681 0.000000 0.000000 0.000000
# 3 -0.004781 -0.007681 0.011334 0.000000 0.000000 0.000000
# 4 0.000000 0.000000 0.000000 0.054103 0.000000 0.000000
# 5 0.000000 0.000000 0.000000 0.000000 0.043340 0.000000
# 6 0.000000 0.000000 0.000000 0.000000 0.000000 0.066349
#
#
# Mechanical properties :
#
#
# Convention : Reuss Voigt Hill
#
# Bulk Modulus (GPa) = 35.58270 51.12679 43.35475
# Shear Modulus (GPa) = 19.22574 21.81008 20.51791
#
# Velocity S-wave (km/s) = 3.35558 3.57400 3.46651
# Velocity P-wave (km/s) = 5.98772 6.85380 6.43535
#
# Compressibility (1/GPa) = 0.02810354
#
# Stress axis : x y z
#
# Youngs Moduli (GPa) = 65.60117 32.33299 88.22844
#
# Poissons Ratio (x) = 0.07240 0.42185
# Poissons Ratio (y) = 0.14689 0.67766
# Poissons Ratio (z) = 0.31366 0.24834
#
# Static dielectric constant tensor:
#      x y z
#    x 3.294020 0.000000 0.000000 
#    y 0.000000 2.934420 0.000000 
#    z 0.000000 0.000000 3.349520 
# 
# 
# High freq. dielectric constant tensor:
#      x y z
#    x 1.652160 0.000000 0.000000 
#    y 0.000000 1.620790 0.000000 
#    z 0.000000 0.000000 1.660940 
# 
# From -- ./inp_files/11518.got.cif
#   From: 2010.06.25/outbox.cif.g09.slc.cpg/sg71_6_cif.got.tgz:11518.got - 2010.06.28 04:59:45.
