data_PCOD8288598
_publ_section_title
;
Structure prediction by ZEFSAII (Michael W. Deem and Ramdas Pophale) SiO2 
 PCOD8288598
Probable space group: I M M M
;
_chemical_formula_sum "Si O2"
_cell_formula_units_Z 72
_cell_length_a 27.062447
_cell_length_b 9.006072
_cell_length_c 15.631002
_cell_angle_alpha 90.000000
_cell_angle_beta 90.000000
_cell_angle_gamma 90.000000
_cell_volume 3809.687005
_symmetry_space_group_name_H-M "I M M M"
_symmetry_group_IT_number 71
_symmetry_cell_setting 'orthorhombic'
loop_
_space_group_symop_operation_xyz
x,y,z
-x,-y,z
x,-y,-z
-x,y,-z
-x,-y,-z
x,y,-z
-x,y,z
x,-y,z
1/2+x,1/2+y,1/2+z
1/2-x,1/2-y,1/2+z
1/2+x,1/2-y,1/2-z
1/2-x,1/2+y,1/2-z
1/2-x,1/2-y,1/2-z
1/2+x,1/2+y,1/2-z
1/2-x,1/2+y,1/2+z
1/2+x,1/2-y,1/2+z
loop_
_atom_site_type_symbol
_atom_site_label
_atom_site_fract_x
_atom_site_fract_y
_atom_site_fract_z
Si Si1 0.055738 0.676907 0.333890
Si Si2 0.223631 0.675270 0.829394
Si Si3 0.888414 0.323199 0.833198
Si Si4 0.113512 0.676444 0.500000
Si Si5 0.444150 0.177192 0.500000
Si Si6 0.281071 0.674156 0.000000
O O1 0.054786 0.500000 0.333181
O O2 0.083780 0.738728 0.250487
O O3 0.084413 0.735711 0.417128
O O4 0.000000 0.739534 0.334897
O O5 0.224875 0.500000 0.815820
O O6 0.250000 0.750000 0.750000
O O7 0.167635 0.734796 0.833560
O O8 0.250240 0.722222 0.916885
O O9 0.889428 0.500000 0.834087
O O10 0.916286 0.260609 0.916530
O O11 0.116804 0.500000 0.500000
O O12 0.168133 0.738984 0.500000
O O13 0.500000 0.237660 0.500000
O O14 0.443822 0.000000 0.500000
O O15 0.292035 0.500000 0.000000
#
# Coordination Sequence:
#
# PCOD8288598 Si02
#       6
#    16  16  16   8   8   8
#     4   9  16  26  42  66  93 118 148 191 239 281
#     4  10  20  34  51  72  99 131 165 201 242 287
#     4   9  16  26  41  62  90 122 153 187 231 282
#     4  10  19  31  49  71  94 123 161 199 233 278
#     4   9  15  23  38  62  92 123 151 182 228 287
#     4  10  21  35  50  70 100 134 164 199 245 290
#
# _framework density 18.899190000000001
#
# number of rings (size 3 to 8) (size 9 to 14) (size 15 to 20)
#    0.000    2.556    0.000    3.000    0.000    9.333 
#    0.000    0.000    0.000    1.333    0.000    0.000 
#    0.000    3.556    0.000    0.000    0.000    0.222 
#
# Total GULP energy -446425.011978 kJ/mol
# GULP energy per Si atom -12400.694777 kJ/mol
# Density = 1.885617 g / cm^3
# Si number density = 18.899190 Si / 1000 Ang^3
#
#
#
# Elastic Constant Matrix: (Units=GPa)
#
#
# Indices 1 2 3 4 5 6 
#
# 1 217.1076 22.4017 121.0017 0.0000 0.0000 0.0000
# 2 22.4017 8.9633 21.9991 0.0000 0.0000 0.0000
# 3 121.0017 21.9991 219.1401 0.0000 0.0000 0.0000
# 4 0.0000 0.0000 0.0000 14.3174 0.0000 0.0000
# 5 0.0000 0.0000 0.0000 0.0000 48.3803 0.0000
# 6 0.0000 0.0000 0.0000 0.0000 0.0000 23.0542
#
#
#
# Elastic Compliance Matrix: (Units=1/GPa)
#
#
# Indices 1 2 3 4 5 6 
#
# 1 0.007422 -0.011268 -0.002967 0.000000 0.000000 0.000000
# 2 -0.011268 0.165148 -0.010357 0.000000 0.000000 0.000000
# 3 -0.002967 -0.010357 0.007241 0.000000 0.000000 0.000000
# 4 0.000000 0.000000 0.000000 0.069845 0.000000 0.000000
# 5 0.000000 0.000000 0.000000 0.000000 0.020670 0.000000
# 6 0.000000 0.000000 0.000000 0.000000 0.000000 0.043376
#
#
# Mechanical properties :
#
#
# Convention : Reuss Voigt Hill
#
# Bulk Modulus (GPa) = 7.65539 86.22400 46.93970
# Shear Modulus (GPa) = 12.30226 35.80426 24.05326
#
# Velocity S-wave (km/s) = 2.55412 4.35729 3.57138
# Velocity P-wave (km/s) = 3.57176 8.42833 6.47280
#
# Compressibility (1/GPa) = 0.13062686
#
# Stress axis : x y z
#
# Youngs Moduli (GPa) = 134.72716 6.05519 138.09438
#
# Poissons Ratio (x) = 0.06823 0.40976
# Poissons Ratio (y) = 1.51810 1.43026
# Poissons Ratio (z) = 0.39977 0.06271
#
# Static dielectric constant tensor:
#      x y z
#    x 3.771120 0.000000 0.000000 
#    y 0.000000 2.774680 0.000000 
#    z 0.000000 0.000000 3.784280 
# 
# 
# High freq. dielectric constant tensor:
#      x y z
#    x 1.756270 0.000000 0.000000 
#    y 0.000000 1.658670 0.000000 
#    z 0.000000 0.000000 1.757460 
# 
# From -- ./inp_files/6188.got.cif
#   From: 2010.06.25/outbox.cif.g09.slc.cpg/sg71_4_cif.got.tgz:6188.got - 2010.06.28 04:59:45.
