data_PCOD8288211
_publ_section_title
;
Structure prediction by ZEFSAII (Michael W. Deem and Ramdas Pophale) SiO2 
 PCOD8288211
Probable space group: I M M M
;
_chemical_formula_sum "Si O2"
_cell_formula_units_Z 96
_cell_length_a 24.580356
_cell_length_b 9.460425
_cell_length_c 23.030866
_cell_angle_alpha 90.000000
_cell_angle_beta 90.000000
_cell_angle_gamma 90.000000
_cell_volume 5355.611730
_symmetry_space_group_name_H-M "I M M M"
_symmetry_group_IT_number 71
_symmetry_cell_setting 'orthorhombic'
loop_
_space_group_symop_operation_xyz
x,y,z
-x,-y,z
x,-y,-z
-x,y,-z
-x,-y,-z
x,y,-z
-x,y,z
x,-y,z
1/2+x,1/2+y,1/2+z
1/2-x,1/2-y,1/2+z
1/2+x,1/2-y,1/2-z
1/2-x,1/2+y,1/2-z
1/2-x,1/2-y,1/2-z
1/2+x,1/2+y,1/2-z
1/2-x,1/2+y,1/2+z
1/2+x,1/2-y,1/2+z
loop_
_atom_site_type_symbol
_atom_site_label
_atom_site_fract_x
_atom_site_fract_y
_atom_site_fract_z
Si Si1 0.562209 0.834417 0.305719
Si Si2 0.798866 0.847782 0.262276
Si Si3 0.752603 0.337472 0.433242
Si Si4 0.063689 0.337734 0.672767
Si Si5 0.649463 0.343821 0.640579
Si Si6 0.151033 0.832285 0.618813
O O1 0.500000 0.793483 0.318369
O O2 0.577272 0.789859 0.239357
O O3 0.597508 0.759507 0.357063
O O4 0.572008 0.000000 0.312676
O O5 0.750000 0.750000 0.250000
O O6 0.837379 0.858744 0.207776
O O7 0.830520 0.789597 0.317052
O O8 0.774385 0.000000 0.278680
O O9 0.735210 0.326911 0.500000
O O10 0.765986 0.500000 0.415609
O O11 0.701015 0.281704 0.395468
O O12 0.806007 0.240017 0.424836
O O13 0.081854 0.500000 0.664154
O O14 0.091901 0.242507 0.621650
O O15 0.000000 0.320583 0.661896
O O16 0.634443 0.500000 0.615511
O O17 0.146319 0.000000 0.605558
#
# Coordination Sequence:
#
# PCOD8288211 Si02
#       6
#    16  16  16  16  16  16
#     4   9  18  31  48  74 107 140 171 203 245 301
#     4  10  19  29  44  72 104 133 164 200 250 307
#     4  10  22  39  56  73  97 134 177 217 256 300
#     4   9  18  32  50  74 106 142 174 202 240 298
#     4  10  19  32  50  74 103 133 168 210 255 302
#     4  11  21  32  50  77 107 135 165 206 257 308
#
# _framework density 17.925124
#
# number of rings (size 3 to 8) (size 9 to 14) (size 15 to 20)
#    0.000    2.167    3.333    1.500    0.000    3.000 
#    0.000    1.667    0.000    1.000    0.000    7.000 
#    0.000    0.000    0.000    0.000    0.000    0.000 
#
# Total GULP energy -594688.198989 kJ/mol
# GULP energy per Si atom -12389.337479 kJ/mol
# Density = 1.788433 g / cm^3
# Si number density = 17.925124 Si / 1000 Ang^3
#
#
#
# Elastic Constant Matrix: (Units=GPa)
#
#
# Indices 1 2 3 4 5 6 
#
# 1 92.3285 50.4459 20.9667 0.0000 0.0000 0.0000
# 2 50.4459 74.5176 16.1648 0.0000 0.0000 0.0000
# 3 20.9667 16.1648 49.6813 0.0000 0.0000 0.0000
# 4 0.0000 0.0000 0.0000 20.1759 0.0000 0.0000
# 5 0.0000 0.0000 0.0000 0.0000 13.6981 0.0000
# 6 0.0000 0.0000 0.0000 0.0000 0.0000 35.6832
#
#
#
# Elastic Compliance Matrix: (Units=1/GPa)
#
#
# Indices 1 2 3 4 5 6 
#
# 1 0.017856 -0.011247 -0.003876 0.000000 0.000000 0.000000
# 2 -0.011247 0.021523 -0.002256 0.000000 0.000000 0.000000
# 3 -0.003876 -0.002256 0.022498 0.000000 0.000000 0.000000
# 4 0.000000 0.000000 0.000000 0.049564 0.000000 0.000000
# 5 0.000000 0.000000 0.000000 0.000000 0.073003 0.000000
# 6 0.000000 0.000000 0.000000 0.000000 0.000000 0.028024
#
#
# Mechanical properties :
#
#
# Convention : Reuss Voigt Hill
#
# Bulk Modulus (GPa) = 36.87591 43.52025 40.19808
# Shear Modulus (GPa) = 19.51078 22.50810 21.00944
#
# Velocity S-wave (km/s) = 3.30276 3.54739 3.42726
# Velocity P-wave (km/s) = 5.92968 6.41173 6.17541
#
# Compressibility (1/GPa) = 0.02711798
#
# Stress axis : x y z
#
# Youngs Moduli (GPa) = 56.00245 46.46163 44.44772
#
# Poissons Ratio (x) = 0.52257 0.17229
# Poissons Ratio (y) = 0.62988 0.10029
# Poissons Ratio (z) = 0.21708 0.10484
#
# Static dielectric constant tensor:
#      x y z
#    x 3.272320 0.000000 0.000000 
#    y 0.000000 3.464170 0.000000 
#    z 0.000000 0.000000 3.006840 
# 
# 
# High freq. dielectric constant tensor:
#      x y z
#    x 1.692140 0.000000 0.000000 
#    y 0.000000 1.696070 0.000000 
#    z 0.000000 0.000000 1.655130 
# 
# From -- ./inp_files/12799.got.cif
#   From: 2010.06.25/outbox.cif.g09.slc.cpg/sg71_7_cif.got.tgz:12799.got - 2010.06.28 04:59:45.
