data_PCOD8288732
_publ_section_title
;
Structure prediction by ZEFSAII (Michael W. Deem and Ramdas Pophale) SiO2 
 PCOD8288732
Probable space group: I M M M
;
_chemical_formula_sum "Si O2"
_cell_formula_units_Z 104
_cell_length_a 26.393876
_cell_length_b 9.247715
_cell_length_c 21.564026
_cell_angle_alpha 90.000000
_cell_angle_beta 90.000000
_cell_angle_gamma 90.000000
_cell_volume 5263.413085
_symmetry_space_group_name_H-M "I M M M"
_symmetry_group_IT_number 71
_symmetry_cell_setting 'orthorhombic'
loop_
_space_group_symop_operation_xyz
x,y,z
-x,-y,z
x,-y,-z
-x,y,-z
-x,-y,-z
x,y,-z
-x,y,z
x,-y,z
1/2+x,1/2+y,1/2+z
1/2-x,1/2-y,1/2+z
1/2+x,1/2-y,1/2-z
1/2-x,1/2+y,1/2-z
1/2-x,1/2-y,1/2-z
1/2+x,1/2+y,1/2-z
1/2-x,1/2+y,1/2+z
1/2+x,1/2-y,1/2+z
loop_
_atom_site_type_symbol
_atom_site_label
_atom_site_fract_x
_atom_site_fract_y
_atom_site_fract_z
Si Si1 0.442063 0.666294 0.732471
Si Si2 0.884911 0.671874 0.670806
Si Si3 0.297539 0.845071 0.257353
Si Si4 0.558664 0.159941 0.500000
Si Si5 0.178000 0.167761 0.427382
Si Si6 0.291842 0.840647 0.398476
Si Si7 0.110988 0.171097 0.895418
O O1 0.500000 0.692098 0.710976
O O2 0.432711 0.500000 0.750052
O O3 0.434221 0.758619 0.796477
O O4 0.404441 0.710567 0.675660
O O5 0.892200 0.500000 0.662951
O O6 0.843586 0.724272 0.720747
O O7 0.866726 0.740848 0.605713
O O8 0.250000 0.750000 0.250000
O O9 0.309260 0.863397 0.328628
O O10 0.285998 0.000000 0.226380
O O11 0.500000 0.133792 0.500000
O O12 0.571054 0.250166 0.561250
O O13 0.585155 0.000000 0.500000
O O14 0.171038 0.194424 0.500000
O O15 0.234573 0.220490 0.407088
O O16 0.171490 0.000000 0.409407
O O17 0.333710 0.725686 0.420694
O O18 0.295067 0.000000 0.431474
O O19 0.108918 0.000000 0.905416
#
# Coordination Sequence:
#
# PCOD8288732 Si02
#       7
#    16  16  16   8  16  16  16
#     4  10  22  40  62  87 116 151 192 242 299 358
#     4  11  22  36  57  87 119 151 190 242 300 355
#     4  10  19  31  51  79 112 148 186 228 276 331
#     4  11  25  43  61  79 107 155 207 251 296 347
#     4  10  22  39  59  83 115 161 205 241 286 347
#     4  10  20  35  54  81 117 155 195 235 280 338
#     4  11  23  38  59  87 119 155 197 246 297 346
#
# _framework density 19.759042000000001
#
# number of rings (size 3 to 8) (size 9 to 14) (size 15 to 20)
#    0.000    1.615    3.077    1.615    1.077    4.308 
#    0.000    0.000    0.000    0.462    0.000    3.231 
#    0.000    0.000    0.000    0.000    0.000    0.000 
#
# Total GULP energy -644288.367645 kJ/mol
# GULP energy per Si atom -12390.160916 kJ/mol
# Density = 1.971407 g / cm^3
# Si number density = 19.759042 Si / 1000 Ang^3
#
#
#
# Elastic Constant Matrix: (Units=GPa)
#
#
# Indices 1 2 3 4 5 6 
#
# 1 60.7948 38.7828 22.9365 0.0000 0.0000 0.0000
# 2 38.7828 103.2774 43.1069 0.0000 0.0000 0.0000
# 3 22.9365 43.1069 95.0282 0.0000 0.0000 0.0000
# 4 0.0000 0.0000 0.0000 10.6644 0.0000 0.0000
# 5 0.0000 0.0000 0.0000 0.0000 31.0453 0.0000
# 6 0.0000 0.0000 0.0000 0.0000 0.0000 27.4565
#
#
#
# Elastic Compliance Matrix: (Units=1/GPa)
#
#
# Indices 1 2 3 4 5 6 
#
# 1 0.021911 -0.007427 -0.001920 0.000000 0.000000 0.000000
# 2 -0.007427 0.014461 -0.004767 0.000000 0.000000 0.000000
# 3 -0.001920 -0.004767 0.013149 0.000000 0.000000 0.000000
# 4 0.000000 0.000000 0.000000 0.093770 0.000000 0.000000
# 5 0.000000 0.000000 0.000000 0.000000 0.032211 0.000000
# 6 0.000000 0.000000 0.000000 0.000000 0.000000 0.036421
#
#
# Mechanical properties :
#
#
# Convention : Reuss Voigt Hill
#
# Bulk Modulus (GPa) = 46.96208 52.08365 49.52287
# Shear Modulus (GPa) = 20.22254 24.11818 22.17036
#
# Velocity S-wave (km/s) = 3.20262 3.49752 3.35331
# Velocity P-wave (km/s) = 6.12329 6.53658 6.33331
#
# Compressibility (1/GPa) = 0.02129378
#
# Stress axis : x y z
#
# Youngs Moduli (GPa) = 45.63979 69.14940 76.05055
#
# Poissons Ratio (x) = 0.51355 0.14598
# Poissons Ratio (y) = 0.33895 0.36257
# Poissons Ratio (z) = 0.08761 0.32967
#
# Static dielectric constant tensor:
#      x y z
#    x 3.457470 0.000000 0.000000 
#    y 0.000000 3.720960 0.000000 
#    z 0.000000 0.000000 3.443920 
# 
# 
# High freq. dielectric constant tensor:
#      x y z
#    x 1.754740 0.000000 0.000000 
#    y 0.000000 1.773220 0.000000 
#    z 0.000000 0.000000 1.760900 
# 
# From -- ./inp_files/56231.got.cif
#   From: 2010.06.25/outbox.cif.g09.slc.cpg/sg71_29_cif.got.tgz:56231.got - 2010.06.28 04:59:45.
