data_PCOD8288707
_publ_section_title
;
Structure prediction by ZEFSAII (Michael W. Deem and Ramdas Pophale) SiO2 
 PCOD8288707
Probable space group: I M M M
;
_chemical_formula_sum "Si O2"
_cell_formula_units_Z 56
_cell_length_a 13.372647
_cell_length_b 10.076181
_cell_length_c 26.314269
_cell_angle_alpha 90.000000
_cell_angle_beta 90.000000
_cell_angle_gamma 90.000000
_cell_volume 3545.721745
_symmetry_space_group_name_H-M "I M M M"
_symmetry_group_IT_number 71
_symmetry_cell_setting 'orthorhombic'
loop_
_space_group_symop_operation_xyz
x,y,z
-x,-y,z
x,-y,-z
-x,y,-z
-x,-y,-z
x,y,-z
-x,y,z
x,-y,z
1/2+x,1/2+y,1/2+z
1/2-x,1/2-y,1/2+z
1/2+x,1/2-y,1/2-z
1/2-x,1/2+y,1/2-z
1/2-x,1/2-y,1/2-z
1/2+x,1/2+y,1/2-z
1/2-x,1/2+y,1/2+z
1/2+x,1/2-y,1/2+z
loop_
_atom_site_type_symbol
_atom_site_label
_atom_site_fract_x
_atom_site_fract_y
_atom_site_fract_z
Si Si1 0.882083 0.500000 0.645125
Si Si2 0.881613 0.500000 0.942707
Si Si3 0.265238 0.500000 0.441752
Si Si4 0.234011 0.851297 0.204631
Si Si5 0.618326 0.731019 0.391090
O O1 0.839852 0.500000 0.588049
O O2 0.839144 0.369041 0.674150
O O3 0.000000 0.500000 0.645031
O O4 0.844594 0.626457 0.910844
O O5 0.000000 0.500000 0.946890
O O6 0.836270 0.500000 0.000000
O O7 0.235673 0.500000 0.500000
O O8 0.331718 0.373621 0.428467
O O9 0.250000 0.750000 0.250000
O O10 0.150915 0.790624 0.167189
O O11 0.199406 0.000000 0.223089
O O12 0.500000 0.715307 0.394366
#
# Coordination Sequence:
#
# PCOD8288707 Si02
#       5
#     8   8   8  16  16
#     4   8  18  35  51  69  98 129 165 204 239 289
#     4   9  18  29  45  71 101 135 166 186 227 300
#     4  10  19  31  51  75  97 128 165 207 253 291
#     4   9  20  34  50  74  98 127 168 206 246 297
#     4  10  19  32  48  73 106 132 160 202 249 303
#
# _framework density 15.793682
#
# number of rings (size 3 to 8) (size 9 to 14) (size 15 to 20)
#    0.857    1.857    1.429    1.286    2.000    3.714 
#    0.000    0.000    0.000    0.000    0.000    0.000 
#    0.000   10.857    0.000    0.000    0.000    0.000 
#
# Total GULP energy -346964.827228 kJ/mol
# GULP energy per Si atom -12391.600972 kJ/mol
# Density = 1.575773 g / cm^3
# Si number density = 15.793682 Si / 1000 Ang^3
#
#
#
# Elastic Constant Matrix: (Units=GPa)
#
#
# Indices 1 2 3 4 5 6 
#
# 1 86.7882 27.8958 33.3970 0.0000 0.0000 0.0000
# 2 27.8958 132.9678 62.1136 0.0000 0.0000 0.0000
# 3 33.3970 62.1136 133.2455 0.0000 0.0000 0.0000
# 4 0.0000 0.0000 0.0000 167.9408 0.0000 0.0000
# 5 0.0000 0.0000 0.0000 0.0000 17.5004 0.0000
# 6 0.0000 0.0000 0.0000 0.0000 0.0000 3.6566
#
#
#
# Elastic Compliance Matrix: (Units=1/GPa)
#
#
# Indices 1 2 3 4 5 6 
#
# 1 0.012994 -0.001540 -0.002539 0.000000 0.000000 0.000000
# 2 -0.001540 0.009797 -0.004181 0.000000 0.000000 0.000000
# 3 -0.002539 -0.004181 0.010090 0.000000 0.000000 0.000000
# 4 0.000000 0.000000 0.000000 0.005954 0.000000 0.000000
# 5 0.000000 0.000000 0.000000 0.000000 0.057142 0.000000
# 6 0.000000 0.000000 0.000000 0.000000 0.000000 0.273476
#
#
# Mechanical properties :
#
#
# Convention : Reuss Voigt Hill
#
# Bulk Modulus (GPa) = 61.11909 66.64604 63.88257
# Shear Modulus (GPa) = 12.77378 53.12591 32.94984
#
# Velocity S-wave (km/s) = 2.84701 5.80607 4.57252
# Velocity P-wave (km/s) = 7.04200 9.34006 8.27123
#
# Compressibility (1/GPa) = 0.01636150
#
# Stress axis : x y z
#
# Youngs Moduli (GPa) = 76.95649 102.07501 99.10542
#
# Poissons Ratio (x) = 0.15720 0.25163
# Poissons Ratio (y) = 0.11852 0.41434
# Poissons Ratio (z) = 0.19539 0.42676
#
# Static dielectric constant tensor:
#      x y z
#    x 2.691900 0.000000 0.000000 
#    y 0.000000 3.135260 0.000000 
#    z 0.000000 0.000000 3.042180 
# 
# 
# High freq. dielectric constant tensor:
#      x y z
#    x 1.576350 0.000000 0.000000 
#    y 0.000000 1.612920 0.000000 
#    z 0.000000 0.000000 1.610500 
# 
# From -- ./inp_files/59434.got.cif
#   From: 2010.06.25/outbox.cif.g09.slc.cpg/sg71_30_cif.got.tgz:59434.got - 2010.06.28 04:59:45.
