data_PCOD8288277
_publ_section_title
;
Structure prediction by ZEFSAII (Michael W. Deem and Ramdas Pophale) SiO2 
 PCOD8288277
Probable space group: I M M M
;
_chemical_formula_sum "Si O2"
_cell_formula_units_Z 104
_cell_length_a 28.184966
_cell_length_b 9.429735
_cell_length_c 27.836433
_cell_angle_alpha 90.000000
_cell_angle_beta 90.000000
_cell_angle_gamma 90.000000
_cell_volume 7398.276983
_symmetry_space_group_name_H-M "I M M M"
_symmetry_group_IT_number 71
_symmetry_cell_setting 'orthorhombic'
loop_
_space_group_symop_operation_xyz
x,y,z
-x,-y,z
x,-y,-z
-x,y,-z
-x,-y,-z
x,y,-z
-x,y,z
x,-y,z
1/2+x,1/2+y,1/2+z
1/2-x,1/2-y,1/2+z
1/2+x,1/2-y,1/2-z
1/2-x,1/2+y,1/2-z
1/2-x,1/2-y,1/2-z
1/2+x,1/2+y,1/2-z
1/2-x,1/2+y,1/2+z
1/2+x,1/2-y,1/2+z
loop_
_atom_site_type_symbol
_atom_site_label
_atom_site_fract_x
_atom_site_fract_y
_atom_site_fract_z
Si Si1 0.211433 0.164468 0.779212
Si Si2 0.946323 0.649008 0.500000
Si Si3 0.914200 0.156328 0.582248
Si Si4 0.054810 0.163391 0.689614
Si Si5 0.281202 0.160140 0.140401
Si Si6 0.192881 0.839279 0.555106
Si Si7 0.642680 0.169166 0.222042
O O1 0.250000 0.250000 0.750000
O O2 0.229520 0.170491 0.834216
O O3 0.162456 0.248756 0.769488
O O4 0.207615 0.000000 0.762237
O O5 0.917227 0.500000 0.500000
O O6 0.936565 0.731372 0.452109
O O7 0.000000 0.608106 0.500000
O O8 0.935123 0.187661 0.633966
O O9 0.858019 0.171108 0.579893
O O10 0.929286 0.000000 0.564872
O O11 0.089225 0.272360 0.717032
O O12 0.000000 0.200685 0.701266
O O13 0.065893 0.000000 0.703861
O O14 0.274863 0.248438 0.091186
O O15 0.323978 0.210321 0.176230
O O16 0.292704 0.000000 0.125301
O O17 0.192330 0.780626 0.500000
O O18 0.211589 0.000000 0.554613
O O19 0.642339 0.000000 0.230500
#
# Coordination Sequence:
#
# PCOD8288277 Si02
#       7
#    16   8  16  16  16  16  16
#     4   9  17  29  45  66  87 105 131 165 207 255
#     4  11  23  33  41  55  71  91 125 173 225 265
#     4  10  19  33  47  57  72  99 136 175 214 258
#     4  10  20  32  46  62  79 106 142 177 217 258
#     4   9  18  30  44  63  83 105 132 167 210 253
#     4  10  19  30  44  61  79 104 138 173 211 253
#     4  10  19  30  45  65  86 108 135 168 213 259
#
# _framework density 14.057328
#
# number of rings (size 3 to 8) (size 9 to 14) (size 15 to 20)
#    0.000    2.231    2.308    2.538    0.000    6.154 
#    0.000    0.000    0.000    0.000    0.000    0.000 
#    0.000    0.000    0.000    0.000    0.000    0.769 
#
# Total GULP energy -644280.718416 kJ/mol
# GULP energy per Si atom -12390.013816 kJ/mol
# Density = 1.402533 g / cm^3
# Si number density = 14.057328 Si / 1000 Ang^3
#
#
#
# Elastic Constant Matrix: (Units=GPa)
#
#
# Indices 1 2 3 4 5 6 
#
# 1 65.6563 46.5252 35.6119 0.0000 0.0000 0.0000
# 2 46.5252 90.4094 37.7476 0.0000 0.0000 0.0000
# 3 35.6119 37.7476 45.0586 0.0000 0.0000 0.0000
# 4 0.0000 0.0000 0.0000 20.2726 0.0000 0.0000
# 5 0.0000 0.0000 0.0000 0.0000 27.6176 0.0000
# 6 0.0000 0.0000 0.0000 0.0000 0.0000 21.8562
#
#
#
# Elastic Compliance Matrix: (Units=1/GPa)
#
#
# Indices 1 2 3 4 5 6 
#
# 1 0.030515 -0.008664 -0.016859 0.000000 0.000000 0.000000
# 2 -0.008664 0.019471 -0.009464 0.000000 0.000000 0.000000
# 3 -0.016859 -0.009464 0.043446 0.000000 0.000000 0.000000
# 4 0.000000 0.000000 0.000000 0.049328 0.000000 0.000000
# 5 0.000000 0.000000 0.000000 0.000000 0.036209 0.000000
# 6 0.000000 0.000000 0.000000 0.000000 0.000000 0.045754
#
#
# Mechanical properties :
#
#
# Convention : Reuss Voigt Hill
#
# Bulk Modulus (GPa) = 42.62991 48.98820 45.80906
# Shear Modulus (GPa) = 16.52815 19.36524 17.94669
#
# Velocity S-wave (km/s) = 3.43267 3.71562 3.57694
# Velocity P-wave (km/s) = 6.78988 7.30289 7.05106
#
# Compressibility (1/GPa) = 0.02345771
#
# Stress axis : x y z
#
# Youngs Moduli (GPa) = 32.77121 51.35910 23.01710
#
# Poissons Ratio (x) = 0.44498 0.38804
# Poissons Ratio (y) = 0.28393 0.21783
# Poissons Ratio (z) = 0.55248 0.48606
#
# Static dielectric constant tensor:
#      x y z
#    x 2.859900 0.000000 0.000000 
#    y 0.000000 3.152860 0.000000 
#    z 0.000000 0.000000 2.722550 
# 
# 
# High freq. dielectric constant tensor:
#      x y z
#    x 1.505530 0.000000 0.000000 
#    y 0.000000 1.553110 0.000000 
#    z 0.000000 0.000000 1.505200 
# 
# From -- ./inp_files/62281.got.cif
#   From: 2010.06.25/outbox.cif.g09.slc.cpg/sg71_32_cif.got.tgz:62281.got - 2010.06.28 04:59:45.
