data_PCOD8288439
_publ_section_title
;
Structure prediction by ZEFSAII (Michael W. Deem and Ramdas Pophale) SiO2 
 PCOD8288439
Probable space group: I M M M
;
_chemical_formula_sum "Si O2"
_cell_formula_units_Z 120
_cell_length_a 18.460282
_cell_length_b 18.446797
_cell_length_c 17.984231
_cell_angle_alpha 90.000000
_cell_angle_beta 90.000000
_cell_angle_gamma 90.000000
_cell_volume 6124.225477
_symmetry_space_group_name_H-M "I M M M"
_symmetry_group_IT_number 71
_symmetry_cell_setting 'orthorhombic'
loop_
_space_group_symop_operation_xyz
x,y,z
-x,-y,z
x,-y,-z
-x,y,-z
-x,-y,-z
x,y,-z
-x,y,z
x,-y,z
1/2+x,1/2+y,1/2+z
1/2-x,1/2-y,1/2+z
1/2+x,1/2-y,1/2-z
1/2-x,1/2+y,1/2-z
1/2-x,1/2-y,1/2-z
1/2+x,1/2+y,1/2-z
1/2-x,1/2+y,1/2+z
1/2+x,1/2-y,1/2+z
loop_
_atom_site_type_symbol
_atom_site_label
_atom_site_fract_x
_atom_site_fract_y
_atom_site_fract_z
Si Si1 0.580023 0.080836 0.160255
Si Si2 0.714475 0.416900 0.416091
Si Si3 0.914593 0.080312 0.500000
Si Si4 0.415088 0.327316 0.858113
Si Si5 0.081022 0.586314 0.082829
Si Si6 0.840807 0.083721 0.759147
Si Si7 0.317939 0.914147 0.710681
Si Si8 0.153412 0.309165 0.582316
O O1 0.500000 0.083292 0.194421
O O2 0.634943 0.114289 0.220498
O O3 0.587826 0.132676 0.088809
O O4 0.601044 0.000000 0.135999
O O5 0.681306 0.407894 0.500000
O O6 0.745195 0.500000 0.407630
O O7 0.656896 0.404840 0.349081
O O8 0.774306 0.355533 0.401637
O O9 0.889640 0.121156 0.574450
O O10 0.000000 0.073116 0.500000
O O11 0.878989 0.000000 0.500000
O O12 0.500000 0.306302 0.864445
O O13 0.402463 0.367853 0.779530
O O14 0.363412 0.256573 0.861225
O O15 0.082976 0.500000 0.083885
O O16 0.144277 0.618199 0.136202
O O17 0.000000 0.611733 0.107556
O O18 0.097712 0.615322 0.000000
O O19 0.764724 0.109816 0.722286
O O20 0.855763 0.000000 0.740129
O O21 0.324228 0.000000 0.708995
O O22 0.153714 0.276047 0.500000
#
# Coordination Sequence:
#
# PCOD8288439 Si02
#       8
#    16  16   8  16  16  16  16  16
#     4  10  19  30  48  75 108 147 185 225 275 330
#     4   9  18  35  60  88 118 151 185 225 281 347
#     4   9  18  36  58  76 101 141 186 234 287 336
#     4  11  23  38  56  81 111 148 193 240 289 341
#     4   8  13  22  38  60  89 128 170 213 265 322
#     4  10  20  36  58  83 110 142 185 238 292 345
#     4   9  16  29  45  69 101 132 173 223 273 329
#     4  11  21  35  55  78 111 151 189 229 271 329
#
# _framework density 19.594315999999999
#
# number of rings (size 3 to 8) (size 9 to 14) (size 15 to 20)
#    0.000    2.333    2.000    2.000    0.000    4.533 
#    1.200    0.667    0.000    0.400    0.000    1.867 
#    0.000    0.000    0.000    0.000    0.000    0.000 
#
# Total GULP energy -743291.573073 kJ/mol
# GULP energy per Si atom -12388.192885 kJ/mol
# Density = 1.954972 g / cm^3
# Si number density = 19.594316 Si / 1000 Ang^3
#
#
#
# Elastic Constant Matrix: (Units=GPa)
#
#
# Indices 1 2 3 4 5 6 
#
# 1 29.5392 14.2457 20.8135 0.0000 0.0000 0.0000
# 2 14.2457 87.5436 35.7700 0.0000 0.0000 0.0000
# 3 20.8135 35.7700 110.5361 0.0000 0.0000 0.0000
# 4 0.0000 0.0000 0.0000 22.5799 0.0000 0.0000
# 5 0.0000 0.0000 0.0000 0.0000 27.9894 0.0000
# 6 0.0000 0.0000 0.0000 0.0000 0.0000 16.8920
#
#
#
# Elastic Compliance Matrix: (Units=1/GPa)
#
#
# Indices 1 2 3 4 5 6 
#
# 1 0.040197 -0.003974 -0.006283 0.000000 0.000000 0.000000
# 2 -0.003974 0.013556 -0.003639 0.000000 0.000000 0.000000
# 3 -0.006283 -0.003639 0.011407 0.000000 0.000000 0.000000
# 4 0.000000 0.000000 0.000000 0.044287 0.000000 0.000000
# 5 0.000000 0.000000 0.000000 0.000000 0.035728 0.000000
# 6 0.000000 0.000000 0.000000 0.000000 0.000000 0.059200
#
#
# Mechanical properties :
#
#
# Convention : Reuss Voigt Hill
#
# Bulk Modulus (GPa) = 26.75976 41.03081 33.89528
# Shear Modulus (GPa) = 20.43966 23.94490 22.19228
#
# Velocity S-wave (km/s) = 3.23328 3.49955 3.36905
# Velocity P-wave (km/s) = 5.25598 6.10858 5.69825
#
# Compressibility (1/GPa) = 0.03736954
#
# Stress axis : x y z
#
# Youngs Moduli (GPa) = 24.87757 73.76664 87.66287
#
# Poissons Ratio (x) = 0.29314 0.55078
# Poissons Ratio (y) = 0.09886 0.31897
# Poissons Ratio (z) = 0.15630 0.26841
#
# Static dielectric constant tensor:
#      x y z
#    x 3.264030 0.000000 0.000000 
#    y 0.000000 3.337340 0.000000 
#    z 0.000000 0.000000 3.848550 
# 
# 
# High freq. dielectric constant tensor:
#      x y z
#    x 1.728050 0.000000 0.000000 
#    y 0.000000 1.734440 0.000000 
#    z 0.000000 0.000000 1.769410 
# 
# From -- ./inp_files/54341.got.cif
#   From: 2010.06.25/outbox.cif.g09.slc.cpg/sg71_28_cif.got.tgz:54341.got - 2010.06.28 04:59:45.
