data_PCOD8288927
_publ_section_title
;
Structure prediction by ZEFSAII (Michael W. Deem and Ramdas Pophale) SiO2 
 PCOD8288927
Probable space group: I M M M
;
_chemical_formula_sum "Si O2"
_cell_formula_units_Z 120
_cell_length_a 8.918169
_cell_length_b 27.593856
_cell_length_c 27.085850
_cell_angle_alpha 90.000000
_cell_angle_beta 90.000000
_cell_angle_gamma 90.000000
_cell_volume 6665.466662
_symmetry_space_group_name_H-M "I M M M"
_symmetry_group_IT_number 71
_symmetry_cell_setting 'orthorhombic'
loop_
_space_group_symop_operation_xyz
x,y,z
-x,-y,z
x,-y,-z
-x,y,-z
-x,-y,-z
x,y,-z
-x,y,z
x,-y,z
1/2+x,1/2+y,1/2+z
1/2-x,1/2-y,1/2+z
1/2+x,1/2-y,1/2-z
1/2-x,1/2+y,1/2-z
1/2-x,1/2-y,1/2-z
1/2+x,1/2+y,1/2-z
1/2-x,1/2+y,1/2+z
1/2+x,1/2-y,1/2+z
loop_
_atom_site_type_symbol
_atom_site_label
_atom_site_fract_x
_atom_site_fract_y
_atom_site_fract_z
Si Si1 0.177044 0.554320 0.294146
Si Si2 0.326849 0.304559 0.444197
Si Si3 0.672163 0.362188 0.350719
Si Si4 0.322505 0.282941 0.894696
Si Si5 0.178057 0.554017 0.815720
Si Si6 0.824082 0.238500 0.198427
Si Si7 0.821615 0.383632 0.092997
Si Si8 0.322620 0.946078 0.500000
O O1 0.234488 0.500000 0.306424
O O2 0.235034 0.591099 0.335173
O O3 0.232908 0.569543 0.239144
O O4 0.000000 0.555451 0.295547
O O5 0.300184 0.322634 0.500000
O O6 0.500000 0.289516 0.434780
O O7 0.284270 0.348180 0.407019
O O8 0.224782 0.258031 0.433836
O O9 0.500000 0.376648 0.346509
O O10 0.710323 0.317044 0.315326
O O11 0.500000 0.283497 0.889010
O O12 0.247956 0.273902 0.841706
O O13 0.263329 0.333532 0.915417
O O14 0.238753 0.500000 0.828050
O O15 0.236576 0.592261 0.855969
O O16 0.000000 0.552566 0.817490
O O17 0.750000 0.250000 0.250000
O O18 0.000000 0.249219 0.200550
O O19 0.769057 0.418235 0.048758
O O20 0.000000 0.375025 0.092956
O O21 0.500000 0.950004 0.500000
O O22 0.252163 0.000000 0.500000
#
# Coordination Sequence:
#
# PCOD8288927 Si02
#       8
#    16  16  16  16  16  16  16   8
#     4   9  18  32  51  77 107 141 179 214 252 306
#     4   9  19  38  61  79 101 134 175 224 272 323
#     4   9  19  34  53  80 107 133 170 215 267 319
#     4  11  23  36  50  76 110 142 178 218 262 318
#     4   8  15  29  49  72  97 129 174 222 262 306
#     4  10  21  37  55  78 109 144 180 219 265 318
#     4  10  19  32  52  76 100 134 177 226 278 325
#     4   9  18  32  53  79 101 129 179 237 286 333
#
# _framework density 18.003240000000002
#
# number of rings (size 3 to 8) (size 9 to 14) (size 15 to 20)
#    0.000    2.600    0.000    3.600    2.800    4.800 
#    0.000    0.000    0.000    3.200    0.000    2.800 
#    0.000    0.000    0.000    0.000    0.000    0.000 
#
# Total GULP energy -743939.285091 kJ/mol
# GULP energy per Si atom -12398.988085 kJ/mol
# Density = 1.796226 g / cm^3
# Si number density = 18.003240 Si / 1000 Ang^3
#
#
#
# Elastic Constant Matrix: (Units=GPa)
#
#
# Indices 1 2 3 4 5 6 
#
# 1 62.5977 40.7530 40.1203 0.0000 0.0000 0.0000
# 2 40.7530 120.0559 72.3534 0.0000 0.0000 0.0000
# 3 40.1203 72.3534 142.3350 0.0000 0.0000 0.0000
# 4 0.0000 0.0000 0.0000 21.1720 0.0000 0.0000
# 5 0.0000 0.0000 0.0000 0.0000 22.5022 0.0000
# 6 0.0000 0.0000 0.0000 0.0000 0.0000 25.1663
#
#
#
# Elastic Compliance Matrix: (Units=1/GPa)
#
#
# Indices 1 2 3 4 5 6 
#
# 1 0.021593 -0.005279 -0.003403 0.000000 0.000000 0.000000
# 2 -0.005279 0.013299 -0.005272 0.000000 0.000000 0.000000
# 3 -0.003403 -0.005272 0.010665 0.000000 0.000000 0.000000
# 4 0.000000 0.000000 0.000000 0.047232 0.000000 0.000000
# 5 0.000000 0.000000 0.000000 0.000000 0.044440 0.000000
# 6 0.000000 0.000000 0.000000 0.000000 0.000000 0.039736
#
#
# Mechanical properties :
#
#
# Convention : Reuss Voigt Hill
#
# Bulk Modulus (GPa) = 56.66253 70.16023 63.41138
# Shear Modulus (GPa) = 23.72420 25.21889 24.47155
#
# Velocity S-wave (km/s) = 3.63405 3.74678 3.69085
# Velocity P-wave (km/s) = 7.01073 7.60088 7.31176
#
# Compressibility (1/GPa) = 0.01764835
#
# Stress axis : x y z
#
# Youngs Moduli (GPa) = 46.31182 75.19517 93.76519
#
# Poissons Ratio (x) = 0.39694 0.31909
# Poissons Ratio (y) = 0.24447 0.49435
# Poissons Ratio (z) = 0.15760 0.39645
#
# Static dielectric constant tensor:
#      x y z
#    x 3.061840 0.000000 0.000000 
#    y 0.000000 3.334420 0.000000 
#    z 0.000000 0.000000 3.487080 
# 
# 
# High freq. dielectric constant tensor:
#      x y z
#    x 1.671900 0.000000 0.000000 
#    y 0.000000 1.691840 0.000000 
#    z 0.000000 0.000000 1.700910 
# 
# From -- ./inp_files/63855.got.cif
#   From: 2010.06.25/outbox.cif.g09.slc.cpg/sg71_32_cif.got.tgz:63855.got - 2010.06.28 04:59:45.
