data_PCOD8288043
_publ_section_title
;
Structure prediction by ZEFSAII (Michael W. Deem and Ramdas Pophale) SiO2 
 PCOD8288043
Probable space group: I M M M
;
_chemical_formula_sum "Si O2"
_cell_formula_units_Z 96
_cell_length_a 22.465918
_cell_length_b 27.890859
_cell_length_c 8.963868
_cell_angle_alpha 90.000000
_cell_angle_beta 90.000000
_cell_angle_gamma 90.000000
_cell_volume 5616.703676
_symmetry_space_group_name_H-M "I M M M"
_symmetry_group_IT_number 71
_symmetry_cell_setting 'orthorhombic'
loop_
_space_group_symop_operation_xyz
x,y,z
-x,-y,z
x,-y,-z
-x,y,-z
-x,-y,-z
x,y,-z
-x,y,z
x,-y,z
1/2+x,1/2+y,1/2+z
1/2-x,1/2-y,1/2+z
1/2+x,1/2-y,1/2-z
1/2-x,1/2+y,1/2-z
1/2-x,1/2-y,1/2-z
1/2+x,1/2+y,1/2-z
1/2-x,1/2+y,1/2+z
1/2+x,1/2-y,1/2+z
loop_
_atom_site_type_symbol
_atom_site_label
_atom_site_fract_x
_atom_site_fract_y
_atom_site_fract_z
Si Si1 0.207695 0.862879 0.174137
Si Si2 0.500000 0.758210 0.321584
Si Si3 0.000000 0.362563 0.675548
Si Si4 0.769951 0.445768 0.823529
Si Si5 0.113394 0.391744 0.832782
Si Si6 0.305633 0.803783 0.668100
Si Si7 0.877923 0.215670 0.824026
O O1 0.216607 0.913357 0.257686
O O2 0.257679 0.824664 0.218882
O O3 0.143807 0.838436 0.216352
O O4 0.212334 0.873164 0.000000
O O5 0.500000 0.762607 0.500000
O O6 0.500000 0.811413 0.256466
O O7 0.443209 0.727950 0.260382
O O8 0.057106 0.394058 0.723332
O O9 0.000000 0.354478 0.500000
O O10 0.761090 0.500000 0.767771
O O11 0.834450 0.426659 0.770350
O O12 0.765914 0.441215 0.000000
O O13 0.136484 0.337484 0.836414
O O14 0.094474 0.407730 0.000000
O O15 0.278862 0.800126 0.500000
O O16 0.328042 0.753156 0.734834
O O17 0.880006 0.222810 0.000000
#
# Coordination Sequence:
#
# PCOD8288043 Si02
#       7
#    16   8   8  16  16  16  16
#     4  10  19  29  45  74 102 122 148 192 250 295
#     4  10  18  34  52  63  90 139 178 200 218 257
#     4  12  22  30  43  69 100 128 163 200 238 280
#     4   9  19  37  57  73  89 117 160 202 241 291
#     4   9  17  31  51  68  88 124 166 201 232 273
#     4   9  16  29  47  67  92 129 169 195 222 272
#     4   9  17  29  47  69  94 128 168 197 225 272
#
# _framework density 17.091875999999999
#
# number of rings (size 3 to 8) (size 9 to 14) (size 15 to 20)
#    0.000    2.500    1.667    2.750    0.000    3.000 
#    0.000    2.917    0.000    2.500    0.000    0.583 
#    0.000    4.667    0.000    0.000    0.000    0.000 
#
# Total GULP energy -594932.330669 kJ/mol
# GULP energy per Si atom -12394.423556 kJ/mol
# Density = 1.705297 g / cm^3
# Si number density = 17.091876 Si / 1000 Ang^3
#
#
#
# Elastic Constant Matrix: (Units=GPa)
#
#
# Indices 1 2 3 4 5 6 
#
# 1 56.7002 47.5007 15.6692 0.0000 0.0000 0.0000
# 2 47.5007 122.1380 23.1953 0.0000 0.0000 0.0000
# 3 15.6692 23.1953 38.0609 0.0000 0.0000 0.0000
# 4 0.0000 0.0000 0.0000 21.4207 0.0000 0.0000
# 5 0.0000 0.0000 0.0000 0.0000 17.0931 0.0000
# 6 0.0000 0.0000 0.0000 0.0000 0.0000 17.1010
#
#
#
# Elastic Compliance Matrix: (Units=1/GPa)
#
#
# Indices 1 2 3 4 5 6 
#
# 1 0.027090 -0.009519 -0.005351 0.000000 0.000000 0.000000
# 2 -0.009519 0.012604 -0.003762 0.000000 0.000000 0.000000
# 3 -0.005351 -0.003762 0.030770 0.000000 0.000000 0.000000
# 4 0.000000 0.000000 0.000000 0.046684 0.000000 0.000000
# 5 0.000000 0.000000 0.000000 0.000000 0.058503 0.000000
# 6 0.000000 0.000000 0.000000 0.000000 0.000000 0.058476
#
#
# Mechanical properties :
#
#
# Convention : Reuss Voigt Hill
#
# Bulk Modulus (GPa) = 30.12230 43.29216 36.70723
# Shear Modulus (GPa) = 17.70167 19.82523 18.76345
#
# Velocity S-wave (km/s) = 3.22169 3.40946 3.31690
# Velocity P-wave (km/s) = 5.61258 6.39400 6.01599
#
# Compressibility (1/GPa) = 0.03319800
#
# Stress axis : x y z
#
# Youngs Moduli (GPa) = 36.91347 79.33894 32.49963
#
# Poissons Ratio (x) = 0.75526 0.17392
# Poissons Ratio (y) = 0.35140 0.12227
# Poissons Ratio (z) = 0.19754 0.29850
#
# Static dielectric constant tensor:
#      x y z
#    x 3.267470 0.000000 0.000000 
#    y 0.000000 3.193100 0.000000 
#    z 0.000000 0.000000 2.965240 
# 
# 
# High freq. dielectric constant tensor:
#      x y z
#    x 1.643530 0.000000 0.000000 
#    y 0.000000 1.640730 0.000000 
#    z 0.000000 0.000000 1.640160 
# 
# From -- ./inp_files/13203.got.cif
#   From: 2010.06.25/outbox.cif.g09.slc.cpg/sg71_7_cif.got.tgz:13203.got - 2010.06.28 04:59:45.
