data_PCOD8288863
_publ_section_title
;
Structure prediction by ZEFSAII (Michael W. Deem and Ramdas Pophale) SiO2 
 PCOD8288863
Probable space group: I M M M
;
_chemical_formula_sum "Si O2"
_cell_formula_units_Z 96
_cell_length_a 25.068456
_cell_length_b 17.396417
_cell_length_c 13.188576
_cell_angle_alpha 90.000000
_cell_angle_beta 90.000000
_cell_angle_gamma 90.000000
_cell_volume 5751.555325
_symmetry_space_group_name_H-M "I M M M"
_symmetry_group_IT_number 71
_symmetry_cell_setting 'orthorhombic'
loop_
_space_group_symop_operation_xyz
x,y,z
-x,-y,z
x,-y,-z
-x,y,-z
-x,-y,-z
x,y,-z
-x,y,z
x,-y,z
1/2+x,1/2+y,1/2+z
1/2-x,1/2-y,1/2+z
1/2+x,1/2-y,1/2-z
1/2-x,1/2+y,1/2-z
1/2-x,1/2-y,1/2-z
1/2+x,1/2+y,1/2-z
1/2-x,1/2+y,1/2+z
1/2+x,1/2-y,1/2+z
loop_
_atom_site_type_symbol
_atom_site_label
_atom_site_fract_x
_atom_site_fract_y
_atom_site_fract_z
Si Si1 0.400017 0.333247 0.879497
Si Si2 0.708184 0.850026 0.690698
Si Si3 0.385820 0.500000 0.886719
Si Si4 0.759729 0.000000 0.614900
Si Si5 0.500000 0.088333 0.750812
Si Si6 0.101788 0.412506 0.115256
Si Si7 0.000000 0.735373 0.620166
Si Si8 0.204492 0.259142 0.616512
O O1 0.405121 0.420314 0.833093
O O2 0.448062 0.280454 0.838216
O O3 0.343451 0.296794 0.848164
O O4 0.402216 0.339643 0.000000
O O5 0.740815 0.927395 0.677796
O O6 0.649432 0.855441 0.643652
O O7 0.738978 0.782973 0.630705
O O8 0.703537 0.833438 0.810967
O O9 0.322543 0.500000 0.891532
O O10 0.409433 0.500000 0.000000
O O11 0.735636 0.000000 0.500000
O O12 0.448566 0.105986 0.684056
O O13 0.500000 0.147067 0.844321
O O14 0.500000 0.000000 0.790588
O O15 0.121609 0.500000 0.132056
O O16 0.084058 0.398846 0.000000
O O17 0.000000 0.732859 0.500000
O O18 0.197676 0.285783 0.500000
#
# Coordination Sequence:
#
# PCOD8288863 Si02
#       8
#    16  16   8   8   8  16   8  16
#     4   9  17  30  48  69  96 130 161 200 251 293
#     4  11  20  30  52  76  97 131 171 205 246 298
#     4   9  16  27  48  72  96 125 158 200 254 305
#     4  11  18  30  50  74  98 124 166 213 254 298
#     4  10  21  35  49  68  97 131 167 201 251 301
#     4  10  19  32  51  73  95 118 154 207 255 293
#     4  10  20  33  49  68  97 135 170 202 238 293
#     4  10  20  33  47  71 106 137 163 201 249 297
#
# _framework density 16.691137999999999
#
# number of rings (size 3 to 8) (size 9 to 14) (size 15 to 20)
#    0.000    2.000    2.500    2.750    0.000    1.500 
#    0.000    2.083    0.000    1.000    0.000    0.000 
#    0.000    0.000    0.000    5.833    0.000    0.500 
#
# Total GULP energy -595072.447433 kJ/mol
# GULP energy per Si atom -12397.342655 kJ/mol
# Density = 1.665315 g / cm^3
# Si number density = 16.691138 Si / 1000 Ang^3
#
#
#
# Elastic Constant Matrix: (Units=GPa)
#
#
# Indices 1 2 3 4 5 6 
#
# 1 98.6938 38.0083 19.9569 0.0000 0.0000 0.0000
# 2 38.0083 108.3805 44.6927 0.0000 0.0000 0.0000
# 3 19.9569 44.6927 64.7660 0.0000 0.0000 0.0000
# 4 0.0000 0.0000 0.0000 11.3617 0.0000 0.0000
# 5 0.0000 0.0000 0.0000 0.0000 17.9961 0.0000
# 6 0.0000 0.0000 0.0000 0.0000 0.0000 23.6435
#
#
#
# Elastic Compliance Matrix: (Units=1/GPa)
#
#
# Indices 1 2 3 4 5 6 
#
# 1 0.011769 -0.003679 -0.001088 0.000000 0.000000 0.000000
# 2 -0.003679 0.014046 -0.008559 0.000000 0.000000 0.000000
# 3 -0.001088 -0.008559 0.021682 0.000000 0.000000 0.000000
# 4 0.000000 0.000000 0.000000 0.088015 0.000000 0.000000
# 5 0.000000 0.000000 0.000000 0.000000 0.055567 0.000000
# 6 0.000000 0.000000 0.000000 0.000000 0.000000 0.042295
#
#
# Mechanical properties :
#
#
# Convention : Reuss Voigt Hill
#
# Bulk Modulus (GPa) = 47.97227 53.01734 50.49480
# Shear Modulus (GPa) = 18.72829 21.87909 20.30369
#
# Velocity S-wave (km/s) = 3.35334 3.62445 3.49153
# Velocity P-wave (km/s) = 6.61791 7.02483 6.82440
#
# Compressibility (1/GPa) = 0.02084538
#
# Stress axis : x y z
#
# Youngs Moduli (GPa) = 84.96856 71.19224 46.12120
#
# Poissons Ratio (x) = 0.26189 0.05018
# Poissons Ratio (y) = 0.31257 0.39477
# Poissons Ratio (z) = 0.09244 0.60936
#
# Static dielectric constant tensor:
#      x y z
#    x 3.297710 0.000000 0.000000 
#    y 0.000000 3.263690 0.000000 
#    z 0.000000 0.000000 2.890390 
# 
# 
# High freq. dielectric constant tensor:
#      x y z
#    x 1.657380 0.000000 0.000000 
#    y 0.000000 1.639940 0.000000 
#    z 0.000000 0.000000 1.605020 
# 
# From -- ./inp_files/40325.got.cif
#   From: 2010.06.25/outbox.cif.g09.slc.cpg/sg71_21_cif.got.tgz:40325.got - 2010.06.28 04:59:45.
