data_PCOD8288068
_publ_section_title
;
Structure prediction by ZEFSAII (Michael W. Deem and Ramdas Pophale) SiO2 
 PCOD8288068
Probable space group: I M M M
;
_chemical_formula_sum "Si O2"
_cell_formula_units_Z 104
_cell_length_a 27.004089
_cell_length_b 17.490597
_cell_length_c 12.304841
_cell_angle_alpha 90.000000
_cell_angle_beta 90.000000
_cell_angle_gamma 90.000000
_cell_volume 5811.793438
_symmetry_space_group_name_H-M "I M M M"
_symmetry_group_IT_number 71
_symmetry_cell_setting 'orthorhombic'
loop_
_space_group_symop_operation_xyz
x,y,z
-x,-y,z
x,-y,-z
-x,y,-z
-x,-y,-z
x,y,-z
-x,y,z
x,-y,z
1/2+x,1/2+y,1/2+z
1/2-x,1/2-y,1/2+z
1/2+x,1/2-y,1/2-z
1/2-x,1/2+y,1/2-z
1/2-x,1/2-y,1/2-z
1/2+x,1/2+y,1/2-z
1/2-x,1/2+y,1/2+z
1/2+x,1/2-y,1/2+z
loop_
_atom_site_type_symbol
_atom_site_label
_atom_site_fract_x
_atom_site_fract_y
_atom_site_fract_z
Si Si1 0.056469 0.912973 0.286954
Si Si2 0.192580 0.740022 0.268570
Si Si3 0.943545 0.813279 0.500000
Si Si4 0.340869 0.756739 0.000000
Si Si5 0.555613 0.161321 0.625476
Si Si6 0.613201 0.314378 0.373456
Si Si7 0.634523 0.914995 0.765199
Si Si8 0.644067 0.918819 0.000000
O O1 0.066162 0.864144 0.394469
O O2 0.091852 0.887832 0.188343
O O3 0.000000 0.904452 0.247659
O O4 0.069241 0.000000 0.316194
O O5 0.250000 0.750000 0.250000
O O6 0.179914 0.777381 0.387208
O O7 0.165721 0.789960 0.176509
O O8 0.176612 0.650740 0.255195
O O9 0.901384 0.747353 0.500000
O O10 0.000000 0.779885 0.500000
O O11 0.320955 0.844605 0.000000
O O12 0.558630 0.139648 0.500000
O O13 0.500000 0.155817 0.670178
O O14 0.574016 0.246882 0.646527
O O15 0.588699 0.099883 0.687089
O O16 0.620454 0.333782 0.500000
O O17 0.656422 0.000000 0.737908
O O18 0.612412 0.914684 0.888472
O O19 0.674316 0.000000 0.000000
#
# Coordination Sequence:
#
# PCOD8288068 Si02
#       8
#    16  16   8   8  16  16  16   8
#     4  10  20  34  54  79 109 146 182 221 275 334
#     4  10  21  36  57  81 104 139 183 228 269 321
#     4  10  19  34  56  83 110 141 185 229 268 329
#     4  10  18  35  60  83 103 140 185 221 273 322
#     4   9  18  32  51  75 104 140 177 212 252 305
#     4  10  20  35  53  77 108 139 178 227 274 317
#     4   9  18  34  54  75 103 135 170 214 261 311
#     4   8  16  32  51  74 102 130 164 209 261 309
#
# _framework density 17.894649000000001
#
# number of rings (size 3 to 8) (size 9 to 14) (size 15 to 20)
#    0.000    2.462    1.538    0.692    1.077    2.769 
#    0.000    2.692    0.000    2.538    0.000    0.000 
#    0.000    0.000    0.000    0.000    0.000    0.000 
#
# Total GULP energy -644262.913958 kJ/mol
# GULP energy per Si atom -12389.671422 kJ/mol
# Density = 1.785392 g / cm^3
# Si number density = 17.894649 Si / 1000 Ang^3
#
#
#
# Elastic Constant Matrix: (Units=GPa)
#
#
# Indices 1 2 3 4 5 6 
#
# 1 129.2420 38.7841 50.1663 0.0000 0.0000 0.0000
# 2 38.7841 67.2731 23.8318 0.0000 0.0000 0.0000
# 3 50.1663 23.8318 99.9187 0.0000 0.0000 0.0000
# 4 0.0000 0.0000 0.0000 17.3360 0.0000 0.0000
# 5 0.0000 0.0000 0.0000 0.0000 21.4475 0.0000
# 6 0.0000 0.0000 0.0000 0.0000 0.0000 16.2998
#
#
#
# Elastic Compliance Matrix: (Units=1/GPa)
#
#
# Indices 1 2 3 4 5 6 
#
# 1 0.010825 -0.004714 -0.004311 0.000000 0.000000 0.000000
# 2 -0.004714 0.018289 -0.001996 0.000000 0.000000 0.000000
# 3 -0.004311 -0.001996 0.012648 0.000000 0.000000 0.000000
# 4 0.000000 0.000000 0.000000 0.057683 0.000000 0.000000
# 5 0.000000 0.000000 0.000000 0.000000 0.046625 0.000000
# 6 0.000000 0.000000 0.000000 0.000000 0.000000 0.061351
#
#
# Mechanical properties :
#
#
# Convention : Reuss Voigt Hill
#
# Bulk Modulus (GPa) = 50.70290 57.99979 54.35134
# Shear Modulus (GPa) = 21.18314 23.26010 22.22162
#
# Velocity S-wave (km/s) = 3.44433 3.60923 3.52775
# Velocity P-wave (km/s) = 6.64932 7.06052 6.85800
#
# Compressibility (1/GPa) = 0.01972274
#
# Stress axis : x y z
#
# Youngs Moduli (GPa) = 92.37668 54.67673 79.06139
#
# Poissons Ratio (x) = 0.25774 0.34081
# Poissons Ratio (y) = 0.43545 0.15777
# Poissons Ratio (z) = 0.39821 0.10911
#
# Static dielectric constant tensor:
#      x y z
#    x 3.017430 0.000000 0.000000 
#    y 0.000000 3.359830 0.000000 
#    z 0.000000 0.000000 3.615700 
# 
# 
# High freq. dielectric constant tensor:
#      x y z
#    x 1.657420 0.000000 0.000000 
#    y 0.000000 1.685010 0.000000 
#    z 0.000000 0.000000 1.712480 
# 
# From -- ./inp_files/28956.got.cif
#   From: 2010.06.25/outbox.cif.g09.slc.cpg/sg71_15_cif.got.tgz:28956.got - 2010.06.28 04:59:45.
