data_PCOD8288202
_publ_section_title
;
Structure prediction by ZEFSAII (Michael W. Deem and Ramdas Pophale) SiO2 
 PCOD8288202
Probable space group: I M M M
;
_chemical_formula_sum "Si O2"
_cell_formula_units_Z 112
_cell_length_a 29.479372
_cell_length_b 9.044297
_cell_length_c 22.886850
_cell_angle_alpha 90.000000
_cell_angle_beta 90.000000
_cell_angle_gamma 90.000000
_cell_volume 6102.096427
_symmetry_space_group_name_H-M "I M M M"
_symmetry_group_IT_number 71
_symmetry_cell_setting 'orthorhombic'
loop_
_space_group_symop_operation_xyz
x,y,z
-x,-y,z
x,-y,-z
-x,y,-z
-x,-y,-z
x,y,-z
-x,y,z
x,-y,z
1/2+x,1/2+y,1/2+z
1/2-x,1/2-y,1/2+z
1/2+x,1/2-y,1/2-z
1/2-x,1/2+y,1/2-z
1/2-x,1/2-y,1/2-z
1/2+x,1/2+y,1/2-z
1/2-x,1/2+y,1/2+z
1/2+x,1/2-y,1/2+z
loop_
_atom_site_type_symbol
_atom_site_label
_atom_site_fract_x
_atom_site_fract_y
_atom_site_fract_z
Si Si1 0.550336 0.675653 0.434338
Si Si2 0.599525 0.176104 0.064208
Si Si3 0.724328 0.324292 0.565637
Si Si4 0.549679 0.824205 0.823950
Si Si5 0.136626 0.824790 0.865045
Si Si6 0.187502 0.675425 0.370798
Si Si7 0.862710 0.675092 0.743214
O O1 0.559353 0.735409 0.500000
O O2 0.500000 0.726560 0.413218
O O3 0.553048 0.500000 0.435682
O O4 0.588797 0.737079 0.390426
O O5 0.562166 0.232004 0.110753
O O6 0.648923 0.232528 0.084749
O O7 0.599616 0.000000 0.062147
O O8 0.588597 0.241502 0.000000
O O9 0.729533 0.260818 0.500000
O O10 0.727541 0.500000 0.563998
O O11 0.675929 0.274153 0.590677
O O12 0.764281 0.260007 0.607391
O O13 0.500000 0.761070 0.806778
O O14 0.587455 0.770495 0.777958
O O15 0.549271 0.000000 0.824330
O O16 0.148432 0.754783 0.803156
O O17 0.135313 0.000000 0.857722
O O18 0.188459 0.500000 0.372027
O O19 0.174960 0.725178 0.304659
O O20 0.861892 0.500000 0.752432
#
# Coordination Sequence:
#
# PCOD8288202 Si02
#       7
#    16  16  16  16  16  16  16
#     4   8  14  26  44  64  86 111 137 170 216 262
#     4   8  12  18  31  53  81 110 137 168 209 252
#     4   9  16  26  43  66  88 108 133 172 217 251
#     4   8  14  24  37  54  78 109 143 175 205 241
#     4  10  19  29  44  68  90 106 135 178 214 245
#     4   8  14  25  40  58  82 113 145 170 198 245
#     4   9  18  31  44  59  84 119 149 168 197 247
#
# _framework density 18.354347000000001
#
# number of rings (size 3 to 8) (size 9 to 14) (size 15 to 20)
#    0.000    3.429    0.000    3.000    0.000    4.857 
#    0.000    1.429    0.000    1.714    0.000    1.000 
#    0.000   13.714    0.000    5.143    0.000    5.714 
#
# Total GULP energy -693882.901229 kJ/mol
# GULP energy per Si atom -12390.766093 kJ/mol
# Density = 1.831257 g / cm^3
# Si number density = 18.354347 Si / 1000 Ang^3
#
#
#
# Elastic Constant Matrix: (Units=GPa)
#
#
# Indices 1 2 3 4 5 6 
#
# 1 145.1467 12.7447 70.2574 0.0000 0.0000 0.0000
# 2 12.7447 7.5275 15.2482 0.0000 0.0000 0.0000
# 3 70.2574 15.2482 137.3282 0.0000 0.0000 0.0000
# 4 0.0000 0.0000 0.0000 18.8672 0.0000 0.0000
# 5 0.0000 0.0000 0.0000 0.0000 27.9688 0.0000
# 6 0.0000 0.0000 0.0000 0.0000 0.0000 5.7979
#
#
#
# Elastic Compliance Matrix: (Units=1/GPa)
#
#
# Indices 1 2 3 4 5 6 
#
# 1 0.009523 -0.008069 -0.003976 0.000000 0.000000 0.000000
# 2 -0.008069 0.178234 -0.015662 0.000000 0.000000 0.000000
# 3 -0.003976 -0.015662 0.011055 0.000000 0.000000 0.000000
# 4 0.000000 0.000000 0.000000 0.053002 0.000000 0.000000
# 5 0.000000 0.000000 0.000000 0.000000 0.035754 0.000000
# 6 0.000000 0.000000 0.000000 0.000000 0.000000 0.172476
#
#
# Mechanical properties :
#
#
# Convention : Reuss Voigt Hill
#
# Bulk Modulus (GPa) = 6.97360 54.05587 30.51474
# Shear Modulus (GPa) = 8.87694 23.31025 16.09360
#
# Velocity S-wave (km/s) = 2.20157 3.56759 2.96434
# Velocity P-wave (km/s) = 3.20472 6.81802 5.32709
#
# Compressibility (1/GPa) = 0.14339790
#
# Stress axis : x y z
#
# Youngs Moduli (GPa) = 105.01391 5.61060 90.45741
#
# Poissons Ratio (x) = 0.04527 0.35964
# Poissons Ratio (y) = 0.84733 1.41676
# Poissons Ratio (z) = 0.41752 0.08787
#
# Static dielectric constant tensor:
#      x y z
#    x 3.826930 0.000000 0.000000 
#    y 0.000000 2.565790 0.000000 
#    z 0.000000 0.000000 3.515710 
# 
# 
# High freq. dielectric constant tensor:
#      x y z
#    x 1.722720 0.000000 0.000000 
#    y 0.000000 1.622960 0.000000 
#    z 0.000000 0.000000 1.718190 
# 
# From -- ./inp_files/56408.got.cif
#   From: 2010.06.25/outbox.cif.g09.slc.cpg/sg71_29_cif.got.tgz:56408.got - 2010.06.28 04:59:45.
