data_PCOD8288164
_publ_section_title
;
Structure prediction by ZEFSAII (Michael W. Deem and Ramdas Pophale) SiO2 
 PCOD8288164
Probable space group: I M M M
;
_chemical_formula_sum "Si O2"
_cell_formula_units_Z 88
_cell_length_a 11.804880
_cell_length_b 16.317048
_cell_length_c 33.048292
_cell_angle_alpha 90.000000
_cell_angle_beta 90.000000
_cell_angle_gamma 90.000000
_cell_volume 6365.788232
_symmetry_space_group_name_H-M "I M M M"
_symmetry_group_IT_number 71
_symmetry_cell_setting 'orthorhombic'
loop_
_space_group_symop_operation_xyz
x,y,z
-x,-y,z
x,-y,-z
-x,y,-z
-x,-y,-z
x,y,-z
-x,y,z
x,-y,z
1/2+x,1/2+y,1/2+z
1/2-x,1/2-y,1/2+z
1/2+x,1/2-y,1/2-z
1/2-x,1/2+y,1/2-z
1/2-x,1/2-y,1/2-z
1/2+x,1/2+y,1/2-z
1/2-x,1/2+y,1/2+z
1/2+x,1/2-y,1/2+z
loop_
_atom_site_type_symbol
_atom_site_label
_atom_site_fract_x
_atom_site_fract_y
_atom_site_fract_z
Si Si1 0.634200 0.904073 0.912359
Si Si2 0.367979 0.094578 0.000000
Si Si3 0.737368 0.668397 0.661085
Si Si4 0.769532 0.186375 0.713466
Si Si5 0.122978 0.594864 0.266670
Si Si6 0.500000 0.594737 0.325131
Si Si7 0.000000 0.096090 0.729102
O O1 0.500000 0.891865 0.907409
O O2 0.697969 0.847495 0.880487
O O3 0.664239 0.000000 0.905932
O O4 0.677631 0.871501 0.956820
O O5 0.500000 0.109708 0.000000
O O6 0.339198 0.000000 0.000000
O O7 0.746051 0.765577 0.671532
O O8 0.794484 0.617112 0.696876
O O9 0.608377 0.640027 0.656214
O O10 0.750000 0.250000 0.750000
O O11 0.676110 0.116934 0.722809
O O12 0.891917 0.143953 0.711601
O O13 0.103781 0.500000 0.267769
O O14 0.000000 0.638646 0.271894
O O15 0.500000 0.500000 0.338514
O O16 0.500000 0.603163 0.277109
O O17 0.000000 0.000000 0.715903
#
# Coordination Sequence:
#
# PCOD8288164 Si02
#       7
#    16   8  16  16  16   8   8
#     4   9  16  27  43  62  84 105 132 167 206 248
#     4   7  12  24  42  61  79 105 131 157 199 251
#     4  11  21  27  42  59  84 105 138 179 211 236
#     4  10  21  28  43  57  80 105 140 176 211 240
#     4  10  19  29  42  57  77 104 138 173 209 243
#     4  11  20  30  42  55  78 115 151 171 202 251
#     4  11  20  34  46  54  77 117 150 174 208 256
#
# _framework density 13.823897000000001
#
# number of rings (size 3 to 8) (size 9 to 14) (size 15 to 20)
#    0.000    2.091    3.636    3.818    7.636    1.455 
#    0.000    0.000    0.000    0.545    0.000    2.545 
#    0.000    0.000    0.000    4.091    0.000    2.727 
#
# Total GULP energy -545101.924941 kJ/mol
# GULP energy per Si atom -12388.680112 kJ/mol
# Density = 1.379243 g / cm^3
# Si number density = 13.823897 Si / 1000 Ang^3
#
#
#
# Elastic Constant Matrix: (Units=GPa)
#
#
# Indices 1 2 3 4 5 6 
#
# 1 95.7078 28.6888 31.4446 0.0000 0.0000 0.0000
# 2 28.6888 43.6976 28.4143 0.0000 0.0000 0.0000
# 3 31.4446 28.4143 94.0019 0.0000 0.0000 0.0000
# 4 0.0000 0.0000 0.0000 17.4345 0.0000 0.0000
# 5 0.0000 0.0000 0.0000 0.0000 8.3358 0.0000
# 6 0.0000 0.0000 0.0000 0.0000 0.0000 23.1451
#
#
#
# Elastic Compliance Matrix: (Units=1/GPa)
#
#
# Indices 1 2 3 4 5 6 
#
# 1 0.013386 -0.007314 -0.002267 0.000000 0.000000 0.000000
# 2 -0.007314 0.032480 -0.007371 0.000000 0.000000 0.000000
# 3 -0.002267 -0.007371 0.013624 0.000000 0.000000 0.000000
# 4 0.000000 0.000000 0.000000 0.057358 0.000000 0.000000
# 5 0.000000 0.000000 0.000000 0.000000 0.119965 0.000000
# 6 0.000000 0.000000 0.000000 0.000000 0.000000 0.043206
#
#
# Mechanical properties :
#
#
# Convention : Reuss Voigt Hill
#
# Bulk Modulus (GPa) = 39.08434 45.61140 42.34787
# Shear Modulus (GPa) = 15.50626 19.44036 17.47331
#
# Velocity S-wave (km/s) = 3.35281 3.75412 3.55913
# Velocity P-wave (km/s) = 6.58201 7.20121 6.89856
#
# Compressibility (1/GPa) = 0.02558570
#
# Stress axis : x y z
#
# Youngs Moduli (GPa) = 74.70684 30.78862 73.39765
#
# Poissons Ratio (x) = 0.22519 0.16638
# Poissons Ratio (y) = 0.54642 0.54102
# Poissons Ratio (z) = 0.16934 0.22694
#
# Static dielectric constant tensor:
#      x y z
#    x 3.153770 0.000000 0.000000 
#    y 0.000000 3.015830 0.000000 
#    z 0.000000 0.000000 2.814620 
# 
# 
# High freq. dielectric constant tensor:
#      x y z
#    x 1.533390 0.000000 0.000000 
#    y 0.000000 1.508690 0.000000 
#    z 0.000000 0.000000 1.491500 
# 
# From -- ./inp_files/69406.got.cif
#   From: 2010.06.25/outbox.cif.g09.slc.cpg/sg71_35_cif.got.tgz:69406.got - 2010.06.28 04:59:45.
