data_PCOD8288205
_publ_section_title
;
Structure prediction by ZEFSAII (Michael W. Deem and Ramdas Pophale) SiO2 
 PCOD8288205
Probable space group: I M M M
;
_chemical_formula_sum "Si O2"
_cell_formula_units_Z 96
_cell_length_a 13.769044
_cell_length_b 31.766134
_cell_length_c 12.955812
_cell_angle_alpha 90.000000
_cell_angle_beta 90.000000
_cell_angle_gamma 90.000000
_cell_volume 5666.733500
_symmetry_space_group_name_H-M "I M M M"
_symmetry_group_IT_number 71
_symmetry_cell_setting 'orthorhombic'
loop_
_space_group_symop_operation_xyz
x,y,z
-x,-y,z
x,-y,-z
-x,y,-z
-x,-y,-z
x,y,-z
-x,y,z
x,-y,z
1/2+x,1/2+y,1/2+z
1/2-x,1/2-y,1/2+z
1/2+x,1/2-y,1/2-z
1/2-x,1/2+y,1/2-z
1/2-x,1/2-y,1/2-z
1/2+x,1/2+y,1/2-z
1/2-x,1/2+y,1/2+z
1/2+x,1/2-y,1/2+z
loop_
_atom_site_type_symbol
_atom_site_label
_atom_site_fract_x
_atom_site_fract_y
_atom_site_fract_z
Si Si1 0.109011 0.728442 0.378419
Si Si2 0.241801 0.158614 0.880253
Si Si3 0.387700 0.314809 0.205956
Si Si4 0.102564 0.000000 0.883094
Si Si5 0.741884 0.566860 0.699588
Si Si6 0.113134 0.096601 0.381582
Si Si7 0.615344 0.000000 0.124074
O O1 0.108683 0.733367 0.500000
O O2 0.168788 0.687532 0.343689
O O3 0.159029 0.771135 0.334362
O O4 0.000000 0.721673 0.336436
O O5 0.146787 0.173852 0.820495
O O6 0.267231 0.111010 0.852107
O O7 0.219073 0.163443 0.000000
O O8 0.500000 0.306015 0.212196
O O9 0.365068 0.353588 0.129292
O O10 0.160116 0.042559 0.862892
O O11 0.000000 0.000000 0.820503
O O12 0.074866 0.000000 0.000000
O O13 0.694616 0.571631 0.814419
O O14 0.841260 0.540123 0.686775
O O15 0.128595 0.083098 0.500000
O O16 0.000000 0.087392 0.348083
O O17 0.500000 0.000000 0.137379
O O18 0.642586 0.000000 0.000000
#
# Coordination Sequence:
#
# PCOD8288205 Si02
#       7
#    16  16  16   8  16  16   8
#     4   9  17  29  45  65  89 119 156 195 232 268
#     4  10  19  29  44  68  95 121 151 192 239 282
#     4   9  17  29  45  65  93 128 159 187 222 272
#     4  10  19  31  48  68  94 128 155 177 222 293
#     4  10  19  33  50  71  98 122 154 198 242 282
#     4   9  17  30  50  75 100 127 159 192 229 279
#     4  10  21  37  56  73  92 125 165 200 236 282
#
# _framework density 16.940977
#
# number of rings (size 3 to 8) (size 9 to 14) (size 15 to 20)
#    0.000    2.500    0.000    3.500    0.000    3.667 
#    0.000    3.333    0.000    5.500    0.000    0.000 
#    0.000    0.000    0.000    0.000    0.000    0.000 
#
# Total GULP energy -594704.665739 kJ/mol
# GULP energy per Si atom -12389.680536 kJ/mol
# Density = 1.690242 g / cm^3
# Si number density = 16.940977 Si / 1000 Ang^3
#
#
#
# Elastic Constant Matrix: (Units=GPa)
#
#
# Indices 1 2 3 4 5 6 
#
# 1 68.5276 43.5476 30.8754 -0.0010 0.0003 0.0002
# 2 43.5476 123.5963 33.7462 -0.0012 0.0005 0.0001
# 3 30.8754 33.7462 70.0784 -0.0057 0.0036 0.0008
# 4 -0.0010 -0.0012 -0.0057 21.5409 0.0008 0.0001
# 5 0.0003 0.0005 0.0036 0.0008 24.0574 -0.0003
# 6 0.0002 0.0001 0.0008 0.0001 -0.0003 17.0967
#
#
#
# Elastic Compliance Matrix: (Units=1/GPa)
#
#
# Indices 1 2 3 4 5 6 
#
# 1 0.021159 -0.005653 -0.006600 -0.000001 0.000001 0.000000
# 2 -0.005653 0.010826 -0.002723 0.000000 0.000000 0.000000
# 3 -0.006600 -0.002723 0.018489 0.000004 -0.000003 -0.000001
# 4 -0.000001 0.000000 0.000004 0.046423 -0.000001 0.000000
# 5 0.000001 0.000000 -0.000003 -0.000001 0.041567 0.000001
# 6 0.000000 0.000000 -0.000001 0.000000 0.000001 0.058491
#
#
# Mechanical properties :
#
#
# Convention : Reuss Voigt Hill
#
# Bulk Modulus (GPa) = 48.72791 53.17121 50.94956
# Shear Modulus (GPa) = 21.39071 22.80789 22.09930
#
# Velocity S-wave (km/s) = 3.55725 3.67320 3.61569
# Velocity P-wave (km/s) = 6.76002 7.03165 6.89717
#
# Compressibility (1/GPa) = 0.02052212
#
# Stress axis : x y z
#
# Youngs Moduli (GPa) = 47.26212 92.37045 54.08721
#
# Poissons Ratio (x) = 0.52216 0.35697
# Poissons Ratio (y) = 0.26717 0.14726
# Poissons Ratio (z) = 0.31193 0.25149
#
# Static dielectric constant tensor:
#      x y z
#    x 3.214990 0.000000 0.000000 
#    y 0.000000 3.431130 0.000000 
#    z 0.000000 0.000000 3.088190 
# 
# 
# High freq. dielectric constant tensor:
#      x y z
#    x 1.640270 0.000000 0.000000 
#    y 0.000000 1.665370 0.000000 
#    z 0.000000 0.000000 1.639090 
# 
# From -- ./inp_files/22627.got.cif
#   From: 2010.06.25/outbox.cif.g09.slc.cpg/sg71_12_cif.got.tgz:22627.got - 2010.06.28 04:59:45.
