data_PCOD8288739
_publ_section_title
;
Structure prediction by ZEFSAII (Michael W. Deem and Ramdas Pophale) SiO2 
 PCOD8288739
Probable space group: I M M M
;
_chemical_formula_sum "Si O2"
_cell_formula_units_Z 88
_cell_length_a 28.575134
_cell_length_b 9.083196
_cell_length_c 17.679751
_cell_angle_alpha 90.000000
_cell_angle_beta 90.000000
_cell_angle_gamma 90.000000
_cell_volume 4588.842009
_symmetry_space_group_name_H-M "I M M M"
_symmetry_group_IT_number 71
_symmetry_cell_setting 'orthorhombic'
loop_
_space_group_symop_operation_xyz
x,y,z
-x,-y,z
x,-y,-z
-x,y,-z
-x,-y,-z
x,y,-z
-x,y,z
x,-y,z
1/2+x,1/2+y,1/2+z
1/2-x,1/2-y,1/2+z
1/2+x,1/2-y,1/2-z
1/2-x,1/2+y,1/2-z
1/2-x,1/2-y,1/2-z
1/2+x,1/2+y,1/2-z
1/2-x,1/2+y,1/2+z
1/2+x,1/2-y,1/2+z
loop_
_atom_site_type_symbol
_atom_site_label
_atom_site_fract_x
_atom_site_fract_y
_atom_site_fract_z
Si Si1 0.196116 0.830470 0.410595
Si Si2 0.605341 0.826020 0.136059
Si Si3 0.713151 0.663137 0.410259
Si Si4 0.946518 0.328780 0.211397
Si Si5 0.055341 0.831884 0.500000
Si Si6 0.609924 0.674351 0.585372
O O1 0.189276 0.806910 0.500000
O O2 0.157952 0.734303 0.366886
O O3 0.246986 0.775680 0.382655
O O4 0.190792 0.000000 0.387767
O O5 0.584231 0.782580 0.216780
O O6 0.605080 0.000000 0.121714
O O7 0.573594 0.749275 0.073730
O O8 0.713013 0.652210 0.500000
O O9 0.723246 0.500000 0.376808
O O10 0.661859 0.720642 0.384947
O O11 0.941389 0.500000 0.194217
O O12 0.929406 0.243417 0.137834
O O13 0.000000 0.285057 0.228025
O O14 0.000000 0.825889 0.500000
O O15 0.073947 0.000000 0.500000
O O16 0.601707 0.732005 0.500000
O O17 0.605495 0.500000 0.587732
#
# Coordination Sequence:
#
# PCOD8288739 Si02
#       6
#    16  16  16  16   8  16
#     4  10  19  31  51  82 117 147 184 232 277 325
#     4  11  22  37  57  79 109 151 194 232 277 333
#     4   8  15  30  53  80 111 145 182 222 271 330
#     4  10  23  41  58  80 111 146 187 235 284 335
#     4  11  23  37  55  81 111 143 187 241 288 331
#     4   9  19  37  61  88 114 143 183 230 279 338
#
# _framework density 19.176952
#
# number of rings (size 3 to 8) (size 9 to 14) (size 15 to 20)
#    0.000    2.273    0.909    3.000    0.000    5.455 
#    0.000    4.545    0.000    0.000    0.000    0.000 
#    0.000    0.000    0.000    0.000    0.000    0.000 
#
# Total GULP energy -545634.628455 kJ/mol
# GULP energy per Si atom -12400.787010 kJ/mol
# Density = 1.913330 g / cm^3
# Si number density = 19.176952 Si / 1000 Ang^3
#
#
#
# Elastic Constant Matrix: (Units=GPa)
#
#
# Indices 1 2 3 4 5 6 
#
# 1 89.3802 40.2081 40.4708 0.0000 0.0000 0.0000
# 2 40.2081 82.9271 42.8430 0.0000 0.0000 0.0000
# 3 40.4708 42.8430 86.5300 0.0000 0.0000 0.0000
# 4 0.0000 0.0000 0.0000 20.2056 0.0000 0.0000
# 5 0.0000 0.0000 0.0000 0.0000 4.2757 0.0000
# 6 0.0000 0.0000 0.0000 0.0000 0.0000 36.1536
#
#
#
# Elastic Compliance Matrix: (Units=1/GPa)
#
#
# Indices 1 2 3 4 5 6 
#
# 1 0.015659 -0.005118 -0.004790 0.000000 0.000000 0.000000
# 2 -0.005118 0.017876 -0.006457 0.000000 0.000000 0.000000
# 3 -0.004790 -0.006457 0.016994 0.000000 0.000000 0.000000
# 4 0.000000 0.000000 0.000000 0.049491 0.000000 0.000000
# 5 0.000000 0.000000 0.000000 0.000000 0.233879 0.000000
# 6 0.000000 0.000000 0.000000 0.000000 0.000000 0.027660
#
#
# Mechanical properties :
#
#
# Convention : Reuss Voigt Hill
#
# Bulk Modulus (GPa) = 56.18166 56.20903 56.19534
# Shear Modulus (GPa) = 12.49301 21.14801 16.82051
#
# Velocity S-wave (km/s) = 2.55514 3.32442 2.96484
# Velocity P-wave (km/s) = 6.16969 6.64154 6.40996
#
# Compressibility (1/GPa) = 0.01779940
#
# Stress axis : x y z
#
# Youngs Moduli (GPa) = 63.85947 55.93991 58.84368
#
# Poissons Ratio (x) = 0.28630 0.28186
# Poissons Ratio (y) = 0.32683 0.37997
# Poissons Ratio (z) = 0.30589 0.36122
#
# Static dielectric constant tensor:
#      x y z
#    x 3.772190 0.000000 0.000000 
#    y 0.000000 3.517940 0.000000 
#    z 0.000000 0.000000 2.654720 
# 
# 
# High freq. dielectric constant tensor:
#      x y z
#    x 1.760740 0.000000 0.000000 
#    y 0.000000 1.746290 0.000000 
#    z 0.000000 0.000000 1.721060 
# 
# From -- ./inp_files/49248.got.cif
#   From: 2010.06.25/outbox.cif.g09.slc.cpg/sg71_25_cif.got.tgz:49248.got - 2010.06.28 04:59:45.
