data_PCOD8288846
_publ_section_title
;
Structure prediction by ZEFSAII (Michael W. Deem and Ramdas Pophale) SiO2 
 PCOD8288846
Probable space group: I M M M
;
_chemical_formula_sum "Si O2"
_cell_formula_units_Z 48
_cell_length_a 13.469197
_cell_length_b 15.092126
_cell_length_c 13.710789
_cell_angle_alpha 90.000000
_cell_angle_beta 90.000000
_cell_angle_gamma 90.000000
_cell_volume 2787.112985
_symmetry_space_group_name_H-M "I M M M"
_symmetry_group_IT_number 71
_symmetry_cell_setting 'orthorhombic'
loop_
_space_group_symop_operation_xyz
x,y,z
-x,-y,z
x,-y,-z
-x,y,-z
-x,-y,-z
x,y,-z
-x,y,z
x,-y,z
1/2+x,1/2+y,1/2+z
1/2-x,1/2-y,1/2+z
1/2+x,1/2-y,1/2-z
1/2-x,1/2+y,1/2-z
1/2-x,1/2-y,1/2-z
1/2+x,1/2+y,1/2-z
1/2-x,1/2+y,1/2+z
1/2+x,1/2-y,1/2+z
loop_
_atom_site_type_symbol
_atom_site_label
_atom_site_fract_x
_atom_site_fract_y
_atom_site_fract_z
Si Si1 0.116448 0.500000 0.608889
Si Si2 0.796335 0.745852 0.106972
Si Si3 0.614664 0.818353 0.794412
Si Si4 0.117697 0.898433 0.000000
O O1 0.165053 0.500000 0.500000
O O2 0.149122 0.585329 0.669858
O O3 0.000000 0.500000 0.595537
O O4 0.684237 0.747820 0.149455
O O5 0.866804 0.689314 0.178398
O O6 0.794672 0.699352 0.000000
O O7 0.840296 0.846304 0.095474
O O8 0.500000 0.798499 0.819321
O O9 0.000000 0.893798 0.000000
O O10 0.154908 0.000000 0.000000
#
# Coordination Sequence:
#
# PCOD8288846 Si02
#       4
#     8  16  16   8
#     4   9  18  30  49  75 101 128 160 208 261 305
#     4   9  20  32  49  73 102 135 170 211 256 300
#     4  10  19  32  50  75 104 133 167 211 260 308
#     4   9  18  32  51  72  98 134 170 210 255 295
#
# _framework density 17.222121000000001
#
# number of rings (size 3 to 8) (size 9 to 14) (size 15 to 20)
#    1.000    1.667    0.000    2.000    2.333    2.000 
#    0.000    0.833    0.000    3.000    0.000    0.000 
#    0.000    6.000    0.000    0.000    0.000    0.000 
#
# Total GULP energy -297364.846629 kJ/mol
# GULP energy per Si atom -12390.201943 kJ/mol
# Density = 1.718292 g / cm^3
# Si number density = 17.222121 Si / 1000 Ang^3
#
#
#
# Elastic Constant Matrix: (Units=GPa)
#
#
# Indices 1 2 3 4 5 6 
#
# 1 90.1483 16.1986 23.5969 0.0000 0.0000 0.0000
# 2 16.1986 68.8550 49.7337 0.0000 0.0000 0.0000
# 3 23.5969 49.7337 138.3504 0.0000 0.0000 0.0000
# 4 0.0000 0.0000 0.0000 38.4909 0.0000 0.0000
# 5 0.0000 0.0000 0.0000 0.0000 15.4784 0.0000
# 6 0.0000 0.0000 0.0000 0.0000 0.0000 6.5439
#
#
#
# Elastic Compliance Matrix: (Units=1/GPa)
#
#
# Indices 1 2 3 4 5 6 
#
# 1 0.011771 -0.001782 -0.001367 0.000000 0.000000 0.000000
# 2 -0.001782 0.019886 -0.006845 0.000000 0.000000 0.000000
# 3 -0.001367 -0.006845 0.009922 0.000000 0.000000 0.000000
# 4 0.000000 0.000000 0.000000 0.025980 0.000000 0.000000
# 5 0.000000 0.000000 0.000000 0.000000 0.064606 0.000000
# 6 0.000000 0.000000 0.000000 0.000000 0.000000 0.152815
#
#
# Mechanical properties :
#
#
# Convention : Reuss Voigt Hill
#
# Bulk Modulus (GPa) = 46.31407 52.93467 49.62437
# Shear Modulus (GPa) = 16.01721 25.95762 20.98742
#
# Velocity S-wave (km/s) = 3.05296 3.88651 3.49468
# Velocity P-wave (km/s) = 6.27519 7.13745 6.72016
#
# Compressibility (1/GPa) = 0.02159171
#
# Stress axis : x y z
#
# Youngs Moduli (GPa) = 84.95577 50.28564 100.78862
#
# Poissons Ratio (x) = 0.08959 0.13779
# Poissons Ratio (y) = 0.15136 0.68988
# Poissons Ratio (z) = 0.11615 0.34420
#
# Static dielectric constant tensor:
#      x y z
#    x 3.196280 0.000000 0.000000 
#    y 0.000000 3.018350 0.000000 
#    z 0.000000 0.000000 3.251650 
# 
# 
# High freq. dielectric constant tensor:
#      x y z
#    x 1.680520 0.000000 0.000000 
#    y 0.000000 1.624490 0.000000 
#    z 0.000000 0.000000 1.661560 
# 
# From -- ./inp_files/22928.got.cif
#   From: 2010.06.25/outbox.cif.g09.slc.cpg/sg71_12_cif.got.tgz:22928.got - 2010.06.28 04:59:45.
