data_PCOD8288150
_publ_section_title
;
Structure prediction by ZEFSAII (Michael W. Deem and Ramdas Pophale) SiO2 
 PCOD8288150
Probable space group: I M M M
;
_chemical_formula_sum "Si O2"
_cell_formula_units_Z 112
_cell_length_a 29.110228
_cell_length_b 13.775251
_cell_length_c 18.488877
_cell_angle_alpha 90.000000
_cell_angle_beta 90.000000
_cell_angle_gamma 90.000000
_cell_volume 7414.052571
_symmetry_space_group_name_H-M "I M M M"
_symmetry_group_IT_number 71
_symmetry_cell_setting 'orthorhombic'
loop_
_space_group_symop_operation_xyz
x,y,z
-x,-y,z
x,-y,-z
-x,y,-z
-x,-y,-z
x,y,-z
-x,y,z
x,-y,z
1/2+x,1/2+y,1/2+z
1/2-x,1/2-y,1/2+z
1/2+x,1/2-y,1/2-z
1/2-x,1/2+y,1/2-z
1/2-x,1/2-y,1/2-z
1/2+x,1/2+y,1/2-z
1/2-x,1/2+y,1/2+z
1/2+x,1/2-y,1/2+z
loop_
_atom_site_type_symbol
_atom_site_label
_atom_site_fract_x
_atom_site_fract_y
_atom_site_fract_z
Si Si1 0.404739 0.889320 0.584253
Si Si2 0.363491 0.605990 0.584823
Si Si3 0.311890 0.211502 0.415244
Si Si4 0.947505 0.887803 0.701220
Si Si5 0.552581 0.706944 0.352293
Si Si6 0.276680 0.608132 0.914000
Si Si7 0.377671 0.615514 0.919762
O O1 0.415731 0.869318 0.500000
O O2 0.351169 0.868286 0.600069
O O3 0.436759 0.820307 0.633199
O O4 0.415625 0.000000 0.605397
O O5 0.356154 0.599576 0.500000
O O6 0.354707 0.500000 0.620221
O O7 0.327904 0.684731 0.618555
O O8 0.415659 0.639812 0.597797
O O9 0.305257 0.225771 0.500000
O O10 0.263571 0.176442 0.380862
O O11 0.937260 0.819080 0.769091
O O12 0.915892 0.847920 0.636245
O O13 0.000000 0.878362 0.675516
O O14 0.936097 0.000000 0.720820
O O15 0.500000 0.683667 0.371960
O O16 0.270441 0.500000 0.881678
O O17 0.326959 0.650937 0.893914
O O18 0.271995 0.602473 0.000000
O O19 0.376886 0.500000 0.923654
O O20 0.389085 0.656787 0.000000
#
# Coordination Sequence:
#
# PCOD8288150 Si02
#       7
#    16  16  16  16  16  16  16
#     4   9  17  28  42  60  81 105 133 167 206 241
#     4   9  17  27  38  53  74 103 139 173 198 222
#     4   8  13  22  37  57  79 102 129 160 196 236
#     4   9  17  28  41  57  80 111 140 163 192 234
#     4  10  19  29  40  55  76 103 136 168 199 238
#     4   8  12  19  35  59  83 102 122 155 196 235
#     4   8  14  24  39  62  87 106 128 160 197 236
#
# _framework density 15.106448
#
# number of rings (size 3 to 8) (size 9 to 14) (size 15 to 20)
#    0.000    3.286    0.000    3.000    0.000    4.286 
#    0.000    2.857    0.000    3.429    0.000    3.000 
#    0.000    1.714    0.000    3.143    0.000    0.143 
#
# Total GULP energy -693937.372211 kJ/mol
# GULP energy per Si atom -12391.738789 kJ/mol
# Density = 1.507207 g / cm^3
# Si number density = 15.106448 Si / 1000 Ang^3
#
#
#
# Elastic Constant Matrix: (Units=GPa)
#
#
# Indices 1 2 3 4 5 6 
#
# 1 96.1844 46.8218 33.5096 0.0000 0.0000 0.0000
# 2 46.8218 97.8566 31.1897 0.0000 0.0000 0.0000
# 3 33.5096 31.1897 37.3774 0.0000 0.0000 0.0000
# 4 0.0000 0.0000 0.0000 13.0256 0.0000 0.0000
# 5 0.0000 0.0000 0.0000 0.0000 6.9349 0.0000
# 6 0.0000 0.0000 0.0000 0.0000 0.0000 16.1447
#
#
#
# Elastic Compliance Matrix: (Units=1/GPa)
#
#
# Indices 1 2 3 4 5 6 
#
# 1 0.016342 -0.004291 -0.011071 0.000000 0.000000 0.000000
# 2 -0.004291 0.015048 -0.008710 0.000000 0.000000 0.000000
# 3 -0.011071 -0.008710 0.043948 0.000000 0.000000 0.000000
# 4 0.000000 0.000000 0.000000 0.076772 0.000000 0.000000
# 5 0.000000 0.000000 0.000000 0.000000 0.144198 0.000000
# 6 0.000000 0.000000 0.000000 0.000000 0.000000 0.061940
#
#
# Mechanical properties :
#
#
# Convention : Reuss Voigt Hill
#
# Bulk Modulus (GPa) = 36.77214 50.49563 43.63388
# Shear Modulus (GPa) = 12.03496 15.21420 13.62458
#
# Velocity S-wave (km/s) = 2.82561 3.17698 3.00643
# Velocity P-wave (km/s) = 5.91948 6.85250 6.40301
#
# Compressibility (1/GPa) = 0.02719450
#
# Stress axis : x y z
#
# Youngs Moduli (GPa) = 61.19061 66.45269 22.75441
#
# Poissons Ratio (x) = 0.28514 0.25191
# Poissons Ratio (y) = 0.26256 0.19820
# Poissons Ratio (z) = 0.67743 0.57882
#
# Static dielectric constant tensor:
#      x y z
#    x 3.129910 0.000000 0.000000 
#    y 0.000000 3.051330 0.000000 
#    z 0.000000 0.000000 2.627430 
# 
# 
# High freq. dielectric constant tensor:
#      x y z
#    x 1.583640 0.000000 0.000000 
#    y 0.000000 1.556480 0.000000 
#    z 0.000000 0.000000 1.534790 
# 
# From -- ./inp_files/41077.got.cif
#   From: 2010.06.25/outbox.cif.g09.slc.cpg/sg71_21_cif.got.tgz:41077.got - 2010.06.28 04:59:45.
