data_PCOD8288292
_publ_section_title
;
Structure prediction by ZEFSAII (Michael W. Deem and Ramdas Pophale) SiO2 
 PCOD8288292
Probable space group: I M M M
;
_chemical_formula_sum "Si O2"
_cell_formula_units_Z 104
_cell_length_a 8.904896
_cell_length_b 24.339719
_cell_length_c 32.934774
_cell_angle_alpha 90.000000
_cell_angle_beta 90.000000
_cell_angle_gamma 90.000000
_cell_volume 7138.370733
_symmetry_space_group_name_H-M "I M M M"
_symmetry_group_IT_number 71
_symmetry_cell_setting 'orthorhombic'
loop_
_space_group_symop_operation_xyz
x,y,z
-x,-y,z
x,-y,-z
-x,y,-z
-x,-y,-z
x,y,-z
-x,y,z
x,-y,z
1/2+x,1/2+y,1/2+z
1/2-x,1/2-y,1/2+z
1/2+x,1/2-y,1/2-z
1/2-x,1/2+y,1/2-z
1/2-x,1/2-y,1/2-z
1/2+x,1/2+y,1/2-z
1/2-x,1/2+y,1/2+z
1/2+x,1/2-y,1/2+z
loop_
_atom_site_type_symbol
_atom_site_label
_atom_site_fract_x
_atom_site_fract_y
_atom_site_fract_z
Si Si1 0.323776 0.380341 0.952673
Si Si2 0.174864 0.438990 0.252959
Si Si3 0.821989 0.667888 0.118888
Si Si4 0.175858 0.830175 0.231782
Si Si5 0.822125 0.558894 0.159934
Si Si6 0.176389 0.766625 0.312518
Si Si7 0.321916 0.500000 0.045142
O O1 0.500000 0.372170 0.945861
O O2 0.235396 0.333032 0.927695
O O3 0.270654 0.441282 0.935707
O O4 0.282758 0.373749 0.000000
O O5 0.206273 0.500000 0.271302
O O6 0.271458 0.392709 0.275923
O O7 0.227538 0.438322 0.206523
O O8 0.000000 0.424019 0.256948
O O9 0.754553 0.611082 0.137052
O O10 0.752263 0.717168 0.144862
O O11 0.000000 0.672884 0.120596
O O12 0.219154 0.810434 0.277339
O O13 0.261253 0.792923 0.199170
O O14 0.000000 0.824680 0.223970
O O15 0.763977 0.500000 0.141681
O O16 0.000000 0.560723 0.156812
O O17 0.000000 0.762679 0.318919
O O18 0.500000 0.500000 0.042548
O O19 0.255210 0.500000 0.000000
#
# Coordination Sequence:
#
# PCOD8288292 Si02
#       7
#    16  16  16  16  16  16   8
#     4   9  18  32  46  58  77 105 135 169 212 261
#     4   9  16  28  45  61  82 113 142 167 204 254
#     4  11  20  29  45  63  82 102 134 177 216 257
#     4  10  19  30  45  63  84 107 137 176 212 244
#     4   8  15  26  38  54  78 106 133 166 210 253
#     4  10  20  32  45  60  81 109 140 171 209 257
#     4   7  12  26  45  59  73  99 133 167 207 257
#
# _framework density 14.56915
#
# number of rings (size 3 to 8) (size 9 to 14) (size 15 to 20)
#    0.000    2.692    1.538    3.231    1.077    1.846 
#    0.000    0.000    0.000    1.385    0.000    0.000 
#    0.000    0.000    0.000    0.000    0.000    0.769 
#
# Total GULP energy -644373.282352 kJ/mol
# GULP energy per Si atom -12391.793891 kJ/mol
# Density = 1.453599 g / cm^3
# Si number density = 14.569150 Si / 1000 Ang^3
#
#
#
# Elastic Constant Matrix: (Units=GPa)
#
#
# Indices 1 2 3 4 5 6 
#
# 1 55.8905 31.4376 30.1353 0.0000 0.0000 0.0000
# 2 31.4376 75.8629 31.9464 0.0000 0.0000 0.0000
# 3 30.1353 31.9464 56.3700 0.0000 0.0000 0.0000
# 4 0.0000 0.0000 0.0000 23.1497 0.0000 0.0000
# 5 0.0000 0.0000 0.0000 0.0000 17.6482 0.0000
# 6 0.0000 0.0000 0.0000 0.0000 0.0000 22.8316
#
#
#
# Elastic Compliance Matrix: (Units=1/GPa)
#
#
# Indices 1 2 3 4 5 6 
#
# 1 0.027616 -0.006866 -0.010873 0.000000 0.000000 0.000000
# 2 -0.006866 0.019020 -0.007109 0.000000 0.000000 0.000000
# 3 -0.010873 -0.007109 0.027581 0.000000 0.000000 0.000000
# 4 0.000000 0.000000 0.000000 0.043197 0.000000 0.000000
# 5 0.000000 0.000000 0.000000 0.000000 0.056663 0.000000
# 6 0.000000 0.000000 0.000000 0.000000 0.000000 0.043799
#
#
# Mechanical properties :
#
#
# Convention : Reuss Voigt Hill
#
# Bulk Modulus (GPa) = 40.77746 41.68468 41.23107
# Shear Modulus (GPa) = 18.13259 19.03283 18.58271
#
# Velocity S-wave (km/s) = 3.53170 3.61831 3.57527
# Velocity P-wave (km/s) = 6.68432 6.79190 6.73833
#
# Compressibility (1/GPa) = 0.02452335
#
# Stress axis : x y z
#
# Youngs Moduli (GPa) = 36.21046 52.57492 36.25636
#
# Poissons Ratio (x) = 0.36096 0.39421
# Poissons Ratio (y) = 0.24861 0.25775
# Poissons Ratio (z) = 0.39371 0.37376
#
# Static dielectric constant tensor:
#      x y z
#    x 2.640580 0.000000 0.000000 
#    y 0.000000 2.836020 0.000000 
#    z 0.000000 0.000000 2.588250 
# 
# 
# High freq. dielectric constant tensor:
#      x y z
#    x 1.552340 0.000000 0.000000 
#    y 0.000000 1.537530 0.000000 
#    z 0.000000 0.000000 1.519460 
# 
# From -- ./inp_files/68444.got.cif
#   From: 2010.06.25/outbox.cif.g09.slc.cpg/sg71_35_cif.got.tgz:68444.got - 2010.06.28 04:59:45.
