data_PCOD8288230
_publ_section_title
;
Structure prediction by ZEFSAII (Michael W. Deem and Ramdas Pophale) SiO2 
 PCOD8288230
Probable space group: I M M M
;
_chemical_formula_sum "Si O2"
_cell_formula_units_Z 104
_cell_length_a 24.133664
_cell_length_b 14.979371
_cell_length_c 17.561079
_cell_angle_alpha 90.000000
_cell_angle_beta 90.000000
_cell_angle_gamma 90.000000
_cell_volume 6348.454859
_symmetry_space_group_name_H-M "I M M M"
_symmetry_group_IT_number 71
_symmetry_cell_setting 'orthorhombic'
loop_
_space_group_symop_operation_xyz
x,y,z
-x,-y,z
x,-y,-z
-x,y,-z
-x,-y,-z
x,y,-z
-x,y,z
x,-y,z
1/2+x,1/2+y,1/2+z
1/2-x,1/2-y,1/2+z
1/2+x,1/2-y,1/2-z
1/2-x,1/2+y,1/2-z
1/2-x,1/2-y,1/2-z
1/2+x,1/2+y,1/2-z
1/2-x,1/2+y,1/2+z
1/2+x,1/2-y,1/2+z
loop_
_atom_site_type_symbol
_atom_site_label
_atom_site_fract_x
_atom_site_fract_y
_atom_site_fract_z
Si Si1 0.603038 0.640449 0.084600
Si Si2 0.059024 0.101266 0.741107
Si Si3 0.365192 0.837088 0.086642
Si Si4 0.327430 0.603286 0.695674
Si Si5 0.221939 0.099284 0.358281
Si Si6 0.563461 0.000000 0.091290
Si Si7 0.245209 0.217054 0.090170
O O1 0.564229 0.599936 0.149314
O O2 0.599937 0.747002 0.093537
O O3 0.665291 0.605125 0.094339
O O4 0.582460 0.612578 0.000000
O O5 0.112061 0.145144 0.782554
O O6 0.000000 0.147739 0.763000
O O7 0.057109 0.000000 0.768649
O O8 0.303765 0.822405 0.122504
O O9 0.402426 0.914906 0.124500
O O10 0.354868 0.864708 0.000000
O O11 0.331691 0.500000 0.670712
O O12 0.288197 0.612816 0.768668
O O13 0.304432 0.660665 0.626134
O O14 0.262059 0.178574 0.386772
O O15 0.247607 0.000000 0.372608
O O16 0.500000 0.000000 0.122537
O O17 0.561155 0.000000 0.000000
O O18 0.241323 0.208291 0.000000
#
# Coordination Sequence:
#
# PCOD8288230 Si02
#       7
#    16  16  16  16  16   8  16
#     4   9  16  26  41  64  90 115 148 187 225 265
#     4   9  18  31  45  62  85 116 153 186 224 277
#     4   8  16  27  38  57  84 113 145 183 223 261
#     4   9  18  31  47  66  90 124 158 189 230 280
#     4   9  17  30  46  65  94 130 156 179 222 282
#     4   9  16  26  38  50  74 116 153 177 210 259
#     4  10  19  29  46  71  94 117 152 200 241 275
#
# _framework density 16.381938000000002
#
# number of rings (size 3 to 8) (size 9 to 14) (size 15 to 20)
#    0.000    3.000    0.000    3.231    1.077    3.385 
#    0.000    2.308    0.000    0.462    0.000    2.154 
#    0.000    0.000    0.000    1.385    0.000    0.000 
#
# Total GULP energy -644260.677207 kJ/mol
# GULP energy per Si atom -12389.628408 kJ/mol
# Density = 1.634465 g / cm^3
# Si number density = 16.381938 Si / 1000 Ang^3
#
#
#
# Elastic Constant Matrix: (Units=GPa)
#
#
# Indices 1 2 3 4 5 6 
#
# 1 82.6481 38.0486 36.1398 0.0000 0.0000 0.0000
# 2 38.0486 91.9821 36.3056 0.0000 0.0000 0.0000
# 3 36.1398 36.3056 52.5116 0.0000 0.0000 0.0000
# 4 0.0000 0.0000 0.0000 17.5629 0.0000 0.0000
# 5 0.0000 0.0000 0.0000 0.0000 8.8209 0.0000
# 6 0.0000 0.0000 0.0000 0.0000 0.0000 14.7521
#
#
#
# Elastic Compliance Matrix: (Units=1/GPa)
#
#
# Indices 1 2 3 4 5 6 
#
# 1 0.018108 -0.003537 -0.010017 0.000000 0.000000 0.000000
# 2 -0.003537 0.015643 -0.008381 0.000000 0.000000 0.000000
# 3 -0.010017 -0.008381 0.031732 0.000000 0.000000 0.000000
# 4 0.000000 0.000000 0.000000 0.056938 0.000000 0.000000
# 5 0.000000 0.000000 0.000000 0.000000 0.113367 0.000000
# 6 0.000000 0.000000 0.000000 0.000000 0.000000 0.067787
#
#
# Mechanical properties :
#
#
# Convention : Reuss Voigt Hill
#
# Bulk Modulus (GPa) = 46.26873 49.79220 48.03046
# Shear Modulus (GPa) = 14.09847 16.00370 15.05109
#
# Velocity S-wave (km/s) = 2.93680 3.12895 3.03440
# Velocity P-wave (km/s) = 6.30910 6.59654 6.45442
#
# Compressibility (1/GPa) = 0.02161287
#
# Stress axis : x y z
#
# Youngs Moduli (GPa) = 55.22470 63.92791 31.51391
#
# Poissons Ratio (x) = 0.22608 0.31568
# Poissons Ratio (y) = 0.19530 0.26412
# Poissons Ratio (z) = 0.55319 0.53579
#
# Static dielectric constant tensor:
#      x y z
#    x 3.097590 0.000000 0.000000 
#    y 0.000000 3.215290 0.000000 
#    z 0.000000 0.000000 2.786610 
# 
# 
# High freq. dielectric constant tensor:
#      x y z
#    x 1.602640 0.000000 0.000000 
#    y 0.000000 1.630190 0.000000 
#    z 0.000000 0.000000 1.591230 
# 
# From -- ./inp_files/48231.got.cif
#   From: 2010.06.25/outbox.cif.g09.slc.cpg/sg71_25_cif.got.tgz:48231.got - 2010.06.28 04:59:45.
