data_PCOD8288058
_publ_section_title
;
Structure prediction by ZEFSAII (Michael W. Deem and Ramdas Pophale) SiO2 
 PCOD8288058
Probable space group: I M M M
;
_chemical_formula_sum "Si O2"
_cell_formula_units_Z 96
_cell_length_a 14.759777
_cell_length_b 23.749374
_cell_length_c 13.848046
_cell_angle_alpha 90.000000
_cell_angle_beta 90.000000
_cell_angle_gamma 90.000000
_cell_volume 4854.231232
_symmetry_space_group_name_H-M "I M M M"
_symmetry_group_IT_number 71
_symmetry_cell_setting 'orthorhombic'
loop_
_space_group_symop_operation_xyz
x,y,z
-x,-y,z
x,-y,-z
-x,y,-z
-x,-y,-z
x,y,-z
-x,y,z
x,-y,z
1/2+x,1/2+y,1/2+z
1/2-x,1/2-y,1/2+z
1/2+x,1/2-y,1/2-z
1/2-x,1/2+y,1/2-z
1/2-x,1/2-y,1/2-z
1/2+x,1/2+y,1/2-z
1/2-x,1/2+y,1/2+z
1/2+x,1/2-y,1/2+z
loop_
_atom_site_type_symbol
_atom_site_label
_atom_site_fract_x
_atom_site_fract_y
_atom_site_fract_z
Si Si1 0.393724 0.882339 0.386880
Si Si2 0.810748 0.891000 0.108940
Si Si3 0.500000 0.563647 0.615430
Si Si4 0.100255 0.000000 0.385701
Si Si5 0.394905 0.621695 0.886606
Si Si6 0.395739 0.000000 0.305683
Si Si7 0.689934 0.000000 0.105260
Si Si8 0.250136 0.684797 0.772510
O O1 0.374538 0.874898 0.500000
O O2 0.500000 0.875978 0.362687
O O3 0.354777 0.943504 0.353927
O O4 0.340811 0.833948 0.328531
O O5 0.911114 0.902949 0.152316
O O6 0.755244 0.947709 0.114129
O O7 0.756812 0.844981 0.169306
O O8 0.818174 0.868078 0.000000
O O9 0.500000 0.500000 0.656531
O O10 0.500000 0.560873 0.500000
O O11 0.145869 0.940400 0.354231
O O12 0.091726 0.000000 0.500000
O O13 0.000000 0.000000 0.341098
O O14 0.500000 0.626426 0.857183
O O15 0.338386 0.670197 0.835286
O O16 0.382899 0.630104 0.000000
O O17 0.500000 0.000000 0.332077
O O18 0.383566 0.000000 0.190195
O O19 0.640426 0.000000 0.000000
O O20 0.250000 0.750000 0.750000
#
# Coordination Sequence:
#
# PCOD8288058 Si02
#       8
#    16  16   8   8  16   8   8  16
#     4  10  22  42  66  92 122 155 197 254 314 369
#     4  10  21  37  58  86 121 158 196 242 296 361
#     4   9  16  32  58  88 121 151 179 224 292 369
#     4   7  12  28  54  86 122 147 165 208 281 367
#     4   9  19  37  61  91 124 152 182 231 301 375
#     4  10  19  36  64  96 122 149 191 247 318 379
#     4  10  18  34  60  90 124 158 193 241 307 365
#     4  12  26  40  59  82 115 162 213 256 291 340
#
# _framework density 19.776561000000001
#
# number of rings (size 3 to 8) (size 9 to 14) (size 15 to 20)
#    0.000    2.167    2.500    1.750    1.167    4.500 
#    0.000    1.667    0.000    0.500    0.000    0.000 
#    0.000    0.000    0.000    0.000    0.000    0.000 
#
# Total GULP energy -594999.015042 kJ/mol
# GULP energy per Si atom -12395.812813 kJ/mol
# Density = 1.973155 g / cm^3
# Si number density = 19.776561 Si / 1000 Ang^3
#
#
#
# Elastic Constant Matrix: (Units=GPa)
#
#
# Indices 1 2 3 4 5 6 
#
# 1 79.8161 53.8568 45.4871 -0.0001 0.0000 0.0000
# 2 53.8568 165.0240 64.5487 -0.0004 0.0000 0.0000
# 3 45.4871 64.5487 99.1349 -0.0009 0.0000 0.0000
# 4 -0.0001 -0.0004 -0.0009 300.8375 -0.0001 -0.0001
# 5 0.0000 0.0000 0.0000 -0.0001 37.1499 0.0000
# 6 0.0000 0.0000 0.0000 -0.0001 0.0000 26.8736
#
#
#
# Elastic Compliance Matrix: (Units=1/GPa)
#
#
# Indices 1 2 3 4 5 6 
#
# 1 0.018461 -0.003638 -0.006102 0.000000 0.000000 0.000000
# 2 -0.003638 0.008847 -0.004091 0.000000 0.000000 0.000000
# 3 -0.006102 -0.004091 0.015551 0.000000 0.000000 0.000000
# 4 0.000000 0.000000 0.000000 0.003324 0.000000 0.000000
# 5 0.000000 0.000000 0.000000 0.000000 0.026918 0.000000
# 6 0.000000 0.000000 0.000000 0.000000 0.000000 0.037211
#
#
# Mechanical properties :
#
#
# Convention : Reuss Voigt Hill
#
# Bulk Modulus (GPa) = 65.80349 74.64003 70.22176
# Shear Modulus (GPa) = 34.95495 84.97767 59.96631
#
# Velocity S-wave (km/s) = 4.20872 6.56218 5.51251
# Velocity P-wave (km/s) = 7.54741 9.75909 8.72363
#
# Compressibility (1/GPa) = 0.01519676
#
# Stress axis : x y z
#
# Youngs Moduli (GPa) = 54.16781 113.02742 64.30465
#
# Poissons Ratio (x) = 0.41122 0.39237
# Poissons Ratio (y) = 0.19708 0.26309
# Poissons Ratio (z) = 0.33052 0.46243
#
# Static dielectric constant tensor:
#      x y z
#    x 3.527330 0.000000 0.000000 
#    y 0.000000 3.364290 0.000000 
#    z 0.000000 0.000000 3.798070 
# 
# 
# High freq. dielectric constant tensor:
#      x y z
#    x 1.762740 0.000000 0.000000 
#    y 0.000000 1.745320 0.000000 
#    z 0.000000 0.000000 1.786850 
# 
# From -- ./inp_files/34809.got.cif
#   From: 2010.06.25/outbox.cif.g09.slc.cpg/sg71_18_cif.got.tgz:34809.got - 2010.06.28 04:59:45.
