data_PCOD8288037
_publ_section_title
;
Structure prediction by ZEFSAII (Michael W. Deem and Ramdas Pophale) SiO2 
 PCOD8288037
Probable space group: I M M M
;
_chemical_formula_sum "Si O2"
_cell_formula_units_Z 84
_cell_length_a 11.670459
_cell_length_b 22.070036
_cell_length_c 16.543691
_cell_angle_alpha 90.000000
_cell_angle_beta 90.000000
_cell_angle_gamma 90.000000
_cell_volume 4261.116309
_symmetry_space_group_name_H-M "I M M M"
_symmetry_group_IT_number 71
_symmetry_cell_setting 'orthorhombic'
loop_
_space_group_symop_operation_xyz
x,y,z
-x,-y,z
x,-y,-z
-x,y,-z
-x,-y,-z
x,y,-z
-x,y,z
x,-y,z
1/2+x,1/2+y,1/2+z
1/2-x,1/2-y,1/2+z
1/2+x,1/2-y,1/2-z
1/2-x,1/2+y,1/2-z
1/2-x,1/2-y,1/2-z
1/2+x,1/2+y,1/2-z
1/2-x,1/2+y,1/2+z
1/2+x,1/2-y,1/2+z
loop_
_atom_site_type_symbol
_atom_site_label
_atom_site_fract_x
_atom_site_fract_y
_atom_site_fract_z
Si Si1 0.500000 0.432578 0.260573
Si Si2 0.132314 0.318530 0.406157
Si Si3 0.247966 0.888399 0.774607
Si Si4 0.000000 0.885406 0.588628
Si Si5 0.718838 0.310880 0.128910
Si Si6 0.141571 0.500000 0.820744
Si Si7 0.120643 0.362925 0.000000
Si Si8 0.343828 0.000000 0.500000
O O1 0.500000 0.500000 0.292461
O O2 0.615446 0.402794 0.295371
O O3 0.500000 0.432804 0.162130
O O4 0.144455 0.334588 0.500000
O O5 0.182761 0.375348 0.356592
O O6 0.208971 0.260605 0.383618
O O7 0.000000 0.307484 0.382239
O O8 0.243570 0.826872 0.721904
O O9 0.314325 0.941623 0.727664
O O10 0.893335 0.841425 0.593338
O O11 0.000000 0.918405 0.500000
O O12 0.821617 0.340451 0.080812
O O13 0.210392 0.500000 0.908330
O O14 0.000000 0.500000 0.830557
O O15 0.094287 0.435198 0.000000
O O16 0.000000 0.329558 0.000000
#
# Coordination Sequence:
#
# PCOD8288037 Si02
#       8
#     8  16  16   8  16   8   8   4
#     4  10  22  41  59  88 126 169 202 245 312 383
#     4  11  23  43  69  93 119 160 212 266 318 366
#     4  11  24  41  63  93 128 162 209 258 312 374
#     4  10  18  33  60  91 123 163 206 249 294 355
#     4  11  21  39  61  90 129 166 204 252 307 368
#     4  12  23  39  64  92 125 169 216 263 310 372
#     4  12  23  35  57  92 129 170 212 251 301 372
#     4  12  25  40  60  87 134 183 214 250 311 378
#
# _framework density 19.713144
#
# number of rings (size 3 to 8) (size 9 to 14) (size 15 to 20)
#    0.000    0.952    5.714    2.000    0.000    0.952 
#    1.714    0.952    0.000    2.286    0.000    0.000 
#    0.000    0.000    0.000    0.000    0.000    0.000 
#
# Total GULP energy -520323.852643 kJ/mol
# GULP energy per Si atom -12388.663158 kJ/mol
# Density = 1.966828 g / cm^3
# Si number density = 19.713144 Si / 1000 Ang^3
#
#
#
# Elastic Constant Matrix: (Units=GPa)
#
#
# Indices 1 2 3 4 5 6 
#
# 1 126.8753 39.2739 47.6091 0.0000 0.0000 0.0000
# 2 39.2739 92.9840 57.4196 0.0000 0.0000 0.0002
# 3 47.6091 57.4196 111.1856 0.0001 0.0000 0.0003
# 4 0.0000 0.0000 0.0001 31.5117 0.0000 0.0002
# 5 0.0000 0.0000 0.0000 0.0000 17.3985 0.0000
# 6 0.0000 0.0002 0.0003 0.0002 0.0000 -86.8776
#
#
#
# Elastic Compliance Matrix: (Units=1/GPa)
#
#
# Indices 1 2 3 4 5 6 
#
# 1 0.009701 -0.002250 -0.002992 0.000000 0.000000 0.000000
# 2 -0.002250 0.016312 -0.007461 0.000000 0.000000 0.000000
# 3 -0.002992 -0.007461 0.014128 0.000000 0.000000 0.000000
# 4 0.000000 0.000000 0.000000 0.031734 0.000000 0.000000
# 5 0.000000 0.000000 0.000000 0.000000 0.057476 0.000000
# 6 0.000000 0.000000 0.000000 0.000000 0.000000 -0.011510
#
#
# Mechanical properties :
#
#
# Convention : Reuss Voigt Hill
#
# Bulk Modulus (GPa) = 67.86099 68.84999 68.35549
# Shear Modulus (GPa) = 33.74788 4.85601 19.30195
#
# Velocity S-wave (km/s) = 4.14206 1.57121 3.13252
# Velocity P-wave (km/s) = 7.57460 6.18816 6.91621
#
# Compressibility (1/GPa) = 0.01473601
#
# Stress axis : x y z
#
# Youngs Moduli (GPa) = 103.08320 61.30512 70.78129
#
# Poissons Ratio (x) = 0.13792 0.21178
# Poissons Ratio (y) = 0.23191 0.52807
# Poissons Ratio (z) = 0.30843 0.45737
#
# Static dielectric constant tensor:
#      x y z
#    x 3.700910 0.000000 0.000000 
#    y 0.000000 3.452950 0.000000 
#    z 0.000000 0.000000 3.572020 
# 
# 
# High freq. dielectric constant tensor:
#      x y z
#    x 1.775250 0.000000 0.000000 
#    y 0.000000 1.758590 0.000000 
#    z 0.000000 0.000000 1.757860 
# 
# From -- ./inp_files/32809.got.cif
#   From: 2010.06.25/outbox.cif.g09.slc.cpg/sg71_17_cif.got.tgz:32809.got - 2010.06.28 04:59:45.
