data_PCOD8288619
_publ_section_title
;
Structure prediction by ZEFSAII (Michael W. Deem and Ramdas Pophale) SiO2 
 PCOD8288619
Probable space group: I M M M
;
_chemical_formula_sum "Si O2"
_cell_formula_units_Z 104
_cell_length_a 8.886990
_cell_length_b 29.262599
_cell_length_c 22.543290
_cell_angle_alpha 90.000000
_cell_angle_beta 90.000000
_cell_angle_gamma 90.000000
_cell_volume 5862.527398
_symmetry_space_group_name_H-M "I M M M"
_symmetry_group_IT_number 71
_symmetry_cell_setting 'orthorhombic'
loop_
_space_group_symop_operation_xyz
x,y,z
-x,-y,z
x,-y,-z
-x,y,-z
-x,-y,-z
x,y,-z
-x,y,z
x,-y,z
1/2+x,1/2+y,1/2+z
1/2-x,1/2-y,1/2+z
1/2+x,1/2-y,1/2-z
1/2-x,1/2+y,1/2-z
1/2-x,1/2-y,1/2-z
1/2+x,1/2+y,1/2-z
1/2-x,1/2+y,1/2+z
1/2+x,1/2-y,1/2+z
loop_
_atom_site_type_symbol
_atom_site_label
_atom_site_fract_x
_atom_site_fract_y
_atom_site_fract_z
Si Si1 0.324746 0.446919 0.282425
Si Si2 0.172711 0.808744 0.930103
Si Si3 0.323957 0.382472 0.931237
Si Si4 0.822601 0.602245 0.609783
Si Si5 0.326311 0.947409 0.660245
Si Si6 0.666233 0.718976 0.070361
Si Si7 0.171394 0.945961 0.000000
O O1 0.500000 0.435747 0.290064
O O2 0.290715 0.500000 0.295109
O O3 0.229304 0.416685 0.327305
O O4 0.273433 0.433284 0.216647
O O5 0.272811 0.845260 0.895395
O O6 0.219446 0.758154 0.908005
O O7 0.000000 0.816551 0.913647
O O8 0.201919 0.814755 0.000000
O O9 0.500000 0.391836 0.920510
O O10 0.223628 0.418014 0.895726
O O11 0.281216 0.331311 0.908608
O O12 0.282837 0.388585 0.000000
O O13 0.750293 0.572076 0.558468
O O14 0.000000 0.598851 0.604116
O O15 0.500000 0.938073 0.675298
O O16 0.298504 0.000000 0.643488
O O17 0.500000 0.730005 0.095714
O O18 0.657894 0.717924 0.000000
O O19 0.000000 0.928184 0.000000
O O20 0.179398 0.000000 0.000000
#
# Coordination Sequence:
#
# PCOD8288619 Si02
#       7
#    16  16  16  16  16  16   8
#     4  10  21  38  58  76  98 134 178 220 262 313
#     4  10  19  31  49  73 104 138 175 217 261 312
#     4   9  18  33  54  81 111 143 176 212 257 311
#     4  12  23  34  52  76 104 137 174 219 268 316
#     4  10  21  36  54  78 108 140 176 218 259 306
#     4   8  15  29  49  73 103 136 172 213 257 307
#     4  11  23  37  51  71 103 139 175 219 270 319
#
# _framework density 17.739789999999999
#
# number of rings (size 3 to 8) (size 9 to 14) (size 15 to 20)
#    0.000    2.077    0.769    4.385    0.000    6.154 
#    0.000    3.077    0.000    0.923    0.000    0.000 
#    0.000    0.000    0.000    0.000    0.000    0.000 
#
# Total GULP energy -644882.222291 kJ/mol
# GULP energy per Si atom -12401.581198 kJ/mol
# Density = 1.769941 g / cm^3
# Si number density = 17.739790 Si / 1000 Ang^3
#
#
#
# Elastic Constant Matrix: (Units=GPa)
#
#
# Indices 1 2 3 4 5 6 
#
# 1 115.0281 58.4925 40.3390 -0.0004 0.0000 0.0000
# 2 58.4925 103.7771 48.5690 -0.0006 0.0000 0.0000
# 3 40.3390 48.5690 65.8961 -0.0035 0.0001 0.0000
# 4 -0.0004 -0.0006 -0.0035 -86.4889 -0.0003 0.0000
# 5 0.0000 0.0000 0.0001 -0.0003 17.6975 0.0000
# 6 0.0000 0.0000 0.0000 0.0000 0.0000 33.3082
#
#
#
# Elastic Compliance Matrix: (Units=1/GPa)
#
#
# Indices 1 2 3 4 5 6 
#
# 1 0.012793 -0.005413 -0.003842 0.000000 0.000000 0.000000
# 2 -0.005413 0.017000 -0.009217 0.000000 0.000000 0.000000
# 3 -0.003842 -0.009217 0.024321 -0.000001 0.000000 0.000000
# 4 0.000000 0.000000 -0.000001 -0.011562 0.000000 0.000000
# 5 0.000000 0.000000 0.000000 0.000000 0.056505 0.000000
# 6 0.000000 0.000000 0.000000 0.000000 0.000000 0.030023
#
#
# Mechanical properties :
#
#
# Convention : Reuss Voigt Hill
#
# Bulk Modulus (GPa) = 58.23696 64.38914 61.31305
# Shear Modulus (GPa) = 29.11264 2.05675 15.58470
#
# Velocity S-wave (km/s) = 4.05544 1.07792 2.96719
# Velocity P-wave (km/s) = 7.40462 6.15828 6.81003
#
# Compressibility (1/GPa) = 0.01717122
#
# Stress axis : x y z
#
# Youngs Moduli (GPa) = 78.16626 58.82234 41.11714
#
# Poissons Ratio (x) = 0.31838 0.15798
# Poissons Ratio (y) = 0.42308 0.37897
# Poissons Ratio (z) = 0.30033 0.54216
#
# Static dielectric constant tensor:
#      x y z
#    x 3.381980 0.000000 0.000000 
#    y 0.000000 3.460990 0.000000 
#    z 0.000000 0.000000 2.978960 
# 
# 
# High freq. dielectric constant tensor:
#      x y z
#    x 1.696740 0.000000 0.000000 
#    y 0.000000 1.693410 0.000000 
#    z 0.000000 0.000000 1.655620 
# 
# From -- ./inp_files/51200.got.cif
#   From: 2010.06.25/outbox.cif.g09.slc.cpg/sg71_26_cif.got.tgz:51200.got - 2010.06.28 04:59:45.
