data_PCOD8288075
_publ_section_title
;
Structure prediction by ZEFSAII (Michael W. Deem and Ramdas Pophale) SiO2 
 PCOD8288075
Probable space group: I M M M
;
_chemical_formula_sum "Si O2"
_cell_formula_units_Z 88
_cell_length_a 15.204541
_cell_length_b 20.546711
_cell_length_c 14.791821
_cell_angle_alpha 90.000000
_cell_angle_beta 90.000000
_cell_angle_gamma 90.000000
_cell_volume 4621.013839
_symmetry_space_group_name_H-M "I M M M"
_symmetry_group_IT_number 71
_symmetry_cell_setting 'orthorhombic'
loop_
_space_group_symop_operation_xyz
x,y,z
-x,-y,z
x,-y,-z
-x,y,-z
-x,-y,-z
x,y,-z
-x,y,z
x,-y,z
1/2+x,1/2+y,1/2+z
1/2-x,1/2-y,1/2+z
1/2+x,1/2-y,1/2-z
1/2-x,1/2+y,1/2-z
1/2-x,1/2-y,1/2-z
1/2+x,1/2+y,1/2-z
1/2-x,1/2+y,1/2+z
1/2+x,1/2-y,1/2+z
loop_
_atom_site_type_symbol
_atom_site_label
_atom_site_fract_x
_atom_site_fract_y
_atom_site_fract_z
Si Si1 0.224910 0.893136 0.344629
Si Si2 0.654095 0.069717 0.500000
Si Si3 0.000000 0.574936 0.393094
Si Si4 0.102497 0.000000 0.277709
Si Si5 0.746279 0.245176 0.641721
Si Si6 0.399142 0.786678 0.500000
Si Si7 0.702720 0.500000 0.402916
Si Si8 0.686591 0.119700 0.153508
O O1 0.283308 0.933072 0.413445
O O2 0.137893 0.934338 0.323967
O O3 0.200158 0.821106 0.383848
O O4 0.284409 0.882210 0.256875
O O5 0.594258 0.134237 0.500000
O O6 0.601239 0.000000 0.500000
O O7 0.082794 0.610733 0.349831
O O8 0.000000 0.500000 0.363540
O O9 0.000000 0.582724 0.500000
O O10 0.127925 0.000000 0.172530
O O11 0.000000 0.000000 0.289642
O O12 0.750000 0.250000 0.750000
O O13 0.650633 0.238318 0.591562
O O14 0.790724 0.311201 0.605480
O O15 0.500000 0.760359 0.500000
O O16 0.654385 0.500000 0.500000
O O17 0.765090 0.562652 0.400038
#
# Coordination Sequence:
#
# PCOD8288075 Si02
#       8
#    16   8   8   8  16   8   8  16
#     4   9  19  38  59  82 112 155 192 231 299 344
#     4  10  18  35  64  84 115 155 188 237 300 352
#     4  11  22  34  54  89 115 144 198 239 278 340
#     4  10  20  36  59  83 113 149 198 244 279 339
#     4   9  20  40  61  82 117 161 193 235 309 356
#     4  10  22  39  64  94 120 151 208 251 284 361
#     4  10  20  34  59  81 114 152 185 227 300 353
#     4  10  20  37  59  81 113 156 187 234 291 357
#
# _framework density 19.043441000000001
#
# number of rings (size 3 to 8) (size 9 to 14) (size 15 to 20)
#    0.000    2.273    1.818    0.545    2.545    0.364 
#   16.364    8.182    0.000    0.000    0.000    0.000 
#    0.000    0.000    0.000    0.000    0.000    0.000 
#
# Total GULP energy -545124.739241 kJ/mol
# GULP energy per Si atom -12389.198619 kJ/mol
# Density = 1.900010 g / cm^3
# Si number density = 19.043441 Si / 1000 Ang^3
#
#
#
# Elastic Constant Matrix: (Units=GPa)
#
#
# Indices 1 2 3 4 5 6 
#
# 1 141.6401 62.7549 32.1724 0.0000 0.0000 0.0000
# 2 62.7549 174.6073 20.3612 -0.0001 0.0000 0.0000
# 3 32.1724 20.3612 78.3405 -0.0004 0.0000 0.0000
# 4 0.0000 -0.0001 -0.0004 11.1530 0.0000 0.0000
# 5 0.0000 0.0000 0.0000 0.0000 12.6615 0.0000
# 6 0.0000 0.0000 0.0000 0.0000 0.0000 11.1483
#
#
#
# Elastic Compliance Matrix: (Units=1/GPa)
#
#
# Indices 1 2 3 4 5 6 
#
# 1 0.009013 -0.002895 -0.002949 0.000000 0.000000 0.000000
# 2 -0.002895 0.006836 -0.000588 0.000000 0.000000 0.000000
# 3 -0.002949 -0.000588 0.014129 0.000001 0.000000 0.000000
# 4 0.000000 0.000000 0.000001 0.089662 0.000000 0.000000
# 5 0.000000 0.000000 0.000000 0.000000 0.078980 0.000000
# 6 0.000000 0.000000 0.000000 0.000000 0.000000 0.089700
#
#
# Mechanical properties :
#
#
# Convention : Reuss Voigt Hill
#
# Bulk Modulus (GPa) = 58.43243 69.46279 63.94761
# Shear Modulus (GPa) = 16.29259 25.61250 20.95254
#
# Velocity S-wave (km/s) = 2.92815 3.67134 3.32060
# Velocity P-wave (km/s) = 6.49480 7.38422 6.95375
#
# Compressibility (1/GPa) = 0.01711378
#
# Stress axis : x y z
#
# Youngs Moduli (GPa) = 110.95381 146.27820 70.77877
#
# Poissons Ratio (x) = 0.42353 0.20871
# Poissons Ratio (y) = 0.32125 0.04160
# Poissons Ratio (z) = 0.32718 0.08597
#
# Static dielectric constant tensor:
#      x y z
#    x 3.083190 0.000000 0.000000 
#    y 0.000000 4.326510 0.000000 
#    z 0.000000 0.000000 3.782080 
# 
# 
# High freq. dielectric constant tensor:
#      x y z
#    x 1.695870 0.000000 0.000000 
#    y 0.000000 1.766000 0.000000 
#    z 0.000000 0.000000 1.749350 
# 
# From -- ./inp_files/34465.got.cif
#   From: 2010.06.25/outbox.cif.g09.slc.cpg/sg71_18_cif.got.tgz:34465.got - 2010.06.28 04:59:45.
