data_PCOD8288432
_publ_section_title
;
Structure prediction by ZEFSAII (Michael W. Deem and Ramdas Pophale) SiO2 
 PCOD8288432
Probable space group: I M M M
;
_chemical_formula_sum "Si O2"
_cell_formula_units_Z 96
_cell_length_a 22.285399
_cell_length_b 12.377903
_cell_length_c 19.720594
_cell_angle_alpha 90.000000
_cell_angle_beta 90.000000
_cell_angle_gamma 90.000000
_cell_volume 5439.856974
_symmetry_space_group_name_H-M "I M M M"
_symmetry_group_IT_number 71
_symmetry_cell_setting 'orthorhombic'
loop_
_space_group_symop_operation_xyz
x,y,z
-x,-y,z
x,-y,-z
-x,y,-z
-x,-y,-z
x,y,-z
-x,y,z
x,-y,z
1/2+x,1/2+y,1/2+z
1/2-x,1/2-y,1/2+z
1/2+x,1/2-y,1/2-z
1/2-x,1/2+y,1/2-z
1/2-x,1/2-y,1/2-z
1/2+x,1/2+y,1/2-z
1/2-x,1/2+y,1/2+z
1/2+x,1/2-y,1/2+z
loop_
_atom_site_type_symbol
_atom_site_label
_atom_site_fract_x
_atom_site_fract_y
_atom_site_fract_z
Si Si1 0.140739 0.375165 0.421104
Si Si2 0.677257 0.625915 0.239422
Si Si3 0.837266 0.623645 0.924036
Si Si4 0.064920 0.373580 0.820923
Si Si5 0.069861 0.253047 0.688834
Si Si6 0.746238 0.724036 0.643391
O O1 0.140195 0.342388 0.500000
O O2 0.122418 0.500000 0.411733
O O3 0.092803 0.298161 0.383255
O O4 0.206782 0.358795 0.389636
O O5 0.688159 0.500000 0.228605
O O6 0.608586 0.652200 0.217404
O O7 0.694115 0.657906 0.316906
O O8 0.722136 0.691795 0.192710
O O9 0.819561 0.500000 0.905696
O O10 0.886917 0.672381 0.873290
O O11 0.780751 0.702604 0.916738
O O12 0.862574 0.629828 0.000000
O O13 0.062204 0.500000 0.829871
O O14 0.081331 0.347956 0.743341
O O15 0.000000 0.322006 0.838512
O O16 0.000000 0.219156 0.682273
#
# Coordination Sequence:
#
# PCOD8288432 Si02
#       6
#    16  16  16  16  16  16
#     4  10  21  35  53  79 109 140 174 213 259 313
#     4  10  20  33  53  78 101 131 172 217 261 304
#     4  10  19  30  48  74 103 136 170 206 253 309
#     4   9  17  30  48  71  99 131 169 211 255 303
#     4  10  20  35  54  76 102 135 173 214 262 309
#     4  10  19  34  51  75 105 139 168 212 259 310
#
# _framework density 17.647523
#
# number of rings (size 3 to 8) (size 9 to 14) (size 15 to 20)
#    0.000    2.167    1.667    2.000    0.000    2.000 
#    0.000    2.500    0.000    4.500    0.000    4.667 
#    0.000    2.667    0.000    0.000    0.000    0.000 
#
# Total GULP energy -594985.345286 kJ/mol
# GULP energy per Si atom -12395.528027 kJ/mol
# Density = 1.760736 g / cm^3
# Si number density = 17.647523 Si / 1000 Ang^3
#
#
#
# Elastic Constant Matrix: (Units=GPa)
#
#
# Indices 1 2 3 4 5 6 
#
# 1 87.1842 31.6058 40.4316 0.0000 0.0000 0.0000
# 2 31.6058 53.8105 18.9381 0.0000 0.0000 0.0000
# 3 40.4316 18.9381 95.3502 0.0000 0.0000 0.0000
# 4 0.0000 0.0000 0.0000 23.5386 0.0000 0.0000
# 5 0.0000 0.0000 0.0000 0.0000 17.2558 0.0000
# 6 0.0000 0.0000 0.0000 0.0000 0.0000 18.1429
#
#
#
# Elastic Compliance Matrix: (Units=1/GPa)
#
#
# Indices 1 2 3 4 5 6 
#
# 1 0.016968 -0.007993 -0.005607 0.000000 0.000000 0.000000
# 2 -0.007993 0.023745 -0.001327 0.000000 0.000000 0.000000
# 3 -0.005607 -0.001327 0.013129 0.000000 0.000000 0.000000
# 4 0.000000 0.000000 0.000000 0.042483 0.000000 0.000000
# 5 0.000000 0.000000 0.000000 0.000000 0.057952 0.000000
# 6 0.000000 0.000000 0.000000 0.000000 0.000000 0.055118
#
#
# Mechanical properties :
#
#
# Convention : Reuss Voigt Hill
#
# Bulk Modulus (GPa) = 41.68786 46.47735 44.08260
# Shear Modulus (GPa) = 20.22280 21.47874 20.85077
#
# Velocity S-wave (km/s) = 3.38883 3.49248 3.44104
# Velocity P-wave (km/s) = 6.24388 6.53122 6.38916
#
# Compressibility (1/GPa) = 0.02398780
#
# Stress axis : x y z
#
# Youngs Moduli (GPa) = 58.93476 42.11354 76.16737
#
# Poissons Ratio (x) = 0.33660 0.42711
# Poissons Ratio (y) = 0.47105 0.10108
# Poissons Ratio (z) = 0.33048 0.05589
#
# Static dielectric constant tensor:
#      x y z
#    x 3.491230 0.000000 0.000000 
#    y 0.000000 3.052850 0.000000 
#    z 0.000000 0.000000 3.282940 
# 
# 
# High freq. dielectric constant tensor:
#      x y z
#    x 1.682340 0.000000 0.000000 
#    y 0.000000 1.661530 0.000000 
#    z 0.000000 0.000000 1.683710 
# 
# From -- ./inp_files/24196.got.cif
#   From: 2010.06.25/outbox.cif.g09.slc.cpg/sg71_13_cif.got.tgz:24196.got - 2010.06.28 04:59:45.
