data_PCOD8288957
_publ_section_title
;
Structure prediction by ZEFSAII (Michael W. Deem and Ramdas Pophale) SiO2 
 PCOD8288957
Probable space group: I M M M
;
_chemical_formula_sum "Si O2"
_cell_formula_units_Z 104
_cell_length_a 9.206876
_cell_length_b 21.095893
_cell_length_c 28.272454
_cell_angle_alpha 90.000000
_cell_angle_beta 90.000000
_cell_angle_gamma 90.000000
_cell_volume 5491.281584
_symmetry_space_group_name_H-M "I M M M"
_symmetry_group_IT_number 71
_symmetry_cell_setting 'orthorhombic'
loop_
_space_group_symop_operation_xyz
x,y,z
-x,-y,z
x,-y,-z
-x,y,-z
-x,-y,-z
x,y,-z
-x,y,z
x,-y,z
1/2+x,1/2+y,1/2+z
1/2-x,1/2-y,1/2+z
1/2+x,1/2-y,1/2-z
1/2-x,1/2+y,1/2-z
1/2-x,1/2-y,1/2-z
1/2+x,1/2+y,1/2-z
1/2-x,1/2+y,1/2+z
1/2+x,1/2-y,1/2+z
loop_
_atom_site_type_symbol
_atom_site_label
_atom_site_fract_x
_atom_site_fract_y
_atom_site_fract_z
Si Si1 0.332987 0.429527 0.634277
Si Si2 0.329493 0.869872 0.945889
Si Si3 0.670724 0.122109 0.612257
Si Si4 0.329723 0.688098 0.191298
Si Si5 0.672561 0.000000 0.445997
Si Si6 0.335660 0.754222 0.554812
Si Si7 0.668904 0.314680 0.300631
O O1 0.500000 0.418310 0.620781
O O2 0.308696 0.500000 0.655229
O O3 0.239667 0.424121 0.586435
O O4 0.281374 0.378588 0.673008
O O5 0.500000 0.869334 0.939085
O O6 0.267789 0.802389 0.928609
O O7 0.284837 0.883459 0.000000
O O8 0.500000 0.116474 0.623089
O O9 0.757276 0.130862 0.661446
O O10 0.711194 0.182552 0.581044
O O11 0.727213 0.061140 0.583254
O O12 0.500000 0.691221 0.180470
O O13 0.296026 0.673470 0.245844
O O14 0.258104 0.755710 0.177951
O O15 0.500000 0.000000 0.449288
O O16 0.735067 0.000000 0.500000
O O17 0.317386 0.769257 0.500000
O O18 0.500000 0.734360 0.567427
O O19 0.500000 0.299145 0.308501
#
# Coordination Sequence:
#
# PCOD8288957 Si02
#       7
#    16  16  16  16   8  16  16
#     4  10  21  37  56  76  99 132 175 215 251 295
#     4  10  21  35  51  75 107 138 167 205 255 309
#     4  10  19  32  52  78 106 138 177 223 268 313
#     4  10  20  34  55  82 108 136 170 213 267 321
#     4   9  18  34  55  77 105 145 191 231 268 317
#     4   9  17  30  50  75 101 132 173 218 260 301
#     4   9  19  37  57  79 105 136 173 216 263 311
#
# _framework density 18.939112000000002
#
# number of rings (size 3 to 8) (size 9 to 14) (size 15 to 20)
#    0.000    2.385    0.000    2.308    0.000    8.923 
#    1.385    1.923    0.000    1.846    0.000    0.000 
#    0.000    0.000    0.000    0.000    0.000    0.000 
#
# Total GULP energy -644883.862454 kJ/mol
# GULP energy per Si atom -12401.612740 kJ/mol
# Density = 1.889601 g / cm^3
# Si number density = 18.939112 Si / 1000 Ang^3
#
#
#
# Elastic Constant Matrix: (Units=GPa)
#
#
# Indices 1 2 3 4 5 6 
#
# 1 57.5883 41.7738 41.5098 0.0000 0.0000 0.0000
# 2 41.7738 122.9241 70.3333 0.0000 0.0000 0.0000
# 3 41.5098 70.3333 96.3841 0.0000 0.0000 0.0000
# 4 0.0000 0.0000 0.0000 32.3780 0.0000 0.0000
# 5 0.0000 0.0000 0.0000 0.0000 29.4837 0.0000
# 6 0.0000 0.0000 0.0000 0.0000 0.0000 13.4004
#
#
#
# Elastic Compliance Matrix: (Units=1/GPa)
#
#
# Indices 1 2 3 4 5 6 
#
# 1 0.026406 -0.004235 -0.008282 0.000000 0.000000 0.000000
# 2 -0.004235 0.014646 -0.008863 0.000000 0.000000 0.000000
# 3 -0.008282 -0.008863 0.020410 0.000000 0.000000 0.000000
# 4 0.000000 0.000000 0.000000 0.030885 0.000000 0.000000
# 5 0.000000 0.000000 0.000000 0.000000 0.033917 0.000000
# 6 0.000000 0.000000 0.000000 0.000000 0.000000 0.074625
#
#
# Mechanical properties :
#
#
# Convention : Reuss Voigt Hill
#
# Bulk Modulus (GPa) = 53.47323 64.90337 59.18830
# Shear Modulus (GPa) = 20.00934 23.27104 21.64019
#
# Velocity S-wave (km/s) = 3.25392 3.50913 3.38393
# Velocity P-wave (km/s) = 6.51252 7.12478 6.82552
#
# Compressibility (1/GPa) = 0.01870094
#
# Stress axis : x y z
#
# Youngs Moduli (GPa) = 37.86952 68.27986 48.99631
#
# Poissons Ratio (x) = 0.28917 0.40579
# Poissons Ratio (y) = 0.16038 0.43427
# Poissons Ratio (z) = 0.31364 0.60518
#
# Static dielectric constant tensor:
#      x y z
#    x 3.330800 0.000000 0.000000 
#    y 0.000000 3.488250 0.000000 
#    z 0.000000 0.000000 3.625680 
# 
# 
# High freq. dielectric constant tensor:
#      x y z
#    x 1.719960 0.000000 0.000000 
#    y 0.000000 1.729680 0.000000 
#    z 0.000000 0.000000 1.744020 
# 
# From -- ./inp_files/16998.got.cif
#   From: 2010.06.25/outbox.cif.g09.slc.cpg/sg71_9_cif.got.tgz:16998.got - 2010.06.28 04:59:45.
