data_PCOD8288380
_publ_section_title
;
Structure prediction by ZEFSAII (Michael W. Deem and Ramdas Pophale) SiO2 
 PCOD8288380
Probable space group: I M M M
;
_chemical_formula_sum "Si O2"
_cell_formula_units_Z 96
_cell_length_a 23.945817
_cell_length_b 17.910712
_cell_length_c 13.635677
_cell_angle_alpha 90.000000
_cell_angle_beta 90.000000
_cell_angle_gamma 90.000000
_cell_volume 5848.159582
_symmetry_space_group_name_H-M "I M M M"
_symmetry_group_IT_number 71
_symmetry_cell_setting 'orthorhombic'
loop_
_space_group_symop_operation_xyz
x,y,z
-x,-y,z
x,-y,-z
-x,y,-z
-x,-y,-z
x,y,-z
-x,y,z
x,-y,z
1/2+x,1/2+y,1/2+z
1/2-x,1/2-y,1/2+z
1/2+x,1/2-y,1/2-z
1/2-x,1/2+y,1/2-z
1/2-x,1/2-y,1/2-z
1/2+x,1/2+y,1/2-z
1/2-x,1/2+y,1/2+z
1/2+x,1/2-y,1/2+z
loop_
_atom_site_type_symbol
_atom_site_label
_atom_site_fract_x
_atom_site_fract_y
_atom_site_fract_z
Si Si1 0.881439 0.088063 0.393228
Si Si2 0.230469 0.912435 0.288533
Si Si3 0.438519 0.916373 0.383721
Si Si4 0.668536 0.828758 0.615025
Si Si5 0.937127 0.911631 0.199164
Si Si6 0.668968 0.344889 0.388376
O O1 0.895118 0.123987 0.500000
O O2 0.818906 0.110759 0.362506
O O3 0.924884 0.115963 0.310679
O O4 0.885839 0.000000 0.401516
O O5 0.285204 0.869150 0.320435
O O6 0.212274 0.890095 0.178706
O O7 0.242903 0.000000 0.291668
O O8 0.439717 0.916614 0.500000
O O9 0.500000 0.891629 0.344451
O O10 0.391339 0.859046 0.347091
O O11 0.424537 0.000000 0.345851
O O12 0.677678 0.846274 0.500000
O O13 0.671499 0.741838 0.638482
O O14 0.894730 0.872392 0.124886
O O15 0.000000 0.888950 0.170377
O O16 0.927692 0.000000 0.191520
O O17 0.686942 0.359169 0.500000
#
# Coordination Sequence:
#
# PCOD8288380 Si02
#       6
#    16  16  16  16  16  16
#     4   8  14  25  42  65  91 115 140 179 230 272
#     4  10  19  31  48  68  91 119 154 192 227 274
#     4   8  14  25  41  63  92 121 146 175 214 264
#     4  10  19  30  47  70  94 120 149 183 229 284
#     4   9  18  31  46  65  88 118 159 198 228 267
#     4  10  21  34  46  63  91 124 154 191 237 277
#
# _framework density 16.415420000000001
#
# number of rings (size 3 to 8) (size 9 to 14) (size 15 to 20)
#    0.000    2.833    0.000    3.500    0.000    4.333 
#    0.000    4.167    0.000    0.000    0.000    0.000 
#    0.000    0.667    0.000    3.500    0.000    0.167 
#
# Total GULP energy -594984.880799 kJ/mol
# GULP energy per Si atom -12395.518350 kJ/mol
# Density = 1.637806 g / cm^3
# Si number density = 16.415420 Si / 1000 Ang^3
#
#
#
# Elastic Constant Matrix: (Units=GPa)
#
#
# Indices 1 2 3 4 5 6 
#
# 1 101.7132 39.3893 23.2715 0.0000 0.0000 0.0000
# 2 39.3893 57.6277 24.9021 0.0000 0.0000 0.0000
# 3 23.2715 24.9021 56.0269 0.0000 0.0000 0.0000
# 4 0.0000 0.0000 0.0000 15.2248 0.0000 0.0000
# 5 0.0000 0.0000 0.0000 0.0000 28.7295 0.0000
# 6 0.0000 0.0000 0.0000 0.0000 0.0000 20.8158
#
#
#
# Elastic Compliance Matrix: (Units=1/GPa)
#
#
# Indices 1 2 3 4 5 6 
#
# 1 0.013527 -0.008439 -0.001868 0.000000 0.000000 0.000000
# 2 -0.008439 0.026742 -0.008381 0.000000 0.000000 0.000000
# 3 -0.001868 -0.008381 0.022349 0.000000 0.000000 0.000000
# 4 0.000000 0.000000 0.000000 0.065682 0.000000 0.000000
# 5 0.000000 0.000000 0.000000 0.000000 0.034807 0.000000
# 6 0.000000 0.000000 0.000000 0.000000 0.000000 0.048041
#
#
# Mechanical properties :
#
#
# Convention : Reuss Voigt Hill
#
# Bulk Modulus (GPa) = 39.61386 43.38817 41.50102
# Shear Modulus (GPa) = 19.45994 21.47435 20.46714
#
# Velocity S-wave (km/s) = 3.44680 3.62080 3.53487
# Velocity P-wave (km/s) = 6.32653 6.63091 6.48051
#
# Compressibility (1/GPa) = 0.02524369
#
# Stress axis : x y z
#
# Youngs Moduli (GPa) = 73.92705 37.39400 44.74376
#
# Poissons Ratio (x) = 0.31555 0.08358
# Poissons Ratio (y) = 0.62384 0.37500
# Poissons Ratio (z) = 0.13809 0.31340
#
# Static dielectric constant tensor:
#      x y z
#    x 3.227650 0.000000 0.000000 
#    y 0.000000 2.988790 0.000000 
#    z 0.000000 0.000000 3.055000 
# 
# 
# High freq. dielectric constant tensor:
#      x y z
#    x 1.634390 0.000000 0.000000 
#    y 0.000000 1.615050 0.000000 
#    z 0.000000 0.000000 1.608930 
# 
# From -- ./inp_files/27561.got.cif
#   From: 2010.06.25/outbox.cif.g09.slc.cpg/sg71_14_cif.got.tgz:27561.got - 2010.06.28 04:59:45.
