data_PCOD8288086
_publ_section_title
;
Structure prediction by ZEFSAII (Michael W. Deem and Ramdas Pophale) SiO2 
 PCOD8288086
Probable space group: I M M M
;
_chemical_formula_sum "Si O2"
_cell_formula_units_Z 96
_cell_length_a 8.582086
_cell_length_b 24.188820
_cell_length_c 24.075273
_cell_angle_alpha 90.000000
_cell_angle_beta 90.000000
_cell_angle_gamma 90.000000
_cell_volume 4997.798766
_symmetry_space_group_name_H-M "I M M M"
_symmetry_group_IT_number 71
_symmetry_cell_setting 'orthorhombic'
loop_
_space_group_symop_operation_xyz
x,y,z
-x,-y,z
x,-y,-z
-x,y,-z
-x,-y,-z
x,y,-z
-x,y,z
x,-y,z
1/2+x,1/2+y,1/2+z
1/2-x,1/2-y,1/2+z
1/2+x,1/2-y,1/2-z
1/2-x,1/2+y,1/2-z
1/2-x,1/2-y,1/2-z
1/2+x,1/2+y,1/2-z
1/2-x,1/2+y,1/2+z
1/2+x,1/2-y,1/2+z
loop_
_atom_site_type_symbol
_atom_site_label
_atom_site_fract_x
_atom_site_fract_y
_atom_site_fract_z
Si Si1 0.320438 0.000000 0.157854
Si Si2 0.678896 0.773170 0.500000
Si Si3 0.180093 0.618859 0.208495
Si Si4 0.826489 0.099518 0.900685
Si Si5 0.170778 0.811549 0.807304
Si Si6 0.820574 0.341542 0.500000
Si Si7 0.179261 0.000000 0.274432
Si Si8 0.817161 0.709140 0.122550
O O1 0.282766 0.052050 0.121432
O O2 0.203256 0.000000 0.209130
O O3 0.500000 0.000000 0.177779
O O4 0.500000 0.791343 0.500000
O O5 0.697470 0.707871 0.500000
O O6 0.754703 0.793517 0.559313
O O7 0.234235 0.659622 0.257835
O O8 0.253253 0.557860 0.202412
O O9 0.214417 0.649771 0.150355
O O10 0.000000 0.608910 0.219187
O O11 0.853199 0.144442 0.854526
O O12 0.715315 0.121794 0.947649
O O13 0.000000 0.079979 0.920931
O O14 0.252564 0.757493 0.836433
O O15 0.000000 0.794765 0.783480
O O16 0.000000 0.321182 0.500000
O O17 0.000000 0.000000 0.289941
O O18 0.000000 0.722838 0.116960
#
# Coordination Sequence:
#
# PCOD8288086 Si02
#       8
#     8   8  16  16  16   8   8  16
#     4  12  24  39  59  84 113 145 191 249 295 327
#     4  10  18  38  63  82 113 156 193 229 283 351
#     4  11  22  36  57  88 119 147 187 241 290 331
#     4  11  22  38  60  81 110 153 201 237 281 344
#     4  10  19  34  57  85 116 153 190 226 279 347
#     4  12  24  37  55  84 117 151 199 247 287 323
#     4  12  24  40  59  80 111 156 195 225 281 355
#     4   9  19  35  59  88 116 150 191 233 282 340
#
# _framework density 19.208456999999999
#
# number of rings (size 3 to 8) (size 9 to 14) (size 15 to 20)
#    0.000    1.333    3.333    3.750    0.000    1.000 
#    0.000    4.167    0.000    0.500    0.000    3.500 
#    0.000    0.000    0.000    0.000    0.000    0.000 
#
# Total GULP energy -594657.111363 kJ/mol
# GULP energy per Si atom -12388.689820 kJ/mol
# Density = 1.916474 g / cm^3
# Si number density = 19.208457 Si / 1000 Ang^3
#
#
#
# Elastic Constant Matrix: (Units=GPa)
#
#
# Indices 1 2 3 4 5 6 
#
# 1 81.4769 31.1083 30.4721 0.0000 0.0000 0.0000
# 2 31.1083 141.6333 56.0757 0.0000 0.0000 0.0000
# 3 30.4721 56.0757 129.4048 0.0000 0.0000 0.0000
# 4 0.0000 0.0000 0.0000 35.5325 0.0000 0.0000
# 5 0.0000 0.0000 0.0000 0.0000 20.0840 0.0000
# 6 0.0000 0.0000 0.0000 0.0000 0.0000 25.7438
#
#
#
# Elastic Compliance Matrix: (Units=1/GPa)
#
#
# Indices 1 2 3 4 5 6 
#
# 1 0.013972 -0.002132 -0.002366 0.000000 0.000000 0.000000
# 2 -0.002132 0.008848 -0.003332 0.000000 0.000000 0.000000
# 3 -0.002366 -0.003332 0.009729 0.000000 0.000000 0.000000
# 4 0.000000 0.000000 0.000000 0.028143 0.000000 0.000000
# 5 0.000000 0.000000 0.000000 0.000000 0.049791 0.000000
# 6 0.000000 0.000000 0.000000 0.000000 0.000000 0.038844
#
#
# Mechanical properties :
#
#
# Convention : Reuss Voigt Hill
#
# Bulk Modulus (GPa) = 59.21243 65.31415 62.26329
# Shear Modulus (GPa) = 29.30522 31.92931 30.61727
#
# Velocity S-wave (km/s) = 3.91018 4.08150 3.99676
# Velocity P-wave (km/s) = 7.16095 7.50254 7.33373
#
# Compressibility (1/GPa) = 0.01688835
#
# Stress axis : x y z
#
# Youngs Moduli (GPa) = 71.56947 113.01965 102.78724
#
# Poissons Ratio (x) = 0.24096 0.24323
# Poissons Ratio (y) = 0.15259 0.34250
# Poissons Ratio (z) = 0.16936 0.37659
#
# Static dielectric constant tensor:
#      x y z
#    x 3.900090 0.000000 0.000000 
#    y 0.000000 3.609020 0.000000 
#    z 0.000000 0.000000 3.654660 
# 
# 
# High freq. dielectric constant tensor:
#      x y z
#    x 1.734070 0.000000 0.000000 
#    y 0.000000 1.744890 0.000000 
#    z 0.000000 0.000000 1.743200 
# 
# From -- ./inp_files/57812.got.cif
#   From: 2010.06.25/outbox.cif.g09.slc.cpg/sg71_29_cif.got.tgz:57812.got - 2010.06.28 04:59:45.
