data_PCOD8288046
_publ_section_title
;
Structure prediction by ZEFSAII (Michael W. Deem and Ramdas Pophale) SiO2 
 PCOD8288046
Probable space group: I M M M
;
_chemical_formula_sum "Si O2"
_cell_formula_units_Z 104
_cell_length_a 18.464859
_cell_length_b 18.414671
_cell_length_c 17.910554
_cell_angle_alpha 90.000000
_cell_angle_beta 90.000000
_cell_angle_gamma 90.000000
_cell_volume 6090.023650
_symmetry_space_group_name_H-M "I M M M"
_symmetry_group_IT_number 71
_symmetry_cell_setting 'orthorhombic'
loop_
_space_group_symop_operation_xyz
x,y,z
-x,-y,z
x,-y,-z
-x,y,-z
-x,-y,-z
x,y,-z
-x,y,z
x,-y,z
1/2+x,1/2+y,1/2+z
1/2-x,1/2-y,1/2+z
1/2+x,1/2-y,1/2-z
1/2-x,1/2+y,1/2-z
1/2-x,1/2-y,1/2-z
1/2+x,1/2+y,1/2-z
1/2-x,1/2+y,1/2+z
1/2+x,1/2-y,1/2+z
loop_
_atom_site_type_symbol
_atom_site_label
_atom_site_fract_x
_atom_site_fract_y
_atom_site_fract_z
Si Si1 0.787789 0.220277 0.000000
Si Si2 0.417848 0.419818 0.728180
Si Si3 0.583870 0.083657 0.855748
Si Si4 0.635513 0.169129 0.000000
Si Si5 0.672675 0.702555 0.337990
Si Si6 0.327740 0.327665 0.000000
Si Si7 0.192137 0.342699 0.751953
Si Si8 0.306191 0.418807 0.142769
O O1 0.723057 0.159672 0.000000
O O2 0.835545 0.214734 0.926024
O O3 0.755148 0.301102 0.000000
O O4 0.500000 0.398540 0.745699
O O5 0.412390 0.500000 0.690963
O O6 0.384170 0.361310 0.673263
O O7 0.375231 0.419696 0.804858
O O8 0.500000 0.093803 0.834456
O O9 0.601483 0.132892 0.927033
O O10 0.630911 0.106219 0.783537
O O11 0.601253 0.000000 0.875443
O O12 0.618942 0.256660 0.000000
O O13 0.754819 0.681097 0.315589
O O14 0.652301 0.773308 0.288980
O O15 0.337597 0.375257 0.073183
O O16 0.237312 0.382634 0.816775
O O17 0.283168 0.500000 0.118924
#
# Coordination Sequence:
#
# PCOD8288046 Si02
#       8
#     8  16  16   8  16   8  16  16
#     4  10  18  35  52  77 109 135 170 220 268 302
#     4   9  20  37  54  77 108 141 177 221 271 317
#     4  11  23  37  53  77 111 145 179 219 262 317
#     4  10  20  36  52  73 109 151 171 216 264 306
#     4  10  19  33  57  77 104 139 176 226 260 316
#     4  10  19  34  53  80 112 140 177 219 257 314
#     4  10  18  34  54  81 104 135 183 218 266 310
#     4  10  19  33  57  81 109 142 174 218 268 317
#
# _framework density 17.077110000000001
#
# number of rings (size 3 to 8) (size 9 to 14) (size 15 to 20)
#    0.462    1.538    3.077    1.154    4.308    1.846 
#    0.000    1.923    0.000    2.769    0.000    0.538 
#    0.000    3.692    0.000    0.000    0.000    0.000 
#
# Total GULP energy -644546.939296 kJ/mol
# GULP energy per Si atom -12395.133448 kJ/mol
# Density = 1.703824 g / cm^3
# Si number density = 17.077110 Si / 1000 Ang^3
#
#
#
# Elastic Constant Matrix: (Units=GPa)
#
#
# Indices 1 2 3 4 5 6 
#
# 1 68.7055 32.8489 24.5048 0.0000 0.0000 0.0000
# 2 32.8489 113.8780 42.0846 0.0000 0.0000 0.0000
# 3 24.5048 42.0846 85.0338 0.0000 0.0000 0.0000
# 4 0.0000 0.0000 0.0000 23.6958 0.0000 0.0000
# 5 0.0000 0.0000 0.0000 0.0000 8.9232 0.0000
# 6 0.0000 0.0000 0.0000 0.0000 0.0000 26.2870
#
#
#
# Elastic Compliance Matrix: (Units=1/GPa)
#
#
# Indices 1 2 3 4 5 6 
#
# 1 0.017535 -0.003905 -0.003121 0.000000 0.000000 0.000000
# 2 -0.003905 0.011617 -0.004624 0.000000 0.000000 0.000000
# 3 -0.003121 -0.004624 0.014948 0.000000 0.000000 0.000000
# 4 0.000000 0.000000 0.000000 0.042201 0.000000 0.000000
# 5 0.000000 0.000000 0.000000 0.000000 0.112068 0.000000
# 6 0.000000 0.000000 0.000000 0.000000 0.000000 0.038042
#
#
# Mechanical properties :
#
#
# Convention : Reuss Voigt Hill
#
# Bulk Modulus (GPa) = 48.07582 51.83264 49.95423
# Shear Modulus (GPa) = 18.75174 22.99313 20.87243
#
# Velocity S-wave (km/s) = 3.31730 3.67335 3.49986
# Velocity P-wave (km/s) = 6.54874 6.95768 6.75630
#
# Compressibility (1/GPa) = 0.02080048
#
# Stress axis : x y z
#
# Youngs Moduli (GPa) = 57.02941 86.08434 66.89963
#
# Poissons Ratio (x) = 0.33614 0.20877
# Poissons Ratio (y) = 0.22269 0.30934
# Poissons Ratio (z) = 0.17796 0.39805
#
# Static dielectric constant tensor:
#      x y z
#    x 2.956520 0.000000 0.000000 
#    y 0.000000 3.472480 0.000000 
#    z 0.000000 0.000000 3.935450 
# 
# 
# High freq. dielectric constant tensor:
#      x y z
#    x 1.633410 0.000000 0.000000 
#    y 0.000000 1.672290 0.000000 
#    z 0.000000 0.000000 1.654020 
# 
# From -- ./inp_files/46168.got.cif
#   From: 2010.06.25/outbox.cif.g09.slc.cpg/sg71_24_cif.got.tgz:46168.got - 2010.06.28 04:59:45.
