data_PCOD8288509
_publ_section_title
;
Structure prediction by ZEFSAII (Michael W. Deem and Ramdas Pophale) SiO2 
 PCOD8288509
Probable space group: I M M M
;
_chemical_formula_sum "Si O2"
_cell_formula_units_Z 96
_cell_length_a 11.589111
_cell_length_b 14.150615
_cell_length_c 33.559067
_cell_angle_alpha 90.000000
_cell_angle_beta 90.000000
_cell_angle_gamma 90.000000
_cell_volume 5503.453684
_symmetry_space_group_name_H-M "I M M M"
_symmetry_group_IT_number 71
_symmetry_cell_setting 'orthorhombic'
loop_
_space_group_symop_operation_xyz
x,y,z
-x,-y,z
x,-y,-z
-x,y,-z
-x,-y,-z
x,y,-z
-x,y,z
x,-y,z
1/2+x,1/2+y,1/2+z
1/2-x,1/2-y,1/2+z
1/2+x,1/2-y,1/2-z
1/2-x,1/2+y,1/2-z
1/2-x,1/2-y,1/2-z
1/2+x,1/2+y,1/2-z
1/2-x,1/2+y,1/2+z
1/2+x,1/2-y,1/2+z
loop_
_atom_site_type_symbol
_atom_site_label
_atom_site_fract_x
_atom_site_fract_y
_atom_site_fract_z
Si Si1 0.000000 0.110858 0.213100
Si Si2 0.371809 0.887844 0.764932
Si Si3 0.500000 0.612020 0.199212
Si Si4 0.863540 0.728596 0.117029
Si Si5 0.779384 0.889772 0.836914
Si Si6 0.136975 0.394459 0.955662
Si Si7 0.252482 0.111619 0.315111
O O1 0.000000 0.158392 0.256661
O O2 0.110897 0.141608 0.188735
O O3 0.000000 0.000000 0.219302
O O4 0.500000 0.845943 0.759515
O O5 0.327407 0.858594 0.809035
O O6 0.289389 0.852894 0.729103
O O7 0.372873 0.000000 0.763523
O O8 0.500000 0.500000 0.203340
O O9 0.381284 0.642970 0.177256
O O10 0.790247 0.825905 0.123221
O O11 0.816270 0.681046 0.076340
O O12 0.837390 0.657920 0.153162
O O13 0.000000 0.749043 0.114655
O O14 0.776830 0.000000 0.849027
O O15 0.184453 0.500000 0.946021
O O16 0.000000 0.397511 0.953419
O O17 0.177303 0.363557 0.000000
O O18 0.267981 0.000000 0.319129
#
# Coordination Sequence:
#
# PCOD8288509 Si02
#       7
#     8  16   8  16  16  16  16
#     4   9  14  28  48  58  76 123 173 201 218 257
#     4   9  17  30  46  63  89 126 163 201 243 277
#     4   9  16  30  48  62  86 128 167 196 232 280
#     4  11  21  30  46  73  96 118 154 196 235 277
#     4  10  19  32  47  63  89 126 166 200 230 268
#     4   8  15  30  51  73  98 124 145 173 223 286
#     4  10  19  31  46  66  94 125 157 198 242 279
#
# _framework density 17.443591999999999
#
# number of rings (size 3 to 8) (size 9 to 14) (size 15 to 20)
#    0.000    2.500    2.500    1.500    0.000    2.333 
#    1.500    0.000    0.000    0.500    0.000    2.917 
#    0.000    3.333    0.000    4.167    0.000    0.000 
#
# Total GULP energy -594811.404019 kJ/mol
# GULP energy per Si atom -12391.904250 kJ/mol
# Density = 1.740389 g / cm^3
# Si number density = 17.443592 Si / 1000 Ang^3
#
#
#
# Elastic Constant Matrix: (Units=GPa)
#
#
# Indices 1 2 3 4 5 6 
#
# 1 70.9430 13.5067 15.9292 0.0000 0.0000 0.0000
# 2 13.5067 74.5111 53.7044 0.0000 0.0000 0.0000
# 3 15.9292 53.7044 103.7476 0.0000 0.0000 0.0000
# 4 0.0000 0.0000 0.0000 28.1103 0.0000 0.0000
# 5 0.0000 0.0000 0.0000 0.0000 14.3835 0.0000
# 6 0.0000 0.0000 0.0000 0.0000 0.0000 15.1383
#
#
#
# Elastic Compliance Matrix: (Units=1/GPa)
#
#
# Indices 1 2 3 4 5 6 
#
# 1 0.014727 -0.001659 -0.001402 0.000000 0.000000 0.000000
# 2 -0.001659 0.021595 -0.010924 0.000000 0.000000 0.000000
# 3 -0.001402 -0.010924 0.015509 0.000000 0.000000 0.000000
# 4 0.000000 0.000000 0.000000 0.035574 0.000000 0.000000
# 5 0.000000 0.000000 0.000000 0.000000 0.069524 0.000000
# 6 0.000000 0.000000 0.000000 0.000000 0.000000 0.066058
#
#
# Mechanical properties :
#
#
# Convention : Reuss Voigt Hill
#
# Bulk Modulus (GPa) = 41.91065 46.16470 44.03768
# Shear Modulus (GPa) = 19.31178 22.59719 20.95448
#
# Velocity S-wave (km/s) = 3.33092 3.60313 3.46970
# Velocity P-wave (km/s) = 6.23473 6.62062 6.43057
#
# Compressibility (1/GPa) = 0.02386028
#
# Stress axis : x y z
#
# Youngs Moduli (GPa) = 67.90478 46.30723 64.47967
#
# Poissons Ratio (x) = 0.07681 0.09043
# Poissons Ratio (y) = 0.11263 0.70436
# Poissons Ratio (z) = 0.09524 0.50585
#
# Static dielectric constant tensor:
#      x y z
#    x 3.284100 0.000000 0.000000 
#    y 0.000000 3.288580 0.000000 
#    z 0.000000 0.000000 3.195630 
# 
# 
# High freq. dielectric constant tensor:
#      x y z
#    x 1.655540 0.000000 0.000000 
#    y 0.000000 1.675870 0.000000 
#    z 0.000000 0.000000 1.630910 
# 
# From -- ./inp_files/69281.got.cif
#   From: 2010.06.25/outbox.cif.g09.slc.cpg/sg71_35_cif.got.tgz:69281.got - 2010.06.28 04:59:45.
