data_PCOD8288853
_publ_section_title
;
Structure prediction by ZEFSAII (Michael W. Deem and Ramdas Pophale) SiO2 
 PCOD8288853
Probable space group: I M M M
;
_chemical_formula_sum "Si O2"
_cell_formula_units_Z 80
_cell_length_a 7.833152
_cell_length_b 20.224935
_cell_length_c 28.042863
_cell_angle_alpha 90.000000
_cell_angle_beta 90.000000
_cell_angle_gamma 90.000000
_cell_volume 4442.690292
_symmetry_space_group_name_H-M "I M M M"
_symmetry_group_IT_number 71
_symmetry_cell_setting 'orthorhombic'
loop_
_space_group_symop_operation_xyz
x,y,z
-x,-y,z
x,-y,-z
-x,y,-z
-x,-y,-z
x,y,-z
-x,y,z
x,-y,z
1/2+x,1/2+y,1/2+z
1/2-x,1/2-y,1/2+z
1/2+x,1/2-y,1/2-z
1/2-x,1/2+y,1/2-z
1/2-x,1/2-y,1/2-z
1/2+x,1/2+y,1/2-z
1/2-x,1/2+y,1/2+z
1/2+x,1/2-y,1/2+z
loop_
_atom_site_type_symbol
_atom_site_label
_atom_site_fract_x
_atom_site_fract_y
_atom_site_fract_z
Si Si1 0.500000 0.276681 0.553406
Si Si2 0.689806 0.774499 0.882494
Si Si3 0.691229 0.379282 0.882312
Si Si4 0.194659 0.809972 0.216834
Si Si5 0.000000 0.619402 0.946777
Si Si6 0.304238 0.924787 0.282792
O O1 0.500000 0.306447 0.500000
O O2 0.670297 0.302179 0.580350
O O3 0.500000 0.198055 0.550891
O O4 0.500000 0.785566 0.904053
O O5 0.724887 0.697634 0.872026
O O6 0.698737 0.811815 0.831994
O O7 0.500000 0.391030 0.902697
O O8 0.829796 0.406432 0.920061
O O9 0.708390 0.417831 0.832887
O O10 0.250000 0.750000 0.250000
O O11 0.217668 0.879427 0.243123
O O12 0.000000 0.799414 0.202258
O O13 0.000000 0.589505 0.000000
O O14 0.500000 0.903232 0.289851
O O15 0.287758 0.000000 0.265041
#
# Coordination Sequence:
#
# PCOD8288853 Si02
#       6
#     8  16  16  16   8  16
#     4   9  18  32  50  75 109 145 177 223 277 321
#     4  10  19  32  50  78 108 138 182 224 264 322
#     4  10  19  32  52  74 101 138 179 223 271 324
#     4  12  22  33  53  80 109 144 184 227 268 324
#     4   9  18  32  51  74 103 135 178 232 279 319
#     4  11  23  37  53  76 108 144 182 224 274 330
#
# _framework density 18.007107000000001
#
# number of rings (size 3 to 8) (size 9 to 14) (size 15 to 20)
#    0.000    1.600    4.000    2.400    0.000    2.400 
#    0.000    4.000    0.000    1.200    0.000    1.400 
#    0.000    1.600    0.000    4.200    0.000    0.200 
#
# Total GULP energy -496084.451135 kJ/mol
# GULP energy per Si atom -12402.111278 kJ/mol
# Density = 1.796612 g / cm^3
# Si number density = 18.007107 Si / 1000 Ang^3
#
#
#
# Elastic Constant Matrix: (Units=GPa)
#
#
# Indices 1 2 3 4 5 6 
#
# 1 140.4286 18.3835 49.7082 0.0000 0.0000 0.0000
# 2 18.3835 48.4463 25.0788 0.0000 0.0000 0.0000
# 3 49.7082 25.0788 120.9841 0.0000 0.0000 0.0000
# 4 0.0000 0.0000 0.0000 10.6523 0.0000 0.0000
# 5 0.0000 0.0000 0.0000 0.0000 27.6965 0.0000
# 6 0.0000 0.0000 0.0000 0.0000 0.0000 16.7538
#
#
#
# Elastic Compliance Matrix: (Units=1/GPa)
#
#
# Indices 1 2 3 4 5 6 
#
# 1 0.008439 -0.001577 -0.003141 0.000000 0.000000 0.000000
# 2 -0.001577 0.023417 -0.004206 0.000000 0.000000 0.000000
# 3 -0.003141 -0.004206 0.010428 0.000000 0.000000 0.000000
# 4 0.000000 0.000000 0.000000 0.093877 0.000000 0.000000
# 5 0.000000 0.000000 0.000000 0.000000 0.036106 0.000000
# 6 0.000000 0.000000 0.000000 0.000000 0.000000 0.059688
#
#
# Mechanical properties :
#
#
# Convention : Reuss Voigt Hill
#
# Bulk Modulus (GPa) = 40.92137 55.13333 48.02735
# Shear Modulus (GPa) = 19.38382 25.46641 22.42512
#
# Velocity S-wave (km/s) = 3.28450 3.76472 3.53278
# Velocity P-wave (km/s) = 6.09576 7.04141 6.58558
#
# Compressibility (1/GPa) = 0.02443711
#
# Stress axis : x y z
#
# Youngs Moduli (GPa) = 118.49576 42.70375 95.89726
#
# Poissons Ratio (x) = 0.06733 0.30117
# Poissons Ratio (y) = 0.18682 0.40338
# Poissons Ratio (z) = 0.37214 0.17963
#
# Static dielectric constant tensor:
#      x y z
#    x 3.611710 0.000000 0.000000 
#    y 0.000000 2.800210 0.000000 
#    z 0.000000 0.000000 3.327610 
# 
# 
# High freq. dielectric constant tensor:
#      x y z
#    x 1.721250 0.000000 0.000000 
#    y 0.000000 1.645230 0.000000 
#    z 0.000000 0.000000 1.684640 
# 
# From -- ./inp_files/12394.got.cif
#   From: 2010.06.25/outbox.cif.g09.slc.cpg/sg71_7_cif.got.tgz:12394.got - 2010.06.28 04:59:45.
