data_PCOD8288828
_publ_section_title
;
Structure prediction by ZEFSAII (Michael W. Deem and Ramdas Pophale) SiO2 
 PCOD8288828
Probable space group: I M M M
;
_chemical_formula_sum "Si O2"
_cell_formula_units_Z 64
_cell_length_a 14.518081
_cell_length_b 30.753621
_cell_length_c 8.690206
_cell_angle_alpha 90.000000
_cell_angle_beta 90.000000
_cell_angle_gamma 90.000000
_cell_volume 3880.034118
_symmetry_space_group_name_H-M "I M M M"
_symmetry_group_IT_number 71
_symmetry_cell_setting 'orthorhombic'
loop_
_space_group_symop_operation_xyz
x,y,z
-x,-y,z
x,-y,-z
-x,y,-z
-x,-y,-z
x,y,-z
-x,y,z
x,-y,z
1/2+x,1/2+y,1/2+z
1/2-x,1/2-y,1/2+z
1/2+x,1/2-y,1/2-z
1/2-x,1/2+y,1/2-z
1/2-x,1/2-y,1/2-z
1/2+x,1/2+y,1/2-z
1/2-x,1/2+y,1/2+z
1/2+x,1/2-y,1/2+z
loop_
_atom_site_type_symbol
_atom_site_label
_atom_site_fract_x
_atom_site_fract_y
_atom_site_fract_z
Si Si1 0.665004 0.137802 0.178144
Si Si2 0.603571 0.952923 0.181308
Si Si3 0.000000 0.224276 0.678940
Si Si4 0.807658 0.210307 0.178199
Si Si5 0.000000 0.684683 0.176205
O O1 0.673124 0.086613 0.224997
O O2 0.759364 0.163713 0.205612
O O3 0.590115 0.157057 0.292351
O O4 0.633140 0.142450 0.000000
O O5 0.500000 0.942605 0.242456
O O6 0.637273 0.000000 0.248600
O O7 0.599425 0.956994 0.000000
O O8 0.908184 0.203844 0.750761
O O9 0.000000 0.275395 0.707170
O O10 0.000000 0.214199 0.500000
O O11 0.750000 0.250000 0.250000
O O12 0.817281 0.221668 0.000000
O O13 0.000000 0.700916 0.000000
#
# Coordination Sequence:
#
# PCOD8288828 Si02
#       5
#    16  16   8  16   8
#     4  10  19  32  50  71  99 133 167 201 243 291
#     4   8  13  23  44  73 100 127 161 198 236 286
#     4  12  24  38  52  67  96 133 170 214 252 289
#     4  11  22  34  51  74 100 131 168 206 246 294
#     4  12  22  30  47  71 100 132 167 206 242 290
#
# _framework density 16.494700999999999
#
# number of rings (size 3 to 8) (size 9 to 14) (size 15 to 20)
#    0.000    1.750    3.750    3.750    0.000    1.000 
#    0.000    0.000    0.000    1.500    0.000    0.875 
#    0.000    7.000    0.000    0.000    0.000    0.000 
#
# Total GULP energy -396548.944386 kJ/mol
# GULP energy per Si atom -12392.154512 kJ/mol
# Density = 1.645716 g / cm^3
# Si number density = 16.494701 Si / 1000 Ang^3
#
#
#
# Elastic Constant Matrix: (Units=GPa)
#
#
# Indices 1 2 3 4 5 6 
#
# 1 113.6013 61.5092 44.5076 0.0005 0.0005 -0.0004
# 2 61.5092 147.2499 28.1486 0.0007 0.0005 -0.0002
# 3 44.5076 28.1486 76.1999 0.0002 -0.0014 0.0012
# 4 0.0005 0.0007 0.0002 13.8618 -0.0012 0.0001
# 5 0.0005 0.0005 -0.0014 -0.0012 16.3642 0.0006
# 6 -0.0004 -0.0002 0.0012 0.0001 0.0006 31.6254
#
#
#
# Elastic Compliance Matrix: (Units=1/GPa)
#
#
# Indices 1 2 3 4 5 6 
#
# 1 0.013743 -0.004526 -0.006355 0.000000 -0.000001 0.000000
# 2 -0.004526 0.008798 -0.000606 0.000000 0.000000 0.000000
# 3 -0.006355 -0.000606 0.017059 0.000000 0.000002 -0.000001
# 4 0.000000 0.000000 0.000000 0.072141 0.000005 0.000000
# 5 -0.000001 0.000000 0.000002 0.000005 0.061109 -0.000001
# 6 0.000000 0.000000 -0.000001 0.000000 -0.000001 0.031620
#
#
# Mechanical properties :
#
#
# Convention : Reuss Voigt Hill
#
# Bulk Modulus (GPa) = 60.15014 67.26462 63.70738
# Shear Modulus (GPa) = 21.46039 25.89598 23.67819
#
# Velocity S-wave (km/s) = 3.61092 3.96657 3.79291
# Velocity P-wave (km/s) = 7.34374 7.86424 7.60844
#
# Compressibility (1/GPa) = 0.01662506
#
# Stress axis : x y z
#
# Youngs Moduli (GPa) = 72.76320 113.66676 58.61844
#
# Poissons Ratio (x) = 0.51444 0.37254
# Poissons Ratio (y) = 0.32932 0.03554
# Poissons Ratio (z) = 0.46244 0.06892
#
# Static dielectric constant tensor:
#      x y z
#    x 3.023720 0.000000 0.000010 
#    y 0.000000 3.531200 -0.000010 
#    z 0.000010 -0.000010 2.982430 
# 
# 
# High freq. dielectric constant tensor:
#      x y z
#    x 1.605760 0.000000 0.000000 
#    y 0.000000 1.635050 0.000000 
#    z 0.000000 0.000000 1.622980 
# 
# From -- ./inp_files/6340.got.cif
#   From: 2010.06.25/outbox.cif.g09.slc.cpg/sg71_4_cif.got.tgz:6340.got - 2010.06.28 04:59:45.
