data_PCOD8288153
_publ_section_title
;
Structure prediction by ZEFSAII (Michael W. Deem and Ramdas Pophale) SiO2 
 PCOD8288153
Probable space group: I M M M
;
_chemical_formula_sum "Si O2"
_cell_formula_units_Z 104
_cell_length_a 8.648382
_cell_length_b 28.460735
_cell_length_c 32.214913
_cell_angle_alpha 90.000000
_cell_angle_beta 90.000000
_cell_angle_gamma 90.000000
_cell_volume 7929.356402
_symmetry_space_group_name_H-M "I M M M"
_symmetry_group_IT_number 71
_symmetry_cell_setting 'orthorhombic'
loop_
_space_group_symop_operation_xyz
x,y,z
-x,-y,z
x,-y,-z
-x,y,-z
-x,-y,-z
x,y,-z
-x,y,z
x,-y,z
1/2+x,1/2+y,1/2+z
1/2-x,1/2-y,1/2+z
1/2+x,1/2-y,1/2-z
1/2-x,1/2+y,1/2-z
1/2-x,1/2-y,1/2-z
1/2+x,1/2+y,1/2-z
1/2-x,1/2+y,1/2+z
1/2+x,1/2-y,1/2+z
loop_
_atom_site_type_symbol
_atom_site_label
_atom_site_fract_x
_atom_site_fract_y
_atom_site_fract_z
Si Si1 0.827062 0.682851 0.224729
Si Si2 0.326994 0.766684 0.812716
Si Si3 0.179815 0.500000 0.724047
Si Si4 0.818945 0.852597 0.851456
Si Si5 0.318028 0.082703 0.085503
Si Si6 0.683694 0.444531 0.500000
Si Si7 0.820760 0.000000 0.136045
Si Si8 0.181714 0.097986 0.766105
O O1 0.741073 0.714000 0.189849
O O2 0.827547 0.710954 0.267438
O O3 0.742033 0.633274 0.230793
O O4 0.000000 0.673008 0.209179
O O5 0.500000 0.764237 0.830821
O O6 0.221402 0.798281 0.842820
O O7 0.210133 0.500000 0.675248
O O8 0.251935 0.546699 0.744099
O O9 0.000000 0.500000 0.733213
O O10 0.721158 0.868109 0.891934
O O11 0.767692 0.884848 0.812156
O O12 0.000000 0.857388 0.860358
O O13 0.500000 0.071368 0.088134
O O14 0.212992 0.045053 0.108796
O O15 0.261599 0.082299 0.038354
O O16 0.725754 0.500000 0.500000
O O17 0.500000 0.437334 0.500000
O O18 0.000000 0.000000 0.150262
O O19 0.000000 0.096293 0.763220
#
# Coordination Sequence:
#
# PCOD8288153 Si02
#       8
#    16  16   8  16  16   8   8  16
#     4   9  16  26  39  55  75  96 121 147 179 218
#     4   9  16  26  40  57  76  95 119 146 179 218
#     4  12  22  30  41  57  76  98 126 158 191 225
#     4  10  19  30  44  59  77  97 119 147 186 227
#     4  12  23  34  48  63  77  93 120 154 189 229
#     4  11  23  37  51  61  76  98 122 150 188 233
#     4  12  22  33  45  58  74  96 121 150 188 230
#     4  10  19  29  41  55  75  99 124 151 185 223
#
# _framework density 13.115818000000001
#
# number of rings (size 3 to 8) (size 9 to 14) (size 15 to 20)
#    0.000    1.615    2.308    4.846    0.000    5.231 
#    0.000    0.000    0.000    0.000    0.000    0.000 
#    0.000    0.000    0.000    0.000    0.000    0.000 
#
# Total GULP energy -644818.882579 kJ/mol
# GULP energy per Si atom -12400.363127 kJ/mol
# Density = 1.308597 g / cm^3
# Si number density = 13.115818 Si / 1000 Ang^3
#
#
#
# Elastic Constant Matrix: (Units=GPa)
#
#
# Indices 1 2 3 4 5 6 
#
# 1 78.5894 34.1328 16.8551 0.0000 0.0000 0.0000
# 2 34.1328 95.0097 34.7732 0.0000 0.0000 0.0000
# 3 16.8551 34.7732 32.2883 0.0000 0.0000 0.0000
# 4 0.0000 0.0000 0.0000 42.0247 0.0000 0.0000
# 5 0.0000 0.0000 0.0000 0.0000 16.2483 0.0000
# 6 0.0000 0.0000 0.0000 0.0000 0.0000 23.5606
#
#
#
# Elastic Compliance Matrix: (Units=1/GPa)
#
#
# Indices 1 2 3 4 5 6 
#
# 1 0.015301 -0.004248 -0.003413 0.000000 0.000000 0.000000
# 2 -0.004248 0.018552 -0.017763 0.000000 0.000000 0.000000
# 3 -0.003413 -0.017763 0.051882 0.000000 0.000000 0.000000
# 4 0.000000 0.000000 0.000000 0.023796 0.000000 0.000000
# 5 0.000000 0.000000 0.000000 0.000000 0.061545 0.000000
# 6 0.000000 0.000000 0.000000 0.000000 0.000000 0.042444
#
#
# Mechanical properties :
#
#
# Convention : Reuss Voigt Hill
#
# Bulk Modulus (GPa) = 28.66214 41.93439 35.29827
# Shear Modulus (GPa) = 18.11618 24.37515 21.24567
#
# Velocity S-wave (km/s) = 3.72054 4.31566 4.02910
# Velocity P-wave (km/s) = 6.35273 7.54155 6.97252
#
# Compressibility (1/GPa) = 0.03488923
#
# Stress axis : x y z
#
# Youngs Moduli (GPa) = 65.35404 53.90115 19.27446
#
# Poissons Ratio (x) = 0.22898 0.06577
# Poissons Ratio (y) = 0.27763 0.34237
# Poissons Ratio (z) = 0.22302 0.95743
#
# Static dielectric constant tensor:
#      x y z
#    x 2.770540 0.000000 0.000000 
#    y 0.000000 2.647690 0.000000 
#    z 0.000000 0.000000 2.342000 
# 
# 
# High freq. dielectric constant tensor:
#      x y z
#    x 1.521920 0.000000 0.000000 
#    y 0.000000 1.488570 0.000000 
#    z 0.000000 0.000000 1.438410 
# 
# From -- ./inp_files/68595.got.cif
#   From: 2010.06.25/outbox.cif.g09.slc.cpg/sg71_35_cif.got.tgz:68595.got - 2010.06.28 04:59:45.
