data_PCOD8288189
_publ_section_title
;
Structure prediction by ZEFSAII (Michael W. Deem and Ramdas Pophale) SiO2 
 PCOD8288189
Probable space group: I M M M
;
_chemical_formula_sum "Si O2"
_cell_formula_units_Z 72
_cell_length_a 28.753991
_cell_length_b 8.937370
_cell_length_c 17.009658
_cell_angle_alpha 90.000000
_cell_angle_beta 90.000000
_cell_angle_gamma 90.000000
_cell_volume 4371.227923
_symmetry_space_group_name_H-M "I M M M"
_symmetry_group_IT_number 71
_symmetry_cell_setting 'orthorhombic'
loop_
_space_group_symop_operation_xyz
x,y,z
-x,-y,z
x,-y,-z
-x,y,-z
-x,-y,-z
x,y,-z
-x,y,z
x,-y,z
1/2+x,1/2+y,1/2+z
1/2-x,1/2-y,1/2+z
1/2+x,1/2-y,1/2-z
1/2-x,1/2+y,1/2-z
1/2-x,1/2-y,1/2-z
1/2+x,1/2+y,1/2-z
1/2-x,1/2+y,1/2+z
1/2+x,1/2-y,1/2+z
loop_
_atom_site_type_symbol
_atom_site_label
_atom_site_fract_x
_atom_site_fract_y
_atom_site_fract_z
Si Si1 0.807346 0.825980 0.589886
Si Si2 0.554875 0.827712 0.500000
Si Si3 0.114795 0.822929 0.128151
Si Si4 0.205546 0.668950 0.128778
Si Si5 0.851853 0.331821 0.728520
O O1 0.821307 0.796214 0.500000
O O2 0.755550 0.762729 0.606557
O O3 0.844844 0.742016 0.643582
O O4 0.808698 0.000000 0.611826
O O5 0.500000 0.811806 0.500000
O O6 0.573349 0.746896 0.421987
O O7 0.570837 0.000000 0.500000
O O8 0.164480 0.770242 0.090703
O O9 0.111103 0.761512 0.218338
O O10 0.110911 0.000000 0.126899
O O11 0.201641 0.500000 0.094841
O O12 0.197417 0.667503 0.223642
O O13 0.870724 0.500000 0.716684
#
# Coordination Sequence:
#
# PCOD8288189 Si02
#       5
#    16   8  16  16  16
#     4  10  19  29  43  66  94 129 169 213 254 286
#     4  11  23  39  57  77 103 129 155 193 243 299
#     4  10  20  33  51  72  94 124 160 199 240 288
#     4   8  17  30  45  63  89 127 166 204 246 292
#     4   9  18  32  48  64  90 128 168 207 247 295
#
# _framework density 16.471343999999998
#
# number of rings (size 3 to 8) (size 9 to 14) (size 15 to 20)
#    1.333    1.222    0.000    3.000    1.556    2.222 
#    0.000    0.000    0.000    0.000    0.000    0.000 
#    0.000    0.889    0.000    9.333    0.000    4.000 
#
# Total GULP energy -446050.226764 kJ/mol
# GULP energy per Si atom -12390.284077 kJ/mol
# Density = 1.643385 g / cm^3
# Si number density = 16.471344 Si / 1000 Ang^3
#
#
#
# Elastic Constant Matrix: (Units=GPa)
#
#
# Indices 1 2 3 4 5 6 
#
# 1 46.3659 39.6053 34.8633 0.0000 0.0000 0.0000
# 2 39.6053 125.9093 50.8101 0.0000 0.0000 0.0000
# 3 34.8633 50.8101 94.4156 0.0000 0.0000 0.0000
# 4 0.0000 0.0000 0.0000 27.1874 0.0000 0.0000
# 5 0.0000 0.0000 0.0000 0.0000 18.5497 0.0000
# 6 0.0000 0.0000 0.0000 0.0000 0.0000 17.1041
#
#
#
# Elastic Compliance Matrix: (Units=1/GPa)
#
#
# Indices 1 2 3 4 5 6 
#
# 1 0.034382 -0.007271 -0.008783 0.000000 0.000000 0.000000
# 2 -0.007271 0.011683 -0.003603 0.000000 0.000000 0.000000
# 3 -0.008783 -0.003603 0.015773 0.000000 0.000000 0.000000
# 4 0.000000 0.000000 0.000000 0.036782 0.000000 0.000000
# 5 0.000000 0.000000 0.000000 0.000000 0.053909 0.000000
# 6 0.000000 0.000000 0.000000 0.000000 0.000000 0.058466
#
#
# Mechanical properties :
#
#
# Convention : Reuss Voigt Hill
#
# Bulk Modulus (GPa) = 44.39290 57.47201 50.93245
# Shear Modulus (GPa) = 19.39364 21.99570 20.69467
#
# Velocity S-wave (km/s) = 3.43507 3.65827 3.54842
# Velocity P-wave (km/s) = 6.53782 7.26717 6.91212
#
# Compressibility (1/GPa) = 0.02252613
#
# Stress axis : x y z
#
# Youngs Moduli (GPa) = 29.08472 85.59399 63.39814
#
# Poissons Ratio (x) = 0.62234 0.55683
# Poissons Ratio (y) = 0.21147 0.22839
# Poissons Ratio (z) = 0.25545 0.30835
#
# Static dielectric constant tensor:
#      x y z
#    x 2.616410 0.000000 0.000000 
#    y 0.000000 3.070000 0.000000 
#    z 0.000000 0.000000 2.971260 
# 
# 
# High freq. dielectric constant tensor:
#      x y z
#    x 1.573400 0.000000 0.000000 
#    y 0.000000 1.640920 0.000000 
#    z 0.000000 0.000000 1.626200 
# 
# From -- ./inp_files/55405.got.cif
#   From: 2010.06.25/outbox.cif.g09.slc.cpg/sg71_28_cif.got.tgz:55405.got - 2010.06.28 04:59:45.
