data_PCOD8288011
_publ_section_title
;
Structure prediction by ZEFSAII (Michael W. Deem and Ramdas Pophale) SiO2 
 PCOD8288011
Probable space group: I M M M
;
_chemical_formula_sum "Si O2"
_cell_formula_units_Z 104
_cell_length_a 16.827534
_cell_length_b 12.775664
_cell_length_c 27.825453
_cell_angle_alpha 90.000000
_cell_angle_beta 90.000000
_cell_angle_gamma 90.000000
_cell_volume 5981.997146
_symmetry_space_group_name_H-M "I M M M"
_symmetry_group_IT_number 71
_symmetry_cell_setting 'orthorhombic'
loop_
_space_group_symop_operation_xyz
x,y,z
-x,-y,z
x,-y,-z
-x,y,-z
-x,-y,-z
x,y,-z
-x,y,z
x,-y,z
1/2+x,1/2+y,1/2+z
1/2-x,1/2-y,1/2+z
1/2+x,1/2-y,1/2-z
1/2-x,1/2+y,1/2-z
1/2-x,1/2-y,1/2-z
1/2+x,1/2+y,1/2-z
1/2-x,1/2+y,1/2+z
1/2+x,1/2-y,1/2+z
loop_
_atom_site_type_symbol
_atom_site_label
_atom_site_fract_x
_atom_site_fract_y
_atom_site_fract_z
Si Si1 0.500000 0.876328 0.373793
Si Si2 0.317229 0.297083 0.056698
Si Si3 0.151186 0.682092 0.290722
Si Si4 0.672834 0.879879 0.389906
Si Si5 0.741581 0.615699 0.792597
Si Si6 0.407872 0.881712 0.108737
Si Si7 0.500000 0.874382 0.266174
Si Si8 0.588934 0.500000 0.942844
O O1 0.581831 0.841468 0.400089
O O2 0.500000 0.832569 0.320114
O O3 0.500000 0.000000 0.369401
O O4 0.230140 0.302742 0.080531
O O5 0.363679 0.192304 0.070846
O O6 0.366359 0.396930 0.076096
O O7 0.306538 0.299039 0.000000
O O8 0.223269 0.630434 0.260935
O O9 0.171311 0.802636 0.302904
O O10 0.136491 0.621626 0.340207
O O11 0.074529 0.678045 0.258403
O O12 0.689459 0.871238 0.332766
O O13 0.684321 0.000000 0.407432
O O14 0.704180 0.500000 0.796020
O O15 0.500000 0.847381 0.114215
O O16 0.402334 0.000000 0.089036
O O17 0.500000 0.000000 0.260089
O O18 0.500000 0.500000 0.921690
O O19 0.586575 0.500000 0.000000
#
# Coordination Sequence:
#
# PCOD8288011 Si02
#       8
#     8  16  16  16  16  16   8   8
#     4   9  18  30  51  81 110 139 176 217 272 330
#     4  11  22  37  55  77 107 142 181 227 279 326
#     4  11  20  32  53  79 108 144 180 217 261 315
#     4  10  18  33  54  80 109 139 177 223 272 329
#     4  10  20  33  51  78 111 142 177 219 264 319
#     4  11  23  37  55  81 111 143 184 229 268 316
#     4  11  18  30  51  76 106 144 179 218 261 318
#     4   9  18  34  56  77  99 135 179 218 266 334
#
# _framework density 17.385497999999998
#
# number of rings (size 3 to 8) (size 9 to 14) (size 15 to 20)
#    0.000    1.615    4.615    1.846    0.000    1.231 
#    0.000    1.538    0.000    1.385    0.000    0.538 
#    0.000    1.231    0.000    0.000    0.000    0.000 
#
# Total GULP energy -644743.053665 kJ/mol
# GULP energy per Si atom -12398.904878 kJ/mol
# Density = 1.734593 g / cm^3
# Si number density = 17.385498 Si / 1000 Ang^3
#
#
#
# Elastic Constant Matrix: (Units=GPa)
#
#
# Indices 1 2 3 4 5 6 
#
# 1 115.2014 54.2569 26.6455 0.0000 0.0000 0.0000
# 2 54.2569 98.5136 25.2714 0.0000 0.0000 0.0000
# 3 26.6455 25.2714 62.6378 0.0000 0.0000 0.0000
# 4 0.0000 0.0000 0.0000 20.8198 0.0000 0.0000
# 5 0.0000 0.0000 0.0000 0.0000 21.3659 0.0000
# 6 0.0000 0.0000 0.0000 0.0000 0.0000 19.1219
#
#
#
# Elastic Compliance Matrix: (Units=1/GPa)
#
#
# Indices 1 2 3 4 5 6 
#
# 1 0.012131 -0.005976 -0.002749 0.000000 0.000000 0.000000
# 2 -0.005976 0.014267 -0.003214 0.000000 0.000000 0.000000
# 3 -0.002749 -0.003214 0.018431 0.000000 0.000000 0.000000
# 4 0.000000 0.000000 0.000000 0.048031 0.000000 0.000000
# 5 0.000000 0.000000 0.000000 0.000000 0.046804 0.000000
# 6 0.000000 0.000000 0.000000 0.000000 0.000000 0.052296
#
#
# Mechanical properties :
#
#
# Convention : Reuss Voigt Hill
#
# Bulk Modulus (GPa) = 47.73199 54.30004 51.01602
# Shear Modulus (GPa) = 22.43958 23.60679 23.02318
#
# Velocity S-wave (km/s) = 3.59654 3.68889 3.64301
# Velocity P-wave (km/s) = 6.69040 7.03169 6.86317
#
# Compressibility (1/GPa) = 0.02095031
#
# Stress axis : x y z
#
# Youngs Moduli (GPa) = 82.43461 70.09409 54.25655
#
# Poissons Ratio (x) = 0.41887 0.14917
# Poissons Ratio (y) = 0.49262 0.17437
# Poissons Ratio (z) = 0.22664 0.22527
#
# Static dielectric constant tensor:
#      x y z
#    x 3.100290 0.000000 0.000000 
#    y 0.000000 3.191330 0.000000 
#    z 0.000000 0.000000 3.092940 
# 
# 
# High freq. dielectric constant tensor:
#      x y z
#    x 1.672340 0.000000 0.000000 
#    y 0.000000 1.652020 0.000000 
#    z 0.000000 0.000000 1.661690 
# 
# From -- ./inp_files/70555.got.cif
#   From: 2010.06.25/outbox.cif.g09.slc.cpg/sg71_36_cif.got.tgz:70555.got - 2010.06.28 04:59:45.
