data_PCOD8288082
_publ_section_title
;
Structure prediction by ZEFSAII (Michael W. Deem and Ramdas Pophale) SiO2 
 PCOD8288082
Probable space group: I M M M
;
_chemical_formula_sum "Si O2"
_cell_formula_units_Z 88
_cell_length_a 27.629345
_cell_length_b 12.115502
_cell_length_c 13.648246
_cell_angle_alpha 90.000000
_cell_angle_beta 90.000000
_cell_angle_gamma 90.000000
_cell_volume 4568.660060
_symmetry_space_group_name_H-M "I M M M"
_symmetry_group_IT_number 71
_symmetry_cell_setting 'orthorhombic'
loop_
_space_group_symop_operation_xyz
x,y,z
-x,-y,z
x,-y,-z
-x,y,-z
-x,-y,-z
x,y,-z
-x,y,z
x,-y,z
1/2+x,1/2+y,1/2+z
1/2-x,1/2-y,1/2+z
1/2+x,1/2-y,1/2-z
1/2-x,1/2+y,1/2-z
1/2-x,1/2-y,1/2-z
1/2+x,1/2+y,1/2-z
1/2-x,1/2+y,1/2+z
1/2+x,1/2-y,1/2+z
loop_
_atom_site_type_symbol
_atom_site_label
_atom_site_fract_x
_atom_site_fract_y
_atom_site_fract_z
Si Si1 0.302170 0.706144 0.775829
Si Si2 0.844028 0.500000 0.817906
Si Si3 0.378456 0.000000 0.891341
Si Si4 0.108913 0.736428 0.610253
Si Si5 0.129477 0.738567 0.886629
Si Si6 0.266449 0.500000 0.884111
Si Si7 0.556984 0.371323 0.727261
O O1 0.250000 0.750000 0.750000
O O2 0.336864 0.780382 0.844748
O O3 0.329267 0.693229 0.671659
O O4 0.296374 0.597750 0.837924
O O5 0.841189 0.500000 0.700054
O O6 0.871667 0.390873 0.856729
O O7 0.789613 0.500000 0.856793
O O8 0.411975 0.110682 0.885380
O O9 0.352296 0.000000 0.000000
O O10 0.110799 0.782055 0.500000
O O11 0.077216 0.823228 0.670697
O O12 0.078644 0.798104 0.861541
O O13 0.141291 0.749970 0.000000
O O14 0.271646 0.500000 0.000000
O O15 0.500000 0.356612 0.724830
O O16 0.571654 0.500000 0.717518
#
# Coordination Sequence:
#
# PCOD8288082 Si02
#       7
#    16   8   8  16  16   8  16
#     4  11  22  37  57  87 127 163 211 253 296 359
#     4  12  20  42  64  90 123 162 210 256 305 368
#     4  10  18  36  62  88 122 161 197 249 312 358
#     4  10  21  37  61  91 124 164 206 254 311 364
#     4  11  24  41  65  91 122 163 207 259 314 362
#     4  12  24  38  58  86 125 172 210 253 310 363
#     4  10  23  43  65  90 122 158 200 252 310 378
#
# _framework density 19.261664
#
# number of rings (size 3 to 8) (size 9 to 14) (size 15 to 20)
#    0.000    1.273    5.455    1.364    5.091    2.182 
#    0.000    4.545    0.000    2.727    0.000    0.000 
#    0.000    0.000    0.000    0.000    0.000    0.000 
#
# Total GULP energy -545077.778536 kJ/mol
# GULP energy per Si atom -12388.131330 kJ/mol
# Density = 1.921782 g / cm^3
# Si number density = 19.261664 Si / 1000 Ang^3
#
#
#
# Elastic Constant Matrix: (Units=GPa)
#
#
# Indices 1 2 3 4 5 6 
#
# 1 95.8141 55.0190 40.8328 0.0000 0.0000 0.0000
# 2 55.0190 146.0438 59.7588 0.0000 0.0000 0.0000
# 3 40.8328 59.7588 193.2560 0.0000 0.0000 0.0000
# 4 0.0000 0.0000 0.0000 24.3068 0.0000 0.0000
# 5 0.0000 0.0000 0.0000 0.0000 15.0211 0.0000
# 6 0.0000 0.0000 0.0000 0.0000 0.0000 28.9363
#
#
#
# Elastic Compliance Matrix: (Units=1/GPa)
#
#
# Indices 1 2 3 4 5 6 
#
# 1 0.013680 -0.004546 -0.001485 0.000000 0.000000 0.000000
# 2 -0.004546 0.009350 -0.001931 0.000000 0.000000 0.000000
# 3 -0.001485 -0.001931 0.006085 0.000000 0.000000 0.000000
# 4 0.000000 0.000000 0.000000 0.041141 0.000000 0.000000
# 5 0.000000 0.000000 0.000000 0.000000 0.066573 0.000000
# 6 0.000000 0.000000 0.000000 0.000000 0.000000 0.034559
#
#
# Mechanical properties :
#
#
# Convention : Reuss Voigt Hill
#
# Bulk Modulus (GPa) = 75.80226 82.92611 79.36419
# Shear Modulus (GPa) = 26.08131 32.28639 29.18385
#
# Velocity S-wave (km/s) = 3.68374 4.09858 3.89668
# Velocity P-wave (km/s) = 7.58503 8.09591 7.84463
#
# Compressibility (1/GPa) = 0.01319222
#
# Stress axis : x y z
#
# Youngs Moduli (GPa) = 73.09864 106.95263 164.33392
#
# Poissons Ratio (x) = 0.48623 0.24398
# Poissons Ratio (y) = 0.33232 0.31727
# Poissons Ratio (z) = 0.10853 0.20649
#
# Static dielectric constant tensor:
#      x y z
#    x 3.407810 0.000000 0.000000 
#    y 0.000000 3.779510 0.000000 
#    z 0.000000 0.000000 3.744540 
# 
# 
# High freq. dielectric constant tensor:
#      x y z
#    x 1.720000 0.000000 0.000000 
#    y 0.000000 1.766960 0.000000 
#    z 0.000000 0.000000 1.763960 
# 
# From -- ./inp_files/40216.got.cif
#   From: 2010.06.25/outbox.cif.g09.slc.cpg/sg71_21_cif.got.tgz:40216.got - 2010.06.28 04:59:45.
