data_PCOD8288669
_publ_section_title
;
Structure prediction by ZEFSAII (Michael W. Deem and Ramdas Pophale) SiO2 
 PCOD8288669
Probable space group: I M M M
;
_chemical_formula_sum "Si O2"
_cell_formula_units_Z 104
_cell_length_a 21.326925
_cell_length_b 9.454701
_cell_length_c 27.867739
_cell_angle_alpha 90.000000
_cell_angle_beta 90.000000
_cell_angle_gamma 90.000000
_cell_volume 5619.242507
_symmetry_space_group_name_H-M "I M M M"
_symmetry_group_IT_number 71
_symmetry_cell_setting 'orthorhombic'
loop_
_space_group_symop_operation_xyz
x,y,z
-x,-y,z
x,-y,-z
-x,y,-z
-x,-y,-z
x,y,-z
-x,y,z
x,-y,z
1/2+x,1/2+y,1/2+z
1/2-x,1/2-y,1/2+z
1/2+x,1/2-y,1/2-z
1/2-x,1/2+y,1/2-z
1/2-x,1/2-y,1/2-z
1/2+x,1/2+y,1/2-z
1/2-x,1/2+y,1/2+z
1/2+x,1/2-y,1/2+z
loop_
_atom_site_type_symbol
_atom_site_label
_atom_site_fract_x
_atom_site_fract_y
_atom_site_fract_z
Si Si1 0.744136 0.166740 0.874451
Si Si2 0.674607 0.159297 0.445064
Si Si3 0.601971 0.832683 0.870674
Si Si4 0.930177 0.665513 0.265630
Si Si5 0.571747 0.338405 0.596363
Si Si6 0.646326 0.660033 0.692810
Si Si7 0.000000 0.668803 0.554810
O O1 0.772877 0.250500 0.918608
O O2 0.673298 0.222297 0.870738
O O3 0.783515 0.199926 0.825703
O O4 0.748803 0.000000 0.885670
O O5 0.694330 0.155377 0.500000
O O6 0.607220 0.234156 0.439762
O O7 0.671035 0.000000 0.424060
O O8 0.571561 0.782472 0.820740
O O9 0.561516 0.775394 0.916081
O O10 0.601403 0.000000 0.873286
O O11 0.915807 0.500000 0.262412
O O12 0.875294 0.740798 0.236035
O O13 0.000000 0.700590 0.245729
O O14 0.500000 0.292544 0.596341
O O15 0.580864 0.500000 0.579170
O O16 0.598045 0.318597 0.649587
O O17 0.644843 0.500000 0.711884
O O18 0.000000 0.500000 0.553313
O O19 0.000000 0.728537 0.500000
#
# Coordination Sequence:
#
# PCOD8288669 Si02
#       7
#    16  16  16  16  16  16   8
#     4   9  19  35  54  73  99 135 173 216 261 306
#     4  10  21  35  50  71 101 134 168 212 263 310
#     4   9  17  32  51  75 106 133 163 209 262 313
#     4  10  19  31  50  75 105 139 169 205 258 314
#     4   9  18  33  52  73 100 135 174 217 260 300
#     4   9  18  32  48  71 102 136 173 211 249 293
#     4   9  16  28  50  80 109 133 163 211 268 321
#
# _framework density 18.507832000000001
#
# number of rings (size 3 to 8) (size 9 to 14) (size 15 to 20)
#    0.000    2.692    0.769    1.846    0.000    6.462 
#    0.000    3.846    0.000    0.000    0.000    0.000 
#    0.000    2.462    0.000    0.000    0.000    0.000 
#
# Total GULP energy -644595.748249 kJ/mol
# GULP energy per Si atom -12396.072082 kJ/mol
# Density = 1.846571 g / cm^3
# Si number density = 18.507832 Si / 1000 Ang^3
#
#
#
# Elastic Constant Matrix: (Units=GPa)
#
#
# Indices 1 2 3 4 5 6 
#
# 1 153.1060 39.7264 56.8804 0.0000 0.0000 0.0000
# 2 39.7264 56.2218 37.1904 0.0000 0.0000 0.0000
# 3 56.8804 37.1904 105.2795 0.0000 0.0000 0.0000
# 4 0.0000 0.0000 0.0000 22.4605 0.0000 0.0000
# 5 0.0000 0.0000 0.0000 0.0000 22.6765 0.0000
# 6 0.0000 0.0000 0.0000 0.0000 0.0000 11.6473
#
#
#
# Elastic Compliance Matrix: (Units=1/GPa)
#
#
# Indices 1 2 3 4 5 6 
#
# 1 0.008816 -0.004017 -0.003344 0.000000 0.000000 0.000000
# 2 -0.004017 0.025041 -0.006675 0.000000 0.000000 0.000000
# 3 -0.003344 -0.006675 0.013663 0.000000 0.000000 0.000000
# 4 0.000000 0.000000 0.000000 0.044523 0.000000 0.000000
# 5 0.000000 0.000000 0.000000 0.000000 0.044099 0.000000
# 6 0.000000 0.000000 0.000000 0.000000 0.000000 0.085857
#
#
# Mechanical properties :
#
#
# Convention : Reuss Voigt Hill
#
# Bulk Modulus (GPa) = 51.42184 64.68911 58.05547
# Shear Modulus (GPa) = 19.48904 23.41086 21.44995
#
# Velocity S-wave (km/s) = 3.24854 3.56042 3.40805
# Velocity P-wave (km/s) = 6.47417 7.20627 6.85001
#
# Compressibility (1/GPa) = 0.01944699
#
# Stress axis : x y z
#
# Youngs Moduli (GPa) = 113.42786 39.93429 73.18865
#
# Poissons Ratio (x) = 0.16044 0.24474
# Poissons Ratio (y) = 0.45569 0.48856
# Poissons Ratio (z) = 0.37930 0.26657
#
# Static dielectric constant tensor:
#      x y z
#    x 3.673570 0.000000 0.000000 
#    y 0.000000 3.173670 0.000000 
#    z 0.000000 0.000000 3.310790 
# 
# 
# High freq. dielectric constant tensor:
#      x y z
#    x 1.726780 0.000000 0.000000 
#    y 0.000000 1.686770 0.000000 
#    z 0.000000 0.000000 1.709440 
# 
# From -- ./inp_files/66854.got.cif
#   From: 2010.06.25/outbox.cif.g09.slc.cpg/sg71_34_cif.got.tgz:66854.got - 2010.06.28 04:59:45.
