data_PCOD8288798
_publ_section_title
;
Structure prediction by ZEFSAII (Michael W. Deem and Ramdas Pophale) SiO2 
 PCOD8288798
Probable space group: I M M M
;
_chemical_formula_sum "Si O2"
_cell_formula_units_Z 120
_cell_length_a 13.532120
_cell_length_b 22.796841
_cell_length_c 21.502808
_cell_angle_alpha 90.000000
_cell_angle_beta 90.000000
_cell_angle_gamma 90.000000
_cell_volume 6633.392381
_symmetry_space_group_name_H-M "I M M M"
_symmetry_group_IT_number 71
_symmetry_cell_setting 'orthorhombic'
loop_
_space_group_symop_operation_xyz
x,y,z
-x,-y,z
x,-y,-z
-x,y,-z
-x,-y,-z
x,y,-z
-x,y,z
x,-y,z
1/2+x,1/2+y,1/2+z
1/2-x,1/2-y,1/2+z
1/2+x,1/2-y,1/2-z
1/2-x,1/2+y,1/2-z
1/2-x,1/2-y,1/2-z
1/2+x,1/2+y,1/2-z
1/2-x,1/2+y,1/2+z
1/2+x,1/2-y,1/2+z
loop_
_atom_site_type_symbol
_atom_site_label
_atom_site_fract_x
_atom_site_fract_y
_atom_site_fract_z
Si Si1 0.887637 0.372057 0.762326
Si Si2 0.740969 0.349005 0.346259
Si Si3 0.608365 0.217236 0.928823
Si Si4 0.113347 0.737388 0.847671
Si Si5 0.710740 0.932836 0.628020
Si Si6 0.732020 0.673052 0.928033
Si Si7 0.894218 0.431145 0.000000
Si Si8 0.113890 0.068536 0.070091
O O1 0.803888 0.376730 0.709893
O O2 0.883557 0.306751 0.789650
O O3 0.859906 0.421742 0.813396
O O4 0.000000 0.385536 0.739057
O O5 0.818668 0.326202 0.395522
O O6 0.666794 0.297205 0.325151
O O7 0.679130 0.400244 0.378108
O O8 0.500000 0.210442 0.898931
O O9 0.638013 0.285098 0.921759
O O10 0.607976 0.198091 0.000000
O O11 0.170226 0.708809 0.906095
O O12 0.000000 0.750670 0.867209
O O13 0.794252 0.882062 0.619610
O O14 0.655354 0.913882 0.564705
O O15 0.750039 0.000000 0.628029
O O16 0.748068 0.653585 0.000000
O O17 0.905677 0.500000 0.000000
O O18 0.000000 0.399671 0.000000
O O19 0.000000 0.083109 0.083761
O O20 0.134393 0.000000 0.076219
O O21 0.140800 0.089691 0.000000
#
# Coordination Sequence:
#
# PCOD8288798 Si02
#       8
#    16  16  16  16  16  16   8  16
#     4  10  21  34  47  69 104 140 174 214 257 302
#     4  11  19  32  55  78  99 134 176 210 246 305
#     4   9  18  32  51  75 103 132 166 211 256 300
#     4   9  19  33  48  72 104 133 164 209 262 310
#     4  10  19  32  49  70  99 135 173 215 258 303
#     4   9  17  30  48  75 104 132 168 209 259 310
#     4   9  16  26  44  68  91 123 167 207 249 302
#     4   9  19  36  57  82 110 136 163 202 254 307
#
# _framework density 18.09029
#
# number of rings (size 3 to 8) (size 9 to 14) (size 15 to 20)
#    0.000    2.467    0.667    2.400    0.000    2.667 
#    0.000    0.000    0.000    4.800    0.000    6.533 
#    0.000    0.000    0.000    0.000    0.000    0.000 
#
# Total GULP energy -743449.301997 kJ/mol
# GULP energy per Si atom -12390.821700 kJ/mol
# Density = 1.804912 g / cm^3
# Si number density = 18.090290 Si / 1000 Ang^3
#
#
#
# Elastic Constant Matrix: (Units=GPa)
#
#
# Indices 1 2 3 4 5 6 
#
# 1 91.8086 34.8647 43.4295 0.0000 0.0000 0.0000
# 2 34.8647 76.7014 41.9439 0.0000 0.0000 0.0000
# 3 43.4295 41.9439 83.0506 0.0000 0.0000 0.0000
# 4 0.0000 0.0000 0.0000 19.9381 0.0000 0.0000
# 5 0.0000 0.0000 0.0000 0.0000 25.3166 0.0000
# 6 0.0000 0.0000 0.0000 0.0000 0.0000 18.2233
#
#
#
# Elastic Compliance Matrix: (Units=1/GPa)
#
#
# Indices 1 2 3 4 5 6 
#
# 1 0.015132 -0.003524 -0.006133 0.000000 0.000000 0.000000
# 2 -0.003524 0.018833 -0.007668 0.000000 0.000000 0.000000
# 3 -0.006133 -0.007668 0.019121 0.000000 0.000000 0.000000
# 4 0.000000 0.000000 0.000000 0.050155 0.000000 0.000000
# 5 0.000000 0.000000 0.000000 0.000000 0.039500 0.000000
# 6 0.000000 0.000000 0.000000 0.000000 0.000000 0.054875
#
#
# Mechanical properties :
#
#
# Convention : Reuss Voigt Hill
#
# Bulk Modulus (GPa) = 54.24713 54.67077 54.45895
# Shear Modulus (GPa) = 20.97215 21.45044 21.21130
#
# Velocity S-wave (km/s) = 3.40855 3.44720 3.42793
# Velocity P-wave (km/s) = 6.74855 6.79197 6.77030
#
# Compressibility (1/GPa) = 0.01843416
#
# Stress axis : x y z
#
# Youngs Moduli (GPa) = 66.08622 53.09812 52.29919
#
# Poissons Ratio (x) = 0.18714 0.32074
# Poissons Ratio (y) = 0.23292 0.40105
# Poissons Ratio (z) = 0.40530 0.40718
#
# Static dielectric constant tensor:
#      x y z
#    x 3.423760 0.000000 0.000000 
#    y 0.000000 3.336010 0.000000 
#    z 0.000000 0.000000 3.433870 
# 
# 
# High freq. dielectric constant tensor:
#      x y z
#    x 1.686030 0.000000 0.000000 
#    y 0.000000 1.700300 0.000000 
#    z 0.000000 0.000000 1.695300 
# 
# From -- ./inp_files/52261.got.cif
#   From: 2010.06.25/outbox.cif.g09.slc.cpg/sg71_27_cif.got.tgz:52261.got - 2010.06.28 04:59:45.
