data_PCOD8288675
_publ_section_title
;
Structure prediction by ZEFSAII (Michael W. Deem and Ramdas Pophale) SiO2 
 PCOD8288675
Probable space group: I M M M
;
_chemical_formula_sum "Si O2"
_cell_formula_units_Z 88
_cell_length_a 7.710616
_cell_length_b 36.651398
_cell_length_c 17.741421
_cell_angle_alpha 90.000000
_cell_angle_beta 90.000000
_cell_angle_gamma 90.000000
_cell_volume 5013.811724
_symmetry_space_group_name_H-M "I M M M"
_symmetry_group_IT_number 71
_symmetry_cell_setting 'orthorhombic'
loop_
_space_group_symop_operation_xyz
x,y,z
-x,-y,z
x,-y,-z
-x,y,-z
-x,-y,-z
x,y,-z
-x,y,z
x,-y,z
1/2+x,1/2+y,1/2+z
1/2-x,1/2-y,1/2+z
1/2+x,1/2-y,1/2-z
1/2-x,1/2+y,1/2-z
1/2-x,1/2-y,1/2-z
1/2+x,1/2+y,1/2-z
1/2-x,1/2+y,1/2+z
1/2+x,1/2-y,1/2+z
loop_
_atom_site_type_symbol
_atom_site_label
_atom_site_fract_x
_atom_site_fract_y
_atom_site_fract_z
Si Si1 0.703621 0.217566 0.914052
Si Si2 0.500000 0.848115 0.583401
Si Si3 0.700179 0.702101 0.865735
Si Si4 0.690108 0.542999 0.082682
Si Si5 0.500000 0.957314 0.690112
Si Si6 0.000000 0.383658 0.756760
Si Si7 0.192536 0.834917 0.788462
O O1 0.500000 0.211798 0.906763
O O2 0.758047 0.256611 0.880876
O O3 0.796168 0.185681 0.867782
O O4 0.766807 0.214725 0.000000
O O5 0.500000 0.866914 0.500000
O O6 0.325616 0.823973 0.586954
O O7 0.500000 0.876729 0.652561
O O8 0.500000 0.695459 0.890759
O O9 0.728392 0.694492 0.777229
O O10 0.500000 0.557249 0.108676
O O11 0.687734 0.500000 0.075177
O O12 0.831467 0.554143 0.143039
O O13 0.735384 0.559400 0.000000
O O14 0.500000 0.927786 0.757911
O O15 0.500000 0.000000 0.716030
O O16 0.169892 0.367553 0.716793
O O17 0.000000 0.851866 0.780461
#
# Coordination Sequence:
#
# PCOD8288675 Si02
#       7
#    16   8  16  16   8   8  16
#     4  10  19  31  50  76 104 129 163 211 250 279
#     4  10  20  32  48  68  95 134 172 210 253 285
#     4   9  19  33  49  70  98 132 171 209 244 284
#     4   8  14  25  42  67  97 122 147 187 241 297
#     4  10  19  31  51  71  89 121 163 211 256 300
#     4  10  22  38  49  67 100 127 168 210 251 313
#     4  10  20  35  53  69  96 139 169 196 244 300
#
# _framework density 17.551517
#
# number of rings (size 3 to 8) (size 9 to 14) (size 15 to 20)
#    0.000    2.545    0.909    1.909    1.273    4.000 
#    0.000    0.000    0.000    0.000    0.000    0.000 
#    0.000    1.455    0.000    1.636    0.000    0.000 
#
# Total GULP energy -545352.540661 kJ/mol
# GULP energy per Si atom -12394.375924 kJ/mol
# Density = 1.751157 g / cm^3
# Si number density = 17.551517 Si / 1000 Ang^3
#
#
#
# Elastic Constant Matrix: (Units=GPa)
#
#
# Indices 1 2 3 4 5 6 
#
# 1 95.7958 40.1498 23.6385 0.0000 0.0000 0.0000
# 2 40.1498 88.2518 29.2139 0.0000 0.0000 0.0000
# 3 23.6385 29.2139 66.0777 0.0002 0.0001 0.0000
# 4 0.0000 0.0000 0.0002 12.2057 0.0000 0.0000
# 5 0.0000 0.0000 0.0001 0.0000 31.0179 0.0000
# 6 0.0000 0.0000 0.0000 0.0000 0.0000 11.9014
#
#
#
# Elastic Compliance Matrix: (Units=1/GPa)
#
#
# Indices 1 2 3 4 5 6 
#
# 1 0.013222 -0.005212 -0.002426 0.000000 0.000000 0.000000
# 2 -0.005212 0.015329 -0.004912 0.000000 0.000000 0.000000
# 3 -0.002426 -0.004912 0.018173 0.000000 0.000000 0.000000
# 4 0.000000 0.000000 0.000000 0.081929 0.000000 0.000000
# 5 0.000000 0.000000 0.000000 0.000000 0.032239 0.000000
# 6 0.000000 0.000000 0.000000 0.000000 0.000000 0.084024
#
#
# Mechanical properties :
#
#
# Convention : Reuss Voigt Hill
#
# Bulk Modulus (GPa) = 46.24631 48.45887 47.35259
# Shear Modulus (GPa) = 18.03589 21.49984 19.76787
#
# Velocity S-wave (km/s) = 3.20909 3.50373 3.35965
# Velocity P-wave (km/s) = 6.33539 6.63609 6.48748
#
# Compressibility (1/GPa) = 0.02162335
#
# Stress axis : x y z
#
# Youngs Moduli (GPa) = 75.63148 65.23706 55.02592
#
# Poissons Ratio (x) = 0.34004 0.13347
# Poissons Ratio (y) = 0.39422 0.27031
# Poissons Ratio (z) = 0.18345 0.32047
#
# Static dielectric constant tensor:
#      x y z
#    x 3.775350 0.000000 0.000000 
#    y 0.000000 2.939920 0.000000 
#    z 0.000000 0.000000 3.063760 
# 
# 
# High freq. dielectric constant tensor:
#      x y z
#    x 1.699040 0.000000 0.000000 
#    y 0.000000 1.644700 0.000000 
#    z 0.000000 0.000000 1.643930 
# 
# From -- ./inp_files/42528.got.cif
#   From: 2010.06.25/outbox.cif.g09.slc.cpg/sg71_22_cif.got.tgz:42528.got - 2010.06.28 04:59:45.
