data_PCOD8288686
_publ_section_title
;
Structure prediction by ZEFSAII (Michael W. Deem and Ramdas Pophale) SiO2 
 PCOD8288686
Probable space group: I M M M
;
_chemical_formula_sum "Si O2"
_cell_formula_units_Z 104
_cell_length_a 14.363865
_cell_length_b 22.443767
_cell_length_c 17.352362
_cell_angle_alpha 90.000000
_cell_angle_beta 90.000000
_cell_angle_gamma 90.000000
_cell_volume 5594.041261
_symmetry_space_group_name_H-M "I M M M"
_symmetry_group_IT_number 71
_symmetry_cell_setting 'orthorhombic'
loop_
_space_group_symop_operation_xyz
x,y,z
-x,-y,z
x,-y,-z
-x,y,-z
-x,-y,-z
x,y,-z
-x,y,z
x,-y,z
1/2+x,1/2+y,1/2+z
1/2-x,1/2-y,1/2+z
1/2+x,1/2-y,1/2-z
1/2-x,1/2+y,1/2-z
1/2-x,1/2-y,1/2-z
1/2+x,1/2+y,1/2-z
1/2-x,1/2+y,1/2+z
1/2+x,1/2-y,1/2+z
loop_
_atom_site_type_symbol
_atom_site_label
_atom_site_fract_x
_atom_site_fract_y
_atom_site_fract_z
Si Si1 0.713107 0.435443 0.592189
Si Si2 0.221640 0.837707 0.585928
Si Si3 0.108501 0.700854 0.168106
Si Si4 0.888881 0.929484 0.500000
Si Si5 0.106133 0.735405 0.660166
Si Si6 0.100128 0.614530 0.588942
Si Si7 0.891375 0.822190 0.086853
O O1 0.710142 0.433239 0.500000
O O2 0.677119 0.500000 0.621528
O O3 0.818583 0.426661 0.623480
O O4 0.651124 0.381843 0.625530
O O5 0.236408 0.810366 0.500000
O O6 0.323331 0.847593 0.626467
O O7 0.161089 0.899114 0.575558
O O8 0.167739 0.792517 0.641690
O O9 0.129227 0.704342 0.258368
O O10 0.138673 0.765109 0.135166
O O11 0.000000 0.685517 0.149933
O O12 0.000000 0.916085 0.500000
O O13 0.869540 0.000000 0.500000
O O14 0.125388 0.684289 0.597377
O O15 0.000000 0.757826 0.658990
O O16 0.090449 0.599899 0.500000
O O17 0.000000 0.601011 0.629937
O O18 0.000000 0.831764 0.088727
O O19 0.854645 0.813567 0.000000
#
# Coordination Sequence:
#
# PCOD8288686 Si02
#       7
#    16  16  16   8  16  16  16
#     4   9  17  28  42  61  86 119 160 201 240 281
#     4  10  20  31  55  80 105 139 177 221 268 328
#     4  10  20  33  50  77 111 143 171 210 267 333
#     4   9  20  38  59  85 111 135 175 230 280 322
#     4  10  19  31  50  77 109 138 171 215 270 331
#     4   9  17  28  44  68  98 126 159 208 258 305
#     4   9  17  29  46  67  95 127 163 205 247 289
#
# _framework density 18.59121
#
# number of rings (size 3 to 8) (size 9 to 14) (size 15 to 20)
#    0.462    2.077    0.000    2.769    0.000    3.385 
#    0.000    3.077    0.000    4.615    0.000    4.308 
#    0.000    0.000    0.000    0.000    0.000    0.000 
#
# Total GULP energy -644224.605705 kJ/mol
# GULP energy per Si atom -12388.934725 kJ/mol
# Density = 1.854890 g / cm^3
# Si number density = 18.591210 Si / 1000 Ang^3
#
#
#
# Elastic Constant Matrix: (Units=GPa)
#
#
# Indices 1 2 3 4 5 6 
#
# 1 78.0912 40.7313 28.9008 0.0000 0.0000 0.0000
# 2 40.7313 67.5715 6.9613 -0.0001 0.0000 0.0000
# 3 28.9008 6.9613 43.5955 -0.0002 0.0000 0.0000
# 4 0.0000 -0.0001 -0.0002 7.7209 0.0000 0.0000
# 5 0.0000 0.0000 0.0000 0.0000 24.2771 0.0000
# 6 0.0000 0.0000 0.0000 0.0000 0.0000 26.2523
#
#
#
# Elastic Compliance Matrix: (Units=1/GPa)
#
#
# Indices 1 2 3 4 5 6 
#
# 1 0.025442 -0.013826 -0.014659 -0.000001 0.000000 0.000000
# 2 -0.013826 0.022560 0.005563 0.000000 0.000000 0.000000
# 3 -0.014659 0.005563 0.031767 0.000001 0.000000 0.000000
# 4 -0.000001 0.000000 0.000001 0.129518 0.000000 0.000000
# 5 0.000000 0.000000 0.000000 0.000000 0.041191 0.000000
# 6 0.000000 0.000000 0.000000 0.000000 0.000000 0.038092
#
#
# Mechanical properties :
#
#
# Convention : Reuss Voigt Hill
#
# Bulk Modulus (GPa) = 29.47504 38.04948 33.76226
# Shear Modulus (GPa) = 14.46249 19.16105 16.81177
#
# Velocity S-wave (km/s) = 2.79215 3.21386 3.01040
# Velocity P-wave (km/s) = 5.12674 5.85514 5.50301
#
# Compressibility (1/GPa) = 0.03392701
#
# Stress axis : x y z
#
# Youngs Moduli (GPa) = 39.30513 44.32597 31.47879
#
# Poissons Ratio (x) = 0.61285 0.46143
# Poissons Ratio (y) = 0.54343 -0.17513
# Poissons Ratio (z) = 0.57616 -0.24660
#
# Static dielectric constant tensor:
#      x y z
#    x 3.782080 0.000000 0.000000 
#    y 0.000000 3.265470 0.000000 
#    z 0.000000 0.000000 3.181000 
# 
# 
# High freq. dielectric constant tensor:
#      x y z
#    x 1.741350 0.000000 0.000000 
#    y 0.000000 1.690190 0.000000 
#    z 0.000000 0.000000 1.684170 
# 
# From -- ./inp_files/53380.got.cif
#   From: 2010.06.25/outbox.cif.g09.slc.cpg/sg71_27_cif.got.tgz:53380.got - 2010.06.28 04:59:45.
