data_PCOD8288331
_publ_section_title
;
Structure prediction by ZEFSAII (Michael W. Deem and Ramdas Pophale) SiO2 
 PCOD8288331
Probable space group: I M M M
;
_chemical_formula_sum "Si O2"
_cell_formula_units_Z 80
_cell_length_a 23.394410
_cell_length_b 24.475848
_cell_length_c 9.000842
_cell_angle_alpha 90.000000
_cell_angle_beta 90.000000
_cell_angle_gamma 90.000000
_cell_volume 5153.864336
_symmetry_space_group_name_H-M "I M M M"
_symmetry_group_IT_number 71
_symmetry_cell_setting 'orthorhombic'
loop_
_space_group_symop_operation_xyz
x,y,z
-x,-y,z
x,-y,-z
-x,y,-z
-x,-y,-z
x,y,-z
-x,y,z
x,-y,z
1/2+x,1/2+y,1/2+z
1/2-x,1/2-y,1/2+z
1/2+x,1/2-y,1/2-z
1/2-x,1/2+y,1/2-z
1/2-x,1/2-y,1/2-z
1/2+x,1/2+y,1/2-z
1/2-x,1/2+y,1/2+z
1/2+x,1/2-y,1/2+z
loop_
_atom_site_type_symbol
_atom_site_label
_atom_site_fract_x
_atom_site_fract_y
_atom_site_fract_z
Si Si1 0.161408 0.727120 0.672935
Si Si2 0.885631 0.561551 0.326398
Si Si3 0.565250 0.163383 0.328870
Si Si4 0.233419 0.173928 0.670386
Si Si5 0.732943 0.059527 0.330213
O O1 0.151169 0.716534 0.500000
O O2 0.103946 0.710703 0.757428
O O3 0.176668 0.790839 0.707683
O O4 0.214291 0.690361 0.724893
O O5 0.887913 0.573783 0.500000
O O6 0.906769 0.500000 0.290357
O O7 0.926565 0.604319 0.245616
O O8 0.820940 0.569859 0.274133
O O9 0.582153 0.157747 0.500000
O O10 0.500000 0.181761 0.307432
O O11 0.251422 0.185800 0.500000
O O12 0.221749 0.108962 0.695826
O O13 0.711087 0.060790 0.500000
O O14 0.761094 0.000000 0.294699
#
# Coordination Sequence:
#
# PCOD8288331 Si02
#       5
#    16  16  16  16  16
#     4  10  19  30  46  67  89 116 149 185 226 265
#     4  10  20  32  46  65  88 114 149 191 229 264
#     4  11  23  36  48  62  84 116 155 195 231 270
#     4   9  17  29  46  68  93 118 146 179 218 271
#     4   9  16  27  45  67  92 121 148 176 214 261
#
# _framework density 15.522334000000001
#
# number of rings (size 3 to 8) (size 9 to 14) (size 15 to 20)
#    0.000    2.200    2.000    1.800    0.000    4.000 
#    0.000    2.000    0.000    0.000    0.000    0.000 
#    0.000    0.800    0.000   10.000    0.000    1.600 
#
# Total GULP energy -495765.945312 kJ/mol
# GULP energy per Si atom -12394.148633 kJ/mol
# Density = 1.548700 g / cm^3
# Si number density = 15.522334 Si / 1000 Ang^3
#
#
#
# Elastic Constant Matrix: (Units=GPa)
#
#
# Indices 1 2 3 4 5 6 
#
# 1 66.5307 56.7986 42.2524 0.0000 0.0000 0.0000
# 2 56.7986 126.8213 45.3218 0.0000 0.0000 0.0000
# 3 42.2524 45.3218 87.7157 0.0000 0.0000 0.0000
# 4 0.0000 0.0000 0.0000 20.5830 0.0000 0.0000
# 5 0.0000 0.0000 0.0000 0.0000 19.5923 0.0000
# 6 0.0000 0.0000 0.0000 0.0000 0.0000 22.3204
#
#
#
# Elastic Compliance Matrix: (Units=1/GPa)
#
#
# Indices 1 2 3 4 5 6 
#
# 1 0.029109 -0.009844 -0.008936 0.000000 0.000000 0.000000
# 2 -0.009844 0.013000 -0.001975 0.000000 0.000000 0.000000
# 3 -0.008936 -0.001975 0.016725 0.000000 0.000000 0.000000
# 4 0.000000 0.000000 0.000000 0.048584 0.000000 0.000000
# 5 0.000000 0.000000 0.000000 0.000000 0.051040 0.000000
# 6 0.000000 0.000000 0.000000 0.000000 0.000000 0.044802
#
#
# Mechanical properties :
#
#
# Convention : Reuss Voigt Hill
#
# Bulk Modulus (GPa) = 57.71945 63.31260 60.51602
# Shear Modulus (GPa) = 19.95653 21.61213 20.78433
#
# Velocity S-wave (km/s) = 3.58951 3.73543 3.66320
# Velocity P-wave (km/s) = 7.37868 7.71241 7.54739
#
# Compressibility (1/GPa) = 0.01732518
#
# Stress axis : x y z
#
# Youngs Moduli (GPa) = 34.35327 76.92573 59.78966
#
# Poissons Ratio (x) = 0.75723 0.53427
# Poissons Ratio (y) = 0.33816 0.11809
# Poissons Ratio (z) = 0.30697 0.15193
#
# Static dielectric constant tensor:
#      x y z
#    x 2.619000 0.000000 0.000000 
#    y 0.000000 3.372210 0.000000 
#    z 0.000000 0.000000 3.118810 
# 
# 
# High freq. dielectric constant tensor:
#      x y z
#    x 1.541170 0.000000 0.000000 
#    y 0.000000 1.603980 0.000000 
#    z 0.000000 0.000000 1.611040 
# 
# From -- ./inp_files/8276.got.cif
#   From: 2010.06.25/outbox.cif.g09.slc.cpg/sg71_5_cif.got.tgz:8276.got - 2010.06.28 04:59:45.
