data_PCOD8288697
_publ_section_title
;
Structure prediction by ZEFSAII (Michael W. Deem and Ramdas Pophale) SiO2 
 PCOD8288697
Probable space group: I M M M
;
_chemical_formula_sum "Si O2"
_cell_formula_units_Z 96
_cell_length_a 17.928429
_cell_length_b 17.726868
_cell_length_c 16.958429
_cell_angle_alpha 90.000000
_cell_angle_beta 90.000000
_cell_angle_gamma 90.000000
_cell_volume 5389.641321
_symmetry_space_group_name_H-M "I M M M"
_symmetry_group_IT_number 71
_symmetry_cell_setting 'orthorhombic'
loop_
_space_group_symop_operation_xyz
x,y,z
-x,-y,z
x,-y,-z
-x,y,-z
-x,-y,-z
x,y,-z
-x,y,z
x,-y,z
1/2+x,1/2+y,1/2+z
1/2-x,1/2-y,1/2+z
1/2+x,1/2-y,1/2-z
1/2-x,1/2+y,1/2-z
1/2-x,1/2-y,1/2-z
1/2+x,1/2+y,1/2-z
1/2-x,1/2+y,1/2+z
1/2+x,1/2-y,1/2+z
loop_
_atom_site_type_symbol
_atom_site_label
_atom_site_fract_x
_atom_site_fract_y
_atom_site_fract_z
Si Si1 0.916303 0.236642 0.588852
Si Si2 0.775348 0.296845 0.674826
Si Si3 0.613666 0.583496 0.845123
Si Si4 0.500000 0.284482 0.409396
Si Si5 0.717780 0.914753 0.295964
Si Si6 0.000000 0.085213 0.788573
Si Si7 0.155144 0.708870 0.091473
O O1 0.899410 0.263057 0.500000
O O2 0.858363 0.275042 0.647905
O O3 0.909927 0.145674 0.591162
O O4 0.000000 0.261042 0.613761
O O5 0.750000 0.250000 0.750000
O O6 0.779024 0.383300 0.705449
O O7 0.714660 0.277034 0.607488
O O8 0.589463 0.500000 0.874891
O O9 0.701168 0.587285 0.833504
O O10 0.573636 0.602055 0.762599
O O11 0.500000 0.307697 0.500000
O O12 0.500000 0.362458 0.363804
O O13 0.427421 0.236316 0.387587
O O14 0.667075 0.864121 0.353545
O O15 0.686292 0.000000 0.292703
O O16 0.000000 0.000000 0.820057
O O17 0.162744 0.685431 0.000000
#
# Coordination Sequence:
#
# PCOD8288697 Si02
#       7
#    16  16  16   8  16   8  16
#     4  11  22  34  53  82 114 146 180 221 272 330
#     4  10  19  35  56  80 103 142 183 224 264 320
#     4  10  19  31  50  79 111 143 178 216 263 321
#     4  10  22  35  53  81 109 142 184 232 278 320
#     4  10  21  35  53  79 106 138 180 228 275 321
#     4  10  20  33  53  79 113 150 178 214 264 326
#     4  10  20  35  56  80 107 140 179 225 273 323
#
# _framework density 17.811945000000001
#
# number of rings (size 3 to 8) (size 9 to 14) (size 15 to 20)
#    0.000    1.833    4.167    1.500    2.333    0.833 
#    0.000    2.917    0.000    4.500    0.000    1.167 
#    0.000    0.000    0.000    0.000    0.000    0.000 
#
# Total GULP energy -595000.586129 kJ/mol
# GULP energy per Si atom -12395.845544 kJ/mol
# Density = 1.777140 g / cm^3
# Si number density = 17.811945 Si / 1000 Ang^3
#
#
#
# Elastic Constant Matrix: (Units=GPa)
#
#
# Indices 1 2 3 4 5 6 
#
# 1 119.1195 36.6365 41.5290 0.0000 0.0000 0.0000
# 2 36.6365 101.4502 46.7605 0.0000 0.0000 0.0000
# 3 41.5290 46.7605 64.4934 0.0000 0.0000 0.0000
# 4 0.0000 0.0000 0.0000 25.1135 0.0000 0.0000
# 5 0.0000 0.0000 0.0000 0.0000 28.7315 0.0000
# 6 0.0000 0.0000 0.0000 0.0000 0.0000 19.0583
#
#
#
# Elastic Compliance Matrix: (Units=1/GPa)
#
#
# Indices 1 2 3 4 5 6 
#
# 1 0.010900 -0.001053 -0.006255 0.000000 0.000000 0.000000
# 2 -0.001053 0.014906 -0.010130 0.000000 0.000000 0.000000
# 3 -0.006255 -0.010130 0.026878 0.000000 0.000000 0.000000
# 4 0.000000 0.000000 0.000000 0.039819 0.000000 0.000000
# 5 0.000000 0.000000 0.000000 0.000000 0.034805 0.000000
# 6 0.000000 0.000000 0.000000 0.000000 0.000000 0.052471
#
#
# Mechanical properties :
#
#
# Convention : Reuss Voigt Hill
#
# Bulk Modulus (GPa) = 56.15415 59.43501 57.79458
# Shear Modulus (GPa) = 22.66653 25.25645 23.96149
#
# Velocity S-wave (km/s) = 3.57115 3.76965 3.67174
# Velocity P-wave (km/s) = 6.97128 7.23792 7.10585
#
# Compressibility (1/GPa) = 0.01780812
#
# Stress axis : x y z
#
# Youngs Moduli (GPa) = 91.74726 67.08574 37.20568
#
# Poissons Ratio (x) = 0.07065 0.23272
# Poissons Ratio (y) = 0.09662 0.37688
# Poissons Ratio (z) = 0.57388 0.67955
#
# Static dielectric constant tensor:
#      x y z
#    x 3.488740 0.000000 0.000000 
#    y 0.000000 3.596450 0.000000 
#    z 0.000000 0.000000 3.326570 
# 
# 
# High freq. dielectric constant tensor:
#      x y z
#    x 1.699620 0.000000 0.000000 
#    y 0.000000 1.669230 0.000000 
#    z 0.000000 0.000000 1.680190 
# 
# From -- ./inp_files/46059.got.cif
#   From: 2010.06.25/outbox.cif.g09.slc.cpg/sg71_24_cif.got.tgz:46059.got - 2010.06.28 04:59:45.
