data_PCOD8288450
_publ_section_title
;
Structure prediction by ZEFSAII (Michael W. Deem and Ramdas Pophale) SiO2 
 PCOD8288450
Probable space group: I M M M
;
_chemical_formula_sum "Si O2"
_cell_formula_units_Z 104
_cell_length_a 27.452688
_cell_length_b 9.780656
_cell_length_c 22.729710
_cell_angle_alpha 90.000000
_cell_angle_beta 90.000000
_cell_angle_gamma 90.000000
_cell_volume 6103.047548
_symmetry_space_group_name_H-M "I M M M"
_symmetry_group_IT_number 71
_symmetry_cell_setting 'orthorhombic'
loop_
_space_group_symop_operation_xyz
x,y,z
-x,-y,z
x,-y,-z
-x,y,-z
-x,-y,-z
x,y,-z
-x,y,z
x,-y,z
1/2+x,1/2+y,1/2+z
1/2-x,1/2-y,1/2+z
1/2+x,1/2-y,1/2-z
1/2-x,1/2+y,1/2-z
1/2-x,1/2-y,1/2-z
1/2+x,1/2+y,1/2-z
1/2-x,1/2+y,1/2+z
1/2+x,1/2-y,1/2+z
loop_
_atom_site_type_symbol
_atom_site_label
_atom_site_fract_x
_atom_site_fract_y
_atom_site_fract_z
Si Si1 0.199434 0.843818 0.690171
Si Si2 0.446393 0.500000 0.931319
Si Si3 0.554131 0.154673 0.779413
Si Si4 0.270669 0.333347 0.500000
Si Si5 0.649204 0.158811 0.280676
Si Si6 0.611585 0.747679 0.113990
Si Si7 0.162961 0.348482 0.500000
Si Si8 0.791304 0.342416 0.889526
O O1 0.190791 0.742140 0.744982
O O2 0.154893 0.829114 0.646032
O O3 0.247195 0.802586 0.653803
O O4 0.202992 0.000000 0.713047
O O5 0.500000 0.500000 0.906818
O O6 0.424134 0.635209 0.907713
O O7 0.441521 0.500000 0.000000
O O8 0.500000 0.227503 0.777065
O O9 0.594414 0.216503 0.733535
O O10 0.579438 0.156852 0.843587
O O11 0.544826 0.000000 0.761682
O O12 0.277122 0.500000 0.500000
O O13 0.215168 0.271959 0.500000
O O14 0.295635 0.266146 0.557511
O O15 0.659595 0.172926 0.350245
O O16 0.653386 0.000000 0.260540
O O17 0.631269 0.828660 0.058038
O O18 0.182368 0.500000 0.500000
O O19 0.785851 0.500000 0.912191
#
# Coordination Sequence:
#
# PCOD8288450 Si02
#       8
#    16   8  16   8  16  16   8  16
#     4  10  19  30  49  73  99 131 167 204 248 297
#     4  11  22  32  44  62  88 128 176 221 254 286
#     4   9  18  33  52  73  96 125 162 205 252 296
#     4  11  23  35  51  77 103 136 170 207 251 295
#     4   9  19  33  52  74 101 133 165 205 251 298
#     4  11  19  33  48  66  94 128 170 207 253 293
#     4  11  22  34  48  69  96 129 172 215 254 296
#     4  10  20  35  51  74 103 134 168 202 248 303
#
# _framework density 17.040668
#
# number of rings (size 3 to 8) (size 9 to 14) (size 15 to 20)
#    0.000    1.923    3.077    1.615    0.000    1.846 
#    1.385    0.000    0.000    1.846    0.000    0.538 
#    0.000    4.308    0.000    0.000    0.000    0.000 
#
# Total GULP energy -644266.677286 kJ/mol
# GULP energy per Si atom -12389.743794 kJ/mol
# Density = 1.700188 g / cm^3
# Si number density = 17.040668 Si / 1000 Ang^3
#
#
#
# Elastic Constant Matrix: (Units=GPa)
#
#
# Indices 1 2 3 4 5 6 
#
# 1 81.7491 16.5269 52.8680 0.0000 0.0000 0.0000
# 2 16.5269 68.5993 41.1623 0.0000 0.0000 0.0000
# 3 52.8680 41.1623 100.1297 0.0000 0.0000 0.0000
# 4 0.0000 0.0000 0.0000 27.6716 0.0000 0.0000
# 5 0.0000 0.0000 0.0000 0.0000 8.7774 0.0000
# 6 0.0000 0.0000 0.0000 0.0000 0.0000 21.5947
#
#
#
# Elastic Compliance Matrix: (Units=1/GPa)
#
#
# Indices 1 2 3 4 5 6 
#
# 1 0.018758 0.001890 -0.010681 0.000000 0.000000 0.000000
# 2 0.001890 0.019541 -0.009031 0.000000 0.000000 0.000000
# 3 -0.010681 -0.009031 0.019339 0.000000 0.000000 0.000000
# 4 0.000000 0.000000 0.000000 0.036138 0.000000 0.000000
# 5 0.000000 0.000000 0.000000 0.000000 0.113929 0.000000
# 6 0.000000 0.000000 0.000000 0.000000 0.000000 0.046308
#
#
# Mechanical properties :
#
#
# Convention : Reuss Voigt Hill
#
# Bulk Modulus (GPa) = 45.46712 52.39917 48.93314
# Shear Modulus (GPa) = 16.83565 20.93680 18.88623
#
# Velocity S-wave (km/s) = 3.14661 3.50899 3.33273
# Velocity P-wave (km/s) = 6.31989 6.87267 6.60207
#
# Compressibility (1/GPa) = 0.02199391
#
# Stress axis : x y z
#
# Youngs Moduli (GPa) = 53.31049 51.17434 51.70858
#
# Poissons Ratio (x) = -0.09671 0.55230
# Poissons Ratio (y) = -0.10075 0.46698
# Poissons Ratio (z) = 0.56941 0.46215
#
# Static dielectric constant tensor:
#      x y z
#    x 3.508170 0.000000 0.000000 
#    y 0.000000 3.086880 0.000000 
#    z 0.000000 0.000000 3.045630 
# 
# 
# High freq. dielectric constant tensor:
#      x y z
#    x 1.652990 0.000000 0.000000 
#    y 0.000000 1.649900 0.000000 
#    z 0.000000 0.000000 1.643290 
# 
# From -- ./inp_files/15360.got.cif
#   From: 2010.06.25/outbox.cif.g09.slc.cpg/sg71_8_cif.got.tgz:15360.got - 2010.06.28 04:59:45.
