data_PCOD8288561
_publ_section_title
;
Structure prediction by ZEFSAII (Michael W. Deem and Ramdas Pophale) SiO2 
 PCOD8288561
Probable space group: I M M M
;
_chemical_formula_sum "Si O2"
_cell_formula_units_Z 80
_cell_length_a 12.404902
_cell_length_b 27.550715
_cell_length_c 13.954058
_cell_angle_alpha 90.000000
_cell_angle_beta 90.000000
_cell_angle_gamma 90.000000
_cell_volume 4768.993556
_symmetry_space_group_name_H-M "I M M M"
_symmetry_group_IT_number 71
_symmetry_cell_setting 'orthorhombic'
loop_
_space_group_symop_operation_xyz
x,y,z
-x,-y,z
x,-y,-z
-x,y,-z
-x,-y,-z
x,y,-z
-x,y,z
x,-y,z
1/2+x,1/2+y,1/2+z
1/2-x,1/2-y,1/2+z
1/2+x,1/2-y,1/2-z
1/2-x,1/2+y,1/2-z
1/2-x,1/2-y,1/2-z
1/2+x,1/2+y,1/2-z
1/2-x,1/2+y,1/2+z
1/2+x,1/2-y,1/2+z
loop_
_atom_site_type_symbol
_atom_site_label
_atom_site_fract_x
_atom_site_fract_y
_atom_site_fract_z
Si Si1 0.287792 0.889109 0.887140
Si Si2 0.500000 0.945571 0.886427
Si Si3 0.627623 0.500000 0.892537
Si Si4 0.628331 0.683213 0.893326
Si Si5 0.372370 0.407607 0.771175
Si Si6 0.619188 0.211205 0.886559
O O1 0.393702 0.917594 0.851418
O O2 0.184692 0.910526 0.832042
O O3 0.301405 0.832500 0.858196
O O4 0.267403 0.896133 0.000000
O O5 0.500000 0.000000 0.843833
O O6 0.500000 0.946775 0.000000
O O7 0.500000 0.500000 0.900467
O O8 0.666461 0.547514 0.835908
O O9 0.677159 0.500000 0.000000
O O10 0.500000 0.682857 0.898332
O O11 0.668972 0.641106 0.823357
O O12 0.666369 0.736218 0.853834
O O13 0.674938 0.673448 0.000000
O O14 0.500000 0.408298 0.753829
O O15 0.500000 0.202174 0.841841
O O16 0.605961 0.212551 0.000000
#
# Coordination Sequence:
#
# PCOD8288561 Si02
#       6
#    16   8   8  16  16  16
#     4  10  19  31  48  69  97 127 155 190 229 272
#     4   9  18  32  50  68  86 116 160 203 229 253
#     4   9  18  34  53  68  89 118 153 196 231 263
#     4   8  14  26  46  69  93 119 154 201 242 272
#     4  10  20  31  45  71  99 125 154 184 229 288
#     4   8  13  25  45  68  92 119 154 199 242 269
#
# _framework density 16.775027999999999
#
# number of rings (size 3 to 8) (size 9 to 14) (size 15 to 20)
#    0.000    3.000    1.000    1.800    1.400    3.600 
#    0.000    0.000    0.000    1.800    0.000    3.500 
#    0.000    0.000    0.000    0.000    0.000    0.000 
#
# Total GULP energy -495728.235788 kJ/mol
# GULP energy per Si atom -12393.205895 kJ/mol
# Density = 1.673685 g / cm^3
# Si number density = 16.775028 Si / 1000 Ang^3
#
#
#
# Elastic Constant Matrix: (Units=GPa)
#
#
# Indices 1 2 3 4 5 6 
#
# 1 50.9258 35.9464 39.6261 0.0001 0.0000 0.0000
# 2 35.9464 142.0719 50.5458 -0.0001 0.0001 0.0000
# 3 39.6261 50.5458 77.0296 0.0002 0.0003 0.0004
# 4 0.0001 -0.0001 0.0002 19.6092 0.0000 0.0000
# 5 0.0000 0.0001 0.0003 0.0000 18.3624 -0.0001
# 6 0.0000 0.0000 0.0004 0.0000 -0.0001 10.3875
#
#
#
# Elastic Compliance Matrix: (Units=1/GPa)
#
#
# Indices 1 2 3 4 5 6 
#
# 1 0.033746 -0.003081 -0.015338 0.000000 0.000000 0.000001
# 2 -0.003081 0.009464 -0.004625 0.000000 0.000000 0.000000
# 3 -0.015338 -0.004625 0.023907 0.000000 0.000000 -0.000001
# 4 0.000000 0.000000 0.000000 0.050996 0.000000 0.000000
# 5 0.000000 0.000000 0.000000 0.000000 0.054459 0.000000
# 6 0.000001 0.000000 -0.000001 0.000000 0.000000 0.096270
#
#
# Mechanical properties :
#
#
# Convention : Reuss Voigt Hill
#
# Bulk Modulus (GPa) = 47.55442 58.02932 52.79187
# Shear Modulus (GPa) = 15.53086 19.26577 17.39831
#
# Velocity S-wave (km/s) = 3.04605 3.39260 3.22398
# Velocity P-wave (km/s) = 6.38601 7.07206 6.73777
#
# Compressibility (1/GPa) = 0.02102854
#
# Stress axis : x y z
#
# Youngs Moduli (GPa) = 29.63313 105.66659 41.82884
#
# Poissons Ratio (x) = 0.32560 0.64156
# Poissons Ratio (y) = 0.09131 0.19345
# Poissons Ratio (z) = 0.45451 0.48869
#
# Static dielectric constant tensor:
#      x y z
#    x 2.724920 0.000000 0.000000 
#    y 0.000000 3.689020 0.000000 
#    z 0.000000 0.000000 2.879140 
# 
# 
# High freq. dielectric constant tensor:
#      x y z
#    x 1.600090 0.000000 0.000000 
#    y 0.000000 1.670650 0.000000 
#    z 0.000000 0.000000 1.616080 
# 
# From -- ./inp_files/20164.got.cif
#   From: 2010.06.25/outbox.cif.g09.slc.cpg/sg71_11_cif.got.tgz:20164.got - 2010.06.28 04:59:45.
