data_PCOD8288631
_publ_section_title
;
Structure prediction by ZEFSAII (Michael W. Deem and Ramdas Pophale) SiO2 
 PCOD8288631
Probable space group: I M M M
;
_chemical_formula_sum "Si O2"
_cell_formula_units_Z 104
_cell_length_a 22.381390
_cell_length_b 32.966261
_cell_length_c 7.833334
_cell_angle_alpha 90.000000
_cell_angle_beta 90.000000
_cell_angle_gamma 90.000000
_cell_volume 5779.674655
_symmetry_space_group_name_H-M "I M M M"
_symmetry_group_IT_number 71
_symmetry_cell_setting 'orthorhombic'
loop_
_space_group_symop_operation_xyz
x,y,z
-x,-y,z
x,-y,-z
-x,y,-z
-x,-y,-z
x,y,-z
-x,y,z
x,-y,z
1/2+x,1/2+y,1/2+z
1/2-x,1/2-y,1/2+z
1/2+x,1/2-y,1/2-z
1/2-x,1/2+y,1/2-z
1/2-x,1/2-y,1/2-z
1/2+x,1/2+y,1/2-z
1/2-x,1/2+y,1/2+z
1/2+x,1/2-y,1/2+z
loop_
_atom_site_type_symbol
_atom_site_label
_atom_site_fract_x
_atom_site_fract_y
_atom_site_fract_z
Si Si1 0.106940 0.399536 0.695933
Si Si2 0.570964 0.248498 0.500000
Si Si3 0.711148 0.954027 0.700781
Si Si4 0.000000 0.455583 0.298747
Si Si5 0.570968 0.300237 0.187115
Si Si6 0.652685 0.454273 0.799904
Si Si7 0.433663 0.614648 0.694102
Si Si8 0.428414 0.844544 0.500000
O O1 0.094923 0.384932 0.500000
O O2 0.171054 0.421250 0.701449
O O3 0.058575 0.431982 0.761646
O O4 0.101312 0.362357 0.827474
O O5 0.500000 0.251351 0.500000
O O6 0.597756 0.270437 0.331274
O O7 0.591148 0.202109 0.500000
O O8 0.701579 0.949093 0.500000
O O9 0.779270 0.944664 0.752205
O O10 0.694381 0.000000 0.756746
O O11 0.000000 0.500000 0.212322
O O12 0.000000 0.460008 0.500000
O O13 0.500000 0.301059 0.205435
O O14 0.593748 0.346644 0.206603
O O15 0.590710 0.284244 0.000000
O O16 0.636322 0.500000 0.743987
O O17 0.608837 0.423971 0.705092
O O18 0.644059 0.448929 0.000000
O O19 0.438583 0.628766 0.500000
O O20 0.500000 0.603182 0.763686
O O21 0.500000 0.850525 0.500000
#
# Coordination Sequence:
#
# PCOD8288631 Si02
#       8
#    16   8  16   8  16  16  16   8
#     4  11  21  34  52  75 104 137 178 219 265 321
#     4   9  18  32  50  74 105 134 169 211 260 320
#     4   9  18  34  54  73  99 136 179 225 266 303
#     4   9  18  31  47  71 102 135 175 218 255 307
#     4   9  16  29  50  75 102 133 170 212 257 308
#     4   9  19  34  50  73 106 141 181 223 259 307
#     4  10  19  31  49  74 109 143 176 218 260 308
#     4  11  22  36  52  76 110 143 169 213 274 324
#
# _framework density 17.994091999999998
#
# number of rings (size 3 to 8) (size 9 to 14) (size 15 to 20)
#    0.000    2.385    2.308    1.846    0.000    3.692 
#    0.000    5.000    0.000    0.000    0.000    1.077 
#    0.000    0.000    0.000    0.000    0.000    0.000 
#
# Total GULP energy -644640.041262 kJ/mol
# GULP energy per Si atom -12396.923870 kJ/mol
# Density = 1.795314 g / cm^3
# Si number density = 17.994092 Si / 1000 Ang^3
#
#
#
# Elastic Constant Matrix: (Units=GPa)
#
#
# Indices 1 2 3 4 5 6 
#
# 1 62.4396 45.2417 23.4236 0.0000 0.0000 0.0000
# 2 45.2417 126.5106 58.4763 0.0000 0.0000 0.0000
# 3 23.4236 58.4763 103.1610 0.0000 0.0000 0.0000
# 4 0.0000 0.0000 0.0000 25.0723 0.0000 0.0000
# 5 0.0000 0.0000 0.0000 0.0000 17.8733 0.0000
# 6 0.0000 0.0000 0.0000 0.0000 0.0000 10.6255
#
#
#
# Elastic Compliance Matrix: (Units=1/GPa)
#
#
# Indices 1 2 3 4 5 6 
#
# 1 0.021655 -0.007414 -0.000714 0.000000 0.000000 0.000000
# 2 -0.007414 0.013249 -0.005827 0.000000 0.000000 0.000000
# 3 -0.000714 -0.005827 0.013159 0.000000 0.000000 0.000000
# 4 0.000000 0.000000 0.000000 0.039885 0.000000 0.000000
# 5 0.000000 0.000000 0.000000 0.000000 0.055949 0.000000
# 6 0.000000 0.000000 0.000000 0.000000 0.000000 0.094113
#
#
# Mechanical properties :
#
#
# Convention : Reuss Voigt Hill
#
# Bulk Modulus (GPa) = 49.62102 60.71049 55.16576
# Shear Modulus (GPa) = 18.33931 21.71220 20.02576
#
# Velocity S-wave (km/s) = 3.19593 3.47743 3.33965
# Velocity P-wave (km/s) = 6.42299 7.06652 6.75242
#
# Compressibility (1/GPa) = 0.02015275
#
# Stress axis : x y z
#
# Youngs Moduli (GPa) = 46.17777 75.47688 75.99543
#
# Poissons Ratio (x) = 0.55959 0.05430
# Poissons Ratio (y) = 0.34236 0.44281
# Poissons Ratio (z) = 0.03299 0.43979
#
# Static dielectric constant tensor:
#      x y z
#    x 3.075490 0.000000 0.000000 
#    y 0.000000 3.296710 0.000000 
#    z 0.000000 0.000000 3.327990 
# 
# 
# High freq. dielectric constant tensor:
#      x y z
#    x 1.658910 0.000000 0.000000 
#    y 0.000000 1.684850 0.000000 
#    z 0.000000 0.000000 1.704800 
# 
# From -- ./inp_files/13362.got.cif
#   From: 2010.06.25/outbox.cif.g09.slc.cpg/sg71_7_cif.got.tgz:13362.got - 2010.06.28 04:59:45.
