data_PCOD8288351
_publ_section_title
;
Structure prediction by ZEFSAII (Michael W. Deem and Ramdas Pophale) SiO2 
 PCOD8288351
Probable space group: I M M M
;
_chemical_formula_sum "Si O2"
_cell_formula_units_Z 88
_cell_length_a 25.507626
_cell_length_b 9.006050
_cell_length_c 20.321188
_cell_angle_alpha 90.000000
_cell_angle_beta 90.000000
_cell_angle_gamma 90.000000
_cell_volume 4668.243359
_symmetry_space_group_name_H-M "I M M M"
_symmetry_group_IT_number 71
_symmetry_cell_setting 'orthorhombic'
loop_
_space_group_symop_operation_xyz
x,y,z
-x,-y,z
x,-y,-z
-x,y,-z
-x,-y,-z
x,y,-z
-x,y,z
x,-y,z
1/2+x,1/2+y,1/2+z
1/2-x,1/2-y,1/2+z
1/2+x,1/2-y,1/2-z
1/2-x,1/2+y,1/2-z
1/2-x,1/2-y,1/2-z
1/2+x,1/2+y,1/2-z
1/2-x,1/2+y,1/2+z
1/2+x,1/2-y,1/2+z
loop_
_atom_site_type_symbol
_atom_site_label
_atom_site_fract_x
_atom_site_fract_y
_atom_site_fract_z
Si Si1 0.939246 0.664337 0.125743
Si Si2 0.838251 0.673514 0.572417
Si Si3 0.937233 0.167280 0.000000
Si Si4 0.399421 0.670377 0.748143
Si Si5 0.296738 0.175454 0.789697
Si Si6 0.558292 0.669943 0.889564
O O1 0.913886 0.500000 0.135506
O O2 0.913934 0.746398 0.063003
O O3 0.932702 0.770674 0.187677
O O4 0.000000 0.643871 0.111773
O O5 0.813610 0.711071 0.500000
O O6 0.845888 0.500000 0.581642
O O7 0.801255 0.729756 0.633026
O O8 0.896565 0.740118 0.573809
O O9 0.000000 0.163024 0.000000
O O10 0.914876 0.000000 0.000000
O O11 0.381970 0.500000 0.736995
O O12 0.349115 0.775127 0.753331
O O13 0.436177 0.685839 0.811315
O O14 0.250000 0.250000 0.750000
O O15 0.289437 0.000000 0.785577
O O16 0.500000 0.728249 0.908981
O O17 0.564485 0.500000 0.911413
#
# Coordination Sequence:
#
# PCOD8288351 Si02
#       6
#    16  16   8  16  16  16
#     4  10  19  30  46  70 101 135 170 211 258 306
#     4   9  19  35  54  77 105 138 174 212 256 309
#     4   9  17  29  45  65  91 129 173 209 247 301
#     4  10  19  32  51  74 100 132 172 214 258 308
#     4  10  20  36  58  80 102 129 167 215 267 319
#     4   9  18  31  47  72 107 143 177 213 251 294
#
# _framework density 18.850774000000001
#
# number of rings (size 3 to 8) (size 9 to 14) (size 15 to 20)
#    0.000    2.455    0.000    2.455    0.000    5.455 
#    0.000    1.818    2.000    0.000    0.000    0.000 
#    0.000    0.000    0.000    0.000    0.000    0.000 
#
# Total GULP energy -545333.640259 kJ/mol
# GULP energy per Si atom -12393.946370 kJ/mol
# Density = 1.880787 g / cm^3
# Si number density = 18.850774 Si / 1000 Ang^3
#
#
#
# Elastic Constant Matrix: (Units=GPa)
#
#
# Indices 1 2 3 4 5 6 
#
# 1 68.0228 21.3929 27.1611 0.0000 0.0000 0.0000
# 2 21.3929 75.9637 47.7736 0.0000 0.0000 0.0000
# 3 27.1611 47.7736 120.8315 0.0000 0.0000 0.0000
# 4 0.0000 0.0000 0.0000 29.3778 0.0000 0.0000
# 5 0.0000 0.0000 0.0000 0.0000 17.6683 0.0000
# 6 0.0000 0.0000 0.0000 0.0000 0.0000 29.1472
#
#
#
# Elastic Compliance Matrix: (Units=1/GPa)
#
#
# Indices 1 2 3 4 5 6 
#
# 1 0.016687 -0.003115 -0.002519 0.000000 0.000000 0.000000
# 2 -0.003115 0.018102 -0.006457 0.000000 0.000000 0.000000
# 3 -0.002519 -0.006457 0.011395 0.000000 0.000000 0.000000
# 4 0.000000 0.000000 0.000000 0.034039 0.000000 0.000000
# 5 0.000000 0.000000 0.000000 0.000000 0.056598 0.000000
# 6 0.000000 0.000000 0.000000 0.000000 0.000000 0.034309
#
#
# Mechanical properties :
#
#
# Convention : Reuss Voigt Hill
#
# Bulk Modulus (GPa) = 45.45122 50.83036 48.14079
# Shear Modulus (GPa) = 24.67352 26.47135 25.57244
#
# Velocity S-wave (km/s) = 3.62178 3.75141 3.68716
# Velocity P-wave (km/s) = 6.45392 6.76663 6.61212
#
# Compressibility (1/GPa) = 0.02200161
#
# Stress axis : x y z
#
# Youngs Moduli (GPa) = 59.92862 55.24200 87.75613
#
# Poissons Ratio (x) = 0.17207 0.22109
# Poissons Ratio (y) = 0.18667 0.56664
# Poissons Ratio (z) = 0.15098 0.35670
#
# Static dielectric constant tensor:
#      x y z
#    x 3.172090 0.000000 0.000000 
#    y 0.000000 3.625430 0.000000 
#    z 0.000000 0.000000 3.705630 
# 
# 
# High freq. dielectric constant tensor:
#      x y z
#    x 1.687750 0.000000 0.000000 
#    y 0.000000 1.740890 0.000000 
#    z 0.000000 0.000000 1.744870 
# 
# From -- ./inp_files/12571.got.cif
#   From: 2010.06.25/outbox.cif.g09.slc.cpg/sg71_7_cif.got.tgz:12571.got - 2010.06.28 04:59:45.
