data_PCOD8288842
_publ_section_title
;
Structure prediction by ZEFSAII (Michael W. Deem and Ramdas Pophale) SiO2 
 PCOD8288842
Probable space group: I M M M
;
_chemical_formula_sum "Si O2"
_cell_formula_units_Z 112
_cell_length_a 14.813133
_cell_length_b 14.883709
_cell_length_c 26.996340
_cell_angle_alpha 90.000000
_cell_angle_beta 90.000000
_cell_angle_gamma 90.000000
_cell_volume 5952.000809
_symmetry_space_group_name_H-M "I M M M"
_symmetry_group_IT_number 71
_symmetry_cell_setting 'orthorhombic'
loop_
_space_group_symop_operation_xyz
x,y,z
-x,-y,z
x,-y,-z
-x,y,-z
-x,-y,-z
x,y,-z
-x,y,z
x,-y,z
1/2+x,1/2+y,1/2+z
1/2-x,1/2-y,1/2+z
1/2+x,1/2-y,1/2-z
1/2-x,1/2+y,1/2-z
1/2-x,1/2-y,1/2-z
1/2+x,1/2+y,1/2-z
1/2-x,1/2+y,1/2+z
1/2+x,1/2-y,1/2+z
loop_
_atom_site_type_symbol
_atom_site_label
_atom_site_fract_x
_atom_site_fract_y
_atom_site_fract_z
Si Si1 0.292204 0.601575 0.554752
Si Si2 0.657806 0.255735 0.220295
Si Si3 0.101879 0.268027 0.081967
Si Si4 0.403113 0.686965 0.317530
Si Si5 0.760992 0.897765 0.555675
Si Si6 0.279662 0.101420 0.158249
Si Si7 0.604235 0.394467 0.140877
O O1 0.247121 0.613310 0.500000
O O2 0.329405 0.500000 0.561225
O O3 0.375681 0.669792 0.559585
O O4 0.219851 0.620987 0.598812
O O5 0.750000 0.250000 0.250000
O O6 0.585288 0.263781 0.264229
O O7 0.648982 0.167722 0.185183
O O8 0.650804 0.344200 0.186647
O O9 0.113216 0.264301 0.141438
O O10 0.170119 0.341283 0.061384
O O11 0.000000 0.293829 0.066228
O O12 0.500000 0.639047 0.328210
O O13 0.321868 0.615293 0.320194
O O14 0.797972 0.886258 0.500000
O O15 0.841736 0.866215 0.591451
O O16 0.734104 0.000000 0.567228
O O17 0.310053 0.000000 0.169663
O O18 0.500000 0.364786 0.134571
O O19 0.611425 0.500000 0.151635
#
# Coordination Sequence:
#
# PCOD8288842 Si02
#       7
#    16  16  16  16  16  16  16
#     4   9  17  29  46  70 100 132 166 205 250 301
#     4  10  19  32  50  74 104 133 164 210 260 309
#     4  10  20  34  51  73 106 145 179 212 255 314
#     4   9  18  32  49  69  97 133 169 208 255 301
#     4  10  21  36  54  77 105 137 174 218 268 320
#     4   9  18  31  48  72 101 134 168 202 247 303
#     4  10  21  37  58  82 105 134 177 227 275 317
#
# _framework density 18.817202000000002
#
# number of rings (size 3 to 8) (size 9 to 14) (size 15 to 20)
#    0.000    2.429    0.000    3.429    0.000    4.571 
#    0.000    6.429    0.000    2.571    0.000    0.000 
#    0.000    0.000    0.000   33.714    0.000    0.429 
#
# Total GULP energy -693869.256491 kJ/mol
# GULP energy per Si atom -12390.522437 kJ/mol
# Density = 1.877437 g / cm^3
# Si number density = 18.817202 Si / 1000 Ang^3
#
#
#
# Elastic Constant Matrix: (Units=GPa)
#
#
# Indices 1 2 3 4 5 6 
#
# 1 61.2776 33.4010 29.6825 0.0000 0.0000 0.0000
# 2 33.4010 80.3379 48.6608 0.0000 0.0000 0.0000
# 3 29.6825 48.6608 152.1797 0.0000 0.0000 0.0000
# 4 0.0000 0.0000 0.0000 27.8733 0.0000 0.0000
# 5 0.0000 0.0000 0.0000 0.0000 15.5783 0.0000
# 6 0.0000 0.0000 0.0000 0.0000 0.0000 22.4267
#
#
#
# Elastic Compliance Matrix: (Units=1/GPa)
#
#
# Indices 1 2 3 4 5 6 
#
# 1 0.021430 -0.007910 -0.001651 0.000000 0.000000 0.000000
# 2 -0.007910 0.018357 -0.004327 0.000000 0.000000 0.000000
# 3 -0.001651 -0.004327 0.008277 0.000000 0.000000 0.000000
# 4 0.000000 0.000000 0.000000 0.035877 0.000000 0.000000
# 5 0.000000 0.000000 0.000000 0.000000 0.064192 0.000000
# 6 0.000000 0.000000 0.000000 0.000000 0.000000 0.044590
#
#
# Mechanical properties :
#
#
# Convention : Reuss Voigt Hill
#
# Bulk Modulus (GPa) = 49.28845 57.47596 53.38221
# Shear Modulus (GPa) = 22.00122 25.31240 23.65681
#
# Velocity S-wave (km/s) = 3.42308 3.67164 3.54954
# Velocity P-wave (km/s) = 6.47097 6.97031 6.72528
#
# Compressibility (1/GPa) = 0.02028873
#
# Stress axis : x y z
#
# Youngs Moduli (GPa) = 46.66290 54.47547 120.82083
#
# Poissons Ratio (x) = 0.43090 0.19944
# Poissons Ratio (y) = 0.36910 0.52278
# Poissons Ratio (z) = 0.07703 0.23571
#
# Static dielectric constant tensor:
#      x y z
#    x 3.510700 0.000000 0.000000 
#    y 0.000000 3.431550 0.000000 
#    z 0.000000 0.000000 4.116950 
# 
# 
# High freq. dielectric constant tensor:
#      x y z
#    x 1.697390 0.000000 0.000000 
#    y 0.000000 1.717920 0.000000 
#    z 0.000000 0.000000 1.755110 
# 
# From -- ./inp_files/65512.got.cif
#   From: 2010.06.25/outbox.cif.g09.slc.cpg/sg71_33_cif.got.tgz:65512.got - 2010.06.28 04:59:45.
