data_PCOD8288239
_publ_section_title
;
Structure prediction by ZEFSAII (Michael W. Deem and Ramdas Pophale) SiO2 
 PCOD8288239
Probable space group: I M M M
;
_chemical_formula_sum "Si O2"
_cell_formula_units_Z 80
_cell_length_a 24.918351
_cell_length_b 9.267711
_cell_length_c 18.325419
_cell_angle_alpha 90.000000
_cell_angle_beta 90.000000
_cell_angle_gamma 90.000000
_cell_volume 4232.000349
_symmetry_space_group_name_H-M "I M M M"
_symmetry_group_IT_number 71
_symmetry_cell_setting 'orthorhombic'
loop_
_space_group_symop_operation_xyz
x,y,z
-x,-y,z
x,-y,-z
-x,y,-z
-x,-y,-z
x,y,-z
-x,y,z
x,-y,z
1/2+x,1/2+y,1/2+z
1/2-x,1/2-y,1/2+z
1/2+x,1/2-y,1/2-z
1/2-x,1/2+y,1/2-z
1/2-x,1/2-y,1/2-z
1/2+x,1/2+y,1/2-z
1/2-x,1/2+y,1/2+z
1/2+x,1/2-y,1/2+z
loop_
_atom_site_type_symbol
_atom_site_label
_atom_site_fract_x
_atom_site_fract_y
_atom_site_fract_z
Si Si1 0.357737 0.164609 0.000000
Si Si2 0.939302 0.328755 0.080577
Si Si3 0.767058 0.662035 0.135119
Si Si4 0.870776 0.665932 0.216599
Si Si5 0.856216 0.830305 0.356144
Si Si6 0.730025 0.339687 0.500000
O O1 0.378116 0.250479 0.071459
O O2 0.294041 0.164430 0.000000
O O3 0.379888 0.000000 0.000000
O O4 0.936243 0.500000 0.079786
O O5 0.901547 0.270814 0.145645
O O6 0.000000 0.277006 0.096016
O O7 0.920834 0.271618 0.000000
O O8 0.767991 0.500000 0.103971
O O9 0.806561 0.677773 0.203945
O O10 0.706656 0.703290 0.156475
O O11 0.791324 0.761802 0.071919
O O12 0.887074 0.500000 0.232316
O O13 0.886589 0.762616 0.286390
O O14 0.868480 0.000000 0.362258
O O15 0.706937 0.500000 0.500000
#
# Coordination Sequence:
#
# PCOD8288239 Si02
#       6
#     8  16  16  16  16   8
#     4   9  17  31  49  65  88 123 164 197 226 273
#     4   8  15  29  49  73  98 123 158 207 253 285
#     4   9  18  29  42  62  92 128 162 198 236 280
#     4  10  19  29  47  71  93 123 163 202 241 287
#     4  10  19  31  45  66  98 131 160 195 239 285
#     4   9  17  27  41  61  86 121 160 198 234 274
#
# _framework density 18.903589
#
# number of rings (size 3 to 8) (size 9 to 14) (size 15 to 20)
#    0.000    2.800    0.000    2.400    1.400    4.000 
#    0.000    0.000    0.000    0.600    0.000    2.100 
#    0.000    5.600    0.000    0.000    0.000    0.000 
#
# Total GULP energy -495793.261969 kJ/mol
# GULP energy per Si atom -12394.831549 kJ/mol
# Density = 1.886056 g / cm^3
# Si number density = 18.903589 Si / 1000 Ang^3
#
#
#
# Elastic Constant Matrix: (Units=GPa)
#
#
# Indices 1 2 3 4 5 6 
#
# 1 32.1012 9.9695 33.1788 0.0000 0.0000 0.0000
# 2 9.9695 98.0202 73.6210 0.0000 0.0000 0.0000
# 3 33.1788 73.6210 168.8496 0.0000 0.0000 0.0000
# 4 0.0000 0.0000 0.0000 34.6663 0.0000 0.0000
# 5 0.0000 0.0000 0.0000 0.0000 20.0114 0.0000
# 6 0.0000 0.0000 0.0000 0.0000 0.0000 7.5507
#
#
#
# Elastic Compliance Matrix: (Units=1/GPa)
#
#
# Indices 1 2 3 4 5 6 
#
# 1 0.039565 0.002699 -0.008951 0.000000 0.000000 0.000000
# 2 0.002699 0.015354 -0.007225 0.000000 0.000000 0.000000
# 3 -0.008951 -0.007225 0.010832 0.000000 0.000000 0.000000
# 4 0.000000 0.000000 0.000000 0.028846 0.000000 0.000000
# 5 0.000000 0.000000 0.000000 0.000000 0.049971 0.000000
# 6 0.000000 0.000000 0.000000 0.000000 0.000000 0.132438
#
#
# Mechanical properties :
#
#
# Convention : Reuss Voigt Hill
#
# Bulk Modulus (GPa) = 25.77572 59.16771 42.47171
# Shear Modulus (GPa) = 15.77818 24.59247 20.18533
#
# Velocity S-wave (km/s) = 2.89219 3.61077 3.27127
# Velocity P-wave (km/s) = 4.98177 6.98221 6.06503
#
# Compressibility (1/GPa) = 0.03879621
#
# Stress axis : x y z
#
# Youngs Moduli (GPa) = 25.27481 65.12982 92.32307
#
# Poissons Ratio (x) = -0.17579 0.82641
# Poissons Ratio (y) = -0.06822 0.66703
# Poissons Ratio (z) = 0.22624 0.47056
#
# Static dielectric constant tensor:
#      x y z
#    x 3.060580 0.000000 0.000000 
#    y 0.000000 3.312380 0.000000 
#    z 0.000000 0.000000 3.595720 
# 
# 
# High freq. dielectric constant tensor:
#      x y z
#    x 1.678990 0.000000 0.000000 
#    y 0.000000 1.714820 0.000000 
#    z 0.000000 0.000000 1.743320 
# 
# From -- ./inp_files/14575.got.cif
#   From: 2010.06.25/outbox.cif.g09.slc.cpg/sg71_8_cif.got.tgz:14575.got - 2010.06.28 04:59:45.
