data_PCOD8288811
_publ_section_title
;
Structure prediction by ZEFSAII (Michael W. Deem and Ramdas Pophale) SiO2 
 PCOD8288811
Probable space group: I M M M
;
_chemical_formula_sum "Si O2"
_cell_formula_units_Z 80
_cell_length_a 12.070964
_cell_length_b 28.611792
_cell_length_c 12.526060
_cell_angle_alpha 90.000000
_cell_angle_beta 90.000000
_cell_angle_gamma 90.000000
_cell_volume 4326.149282
_symmetry_space_group_name_H-M "I M M M"
_symmetry_group_IT_number 71
_symmetry_cell_setting 'orthorhombic'
loop_
_space_group_symop_operation_xyz
x,y,z
-x,-y,z
x,-y,-z
-x,y,-z
-x,-y,-z
x,y,-z
-x,y,z
x,-y,z
1/2+x,1/2+y,1/2+z
1/2-x,1/2-y,1/2+z
1/2+x,1/2-y,1/2-z
1/2-x,1/2+y,1/2-z
1/2-x,1/2-y,1/2-z
1/2+x,1/2+y,1/2-z
1/2-x,1/2+y,1/2+z
1/2+x,1/2-y,1/2+z
loop_
_atom_site_type_symbol
_atom_site_label
_atom_site_fract_x
_atom_site_fract_y
_atom_site_fract_z
Si Si1 0.127879 0.386075 0.118620
Si Si2 0.500000 0.444652 0.624662
Si Si3 0.621945 0.782165 0.334677
Si Si4 0.218157 0.699646 0.618912
Si Si5 0.769702 0.097876 0.184268
Si Si6 0.374655 0.944811 0.000000
O O1 0.155481 0.331116 0.112578
O O2 0.214045 0.410215 0.199586
O O3 0.000000 0.393586 0.156408
O O4 0.145438 0.407278 0.000000
O O5 0.500000 0.500000 0.638162
O O6 0.500000 0.430433 0.500000
O O7 0.608166 0.424095 0.682674
O O8 0.500000 0.767535 0.368279
O O9 0.696513 0.741931 0.382685
O O10 0.625052 0.787696 0.205574
O O11 0.166601 0.693925 0.500000
O O12 0.280417 0.652263 0.653657
O O13 0.688447 0.072218 0.103795
O O14 0.500000 0.924888 0.000000
O O15 0.375040 0.000000 0.000000
#
# Coordination Sequence:
#
# PCOD8288811 Si02
#       6
#    16   8  16  16  16   8
#     4   9  18  35  58  83 112 150 189 230 281 332
#     4  11  22  38  59  81 115 153 184 225 287 347
#     4   9  19  32  49  73 107 146 183 223 268 322
#     4  10  19  32  49  76 106 141 182 229 272 320
#     4  11  21  36  56  86 112 145 188 233 277 341
#     4  11  22  37  59  85 113 140 173 233 303 351
#
# _framework density 18.492197000000001
#
# number of rings (size 3 to 8) (size 9 to 14) (size 15 to 20)
#    0.000    2.000    2.000    1.800    1.400    2.400 
#    0.000    0.500    0.000    3.000    0.000    7.000 
#    0.000    0.000    0.000    0.000    0.000    0.000 
#
# Total GULP energy -495854.747825 kJ/mol
# GULP energy per Si atom -12396.368696 kJ/mol
# Density = 1.845011 g / cm^3
# Si number density = 18.492197 Si / 1000 Ang^3
#
#
#
# Elastic Constant Matrix: (Units=GPa)
#
#
# Indices 1 2 3 4 5 6 
#
# 1 123.1272 39.9672 48.5698 0.0003 -0.0001 0.0000
# 2 39.9672 56.5492 19.4300 0.0002 0.0000 0.0000
# 3 48.5698 19.4300 135.3092 -0.0006 -0.0002 0.0004
# 4 0.0003 0.0002 -0.0006 17.2986 0.0001 0.0002
# 5 -0.0001 0.0000 -0.0002 0.0001 27.5900 0.0001
# 6 0.0000 0.0000 0.0004 0.0002 0.0001 20.7625
#
#
#
# Elastic Compliance Matrix: (Units=1/GPa)
#
#
# Indices 1 2 3 4 5 6 
#
# 1 0.011703 -0.007183 -0.003170 0.000000 0.000000 0.000000
# 2 -0.007183 0.023010 -0.000726 0.000000 0.000000 0.000000
# 3 -0.003170 -0.000726 0.008632 0.000000 0.000000 0.000000
# 4 0.000000 0.000000 0.000000 0.057808 0.000000 -0.000001
# 5 0.000000 0.000000 0.000000 0.000000 0.036245 0.000000
# 6 0.000000 0.000000 0.000000 -0.000001 0.000000 0.048164
#
#
# Mechanical properties :
#
#
# Convention : Reuss Voigt Hill
#
# Bulk Modulus (GPa) = 47.19357 58.99107 53.09232
# Shear Modulus (GPa) = 23.27945 26.93145 25.10545
#
# Velocity S-wave (km/s) = 3.55192 3.82038 3.68859
# Velocity P-wave (km/s) = 6.51135 7.17148 6.84938
#
# Compressibility (1/GPa) = 0.02118933
#
# Stress axis : x y z
#
# Youngs Moduli (GPa) = 85.44475 43.46018 115.84176
#
# Poissons Ratio (x) = 0.31216 0.36717
# Poissons Ratio (y) = 0.61371 0.08409
# Poissons Ratio (z) = 0.27083 0.03155
#
# Static dielectric constant tensor:
#      x y z
#    x 3.318030 0.000000 0.000000 
#    y 0.000000 3.348520 0.000000 
#    z 0.000000 0.000000 3.625020 
# 
# 
# High freq. dielectric constant tensor:
#      x y z
#    x 1.706270 0.000000 0.000000 
#    y 0.000000 1.709280 0.000000 
#    z 0.000000 0.000000 1.724210 
# 
# From -- ./inp_files/20160.got.cif
#   From: 2010.06.25/outbox.cif.g09.slc.cpg/sg71_11_cif.got.tgz:20160.got - 2010.06.28 04:59:45.
