data_PCOD8288747
_publ_section_title
;
Structure prediction by ZEFSAII (Michael W. Deem and Ramdas Pophale) SiO2 
 PCOD8288747
Probable space group: I M M M
;
_chemical_formula_sum "Si O2"
_cell_formula_units_Z 80
_cell_length_a 21.417976
_cell_length_b 21.333294
_cell_length_c 9.531829
_cell_angle_alpha 90.000000
_cell_angle_beta 90.000000
_cell_angle_gamma 90.000000
_cell_volume 4355.244978
_symmetry_space_group_name_H-M "I M M M"
_symmetry_group_IT_number 71
_symmetry_cell_setting 'orthorhombic'
loop_
_space_group_symop_operation_xyz
x,y,z
-x,-y,z
x,-y,-z
-x,y,-z
-x,-y,-z
x,y,-z
-x,y,z
x,-y,z
1/2+x,1/2+y,1/2+z
1/2-x,1/2-y,1/2+z
1/2+x,1/2-y,1/2-z
1/2-x,1/2+y,1/2-z
1/2-x,1/2-y,1/2-z
1/2+x,1/2+y,1/2-z
1/2-x,1/2+y,1/2+z
1/2+x,1/2-y,1/2+z
loop_
_atom_site_type_symbol
_atom_site_label
_atom_site_fract_x
_atom_site_fract_y
_atom_site_fract_z
Si Si1 0.238707 0.429048 0.653091
Si Si2 0.344084 0.612934 0.838832
Si Si3 0.500000 0.073325 0.666709
Si Si4 0.611799 0.127746 0.839259
Si Si5 0.570401 0.500000 0.832741
Si Si6 0.185879 0.751477 0.337554
O O1 0.254213 0.399576 0.500000
O O2 0.260401 0.500000 0.657875
O O3 0.276321 0.392934 0.770538
O O4 0.165103 0.424518 0.679486
O O5 0.395175 0.563742 0.776765
O O6 0.358139 0.686595 0.814401
O O7 0.336158 0.595558 0.000000
O O8 0.500000 0.081636 0.500000
O O9 0.558892 0.108879 0.730915
O O10 0.500000 0.000000 0.709103
O O11 0.641107 0.194390 0.794780
O O12 0.586567 0.129255 0.000000
O O13 0.500000 0.500000 0.771641
O O14 0.567719 0.500000 0.000000
O O15 0.205882 0.746563 0.500000
O O16 0.250000 0.750000 0.250000
#
# Coordination Sequence:
#
# PCOD8288747 Si02
#       6
#    16  16   8  16   8  16
#     4  10  19  31  52  81 108 140 183 228 277 336
#     4  10  19  32  53  81 109 142 183 230 281 328
#     4  11  25  43  61  85 115 150 195 244 292 338
#     4  10  21  38  58  81 113 155 193 229 285 349
#     4   9  18  34  53  77 109 144 183 228 277 325
#     4  10  20  34  55  85 115 145 184 230 280 337
#
# _framework density 18.368656999999999
#
# number of rings (size 3 to 8) (size 9 to 14) (size 15 to 20)
#    0.000    2.000    3.000    0.900    0.000    3.200 
#    1.800    0.000    0.000    1.200    0.000    0.000 
#    0.000    0.000    0.000    0.000    0.000    0.000 
#
# Total GULP energy -495691.080198 kJ/mol
# GULP energy per Si atom -12392.277005 kJ/mol
# Density = 1.832685 g / cm^3
# Si number density = 18.368657 Si / 1000 Ang^3
#
#
#
# Elastic Constant Matrix: (Units=GPa)
#
#
# Indices 1 2 3 4 5 6 
#
# 1 106.3302 57.2025 55.3212 0.0000 0.0000 0.0000
# 2 57.2025 128.6636 43.2780 0.0000 0.0000 0.0000
# 3 55.3212 43.2780 64.7934 0.0000 0.0000 0.0000
# 4 0.0000 0.0000 0.0000 22.0820 0.0000 0.0000
# 5 0.0000 0.0000 0.0000 0.0000 28.5757 0.0000
# 6 0.0000 0.0000 0.0000 0.0000 0.0000 30.1637
#
#
#
# Elastic Compliance Matrix: (Units=1/GPa)
#
#
# Indices 1 2 3 4 5 6 
#
# 1 0.018187 -0.003692 -0.013062 0.000000 0.000000 0.000000
# 2 -0.003692 0.010774 -0.004044 0.000000 0.000000 0.000000
# 3 -0.013062 -0.004044 0.029287 0.000000 0.000000 0.000000
# 4 0.000000 0.000000 0.000000 0.045286 0.000000 0.000000
# 5 0.000000 0.000000 0.000000 0.000000 0.034995 0.000000
# 6 0.000000 0.000000 0.000000 0.000000 0.000000 0.033152
#
#
# Mechanical properties :
#
#
# Convention : Reuss Voigt Hill
#
# Bulk Modulus (GPa) = 60.05329 67.93229 63.99279
# Shear Modulus (GPa) = 22.84908 25.76333 24.30620
#
# Velocity S-wave (km/s) = 3.53075 3.74915 3.64159
# Velocity P-wave (km/s) = 7.02751 7.47024 7.25226
#
# Compressibility (1/GPa) = 0.01665188
#
# Stress axis : x y z
#
# Youngs Moduli (GPa) = 54.98524 92.81681 34.14462
#
# Poissons Ratio (x) = 0.34268 0.44599
# Poissons Ratio (y) = 0.20301 0.13808
# Poissons Ratio (z) = 0.71821 0.37535
#
# Static dielectric constant tensor:
#      x y z
#    x 3.266970 0.000000 0.000000 
#    y 0.000000 3.865630 0.000000 
#    z 0.000000 0.000000 3.302370 
# 
# 
# High freq. dielectric constant tensor:
#      x y z
#    x 1.692680 0.000000 0.000000 
#    y 0.000000 1.732850 0.000000 
#    z 0.000000 0.000000 1.696730 
# 
# From -- ./inp_files/10270.got.cif
#   From: 2010.06.25/outbox.cif.g09.slc.cpg/sg71_6_cif.got.tgz:10270.got - 2010.06.28 04:59:45.
