data_PCOD8288327
_publ_section_title
;
Structure prediction by ZEFSAII (Michael W. Deem and Ramdas Pophale) SiO2 
 PCOD8288327
Probable space group: I M M M
;
_chemical_formula_sum "Si O2"
_cell_formula_units_Z 112
_cell_length_a 13.480752
_cell_length_b 30.087405
_cell_length_c 17.610649
_cell_angle_alpha 90.000000
_cell_angle_beta 90.000000
_cell_angle_gamma 90.000000
_cell_volume 7142.894118
_symmetry_space_group_name_H-M "I M M M"
_symmetry_group_IT_number 71
_symmetry_cell_setting 'orthorhombic'
loop_
_space_group_symop_operation_xyz
x,y,z
-x,-y,z
x,-y,-z
-x,y,-z
-x,-y,-z
x,y,-z
-x,y,z
x,-y,z
1/2+x,1/2+y,1/2+z
1/2-x,1/2-y,1/2+z
1/2+x,1/2-y,1/2-z
1/2-x,1/2+y,1/2-z
1/2-x,1/2-y,1/2-z
1/2+x,1/2+y,1/2-z
1/2-x,1/2+y,1/2+z
1/2+x,1/2-y,1/2+z
loop_
_atom_site_type_symbol
_atom_site_label
_atom_site_fract_x
_atom_site_fract_y
_atom_site_fract_z
Si Si1 0.616349 0.449832 0.772137
Si Si2 0.615129 0.714654 0.758470
Si Si3 0.386552 0.871141 0.586991
Si Si4 0.612523 0.254358 0.500000
Si Si5 0.610098 0.359008 0.500000
Si Si6 0.303252 0.784960 0.649319
Si Si7 0.118054 0.872227 0.835542
Si Si8 0.743694 0.550357 0.915072
O O1 0.500000 0.443823 0.779758
O O2 0.644709 0.500000 0.746646
O O3 0.658570 0.415077 0.710263
O O4 0.658167 0.438318 0.855100
O O5 0.500000 0.710728 0.783296
O O6 0.632525 0.760688 0.714197
O O7 0.685466 0.715294 0.832635
O O8 0.649555 0.673253 0.706116
O O9 0.372911 0.854664 0.500000
O O10 0.500000 0.876988 0.608903
O O11 0.337823 0.835793 0.643603
O O12 0.337772 0.918853 0.600348
O O13 0.500000 0.233389 0.500000
O O14 0.601614 0.306484 0.500000
O O15 0.676398 0.240138 0.571624
O O16 0.500000 0.379834 0.500000
O O17 0.663920 0.374293 0.421422
O O18 0.000000 0.872655 0.841881
O O19 0.781379 0.500000 0.905491
O O20 0.700437 0.558315 0.000000
#
# Coordination Sequence:
#
# PCOD8288327 Si02
#       8
#    16  16  16   8   8  16  16  16
#     4   9  17  29  45  64  89 121 153 188 229 272
#     4  10  20  32  46  68  97 126 155 190 233 281
#     4  10  19  30  46  66  88 113 146 190 233 271
#     4  11  18  30  49  68  90 118 159 202 231 270
#     4   9  16  26  45  67  86 114 153 191 227 273
#     4  11  20  30  49  71  92 122 159 194 234 275
#     4   9  16  28  45  64  88 119 152 187 230 276
#     4   9  18  31  45  63  88 119 156 189 224 277
#
# _framework density 15.679919
#
# number of rings (size 3 to 8) (size 9 to 14) (size 15 to 20)
#    0.000    2.286    2.143    2.143    0.000    0.571 
#    0.000    3.571    0.000    3.000    0.000    0.000 
#    0.000    0.000    0.000    0.000    0.000   12.929 
#
# Total GULP energy -694158.039442 kJ/mol
# GULP energy per Si atom -12395.679276 kJ/mol
# Density = 1.564423 g / cm^3
# Si number density = 15.679919 Si / 1000 Ang^3
#
#
#
# Elastic Constant Matrix: (Units=GPa)
#
#
# Indices 1 2 3 4 5 6 
#
# 1 67.1893 32.3996 49.4463 -0.0001 0.0000 0.0000
# 2 32.3996 91.2703 53.0656 -0.0001 0.0001 0.0000
# 3 49.4463 53.0656 111.1535 -0.0006 0.0009 0.0001
# 4 -0.0001 -0.0001 -0.0006 31.6579 0.0003 0.0000
# 5 0.0000 0.0001 0.0009 0.0003 29.9318 0.0000
# 6 0.0000 0.0000 0.0001 0.0000 0.0000 18.9928
#
#
#
# Elastic Compliance Matrix: (Units=1/GPa)
#
#
# Indices 1 2 3 4 5 6 
#
# 1 0.022717 -0.003030 -0.008659 0.000000 0.000000 0.000000
# 2 -0.003030 0.015570 -0.006086 0.000000 0.000000 0.000000
# 3 -0.008659 -0.006086 0.015754 0.000000 0.000000 0.000000
# 4 0.000000 0.000000 0.000000 0.031588 0.000000 0.000000
# 5 0.000000 0.000000 0.000000 0.000000 0.033409 0.000000
# 6 0.000000 0.000000 0.000000 0.000000 0.000000 0.052651
#
#
# Mechanical properties :
#
#
# Convention : Reuss Voigt Hill
#
# Bulk Modulus (GPa) = 54.07711 59.93735 57.00723
# Shear Modulus (GPa) = 23.42997 25.09661 24.26329
#
# Velocity S-wave (km/s) = 3.86977 4.00504 3.93798
# Velocity P-wave (km/s) = 7.38443 7.72629 7.55730
#
# Compressibility (1/GPa) = 0.01849211
#
# Stress axis : x y z
#
# Youngs Moduli (GPa) = 44.02046 64.22533 63.47636
#
# Poissons Ratio (x) = 0.19458 0.54965
# Poissons Ratio (y) = 0.13336 0.38629
# Poissons Ratio (z) = 0.38118 0.39085
#
# Static dielectric constant tensor:
#      x y z
#    x 2.754960 0.000000 0.000000 
#    y 0.000000 3.156230 0.000000 
#    z 0.000000 0.000000 3.163360 
# 
# 
# High freq. dielectric constant tensor:
#      x y z
#    x 1.567710 0.000000 0.000000 
#    y 0.000000 1.611730 0.000000 
#    z 0.000000 0.000000 1.597270 
# 
# From -- ./inp_files/45391.got.cif
#   From: 2010.06.25/outbox.cif.g09.slc.cpg/sg71_23_cif.got.tgz:45391.got - 2010.06.28 04:59:45.
