data_PCOD8288873
_publ_section_title
;
Structure prediction by ZEFSAII (Michael W. Deem and Ramdas Pophale) SiO2 
 PCOD8288873
Probable space group: I M M M
;
_chemical_formula_sum "Si O2"
_cell_formula_units_Z 88
_cell_length_a 22.320039
_cell_length_b 24.238023
_cell_length_c 9.125747
_cell_angle_alpha 90.000000
_cell_angle_beta 90.000000
_cell_angle_gamma 90.000000
_cell_volume 4936.970892
_symmetry_space_group_name_H-M "I M M M"
_symmetry_group_IT_number 71
_symmetry_cell_setting 'orthorhombic'
loop_
_space_group_symop_operation_xyz
x,y,z
-x,-y,z
x,-y,-z
-x,y,-z
-x,-y,-z
x,y,-z
-x,y,z
x,-y,z
1/2+x,1/2+y,1/2+z
1/2-x,1/2-y,1/2+z
1/2+x,1/2-y,1/2-z
1/2-x,1/2+y,1/2-z
1/2-x,1/2-y,1/2-z
1/2+x,1/2+y,1/2-z
1/2-x,1/2+y,1/2+z
1/2+x,1/2-y,1/2+z
loop_
_atom_site_type_symbol
_atom_site_label
_atom_site_fract_x
_atom_site_fract_y
_atom_site_fract_z
Si Si1 0.810142 0.757649 0.833560
Si Si2 0.114363 0.935382 0.662998
Si Si3 0.211687 0.876189 0.171670
Si Si4 0.338233 0.140902 0.672373
Si Si5 0.930554 0.563268 0.669557
Si Si6 0.500000 0.434121 0.664984
O O1 0.750000 0.750000 0.750000
O O2 0.829905 0.820847 0.802172
O O3 0.854707 0.706250 0.796556
O O4 0.790964 0.752275 0.000000
O O5 0.116983 0.908990 0.500000
O O6 0.175478 0.924856 0.751082
O O7 0.058118 0.910546 0.751540
O O8 0.105779 0.000000 0.648630
O O9 0.276843 0.873509 0.244885
O O10 0.220125 0.888941 0.000000
O O11 0.330228 0.129308 0.500000
O O12 0.392021 0.103890 0.730916
O O13 0.917207 0.575754 0.500000
O O14 0.913638 0.500000 0.706165
O O15 0.000000 0.573869 0.705509
O O16 0.500000 0.500000 0.661399
O O17 0.500000 0.410483 0.500000
#
# Coordination Sequence:
#
# PCOD8288873 Si02
#       6
#    16  16  16  16  16   8
#     4   8  16  30  48  71  97 126 161 198 241 291
#     4  10  20  33  49  71 100 131 164 206 252 293
#     4  10  19  32  51  74 101 133 170 207 248 299
#     4  10  19  32  52  77 103 129 162 205 255 304
#     4   9  19  36  55  74  99 133 172 211 251 300
#     4   9  17  31  51  71  91 123 165 199 234 289
#
# _framework density 17.824694999999998
#
# number of rings (size 3 to 8) (size 9 to 14) (size 15 to 20)
#    0.000    2.636    0.000    2.455    0.000    5.091 
#    0.000    0.909    2.000    0.000    0.000    0.000 
#    0.000    0.000    0.000    0.000    0.000    0.000 
#
# Total GULP energy -545090.191521 kJ/mol
# GULP energy per Si atom -12388.413444 kJ/mol
# Density = 1.778413 g / cm^3
# Si number density = 17.824695 Si / 1000 Ang^3
#
#
#
# Elastic Constant Matrix: (Units=GPa)
#
#
# Indices 1 2 3 4 5 6 
#
# 1 79.5731 31.1554 50.3546 0.0000 0.0000 0.0000
# 2 31.1554 54.3642 36.6423 0.0000 0.0000 0.0000
# 3 50.3546 36.6423 119.6367 0.0000 0.0000 0.0000
# 4 0.0000 0.0000 0.0000 24.0523 0.0000 0.0000
# 5 0.0000 0.0000 0.0000 0.0000 33.6209 0.0000
# 6 0.0000 0.0000 0.0000 0.0000 0.0000 21.5024
#
#
#
# Elastic Compliance Matrix: (Units=1/GPa)
#
#
# Indices 1 2 3 4 5 6 
#
# 1 0.018996 -0.006928 -0.005874 0.000000 0.000000 0.000000
# 2 -0.006928 0.025706 -0.004957 0.000000 0.000000 0.000000
# 3 -0.005874 -0.004957 0.012349 0.000000 0.000000 0.000000
# 4 0.000000 0.000000 0.000000 0.041576 0.000000 0.000000
# 5 0.000000 0.000000 0.000000 0.000000 0.029743 0.000000
# 6 0.000000 0.000000 0.000000 0.000000 0.000000 0.046506
#
#
# Mechanical properties :
#
#
# Convention : Reuss Voigt Hill
#
# Bulk Modulus (GPa) = 46.43798 54.43094 50.43446
# Shear Modulus (GPa) = 22.98080 24.86324 23.92202
#
# Velocity S-wave (km/s) = 3.59453 3.73886 3.66740
# Velocity P-wave (km/s) = 6.58306 7.01725 6.80362
#
# Compressibility (1/GPa) = 0.02153410
#
# Stress axis : x y z
#
# Youngs Moduli (GPa) = 52.64162 38.90147 80.97678
#
# Poissons Ratio (x) = 0.26949 0.47563
# Poissons Ratio (y) = 0.36468 0.40144
# Poissons Ratio (z) = 0.30920 0.19285
#
# Static dielectric constant tensor:
#      x y z
#    x 3.028590 0.000000 0.000000 
#    y 0.000000 3.810690 0.000000 
#    z 0.000000 0.000000 3.462500 
# 
# 
# High freq. dielectric constant tensor:
#      x y z
#    x 1.664000 0.000000 0.000000 
#    y 0.000000 1.681060 0.000000 
#    z 0.000000 0.000000 1.707170 
# 
# From -- ./inp_files/10446.got.cif
#   From: 2010.06.25/outbox.cif.g09.slc.cpg/sg71_6_cif.got.tgz:10446.got - 2010.06.28 04:59:45.
