data_PCOD8288831
_publ_section_title
;
Structure prediction by ZEFSAII (Michael W. Deem and Ramdas Pophale) SiO2 
 PCOD8288831
Probable space group: I M M M
;
_chemical_formula_sum "Si O2"
_cell_formula_units_Z 120
_cell_length_a 9.702549
_cell_length_b 25.251203
_cell_length_c 27.468275
_cell_angle_alpha 90.000000
_cell_angle_beta 90.000000
_cell_angle_gamma 90.000000
_cell_volume 6729.755789
_symmetry_space_group_name_H-M "I M M M"
_symmetry_group_IT_number 71
_symmetry_cell_setting 'orthorhombic'
loop_
_space_group_symop_operation_xyz
x,y,z
-x,-y,z
x,-y,-z
-x,y,-z
-x,-y,-z
x,y,-z
-x,y,z
x,-y,z
1/2+x,1/2+y,1/2+z
1/2-x,1/2-y,1/2+z
1/2+x,1/2-y,1/2-z
1/2-x,1/2+y,1/2-z
1/2-x,1/2-y,1/2-z
1/2+x,1/2+y,1/2-z
1/2-x,1/2+y,1/2+z
1/2+x,1/2-y,1/2+z
loop_
_atom_site_type_symbol
_atom_site_label
_atom_site_fract_x
_atom_site_fract_y
_atom_site_fract_z
Si Si1 0.841224 0.241716 0.055939
Si Si2 0.157540 0.330442 0.376556
Si Si3 0.164283 0.439574 0.000000
Si Si4 0.162131 0.358010 0.920144
Si Si5 0.842606 0.440180 0.657739
Si Si6 0.343843 0.886330 0.311979
Si Si7 0.349600 0.560667 0.253677
Si Si8 0.345177 0.796137 0.768008
O O1 0.756474 0.199297 0.086589
O O2 0.779464 0.300897 0.063143
O O3 0.000000 0.239523 0.073335
O O4 0.827400 0.225246 0.000000
O O5 0.175878 0.394607 0.383348
O O6 0.198903 0.315782 0.321355
O O7 0.000000 0.314283 0.387800
O O8 0.219119 0.406839 0.952793
O O9 0.223886 0.500000 0.000000
O O10 0.000000 0.442882 0.000000
O O11 0.204259 0.365436 0.864295
O O12 0.000000 0.356247 0.927998
O O13 0.809790 0.500000 0.638145
O O14 0.743601 0.421770 0.701071
O O15 0.000000 0.437975 0.677690
O O16 0.500000 0.908819 0.314828
O O17 0.234671 0.930871 0.296396
O O18 0.330216 0.841780 0.271455
O O19 0.500000 0.590047 0.253762
O O20 0.381155 0.500000 0.258629
O O21 0.500000 0.774381 0.769368
O O22 0.250000 0.750000 0.750000
#
# Coordination Sequence:
#
# PCOD8288831 Si02
#       8
#    16  16   8  16  16  16  16  16
#     4  10  20  36  58  80 104 138 177 219 268 322
#     4  10  20  34  53  80 109 135 174 222 266 319
#     4   9  16  28  48  76 107 135 172 229 284 316
#     4   9  17  31  51  75 104 137 176 223 270 317
#     4   9  17  33  56  77 103 141 178 215 262 315
#     4  10  19  32  50  72 102 138 176 214 257 313
#     4  10  20  32  47  71 104 140 177 216 256 301
#     4  10  20  33  47  71 105 139 174 215 263 316
#
# _framework density 17.831257000000001
#
# number of rings (size 3 to 8) (size 9 to 14) (size 15 to 20)
#    0.000    2.333    2.000    1.200    0.000    4.267 
#    0.000    2.000    0.000    0.400    0.000    2.800 
#    0.000    2.133    0.000    0.000    0.000    0.000 
#
# Total GULP energy -743532.665028 kJ/mol
# GULP energy per Si atom -12392.211084 kJ/mol
# Density = 1.779067 g / cm^3
# Si number density = 17.831257 Si / 1000 Ang^3
#
#
#
# Elastic Constant Matrix: (Units=GPa)
#
#
# Indices 1 2 3 4 5 6 
#
# 1 71.3270 44.1208 40.7350 0.0000 0.0000 0.0000
# 2 44.1208 111.1382 52.8350 0.0000 0.0000 0.0000
# 3 40.7350 52.8350 101.8728 0.0000 0.0000 0.0000
# 4 0.0000 0.0000 0.0000 31.1178 0.0000 0.0000
# 5 0.0000 0.0000 0.0000 0.0000 22.3018 0.0000
# 6 0.0000 0.0000 0.0000 0.0000 0.0000 25.7702
#
#
#
# Elastic Compliance Matrix: (Units=1/GPa)
#
#
# Indices 1 2 3 4 5 6 
#
# 1 0.020524 -0.005636 -0.005284 0.000000 0.000000 0.000000
# 2 -0.005636 0.013490 -0.004743 0.000000 0.000000 0.000000
# 3 -0.005284 -0.004743 0.014389 0.000000 0.000000 0.000000
# 4 0.000000 0.000000 0.000000 0.032136 0.000000 0.000000
# 5 0.000000 0.000000 0.000000 0.000000 0.044840 0.000000
# 6 0.000000 0.000000 0.000000 0.000000 0.000000 0.038805
#
#
# Mechanical properties :
#
#
# Convention : Reuss Voigt Hill
#
# Bulk Modulus (GPa) = 58.55620 62.19106 60.37363
# Shear Modulus (GPa) = 24.85098 25.61442 25.23270
#
# Velocity S-wave (km/s) = 3.73725 3.79422 3.76584
# Velocity P-wave (km/s) = 7.17865 7.35854 7.26915
#
# Compressibility (1/GPa) = 0.01707761
#
# Stress axis : x y z
#
# Youngs Moduli (GPa) = 48.72444 74.12962 69.49901
#
# Poissons Ratio (x) = 0.41778 0.36721
# Poissons Ratio (y) = 0.27460 0.32962
# Poissons Ratio (z) = 0.25744 0.35158
#
# Static dielectric constant tensor:
#      x y z
#    x 3.868760 0.000000 0.000000 
#    y 0.000000 3.437570 0.000000 
#    z 0.000000 0.000000 3.251960 
# 
# 
# High freq. dielectric constant tensor:
#      x y z
#    x 1.669760 0.000000 0.000000 
#    y 0.000000 1.694640 0.000000 
#    z 0.000000 0.000000 1.671800 
# 
# From -- ./inp_files/63775.got.cif
#   From: 2010.06.25/outbox.cif.g09.slc.cpg/sg71_32_cif.got.tgz:63775.got - 2010.06.28 04:59:45.
