data_PCOD8288472
_publ_section_title
;
Structure prediction by ZEFSAII (Michael W. Deem and Ramdas Pophale) SiO2 
 PCOD8288472
Probable space group: I M M M
;
_chemical_formula_sum "Si O2"
_cell_formula_units_Z 80
_cell_length_a 28.986018
_cell_length_b 15.841700
_cell_length_c 9.266564
_cell_angle_alpha 90.000000
_cell_angle_beta 90.000000
_cell_angle_gamma 90.000000
_cell_volume 4255.093149
_symmetry_space_group_name_H-M "I M M M"
_symmetry_group_IT_number 71
_symmetry_cell_setting 'orthorhombic'
loop_
_space_group_symop_operation_xyz
x,y,z
-x,-y,z
x,-y,-z
-x,y,-z
-x,-y,-z
x,y,-z
-x,y,z
x,-y,z
1/2+x,1/2+y,1/2+z
1/2-x,1/2-y,1/2+z
1/2+x,1/2-y,1/2-z
1/2-x,1/2+y,1/2-z
1/2-x,1/2-y,1/2-z
1/2+x,1/2+y,1/2-z
1/2-x,1/2+y,1/2+z
1/2+x,1/2-y,1/2+z
loop_
_atom_site_type_symbol
_atom_site_label
_atom_site_fract_x
_atom_site_fract_y
_atom_site_fract_z
Si Si1 0.302369 0.158803 0.666968
Si Si2 0.394767 0.591745 0.168835
Si Si3 0.615173 0.093830 0.166498
Si Si4 0.699575 0.670648 0.834979
Si Si5 0.051943 0.254009 0.327822
O O1 0.315823 0.159505 0.500000
O O2 0.336579 0.095969 0.748714
O O3 0.308466 0.252316 0.728039
O O4 0.249551 0.127949 0.690683
O O5 0.409049 0.500000 0.234778
O O6 0.340249 0.603165 0.197928
O O7 0.424298 0.668950 0.235875
O O8 0.404965 0.590398 0.000000
O O9 0.579564 0.163565 0.227979
O O10 0.593781 0.000000 0.186018
O O11 0.625894 0.112986 0.000000
O O12 0.695783 0.704059 0.000000
O O13 0.052093 0.252874 0.500000
O O14 0.000000 0.258902 0.267531
#
# Coordination Sequence:
#
# PCOD8288472 Si02
#       5
#    16  16  16  16  16
#     4  10  19  30  50  76 102 135 172 209 248 294
#     4   9  16  27  47  74 102 130 159 197 248 301
#     4  10  20  34  52  73 101 136 170 208 256 305
#     4   9  17  31  50  73 104 138 170 203 243 294
#     4   9  17  30  49  73 100 128 163 211 259 302
#
# _framework density 18.800999000000001
#
# number of rings (size 3 to 8) (size 9 to 14) (size 15 to 20)
#    0.000    2.600    2.000    0.600    0.000    2.800 
#    0.000    6.000    0.000    1.200    0.000    1.400 
#    0.000    1.600    0.000    0.000    0.000    0.000 
#
# Total GULP energy -495786.600953 kJ/mol
# GULP energy per Si atom -12394.665024 kJ/mol
# Density = 1.875821 g / cm^3
# Si number density = 18.800999 Si / 1000 Ang^3
#
#
#
# Elastic Constant Matrix: (Units=GPa)
#
#
# Indices 1 2 3 4 5 6 
#
# 1 135.5312 75.9690 26.6642 0.0000 0.0000 0.0000
# 2 75.9690 146.7981 23.3010 0.0000 0.0000 0.0000
# 3 26.6642 23.3010 39.2303 0.0000 0.0000 0.0000
# 4 0.0000 0.0000 0.0000 13.3202 0.0000 0.0000
# 5 0.0000 0.0000 0.0000 0.0000 18.3449 0.0000
# 6 0.0000 0.0000 0.0000 0.0000 0.0000 16.3236
#
#
#
# Elastic Compliance Matrix: (Units=1/GPa)
#
#
# Indices 1 2 3 4 5 6 
#
# 1 0.011085 -0.005013 -0.004557 0.000000 0.000000 0.000000
# 2 -0.005013 0.009788 -0.002406 0.000000 0.000000 0.000000
# 3 -0.004557 -0.002406 0.030017 0.000000 0.000000 0.000000
# 4 0.000000 0.000000 0.000000 0.075074 0.000000 0.000000
# 5 0.000000 0.000000 0.000000 0.000000 0.054511 0.000000
# 6 0.000000 0.000000 0.000000 0.000000 0.000000 0.061261
#
#
# Mechanical properties :
#
#
# Convention : Reuss Voigt Hill
#
# Bulk Modulus (GPa) = 37.12279 63.71422 50.41851
# Shear Modulus (GPa) = 18.20381 22.63944 20.42163
#
# Velocity S-wave (km/s) = 3.11503 3.47387 3.29933
# Velocity P-wave (km/s) = 5.72065 7.07479 6.43345
#
# Compressibility (1/GPa) = 0.02693763
#
# Stress axis : x y z
#
# Youngs Moduli (GPa) = 90.21287 102.16129 33.31461
#
# Poissons Ratio (x) = 0.51216 0.15180
# Poissons Ratio (y) = 0.45226 0.08017
# Poissons Ratio (z) = 0.41106 0.24585
#
# Static dielectric constant tensor:
#      x y z
#    x 3.655350 0.000000 0.000000 
#    y 0.000000 3.523960 0.000000 
#    z 0.000000 0.000000 3.035880 
# 
# 
# High freq. dielectric constant tensor:
#      x y z
#    x 1.732280 0.000000 0.000000 
#    y 0.000000 1.728820 0.000000 
#    z 0.000000 0.000000 1.676060 
# 
# From -- ./inp_files/8625.got.cif
#   From: 2010.06.25/outbox.cif.g09.slc.cpg/sg71_5_cif.got.tgz:8625.got - 2010.06.28 04:59:45.
