data_PCOD8288785
_publ_section_title
;
Structure prediction by ZEFSAII (Michael W. Deem and Ramdas Pophale) SiO2 
 PCOD8288785
Probable space group: I M M M
;
_chemical_formula_sum "Si O2"
_cell_formula_units_Z 80
_cell_length_a 11.533656
_cell_length_b 22.077889
_cell_length_c 18.968775
_cell_angle_alpha 90.000000
_cell_angle_beta 90.000000
_cell_angle_gamma 90.000000
_cell_volume 4830.185666
_symmetry_space_group_name_H-M "I M M M"
_symmetry_group_IT_number 71
_symmetry_cell_setting 'orthorhombic'
loop_
_space_group_symop_operation_xyz
x,y,z
-x,-y,z
x,-y,-z
-x,y,-z
-x,-y,-z
x,y,-z
-x,y,z
x,-y,z
1/2+x,1/2+y,1/2+z
1/2-x,1/2-y,1/2+z
1/2+x,1/2-y,1/2-z
1/2-x,1/2+y,1/2-z
1/2-x,1/2-y,1/2-z
1/2+x,1/2+y,1/2-z
1/2-x,1/2+y,1/2+z
1/2+x,1/2-y,1/2+z
loop_
_atom_site_type_symbol
_atom_site_label
_atom_site_fract_x
_atom_site_fract_y
_atom_site_fract_z
Si Si1 0.500000 0.432034 0.582606
Si Si2 0.232331 0.890834 0.147043
Si Si3 0.637391 0.352277 0.077178
Si Si4 0.863132 0.500000 0.579717
Si Si5 0.634229 0.215342 0.081688
Si Si6 0.636186 0.429145 0.208462
O O1 0.500000 0.500000 0.616928
O O2 0.500000 0.438312 0.500000
O O3 0.611579 0.395374 0.606440
O O4 0.320921 0.940993 0.119935
O O5 0.287358 0.825583 0.132375
O O6 0.210810 0.898743 0.229928
O O7 0.500000 0.353642 0.073409
O O8 0.676417 0.283953 0.095157
O O9 0.681566 0.398941 0.136122
O O10 0.686855 0.371377 0.000000
O O11 0.813170 0.500000 0.500000
O O12 0.000000 0.500000 0.578705
O O13 0.500000 0.207034 0.102526
O O14 0.652348 0.196948 0.000000
O O15 0.500000 0.416769 0.221680
O O16 0.662437 0.500000 0.204153
#
# Coordination Sequence:
#
# PCOD8288785 Si02
#       6
#     8  16  16   8  16  16
#     4  11  20  30  44  64  95 139 178 200 227 286
#     4  12  20  31  47  69 102 135 166 198 245 293
#     4   8  16  32  53  74  97 127 163 205 255 304
#     4  11  22  33  47  69  96 130 174 214 239 270
#     4   9  18  33  51  72  98 129 167 211 251 287
#     4  10  19  32  48  72 105 133 161 201 249 296
#
# _framework density 16.562511000000001
#
# number of rings (size 3 to 8) (size 9 to 14) (size 15 to 20)
#    0.000    2.000    3.000    3.600    0.000    2.800 
#    0.000    2.000    0.000    0.000    0.000    0.000 
#    0.000    0.800    0.000    0.000    0.000    0.000 
#
# Total GULP energy -495996.822148 kJ/mol
# GULP energy per Si atom -12399.920554 kJ/mol
# Density = 1.652481 g / cm^3
# Si number density = 16.562511 Si / 1000 Ang^3
#
#
#
# Elastic Constant Matrix: (Units=GPa)
#
#
# Indices 1 2 3 4 5 6 
#
# 1 54.5106 29.0874 36.4169 0.0000 0.0000 0.0000
# 2 29.0874 88.2334 71.8437 0.0000 0.0000 0.0000
# 3 36.4169 71.8437 138.1162 0.0000 0.0000 0.0000
# 4 0.0000 0.0000 0.0000 27.7411 0.0000 0.0000
# 5 0.0000 0.0000 0.0000 0.0000 24.7151 0.0000
# 6 0.0000 0.0000 0.0000 0.0000 0.0000 13.6218
#
#
#
# Elastic Compliance Matrix: (Units=1/GPa)
#
#
# Indices 1 2 3 4 5 6 
#
# 1 0.023318 -0.004651 -0.003729 0.000000 0.000000 0.000000
# 2 -0.004651 0.020588 -0.009483 0.000000 0.000000 0.000000
# 3 -0.003729 -0.009483 0.013156 0.000000 0.000000 0.000000
# 4 0.000000 0.000000 0.000000 0.036048 0.000000 0.000000
# 5 0.000000 0.000000 0.000000 0.000000 0.040461 0.000000
# 6 0.000000 0.000000 0.000000 0.000000 0.000000 0.073412
#
#
# Mechanical properties :
#
#
# Convention : Reuss Voigt Hill
#
# Bulk Modulus (GPa) = 46.86736 61.72846 54.29791
# Shear Modulus (GPa) = 20.01432 22.78310 21.39871
#
# Velocity S-wave (km/s) = 3.47999 3.71291 3.59834
# Velocity P-wave (km/s) = 6.67127 7.46537 7.07946
#
# Compressibility (1/GPa) = 0.02133681
#
# Stress axis : x y z
#
# Youngs Moduli (GPa) = 42.88536 48.57108 76.00880
#
# Poissons Ratio (x) = 0.22589 0.28344
# Poissons Ratio (y) = 0.19945 0.72081
# Poissons Ratio (z) = 0.15992 0.46061
#
# Static dielectric constant tensor:
#      x y z
#    x 2.840630 0.000000 0.000000 
#    y 0.000000 3.172640 0.000000 
#    z 0.000000 0.000000 3.412920 
# 
# 
# High freq. dielectric constant tensor:
#      x y z
#    x 1.605960 0.000000 0.000000 
#    y 0.000000 1.637490 0.000000 
#    z 0.000000 0.000000 1.640840 
# 
# From -- ./inp_files/24145.got.cif
#   From: 2010.06.25/outbox.cif.g09.slc.cpg/sg71_13_cif.got.tgz:24145.got - 2010.06.28 04:59:45.
