data_PCOD8288916
_publ_section_title
;
Structure prediction by ZEFSAII (Michael W. Deem and Ramdas Pophale) SiO2 
 PCOD8288916
Probable space group: I M M M
;
_chemical_formula_sum "Si O2"
_cell_formula_units_Z 104
_cell_length_a 21.174527
_cell_length_b 9.314923
_cell_length_c 28.389235
_cell_angle_alpha 90.000000
_cell_angle_beta 90.000000
_cell_angle_gamma 90.000000
_cell_volume 5599.466836
_symmetry_space_group_name_H-M "I M M M"
_symmetry_group_IT_number 71
_symmetry_cell_setting 'orthorhombic'
loop_
_space_group_symop_operation_xyz
x,y,z
-x,-y,z
x,-y,-z
-x,y,-z
-x,-y,-z
x,y,-z
-x,y,z
x,-y,z
1/2+x,1/2+y,1/2+z
1/2-x,1/2-y,1/2+z
1/2+x,1/2-y,1/2-z
1/2-x,1/2+y,1/2-z
1/2-x,1/2-y,1/2-z
1/2+x,1/2+y,1/2-z
1/2-x,1/2+y,1/2+z
1/2+x,1/2-y,1/2+z
loop_
_atom_site_type_symbol
_atom_site_label
_atom_site_fract_x
_atom_site_fract_y
_atom_site_fract_z
Si Si1 0.743218 0.169609 0.870301
Si Si2 0.684302 0.163580 0.446915
Si Si3 0.601533 0.830869 0.871604
Si Si4 0.929626 0.666326 0.268254
Si Si5 0.571021 0.161814 0.616761
Si Si6 0.642827 0.669322 0.693138
Si Si7 0.000000 0.328547 0.554223
O O1 0.770771 0.234536 0.917585
O O2 0.672429 0.232067 0.867128
O O3 0.786490 0.212879 0.824831
O O4 0.743885 0.000000 0.875597
O O5 0.687625 0.217919 0.500000
O O6 0.612243 0.178647 0.430100
O O7 0.707784 0.000000 0.441681
O O8 0.567115 0.789367 0.823074
O O9 0.561869 0.771772 0.916800
O O10 0.605449 0.000000 0.877457
O O11 0.910826 0.500000 0.263074
O O12 0.874694 0.756921 0.242664
O O13 0.000000 0.694806 0.247111
O O14 0.500000 0.195662 0.601582
O O15 0.591908 0.275287 0.655771
O O16 0.577853 0.000000 0.637716
O O17 0.636065 0.500000 0.698961
O O18 0.000000 0.500000 0.553362
O O19 0.000000 0.269724 0.500000
#
# Coordination Sequence:
#
# PCOD8288916 Si02
#       7
#    16  16  16  16  16  16   8
#     4   9  19  34  51  71 100 133 165 204 249 298
#     4   9  18  32  49  70  97 128 163 205 250 295
#     4   9  17  32  51  74 102 129 160 202 251 298
#     4  10  19  32  52  74  99 132 167 205 250 298
#     4   9  17  30  48  69  94 127 169 210 247 290
#     4  10  20  32  46  70 102 135 168 203 244 292
#     4   9  16  28  50  80 107 127 157 207 260 305
#
# _framework density 18.573197
#
# number of rings (size 3 to 8) (size 9 to 14) (size 15 to 20)
#    0.000    2.692    0.769    0.923    0.000    4.923 
#    0.000    3.846    0.000    0.000    0.000    4.308 
#    0.000    2.462    0.000    0.000    0.000    0.000 
#
# Total GULP energy -644470.766088 kJ/mol
# GULP energy per Si atom -12393.668579 kJ/mol
# Density = 1.853092 g / cm^3
# Si number density = 18.573197 Si / 1000 Ang^3
#
#
#
# Elastic Constant Matrix: (Units=GPa)
#
#
# Indices 1 2 3 4 5 6 
#
# 1 143.9836 33.1453 57.7277 0.0000 0.0000 0.0000
# 2 33.1453 35.8026 29.7984 0.0000 0.0000 0.0000
# 3 57.7277 29.7984 120.8940 0.0000 0.0000 0.0000
# 4 0.0000 0.0000 0.0000 20.5587 0.0000 0.0000
# 5 0.0000 0.0000 0.0000 0.0000 22.6766 0.0000
# 6 0.0000 0.0000 0.0000 0.0000 0.0000 17.3660
#
#
#
# Elastic Compliance Matrix: (Units=1/GPa)
#
#
# Indices 1 2 3 4 5 6 
#
# 1 0.009630 -0.006401 -0.003021 0.000000 0.000000 0.000000
# 2 -0.006401 0.039395 -0.006654 0.000000 0.000000 0.000000
# 3 -0.003021 -0.006654 0.011354 0.000000 0.000000 0.000000
# 4 0.000000 0.000000 0.000000 0.048641 0.000000 0.000000
# 5 0.000000 0.000000 0.000000 0.000000 0.044098 0.000000
# 6 0.000000 0.000000 0.000000 0.000000 0.000000 0.057584
#
#
# Mechanical properties :
#
#
# Convention : Reuss Voigt Hill
#
# Bulk Modulus (GPa) = 35.42567 60.22476 47.82522
# Shear Modulus (GPa) = 19.82069 24.12085 21.97077
#
# Velocity S-wave (km/s) = 3.27030 3.60765 3.44310
# Velocity P-wave (km/s) = 5.77709 7.06042 6.45075
#
# Compressibility (1/GPa) = 0.02822812
#
# Stress axis : x y z
#
# Youngs Moduli (GPa) = 103.84426 25.38414 88.07444
#
# Poissons Ratio (x) = 0.16249 0.26603
# Poissons Ratio (y) = 0.66472 0.58601
# Poissons Ratio (z) = 0.31367 0.16890
#
# Static dielectric constant tensor:
#      x y z
#    x 3.702610 0.000000 0.000000 
#    y 0.000000 3.131530 0.000000 
#    z 0.000000 0.000000 3.424460 
# 
# 
# High freq. dielectric constant tensor:
#      x y z
#    x 1.727560 0.000000 0.000000 
#    y 0.000000 1.685530 0.000000 
#    z 0.000000 0.000000 1.717520 
# 
# From -- ./inp_files/66853.got.cif
#   From: 2010.06.25/outbox.cif.g09.slc.cpg/sg71_34_cif.got.tgz:66853.got - 2010.06.28 04:59:45.
