data_PCOD8288505
_publ_section_title
;
Structure prediction by ZEFSAII (Michael W. Deem and Ramdas Pophale) SiO2 
 PCOD8288505
Probable space group: I M M M
;
_chemical_formula_sum "Si O2"
_cell_formula_units_Z 80
_cell_length_a 23.593348
_cell_length_b 25.531804
_cell_length_c 8.827974
_cell_angle_alpha 90.000000
_cell_angle_beta 90.000000
_cell_angle_gamma 90.000000
_cell_volume 5317.801483
_symmetry_space_group_name_H-M "I M M M"
_symmetry_group_IT_number 71
_symmetry_cell_setting 'orthorhombic'
loop_
_space_group_symop_operation_xyz
x,y,z
-x,-y,z
x,-y,-z
-x,y,-z
-x,-y,-z
x,y,-z
-x,y,z
x,-y,z
1/2+x,1/2+y,1/2+z
1/2-x,1/2-y,1/2+z
1/2+x,1/2-y,1/2-z
1/2-x,1/2+y,1/2-z
1/2-x,1/2-y,1/2-z
1/2+x,1/2+y,1/2-z
1/2-x,1/2+y,1/2+z
1/2+x,1/2-y,1/2+z
loop_
_atom_site_type_symbol
_atom_site_label
_atom_site_fract_x
_atom_site_fract_y
_atom_site_fract_z
Si Si1 0.819162 0.141879 0.827010
Si Si2 0.000000 0.779321 0.679246
Si Si3 0.500000 0.606872 0.677729
Si Si4 0.608019 0.560006 0.173817
Si Si5 0.785801 0.295419 0.324003
Si Si6 0.614371 0.748752 0.676831
O O1 0.837794 0.094913 0.718047
O O2 0.751703 0.151862 0.802025
O O3 0.855780 0.193379 0.787399
O O4 0.831075 0.125709 0.000000
O O5 0.945393 0.748500 0.739224
O O6 0.000000 0.779506 0.500000
O O7 0.000000 0.838385 0.737193
O O8 0.500000 0.618459 0.500000
O O9 0.444982 0.573769 0.720928
O O10 0.625093 0.500000 0.200236
O O11 0.591340 0.570681 0.000000
O O12 0.794801 0.283075 0.500000
O O13 0.750000 0.250000 0.250000
O O14 0.846805 0.296523 0.241189
O O15 0.605033 0.757356 0.500000
#
# Coordination Sequence:
#
# PCOD8288505 Si02
#       6
#    16   8   8  16  16  16
#     4   9  18  31  47  64  85 112 144 182 223 267
#     4  12  22  31  47  66  88 119 149 185 226 261
#     4  12  23  35  48  61  82 114 152 191 233 273
#     4  11  23  35  47  64  85 112 151 194 232 269
#     4   9  17  29  45  65  87 110 141 179 219 265
#     4  10  19  31  46  66  89 113 145 180 218 267
#
# _framework density 15.043812000000001
#
# number of rings (size 3 to 8) (size 9 to 14) (size 15 to 20)
#    0.000    1.800    2.000    5.100    0.000    6.800 
#    0.000    0.000    0.000    0.000    0.000    0.000 
#    0.000    0.000    0.000    0.900    0.000   16.800 
#
# Total GULP energy -495945.403346 kJ/mol
# GULP energy per Si atom -12398.635084 kJ/mol
# Density = 1.500957 g / cm^3
# Si number density = 15.043812 Si / 1000 Ang^3
#
#
#
# Elastic Constant Matrix: (Units=GPa)
#
#
# Indices 1 2 3 4 5 6 
#
# 1 111.2632 44.3340 59.7215 0.0000 0.0000 0.0000
# 2 44.3340 44.0292 31.8089 0.0000 0.0000 0.0000
# 3 59.7215 31.8089 108.9340 0.0000 0.0000 0.0000
# 4 0.0000 0.0000 0.0000 19.6840 0.0000 0.0000
# 5 0.0000 0.0000 0.0000 0.0000 29.4905 0.0000
# 6 0.0000 0.0000 0.0000 0.0000 0.0000 7.5176
#
#
#
# Elastic Compliance Matrix: (Units=1/GPa)
#
#
# Indices 1 2 3 4 5 6 
#
# 1 0.017331 -0.013417 -0.005584 0.000000 0.000000 0.000000
# 2 -0.013417 0.039172 -0.004082 0.000000 0.000000 0.000000
# 3 -0.005584 -0.004082 0.013433 0.000000 0.000000 0.000000
# 4 0.000000 0.000000 0.000000 0.050803 0.000000 0.000000
# 5 0.000000 0.000000 0.000000 0.000000 0.033909 0.000000
# 6 0.000000 0.000000 0.000000 0.000000 0.000000 0.133022
#
#
# Mechanical properties :
#
#
# Convention : Reuss Voigt Hill
#
# Bulk Modulus (GPa) = 42.07104 59.55057 50.81080
# Shear Modulus (GPa) = 14.63020 19.89587 17.26304
#
# Velocity S-wave (km/s) = 3.12189 3.64060 3.39118
# Velocity P-wave (km/s) = 6.40479 7.57250 7.01299
#
# Compressibility (1/GPa) = 0.02376932
#
# Stress axis : x y z
#
# Youngs Moduli (GPa) = 57.70026 25.52874 74.44293
#
# Poissons Ratio (x) = 0.34252 0.41566
# Poissons Ratio (y) = 0.77417 0.30391
# Poissons Ratio (z) = 0.32218 0.10422
#
# Static dielectric constant tensor:
#      x y z
#    x 3.246350 0.000000 0.000000 
#    y 0.000000 2.689700 0.000000 
#    z 0.000000 0.000000 3.084580 
# 
# 
# High freq. dielectric constant tensor:
#      x y z
#    x 1.573540 0.000000 0.000000 
#    y 0.000000 1.524300 0.000000 
#    z 0.000000 0.000000 1.596750 
# 
# From -- ./inp_files/10299.got.cif
#   From: 2010.06.25/outbox.cif.g09.slc.cpg/sg71_6_cif.got.tgz:10299.got - 2010.06.28 04:59:45.
