data_PCOD8288400
_publ_section_title
;
Structure prediction by ZEFSAII (Michael W. Deem and Ramdas Pophale) SiO2 
 PCOD8288400
Probable space group: I M M M
;
_chemical_formula_sum "Si O2"
_cell_formula_units_Z 88
_cell_length_a 19.771062
_cell_length_b 27.666058
_cell_length_c 9.155561
_cell_angle_alpha 90.000000
_cell_angle_beta 90.000000
_cell_angle_gamma 90.000000
_cell_volume 5007.976031
_symmetry_space_group_name_H-M "I M M M"
_symmetry_group_IT_number 71
_symmetry_cell_setting 'orthorhombic'
loop_
_space_group_symop_operation_xyz
x,y,z
-x,-y,z
x,-y,-z
-x,y,-z
-x,-y,-z
x,y,-z
-x,y,z
x,-y,z
1/2+x,1/2+y,1/2+z
1/2-x,1/2-y,1/2+z
1/2+x,1/2-y,1/2-z
1/2-x,1/2+y,1/2-z
1/2-x,1/2-y,1/2-z
1/2+x,1/2+y,1/2-z
1/2-x,1/2+y,1/2+z
1/2+x,1/2-y,1/2+z
loop_
_atom_site_type_symbol
_atom_site_label
_atom_site_fract_x
_atom_site_fract_y
_atom_site_fract_z
Si Si1 0.825549 0.418283 0.171166
Si Si2 0.203201 0.686630 0.831294
Si Si3 0.077151 0.864969 0.671168
Si Si4 0.924060 0.500000 0.174490
Si Si5 0.338722 0.708840 0.670166
Si Si6 0.821327 0.053702 0.673706
O O1 0.839875 0.361670 0.205965
O O2 0.884956 0.452297 0.235031
O O3 0.752543 0.432820 0.237228
O O4 0.822869 0.428021 0.000000
O O5 0.270002 0.686734 0.733874
O O6 0.157377 0.733535 0.799405
O O7 0.227102 0.685681 0.000000
O O8 0.088335 0.857046 0.500000
O O9 0.097303 0.815388 0.751749
O O10 0.122910 0.908768 0.733054
O O11 0.000000 0.877536 0.708153
O O12 0.000000 0.500000 0.239055
O O13 0.927068 0.500000 0.000000
O O14 0.341033 0.697136 0.500000
O O15 0.820226 0.056083 0.500000
O O16 0.841157 0.000000 0.727392
#
# Coordination Sequence:
#
# PCOD8288400 Si02
#       6
#    16  16  16   8  16  16
#     4   9  14  24  43  66  93 125 155 188 235 284
#     4   9  17  30  49  71  95 125 162 202 242 286
#     4  10  20  33  49  69  97 133 166 201 246 293
#     4   9  16  24  38  68 104 128 147 182 241 300
#     4  10  19  30  47  72  98 126 161 203 248 288
#     4   9  15  25  45  71  93 118 158 205 244 281
#
# _framework density 17.57197
#
# number of rings (size 3 to 8) (size 9 to 14) (size 15 to 20)
#    0.000    2.636    2.727    0.545    0.000    1.455 
#    0.000    2.727    0.000    3.818    0.000    1.273 
#    0.000    0.727    0.000    0.000    0.000    0.000 
#
# Total GULP energy -545412.370903 kJ/mol
# GULP energy per Si atom -12395.735702 kJ/mol
# Density = 1.753198 g / cm^3
# Si number density = 17.571970 Si / 1000 Ang^3
#
#
#
# Elastic Constant Matrix: (Units=GPa)
#
#
# Indices 1 2 3 4 5 6 
#
# 1 133.1521 82.1047 27.0702 0.0000 0.0000 0.0000
# 2 82.1047 160.3745 27.4966 0.0000 0.0000 0.0000
# 3 27.0702 27.4966 28.9962 0.0000 0.0000 0.0000
# 4 0.0000 0.0000 0.0000 18.0947 0.0000 0.0000
# 5 0.0000 0.0000 0.0000 0.0000 15.5771 0.0000
# 6 0.0000 0.0000 0.0000 0.0000 0.0000 30.0640
#
#
#
# Elastic Compliance Matrix: (Units=1/GPa)
#
#
# Indices 1 2 3 4 5 6 
#
# 1 0.011881 -0.004993 -0.006358 0.000000 0.000000 0.000000
# 2 -0.004993 0.009544 -0.004389 0.000000 0.000000 0.000000
# 3 -0.006358 -0.004389 0.044585 0.000000 0.000000 0.000000
# 4 0.000000 0.000000 0.000000 0.055265 0.000000 0.000000
# 5 0.000000 0.000000 0.000000 0.000000 0.064197 0.000000
# 6 0.000000 0.000000 0.000000 0.000000 0.000000 0.033262
#
#
# Mechanical properties :
#
#
# Convention : Reuss Voigt Hill
#
# Bulk Modulus (GPa) = 28.95954 66.20733 47.58344
# Shear Modulus (GPa) = 19.10408 25.13724 22.12066
#
# Velocity S-wave (km/s) = 3.30083 3.78634 3.55189
# Velocity P-wave (km/s) = 5.57168 7.54154 6.63017
#
# Compressibility (1/GPa) = 0.03453093
#
# Stress axis : x y z
#
# Youngs Moduli (GPa) = 84.16549 104.77782 22.42904
#
# Poissons Ratio (x) = 0.52312 0.14260
# Poissons Ratio (y) = 0.42021 0.09845
# Poissons Ratio (z) = 0.53510 0.45991
#
# Static dielectric constant tensor:
#      x y z
#    x 3.212030 0.000000 0.000000 
#    y 0.000000 3.624190 0.000000 
#    z 0.000000 0.000000 2.824550 
# 
# 
# High freq. dielectric constant tensor:
#      x y z
#    x 1.657880 0.000000 0.000000 
#    y 0.000000 1.698210 0.000000 
#    z 0.000000 0.000000 1.626210 
# 
# From -- ./inp_files/8862.got.cif
#   From: 2010.06.25/outbox.cif.g09.slc.cpg/sg71_5_cif.got.tgz:8862.got - 2010.06.28 04:59:45.
