data_PCOD8288553
_publ_section_title
;
Structure prediction by ZEFSAII (Michael W. Deem and Ramdas Pophale) SiO2 
 PCOD8288553
Probable space group: I M M M
;
_chemical_formula_sum "Si O2"
_cell_formula_units_Z 80
_cell_length_a 23.009423
_cell_length_b 17.664623
_cell_length_c 12.227831
_cell_angle_alpha 90.000000
_cell_angle_beta 90.000000
_cell_angle_gamma 90.000000
_cell_volume 4970.035937
_symmetry_space_group_name_H-M "I M M M"
_symmetry_group_IT_number 71
_symmetry_cell_setting 'orthorhombic'
loop_
_space_group_symop_operation_xyz
x,y,z
-x,-y,z
x,-y,-z
-x,y,-z
-x,-y,-z
x,y,-z
-x,y,z
x,-y,z
1/2+x,1/2+y,1/2+z
1/2-x,1/2-y,1/2+z
1/2+x,1/2-y,1/2-z
1/2-x,1/2+y,1/2-z
1/2-x,1/2-y,1/2-z
1/2+x,1/2+y,1/2-z
1/2-x,1/2+y,1/2+z
1/2+x,1/2-y,1/2+z
loop_
_atom_site_type_symbol
_atom_site_label
_atom_site_fract_x
_atom_site_fract_y
_atom_site_fract_z
Si Si1 0.434422 0.000000 0.369450
Si Si2 0.370802 0.853046 0.629345
Si Si3 0.750671 0.912950 0.625438
Si Si4 0.373051 0.411435 0.783193
Si Si5 0.067375 0.202199 0.129532
Si Si6 0.934523 0.090001 0.500000
O O1 0.403964 0.925299 0.320532
O O2 0.500000 0.000000 0.327580
O O3 0.430695 0.000000 0.500000
O O4 0.378263 0.854617 0.500000
O O5 0.302572 0.858545 0.660333
O O6 0.399987 0.776807 0.675605
O O7 0.770021 0.898087 0.500000
O O8 0.804212 0.895763 0.706078
O O9 0.730081 0.000000 0.636557
O O10 0.385770 0.500000 0.768108
O O11 0.399949 0.370110 0.678804
O O12 0.403493 0.378648 0.891846
O O13 0.000000 0.204505 0.165479
O O14 0.072936 0.195863 0.000000
O O15 0.000000 0.119892 0.500000
O O16 0.930510 0.000000 0.500000
#
# Coordination Sequence:
#
# PCOD8288553 Si02
#       6
#     8  16  16  16  16   8
#     4   9  14  22  40  66  92 121 155 186 223 276
#     4   9  16  27  44  67  92 124 152 186 232 276
#     4   9  15  27  47  71  97 116 146 188 239 288
#     4  10  19  31  48  69  90 123 158 194 236 273
#     4  10  21  34  45  63  96 131 161 190 222 269
#     4   9  16  28  46  68  88 109 147 199 243 273
#
# _framework density 16.096464000000001
#
# number of rings (size 3 to 8) (size 9 to 14) (size 15 to 20)
#    0.000    2.600    2.000    1.200    0.000    4.800 
#    0.000    1.000    0.000    0.000    0.000    0.000 
#    0.000    0.800    0.000    4.000    0.000    1.300 
#
# Total GULP energy -495897.829699 kJ/mol
# GULP energy per Si atom -12397.445742 kJ/mol
# Density = 1.605983 g / cm^3
# Si number density = 16.096464 Si / 1000 Ang^3
#
#
#
# Elastic Constant Matrix: (Units=GPa)
#
#
# Indices 1 2 3 4 5 6 
#
# 1 121.7084 59.7361 30.8133 0.0000 0.0000 0.0000
# 2 59.7361 87.6037 28.5592 0.0000 0.0000 0.0000
# 3 30.8133 28.5592 29.1160 0.0000 0.0000 0.0000
# 4 0.0000 0.0000 0.0000 15.0517 0.0000 0.0000
# 5 0.0000 0.0000 0.0000 0.0000 17.4315 0.0000
# 6 0.0000 0.0000 0.0000 0.0000 0.0000 29.4853
#
#
#
# Elastic Compliance Matrix: (Units=1/GPa)
#
#
# Indices 1 2 3 4 5 6 
#
# 1 0.013426 -0.006649 -0.007687 0.000000 0.000000 0.000000
# 2 -0.006649 0.020074 -0.012654 0.000000 0.000000 0.000000
# 3 -0.007687 -0.012654 0.054892 0.000000 0.000000 0.000000
# 4 0.000000 0.000000 0.000000 0.066438 0.000000 0.000000
# 5 0.000000 0.000000 0.000000 0.000000 0.057367 0.000000
# 6 0.000000 0.000000 0.000000 0.000000 0.000000 0.033915
#
#
# Mechanical properties :
#
#
# Convention : Reuss Voigt Hill
#
# Bulk Modulus (GPa) = 29.05862 52.96058 41.00960
# Shear Modulus (GPa) = 16.04821 20.34834 18.19828
#
# Velocity S-wave (km/s) = 3.16096 3.55935 3.36605
# Velocity P-wave (km/s) = 5.60484 7.06154 6.37493
#
# Compressibility (1/GPa) = 0.03441319
#
# Stress axis : x y z
#
# Youngs Moduli (GPa) = 74.48313 49.81539 18.21772
#
# Poissons Ratio (x) = 0.33123 0.14003
# Poissons Ratio (y) = 0.49525 0.23052
# Poissons Ratio (z) = 0.57252 0.63034
#
# Static dielectric constant tensor:
#      x y z
#    x 3.218310 0.000000 0.000000 
#    y 0.000000 2.982820 0.000000 
#    z 0.000000 0.000000 2.594710 
# 
# 
# High freq. dielectric constant tensor:
#      x y z
#    x 1.639750 0.000000 0.000000 
#    y 0.000000 1.604680 0.000000 
#    z 0.000000 0.000000 1.562710 
# 
# From -- ./inp_files/25569.got.cif
#   From: 2010.06.25/outbox.cif.g09.slc.cpg/sg71_13_cif.got.tgz:25569.got - 2010.06.28 04:59:45.
