data_PCOD8288857
_publ_section_title
;
Structure prediction by ZEFSAII (Michael W. Deem and Ramdas Pophale) SiO2 
 PCOD8288857
Probable space group: I M M M
;
_chemical_formula_sum "Si O2"
_cell_formula_units_Z 96
_cell_length_a 28.736181
_cell_length_b 14.998912
_cell_length_c 12.710126
_cell_angle_alpha 90.000000
_cell_angle_beta 90.000000
_cell_angle_gamma 90.000000
_cell_volume 5478.209837
_symmetry_space_group_name_H-M "I M M M"
_symmetry_group_IT_number 71
_symmetry_cell_setting 'orthorhombic'
loop_
_space_group_symop_operation_xyz
x,y,z
-x,-y,z
x,-y,-z
-x,y,-z
-x,-y,-z
x,y,-z
-x,y,z
x,-y,z
1/2+x,1/2+y,1/2+z
1/2-x,1/2-y,1/2+z
1/2+x,1/2-y,1/2-z
1/2-x,1/2+y,1/2-z
1/2-x,1/2-y,1/2-z
1/2+x,1/2+y,1/2-z
1/2-x,1/2+y,1/2+z
1/2+x,1/2-y,1/2+z
loop_
_atom_site_type_symbol
_atom_site_label
_atom_site_fract_x
_atom_site_fract_y
_atom_site_fract_z
Si Si1 0.611535 0.893114 0.500000
Si Si2 0.650100 0.722502 0.120072
Si Si3 0.052405 0.399211 0.191626
Si Si4 0.448894 0.229179 0.880669
Si Si5 0.273560 0.396412 0.200295
Si Si6 0.702320 0.899540 0.879661
Si Si7 0.715936 0.894363 0.500000
O O1 0.586042 0.855261 0.604145
O O2 0.663816 0.855531 0.500000
O O3 0.608427 0.000000 0.500000
O O4 0.594918 0.705177 0.140309
O O5 0.678471 0.658843 0.198683
O O6 0.661960 0.827087 0.142154
O O7 0.662984 0.697381 0.000000
O O8 0.067638 0.500000 0.211796
O O9 0.056852 0.353395 0.303902
O O10 0.000000 0.392548 0.147514
O O11 0.500000 0.275753 0.863721
O O12 0.445081 0.192649 0.000000
O O13 0.285838 0.500000 0.186714
O O14 0.247209 0.376829 0.308989
O O15 0.241866 0.360601 0.104392
O O16 0.683939 0.000000 0.852013
O O17 0.719253 0.894917 0.000000
O O18 0.712912 0.000000 0.500000
#
# Coordination Sequence:
#
# PCOD8288857 Si02
#       7
#     8  16  16  16  16  16   8
#     4   9  17  28  43  64  92 124 157 190 233 280
#     4  10  19  32  51  71  94 127 162 195 237 287
#     4   9  17  29  45  64  89 123 161 198 233 275
#     4   9  19  33  47  65  89 119 155 197 243 283
#     4  10  19  33  52  72  98 125 157 200 240 284
#     4   9  19  33  48  70 101 134 162 190 226 274
#     4   9  18  29  44  69  94 121 152 191 239 279
#
# _framework density 17.523972000000001
#
# number of rings (size 3 to 8) (size 9 to 14) (size 15 to 20)
#    0.000    2.667    0.833    0.750    2.333    2.000 
#    0.000    3.333    0.000    0.500    0.000    2.333 
#    0.000    0.000    0.000    4.167    0.000    0.000 
#
# Total GULP energy -594922.295700 kJ/mol
# GULP energy per Si atom -12394.214494 kJ/mol
# Density = 1.748409 g / cm^3
# Si number density = 17.523972 Si / 1000 Ang^3
#
#
#
# Elastic Constant Matrix: (Units=GPa)
#
#
# Indices 1 2 3 4 5 6 
#
# 1 138.9920 36.6190 48.9247 0.0000 0.0000 0.0000
# 2 36.6190 38.2600 17.3680 0.0000 0.0000 0.0000
# 3 48.9247 17.3680 76.9353 0.0000 0.0000 0.0000
# 4 0.0000 0.0000 0.0000 17.6299 0.0000 0.0000
# 5 0.0000 0.0000 0.0000 0.0000 19.1681 0.0000
# 6 0.0000 0.0000 0.0000 0.0000 0.0000 18.8406
#
#
#
# Elastic Compliance Matrix: (Units=1/GPa)
#
#
# Indices 1 2 3 4 5 6 
#
# 1 0.011257 -0.008384 -0.005266 0.000000 0.000000 0.000000
# 2 -0.008384 0.035365 -0.002652 0.000000 0.000000 0.000000
# 3 -0.005266 -0.002652 0.016945 0.000000 0.000000 0.000000
# 4 0.000000 0.000000 0.000000 0.056722 0.000000 0.000000
# 5 0.000000 0.000000 0.000000 0.000000 0.052170 0.000000
# 6 0.000000 0.000000 0.000000 0.000000 0.000000 0.053077
#
#
# Mechanical properties :
#
#
# Convention : Reuss Voigt Hill
#
# Bulk Modulus (GPa) = 32.29589 51.11231 41.70410
# Shear Modulus (GPa) = 18.62466 21.21277 19.91872
#
# Velocity S-wave (km/s) = 3.26361 3.48300 3.37509
# Velocity P-wave (km/s) = 5.71587 6.73836 6.24806
#
# Compressibility (1/GPa) = 0.03096369
#
# Stress axis : x y z
#
# Youngs Moduli (GPa) = 88.83310 28.27647 59.01311
#
# Poissons Ratio (x) = 0.23706 0.31076
# Poissons Ratio (y) = 0.74476 0.15651
# Poissons Ratio (z) = 0.46779 0.07499
#
# Static dielectric constant tensor:
#      x y z
#    x 3.450230 0.000000 0.000000 
#    y 0.000000 2.855680 0.000000 
#    z 0.000000 0.000000 3.331730 
# 
# 
# High freq. dielectric constant tensor:
#      x y z
#    x 1.681220 0.000000 0.000000 
#    y 0.000000 1.623160 0.000000 
#    z 0.000000 0.000000 1.683490 
# 
# From -- ./inp_files/29986.got.cif
#   From: 2010.06.25/outbox.cif.g09.slc.cpg/sg71_15_cif.got.tgz:29986.got - 2010.06.28 04:59:45.
