data_PCOD8288702
_publ_section_title
;
Structure prediction by ZEFSAII (Michael W. Deem and Ramdas Pophale) SiO2 
 PCOD8288702
Probable space group: I M M M
;
_chemical_formula_sum "Si O2"
_cell_formula_units_Z 104
_cell_length_a 32.904057
_cell_length_b 8.867106
_cell_length_c 18.719882
_cell_angle_alpha 90.000000
_cell_angle_beta 90.000000
_cell_angle_gamma 90.000000
_cell_volume 5461.783182
_symmetry_space_group_name_H-M "I M M M"
_symmetry_group_IT_number 71
_symmetry_cell_setting 'orthorhombic'
loop_
_space_group_symop_operation_xyz
x,y,z
-x,-y,z
x,-y,-z
-x,y,-z
-x,-y,-z
x,y,-z
-x,y,z
x,-y,z
1/2+x,1/2+y,1/2+z
1/2-x,1/2-y,1/2+z
1/2+x,1/2-y,1/2-z
1/2-x,1/2+y,1/2-z
1/2-x,1/2-y,1/2-z
1/2+x,1/2+y,1/2-z
1/2-x,1/2+y,1/2+z
1/2+x,1/2-y,1/2+z
loop_
_atom_site_type_symbol
_atom_site_label
_atom_site_fract_x
_atom_site_fract_y
_atom_site_fract_z
Si Si1 0.426004 0.320568 0.675780
Si Si2 0.000000 0.179841 0.919721
Si Si3 0.733593 0.821979 0.418159
Si Si4 0.117639 0.179910 0.420827
Si Si5 0.190825 0.820652 0.674239
Si Si6 0.833976 0.820799 0.169626
Si Si7 0.955129 0.820395 0.328011
O O1 0.426076 0.500000 0.676400
O O2 0.458886 0.259948 0.618407
O O3 0.380318 0.262701 0.659925
O O4 0.439293 0.257171 0.752625
O O5 0.000000 0.000000 0.918212
O O6 0.000000 0.242964 0.000000
O O7 0.744163 0.777319 0.500000
O O8 0.768262 0.760653 0.363935
O O9 0.691253 0.746228 0.396087
O O10 0.729125 0.000000 0.411155
O O11 0.123069 0.246154 0.500000
O O12 0.153259 0.244267 0.371130
O O13 0.074554 0.236593 0.390356
O O14 0.119323 0.000000 0.421960
O O15 0.185779 0.762448 0.755545
O O16 0.189987 0.000000 0.672778
O O17 0.832483 0.000000 0.166849
O O18 0.000000 0.756720 0.344028
O O19 0.955746 0.000000 0.324585
#
# Coordination Sequence:
#
# PCOD8288702 Si02
#       7
#    16   8  16  16  16  16  16
#     4   9  15  25  40  60  87 117 147 185 233 277
#     4   9  16  24  36  56  84 118 152 184 222 273
#     4  10  21  35  49  67  94 126 157 191 234 283
#     4   9  15  22  35  57  85 119 158 192 223 269
#     4   9  16  29  47  66  88 118 156 194 231 275
#     4  10  19  31  51  74  94 119 156 199 238 275
#     4   9  14  21  34  52  82 122 154 182 224 275
#
# _framework density 19.041401
#
# number of rings (size 3 to 8) (size 9 to 14) (size 15 to 20)
#    0.000    2.692    2.308    0.923    0.000    3.077 
#    0.000    3.077    0.000    0.000    0.000    0.538 
#    0.000    1.846    0.000    0.000    0.000    2.154 
#
# Total GULP energy -644565.161035 kJ/mol
# GULP energy per Si atom -12395.483866 kJ/mol
# Density = 1.899806 g / cm^3
# Si number density = 19.041401 Si / 1000 Ang^3
#
#
#
# Elastic Constant Matrix: (Units=GPa)
#
#
# Indices 1 2 3 4 5 6 
#
# 1 154.8971 12.7526 53.0749 0.0000 0.0000 0.0000
# 2 12.7526 4.5982 12.1396 0.0000 0.0000 0.0000
# 3 53.0749 12.1396 113.0123 0.0000 0.0000 0.0000
# 4 0.0000 0.0000 0.0000 12.4442 0.0000 0.0000
# 5 0.0000 0.0000 0.0000 0.0000 37.7371 0.0000
# 6 0.0000 0.0000 0.0000 0.0000 0.0000 13.5800
#
#
#
# Elastic Compliance Matrix: (Units=1/GPa)
#
#
# Indices 1 2 3 4 5 6 
#
# 1 0.008705 -0.018633 -0.002087 0.000000 0.000000 0.000000
# 2 -0.018633 0.343447 -0.028142 0.000000 0.000000 0.000000
# 3 -0.002087 -0.028142 0.012851 0.000000 0.000000 0.000000
# 4 0.000000 0.000000 0.000000 0.080359 0.000000 0.000000
# 5 0.000000 0.000000 0.000000 0.000000 0.026499 0.000000
# 6 0.000000 0.000000 0.000000 0.000000 0.000000 0.073638
#
#
# Mechanical properties :
#
#
# Convention : Reuss Voigt Hill
#
# Bulk Modulus (GPa) = 3.74139 47.60464 25.67301
# Shear Modulus (GPa) = 6.82766 25.72162 16.27464
#
# Velocity S-wave (km/s) = 1.89565 3.67935 2.92669
# Velocity P-wave (km/s) = 2.60008 6.56544 4.99327
#
# Compressibility (1/GPa) = 0.26728046
#
# Stress axis : x y z
#
# Youngs Moduli (GPa) = 114.87745 2.91166 77.81212
#
# Poissons Ratio (x) = 0.05425 0.16236
# Poissons Ratio (y) = 2.14053 2.18976
# Poissons Ratio (z) = 0.23971 0.08194
#
# Static dielectric constant tensor:
#      x y z
#    x 3.796720 0.000000 0.000000 
#    y 0.000000 2.632100 0.000000 
#    z 0.000000 0.000000 3.667220 
# 
# 
# High freq. dielectric constant tensor:
#      x y z
#    x 1.759470 0.000000 0.000000 
#    y 0.000000 1.650130 0.000000 
#    z 0.000000 0.000000 1.747690 
# 
# From -- ./inp_files/11450.got.cif
#   From: 2010.06.25/outbox.cif.g09.slc.cpg/sg71_6_cif.got.tgz:11450.got - 2010.06.28 04:59:45.
