data_PCOD8288373
_publ_section_title
;
Structure prediction by ZEFSAII (Michael W. Deem and Ramdas Pophale) SiO2 
 PCOD8288373
Probable space group: I M M M
;
_chemical_formula_sum "Si O2"
_cell_formula_units_Z 64
_cell_length_a 13.615381
_cell_length_b 13.316032
_cell_length_c 21.558796
_cell_angle_alpha 90.000000
_cell_angle_beta 90.000000
_cell_angle_gamma 90.000000
_cell_volume 3908.671138
_symmetry_space_group_name_H-M "I M M M"
_symmetry_group_IT_number 71
_symmetry_cell_setting 'orthorhombic'
loop_
_space_group_symop_operation_xyz
x,y,z
-x,-y,z
x,-y,-z
-x,y,-z
-x,-y,-z
x,y,-z
-x,y,z
x,-y,z
1/2+x,1/2+y,1/2+z
1/2-x,1/2-y,1/2+z
1/2+x,1/2-y,1/2-z
1/2-x,1/2+y,1/2-z
1/2-x,1/2-y,1/2-z
1/2+x,1/2+y,1/2-z
1/2-x,1/2+y,1/2+z
1/2+x,1/2-y,1/2+z
loop_
_atom_site_type_symbol
_atom_site_label
_atom_site_fract_x
_atom_site_fract_y
_atom_site_fract_z
Si Si1 0.615998 0.310931 0.069905
Si Si2 0.613899 0.891435 0.875228
Si Si3 0.612068 0.210758 0.254145
Si Si4 0.711693 0.384983 0.188380
O O1 0.500000 0.318320 0.084374
O O2 0.653872 0.196125 0.079636
O O3 0.672990 0.382323 0.117638
O O4 0.639642 0.345565 0.000000
O O5 0.500000 0.903726 0.888603
O O6 0.631746 0.860921 0.804328
O O7 0.665300 0.000000 0.888108
O O8 0.500000 0.207603 0.277138
O O9 0.639204 0.324865 0.234892
O O10 0.680977 0.167996 0.308904
O O11 0.716617 0.500000 0.210144
#
# Coordination Sequence:
#
# PCOD8288373 Si02
#       4
#    16  16  16  16
#     4   9  18  30  42  61  90 120 152 190 227 265
#     4   8  13  23  41  63  86 112 140 172 216 268
#     4   9  18  31  46  68  96 119 144 185 232 273
#     4  10  19  30  47  69  91 119 154 187 222 270
#
# _framework density 16.373851999999999
#
# number of rings (size 3 to 8) (size 9 to 14) (size 15 to 20)
#    0.000    3.000    0.000    3.000    0.000    4.500 
#    0.000    3.750    0.000    0.750    0.000    1.750 
#    0.000    0.000    0.000   18.250    0.000    0.750 
#
# Total GULP energy -396549.543912 kJ/mol
# GULP energy per Si atom -12392.173247 kJ/mol
# Density = 1.633658 g / cm^3
# Si number density = 16.373852 Si / 1000 Ang^3
#
#
#
# Elastic Constant Matrix: (Units=GPa)
#
#
# Indices 1 2 3 4 5 6 
#
# 1 85.3902 25.5617 39.6410 0.0000 0.0000 0.0000
# 2 25.5617 103.5356 21.8074 0.0000 0.0000 0.0000
# 3 39.6410 21.8074 66.5970 0.0000 0.0000 0.0000
# 4 0.0000 0.0000 0.0000 10.9729 0.0000 0.0000
# 5 0.0000 0.0000 0.0000 0.0000 23.3729 0.0000
# 6 0.0000 0.0000 0.0000 0.0000 0.0000 14.2838
#
#
#
# Elastic Compliance Matrix: (Units=1/GPa)
#
#
# Indices 1 2 3 4 5 6 
#
# 1 0.016624 -0.002170 -0.009185 0.000000 0.000000 0.000000
# 2 -0.002170 0.010657 -0.002198 0.000000 0.000000 0.000000
# 3 -0.009185 -0.002198 0.021203 0.000000 0.000000 0.000000
# 4 0.000000 0.000000 0.000000 0.091134 0.000000 0.000000
# 5 0.000000 0.000000 0.000000 0.000000 0.042785 0.000000
# 6 0.000000 0.000000 0.000000 0.000000 0.000000 0.070010
#
#
# Mechanical properties :
#
#
# Convention : Reuss Voigt Hill
#
# Bulk Modulus (GPa) = 46.77606 47.72702 47.25154
# Shear Modulus (GPa) = 17.44319 20.96007 19.20163
#
# Velocity S-wave (km/s) = 3.26745 3.58172 3.42819
# Velocity P-wave (km/s) = 6.54710 6.80563 6.67761
#
# Compressibility (1/GPa) = 0.02137846
#
# Stress axis : x y z
#
# Youngs Moduli (GPa) = 60.15230 93.83325 47.16372
#
# Poissons Ratio (x) = 0.20360 0.43320
# Poissons Ratio (y) = 0.13052 0.10368
# Poissons Ratio (z) = 0.55250 0.20626
#
# Static dielectric constant tensor:
#      x y z
#    x 2.912920 0.000000 0.000000 
#    y 0.000000 3.244240 0.000000 
#    z 0.000000 0.000000 2.869810 
# 
# 
# High freq. dielectric constant tensor:
#      x y z
#    x 1.593390 0.000000 0.000000 
#    y 0.000000 1.643890 0.000000 
#    z 0.000000 0.000000 1.600270 
# 
# From -- ./inp_files/21447.got.cif
#   From: 2010.06.25/outbox.cif.g09.slc.cpg/sg71_11_cif.got.tgz:21447.got - 2010.06.28 04:59:45.
