data_PCOD8288869
_publ_section_title
;
Structure prediction by ZEFSAII (Michael W. Deem and Ramdas Pophale) SiO2 
 PCOD8288869
Probable space group: I M M M
;
_chemical_formula_sum "Si O2"
_cell_formula_units_Z 72
_cell_length_a 8.732001
_cell_length_b 30.757629
_cell_length_c 14.529793
_cell_angle_alpha 90.000000
_cell_angle_beta 90.000000
_cell_angle_gamma 90.000000
_cell_volume 3902.348558
_symmetry_space_group_name_H-M "I M M M"
_symmetry_group_IT_number 71
_symmetry_cell_setting 'orthorhombic'
loop_
_space_group_symop_operation_xyz
x,y,z
-x,-y,z
x,-y,-z
-x,y,-z
-x,-y,-z
x,y,-z
-x,y,z
x,-y,z
1/2+x,1/2+y,1/2+z
1/2-x,1/2-y,1/2+z
1/2+x,1/2-y,1/2-z
1/2-x,1/2+y,1/2-z
1/2-x,1/2-y,1/2-z
1/2+x,1/2+y,1/2-z
1/2-x,1/2+y,1/2+z
1/2+x,1/2-y,1/2+z
loop_
_atom_site_type_symbol
_atom_site_label
_atom_site_fract_x
_atom_site_fract_y
_atom_site_fract_z
Si Si1 0.818747 0.290473 0.196685
Si Si2 0.666310 0.448688 0.000000
Si Si3 0.819188 0.738620 0.000000
Si Si4 0.817975 0.163775 0.000000
Si Si5 0.817198 0.951691 0.302522
Si Si6 0.818532 0.130998 0.805341
O O1 0.750000 0.250000 0.250000
O O2 0.756686 0.335226 0.235997
O O3 0.000000 0.288649 0.206097
O O4 0.765066 0.287353 0.090302
O O5 0.751162 0.436791 0.096748
O O6 0.643242 0.500000 0.000000
O O7 0.500000 0.425571 0.000000
O O8 0.749500 0.787464 0.000000
O O9 0.000000 0.743813 0.000000
O O10 0.758707 0.138684 0.909165
O O11 0.000000 0.164875 0.000000
O O12 0.765820 0.917321 0.225034
O O13 0.000000 0.952835 0.311606
O O14 0.757184 0.000000 0.274967
O O15 0.000000 0.136968 0.799415
#
# Coordination Sequence:
#
# PCOD8288869 Si02
#       6
#    16   8   8   8  16  16
#     4  11  21  35  53  73  97 128 164 201 242 292
#     4   7  10  19  36  60  93 126 150 187 248 293
#     4   9  18  33  51  68  98 134 158 188 250 308
#     4   9  16  30  48  67  96 135 163 190 252 306
#     4   8  14  25  43  68  97 128 161 198 242 289
#     4  10  19  32  51  73  99 131 167 205 244 291
#
# _framework density 18.450427999999999
#
# number of rings (size 3 to 8) (size 9 to 14) (size 15 to 20)
#    0.000    2.778    2.222    2.000    0.000    0.889 
#    0.000    5.556    0.000    4.000    0.000    0.000 
#    0.000    7.111    0.000    0.000    0.000    0.000 
#
# Total GULP energy -446053.400699 kJ/mol
# GULP energy per Si atom -12390.372242 kJ/mol
# Density = 1.840843 g / cm^3
# Si number density = 18.450428 Si / 1000 Ang^3
#
#
#
# Elastic Constant Matrix: (Units=GPa)
#
#
# Indices 1 2 3 4 5 6 
#
# 1 24.7271 19.1994 22.8614 0.0000 0.0000 0.0000
# 2 19.1994 137.6815 95.1864 0.0000 0.0000 0.0000
# 3 22.8614 95.1864 191.1819 0.0000 0.0000 -0.0001
# 4 0.0000 0.0000 0.0000 34.1319 0.0000 0.0000
# 5 0.0000 0.0000 0.0000 0.0000 15.5440 0.0000
# 6 0.0000 0.0000 -0.0001 0.0000 0.0000 16.9730
#
#
#
# Elastic Compliance Matrix: (Units=1/GPa)
#
#
# Indices 1 2 3 4 5 6 
#
# 1 0.046912 -0.004062 -0.003588 0.000000 0.000000 0.000000
# 2 -0.004062 0.011427 -0.005204 0.000000 0.000000 0.000000
# 3 -0.003588 -0.005204 0.008250 0.000000 0.000000 0.000000
# 4 0.000000 0.000000 0.000000 0.029298 0.000000 0.000000
# 5 0.000000 0.000000 0.000000 0.000000 0.064333 0.000000
# 6 0.000000 0.000000 0.000000 0.000000 0.000000 0.058917
#
#
# Mechanical properties :
#
#
# Convention : Reuss Voigt Hill
#
# Bulk Modulus (GPa) = 24.45944 69.78721 47.12332
# Shear Modulus (GPa) = 19.34447 27.75265 23.54856
#
# Velocity S-wave (km/s) = 3.24150 3.88258 3.57643
# Velocity P-wave (km/s) = 5.22450 7.61613 6.53073
#
# Compressibility (1/GPa) = 0.04088401
#
# Stress axis : x y z
#
# Youngs Moduli (GPa) = 21.31652 87.51122 121.20550
#
# Poissons Ratio (x) = 0.35543 0.43483
# Poissons Ratio (y) = 0.08658 0.63072
# Poissons Ratio (z) = 0.07647 0.45538
#
# Static dielectric constant tensor:
#      x y z
#    x 2.887830 0.000000 0.000000 
#    y 0.000000 3.405290 0.000000 
#    z 0.000000 0.000000 3.934840 
# 
# 
# High freq. dielectric constant tensor:
#      x y z
#    x 1.656540 0.000000 0.000000 
#    y 0.000000 1.706990 0.000000 
#    z 0.000000 0.000000 1.730800 
# 
# From -- ./inp_files/6557.got.cif
#   From: 2010.06.25/outbox.cif.g09.slc.cpg/sg71_4_cif.got.tgz:6557.got - 2010.06.28 04:59:45.
