data_PCOD8288703
_publ_section_title
;
Structure prediction by ZEFSAII (Michael W. Deem and Ramdas Pophale) SiO2 
 PCOD8288703
Probable space group: I M M M
;
_chemical_formula_sum "Si O2"
_cell_formula_units_Z 104
_cell_length_a 19.540234
_cell_length_b 9.466812
_cell_length_c 31.915217
_cell_angle_alpha 90.000000
_cell_angle_beta 90.000000
_cell_angle_gamma 90.000000
_cell_volume 5903.795620
_symmetry_space_group_name_H-M "I M M M"
_symmetry_group_IT_number 71
_symmetry_cell_setting 'orthorhombic'
loop_
_space_group_symop_operation_xyz
x,y,z
-x,-y,z
x,-y,-z
-x,y,-z
-x,-y,-z
x,y,-z
-x,y,z
x,-y,z
1/2+x,1/2+y,1/2+z
1/2-x,1/2-y,1/2+z
1/2+x,1/2-y,1/2-z
1/2-x,1/2+y,1/2-z
1/2-x,1/2-y,1/2-z
1/2+x,1/2+y,1/2-z
1/2-x,1/2+y,1/2+z
1/2+x,1/2-y,1/2+z
loop_
_atom_site_type_symbol
_atom_site_label
_atom_site_fract_x
_atom_site_fract_y
_atom_site_fract_z
Si Si1 0.578116 0.663986 0.451944
Si Si2 0.421595 0.668648 0.000000
Si Si3 0.342781 0.162923 0.779558
Si Si4 0.215246 0.339423 0.192639
Si Si5 0.188087 0.336260 0.098438
Si Si6 0.578083 0.661774 0.160932
Si Si7 0.659700 0.667762 0.919379
O O1 0.593583 0.702102 0.500000
O O2 0.500000 0.702970 0.440842
O O3 0.591625 0.500000 0.443613
O O4 0.627473 0.752574 0.422836
O O5 0.381012 0.728170 0.959528
O O6 0.421643 0.500000 0.000000
O O7 0.500000 0.724439 0.000000
O O8 0.276115 0.230432 0.800686
O O9 0.341129 0.180912 0.729190
O O10 0.408517 0.244707 0.797649
O O11 0.346303 0.000000 0.792646
O O12 0.244651 0.500000 0.193766
O O13 0.180863 0.309197 0.148056
O O14 0.179226 0.500000 0.087391
O O15 0.261437 0.281594 0.080985
O O16 0.500000 0.676718 0.147106
O O17 0.596734 0.500000 0.171255
O O18 0.623550 0.722344 0.122867
O O19 0.655988 0.500000 0.919876
#
# Coordination Sequence:
#
# PCOD8288703 Si02
#       7
#    16   8  16  16  16  16  16
#     4   9  20  39  58  76 104 140 172 206 255 316
#     4   9  16  26  42  68 102 137 172 208 251 301
#     4  10  19  31  51  75 100 133 174 218 261 307
#     4   9  18  34  52  73 103 136 167 208 263 315
#     4  10  19  32  54  81 108 133 167 218 262 304
#     4  10  19  33  52  72 102 144 181 214 257 308
#     4   9  17  29  46  72 104 135 169 211 255 297
#
# _framework density 17.615784999999999
#
# number of rings (size 3 to 8) (size 9 to 14) (size 15 to 20)
#    0.000    2.538    1.538    1.385    1.077    4.000 
#    0.000    1.538    0.000    4.615    0.000    0.000 
#    0.000    2.462    0.000    0.000    0.000    0.000 
#
# Total GULP energy -644714.335123 kJ/mol
# GULP energy per Si atom -12398.352599 kJ/mol
# Density = 1.757569 g / cm^3
# Si number density = 17.615785 Si / 1000 Ang^3
#
#
#
# Elastic Constant Matrix: (Units=GPa)
#
#
# Indices 1 2 3 4 5 6 
#
# 1 114.7752 47.2283 75.9178 0.0000 0.0000 0.0000
# 2 47.2283 65.5504 51.8312 0.0000 0.0000 0.0000
# 3 75.9178 51.8312 128.7085 0.0000 0.0000 0.0000
# 4 0.0000 0.0000 0.0000 25.7658 0.0000 0.0000
# 5 0.0000 0.0000 0.0000 0.0000 30.2298 0.0000
# 6 0.0000 0.0000 0.0000 0.0000 0.0000 26.4067
#
#
#
# Elastic Compliance Matrix: (Units=1/GPa)
#
#
# Indices 1 2 3 4 5 6 
#
# 1 0.015677 -0.005845 -0.006894 0.000000 0.000000 0.000000
# 2 -0.005845 0.024561 -0.006444 0.000000 0.000000 0.000000
# 3 -0.006894 -0.006444 0.014430 0.000000 0.000000 0.000000
# 4 0.000000 0.000000 0.000000 0.038811 0.000000 0.000000
# 5 0.000000 0.000000 0.000000 0.000000 0.033080 0.000000
# 6 0.000000 0.000000 0.000000 0.000000 0.000000 0.037869
#
#
# Mechanical properties :
#
#
# Convention : Reuss Voigt Hill
#
# Bulk Modulus (GPa) = 61.32780 73.22096 67.27438
# Shear Modulus (GPa) = 24.01215 25.41759 24.71487
#
# Velocity S-wave (km/s) = 3.69603 3.80266 3.74972
# Velocity P-wave (km/s) = 7.28724 7.80615 7.55116
#
# Compressibility (1/GPa) = 0.01630582
#
# Stress axis : x y z
#
# Youngs Moduli (GPa) = 63.78614 40.71441 69.29796
#
# Poissons Ratio (x) = 0.23796 0.47771
# Poissons Ratio (y) = 0.37280 0.44652
# Poissons Ratio (z) = 0.43971 0.26234
#
# Static dielectric constant tensor:
#      x y z
#    x 3.205010 0.000000 0.000000 
#    y 0.000000 3.069030 0.000000 
#    z 0.000000 0.000000 3.478680 
# 
# 
# High freq. dielectric constant tensor:
#      x y z
#    x 1.673200 0.000000 0.000000 
#    y 0.000000 1.653580 0.000000 
#    z 0.000000 0.000000 1.689010 
# 
# From -- ./inp_files/70709.got.cif
#   From: 2010.06.25/outbox.cif.g09.slc.cpg/sg71_36_cif.got.tgz:70709.got - 2010.06.28 04:59:45.
