data_PCOD8288341
_publ_section_title
;
Structure prediction by ZEFSAII (Michael W. Deem and Ramdas Pophale) SiO2 
 PCOD8288341
Probable space group: I M M M
;
_chemical_formula_sum "Si O2"
_cell_formula_units_Z 128
_cell_length_a 17.742129
_cell_length_b 18.475081
_cell_length_c 22.523759
_cell_angle_alpha 90.000000
_cell_angle_beta 90.000000
_cell_angle_gamma 90.000000
_cell_volume 7383.001481
_symmetry_space_group_name_H-M "I M M M"
_symmetry_group_IT_number 71
_symmetry_cell_setting 'orthorhombic'
loop_
_space_group_symop_operation_xyz
x,y,z
-x,-y,z
x,-y,-z
-x,y,-z
-x,-y,-z
x,y,-z
-x,y,z
x,-y,z
1/2+x,1/2+y,1/2+z
1/2-x,1/2-y,1/2+z
1/2+x,1/2-y,1/2-z
1/2-x,1/2+y,1/2-z
1/2-x,1/2-y,1/2-z
1/2+x,1/2+y,1/2-z
1/2-x,1/2+y,1/2+z
1/2+x,1/2-y,1/2+z
loop_
_atom_site_type_symbol
_atom_site_label
_atom_site_fract_x
_atom_site_fract_y
_atom_site_fract_z
Si Si1 0.346306 0.315237 0.069009
Si Si2 0.912895 0.638519 0.841373
Si Si3 0.917930 0.920506 0.352442
Si Si4 0.913768 0.786933 0.784880
Si Si5 0.912566 0.713692 0.341327
Si Si6 0.205834 0.417430 0.931285
Si Si7 0.147529 0.581443 0.276302
Si Si8 0.678354 0.582153 0.738444
O O1 0.413475 0.366526 0.091962
O O2 0.356614 0.241338 0.106459
O O3 0.270346 0.359359 0.083676
O O4 0.354533 0.296971 0.000000
O O5 0.887006 0.720681 0.826468
O O6 0.868018 0.606035 0.896202
O O7 0.900594 0.589473 0.783452
O O8 0.000000 0.636327 0.858950
O O9 0.851919 0.908549 0.305125
O O10 0.000000 0.908757 0.321416
O O11 0.912091 0.000000 0.380066
O O12 0.902776 0.765284 0.715895
O O13 0.864544 0.857910 0.801511
O O14 0.000000 0.805586 0.798329
O O15 0.885309 0.632761 0.327265
O O16 0.000000 0.711931 0.361521
O O17 0.230291 0.500000 0.913737
O O18 0.184575 0.414372 0.000000
O O19 0.140110 0.500000 0.300251
O O20 0.233818 0.600800 0.261285
O O21 0.662692 0.500000 0.715306
#
# Coordination Sequence:
#
# PCOD8288341 Si02
#       8
#    16  16  16  16  16  16  16  16
#     4  11  22  35  52  72  97 130 172 218 253 297
#     4  10  21  34  53  78 104 138 176 213 251 297
#     4  10  19  30  46  69 102 141 172 202 243 292
#     4   9  18  32  49  74 107 139 172 209 252 304
#     4  10  21  35  52  74 100 134 171 209 259 310
#     4  10  22  38  54  75 105 140 175 211 251 295
#     4  10  21  34  52  78 103 132 169 213 261 308
#     4  10  19  30  48  75 105 139 173 204 250 309
#
# _framework density 17.337122999999998
#
# number of rings (size 3 to 8) (size 9 to 14) (size 15 to 20)
#    0.000    2.000    1.250    3.375    1.750    6.500 
#    0.000    1.250    0.000    0.375    0.000    0.875 
#    0.000    0.500    0.000    2.750    0.000    0.000 
#
# Total GULP energy -793352.557402 kJ/mol
# GULP energy per Si atom -12396.133709 kJ/mol
# Density = 1.729766 g / cm^3
# Si number density = 17.337123 Si / 1000 Ang^3
#
#
#
# Elastic Constant Matrix: (Units=GPa)
#
#
# Indices 1 2 3 4 5 6 
#
# 1 87.8354 55.1839 42.8791 0.0000 0.0000 0.0000
# 2 55.1839 118.9571 43.1898 0.0000 0.0000 0.0000
# 3 42.8791 43.1898 69.2313 0.0000 0.0000 0.0000
# 4 0.0000 0.0000 0.0000 25.0805 0.0000 0.0000
# 5 0.0000 0.0000 0.0000 0.0000 19.8134 0.0000
# 6 0.0000 0.0000 0.0000 0.0000 0.0000 29.4372
#
#
#
# Elastic Compliance Matrix: (Units=1/GPa)
#
#
# Indices 1 2 3 4 5 6 
#
# 1 0.019051 -0.005887 -0.008127 0.000000 0.000000 0.000000
# 2 -0.005887 0.012687 -0.004269 0.000000 0.000000 0.000000
# 3 -0.008127 -0.004269 0.022141 0.000000 0.000000 0.000000
# 4 0.000000 0.000000 0.000000 0.039872 0.000000 0.000000
# 5 0.000000 0.000000 0.000000 0.000000 0.050471 0.000000
# 6 0.000000 0.000000 0.000000 0.000000 0.000000 0.033971
#
#
# Mechanical properties :
#
#
# Convention : Reuss Voigt Hill
#
# Bulk Modulus (GPa) = 57.75720 62.05884 59.90802
# Shear Modulus (GPa) = 22.67285 23.85095 23.26190
#
# Velocity S-wave (km/s) = 3.62022 3.71309 3.66695
# Velocity P-wave (km/s) = 7.13170 7.36585 7.24972
#
# Compressibility (1/GPa) = 0.01731386
#
# Stress axis : x y z
#
# Youngs Moduli (GPa) = 52.49117 78.81942 45.16575
#
# Poissons Ratio (x) = 0.46402 0.36705
# Poissons Ratio (y) = 0.30902 0.19280
# Poissons Ratio (z) = 0.42658 0.33646
#
# Static dielectric constant tensor:
#      x y z
#    x 3.295730 0.000000 0.000000 
#    y 0.000000 3.462040 0.000000 
#    z 0.000000 0.000000 2.879490 
# 
# 
# High freq. dielectric constant tensor:
#      x y z
#    x 1.679830 0.000000 0.000000 
#    y 0.000000 1.678790 0.000000 
#    z 0.000000 0.000000 1.620810 
# 
# From -- ./inp_files/60897.got.cif
#   From: 2010.06.25/outbox.cif.g09.slc.cpg/sg71_31_cif.got.tgz:60897.got - 2010.06.28 04:59:45.
