data_PCOD8288024
_publ_section_title
;
Structure prediction by ZEFSAII (Michael W. Deem and Ramdas Pophale) SiO2 
 PCOD8288024
Probable space group: I M M M
;
_chemical_formula_sum "Si O2"
_cell_formula_units_Z 80
_cell_length_a 23.660317
_cell_length_b 11.991809
_cell_length_c 12.338141
_cell_angle_alpha 90.000000
_cell_angle_beta 90.000000
_cell_angle_gamma 90.000000
_cell_volume 3500.700775
_symmetry_space_group_name_H-M "I M M M"
_symmetry_group_IT_number 71
_symmetry_cell_setting 'orthorhombic'
loop_
_space_group_symop_operation_xyz
x,y,z
-x,-y,z
x,-y,-z
-x,y,-z
-x,-y,-z
x,y,-z
-x,y,z
x,-y,z
1/2+x,1/2+y,1/2+z
1/2-x,1/2-y,1/2+z
1/2+x,1/2-y,1/2-z
1/2-x,1/2+y,1/2-z
1/2-x,1/2-y,1/2-z
1/2+x,1/2+y,1/2-z
1/2-x,1/2+y,1/2+z
1/2+x,1/2-y,1/2+z
loop_
_atom_site_type_symbol
_atom_site_label
_atom_site_fract_x
_atom_site_fract_y
_atom_site_fract_z
Si Si1 0.440819 0.000000 0.347127
Si Si2 0.390912 0.630846 0.377549
Si Si3 0.173126 0.627965 0.375318
Si Si4 0.720457 0.763815 0.373170
Si Si5 0.816334 0.500000 0.117205
Si Si6 0.060971 0.283516 0.705574
O O1 0.383088 0.000000 0.413676
O O2 0.441575 0.106701 0.273767
O O3 0.500000 0.000000 0.416513
O O4 0.410238 0.663979 0.500000
O O5 0.389839 0.500000 0.362848
O O6 0.328601 0.675399 0.353208
O O7 0.432816 0.680104 0.287967
O O8 0.190153 0.609997 0.500000
O O9 0.169105 0.500000 0.323135
O O10 0.221705 0.710307 0.322415
O O11 0.114370 0.697422 0.373614
O O12 0.729757 0.784760 0.500000
O O13 0.701792 0.885007 0.320618
O O14 0.785797 0.500000 0.000000
O O15 0.000000 0.267001 0.644287
#
# Coordination Sequence:
#
# PCOD8288024 Si02
#       6
#     8  16  16  16   8  16
#     4  10  20  35  53  80 120 156 190 239 288 344
#     4  10  21  39  62  88 120 157 195 237 291 355
#     4  10  21  39  63  88 117 155 196 244 303 357
#     4   9  18  34  57  87 120 152 192 242 294 355
#     4  10  18  33  56  85 122 158 192 238 294 354
#     4  11  23  39  59  86 119 153 199 250 291 346
#
# _framework density 22.852568000000002
#
# number of rings (size 3 to 8) (size 9 to 14) (size 15 to 20)
#    0.000    2.000    3.000    0.600    0.000    4.600 
#    1.800    4.000    0.000    0.000    0.000    1.400 
#    0.000    0.000    0.000    0.000    0.000    0.000 
#
# Total GULP energy -495623.743224 kJ/mol
# GULP energy per Si atom -12390.593581 kJ/mol
# Density = 2.280055 g / cm^3
# Si number density = 22.852568 Si / 1000 Ang^3
#
#
#
# Elastic Constant Matrix: (Units=GPa)
#
#
# Indices 1 2 3 4 5 6 
#
# 1 171.9615 60.5025 26.6427 0.0000 0.0000 0.0000
# 2 60.5025 134.6654 40.2462 0.0000 0.0000 0.0000
# 3 26.6427 40.2462 28.2561 0.0000 0.0000 0.0000
# 4 0.0000 0.0000 0.0000 33.5232 0.0000 0.0000
# 5 0.0000 0.0000 0.0000 0.0000 29.9219 0.0000
# 6 0.0000 0.0000 0.0000 0.0000 0.0000 33.0154
#
#
#
# Elastic Compliance Matrix: (Units=1/GPa)
#
#
# Indices 1 2 3 4 5 6 
#
# 1 0.007129 -0.002079 -0.003761 0.000000 0.000000 0.000000
# 2 -0.002079 0.013536 -0.017319 0.000000 0.000000 0.000000
# 3 -0.003761 -0.017319 0.063606 0.000000 0.000000 0.000000
# 4 0.000000 0.000000 0.000000 0.029830 0.000000 0.000000
# 5 0.000000 0.000000 0.000000 0.000000 0.033420 0.000000
# 6 0.000000 0.000000 0.000000 0.000000 0.000000 0.030289
#
#
# Mechanical properties :
#
#
# Convention : Reuss Voigt Hill
#
# Bulk Modulus (GPa) = 26.34918 65.51843 45.93381
# Shear Modulus (GPa) = 21.11663 33.12486 27.12075
#
# Velocity S-wave (km/s) = 3.04310 3.81136 3.44869
# Velocity P-wave (km/s) = 4.88900 6.93548 6.00014
#
# Compressibility (1/GPa) = 0.03795185
#
# Stress axis : x y z
#
# Youngs Moduli (GPa) = 140.26275 73.87705 15.72191
#
# Poissons Ratio (x) = 0.15360 0.05913
# Poissons Ratio (y) = 0.29162 0.27229
# Poissons Ratio (z) = 0.52754 1.27951
#
# Static dielectric constant tensor:
#      x y z
#    x 5.082670 0.000000 0.000000 
#    y 0.000000 4.343130 0.000000 
#    z 0.000000 0.000000 4.040030 
# 
# 
# High freq. dielectric constant tensor:
#      x y z
#    x 1.900930 0.000000 0.000000 
#    y 0.000000 1.909510 0.000000 
#    z 0.000000 0.000000 1.914770 
# 
# From -- ./inp_files/48026.got.cif
#   From: 2010.06.25/outbox.cif.g09.slc.cpg/sg71_25_cif.got.tgz:48026.got - 2010.06.28 04:59:45.
