data_PCOD8288002
_publ_section_title
;
Structure prediction by ZEFSAII (Michael W. Deem and Ramdas Pophale) SiO2 
 PCOD8288002
Probable space group: I M M M
;
_chemical_formula_sum "Si O2"
_cell_formula_units_Z 112
_cell_length_a 20.088803
_cell_length_b 13.657346
_cell_length_c 25.117693
_cell_angle_alpha 90.000000
_cell_angle_beta 90.000000
_cell_angle_gamma 90.000000
_cell_volume 6891.283553
_symmetry_space_group_name_H-M "I M M M"
_symmetry_group_IT_number 71
_symmetry_cell_setting 'orthorhombic'
loop_
_space_group_symop_operation_xyz
x,y,z
-x,-y,z
x,-y,-z
-x,y,-z
-x,-y,-z
x,y,-z
-x,y,z
x,-y,z
1/2+x,1/2+y,1/2+z
1/2-x,1/2-y,1/2+z
1/2+x,1/2-y,1/2-z
1/2-x,1/2+y,1/2-z
1/2-x,1/2-y,1/2-z
1/2+x,1/2+y,1/2-z
1/2-x,1/2+y,1/2+z
1/2+x,1/2-y,1/2+z
loop_
_atom_site_type_symbol
_atom_site_label
_atom_site_fract_x
_atom_site_fract_y
_atom_site_fract_z
Si Si1 0.923743 0.741403 0.560330
Si Si2 0.350237 0.803788 0.742038
Si Si3 0.182457 0.112077 0.602194
Si Si4 0.291275 0.389810 0.774940
Si Si5 0.423028 0.887251 0.158981
Si Si6 0.678236 0.116480 0.440789
Si Si7 0.923992 0.614028 0.146696
O O1 0.907772 0.707814 0.500000
O O2 0.879606 0.833357 0.576689
O O3 0.909029 0.650317 0.599247
O O4 0.000000 0.775715 0.565798
O O5 0.329945 0.689200 0.738716
O O6 0.287621 0.871850 0.727642
O O7 0.376897 0.827339 0.800730
O O8 0.407786 0.824532 0.699509
O O9 0.182880 0.122874 0.665371
O O10 0.250857 0.157315 0.579051
O O11 0.175443 0.000000 0.584541
O O12 0.306180 0.500000 0.754347
O O13 0.500000 0.872628 0.174984
O O14 0.402337 0.000000 0.161269
O O15 0.663577 0.156326 0.500000
O O16 0.620282 0.154430 0.401919
O O17 0.679252 0.000000 0.439893
O O18 0.909948 0.500000 0.158632
O O19 0.000000 0.632073 0.130747
#
# Coordination Sequence:
#
# PCOD8288002 Si02
#       7
#    16  16  16  16  16  16  16
#     4  10  21  35  49  69  96 125 165 210 249 293
#     4  11  19  32  52  72  99 127 162 201 240 286
#     4  10  18  33  51  69  97 128 163 202 241 292
#     4  10  20  32  50  74  99 129 162 197 242 290
#     4  10  20  33  50  71  94 125 163 201 247 296
#     4   9  17  29  46  69  97 129 161 190 229 284
#     4  10  19  30  47  72 101 131 162 199 241 286
#
# _framework density 16.252414000000002
#
# number of rings (size 3 to 8) (size 9 to 14) (size 15 to 20)
#    0.000    2.000    2.857    2.143    0.000    2.857 
#    0.000    3.571    0.000    1.714    0.000    0.000 
#    0.000    0.571    0.000    1.286    0.000    0.143 
#
# Total GULP energy -694458.756011 kJ/mol
# GULP energy per Si atom -12401.049214 kJ/mol
# Density = 1.621542 g / cm^3
# Si number density = 16.252414 Si / 1000 Ang^3
#
#
#
# Elastic Constant Matrix: (Units=GPa)
#
#
# Indices 1 2 3 4 5 6 
#
# 1 79.6599 35.1212 33.6296 0.0000 0.0000 0.0000
# 2 35.1212 76.0120 28.2453 0.0000 0.0000 0.0000
# 3 33.6296 28.2453 80.8099 0.0000 0.0000 0.0000
# 4 0.0000 0.0000 0.0000 18.4321 0.0000 0.0000
# 5 0.0000 0.0000 0.0000 0.0000 27.2128 0.0000
# 6 0.0000 0.0000 0.0000 0.0000 0.0000 21.1067
#
#
#
# Elastic Compliance Matrix: (Units=1/GPa)
#
#
# Indices 1 2 3 4 5 6 
#
# 1 0.017419 -0.006154 -0.005098 0.000000 0.000000 0.000000
# 2 -0.006154 0.017294 -0.003484 0.000000 0.000000 0.000000
# 3 -0.005098 -0.003484 0.015714 0.000000 0.000000 0.000000
# 4 0.000000 0.000000 0.000000 0.054253 0.000000 0.000000
# 5 0.000000 0.000000 0.000000 0.000000 0.036747 0.000000
# 6 0.000000 0.000000 0.000000 0.000000 0.000000 0.047378
#
#
# Mechanical properties :
#
#
# Convention : Reuss Voigt Hill
#
# Bulk Modulus (GPa) = 47.72063 47.83045 47.77554
# Shear Modulus (GPa) = 22.19643 22.64937 22.42290
#
# Velocity S-wave (km/s) = 3.69959 3.73715 3.71841
# Velocity P-wave (km/s) = 6.90472 6.93652 6.92064
#
# Compressibility (1/GPa) = 0.02095530
#
# Stress axis : x y z
#
# Youngs Moduli (GPa) = 57.40934 57.82450 63.63798
#
# Poissons Ratio (x) = 0.35585 0.32442
# Poissons Ratio (y) = 0.35329 0.22169
# Poissons Ratio (z) = 0.29267 0.20144
#
# Static dielectric constant tensor:
#      x y z
#    x 3.091040 0.000000 0.000000 
#    y 0.000000 2.880010 0.000000 
#    z 0.000000 0.000000 3.183540 
# 
# 
# High freq. dielectric constant tensor:
#      x y z
#    x 1.628040 0.000000 0.000000 
#    y 0.000000 1.594460 0.000000 
#    z 0.000000 0.000000 1.630700 
# 
# From -- ./inp_files/26261.got.cif
#   From: 2010.06.25/outbox.cif.g09.slc.cpg/sg71_14_cif.got.tgz:26261.got - 2010.06.28 04:59:45.
