data_PCOD8288709
_publ_section_title
;
Structure prediction by ZEFSAII (Michael W. Deem and Ramdas Pophale) SiO2 
 PCOD8288709
Probable space group: I M M M
;
_chemical_formula_sum "Si O2"
_cell_formula_units_Z 88
_cell_length_a 28.040638
_cell_length_b 7.652501
_cell_length_c 22.014908
_cell_angle_alpha 90.000000
_cell_angle_beta 90.000000
_cell_angle_gamma 90.000000
_cell_volume 4723.981201
_symmetry_space_group_name_H-M "I M M M"
_symmetry_group_IT_number 71
_symmetry_cell_setting 'orthorhombic'
loop_
_space_group_symop_operation_xyz
x,y,z
-x,-y,z
x,-y,-z
-x,y,-z
-x,-y,-z
x,y,-z
-x,y,z
x,-y,z
1/2+x,1/2+y,1/2+z
1/2-x,1/2-y,1/2+z
1/2+x,1/2-y,1/2-z
1/2-x,1/2+y,1/2-z
1/2-x,1/2-y,1/2-z
1/2+x,1/2+y,1/2-z
1/2-x,1/2+y,1/2+z
1/2+x,1/2-y,1/2+z
loop_
_atom_site_type_symbol
_atom_site_label
_atom_site_fract_x
_atom_site_fract_y
_atom_site_fract_z
Si Si1 0.054731 0.794836 0.000000
Si Si2 0.944633 0.198321 0.362000
Si Si3 0.217194 0.500000 0.571930
Si Si4 0.387399 0.200369 0.616691
Si Si5 0.390095 0.000000 0.927935
Si Si6 0.287041 0.201023 0.428223
Si Si7 0.553905 0.791935 0.271399
O O1 0.078400 0.715948 0.940620
O O2 0.000000 0.737436 0.000000
O O3 0.061733 0.000000 0.000000
O O4 0.915447 0.324994 0.405450
O O5 0.927355 0.218332 0.292586
O O6 0.000000 0.250977 0.366554
O O7 0.935926 0.000000 0.383816
O O8 0.215390 0.500000 0.500000
O O9 0.163780 0.500000 0.598089
O O10 0.243968 0.675801 0.594383
O O11 0.334991 0.277594 0.603189
O O12 0.412334 0.287626 0.675624
O O13 0.379491 0.000000 0.631641
O O14 0.391339 0.000000 0.000000
O O15 0.295180 0.216143 0.500000
O O16 0.275723 0.000000 0.410195
O O17 0.500000 0.726765 0.283925
O O18 0.555540 0.000000 0.269718
#
# Coordination Sequence:
#
# PCOD8288709 Si02
#       7
#     8  16   8  16   8  16  16
#     4  11  23  31  39  67 113 153 187 245 305 339
#     4  10  21  38  61  88 119 153 183 215 262 330
#     4   9  20  35  56  81 108 146 179 228 288 331
#     4  10  19  31  51  76 102 146 198 242 289 333
#     4  11  23  40  63  92 118 143 178 220 278 339
#     4   9  17  31  51  77 106 141 191 238 285 335
#     4   9  17  32  54  79 108 148 194 232 269 327
#
# _framework density 18.628354999999999
#
# number of rings (size 3 to 8) (size 9 to 14) (size 15 to 20)
#    0.000    2.273    1.818    1.091    1.273    4.000 
#    0.000    4.545    0.000    1.091    0.000    0.000 
#    0.000    0.000    0.000    0.000    0.000    0.000 
#
# Total GULP energy -545519.171679 kJ/mol
# GULP energy per Si atom -12398.162993 kJ/mol
# Density = 1.858596 g / cm^3
# Si number density = 18.628355 Si / 1000 Ang^3
#
#
#
# Elastic Constant Matrix: (Units=GPa)
#
#
# Indices 1 2 3 4 5 6 
#
# 1 126.2654 52.1360 58.6508 0.0000 0.0000 0.0000
# 2 52.1360 78.9654 34.0265 0.0000 0.0000 0.0000
# 3 58.6508 34.0265 88.3800 0.0000 0.0000 0.0000
# 4 0.0000 0.0000 0.0000 8.1897 0.0000 0.0000
# 5 0.0000 0.0000 0.0000 0.0000 19.4672 0.0000
# 6 0.0000 0.0000 0.0000 0.0000 0.0000 20.7870
#
#
#
# Elastic Compliance Matrix: (Units=1/GPa)
#
#
# Indices 1 2 3 4 5 6 
#
# 1 0.013499 -0.006057 -0.006626 0.000000 0.000000 0.000000
# 2 -0.006057 0.017901 -0.002872 0.000000 0.000000 0.000000
# 3 -0.006626 -0.002872 0.016818 0.000000 0.000000 0.000000
# 4 0.000000 0.000000 0.000000 0.122104 0.000000 0.000000
# 5 0.000000 0.000000 0.000000 0.000000 0.051369 0.000000
# 6 0.000000 0.000000 0.000000 0.000000 0.000000 0.048107
#
#
# Mechanical properties :
#
#
# Convention : Reuss Voigt Hill
#
# Bulk Modulus (GPa) = 58.45761 64.80416 61.63089
# Shear Modulus (GPa) = 16.30742 19.60863 17.95802
#
# Velocity S-wave (km/s) = 2.96194 3.24793 3.10823
# Velocity P-wave (km/s) = 6.56860 6.99492 6.78511
#
# Compressibility (1/GPa) = 0.01710641
#
# Stress axis : x y z
#
# Youngs Moduli (GPa) = 74.08138 55.86420 59.46132
#
# Poissons Ratio (x) = 0.33838 0.39399
# Poissons Ratio (y) = 0.44872 0.17078
# Poissons Ratio (z) = 0.49086 0.16045
#
# Static dielectric constant tensor:
#      x y z
#    x 3.589050 0.000000 0.000000 
#    y 0.000000 3.462490 0.000000 
#    z 0.000000 0.000000 3.295610 
# 
# 
# High freq. dielectric constant tensor:
#      x y z
#    x 1.714630 0.000000 0.000000 
#    y 0.000000 1.727190 0.000000 
#    z 0.000000 0.000000 1.699480 
# 
# From -- ./inp_files/55614.got.cif
#   From: 2010.06.25/outbox.cif.g09.slc.cpg/sg71_28_cif.got.tgz:55614.got - 2010.06.28 04:59:45.
