data_PCOD8288780
_publ_section_title
;
Structure prediction by ZEFSAII (Michael W. Deem and Ramdas Pophale) SiO2 
 PCOD8288780
Probable space group: I M M M
;
_chemical_formula_sum "Si O2"
_cell_formula_units_Z 88
_cell_length_a 27.397070
_cell_length_b 20.170707
_cell_length_c 8.785704
_cell_angle_alpha 90.000000
_cell_angle_beta 90.000000
_cell_angle_gamma 90.000000
_cell_volume 4855.140560
_symmetry_space_group_name_H-M "I M M M"
_symmetry_group_IT_number 71
_symmetry_cell_setting 'orthorhombic'
loop_
_space_group_symop_operation_xyz
x,y,z
-x,-y,z
x,-y,-z
-x,y,-z
-x,-y,-z
x,y,-z
-x,y,z
x,-y,z
1/2+x,1/2+y,1/2+z
1/2-x,1/2-y,1/2+z
1/2+x,1/2-y,1/2-z
1/2-x,1/2+y,1/2-z
1/2-x,1/2-y,1/2-z
1/2+x,1/2+y,1/2-z
1/2-x,1/2+y,1/2+z
1/2+x,1/2-y,1/2+z
loop_
_atom_site_type_symbol
_atom_site_label
_atom_site_fract_x
_atom_site_fract_y
_atom_site_fract_z
Si Si1 0.279377 0.357517 0.818119
Si Si2 0.945046 0.866471 0.178770
Si Si3 0.816792 0.500000 0.672359
Si Si4 0.442049 0.500000 0.829631
Si Si5 0.282335 0.500000 0.174745
Si Si6 0.638835 0.268848 0.321063
Si Si7 0.672971 0.855242 0.824325
O O1 0.301671 0.429318 0.760204
O O2 0.315462 0.300698 0.764826
O O3 0.227167 0.346136 0.741564
O O4 0.272918 0.355960 0.000000
O O5 0.911294 0.804914 0.227491
O O6 0.000000 0.852549 0.239421
O O7 0.922513 0.933717 0.249004
O O8 0.945578 0.876842 0.000000
O O9 0.794335 0.500000 0.500000
O O10 0.775560 0.500000 0.799969
O O11 0.846823 0.431330 0.694678
O O12 0.500000 0.500000 0.823032
O O13 0.421447 0.500000 0.000000
O O14 0.295068 0.500000 0.000000
O O15 0.647470 0.273789 0.500000
O O16 0.635869 0.192532 0.267067
O O17 0.673606 0.834055 0.000000
#
# Coordination Sequence:
#
# PCOD8288780 Si02
#       7
#    16  16   8   8   8  16  16
#     4  10  19  32  48  68  97 130 162 196 234 276
#     4   9  19  36  54  70  93 127 164 200 239 285
#     4   8  16  30  49  69  89 118 154 189 226 274
#     4   9  17  30  51  76  98 122 157 202 245 282
#     4   8  16  29  45  64  88 123 162 196 228 263
#     4  11  22  33  47  70  96 124 159 196 238 284
#     4  10  19  33  51  71  96 125 157 193 233 278
#
# _framework density 18.125119000000002
#
# number of rings (size 3 to 8) (size 9 to 14) (size 15 to 20)
#    0.000    2.455    0.000    2.455    0.000    4.727 
#    0.000    1.818    0.000    0.000    0.000    0.636 
#    0.000    5.091    0.000    0.000    0.000    0.000 
#
# Total GULP energy -545208.241846 kJ/mol
# GULP energy per Si atom -12391.096406 kJ/mol
# Density = 1.808387 g / cm^3
# Si number density = 18.125119 Si / 1000 Ang^3
#
#
#
# Elastic Constant Matrix: (Units=GPa)
#
#
# Indices 1 2 3 4 5 6 
#
# 1 57.2599 48.3384 22.9223 0.0000 0.0000 0.0000
# 2 48.3384 143.0688 26.4411 0.0000 0.0000 0.0000
# 3 22.9223 26.4411 41.3316 0.0000 0.0000 0.0000
# 4 0.0000 0.0000 0.0000 28.5344 0.0000 0.0000
# 5 0.0000 0.0000 0.0000 0.0000 15.0563 0.0000
# 6 0.0000 0.0000 0.0000 0.0000 0.0000 12.7130
#
#
#
# Elastic Compliance Matrix: (Units=1/GPa)
#
#
# Indices 1 2 3 4 5 6 
#
# 1 0.028123 -0.007507 -0.010794 0.000000 0.000000 0.000000
# 2 -0.007507 0.009931 -0.002190 0.000000 0.000000 0.000000
# 3 -0.010794 -0.002190 0.031582 0.000000 0.000000 0.000000
# 4 0.000000 0.000000 0.000000 0.035045 0.000000 0.000000
# 5 0.000000 0.000000 0.000000 0.000000 0.066417 0.000000
# 6 0.000000 0.000000 0.000000 0.000000 0.000000 0.078660
#
#
# Mechanical properties :
#
#
# Convention : Reuss Voigt Hill
#
# Bulk Modulus (GPa) = 34.89980 48.56264 41.73122
# Shear Modulus (GPa) = 16.65055 20.85797 18.75426
#
# Velocity S-wave (km/s) = 3.03420 3.39599 3.22018
# Velocity P-wave (km/s) = 5.61889 6.49832 6.07454
#
# Compressibility (1/GPa) = 0.02865346
#
# Stress axis : x y z
#
# Youngs Moduli (GPa) = 35.55864 100.69852 31.66375
#
# Poissons Ratio (x) = 0.75592 0.34179
# Poissons Ratio (y) = 0.26693 0.06933
# Poissons Ratio (z) = 0.38383 0.22050
#
# Static dielectric constant tensor:
#      x y z
#    x 3.009070 0.000000 0.000000 
#    y 0.000000 3.912020 0.000000 
#    z 0.000000 0.000000 3.389240 
# 
# 
# High freq. dielectric constant tensor:
#      x y z
#    x 1.645120 0.000000 0.000000 
#    y 0.000000 1.721160 0.000000 
#    z 0.000000 0.000000 1.707930 
# 
# From -- ./inp_files/16902.got.cif
#   From: 2010.06.25/outbox.cif.g09.slc.cpg/sg71_9_cif.got.tgz:16902.got - 2010.06.28 04:59:45.
