data_PCOD8288137
_publ_section_title
;
Structure prediction by ZEFSAII (Michael W. Deem and Ramdas Pophale) SiO2 
 PCOD8288137
Probable space group: I M M M
;
_chemical_formula_sum "Si O2"
_cell_formula_units_Z 88
_cell_length_a 29.296298
_cell_length_b 17.868023
_cell_length_c 9.646846
_cell_angle_alpha 90.000000
_cell_angle_beta 90.000000
_cell_angle_gamma 90.000000
_cell_volume 5049.804826
_symmetry_space_group_name_H-M "I M M M"
_symmetry_group_IT_number 71
_symmetry_cell_setting 'orthorhombic'
loop_
_space_group_symop_operation_xyz
x,y,z
-x,-y,z
x,-y,-z
-x,y,-z
-x,-y,-z
x,y,-z
-x,y,z
x,-y,z
1/2+x,1/2+y,1/2+z
1/2-x,1/2-y,1/2+z
1/2+x,1/2-y,1/2-z
1/2-x,1/2+y,1/2-z
1/2-x,1/2-y,1/2-z
1/2+x,1/2+y,1/2-z
1/2-x,1/2+y,1/2+z
1/2+x,1/2-y,1/2+z
loop_
_atom_site_type_symbol
_atom_site_label
_atom_site_fract_x
_atom_site_fract_y
_atom_site_fract_z
Si Si1 0.079829 0.694330 0.163464
Si Si2 0.179919 0.725782 0.838133
Si Si3 0.604142 0.500000 0.335022
Si Si4 0.189510 0.000000 0.346839
Si Si5 0.775247 0.840998 0.656459
Si Si6 0.551058 0.355901 0.664622
Si Si7 0.000000 0.414171 0.834641
O O1 0.133257 0.681403 0.203002
O O2 0.067413 0.776056 0.225060
O O3 0.045563 0.629690 0.221104
O O4 0.072714 0.695486 0.000000
O O5 0.186301 0.803001 0.753571
O O6 0.223357 0.675742 0.797399
O O7 0.177884 0.746967 0.000000
O O8 0.605102 0.500000 0.500000
O O9 0.654486 0.500000 0.277411
O O10 0.580131 0.574858 0.276599
O O11 0.222074 0.929373 0.330405
O O12 0.165941 0.000000 0.500000
O O13 0.783879 0.812521 0.500000
O O14 0.554606 0.354298 0.500000
O O15 0.500000 0.370196 0.715106
O O16 0.000000 0.500000 0.777793
O O17 0.000000 0.416001 0.000000
#
# Coordination Sequence:
#
# PCOD8288137 Si02
#       7
#    16  16   8   8  16  16   8
#     4   9  15  25  41  62  89 119 147 182 227 270
#     4   9  17  30  49  71  91 117 154 192 227 268
#     4  10  19  28  44  70  90 116 157 193 219 255
#     4  10  20  33  45  61  92 129 154 180 228 279
#     4   9  18  32  47  65  93 125 155 188 228 272
#     4   9  15  24  39  61  91 117 142 181 227 267
#     4   9  16  26  38  59  94 126 147 175 227 283
#
# _framework density 17.426417000000001
#
# number of rings (size 3 to 8) (size 9 to 14) (size 15 to 20)
#    0.000    2.818    0.909    1.364    0.000    3.273 
#    1.636    0.000    0.000    1.091    0.000    0.636 
#    0.000    0.727    0.000    0.000    0.000    0.000 
#
# Total GULP energy -545252.685200 kJ/mol
# GULP energy per Si atom -12392.106482 kJ/mol
# Density = 1.738675 g / cm^3
# Si number density = 17.426417 Si / 1000 Ang^3
#
#
#
# Elastic Constant Matrix: (Units=GPa)
#
#
# Indices 1 2 3 4 5 6 
#
# 1 119.7731 61.7752 21.7060 0.0000 0.0000 0.0000
# 2 61.7752 135.4879 21.7949 0.0000 0.0000 0.0000
# 3 21.7060 21.7949 20.7150 0.0000 0.0000 0.0000
# 4 0.0000 0.0000 0.0000 13.8085 0.0000 0.0000
# 5 0.0000 0.0000 0.0000 0.0000 14.8149 0.0000
# 6 0.0000 0.0000 0.0000 0.0000 0.0000 20.8290
#
#
#
# Elastic Compliance Matrix: (Units=1/GPa)
#
#
# Indices 1 2 3 4 5 6 
#
# 1 0.011968 -0.004140 -0.008184 0.000000 0.000000 0.000000
# 2 -0.004140 0.010317 -0.006516 0.000000 0.000000 0.000000
# 3 -0.008184 -0.006516 0.063706 0.000000 0.000000 0.000000
# 4 0.000000 0.000000 0.000000 0.072419 0.000000 0.000000
# 5 0.000000 0.000000 0.000000 0.000000 0.067500 0.000000
# 6 0.000000 0.000000 0.000000 0.000000 0.000000 0.048010
#
#
# Mechanical properties :
#
#
# Convention : Reuss Voigt Hill
#
# Bulk Modulus (GPa) = 20.70010 54.05867 37.37938
# Shear Modulus (GPa) = 15.25770 21.27047 18.26408
#
# Velocity S-wave (km/s) = 2.96218 3.49748 3.24090
# Velocity P-wave (km/s) = 4.85836 6.88464 5.95827
#
# Compressibility (1/GPa) = 0.04830896
#
# Stress axis : x y z
#
# Youngs Moduli (GPa) = 83.55874 96.93114 15.69712
#
# Poissons Ratio (x) = 0.40130 0.12847
# Poissons Ratio (y) = 0.34594 0.10229
# Poissons Ratio (z) = 0.68387 0.63163
#
# Static dielectric constant tensor:
#      x y z
#    x 3.393780 0.000000 0.000000 
#    y 0.000000 3.448130 0.000000 
#    z 0.000000 0.000000 2.812830 
# 
# 
# High freq. dielectric constant tensor:
#      x y z
#    x 1.682900 0.000000 0.000000 
#    y 0.000000 1.673970 0.000000 
#    z 0.000000 0.000000 1.614070 
# 
# From -- ./inp_files/16757.got.cif
#   From: 2010.06.25/outbox.cif.g09.slc.cpg/sg71_9_cif.got.tgz:16757.got - 2010.06.28 04:59:45.
