data_PCOD8288118
_publ_section_title
;
Structure prediction by ZEFSAII (Michael W. Deem and Ramdas Pophale) SiO2 
 PCOD8288118
Probable space group: I M M M
;
_chemical_formula_sum "Si O2"
_cell_formula_units_Z 112
_cell_length_a 29.341923
_cell_length_b 18.624362
_cell_length_c 13.984299
_cell_angle_alpha 90.000000
_cell_angle_beta 90.000000
_cell_angle_gamma 90.000000
_cell_volume 7642.064143
_symmetry_space_group_name_H-M "I M M M"
_symmetry_group_IT_number 71
_symmetry_cell_setting 'orthorhombic'
loop_
_space_group_symop_operation_xyz
x,y,z
-x,-y,z
x,-y,-z
-x,y,-z
-x,-y,-z
x,y,-z
-x,y,z
x,-y,z
1/2+x,1/2+y,1/2+z
1/2-x,1/2-y,1/2+z
1/2+x,1/2-y,1/2-z
1/2-x,1/2+y,1/2-z
1/2-x,1/2-y,1/2-z
1/2+x,1/2+y,1/2-z
1/2-x,1/2+y,1/2+z
1/2+x,1/2-y,1/2+z
loop_
_atom_site_type_symbol
_atom_site_label
_atom_site_fract_x
_atom_site_fract_y
_atom_site_fract_z
Si Si1 0.634452 0.916297 0.767292
Si Si2 0.188921 0.838364 0.886926
Si Si3 0.723136 0.082075 0.111248
Si Si4 0.549760 0.286075 0.386535
Si Si5 0.101992 0.079145 0.885962
Si Si6 0.363127 0.198700 0.612458
Si Si7 0.550890 0.914830 0.107082
O O1 0.676163 0.900544 0.837207
O O2 0.644111 0.874967 0.668787
O O3 0.588756 0.886129 0.818775
O O4 0.629912 0.000000 0.741768
O O5 0.237931 0.864278 0.847230
O O6 0.150267 0.891778 0.846296
O O7 0.176504 0.756082 0.859816
O O8 0.189249 0.846247 0.000000
O O9 0.738720 0.000000 0.129359
O O10 0.714456 0.095992 0.000000
O O11 0.548426 0.286328 0.500000
O O12 0.500000 0.265380 0.344470
O O13 0.562631 0.366362 0.351039
O O14 0.587917 0.229615 0.354138
O O15 0.092416 0.000000 0.843542
O O16 0.103440 0.076666 0.000000
O O17 0.362026 0.181581 0.500000
O O18 0.500000 0.891552 0.140899
O O19 0.554524 0.000000 0.103181
O O20 0.560286 0.884666 0.000000
#
# Coordination Sequence:
#
# PCOD8288118 Si02
#       7
#    16  16  16  16  16  16  16
#     4  10  19  28  40  59  77  95 126 163 196 229
#     4   8  14  25  39  54  74 102 130 150 178 223
#     4   9  16  26  42  63  83  97 112 147 196 238
#     4   8  14  24  36  49  67  94 126 157 187 214
#     4   8  12  18  31  52  75  96 119 147 178 217
#     4   9  18  30  40  51  72 104 138 165 185 212
#     4   8  14  26  43  60  78  97 115 144 192 245
#
# _framework density 14.655726
#
# number of rings (size 3 to 8) (size 9 to 14) (size 15 to 20)
#    0.000    3.429    0.000    3.000    0.000    5.143 
#    0.000    1.429    0.000    0.000    0.000    4.000 
#    0.000    0.000    0.000    0.000    0.000   29.143 
#
# Total GULP energy -693841.917592 kJ/mol
# GULP energy per Si atom -12390.034243 kJ/mol
# Density = 1.462237 g / cm^3
# Si number density = 14.655726 Si / 1000 Ang^3
#
#
#
# Elastic Constant Matrix: (Units=GPa)
#
#
# Indices 1 2 3 4 5 6 
#
# 1 107.7211 42.7358 30.4705 0.0000 0.0000 0.0000
# 2 42.7358 68.2242 33.4780 0.0000 0.0000 0.0000
# 3 30.4705 33.4780 40.7231 0.0000 0.0000 0.0000
# 4 0.0000 0.0000 0.0000 12.3189 0.0000 0.0000
# 5 0.0000 0.0000 0.0000 0.0000 8.4319 0.0000
# 6 0.0000 0.0000 0.0000 0.0000 0.0000 14.2718
#
#
#
# Elastic Compliance Matrix: (Units=1/GPa)
#
#
# Indices 1 2 3 4 5 6 
#
# 1 0.012947 -0.005626 -0.005063 0.000000 0.000000 0.000000
# 2 -0.005626 0.027013 -0.017998 0.000000 0.000000 0.000000
# 3 -0.005063 -0.017998 0.043140 0.000000 0.000000 0.000000
# 4 0.000000 0.000000 0.000000 0.081176 0.000000 0.000000
# 5 0.000000 0.000000 0.000000 0.000000 0.118597 0.000000
# 6 0.000000 0.000000 0.000000 0.000000 0.000000 0.070068
#
#
# Mechanical properties :
#
#
# Convention : Reuss Voigt Hill
#
# Bulk Modulus (GPa) = 38.86848 47.78187 43.32518
# Shear Modulus (GPa) = 11.93633 14.33681 13.13657
#
# Velocity S-wave (km/s) = 2.85695 3.13108 2.99715
# Velocity P-wave (km/s) = 6.12058 6.76352 6.45006
#
# Compressibility (1/GPa) = 0.02572779
#
# Stress axis : x y z
#
# Youngs Moduli (GPa) = 77.23677 37.01896 23.18049
#
# Poissons Ratio (x) = 0.20827 0.11735
# Poissons Ratio (y) = 0.43453 0.41720
# Poissons Ratio (z) = 0.39102 0.66626
#
# Static dielectric constant tensor:
#      x y z
#    x 3.239510 0.000000 0.000000 
#    y 0.000000 2.753610 0.000000 
#    z 0.000000 0.000000 2.390420 
# 
# 
# High freq. dielectric constant tensor:
#      x y z
#    x 1.572770 0.000000 0.000000 
#    y 0.000000 1.544510 0.000000 
#    z 0.000000 0.000000 1.503050 
# 
# From -- ./inp_files/29117.got.cif
#   From: 2010.06.25/outbox.cif.g09.slc.cpg/sg71_15_cif.got.tgz:29117.got - 2010.06.28 04:59:45.
