data_PCOD8288364
_publ_section_title
;
Structure prediction by ZEFSAII (Michael W. Deem and Ramdas Pophale) SiO2 
 PCOD8288364
Probable space group: I M M M
;
_chemical_formula_sum "Si O2"
_cell_formula_units_Z 112
_cell_length_a 23.097674
_cell_length_b 19.011355
_cell_length_c 13.964267
_cell_angle_alpha 90.000000
_cell_angle_beta 90.000000
_cell_angle_gamma 90.000000
_cell_volume 6131.962115
_symmetry_space_group_name_H-M "I M M M"
_symmetry_group_IT_number 71
_symmetry_cell_setting 'orthorhombic'
loop_
_space_group_symop_operation_xyz
x,y,z
-x,-y,z
x,-y,-z
-x,y,-z
-x,-y,-z
x,y,-z
-x,y,z
x,-y,z
1/2+x,1/2+y,1/2+z
1/2-x,1/2-y,1/2+z
1/2+x,1/2-y,1/2-z
1/2-x,1/2+y,1/2-z
1/2-x,1/2-y,1/2-z
1/2+x,1/2+y,1/2-z
1/2-x,1/2+y,1/2+z
1/2+x,1/2-y,1/2+z
loop_
_atom_site_type_symbol
_atom_site_label
_atom_site_fract_x
_atom_site_fract_y
_atom_site_fract_z
Si Si1 0.433354 0.228758 0.799697
Si Si2 0.229223 0.922189 0.278287
Si Si3 0.340399 0.097537 0.606267
Si Si4 0.757867 0.174355 0.890335
Si Si5 0.327390 0.299907 0.111060
Si Si6 0.934316 0.575705 0.743908
Si Si7 0.125845 0.248245 0.105416
O O1 0.500000 0.245676 0.824587
O O2 0.392532 0.272941 0.869913
O O3 0.418569 0.145503 0.817690
O O4 0.422178 0.250685 0.688699
O O5 0.283115 0.933265 0.347513
O O6 0.254284 0.891951 0.177967
O O7 0.182704 0.869794 0.326284
O O8 0.201457 0.000000 0.261671
O O9 0.344964 0.067126 0.500000
O O10 0.396862 0.071304 0.660855
O O11 0.335901 0.181473 0.606754
O O12 0.718300 0.240091 0.856927
O O13 0.826376 0.188415 0.877557
O O14 0.742764 0.154765 0.000000
O O15 0.320152 0.319143 0.000000
O O16 0.926838 0.500000 0.688030
O O17 0.000000 0.585135 0.778789
O O18 0.096071 0.239068 0.000000
#
# Coordination Sequence:
#
# PCOD8288364 Si02
#       7
#    16  16  16  16  16  16  16
#     4  10  20  34  54  78 106 141 184 230 268 312
#     4  12  23  34  53  81 113 142 173 222 277 328
#     4  10  19  30  46  73 106 143 183 216 253 308
#     4  10  19  35  59  81 104 138 176 219 269 323
#     4  11  22  37  57  80 108 144 186 225 265 317
#     4   9  18  31  47  71 106 146 181 216 264 318
#     4   9  16  30  54  79 104 132 170 221 268 315
#
# _framework density 18.264952999999998
#
# number of rings (size 3 to 8) (size 9 to 14) (size 15 to 20)
#    0.000    1.857    2.857    3.000    0.000    3.143 
#    0.000    3.571    0.000    1.714    0.000    3.000 
#    0.000    2.286    0.000    0.000    0.000    0.143 
#
# Total GULP energy -694056.028188 kJ/mol
# GULP energy per Si atom -12393.857646 kJ/mol
# Density = 1.822338 g / cm^3
# Si number density = 18.264953 Si / 1000 Ang^3
#
#
#
# Elastic Constant Matrix: (Units=GPa)
#
#
# Indices 1 2 3 4 5 6 
#
# 1 73.4279 32.9429 13.3353 0.0000 0.0000 0.0000
# 2 32.9429 107.3507 39.6308 0.0000 0.0000 0.0000
# 3 13.3353 39.6308 56.9105 0.0000 0.0000 0.0000
# 4 0.0000 0.0000 0.0000 8.0167 0.0000 0.0000
# 5 0.0000 0.0000 0.0000 0.0000 19.9831 0.0000
# 6 0.0000 0.0000 0.0000 0.0000 0.0000 8.3802
#
#
#
# Elastic Compliance Matrix: (Units=1/GPa)
#
#
# Indices 1 2 3 4 5 6 
#
# 1 0.015801 -0.004687 -0.000439 0.000000 0.000000 0.000000
# 2 -0.004687 0.013929 -0.008601 0.000000 0.000000 0.000000
# 3 -0.000439 -0.008601 0.023664 0.000000 0.000000 0.000000
# 4 0.000000 0.000000 0.000000 0.124740 0.000000 0.000000
# 5 0.000000 0.000000 0.000000 0.000000 0.050042 0.000000
# 6 0.000000 0.000000 0.000000 0.000000 0.000000 0.119329
#
#
# Mechanical properties :
#
#
# Convention : Reuss Voigt Hill
#
# Bulk Modulus (GPa) = 38.55049 45.50079 42.02564
# Shear Modulus (GPa) = 13.03417 17.39467 15.21442
#
# Velocity S-wave (km/s) = 2.67426 3.08937 2.88928
# Velocity P-wave (km/s) = 5.53964 6.13932 5.84717
#
# Compressibility (1/GPa) = 0.02594001
#
# Stress axis : x y z
#
# Youngs Moduli (GPa) = 63.28607 71.79268 42.25816
#
# Poissons Ratio (x) = 0.33649 0.01854
# Poissons Ratio (y) = 0.29662 0.36348
# Poissons Ratio (z) = 0.02776 0.61752
#
# Static dielectric constant tensor:
#      x y z
#    x 3.156970 0.000000 0.000000 
#    y 0.000000 3.429130 0.000000 
#    z 0.000000 0.000000 3.349710 
# 
# 
# High freq. dielectric constant tensor:
#      x y z
#    x 1.688830 0.000000 0.000000 
#    y 0.000000 1.695720 0.000000 
#    z 0.000000 0.000000 1.699380 
# 
# From -- ./inp_files/40369.got.cif
#   From: 2010.06.25/outbox.cif.g09.slc.cpg/sg71_21_cif.got.tgz:40369.got - 2010.06.28 04:59:45.
