data_PCOD8288514
_publ_section_title
;
Structure prediction by ZEFSAII (Michael W. Deem and Ramdas Pophale) SiO2 
 PCOD8288514
Probable space group: I M M M
;
_chemical_formula_sum "Si O2"
_cell_formula_units_Z 104
_cell_length_a 17.300104
_cell_length_b 12.091034
_cell_length_c 28.407838
_cell_angle_alpha 90.000000
_cell_angle_beta 90.000000
_cell_angle_gamma 90.000000
_cell_volume 5942.242060
_symmetry_space_group_name_H-M "I M M M"
_symmetry_group_IT_number 71
_symmetry_cell_setting 'orthorhombic'
loop_
_space_group_symop_operation_xyz
x,y,z
-x,-y,z
x,-y,-z
-x,y,-z
-x,-y,-z
x,y,-z
-x,y,z
x,-y,z
1/2+x,1/2+y,1/2+z
1/2-x,1/2-y,1/2+z
1/2+x,1/2-y,1/2-z
1/2-x,1/2+y,1/2-z
1/2-x,1/2-y,1/2-z
1/2+x,1/2+y,1/2-z
1/2-x,1/2+y,1/2+z
1/2+x,1/2-y,1/2+z
loop_
_atom_site_type_symbol
_atom_site_label
_atom_site_fract_x
_atom_site_fract_y
_atom_site_fract_z
Si Si1 0.408707 0.000000 0.555510
Si Si2 0.830239 0.715626 0.898712
Si Si3 0.225625 0.380881 0.445850
Si Si4 0.325903 0.625870 0.863246
Si Si5 0.410196 0.725448 0.945507
Si Si6 0.091261 0.122989 0.828618
Si Si7 0.414729 0.369328 0.774584
O O1 0.371608 0.110094 0.577917
O O2 0.500000 0.000000 0.565655
O O3 0.391091 0.000000 0.500000
O O4 0.798517 0.800443 0.937693
O O5 0.756290 0.683263 0.868409
O O6 0.888628 0.782163 0.865679
O O7 0.223412 0.404854 0.500000
O O8 0.235478 0.500000 0.419688
O O9 0.142532 0.330246 0.431119
O O10 0.307871 0.500000 0.852903
O O11 0.381387 0.630814 0.909571
O O12 0.364903 0.682061 0.817346
O O13 0.500000 0.753985 0.937519
O O14 0.395643 0.688564 0.000000
O O15 0.123110 0.156320 0.776602
O O16 0.000000 0.115665 0.824553
O O17 0.122610 0.000000 0.843126
O O18 0.500000 0.315940 0.778075
O O19 0.421263 0.500000 0.781676
#
# Coordination Sequence:
#
# PCOD8288514 Si02
#       7
#     8  16  16  16  16  16  16
#     4  11  24  40  56  74 101 141 179 213 259 319
#     4  11  20  34  52  76 102 130 168 215 257 306
#     4   9  18  32  50  72  99 132 167 206 257 307
#     4  10  19  31  46  71 102 139 174 210 254 304
#     4   9  18  30  45  70 101 135 176 216 253 297
#     4   9  18  33  54  78  99 124 161 211 263 308
#     4   8  15  29  49  72 100 132 167 204 249 304
#
# _framework density 17.501812000000001
#
# number of rings (size 3 to 8) (size 9 to 14) (size 15 to 20)
#    0.000    2.538    0.769    2.769    0.000    2.769 
#    0.000    2.308    0.000    0.000    2.000    6.462 
#    0.000    0.000    0.000    0.000    0.000    0.000 
#
# Total GULP energy -644247.918231 kJ/mol
# GULP energy per Si atom -12389.383043 kJ/mol
# Density = 1.746198 g / cm^3
# Si number density = 17.501812 Si / 1000 Ang^3
#
#
#
# Elastic Constant Matrix: (Units=GPa)
#
#
# Indices 1 2 3 4 5 6 
#
# 1 79.5797 32.4356 36.3546 0.0000 0.0000 0.0000
# 2 32.4356 86.1765 36.1560 0.0000 0.0000 0.0000
# 3 36.3546 36.1560 82.4208 0.0000 0.0000 0.0000
# 4 0.0000 0.0000 0.0000 18.7478 0.0000 0.0000
# 5 0.0000 0.0000 0.0000 0.0000 25.8885 0.0000
# 6 0.0000 0.0000 0.0000 0.0000 0.0000 11.2624
#
#
#
# Elastic Compliance Matrix: (Units=1/GPa)
#
#
# Indices 1 2 3 4 5 6 
#
# 1 0.016757 -0.003929 -0.005667 0.000000 0.000000 0.000000
# 2 -0.003929 0.015143 -0.004910 0.000000 0.000000 0.000000
# 3 -0.005667 -0.004910 0.016786 0.000000 0.000000 0.000000
# 4 0.000000 0.000000 0.000000 0.053340 0.000000 0.000000
# 5 0.000000 0.000000 0.000000 0.000000 0.038627 0.000000
# 6 0.000000 0.000000 0.000000 0.000000 0.000000 0.088791
#
#
# Mechanical properties :
#
#
# Convention : Reuss Voigt Hill
#
# Bulk Modulus (GPa) = 50.83035 50.89660 50.86347
# Shear Modulus (GPa) = 18.86691 20.72845 19.79768
#
# Velocity S-wave (km/s) = 3.28685 3.44519 3.36695
# Velocity P-wave (km/s) = 6.59625 6.70594 6.65132
#
# Compressibility (1/GPa) = 0.01967329
#
# Stress axis : x y z
#
# Youngs Moduli (GPa) = 59.67814 66.03764 59.57178
#
# Poissons Ratio (x) = 0.25947 0.33762
# Poissons Ratio (y) = 0.23448 0.29248
# Poissons Ratio (z) = 0.33822 0.32423
#
# Static dielectric constant tensor:
#      x y z
#    x 3.241770 0.000000 0.000000 
#    y 0.000000 4.723030 0.000000 
#    z 0.000000 0.000000 3.438640 
# 
# 
# High freq. dielectric constant tensor:
#      x y z
#    x 1.673450 0.000000 0.000000 
#    y 0.000000 1.658910 0.000000 
#    z 0.000000 0.000000 1.677110 
# 
# From -- ./inp_files/40950.got.cif
#   From: 2010.06.25/outbox.cif.g09.slc.cpg/sg71_21_cif.got.tgz:40950.got - 2010.06.28 04:59:45.
