data_PCOD8288681
_publ_section_title
;
Structure prediction by ZEFSAII (Michael W. Deem and Ramdas Pophale) SiO2 
 PCOD8288681
Probable space group: I M M M
;
_chemical_formula_sum "Si O2"
_cell_formula_units_Z 80
_cell_length_a 8.686526
_cell_length_b 25.915145
_cell_length_c 18.408129
_cell_angle_alpha 90.000000
_cell_angle_beta 90.000000
_cell_angle_gamma 90.000000
_cell_volume 4143.901428
_symmetry_space_group_name_H-M "I M M M"
_symmetry_group_IT_number 71
_symmetry_cell_setting 'orthorhombic'
loop_
_space_group_symop_operation_xyz
x,y,z
-x,-y,z
x,-y,-z
-x,y,-z
-x,-y,-z
x,y,-z
-x,y,z
x,-y,z
1/2+x,1/2+y,1/2+z
1/2-x,1/2-y,1/2+z
1/2+x,1/2-y,1/2-z
1/2-x,1/2+y,1/2-z
1/2-x,1/2-y,1/2-z
1/2+x,1/2+y,1/2-z
1/2-x,1/2+y,1/2+z
1/2+x,1/2-y,1/2+z
loop_
_atom_site_type_symbol
_atom_site_label
_atom_site_fract_x
_atom_site_fract_y
_atom_site_fract_z
Si Si1 0.817312 0.500000 0.918809
Si Si2 0.817357 0.095715 0.168276
Si Si3 0.317141 0.306892 0.418776
Si Si4 0.821247 0.500000 0.585484
Si Si5 0.182936 0.692708 0.918526
Si Si6 0.183028 0.597296 0.173366
O O1 0.759242 0.550672 0.877110
O O2 0.000000 0.500000 0.922892
O O3 0.747549 0.500000 0.000000
O O4 0.753392 0.149905 0.136131
O O5 0.756566 0.050395 0.118008
O O6 0.756963 0.089107 0.248905
O O7 0.000000 0.094128 0.168174
O O8 0.254685 0.318268 0.500000
O O9 0.500000 0.308304 0.420167
O O10 0.261595 0.249813 0.393501
O O11 0.792933 0.500000 0.500000
O O12 0.000000 0.500000 0.606097
O O13 0.246509 0.650261 0.862317
O O14 0.000000 0.689869 0.919840
O O15 0.244214 0.681030 0.000000
O O16 0.000000 0.597518 0.181511
#
# Coordination Sequence:
#
# PCOD8288681 Si02
#       6
#     8  16  16   8  16  16
#     4   9  17  30  50  74  96 123 166 215 258 304
#     4  11  22  35  53  77 107 141 173 206 253 316
#     4   8  15  29  49  73 100 132 175 222 259 297
#     4  11  24  41  60  80 102 129 166 215 264 308
#     4   8  14  27  49  75 101 134 180 227 264 300
#     4  10  19  31  50  76 106 137 171 216 265 306
#
# _framework density 19.305478000000001
#
# number of rings (size 3 to 8) (size 9 to 14) (size 15 to 20)
#    0.000    2.600    0.000    3.900    0.000    5.600 
#    0.000    0.000    0.000    4.200    0.000    5.600 
#    0.000    0.000    0.000    0.000    0.000    0.000 
#
# Total GULP energy -495886.770276 kJ/mol
# GULP energy per Si atom -12397.169257 kJ/mol
# Density = 1.926154 g / cm^3
# Si number density = 19.305478 Si / 1000 Ang^3
#
#
#
# Elastic Constant Matrix: (Units=GPa)
#
#
# Indices 1 2 3 4 5 6 
#
# 1 31.5578 29.1625 26.9794 0.0000 0.0000 0.0000
# 2 29.1625 174.0086 84.6684 0.0001 0.0000 -0.0001
# 3 26.9794 84.6684 133.1338 0.0006 -0.0001 0.0001
# 4 0.0000 0.0001 0.0006 27.1840 -0.0001 -0.0001
# 5 0.0000 0.0000 -0.0001 -0.0001 11.5074 0.0001
# 6 0.0000 -0.0001 0.0001 -0.0001 0.0001 -13.8166
#
#
#
# Elastic Compliance Matrix: (Units=1/GPa)
#
#
# Indices 1 2 3 4 5 6 
#
# 1 0.040175 -0.004014 -0.005589 0.000000 0.000000 0.000000
# 2 -0.004014 0.008723 -0.004734 0.000000 0.000000 0.000000
# 3 -0.005589 -0.004734 0.011655 0.000000 0.000000 0.000000
# 4 0.000000 0.000000 0.000000 0.036786 0.000000 0.000000
# 5 0.000000 0.000000 0.000000 0.000000 0.086901 0.000000
# 6 0.000000 0.000000 0.000000 0.000000 0.000000 -0.072377
#
#
# Mechanical properties :
#
#
# Convention : Reuss Voigt Hill
#
# Bulk Modulus (GPa) = 31.36839 68.92455 50.14647
# Shear Modulus (GPa) = 33.07688 18.16761 25.62224
#
# Velocity S-wave (km/s) = 4.14374 3.07100 3.64703
# Velocity P-wave (km/s) = 6.25922 6.95372 6.61559
#
# Compressibility (1/GPa) = 0.03187923
#
# Stress axis : x y z
#
# Youngs Moduli (GPa) = 24.89112 114.63904 85.80293
#
# Poissons Ratio (x) = 0.46011 0.47955
# Poissons Ratio (y) = 0.09990 0.40621
# Poissons Ratio (z) = 0.13911 0.54272
#
# Static dielectric constant tensor:
#      x y z
#    x 3.029930 0.000000 0.000000 
#    y 0.000000 3.996030 0.000000 
#    z 0.000000 0.000000 3.643630 
# 
# 
# High freq. dielectric constant tensor:
#      x y z
#    x 1.698690 0.000000 0.000000 
#    y 0.000000 1.773210 0.000000 
#    z 0.000000 0.000000 1.757500 
# 
# From -- ./inp_files/42274.got.cif
#   From: 2010.06.25/outbox.cif.g09.slc.cpg/sg71_22_cif.got.tgz:42274.got - 2010.06.28 04:59:45.
