data_PCOD8288557
_publ_section_title
;
Structure prediction by ZEFSAII (Michael W. Deem and Ramdas Pophale) SiO2 
 PCOD8288557
Probable space group: I M M M
;
_chemical_formula_sum "Si O2"
_cell_formula_units_Z 120
_cell_length_a 12.708915
_cell_length_b 18.538446
_cell_length_c 30.779431
_cell_angle_alpha 90.000000
_cell_angle_beta 90.000000
_cell_angle_gamma 90.000000
_cell_volume 7251.742732
_symmetry_space_group_name_H-M "I M M M"
_symmetry_group_IT_number 71
_symmetry_cell_setting 'orthorhombic'
loop_
_space_group_symop_operation_xyz
x,y,z
-x,-y,z
x,-y,-z
-x,y,-z
-x,-y,-z
x,y,-z
-x,y,z
x,-y,z
1/2+x,1/2+y,1/2+z
1/2-x,1/2-y,1/2+z
1/2+x,1/2-y,1/2-z
1/2-x,1/2+y,1/2-z
1/2-x,1/2-y,1/2-z
1/2+x,1/2+y,1/2-z
1/2-x,1/2+y,1/2+z
1/2+x,1/2-y,1/2+z
loop_
_atom_site_type_symbol
_atom_site_label
_atom_site_fract_x
_atom_site_fract_y
_atom_site_fract_z
Si Si1 0.876052 0.274969 0.452735
Si Si2 0.749027 0.082006 0.820779
Si Si3 0.879537 0.580585 0.593341
Si Si4 0.625175 0.357501 0.896399
Si Si5 0.624892 0.500000 0.050570
Si Si6 0.771745 0.172867 0.695646
Si Si7 0.114541 0.584273 0.758002
Si Si8 0.878761 0.198617 0.785389
O O1 0.825954 0.261379 0.500000
O O2 0.848313 0.357318 0.440333
O O3 0.831296 0.214010 0.420660
O O4 0.000000 0.265043 0.454798
O O5 0.701933 0.090747 0.868093
O O6 0.660671 0.112587 0.787731
O O7 0.856022 0.126529 0.813436
O O8 0.777287 0.000000 0.809764
O O9 0.866870 0.500000 0.572858
O O10 0.000000 0.590648 0.609797
O O11 0.500000 0.358943 0.893049
O O12 0.664129 0.428779 0.922883
O O13 0.669795 0.350284 0.848057
O O14 0.500000 0.500000 0.048800
O O15 0.666659 0.500000 0.000000
O O16 0.694965 0.105577 0.704417
O O17 0.855565 0.185939 0.734268
O O18 0.696566 0.242196 0.692487
O O19 0.100329 0.500000 0.757520
O O20 0.000000 0.621097 0.764492
O O21 0.000000 0.220329 0.790871
#
# Coordination Sequence:
#
# PCOD8288557 Si02
#       8
#    16  16  16  16   8  16  16  16
#     4   9  17  28  42  62  90 123 154 185 227 278
#     4   9  17  29  45  65  89 122 159 190 220 262
#     4   9  16  26  43  67  95 126 159 191 223 266
#     4  10  19  31  48  69  95 127 160 194 232 283
#     4   9  18  32  50  72  99 131 161 195 244 298
#     4  10  20  31  47  67  91 123 157 195 230 275
#     4   9  17  29  45  64  90 121 153 189 227 266
#     4  10  20  33  46  64  93 125 158 194 234 274
#
# _framework density 16.547747000000001
#
# number of rings (size 3 to 8) (size 9 to 14) (size 15 to 20)
#    0.000    2.600    0.000    2.400    0.933    3.733 
#    0.000    5.333    0.000    0.000    0.000    0.000 
#    0.000   27.200    0.000   11.733    0.000    0.533 
#
# Total GULP energy -743470.694002 kJ/mol
# GULP energy per Si atom -12391.178233 kJ/mol
# Density = 1.651008 g / cm^3
# Si number density = 16.547747 Si / 1000 Ang^3
#
#
#
# Elastic Constant Matrix: (Units=GPa)
#
#
# Indices 1 2 3 4 5 6 
#
# 1 52.7283 20.9670 14.6599 0.0000 0.0000 0.0000
# 2 20.9670 79.3343 34.1387 0.0000 0.0000 0.0000
# 3 14.6599 34.1387 82.7599 0.0000 0.0000 0.0000
# 4 0.0000 0.0000 0.0000 27.9569 0.0000 0.0000
# 5 0.0000 0.0000 0.0000 0.0000 16.8461 0.0000
# 6 0.0000 0.0000 0.0000 0.0000 0.0000 16.0344
#
#
#
# Elastic Compliance Matrix: (Units=1/GPa)
#
#
# Indices 1 2 3 4 5 6 
#
# 1 0.021404 -0.004894 -0.001773 0.000000 0.000000 0.000000
# 2 -0.004894 0.016444 -0.005916 0.000000 0.000000 0.000000
# 3 -0.001773 -0.005916 0.014838 0.000000 0.000000 0.000000
# 4 0.000000 0.000000 0.000000 0.035769 0.000000 0.000000
# 5 0.000000 0.000000 0.000000 0.000000 0.059361 0.000000
# 6 0.000000 0.000000 0.000000 0.000000 0.000000 0.062366
#
#
# Mechanical properties :
#
#
# Convention : Reuss Voigt Hill
#
# Bulk Modulus (GPa) = 36.33741 39.37264 37.85502
# Shear Modulus (GPa) = 20.44811 21.83794 21.14303
#
# Velocity S-wave (km/s) = 3.51907 3.63670 3.57837
# Velocity P-wave (km/s) = 6.20634 6.44043 6.32447
#
# Compressibility (1/GPa) = 0.02751985
#
# Stress axis : x y z
#
# Youngs Moduli (GPa) = 46.72006 60.81171 67.39605
#
# Poissons Ratio (x) = 0.29761 0.11947
# Poissons Ratio (y) = 0.22865 0.39874
# Poissons Ratio (z) = 0.08282 0.35978
#
# Static dielectric constant tensor:
#      x y z
#    x 2.871580 0.000000 0.000000 
#    y 0.000000 3.432970 0.000000 
#    z 0.000000 0.000000 3.058800 
# 
# 
# High freq. dielectric constant tensor:
#      x y z
#    x 1.594780 0.000000 0.000000 
#    y 0.000000 1.657680 0.000000 
#    z 0.000000 0.000000 1.623590 
# 
# From -- ./inp_files/52474.got.cif
#   From: 2010.06.25/outbox.cif.g09.slc.cpg/sg71_27_cif.got.tgz:52474.got - 2010.06.28 04:59:45.
