data_PCOD8288346
_publ_section_title
;
Structure prediction by ZEFSAII (Michael W. Deem and Ramdas Pophale) SiO2 
 PCOD8288346
Probable space group: I M M M
;
_chemical_formula_sum "Si O2"
_cell_formula_units_Z 80
_cell_length_a 17.705253
_cell_length_b 27.663607
_cell_length_c 9.367667
_cell_angle_alpha 90.000000
_cell_angle_beta 90.000000
_cell_angle_gamma 90.000000
_cell_volume 4588.200494
_symmetry_space_group_name_H-M "I M M M"
_symmetry_group_IT_number 71
_symmetry_cell_setting 'orthorhombic'
loop_
_space_group_symop_operation_xyz
x,y,z
-x,-y,z
x,-y,-z
-x,y,-z
-x,-y,-z
x,y,-z
-x,y,z
x,-y,z
1/2+x,1/2+y,1/2+z
1/2-x,1/2-y,1/2+z
1/2+x,1/2-y,1/2-z
1/2-x,1/2+y,1/2-z
1/2-x,1/2-y,1/2-z
1/2+x,1/2+y,1/2-z
1/2-x,1/2+y,1/2+z
1/2+x,1/2-y,1/2+z
loop_
_atom_site_type_symbol
_atom_site_label
_atom_site_fract_x
_atom_site_fract_y
_atom_site_fract_z
Si Si1 0.767112 0.054230 0.167448
Si Si2 0.912780 0.282332 0.165208
Si Si3 0.143639 0.192414 0.332982
Si Si4 0.083317 0.107075 0.163101
Si Si5 0.704059 0.861310 0.662702
O O1 0.853536 0.068012 0.207226
O O2 0.708649 0.090708 0.241490
O O3 0.752490 0.000000 0.223500
O O4 0.753143 0.057547 0.000000
O O5 0.869643 0.244179 0.262931
O O6 0.875057 0.334641 0.192431
O O7 0.000000 0.286138 0.209504
O O8 0.903234 0.267140 0.000000
O O9 0.126200 0.195910 0.500000
O O10 0.086931 0.154011 0.262795
O O11 0.229175 0.176273 0.300536
O O12 0.000000 0.083664 0.181650
O O13 0.096270 0.123958 0.000000
O O14 0.710971 0.878569 0.500000
#
# Coordination Sequence:
#
# PCOD8288346 Si02
#       5
#    16  16  16  16  16
#     4   9  18  32  50  71  92 117 153 195 235 274
#     4  10  20  33  49  69  94 123 155 191 229 270
#     4  10  19  30  46  69  97 127 157 187 221 266
#     4   9  17  29  45  66  95 129 159 187 222 265
#     4   9  19  34  50  69  93 122 155 190 228 272
#
# _framework density 17.436029000000001
#
# number of rings (size 3 to 8) (size 9 to 14) (size 15 to 20)
#    0.000    2.600    0.000    1.800    0.000    5.600 
#    0.000    2.000    0.000    0.600    0.000    9.800 
#    0.000    0.000    0.000    0.000    0.000    0.000 
#
# Total GULP energy -496010.991326 kJ/mol
# GULP energy per Si atom -12400.274783 kJ/mol
# Density = 1.739634 g / cm^3
# Si number density = 17.436029 Si / 1000 Ang^3
#
#
#
# Elastic Constant Matrix: (Units=GPa)
#
#
# Indices 1 2 3 4 5 6 
#
# 1 57.0552 40.9574 26.7484 0.0001 -0.0002 0.0000
# 2 40.9574 123.8963 54.8301 0.0002 0.0001 0.0000
# 3 26.7484 54.8301 65.4270 0.0018 0.0012 0.0005
# 4 0.0001 0.0002 0.0018 30.1638 0.0003 0.0000
# 5 -0.0002 0.0001 0.0012 0.0003 19.9138 0.0001
# 6 0.0000 0.0000 0.0005 0.0000 0.0001 14.6752
#
#
#
# Elastic Compliance Matrix: (Units=1/GPa)
#
#
# Indices 1 2 3 4 5 6 
#
# 1 0.023975 -0.005703 -0.005022 0.000000 0.000001 0.000000
# 2 -0.005703 0.014186 -0.009557 0.000001 0.000000 0.000000
# 3 -0.005022 -0.009557 0.025346 -0.000001 -0.000002 -0.000001
# 4 0.000000 0.000001 -0.000001 0.033152 -0.000001 0.000000
# 5 0.000001 0.000000 -0.000002 -0.000001 0.050216 0.000000
# 6 0.000000 0.000000 -0.000001 0.000000 0.000000 0.068142
#
#
# Mechanical properties :
#
#
# Convention : Reuss Voigt Hill
#
# Bulk Modulus (GPa) = 43.58580 54.60560 49.09570
# Shear Modulus (GPa) = 18.99473 21.20674 20.10074
#
# Velocity S-wave (km/s) = 3.30418 3.49128 3.39902
# Velocity P-wave (km/s) = 6.29354 6.90201 6.60478
#
# Compressibility (1/GPa) = 0.02294325
#
# Stress axis : x y z
#
# Youngs Moduli (GPa) = 41.70929 70.49266 39.45333
#
# Poissons Ratio (x) = 0.40202 0.19815
# Poissons Ratio (y) = 0.23787 0.37704
# Poissons Ratio (z) = 0.20948 0.67368
#
# Static dielectric constant tensor:
#      x y z
#    x 3.206290 0.000000 0.000000 
#    y 0.000000 3.133260 0.000000 
#    z 0.000000 0.000000 3.247180 
# 
# 
# High freq. dielectric constant tensor:
#      x y z
#    x 1.661770 0.000000 0.000000 
#    y 0.000000 1.657950 0.000000 
#    z 0.000000 0.000000 1.673130 
# 
# From -- ./inp_files/8271.got.cif
#   From: 2010.06.25/outbox.cif.g09.slc.cpg/sg71_5_cif.got.tgz:8271.got - 2010.06.28 04:59:45.
