data_PCOD8288196
_publ_section_title
;
Structure prediction by ZEFSAII (Michael W. Deem and Ramdas Pophale) SiO2 
 PCOD8288196
Probable space group: I M M M
;
_chemical_formula_sum "Si O2"
_cell_formula_units_Z 96
_cell_length_a 25.853700
_cell_length_b 23.530504
_cell_length_c 9.217538
_cell_angle_alpha 90.000000
_cell_angle_beta 90.000000
_cell_angle_gamma 90.000000
_cell_volume 5607.494692
_symmetry_space_group_name_H-M "I M M M"
_symmetry_group_IT_number 71
_symmetry_cell_setting 'orthorhombic'
loop_
_space_group_symop_operation_xyz
x,y,z
-x,-y,z
x,-y,-z
-x,y,-z
-x,-y,-z
x,y,-z
-x,y,z
x,-y,z
1/2+x,1/2+y,1/2+z
1/2-x,1/2-y,1/2+z
1/2+x,1/2-y,1/2-z
1/2-x,1/2+y,1/2-z
1/2-x,1/2-y,1/2-z
1/2+x,1/2+y,1/2-z
1/2-x,1/2+y,1/2+z
1/2+x,1/2-y,1/2+z
loop_
_atom_site_type_symbol
_atom_site_label
_atom_site_fract_x
_atom_site_fract_y
_atom_site_fract_z
Si Si1 0.751721 0.433938 0.332551
Si Si2 0.157199 0.625161 0.828650
Si Si3 0.653010 0.365798 0.328413
Si Si4 0.695663 0.752797 0.329452
Si Si5 0.056766 0.436283 0.172313
Si Si6 0.057379 0.064131 0.827352
O O1 0.761452 0.418207 0.500000
O O2 0.740578 0.500000 0.311525
O O3 0.801569 0.416345 0.242733
O O4 0.702328 0.400446 0.269217
O O5 0.165896 0.690286 0.782399
O O6 0.100565 0.606858 0.770489
O O7 0.161937 0.617303 0.000000
O O8 0.650912 0.372606 0.500000
O O9 0.659266 0.299979 0.282431
O O10 0.600092 0.392291 0.262256
O O11 0.707124 0.750998 0.500000
O O12 0.750000 0.750000 0.250000
O O13 0.068768 0.500000 0.228973
O O14 0.000000 0.416606 0.228846
O O15 0.056646 0.436577 0.000000
O O16 0.000000 0.081771 0.771620
O O17 0.070508 0.000000 0.775737
O O18 0.058128 0.066157 0.000000
#
# Coordination Sequence:
#
# PCOD8288196 Si02
#       6
#    16  16  16  16  16  16
#     4  10  19  29  44  66  91 120 150 182 226 275
#     4  10  19  30  46  68  91 116 152 191 225 264
#     4   9  16  27  41  59  87 119 151 183 218 266
#     4  10  19  31  46  64  89 123 155 184 225 269
#     4   8  14  26  44  64  87 116 146 178 222 271
#     4   8  13  22  38  60  86 117 150 183 223 269
#
# _framework density 17.119945000000001
#
# number of rings (size 3 to 8) (size 9 to 14) (size 15 to 20)
#    0.000    2.833    1.667    2.000    0.000    3.000 
#    0.000    0.833    0.000    5.500    0.000    2.333 
#    0.000    4.000    0.000    9.167    0.000    8.333 
#
# Total GULP energy -594954.577224 kJ/mol
# GULP energy per Si atom -12394.887026 kJ/mol
# Density = 1.708098 g / cm^3
# Si number density = 17.119945 Si / 1000 Ang^3
#
#
#
# Elastic Constant Matrix: (Units=GPa)
#
#
# Indices 1 2 3 4 5 6 
#
# 1 159.4151 76.3524 17.0141 0.0000 0.0000 0.0000
# 2 76.3524 111.1816 16.3621 0.0000 0.0000 0.0000
# 3 17.0141 16.3621 11.4954 0.0000 0.0000 0.0000
# 4 0.0000 0.0000 0.0000 15.3527 0.0000 0.0000
# 5 0.0000 0.0000 0.0000 0.0000 17.0926 0.0000
# 6 0.0000 0.0000 0.0000 0.0000 0.0000 31.1332
#
#
#
# Elastic Compliance Matrix: (Units=1/GPa)
#
#
# Indices 1 2 3 4 5 6 
#
# 1 0.009680 -0.005742 -0.006154 0.000000 0.000000 0.000000
# 2 -0.005742 0.014783 -0.012544 0.000000 0.000000 0.000000
# 3 -0.006154 -0.012544 0.113955 0.000000 0.000000 0.000000
# 4 0.000000 0.000000 0.000000 0.065135 0.000000 0.000000
# 5 0.000000 0.000000 0.000000 0.000000 0.058505 0.000000
# 6 0.000000 0.000000 0.000000 0.000000 0.000000 0.032120
#
#
# Mechanical properties :
#
#
# Convention : Reuss Voigt Hill
#
# Bulk Modulus (GPa) = 11.16842 55.72770 33.44806
# Shear Modulus (GPa) = 13.40828 24.20660 18.80744
#
# Velocity S-wave (km/s) = 2.80160 3.76432 3.31806
# Velocity P-wave (km/s) = 4.12348 7.17743 5.85314
#
# Compressibility (1/GPa) = 0.08953817
#
# Stress axis : x y z
#
# Youngs Moduli (GPa) = 103.30793 67.64335 8.77541
#
# Poissons Ratio (x) = 0.38839 0.05401
# Poissons Ratio (y) = 0.59317 0.11008
# Poissons Ratio (z) = 0.63578 0.84852
#
# Static dielectric constant tensor:
#      x y z
#    x 3.636430 0.000000 0.000000 
#    y 0.000000 3.469290 0.000000 
#    z 0.000000 0.000000 2.704500 
# 
# 
# High freq. dielectric constant tensor:
#      x y z
#    x 1.668490 0.000000 0.000000 
#    y 0.000000 1.665620 0.000000 
#    z 0.000000 0.000000 1.601650 
# 
# From -- ./inp_files/10877.got.cif
#   From: 2010.06.25/outbox.cif.g09.slc.cpg/sg71_6_cif.got.tgz:10877.got - 2010.06.28 04:59:45.
