data_PCOD8288416
_publ_section_title
;
Structure prediction by ZEFSAII (Michael W. Deem and Ramdas Pophale) SiO2 
 PCOD8288416
Probable space group: I M M M
;
_chemical_formula_sum "Si O2"
_cell_formula_units_Z 128
_cell_length_a 18.477120
_cell_length_b 18.160387
_cell_length_c 23.137144
_cell_angle_alpha 90.000000
_cell_angle_beta 90.000000
_cell_angle_gamma 90.000000
_cell_volume 7763.706842
_symmetry_space_group_name_H-M "I M M M"
_symmetry_group_IT_number 71
_symmetry_cell_setting 'orthorhombic'
loop_
_space_group_symop_operation_xyz
x,y,z
-x,-y,z
x,-y,-z
-x,y,-z
-x,-y,-z
x,y,-z
-x,y,z
x,-y,z
1/2+x,1/2+y,1/2+z
1/2-x,1/2-y,1/2+z
1/2+x,1/2-y,1/2-z
1/2-x,1/2+y,1/2-z
1/2-x,1/2-y,1/2-z
1/2+x,1/2+y,1/2-z
1/2-x,1/2+y,1/2+z
1/2+x,1/2-y,1/2+z
loop_
_atom_site_type_symbol
_atom_site_label
_atom_site_fract_x
_atom_site_fract_y
_atom_site_fract_z
Si Si1 0.704602 0.583945 0.161561
Si Si2 0.148237 0.837078 0.165410
Si Si3 0.681414 0.085743 0.433363
Si Si4 0.920233 0.654584 0.268319
Si Si5 0.917368 0.175089 0.714772
Si Si6 0.079846 0.086531 0.937186
Si Si7 0.776213 0.416227 0.282458
Si Si8 0.417804 0.814937 0.361647
O O1 0.676959 0.500000 0.158394
O O2 0.746972 0.606426 0.103335
O O3 0.634361 0.635666 0.168329
O O4 0.759962 0.594594 0.214629
O O5 0.097566 0.855430 0.220581
O O6 0.133442 0.891091 0.112907
O O7 0.230739 0.855143 0.182536
O O8 0.136290 0.754451 0.143183
O O9 0.696619 0.105690 0.500000
O O10 0.612274 0.131185 0.410955
O O11 0.662651 0.000000 0.425474
O O12 0.901487 0.738148 0.285753
O O13 0.860436 0.600494 0.295165
O O14 0.919361 0.643924 0.199456
O O15 0.000000 0.633085 0.292085
O O16 0.000000 0.157348 0.698351
O O17 0.000000 0.119470 0.924846
O O18 0.075321 0.000000 0.938760
O O19 0.107220 0.115489 0.000000
O O20 0.758574 0.500000 0.301937
O O21 0.500000 0.790452 0.378034
#
# Coordination Sequence:
#
# PCOD8288416 Si02
#       8
#    16  16  16  16  16  16  16  16
#     4   9  18  31  48  70  97 128 166 204 248 300
#     4  10  19  30  48  70 102 127 157 203 242 285
#     4  10  21  36  51  68  95 132 174 217 253 287
#     4   9  18  31  47  70  99 129 159 196 243 295
#     4   9  18  30  48  73  99 127 159 196 249 306
#     4   9  17  29  44  61  88 130 167 191 227 279
#     4  10  19  30  48  74  99 130 167 198 239 295
#     4  10  20  32  49  72  95 127 167 201 242 295
#
# _framework density 16.486969999999999
#
# number of rings (size 3 to 8) (size 9 to 14) (size 15 to 20)
#    0.000    2.500    1.250    2.625    1.750    3.500 
#    0.000    1.875    0.000    0.375    0.000    1.750 
#    0.000    0.500    0.000    2.625    0.000    0.000 
#
# Total GULP energy -793377.163870 kJ/mol
# GULP energy per Si atom -12396.518185 kJ/mol
# Density = 1.644944 g / cm^3
# Si number density = 16.486970 Si / 1000 Ang^3
#
#
#
# Elastic Constant Matrix: (Units=GPa)
#
#
# Indices 1 2 3 4 5 6 
#
# 1 114.7914 50.7364 42.2975 0.0000 0.0000 0.0000
# 2 50.7364 60.3903 35.6022 0.0000 0.0000 0.0000
# 3 42.2975 35.6022 78.4682 0.0000 0.0000 0.0000
# 4 0.0000 0.0000 0.0000 22.2266 0.0000 0.0000
# 5 0.0000 0.0000 0.0000 0.0000 21.6750 0.0000
# 6 0.0000 0.0000 0.0000 0.0000 0.0000 28.9741
#
#
#
# Elastic Compliance Matrix: (Units=1/GPa)
#
#
# Indices 1 2 3 4 5 6 
#
# 1 0.014389 -0.010261 -0.003101 0.000000 0.000000 0.000000
# 2 -0.010261 0.029923 -0.008045 0.000000 0.000000 0.000000
# 3 -0.003101 -0.008045 0.018066 0.000000 0.000000 0.000000
# 4 0.000000 0.000000 0.000000 0.044991 0.000000 0.000000
# 5 0.000000 0.000000 0.000000 0.000000 0.046136 0.000000
# 6 0.000000 0.000000 0.000000 0.000000 0.000000 0.034514
#
#
# Mechanical properties :
#
#
# Convention : Reuss Voigt Hill
#
# Bulk Modulus (GPa) = 51.11566 56.76913 53.94240
# Shear Modulus (GPa) = 21.06561 22.90940 21.98750
#
# Velocity S-wave (km/s) = 3.57839 3.73170 3.65585
# Velocity P-wave (km/s) = 6.93860 7.28526 7.11404
#
# Compressibility (1/GPa) = 0.01956348
#
# Stress axis : x y z
#
# Youngs Moduli (GPa) = 69.49636 33.41956 55.35338
#
# Poissons Ratio (x) = 0.34292 0.17164
# Poissons Ratio (y) = 0.71310 0.44533
# Poissons Ratio (z) = 0.21550 0.26887
#
# Static dielectric constant tensor:
#      x y z
#    x 3.111650 0.000000 0.000000 
#    y 0.000000 3.026920 0.000000 
#    z 0.000000 0.000000 3.011530 
# 
# 
# High freq. dielectric constant tensor:
#      x y z
#    x 1.627750 0.000000 0.000000 
#    y 0.000000 1.632760 0.000000 
#    z 0.000000 0.000000 1.602730 
# 
# From -- ./inp_files/46654.got.cif
#   From: 2010.06.25/outbox.cif.g09.slc.cpg/sg71_24_cif.got.tgz:46654.got - 2010.06.28 04:59:45.
