data_PCOD8288245
_publ_section_title
;
Structure prediction by ZEFSAII (Michael W. Deem and Ramdas Pophale) SiO2 
 PCOD8288245
Probable space group: I M M M
;
_chemical_formula_sum "Si O2"
_cell_formula_units_Z 72
_cell_length_a 9.000015
_cell_length_b 17.057125
_cell_length_c 25.000571
_cell_angle_alpha 90.000000
_cell_angle_beta 90.000000
_cell_angle_gamma 90.000000
_cell_volume 3837.947178
_symmetry_space_group_name_H-M "I M M M"
_symmetry_group_IT_number 71
_symmetry_cell_setting 'orthorhombic'
loop_
_space_group_symop_operation_xyz
x,y,z
-x,-y,z
x,-y,-z
-x,y,-z
-x,-y,-z
x,y,-z
-x,y,z
x,-y,z
1/2+x,1/2+y,1/2+z
1/2-x,1/2-y,1/2+z
1/2+x,1/2-y,1/2-z
1/2-x,1/2+y,1/2-z
1/2-x,1/2-y,1/2-z
1/2+x,1/2+y,1/2-z
1/2-x,1/2+y,1/2+z
1/2+x,1/2-y,1/2+z
loop_
_atom_site_type_symbol
_atom_site_label
_atom_site_fract_x
_atom_site_fract_y
_atom_site_fract_z
Si Si1 0.176913 0.700107 0.149769
Si Si2 0.323507 0.000000 0.938835
Si Si3 0.675953 0.085837 0.259386
Si Si4 0.176356 0.586728 0.058928
Si Si5 0.675954 0.866884 0.142282
O O1 0.236272 0.657421 0.203965
O O2 0.238926 0.647271 0.101651
O O3 0.247545 0.783486 0.139028
O O4 0.000000 0.708854 0.150237
O O5 0.269326 0.077411 0.906521
O O6 0.500000 0.000000 0.940297
O O7 0.260235 0.000000 0.000000
O O8 0.500000 0.086970 0.263684
O O9 0.727174 0.095620 0.198316
O O10 0.733273 0.000000 0.279201
O O11 0.239022 0.500000 0.071446
O O12 0.000000 0.584156 0.062297
O O13 0.227975 0.613910 0.000000
O O14 0.500000 0.856031 0.140263
#
# Coordination Sequence:
#
# PCOD8288245 Si02
#       5
#    16   8  16  16  16
#     4  10  19  29  47  75 100 121 152 195 240 285
#     4   9  18  34  55  73  89 123 174 212 236 275
#     4   9  16  29  50  72  94 124 162 196 230 277
#     4   8  14  26  44  66  93 124 156 188 223 270
#     4  10  19  33  51  69  93 124 158 199 241 282
#
# _framework density 18.760028999999999
#
# number of rings (size 3 to 8) (size 9 to 14) (size 15 to 20)
#    0.000    2.778    1.111    2.000    0.000    3.556 
#    0.000    0.556    0.000    4.667    0.000    1.556 
#    0.000    0.000    0.000    0.000    0.000    0.000 
#
# Total GULP energy -446099.062090 kJ/mol
# GULP energy per Si atom -12391.640614 kJ/mol
# Density = 1.871733 g / cm^3
# Si number density = 18.760029 Si / 1000 Ang^3
#
#
#
# Elastic Constant Matrix: (Units=GPa)
#
#
# Indices 1 2 3 4 5 6 
#
# 1 11.2670 22.1258 21.0562 0.0000 0.0000 0.0000
# 2 22.1258 172.2504 97.7685 0.0000 0.0000 0.0000
# 3 21.0562 97.7685 162.2887 0.0000 0.0000 0.0000
# 4 0.0000 0.0000 0.0000 21.0744 0.0000 0.0000
# 5 0.0000 0.0000 0.0000 0.0000 9.1715 0.0000
# 6 0.0000 0.0000 0.0000 0.0000 0.0000 29.0007
#
#
#
# Elastic Compliance Matrix: (Units=1/GPa)
#
#
# Indices 1 2 3 4 5 6 
#
# 1 0.129052 -0.010749 -0.010269 0.000000 0.000000 0.000000
# 2 -0.010749 0.009717 -0.004460 0.000000 0.000000 0.000000
# 3 -0.010269 -0.004460 0.010181 0.000000 0.000000 0.000000
# 4 0.000000 0.000000 0.000000 0.047451 0.000000 0.000000
# 5 0.000000 0.000000 0.000000 0.000000 0.109033 0.000000
# 6 0.000000 0.000000 0.000000 0.000000 0.000000 0.034482
#
#
# Mechanical properties :
#
#
# Convention : Reuss Voigt Hill
#
# Bulk Modulus (GPa) = 10.20439 69.74524 39.97482
# Shear Modulus (GPa) = 11.80538 25.50636 18.65587
#
# Velocity S-wave (km/s) = 2.51127 3.69129 3.15691
# Velocity P-wave (km/s) = 3.72289 7.44485 5.88582
#
# Compressibility (1/GPa) = 0.09799704
#
# Stress axis : x y z
#
# Youngs Moduli (GPa) = 7.74880 102.90847 98.22468
#
# Poissons Ratio (x) = 1.10612 1.00863
# Poissons Ratio (y) = 0.08329 0.43803
# Poissons Ratio (z) = 0.07957 0.45892
#
# Static dielectric constant tensor:
#      x y z
#    x 2.780470 0.000000 0.000000 
#    y 0.000000 3.652030 0.000000 
#    z 0.000000 0.000000 3.983340 
# 
# 
# High freq. dielectric constant tensor:
#      x y z
#    x 1.656370 0.000000 0.000000 
#    y 0.000000 1.742320 0.000000 
#    z 0.000000 0.000000 1.742460 
# 
# From -- ./inp_files/6039.got.cif
#   From: 2010.06.25/outbox.cif.g09.slc.cpg/sg71_4_cif.got.tgz:6039.got - 2010.06.28 04:59:45.
