data_PCOD8288559
_publ_section_title
;
Structure prediction by ZEFSAII (Michael W. Deem and Ramdas Pophale) SiO2 
 PCOD8288559
Probable space group: I M M M
;
_chemical_formula_sum "Si O2"
_cell_formula_units_Z 96
_cell_length_a 9.146369
_cell_length_b 18.799797
_cell_length_c 32.284950
_cell_angle_alpha 90.000000
_cell_angle_beta 90.000000
_cell_angle_gamma 90.000000
_cell_volume 5551.393294
_symmetry_space_group_name_H-M "I M M M"
_symmetry_group_IT_number 71
_symmetry_cell_setting 'orthorhombic'
loop_
_space_group_symop_operation_xyz
x,y,z
-x,-y,z
x,-y,-z
-x,y,-z
-x,-y,-z
x,y,-z
-x,y,z
x,-y,z
1/2+x,1/2+y,1/2+z
1/2-x,1/2-y,1/2+z
1/2+x,1/2-y,1/2-z
1/2-x,1/2+y,1/2-z
1/2-x,1/2-y,1/2-z
1/2+x,1/2+y,1/2-z
1/2-x,1/2+y,1/2+z
1/2+x,1/2-y,1/2+z
loop_
_atom_site_type_symbol
_atom_site_label
_atom_site_fract_x
_atom_site_fract_y
_atom_site_fract_z
Si Si1 0.169391 0.781862 0.126913
Si Si2 0.829223 0.919684 0.412408
Si Si3 0.167663 0.920416 0.172550
Si Si4 0.670574 0.795742 0.454073
Si Si5 0.328608 0.340140 0.170730
Si Si6 0.329307 0.081830 0.743585
O O1 0.199223 0.865229 0.135276
O O2 0.217577 0.763799 0.079684
O O3 0.263844 0.736641 0.159313
O O4 0.000000 0.762261 0.133757
O O5 0.749032 0.870403 0.445554
O O6 0.792474 0.895387 0.365838
O O7 0.000000 0.913793 0.421289
O O8 0.772542 0.000000 0.417921
O O9 0.271285 0.901139 0.210722
O O10 0.000000 0.914374 0.187650
O O11 0.200902 0.000000 0.155876
O O12 0.714517 0.768480 0.500000
O O13 0.500000 0.811220 0.451229
O O14 0.500000 0.332259 0.178633
O O15 0.253901 0.367338 0.212195
O O16 0.500000 0.099267 0.742079
O O17 0.296977 0.000000 0.731994
#
# Coordination Sequence:
#
# PCOD8288559 Si02
#       6
#    16  16  16  16  16  16
#     4   9  18  33  51  70  93 121 154 192 234 280
#     4   9  18  31  46  66  93 125 160 196 230 263
#     4   9  18  33  52  71  91 119 155 193 234 280
#     4   9  18  32  49  69  93 121 152 187 230 279
#     4  10  19  31  48  69  95 128 164 198 231 269
#     4  10  20  32  47  69  97 128 161 196 233 272
#
# _framework density 17.292956
#
# number of rings (size 3 to 8) (size 9 to 14) (size 15 to 20)
#    0.000    2.667    0.000    1.500    0.000    4.667 
#    0.000    1.667    0.000    0.500    0.000    3.500 
#    0.000    0.000    0.000   12.500    0.000   13.000 
#
# Total GULP energy -595189.066817 kJ/mol
# GULP energy per Si atom -12399.772225 kJ/mol
# Density = 1.725360 g / cm^3
# Si number density = 17.292956 Si / 1000 Ang^3
#
#
#
# Elastic Constant Matrix: (Units=GPa)
#
#
# Indices 1 2 3 4 5 6 
#
# 1 57.9104 43.6320 39.0550 0.0000 0.0000 0.0000
# 2 43.6320 122.2851 78.7616 0.0000 0.0000 0.0000
# 3 39.0550 78.7616 100.2301 0.0000 0.0000 0.0000
# 4 0.0000 0.0000 0.0000 16.8685 0.0000 0.0000
# 5 0.0000 0.0000 0.0000 0.0000 22.4208 0.0000
# 6 0.0000 0.0000 0.0000 0.0000 0.0000 22.3447
#
#
#
# Elastic Compliance Matrix: (Units=1/GPa)
#
#
# Indices 1 2 3 4 5 6 
#
# 1 0.025051 -0.005368 -0.005543 0.000000 0.000000 0.000000
# 2 -0.005368 0.017708 -0.011824 0.000000 0.000000 0.000000
# 3 -0.005543 -0.011824 0.021428 0.000000 0.000000 0.000000
# 4 0.000000 0.000000 0.000000 0.059282 0.000000 0.000000
# 5 0.000000 0.000000 0.000000 0.000000 0.044601 0.000000
# 6 0.000000 0.000000 0.000000 0.000000 0.000000 0.044753
#
#
# Mechanical properties :
#
#
# Convention : Reuss Voigt Hill
#
# Bulk Modulus (GPa) = 53.42500 67.03587 60.23044
# Shear Modulus (GPa) = 18.90129 20.25862 19.57996
#
# Velocity S-wave (km/s) = 3.30965 3.42642 3.36854
# Velocity P-wave (km/s) = 6.75027 7.38260 7.07351
#
# Compressibility (1/GPa) = 0.01871783
#
# Stress axis : x y z
#
# Youngs Moduli (GPa) = 39.91896 56.47014 46.66817
#
# Poissons Ratio (x) = 0.30315 0.25866
# Poissons Ratio (y) = 0.21430 0.55179
# Poissons Ratio (z) = 0.22126 0.66768
#
# Static dielectric constant tensor:
#      x y z
#    x 3.269900 0.000000 0.000000 
#    y 0.000000 3.271620 0.000000 
#    z 0.000000 0.000000 3.214640 
# 
# 
# High freq. dielectric constant tensor:
#      x y z
#    x 1.670480 0.000000 0.000000 
#    y 0.000000 1.658940 0.000000 
#    z 0.000000 0.000000 1.655000 
# 
# From -- ./inp_files/14833.got.cif
#   From: 2010.06.25/outbox.cif.g09.slc.cpg/sg71_8_cif.got.tgz:14833.got - 2010.06.28 04:59:45.
