data_PCOD8288972
_publ_section_title
;
Structure prediction by ZEFSAII (Michael W. Deem and Ramdas Pophale) SiO2 
 PCOD8288972
Probable space group: I M M M
;
_chemical_formula_sum "Si O2"
_cell_formula_units_Z 56
_cell_length_a 8.729324
_cell_length_b 23.765075
_cell_length_c 13.188793
_cell_angle_alpha 90.000000
_cell_angle_beta 90.000000
_cell_angle_gamma 90.000000
_cell_volume 2736.055196
_symmetry_space_group_name_H-M "I M M M"
_symmetry_group_IT_number 71
_symmetry_cell_setting 'orthorhombic'
loop_
_space_group_symop_operation_xyz
x,y,z
-x,-y,z
x,-y,-z
-x,y,-z
-x,-y,-z
x,y,-z
-x,y,z
x,-y,z
1/2+x,1/2+y,1/2+z
1/2-x,1/2-y,1/2+z
1/2+x,1/2-y,1/2-z
1/2-x,1/2+y,1/2-z
1/2-x,1/2-y,1/2-z
1/2+x,1/2+y,1/2-z
1/2-x,1/2+y,1/2+z
1/2+x,1/2-y,1/2+z
loop_
_atom_site_type_symbol
_atom_site_label
_atom_site_fract_x
_atom_site_fract_y
_atom_site_fract_z
Si Si1 0.320940 0.358234 0.112602
Si Si2 0.173691 0.237671 0.886231
Si Si3 0.675041 0.433564 0.500000
Si Si4 0.180206 0.372014 0.311634
O O1 0.500000 0.363208 0.134571
O O2 0.272571 0.293539 0.117931
O O3 0.230987 0.393739 0.199419
O O4 0.280974 0.382103 0.000000
O O5 0.253865 0.191270 0.816431
O O6 0.000000 0.249713 0.849196
O O7 0.172273 0.212912 0.000000
O O8 0.690409 0.500000 0.500000
O O9 0.500000 0.413269 0.500000
O O10 0.753712 0.411594 0.601686
O O11 0.000000 0.371474 0.323004
#
# Coordination Sequence:
#
# PCOD8288972 Si02
#       4
#    16  16   8  16
#     4  10  21  36  55  81 117 158 200 238 280 339
#     4  10  19  32  52  79 116 157 198 239 283 339
#     4  11  25  45  67  89 113 145 191 245 298 349
#     4  12  23  36  58  84 116 152 190 238 293 349
#
# _framework density 20.467423
#
# number of rings (size 3 to 8) (size 9 to 14) (size 15 to 20)
#    0.000    1.286    1.429    5.571    0.000    4.000 
#    0.000    0.000    0.000    0.857    0.000    6.000 
#    0.000    0.000    0.000    0.000    0.000    0.000 
#
# Total GULP energy -347197.318599 kJ/mol
# GULP energy per Si atom -12399.904236 kJ/mol
# Density = 2.042084 g / cm^3
# Si number density = 20.467423 Si / 1000 Ang^3
#
#
#
# Elastic Constant Matrix: (Units=GPa)
#
#
# Indices 1 2 3 4 5 6 
#
# 1 106.3845 17.9105 58.7435 0.0001 0.0000 0.0000
# 2 17.9105 27.6197 26.9154 0.0003 0.0000 0.0000
# 3 58.7435 26.9154 168.7690 0.0006 -0.0001 -0.0001
# 4 0.0001 0.0003 0.0006 8.3803 -0.0001 -0.0001
# 5 0.0000 0.0000 -0.0001 -0.0001 36.4463 0.0000
# 6 0.0000 0.0000 -0.0001 -0.0001 0.0000 20.1860
#
#
#
# Elastic Compliance Matrix: (Units=1/GPa)
#
#
# Indices 1 2 3 4 5 6 
#
# 1 0.012076 -0.004422 -0.003498 0.000000 0.000000 0.000000
# 2 -0.004422 0.044488 -0.005556 -0.000001 0.000000 0.000000
# 3 -0.003498 -0.005556 0.008029 0.000000 0.000000 0.000000
# 4 0.000000 -0.000001 0.000000 0.119327 0.000000 0.000000
# 5 0.000000 0.000000 0.000000 0.000000 0.027438 0.000000
# 6 0.000000 0.000000 0.000000 0.000000 0.000000 0.049539
#
#
# Mechanical properties :
#
#
# Convention : Reuss Voigt Hill
#
# Bulk Modulus (GPa) = 26.56689 56.65690 41.61190
# Shear Modulus (GPa) = 16.64476 26.28277 21.46376
#
# Velocity S-wave (km/s) = 2.85482 3.58736 3.24185
# Velocity P-wave (km/s) = 4.88619 6.70078 5.86410
#
# Compressibility (1/GPa) = 0.03764084
#
# Stress axis : x y z
#
# Youngs Moduli (GPa) = 82.80969 22.47813 124.55063
#
# Poissons Ratio (x) = 0.09940 0.43568
# Poissons Ratio (y) = 0.36618 0.69198
# Poissons Ratio (z) = 0.28967 0.12488
#
# Static dielectric constant tensor:
#      x y z
#    x 3.795990 0.000000 0.000000 
#    y 0.000000 3.164730 0.000000 
#    z 0.000000 0.000000 4.488590 
# 
# 
# High freq. dielectric constant tensor:
#      x y z
#    x 1.815720 0.000000 0.000000 
#    y 0.000000 1.736310 0.000000 
#    z 0.000000 0.000000 1.835760 
# 
# From -- ./inp_files/5774.got.cif
#   From: 2010.06.25/outbox.cif.g09.slc.cpg/sg71_3_cif.got.tgz:5774.got - 2010.06.28 04:59:45.
