data_PCOD8288784
_publ_section_title
;
Structure prediction by ZEFSAII (Michael W. Deem and Ramdas Pophale) SiO2 
 PCOD8288784
Probable space group: I M M M
;
_chemical_formula_sum "Si O2"
_cell_formula_units_Z 88
_cell_length_a 20.708521
_cell_length_b 8.029548
_cell_length_c 28.101786
_cell_angle_alpha 90.000000
_cell_angle_beta 90.000000
_cell_angle_gamma 90.000000
_cell_volume 4672.766757
_symmetry_space_group_name_H-M "I M M M"
_symmetry_group_IT_number 71
_symmetry_cell_setting 'orthorhombic'
loop_
_space_group_symop_operation_xyz
x,y,z
-x,-y,z
x,-y,-z
-x,y,-z
-x,-y,-z
x,y,-z
-x,y,z
x,-y,z
1/2+x,1/2+y,1/2+z
1/2-x,1/2-y,1/2+z
1/2+x,1/2-y,1/2-z
1/2-x,1/2+y,1/2-z
1/2-x,1/2-y,1/2-z
1/2+x,1/2+y,1/2-z
1/2-x,1/2+y,1/2+z
1/2+x,1/2-y,1/2+z
loop_
_atom_site_type_symbol
_atom_site_label
_atom_site_fract_x
_atom_site_fract_y
_atom_site_fract_z
Si Si1 0.157038 0.812257 0.554732
Si Si2 0.240549 0.308439 0.366054
Si Si3 0.000000 0.687609 0.816952
Si Si4 0.000000 0.310272 0.704240
Si Si5 0.136717 0.193632 0.706007
Si Si6 0.864308 0.806264 0.186802
Si Si7 0.928395 0.500000 0.443746
O O1 0.176556 0.781283 0.500000
O O2 0.220780 0.795926 0.587169
O O3 0.107137 0.670074 0.572719
O O4 0.128104 0.000000 0.560992
O O5 0.248844 0.500000 0.381038
O O6 0.186703 0.296621 0.325228
O O7 0.307931 0.231322 0.346522
O O8 0.934455 0.771978 0.836631
O O9 0.000000 0.500000 0.834830
O O10 0.000000 0.706427 0.760751
O O11 0.935500 0.220411 0.685068
O O12 0.000000 0.500000 0.686922
O O13 0.140759 0.267824 0.759708
O O14 0.154464 0.000000 0.703240
O O15 0.852364 0.000000 0.191468
O O16 0.933823 0.500000 0.500000
O O17 0.000000 0.500000 0.420903
#
# Coordination Sequence:
#
# PCOD8288784 Si02
#       7
#    16  16   8   8  16  16   8
#     4  10  21  38  58  80 107 138 175 221 268 316
#     4  11  21  34  52  76 103 136 175 215 262 314
#     4   9  17  29  49  73  98 131 170 211 253 304
#     4   9  17  31  47  65  94 135 176 213 257 303
#     4  10  19  32  48  71 102 136 174 215 258 305
#     4   9  19  33  51  73 103 138 171 210 256 308
#     4   9  18  36  60  82 106 137 173 219 271 318
#
# _framework density 18.832526999999999
#
# number of rings (size 3 to 8) (size 9 to 14) (size 15 to 20)
#    0.000    2.273    0.909    2.182    0.000    4.727 
#    1.636    1.818    0.000    0.000    0.000    0.636 
#    0.000    5.091    0.000    0.000    0.000    0.000 
#
# Total GULP energy -545444.861867 kJ/mol
# GULP energy per Si atom -12396.474133 kJ/mol
# Density = 1.878966 g / cm^3
# Si number density = 18.832527 Si / 1000 Ang^3
#
#
#
# Elastic Constant Matrix: (Units=GPa)
#
#
# Indices 1 2 3 4 5 6 
#
# 1 145.9494 26.6921 53.2716 0.0000 0.0000 0.0000
# 2 26.6921 78.4318 22.5223 0.0000 0.0000 0.0000
# 3 53.2716 22.5223 64.8056 0.0000 0.0000 0.0000
# 4 0.0000 0.0000 0.0000 20.2381 0.0000 0.0000
# 5 0.0000 0.0000 0.0000 0.0000 14.0137 0.0000
# 6 0.0000 0.0000 0.0000 0.0000 0.0000 22.5705
#
#
#
# Elastic Compliance Matrix: (Units=1/GPa)
#
#
# Indices 1 2 3 4 5 6 
#
# 1 0.009880 -0.001144 -0.007724 0.000000 0.000000 0.000000
# 2 -0.001144 0.014296 -0.004028 0.000000 0.000000 0.000000
# 3 -0.007724 -0.004028 0.023180 0.000000 0.000000 0.000000
# 4 0.000000 0.000000 0.000000 0.049412 0.000000 0.000000
# 5 0.000000 0.000000 0.000000 0.000000 0.071359 0.000000
# 6 0.000000 0.000000 0.000000 0.000000 0.000000 0.044306
#
#
# Mechanical properties :
#
#
# Convention : Reuss Voigt Hill
#
# Bulk Modulus (GPa) = 46.37386 54.90652 50.64019
# Shear Modulus (GPa) = 20.37386 23.81119 22.09253
#
# Velocity S-wave (km/s) = 3.29271 3.55965 3.42878
# Velocity P-wave (km/s) = 6.25569 6.79067 6.52867
#
# Compressibility (1/GPa) = 0.02156387
#
# Stress axis : x y z
#
# Youngs Moduli (GPa) = 101.21172 69.94977 43.14089
#
# Poissons Ratio (x) = 0.08005 0.33322
# Poissons Ratio (y) = 0.11583 0.17375
# Poissons Ratio (z) = 0.78177 0.28173
#
# Static dielectric constant tensor:
#      x y z
#    x 3.741740 0.000000 0.000000 
#    y 0.000000 3.430570 0.000000 
#    z 0.000000 0.000000 3.249940 
# 
# 
# High freq. dielectric constant tensor:
#      x y z
#    x 1.727800 0.000000 0.000000 
#    y 0.000000 1.736320 0.000000 
#    z 0.000000 0.000000 1.691650 
# 
# From -- ./inp_files/70420.got.cif
#   From: 2010.06.25/outbox.cif.g09.slc.cpg/sg71_36_cif.got.tgz:70420.got - 2010.06.28 04:59:45.
