data_PCOD8288026
_publ_section_title
;
Structure prediction by ZEFSAII (Michael W. Deem and Ramdas Pophale) SiO2 
 PCOD8288026
Probable space group: I M M M
;
_chemical_formula_sum "Si O2"
_cell_formula_units_Z 88
_cell_length_a 27.815480
_cell_length_b 8.824042
_cell_length_c 17.854350
_cell_angle_alpha 90.000000
_cell_angle_beta 90.000000
_cell_angle_gamma 90.000000
_cell_volume 4382.260289
_symmetry_space_group_name_H-M "I M M M"
_symmetry_group_IT_number 71
_symmetry_cell_setting 'orthorhombic'
loop_
_space_group_symop_operation_xyz
x,y,z
-x,-y,z
x,-y,-z
-x,y,-z
-x,-y,-z
x,y,-z
-x,y,z
x,-y,z
1/2+x,1/2+y,1/2+z
1/2-x,1/2-y,1/2+z
1/2+x,1/2-y,1/2-z
1/2-x,1/2+y,1/2-z
1/2-x,1/2-y,1/2-z
1/2+x,1/2+y,1/2-z
1/2-x,1/2+y,1/2+z
1/2+x,1/2-y,1/2+z
loop_
_atom_site_type_symbol
_atom_site_label
_atom_site_fract_x
_atom_site_fract_y
_atom_site_fract_z
Si Si1 0.767294 0.678899 0.827290
Si Si2 0.824263 0.179252 0.417110
Si Si3 0.946390 0.179419 0.831756
Si Si4 0.500000 0.831246 0.087866
Si Si5 0.353104 0.679096 0.584960
Si Si6 0.915244 0.819936 0.329696
O O1 0.771247 0.500000 0.816684
O O2 0.750000 0.750000 0.750000
O O3 0.728503 0.725940 0.889789
O O4 0.818156 0.742344 0.855369
O O5 0.832379 0.249409 0.500000
O O6 0.863487 0.241403 0.357868
O O7 0.829074 0.000000 0.421488
O O8 0.908102 0.226465 0.895489
O O9 0.927140 0.244613 0.752646
O O10 0.000000 0.244914 0.849515
O O11 0.949950 0.000000 0.826249
O O12 0.453519 0.739429 0.111810
O O13 0.500000 0.000000 0.123128
O O14 0.500000 0.841883 0.000000
O O15 0.342551 0.732877 0.500000
O O16 0.346378 0.500000 0.593359
O O17 0.916610 0.000000 0.328955
#
# Coordination Sequence:
#
# PCOD8288026 Si02
#       6
#    16  16  16   8  16  16
#     4  11  22  38  60  84 114 151 191 236 287 343
#     4   9  18  32  53  81 109 139 179 227 276 328
#     4   9  17  32  56  84 113 146 189 239 284 328
#     4  11  23  35  47  71 110 145 174 220 283 339
#     4  10  21  37  59  88 120 152 189 236 290 348
#     4  10  18  33  57  79 100 136 187 232 266 317
#
# _framework density 20.080960999999999
#
# number of rings (size 3 to 8) (size 9 to 14) (size 15 to 20)
#    0.000    2.091    0.909    3.000    0.000    5.818 
#    0.000    6.364    0.000    4.364    0.000    1.273 
#    0.000    0.000    0.000    0.000    0.000    0.000 
#
# Total GULP energy -545492.205175 kJ/mol
# GULP energy per Si atom -12397.550118 kJ/mol
# Density = 2.003526 g / cm^3
# Si number density = 20.080961 Si / 1000 Ang^3
#
#
#
# Elastic Constant Matrix: (Units=GPa)
#
#
# Indices 1 2 3 4 5 6 
#
# 1 154.0236 27.6183 59.7461 0.0000 0.0000 0.0000
# 2 27.6183 32.8358 28.9543 0.0000 0.0000 0.0000
# 3 59.7461 28.9543 124.4585 0.0000 0.0000 0.0000
# 4 0.0000 0.0000 0.0000 20.4054 0.0000 0.0000
# 5 0.0000 0.0000 0.0000 0.0000 58.6963 0.0000
# 6 0.0000 0.0000 0.0000 0.0000 0.0000 14.2489
#
#
#
# Elastic Compliance Matrix: (Units=1/GPa)
#
#
# Indices 1 2 3 4 5 6 
#
# 1 0.008465 -0.004450 -0.003029 0.000000 0.000000 0.000000
# 2 -0.004450 0.040653 -0.007322 0.000000 0.000000 0.000000
# 3 -0.003029 -0.007322 0.011192 0.000000 0.000000 0.000000
# 4 0.000000 0.000000 0.000000 0.049007 0.000000 0.000000
# 5 0.000000 0.000000 0.000000 0.000000 0.017037 0.000000
# 6 0.000000 0.000000 0.000000 0.000000 0.000000 0.070181
#
#
# Mechanical properties :
#
#
# Convention : Reuss Voigt Hill
#
# Bulk Modulus (GPa) = 32.56172 60.43947 46.50060
# Shear Modulus (GPa) = 21.15318 31.67008 26.41163
#
# Velocity S-wave (km/s) = 3.24913 3.97560 3.63058
# Velocity P-wave (km/s) = 5.50692 7.15801 6.38605
#
# Compressibility (1/GPa) = 0.03071091
#
# Stress axis : x y z
#
# Youngs Moduli (GPa) = 118.13165 24.59829 89.34971
#
# Poissons Ratio (x) = 0.10945 0.27060
# Poissons Ratio (y) = 0.52563 0.65419
# Poissons Ratio (z) = 0.35776 0.18010
#
# Static dielectric constant tensor:
#      x y z
#    x 3.908340 0.000000 0.000000 
#    y 0.000000 3.281170 0.000000 
#    z 0.000000 0.000000 3.843050 
# 
# 
# High freq. dielectric constant tensor:
#      x y z
#    x 1.800910 0.000000 0.000000 
#    y 0.000000 1.737010 0.000000 
#    z 0.000000 0.000000 1.791650 
# 
# From -- ./inp_files/49221.got.cif
#   From: 2010.06.25/outbox.cif.g09.slc.cpg/sg71_25_cif.got.tgz:49221.got - 2010.06.28 04:59:45.
