data_PCOD8288186
_publ_section_title
;
Structure prediction by ZEFSAII (Michael W. Deem and Ramdas Pophale) SiO2 
 PCOD8288186
Probable space group: I M M M
;
_chemical_formula_sum "Si O2"
_cell_formula_units_Z 80
_cell_length_a 9.200101
_cell_length_b 18.124029
_cell_length_c 28.105126
_cell_angle_alpha 90.000000
_cell_angle_beta 90.000000
_cell_angle_gamma 90.000000
_cell_volume 4686.330139
_symmetry_space_group_name_H-M "I M M M"
_symmetry_group_IT_number 71
_symmetry_cell_setting 'orthorhombic'
loop_
_space_group_symop_operation_xyz
x,y,z
-x,-y,z
x,-y,-z
-x,y,-z
-x,-y,-z
x,y,-z
-x,y,z
x,-y,z
1/2+x,1/2+y,1/2+z
1/2-x,1/2-y,1/2+z
1/2+x,1/2-y,1/2-z
1/2-x,1/2+y,1/2-z
1/2-x,1/2-y,1/2-z
1/2+x,1/2+y,1/2-z
1/2-x,1/2+y,1/2+z
1/2+x,1/2-y,1/2+z
loop_
_atom_site_type_symbol
_atom_site_label
_atom_site_fract_x
_atom_site_fract_y
_atom_site_fract_z
Si Si1 0.327143 0.273242 0.947803
Si Si2 0.828184 0.847097 0.694482
Si Si3 0.671657 0.196964 0.852983
Si Si4 0.828176 0.085290 0.791956
Si Si5 0.326713 0.419185 0.099401
O O1 0.500000 0.274861 0.947443
O O2 0.275547 0.216936 0.906675
O O3 0.269868 0.356268 0.936754
O O4 0.268368 0.249039 0.000000
O O5 0.782608 0.762974 0.682945
O O6 0.764212 0.875153 0.744595
O O7 0.770330 0.900114 0.652473
O O8 0.000000 0.853343 0.696517
O O9 0.500000 0.183408 0.851657
O O10 0.753821 0.122960 0.837566
O O11 0.000000 0.095031 0.796180
O O12 0.783286 0.000000 0.790972
O O13 0.500000 0.419400 0.099379
O O14 0.266770 0.500000 0.084452
#
# Coordination Sequence:
#
# PCOD8288186 Si02
#       5
#    16  16  16  16  16
#     4   8  14  24  38  57  80 107 139 172 206 244
#     4   8  14  25  40  59  84 114 143 165 193 239
#     4   9  17  29  45  63  84 111 140 170 203 241
#     4  10  19  29  43  63  86 111 138 170 207 245
#     4   8  12  18  31  54  85 116 140 163 195 238
#
# _framework density 17.070927000000001
#
# number of rings (size 3 to 8) (size 9 to 14) (size 15 to 20)
#    0.000    3.400    0.000    3.600    0.000    3.200 
#    0.000    2.000    0.000    1.200    0.000    4.200 
#    0.000    7.200    0.000    7.200    0.000    8.000 
#
# Total GULP energy -495626.614206 kJ/mol
# GULP energy per Si atom -12390.665355 kJ/mol
# Density = 1.703207 g / cm^3
# Si number density = 17.070927 Si / 1000 Ang^3
#
#
#
# Elastic Constant Matrix: (Units=GPa)
#
#
# Indices 1 2 3 4 5 6 
#
# 1 12.1147 24.5310 19.2754 0.0000 0.0000 0.0000
# 2 24.5310 96.8930 69.8476 0.0000 0.0000 0.0000
# 3 19.2754 69.8476 139.9771 0.0000 0.0000 0.0000
# 4 0.0000 0.0000 0.0000 16.8608 0.0000 0.0000
# 5 0.0000 0.0000 0.0000 0.0000 13.9380 0.0000
# 6 0.0000 0.0000 0.0000 0.0000 0.0000 18.4925
#
#
#
# Elastic Compliance Matrix: (Units=1/GPa)
#
#
# Indices 1 2 3 4 5 6 
#
# 1 0.170190 -0.040909 -0.003022 0.000000 0.000000 0.000000
# 2 -0.040909 0.025952 -0.007317 0.000000 0.000000 0.000000
# 3 -0.003022 -0.007317 0.011211 0.000000 0.000000 0.000000
# 4 0.000000 0.000000 0.000000 0.059309 0.000000 0.000000
# 5 0.000000 0.000000 0.000000 0.000000 0.071746 0.000000
# 6 0.000000 0.000000 0.000000 0.000000 0.000000 0.054076
#
#
# Mechanical properties :
#
#
# Convention : Reuss Voigt Hill
#
# Bulk Modulus (GPa) = 9.53682 52.92141 31.22911
# Shear Modulus (GPa) = 9.43516 18.88033 14.15775
#
# Velocity S-wave (km/s) = 2.35352 3.32926 2.88297
# Velocity P-wave (km/s) = 3.60334 6.77103 5.42360
#
# Compressibility (1/GPa) = 0.10485673
#
# Stress axis : x y z
#
# Youngs Moduli (GPa) = 5.87580 38.53238 89.19679
#
# Poissons Ratio (x) = 1.57632 0.26959
# Poissons Ratio (y) = 0.24037 0.65262
# Poissons Ratio (z) = 0.01776 0.28193
#
# Static dielectric constant tensor:
#      x y z
#    x 2.527650 0.000000 0.000000 
#    y 0.000000 3.204250 0.000000 
#    z 0.000000 0.000000 3.525980 
# 
# 
# High freq. dielectric constant tensor:
#      x y z
#    x 1.589110 0.000000 0.000000 
#    y 0.000000 1.652250 0.000000 
#    z 0.000000 0.000000 1.658930 
# 
# From -- ./inp_files/8363.got.cif
#   From: 2010.06.25/outbox.cif.g09.slc.cpg/sg71_5_cif.got.tgz:8363.got - 2010.06.28 04:59:45.
