data_PCOD8288887
_publ_section_title
;
Structure prediction by ZEFSAII (Michael W. Deem and Ramdas Pophale) SiO2 
 PCOD8288887
Probable space group: I M M M
;
_chemical_formula_sum "Si O2"
_cell_formula_units_Z 96
_cell_length_a 8.940104
_cell_length_b 19.407501
_cell_length_c 29.548657
_cell_angle_alpha 90.000000
_cell_angle_beta 90.000000
_cell_angle_gamma 90.000000
_cell_volume 5126.842017
_symmetry_space_group_name_H-M "I M M M"
_symmetry_group_IT_number 71
_symmetry_cell_setting 'orthorhombic'
loop_
_space_group_symop_operation_xyz
x,y,z
-x,-y,z
x,-y,-z
-x,y,-z
-x,-y,-z
x,y,-z
-x,y,z
x,-y,z
1/2+x,1/2+y,1/2+z
1/2-x,1/2-y,1/2+z
1/2+x,1/2-y,1/2-z
1/2-x,1/2+y,1/2-z
1/2-x,1/2-y,1/2-z
1/2+x,1/2+y,1/2-z
1/2-x,1/2+y,1/2+z
1/2+x,1/2-y,1/2+z
loop_
_atom_site_type_symbol
_atom_site_label
_atom_site_fract_x
_atom_site_fract_y
_atom_site_fract_z
Si Si1 0.324602 0.076785 0.300487
Si Si2 0.822414 0.077923 0.949293
Si Si3 0.167299 0.076264 0.446864
Si Si4 0.824013 0.684340 0.725355
Si Si5 0.178542 0.820407 0.870530
Si Si6 0.825125 0.333162 0.118365
O O1 0.500000 0.070095 0.309259
O O2 0.291806 0.115883 0.254054
O O3 0.252024 0.122159 0.340988
O O4 0.252908 0.000000 0.299041
O O5 0.760336 0.128431 0.909944
O O6 0.000000 0.080842 0.948792
O O7 0.767693 0.000000 0.938899
O O8 0.766873 0.100064 0.000000
O O9 0.179546 0.077645 0.500000
O O10 0.285097 0.131020 0.428605
O O11 0.000000 0.095986 0.431208
O O12 0.208458 0.000000 0.428861
O O13 0.750000 0.750000 0.750000
O O14 0.752101 0.663736 0.677620
O O15 0.000000 0.699584 0.720579
O O16 0.236152 0.744253 0.883219
O O17 0.000000 0.825700 0.865952
O O18 0.000000 0.329588 0.125520
#
# Coordination Sequence:
#
# PCOD8288887 Si02
#       6
#    16  16  16  16  16  16
#     4   9  18  33  52  74 101 135 173 212 256 308
#     4   8  15  30  53  80 111 147 183 223 273 322
#     4   9  19  35  51  69  99 136 170 209 258 308
#     4  11  21  36  56  77 106 143 178 218 267 320
#     4  10  20  34  54  82 110 137 176 222 267 316
#     4  10  19  32  51  75 102 133 172 217 259 305
#
# _framework density 18.724976999999999
#
# number of rings (size 3 to 8) (size 9 to 14) (size 15 to 20)
#    0.000    2.500    1.667    2.000    0.000    3.333 
#    0.000    2.500    0.000    3.000    0.000    1.167 
#    0.000    0.000    0.000    0.000    0.000    0.000 
#
# Total GULP energy -594920.615211 kJ/mol
# GULP energy per Si atom -12394.179484 kJ/mol
# Density = 1.868236 g / cm^3
# Si number density = 18.724977 Si / 1000 Ang^3
#
#
#
# Elastic Constant Matrix: (Units=GPa)
#
#
# Indices 1 2 3 4 5 6 
#
# 1 21.2653 23.8830 27.2149 0.0000 0.0000 0.0000
# 2 23.8830 158.2138 85.0512 0.0000 0.0000 0.0000
# 3 27.2149 85.0512 128.1368 0.0000 0.0000 0.0000
# 4 0.0000 0.0000 0.0000 36.9448 0.0000 0.0000
# 5 0.0000 0.0000 0.0000 0.0000 30.7104 0.0000
# 6 0.0000 0.0000 0.0000 0.0000 0.0000 14.1148
#
#
#
# Elastic Compliance Matrix: (Units=1/GPa)
#
#
# Indices 1 2 3 4 5 6 
#
# 1 0.065996 -0.003774 -0.011512 0.000000 0.000000 0.000000
# 2 -0.003774 0.010043 -0.005864 0.000000 0.000000 0.000000
# 3 -0.011512 -0.005864 0.014142 0.000000 0.000000 0.000000
# 4 0.000000 0.000000 0.000000 0.027067 0.000000 0.000000
# 5 0.000000 0.000000 0.000000 0.000000 0.032562 0.000000
# 6 0.000000 0.000000 0.000000 0.000000 0.000000 0.070848
#
#
# Mechanical properties :
#
#
# Convention : Reuss Voigt Hill
#
# Bulk Modulus (GPa) = 20.88542 64.43490 42.66016
# Shear Modulus (GPa) = 17.92635 27.78511 22.85573
#
# Velocity S-wave (km/s) = 3.09746 3.85626 3.49750
# Velocity P-wave (km/s) = 4.89595 7.36977 6.25635
#
# Compressibility (1/GPa) = 0.04788030
#
# Stress axis : x y z
#
# Youngs Moduli (GPa) = 15.15234 99.57406 70.71285
#
# Poissons Ratio (x) = 0.37578 0.81405
# Poissons Ratio (y) = 0.05718 0.41469
# Poissons Ratio (z) = 0.17443 0.58394
#
# Static dielectric constant tensor:
#      x y z
#    x 3.133160 0.000000 0.000000 
#    y 0.000000 3.803060 0.000000 
#    z 0.000000 0.000000 3.525090 
# 
# 
# High freq. dielectric constant tensor:
#      x y z
#    x 1.685320 0.000000 0.000000 
#    y 0.000000 1.735330 0.000000 
#    z 0.000000 0.000000 1.734710 
# 
# From -- ./inp_files/10818.got.cif
#   From: 2010.06.25/outbox.cif.g09.slc.cpg/sg71_6_cif.got.tgz:10818.got - 2010.06.28 04:59:45.
