data_PCOD8288975
_publ_section_title
;
Structure prediction by ZEFSAII (Michael W. Deem and Ramdas Pophale) SiO2 
 PCOD8288975
Probable space group: I M M M
;
_chemical_formula_sum "Si O2"
_cell_formula_units_Z 88
_cell_length_a 13.298629
_cell_length_b 15.432988
_cell_length_c 21.974495
_cell_angle_alpha 90.000000
_cell_angle_beta 90.000000
_cell_angle_gamma 90.000000
_cell_volume 4509.992214
_symmetry_space_group_name_H-M "I M M M"
_symmetry_group_IT_number 71
_symmetry_cell_setting 'orthorhombic'
loop_
_space_group_symop_operation_xyz
x,y,z
-x,-y,z
x,-y,-z
-x,y,-z
-x,-y,-z
x,y,-z
-x,y,z
x,-y,z
1/2+x,1/2+y,1/2+z
1/2-x,1/2-y,1/2+z
1/2+x,1/2-y,1/2-z
1/2-x,1/2+y,1/2-z
1/2-x,1/2-y,1/2-z
1/2+x,1/2+y,1/2-z
1/2-x,1/2+y,1/2+z
1/2+x,1/2-y,1/2+z
loop_
_atom_site_type_symbol
_atom_site_label
_atom_site_fract_x
_atom_site_fract_y
_atom_site_fract_z
Si Si1 0.882151 0.406825 0.000000
Si Si2 0.113921 0.293187 0.113799
Si Si3 0.801800 0.400653 0.217528
Si Si4 0.114076 0.402824 0.656343
Si Si5 0.885010 0.098665 0.638070
Si Si6 0.808118 0.263256 0.428174
O O1 0.849639 0.358484 0.060824
O O2 0.828184 0.500000 0.000000
O O3 0.000000 0.418466 0.000000
O O4 0.123214 0.341556 0.177836
O O5 0.198271 0.219459 0.103828
O O6 0.000000 0.258201 0.105086
O O7 0.836227 0.500000 0.209043
O O8 0.814173 0.372978 0.287776
O O9 0.685896 0.387089 0.197252
O O10 0.142715 0.500000 0.634971
O O11 0.122986 0.338565 0.599410
O O12 0.000000 0.399907 0.680297
O O13 0.853827 0.168255 0.586880
O O14 0.000000 0.114619 0.658667
O O15 0.871903 0.000000 0.612911
O O16 0.802945 0.274993 0.500000
#
# Coordination Sequence:
#
# PCOD8288975 Si02
#       6
#     8  16  16  16  16  16
#     4   9  16  26  44  74 110 145 178 208 246 307
#     4  10  19  32  52  80 112 147 178 215 270 329
#     4   9  18  34  56  82 111 143 181 227 278 330
#     4  10  22  40  61  83 106 134 178 239 293 329
#     4   9  19  35  55  82 117 152 181 214 260 325
#     4  11  23  38  55  79 109 148 189 231 274 322
#
# _framework density 19.512229000000001
#
# number of rings (size 3 to 8) (size 9 to 14) (size 15 to 20)
#    0.000    2.273    0.909    1.636    0.000    7.636 
#    0.000    4.545    0.000    1.636    0.000    1.273 
#    0.000    0.000    0.000    0.000    0.000    0.000 
#
# Total GULP energy -545354.400292 kJ/mol
# GULP energy per Si atom -12394.418188 kJ/mol
# Density = 1.946782 g / cm^3
# Si number density = 19.512229 Si / 1000 Ang^3
#
#
#
# Elastic Constant Matrix: (Units=GPa)
#
#
# Indices 1 2 3 4 5 6 
#
# 1 107.9866 24.2863 34.5161 0.0000 0.0000 0.0000
# 2 24.2863 72.9545 50.6892 0.0000 0.0000 0.0000
# 3 34.5161 50.6892 106.1028 0.0000 0.0000 0.0000
# 4 0.0000 0.0000 0.0000 22.8055 0.0000 0.0000
# 5 0.0000 0.0000 0.0000 0.0000 23.2049 0.0000
# 6 0.0000 0.0000 0.0000 0.0000 0.0000 21.5896
#
#
#
# Elastic Compliance Matrix: (Units=1/GPa)
#
#
# Indices 1 2 3 4 5 6 
#
# 1 0.010470 -0.001675 -0.002606 0.000000 0.000000 0.000000
# 2 -0.001675 0.020786 -0.009385 0.000000 0.000000 0.000000
# 3 -0.002606 -0.009385 0.014756 0.000000 0.000000 0.000000
# 4 0.000000 0.000000 0.000000 0.043849 0.000000 0.000000
# 5 0.000000 0.000000 0.000000 0.000000 0.043094 0.000000
# 6 0.000000 0.000000 0.000000 0.000000 0.000000 0.046319
#
#
# Mechanical properties :
#
#
# Convention : Reuss Voigt Hill
#
# Bulk Modulus (GPa) = 53.53325 56.22524 54.87924
# Shear Modulus (GPa) = 23.49268 25.35682 24.42475
#
# Velocity S-wave (km/s) = 3.47363 3.60882 3.54187
# Velocity P-wave (km/s) = 6.60178 6.80020 6.70172
#
# Compressibility (1/GPa) = 0.01867998
#
# Stress axis : x y z
#
# Youngs Moduli (GPa) = 95.51094 48.11014 67.76825
#
# Poissons Ratio (x) = 0.08058 0.17659
# Poissons Ratio (y) = 0.15997 0.63602
# Poissons Ratio (z) = 0.24888 0.45152
#
# Static dielectric constant tensor:
#      x y z
#    x 3.678240 0.000000 0.000000 
#    y 0.000000 3.492440 0.000000 
#    z 0.000000 0.000000 0.525990 
# 
# 
# High freq. dielectric constant tensor:
#      x y z
#    x 1.768920 0.000000 0.000000 
#    y 0.000000 1.736000 0.000000 
#    z 0.000000 0.000000 1.745750 
# 
# From -- ./inp_files/52905.got.cif
#   From: 2010.06.25/outbox.cif.g09.slc.cpg/sg71_27_cif.got.tgz:52905.got - 2010.06.28 04:59:45.
