data_PCOD8288071
_publ_section_title
;
Structure prediction by ZEFSAII (Michael W. Deem and Ramdas Pophale) SiO2 
 PCOD8288071
Probable space group: I M M M
;
_chemical_formula_sum "Si O2"
_cell_formula_units_Z 80
_cell_length_a 23.053049
_cell_length_b 11.303120
_cell_length_c 15.120316
_cell_angle_alpha 90.000000
_cell_angle_beta 90.000000
_cell_angle_gamma 90.000000
_cell_volume 3939.921594
_symmetry_space_group_name_H-M "I M M M"
_symmetry_group_IT_number 71
_symmetry_cell_setting 'orthorhombic'
loop_
_space_group_symop_operation_xyz
x,y,z
-x,-y,z
x,-y,-z
-x,y,-z
-x,-y,-z
x,y,-z
-x,y,z
x,-y,z
1/2+x,1/2+y,1/2+z
1/2-x,1/2-y,1/2+z
1/2+x,1/2-y,1/2-z
1/2-x,1/2+y,1/2-z
1/2-x,1/2-y,1/2-z
1/2+x,1/2+y,1/2-z
1/2-x,1/2+y,1/2+z
1/2+x,1/2-y,1/2+z
loop_
_atom_site_type_symbol
_atom_site_label
_atom_site_fract_x
_atom_site_fract_y
_atom_site_fract_z
Si Si1 0.066016 0.500000 0.712141
Si Si2 0.779099 0.637690 0.648777
Si Si3 0.329811 0.220350 0.669352
Si Si4 0.106411 0.717557 0.597747
Si Si5 0.383007 0.000000 0.403280
Si Si6 0.566806 0.637542 0.246279
O O1 0.093245 0.613950 0.667281
O O2 0.074473 0.500000 0.818090
O O3 0.000000 0.500000 0.687609
O O4 0.781800 0.500000 0.623107
O O5 0.714412 0.684047 0.628536
O O6 0.797393 0.655406 0.750238
O O7 0.823740 0.714650 0.588843
O O8 0.343802 0.118052 0.599112
O O9 0.389788 0.287149 0.693162
O O10 0.078617 0.702277 0.500000
O O11 0.081609 0.836748 0.642613
O O12 0.414808 0.000000 0.500000
O O13 0.500000 0.674067 0.266629
O O14 0.576675 0.500000 0.264668
#
# Coordination Sequence:
#
# PCOD8288071 Si02
#       6
#     8  16  16  16   8  16
#     4  12  23  41  62  89 125 164 205 249 308 376
#     4  10  18  35  61  85 122 164 206 246 296 361
#     4  10  20  37  60  89 121 162 206 249 312 366
#     4  11  22  37  60  94 130 165 204 249 303 366
#     4  12  24  42  63  92 124 153 203 265 314 362
#     4  10  21  38  61  89 124 164 208 253 301 366
#
# _framework density 20.304973
#
# number of rings (size 3 to 8) (size 9 to 14) (size 15 to 20)
#    0.000    1.400    6.000    1.500    0.000    3.400 
#    1.800    1.000    0.000    1.800    0.000    1.400 
#    0.000    0.000    0.000    0.000    0.000    0.000 
#
# Total GULP energy -495696.492352 kJ/mol
# GULP energy per Si atom -12392.412309 kJ/mol
# Density = 2.025876 g / cm^3
# Si number density = 20.304973 Si / 1000 Ang^3
#
#
#
# Elastic Constant Matrix: (Units=GPa)
#
#
# Indices 1 2 3 4 5 6 
#
# 1 142.6946 54.0943 19.4450 0.0000 0.0000 0.0000
# 2 54.0943 100.4919 17.1003 0.0000 0.0000 0.0000
# 3 19.4450 17.1003 97.9155 0.0000 0.0000 0.0000
# 4 0.0000 0.0000 0.0000 12.9413 0.0000 0.0000
# 5 0.0000 0.0000 0.0000 0.0000 8.8129 0.0000
# 6 0.0000 0.0000 0.0000 0.0000 0.0000 29.5519
#
#
#
# Elastic Compliance Matrix: (Units=1/GPa)
#
#
# Indices 1 2 3 4 5 6 
#
# 1 0.008891 -0.004623 -0.000958 0.000000 0.000000 0.000000
# 2 -0.004623 0.012660 -0.001293 0.000000 0.000000 0.000000
# 3 -0.000958 -0.001293 0.010629 0.000000 0.000000 0.000000
# 4 0.000000 0.000000 0.000000 0.077272 0.000000 0.000000
# 5 0.000000 0.000000 0.000000 0.000000 0.113470 0.000000
# 6 0.000000 0.000000 0.000000 0.000000 0.000000 0.033839
#
#
# Mechanical properties :
#
#
# Convention : Reuss Voigt Hill
#
# Bulk Modulus (GPa) = 54.25516 58.04236 56.14876
# Shear Modulus (GPa) = 18.07321 26.95871 22.51596
#
# Velocity S-wave (km/s) = 2.98667 3.64770 3.33361
# Velocity P-wave (km/s) = 6.21866 6.81090 6.52151
#
# Compressibility (1/GPa) = 0.01843143
#
# Stress axis : x y z
#
# Youngs Moduli (GPa) = 112.47215 78.99166 94.08234
#
# Poissons Ratio (x) = 0.36518 0.09016
# Poissons Ratio (y) = 0.51995 0.12163
# Poissons Ratio (z) = 0.10778 0.10212
#
# Static dielectric constant tensor:
#      x y z
#    x 4.012280 0.000000 0.000000 
#    y 0.000000 3.796230 0.000000 
#    z 0.000000 0.000000 3.414100 
# 
# 
# High freq. dielectric constant tensor:
#      x y z
#    x 1.798690 0.000000 0.000000 
#    y 0.000000 1.795730 0.000000 
#    z 0.000000 0.000000 1.763420 
# 
# From -- ./inp_files/38962.got.cif
#   From: 2010.06.25/outbox.cif.g09.slc.cpg/sg71_20_cif.got.tgz:38962.got - 2010.06.28 04:59:45.
