data_PCOD8288626
_publ_section_title
;
Structure prediction by ZEFSAII (Michael W. Deem and Ramdas Pophale) SiO2 
 PCOD8288626
Probable space group: I M M M
;
_chemical_formula_sum "Si O2"
_cell_formula_units_Z 120
_cell_length_a 19.783794
_cell_length_b 14.602094
_cell_length_c 22.577754
_cell_angle_alpha 90.000000
_cell_angle_beta 90.000000
_cell_angle_gamma 90.000000
_cell_volume 6522.370393
_symmetry_space_group_name_H-M "I M M M"
_symmetry_group_IT_number 71
_symmetry_cell_setting 'orthorhombic'
loop_
_space_group_symop_operation_xyz
x,y,z
-x,-y,z
x,-y,-z
-x,y,-z
-x,-y,-z
x,y,-z
-x,y,z
x,-y,z
1/2+x,1/2+y,1/2+z
1/2-x,1/2-y,1/2+z
1/2+x,1/2-y,1/2-z
1/2-x,1/2+y,1/2-z
1/2-x,1/2-y,1/2-z
1/2+x,1/2+y,1/2-z
1/2-x,1/2+y,1/2+z
1/2+x,1/2-y,1/2+z
loop_
_atom_site_type_symbol
_atom_site_label
_atom_site_fract_x
_atom_site_fract_y
_atom_site_fract_z
Si Si1 0.424357 0.392905 0.766475
Si Si2 0.342656 0.605168 0.119014
Si Si3 0.624948 0.786537 0.068010
Si Si4 0.426542 0.226042 0.431388
Si Si5 0.000000 0.603765 0.429017
Si Si6 0.749384 0.397254 0.432394
Si Si7 0.697712 0.104303 0.568231
Si Si8 0.387230 0.604234 0.635777
O O1 0.500000 0.349132 0.776124
O O2 0.434233 0.500000 0.768486
O O3 0.368827 0.365631 0.815917
O O4 0.392692 0.363531 0.703812
O O5 0.362501 0.500000 0.102770
O O6 0.380610 0.676872 0.076161
O O7 0.262115 0.618985 0.111114
O O8 0.563740 0.841556 0.098285
O O9 0.695560 0.826045 0.092518
O O10 0.621884 0.811945 0.000000
O O11 0.413534 0.241475 0.500000
O O12 0.500000 0.178222 0.420569
O O13 0.364513 0.164847 0.406786
O O14 0.431523 0.325740 0.401875
O O15 0.000000 0.500000 0.405109
O O16 0.000000 0.605255 0.500000
O O17 0.726207 0.373190 0.500000
O O18 0.779434 0.500000 0.431166
O O19 0.689014 0.387852 0.386466
O O20 0.717363 0.129736 0.500000
O O21 0.672929 0.000000 0.570950
O O22 0.414331 0.500000 0.627484
#
# Coordination Sequence:
#
# PCOD8288626 Si02
#       8
#    16  16  16  16   8  16  16  16
#     4   9  19  35  52  69  96 134 170 208 251 300
#     4  10  20  33  52  75  99 130 171 212 257 305
#     4  10  19  31  49  74 104 136 168 206 255 304
#     4  10  20  32  49  76 107 135 166 206 249 299
#     4   9  18  32  49  71 101 137 174 204 238 297
#     4   9  17  30  50  75 103 134 167 206 249 298
#     4   9  18  34  54  74 101 137 172 209 254 301
#     4  10  19  32  51  74 101 132 167 203 253 310
#
# _framework density 18.398219000000001
#
# number of rings (size 3 to 8) (size 9 to 14) (size 15 to 20)
#    0.000    2.467    0.000    2.400    0.933    6.400 
#    0.000    4.667    0.000    1.200    0.000    0.933 
#    0.000    0.000    0.000    0.000    0.000    0.000 
#
# Total GULP energy -743449.625957 kJ/mol
# GULP energy per Si atom -12390.827099 kJ/mol
# Density = 1.835634 g / cm^3
# Si number density = 18.398219 Si / 1000 Ang^3
#
#
#
# Elastic Constant Matrix: (Units=GPa)
#
#
# Indices 1 2 3 4 5 6 
#
# 1 130.9269 53.7909 56.2306 0.0000 0.0000 0.0000
# 2 53.7909 100.1581 20.5424 0.0000 0.0000 0.0000
# 3 56.2306 20.5424 54.4115 0.0000 0.0000 0.0000
# 4 0.0000 0.0000 0.0000 14.4642 0.0000 0.0000
# 5 0.0000 0.0000 0.0000 0.0000 -15.4228 0.0000
# 6 0.0000 0.0000 0.0000 0.0000 0.0000 24.5610
#
#
#
# Elastic Compliance Matrix: (Units=1/GPa)
#
#
# Indices 1 2 3 4 5 6 
#
# 1 0.016302 -0.005745 -0.014678 0.000000 0.000000 0.000000
# 2 -0.005745 0.012847 0.001087 0.000000 0.000000 0.000000
# 3 -0.014678 0.001087 0.033137 0.000000 0.000000 0.000000
# 4 0.000000 0.000000 0.000000 0.069136 0.000000 0.000000
# 5 0.000000 0.000000 0.000000 0.000000 -0.064839 0.000000
# 6 0.000000 0.000000 0.000000 0.000000 0.000000 0.040715
#
#
# Mechanical properties :
#
#
# Convention : Reuss Voigt Hill
#
# Bulk Modulus (GPa) = 42.34903 60.73604 51.54253
# Shear Modulus (GPa) = 32.50099 15.04932 23.77515
#
# Velocity S-wave (km/s) = 4.20757 2.86313 3.59869
# Velocity P-wave (km/s) = 6.83175 6.63428 6.73374
#
# Compressibility (1/GPa) = 0.02361329
#
# Stress axis : x y z
#
# Youngs Moduli (GPa) = 61.34210 77.84184 30.17762
#
# Poissons Ratio (x) = 0.44717 0.44295
# Poissons Ratio (y) = 0.35239 -0.03279
# Poissons Ratio (z) = 0.90039 -0.08459
#
# Static dielectric constant tensor:
#      x y z
#    x 3.617170 0.000000 0.000000 
#    y 0.000000 3.480730 0.000000 
#    z 0.000000 0.000000 3.246690 
# 
# 
# High freq. dielectric constant tensor:
#      x y z
#    x 1.721110 0.000000 0.000000 
#    y 0.000000 1.711750 0.000000 
#    z 0.000000 0.000000 1.672090 
# 
# From -- ./inp_files/55122.got.cif
#   From: 2010.06.25/outbox.cif.g09.slc.cpg/sg71_28_cif.got.tgz:55122.got - 2010.06.28 04:59:45.
