data_PCOD8288877
_publ_section_title
;
Structure prediction by ZEFSAII (Michael W. Deem and Ramdas Pophale) SiO2 
 PCOD8288877
Probable space group: I M M M
;
_chemical_formula_sum "Si O2"
_cell_formula_units_Z 112
_cell_length_a 14.671672
_cell_length_b 23.291822
_cell_length_c 17.309998
_cell_angle_alpha 90.000000
_cell_angle_beta 90.000000
_cell_angle_gamma 90.000000
_cell_volume 5915.345143
_symmetry_space_group_name_H-M "I M M M"
_symmetry_group_IT_number 71
_symmetry_cell_setting 'orthorhombic'
loop_
_space_group_symop_operation_xyz
x,y,z
-x,-y,z
x,-y,-z
-x,y,-z
-x,-y,-z
x,y,-z
-x,y,z
x,-y,z
1/2+x,1/2+y,1/2+z
1/2-x,1/2-y,1/2+z
1/2+x,1/2-y,1/2-z
1/2-x,1/2+y,1/2-z
1/2-x,1/2-y,1/2-z
1/2+x,1/2+y,1/2-z
1/2-x,1/2+y,1/2+z
1/2+x,1/2-y,1/2+z
loop_
_atom_site_type_symbol
_atom_site_label
_atom_site_fract_x
_atom_site_fract_y
_atom_site_fract_z
Si Si1 0.213957 0.171398 0.411608
Si Si2 0.396344 0.064989 0.207522
Si Si3 0.101363 0.662760 0.179113
Si Si4 0.397716 0.616393 0.694773
Si Si5 0.746218 0.566748 0.587313
Si Si6 0.649328 0.733712 0.229405
Si Si7 0.106434 0.934046 0.356500
O O1 0.211487 0.192035 0.500000
O O2 0.319663 0.175049 0.383441
O O3 0.149326 0.214091 0.360779
O O4 0.172172 0.107143 0.406381
O O5 0.500000 0.075012 0.182256
O O6 0.369813 0.103247 0.280965
O O7 0.337559 0.081981 0.133337
O O8 0.377573 0.000000 0.233748
O O9 0.091493 0.710243 0.247913
O O10 0.000000 0.658036 0.140411
O O11 0.500000 0.604291 0.668150
O O12 0.336169 0.603353 0.621387
O O13 0.387085 0.682258 0.718323
O O14 0.370590 0.575295 0.766189
O O15 0.762295 0.586622 0.500000
O O16 0.721175 0.500000 0.592699
O O17 0.750000 0.750000 0.250000
O O18 0.000000 0.919003 0.372419
O O19 0.127077 0.000000 0.378806
#
# Coordination Sequence:
#
# PCOD8288877 Si02
#       7
#    16  16  16  16  16  16  16
#     4  10  21  35  53  80 111 139 167 210 266 313
#     4   9  18  34  56  78  99 129 174 225 270 312
#     4  10  20  36  58  79 102 137 178 215 253 306
#     4  10  19  32  51  74 102 137 176 215 254 302
#     4  10  20  32  48  73 105 139 174 217 270 321
#     4   9  18  35  56  75  98 133 175 214 249 295
#     4   9  18  33  54  78 103 137 180 218 254 304
#
# _framework density 18.933806000000001
#
# number of rings (size 3 to 8) (size 9 to 14) (size 15 to 20)
#    0.000    2.429    0.000    3.429    0.000    4.571 
#    0.000    9.286    0.000    4.286    0.000    3.000 
#    0.000    0.000    0.000    0.000    0.000    0.000 
#
# Total GULP energy -694151.713265 kJ/mol
# GULP energy per Si atom -12395.566308 kJ/mol
# Density = 1.889071 g / cm^3
# Si number density = 18.933806 Si / 1000 Ang^3
#
#
#
# Elastic Constant Matrix: (Units=GPa)
#
#
# Indices 1 2 3 4 5 6 
#
# 1 62.1802 18.9247 20.3795 0.0001 0.0000 0.0000
# 2 18.9247 64.2096 15.4870 0.0000 0.0000 0.0000
# 3 20.3795 15.4870 67.3409 0.0001 0.0000 0.0000
# 4 0.0001 0.0000 0.0001 14.2662 0.0000 0.0000
# 5 0.0000 0.0000 0.0000 0.0000 14.6503 0.0000
# 6 0.0000 0.0000 0.0000 0.0000 0.0000 29.7136
#
#
#
# Elastic Compliance Matrix: (Units=1/GPa)
#
#
# Indices 1 2 3 4 5 6 
#
# 1 0.018986 -0.004457 -0.004721 0.000000 0.000000 0.000000
# 2 -0.004457 0.017535 -0.002684 0.000000 0.000000 0.000000
# 3 -0.004721 -0.002684 0.016896 0.000000 0.000000 0.000000
# 4 0.000000 0.000000 0.000000 0.070096 0.000000 0.000000
# 5 0.000000 0.000000 0.000000 0.000000 0.068258 0.000000
# 6 0.000000 0.000000 0.000000 0.000000 0.000000 0.033655
#
#
# Mechanical properties :
#
#
# Convention : Reuss Voigt Hill
#
# Bulk Modulus (GPa) = 33.67765 33.70147 33.68956
# Shear Modulus (GPa) = 19.30155 20.98864 20.14509
#
# Velocity S-wave (km/s) = 3.19630 3.33307 3.26540
# Velocity P-wave (km/s) = 5.60780 5.71408 5.66119
#
# Compressibility (1/GPa) = 0.02969328
#
# Stress axis : x y z
#
# Youngs Moduli (GPa) = 52.67023 57.02875 59.18671
#
# Poissons Ratio (x) = 0.25419 0.27940
# Poissons Ratio (y) = 0.23476 0.15884
# Poissons Ratio (z) = 0.24864 0.15305
#
# Static dielectric constant tensor:
#      x y z
#    x 3.676480 0.000000 0.000000 
#    y 0.000000 3.710610 0.000000 
#    z 0.000000 0.000000 3.218950 
# 
# 
# High freq. dielectric constant tensor:
#      x y z
#    x 1.746800 0.000000 0.000000 
#    y 0.000000 1.737880 0.000000 
#    z 0.000000 0.000000 1.702970 
# 
# From -- ./inp_files/34870.got.cif
#   From: 2010.06.25/outbox.cif.g09.slc.cpg/sg71_18_cif.got.tgz:34870.got - 2010.06.28 04:59:45.
