data_PCOD8288246
_publ_section_title
;
Structure prediction by ZEFSAII (Michael W. Deem and Ramdas Pophale) SiO2 
 PCOD8288246
Probable space group: I M M M
;
_chemical_formula_sum "Si O2"
_cell_formula_units_Z 72
_cell_length_a 15.285715
_cell_length_b 9.530331
_cell_length_c 28.778261
_cell_angle_alpha 90.000000
_cell_angle_beta 90.000000
_cell_angle_gamma 90.000000
_cell_volume 4192.357305
_symmetry_space_group_name_H-M "I M M M"
_symmetry_group_IT_number 71
_symmetry_cell_setting 'orthorhombic'
loop_
_space_group_symop_operation_xyz
x,y,z
-x,-y,z
x,-y,-z
-x,y,-z
-x,-y,-z
x,y,-z
-x,y,z
x,-y,z
1/2+x,1/2+y,1/2+z
1/2-x,1/2-y,1/2+z
1/2+x,1/2-y,1/2-z
1/2-x,1/2+y,1/2-z
1/2-x,1/2-y,1/2-z
1/2+x,1/2+y,1/2-z
1/2-x,1/2+y,1/2+z
1/2+x,1/2-y,1/2+z
loop_
_atom_site_type_symbol
_atom_site_label
_atom_site_fract_x
_atom_site_fract_y
_atom_site_fract_z
Si Si1 0.162262 0.160128 0.447444
Si Si2 0.903587 0.833412 0.703532
Si Si3 0.500000 0.842727 0.944909
Si Si4 0.898999 0.161223 0.191604
Si Si5 0.742396 0.161818 0.357282
O O1 0.191727 0.198853 0.500000
O O2 0.243868 0.179840 0.412709
O O3 0.085515 0.259487 0.428409
O O4 0.127726 0.000000 0.445279
O O5 0.881888 0.784613 0.756001
O O6 0.828050 0.777491 0.669426
O O7 0.000000 0.774666 0.688702
O O8 0.908180 0.000000 0.702202
O O9 0.500000 0.000000 0.923924
O O10 0.500000 0.847781 0.000000
O O11 0.843003 0.252263 0.155976
O O12 0.000000 0.180569 0.178127
O O13 0.870466 0.000000 0.186611
O O14 0.727450 0.000000 0.343788
#
# Coordination Sequence:
#
# PCOD8288246 Si02
#       5
#    16  16   8  16  16
#     4   9  18  31  46  67  96 127 158 192 233 279
#     4   8  15  28  46  69  97 126 154 184 226 282
#     4   9  17  29  45  65  91 125 161 193 227 269
#     4   9  18  33  50  67  92 125 155 191 241 287
#     4  10  19  29  49  74  93 122 160 197 231 272
#
# _framework density 17.174108
#
# number of rings (size 3 to 8) (size 9 to 14) (size 15 to 20)
#    0.000    3.000    0.000    2.333    1.556    2.667 
#    0.000    0.000    0.000    2.000    0.000    4.667 
#    0.000    0.000    0.000    0.000    0.000    0.000 
#
# Total GULP energy -446261.403981 kJ/mol
# GULP energy per Si atom -12396.150111 kJ/mol
# Density = 1.713502 g / cm^3
# Si number density = 17.174108 Si / 1000 Ang^3
#
#
#
# Elastic Constant Matrix: (Units=GPa)
#
#
# Indices 1 2 3 4 5 6 
#
# 1 83.4720 40.5505 52.2257 0.0000 0.0000 0.0000
# 2 40.5505 60.5272 34.8876 0.0000 0.0000 0.0000
# 3 52.2257 34.8876 86.9063 0.0000 0.0000 0.0000
# 4 0.0000 0.0000 0.0000 19.0525 0.0000 0.0000
# 5 0.0000 0.0000 0.0000 0.0000 24.3583 0.0000
# 6 0.0000 0.0000 0.0000 0.0000 0.0000 30.7534
#
#
#
# Elastic Compliance Matrix: (Units=1/GPa)
#
#
# Indices 1 2 3 4 5 6 
#
# 1 0.022809 -0.009602 -0.009852 0.000000 0.000000 0.000000
# 2 -0.009602 0.025538 -0.004481 0.000000 0.000000 0.000000
# 3 -0.009852 -0.004481 0.019226 0.000000 0.000000 0.000000
# 4 0.000000 0.000000 0.000000 0.052486 0.000000 0.000000
# 5 0.000000 0.000000 0.000000 0.000000 0.041054 0.000000
# 6 0.000000 0.000000 0.000000 0.000000 0.000000 0.032517
#
#
# Mechanical properties :
#
#
# Convention : Reuss Voigt Hill
#
# Bulk Modulus (GPa) = 50.75831 54.02590 52.39210
# Shear Modulus (GPa) = 20.15571 21.71563 20.93567
#
# Velocity S-wave (km/s) = 3.42952 3.55975 3.49524
# Velocity P-wave (km/s) = 6.73063 6.95858 6.84556
#
# Compressibility (1/GPa) = 0.01970121
#
# Stress axis : x y z
#
# Youngs Moduli (GPa) = 43.84232 39.15783 52.01223
#
# Poissons Ratio (x) = 0.37600 0.51243
# Poissons Ratio (y) = 0.42099 0.23309
# Poissons Ratio (z) = 0.43194 0.17548
#
# Static dielectric constant tensor:
#      x y z
#    x 3.105230 0.000000 0.000000 
#    y 0.000000 3.051910 0.000000 
#    z 0.000000 0.000000 3.210070 
# 
# 
# High freq. dielectric constant tensor:
#      x y z
#    x 1.644410 0.000000 0.000000 
#    y 0.000000 1.639810 0.000000 
#    z 0.000000 0.000000 1.657230 
# 
# From -- ./inp_files/6414.got.cif
#   From: 2010.06.25/outbox.cif.g09.slc.cpg/sg71_4_cif.got.tgz:6414.got - 2010.06.28 04:59:45.
