data_PCOD8288490
_publ_section_title
;
Structure prediction by ZEFSAII (Michael W. Deem and Ramdas Pophale) SiO2 
 PCOD8288490
Probable space group: I M M M
;
_chemical_formula_sum "Si O2"
_cell_formula_units_Z 80
_cell_length_a 8.847171
_cell_length_b 32.578638
_cell_length_c 19.348058
_cell_angle_alpha 90.000000
_cell_angle_beta 90.000000
_cell_angle_gamma 90.000000
_cell_volume 5576.667179
_symmetry_space_group_name_H-M "I M M M"
_symmetry_group_IT_number 71
_symmetry_cell_setting 'orthorhombic'
loop_
_space_group_symop_operation_xyz
x,y,z
-x,-y,z
x,-y,-z
-x,y,-z
-x,-y,-z
x,y,-z
-x,y,z
x,-y,z
1/2+x,1/2+y,1/2+z
1/2-x,1/2-y,1/2+z
1/2+x,1/2-y,1/2-z
1/2-x,1/2+y,1/2-z
1/2-x,1/2-y,1/2-z
1/2+x,1/2+y,1/2-z
1/2-x,1/2+y,1/2+z
1/2+x,1/2-y,1/2+z
loop_
_atom_site_type_symbol
_atom_site_label
_atom_site_fract_x
_atom_site_fract_y
_atom_site_fract_z
Si Si1 0.320398 0.230183 0.349792
Si Si2 0.321546 0.876450 0.133012
Si Si3 0.823964 0.046529 0.920356
Si Si4 0.330445 0.241694 0.500000
Si Si5 0.671244 0.661338 0.500000
Si Si6 0.677600 0.313251 0.272278
O O1 0.500000 0.223943 0.346017
O O2 0.255566 0.225838 0.428390
O O3 0.277987 0.275431 0.322053
O O4 0.237791 0.195634 0.304735
O O5 0.500000 0.873807 0.133687
O O6 0.269947 0.923937 0.130344
O O7 0.256849 0.853236 0.067275
O O8 0.256926 0.854696 0.201378
O O9 0.000000 0.051046 0.903584
O O10 0.770215 0.000000 0.906968
O O11 0.792178 0.058909 0.000000
O O12 0.500000 0.224915 0.500000
O O13 0.331338 0.290278 0.500000
O O14 0.500000 0.643718 0.500000
O O15 0.500000 0.320648 0.270397
#
# Coordination Sequence:
#
# PCOD8288490 Si02
#       6
#    16  16  16   8   8  16
#     4   9  17  30  45  62  83 109 144 182 220 259
#     4  12  22  30  43  65  87 111 144 185 222 255
#     4   9  18  32  48  63  82 112 145 176 215 261
#     4   9  16  29  47  62  80 111 144 180 224 262
#     4  11  19  31  44  60  83 113 149 181 217 260
#     4  10  19  31  45  60  83 115 145 178 219 259
#
# _framework density 14.345485
#
# number of rings (size 3 to 8) (size 9 to 14) (size 15 to 20)
#    0.000    2.000    3.000    3.300    0.000    1.200 
#    0.000    1.500    0.000    0.000    0.000    0.000 
#    0.000    0.000    0.000    0.900    0.000   17.400 
#
# Total GULP energy -495911.499229 kJ/mol
# GULP energy per Si atom -12397.787481 kJ/mol
# Density = 1.431283 g / cm^3
# Si number density = 14.345485 Si / 1000 Ang^3
#
#
#
# Elastic Constant Matrix: (Units=GPa)
#
#
# Indices 1 2 3 4 5 6 
#
# 1 72.0074 37.2855 36.9072 0.0000 0.0000 0.0000
# 2 37.2855 74.5614 45.3796 -0.0001 0.0000 0.0000
# 3 36.9072 45.3796 105.5759 -0.0003 0.0000 0.0000
# 4 0.0000 -0.0001 -0.0003 30.6732 0.0000 0.0000
# 5 0.0000 0.0000 0.0000 0.0000 20.4668 0.0000
# 6 0.0000 0.0000 0.0000 0.0000 0.0000 20.0873
#
#
#
# Elastic Compliance Matrix: (Units=1/GPa)
#
#
# Indices 1 2 3 4 5 6 
#
# 1 0.019696 -0.007664 -0.003591 0.000000 0.000000 0.000000
# 2 -0.007664 0.021145 -0.006410 0.000000 0.000000 0.000000
# 3 -0.003591 -0.006410 0.013482 0.000000 0.000000 0.000000
# 4 0.000000 0.000000 0.000000 0.032602 0.000000 0.000000
# 5 0.000000 0.000000 0.000000 0.000000 0.048860 0.000000
# 6 0.000000 0.000000 0.000000 0.000000 0.000000 0.049783
#
#
# Mechanical properties :
#
#
# Convention : Reuss Voigt Hill
#
# Bulk Modulus (GPa) = 52.64706 54.58770 53.61738
# Shear Modulus (GPa) = 22.00420 23.08363 22.54391
#
# Velocity S-wave (km/s) = 3.92072 4.01574 3.96851
# Velocity P-wave (km/s) = 7.56803 7.72246 7.64563
#
# Compressibility (1/GPa) = 0.01899441
#
# Stress axis : x y z
#
# Youngs Moduli (GPa) = 50.77046 47.29204 74.17057
#
# Poissons Ratio (x) = 0.36243 0.26638
# Poissons Ratio (y) = 0.38909 0.47542
# Poissons Ratio (z) = 0.18234 0.30313
#
# Static dielectric constant tensor:
#      x y z
#    x 2.760370 0.000000 0.000000 
#    y 0.000000 2.747280 0.000000 
#    z 0.000000 0.000000 2.854320 
# 
# 
# High freq. dielectric constant tensor:
#      x y z
#    x 1.548500 0.000000 0.000000 
#    y 0.000000 1.524150 0.000000 
#    z 0.000000 0.000000 1.527230 
# 
# From -- ./inp_files/8671.got.cif
#   From: 2010.06.25/outbox.cif.g09.slc.cpg/sg71_5_cif.got.tgz:8671.got - 2010.06.28 04:59:45.
