data_PCOD8288755
_publ_section_title
;
Structure prediction by ZEFSAII (Michael W. Deem and Ramdas Pophale) SiO2 
 PCOD8288755
Probable space group: I M M M
;
_chemical_formula_sum "Si O2"
_cell_formula_units_Z 56
_cell_length_a 36.708468
_cell_length_b 10.429184
_cell_length_c 7.754380
_cell_angle_alpha 90.000000
_cell_angle_beta 90.000000
_cell_angle_gamma 90.000000
_cell_volume 2968.681932
_symmetry_space_group_name_H-M "I M M M"
_symmetry_group_IT_number 71
_symmetry_cell_setting 'orthorhombic'
loop_
_space_group_symop_operation_xyz
x,y,z
-x,-y,z
x,-y,-z
-x,y,-z
-x,-y,-z
x,y,-z
-x,y,z
x,-y,z
1/2+x,1/2+y,1/2+z
1/2-x,1/2-y,1/2+z
1/2+x,1/2-y,1/2-z
1/2-x,1/2+y,1/2-z
1/2-x,1/2-y,1/2-z
1/2+x,1/2+y,1/2-z
1/2-x,1/2+y,1/2+z
1/2+x,1/2-y,1/2+z
loop_
_atom_site_type_symbol
_atom_site_label
_atom_site_fract_x
_atom_site_fract_y
_atom_site_fract_z
Si Si1 0.797081 0.000000 0.697447
Si Si2 0.667994 0.241423 0.794605
Si Si3 0.091630 0.647950 0.805748
Si Si4 0.540565 0.847892 0.000000
Si Si5 0.214594 0.500000 0.703742
O O1 0.814270 0.128189 0.780500
O O2 0.808572 0.000000 0.500000
O O3 0.753914 0.000000 0.711383
O O4 0.628092 0.230193 0.713936
O O5 0.693159 0.124834 0.730340
O O6 0.664885 0.238797 0.000000
O O7 0.101048 0.500000 0.763837
O O8 0.061428 0.699619 0.671886
O O9 0.076317 0.663515 0.000000
O O10 0.500000 0.787819 0.000000
O O11 0.537813 0.000000 0.000000
O O12 0.219346 0.500000 0.500000
#
# Coordination Sequence:
#
# PCOD8288755 Si02
#       5
#     8  16  16   8   8
#     4  10  22  34  48  74 106 137 180 231 277 319
#     4  10  19  34  52  72 103 143 181 225 271 321
#     4  10  19  31  53  81 105 141 185 217 262 322
#     4   9  18  32  52  79 117 147 171 221 273 319
#     4  10  20  32  52  70  98 145 182 223 279 325
#
# _framework density 18.863591
#
# number of rings (size 3 to 8) (size 9 to 14) (size 15 to 20)
#    0.000    2.143    2.857    0.857    0.000    2.857 
#    0.000    2.857    0.000    0.000    0.000    2.000 
#    0.000    2.286    0.000    0.000    0.000    0.000 
#
# Total GULP energy -347221.098959 kJ/mol
# GULP energy per Si atom -12400.753534 kJ/mol
# Density = 1.882066 g / cm^3
# Si number density = 18.863591 Si / 1000 Ang^3
#
#
#
# Elastic Constant Matrix: (Units=GPa)
#
#
# Indices 1 2 3 4 5 6 
#
# 1 158.5863 53.5015 51.4790 0.0000 0.0000 0.0000
# 2 53.5015 114.8141 27.3140 0.0000 0.0000 0.0000
# 3 51.4790 27.3140 81.4720 0.0000 0.0000 0.0000
# 4 0.0000 0.0000 0.0000 5.4277 0.0000 0.0000
# 5 0.0000 0.0000 0.0000 0.0000 25.8886 0.0000
# 6 0.0000 0.0000 0.0000 0.0000 0.0000 2.6028
#
#
#
# Elastic Compliance Matrix: (Units=1/GPa)
#
#
# Indices 1 2 3 4 5 6 
#
# 1 0.008801 -0.003019 -0.004549 0.000000 0.000000 0.000000
# 2 -0.003019 0.010500 -0.001613 0.000000 0.000000 0.000000
# 3 -0.004549 -0.001613 0.015689 0.000000 0.000000 0.000000
# 4 0.000000 0.000000 0.000000 0.184239 0.000000 0.000000
# 5 0.000000 0.000000 0.000000 0.000000 0.038627 0.000000
# 6 0.000000 0.000000 0.000000 0.000000 0.000000 0.384202
#
#
# Mechanical properties :
#
#
# Convention : Reuss Voigt Hill
#
# Bulk Modulus (GPa) = 60.13522 68.82904 64.48213
# Shear Modulus (GPa) = 7.50794 21.62236 14.56515
#
# Velocity S-wave (km/s) = 1.99719 3.38930 2.78174
# Velocity P-wave (km/s) = 6.10463 7.20302 6.67645
#
# Compressibility (1/GPa) = 0.01662919
#
# Stress axis : x y z
#
# Youngs Moduli (GPa) = 113.62664 95.23677 63.73887
#
# Poissons Ratio (x) = 0.28751 0.28993
# Poissons Ratio (y) = 0.34302 0.10279
# Poissons Ratio (z) = 0.51686 0.15359
#
# Static dielectric constant tensor:
#      x y z
#    x 3.431480 0.000000 0.000000 
#    y 0.000000 3.453660 0.000000 
#    z 0.000000 0.000000 3.391740 
# 
# 
# High freq. dielectric constant tensor:
#      x y z
#    x 1.726910 0.000000 0.000000 
#    y 0.000000 1.700690 0.000000 
#    z 0.000000 0.000000 1.732690 
# 
# From -- ./inp_files/16104.got.cif
#   From: 2010.06.25/outbox.cif.g09.slc.cpg/sg71_9_cif.got.tgz:16104.got - 2010.06.28 04:59:45.
