data_PCOD8288725
_publ_section_title
;
Structure prediction by ZEFSAII (Michael W. Deem and Ramdas Pophale) SiO2 
 PCOD8288725
Probable space group: I M M M
;
_chemical_formula_sum "Si O2"
_cell_formula_units_Z 104
_cell_length_a 27.426633
_cell_length_b 18.442869
_cell_length_c 11.573388
_cell_angle_alpha 90.000000
_cell_angle_beta 90.000000
_cell_angle_gamma 90.000000
_cell_volume 5854.118238
_symmetry_space_group_name_H-M "I M M M"
_symmetry_group_IT_number 71
_symmetry_cell_setting 'orthorhombic'
loop_
_space_group_symop_operation_xyz
x,y,z
-x,-y,z
x,-y,-z
-x,y,-z
-x,-y,-z
x,y,-z
-x,y,z
x,-y,z
1/2+x,1/2+y,1/2+z
1/2-x,1/2-y,1/2+z
1/2+x,1/2-y,1/2-z
1/2-x,1/2+y,1/2-z
1/2-x,1/2-y,1/2-z
1/2+x,1/2+y,1/2-z
1/2-x,1/2+y,1/2+z
1/2+x,1/2-y,1/2+z
loop_
_atom_site_type_symbol
_atom_site_label
_atom_site_fract_x
_atom_site_fract_y
_atom_site_fract_z
Si Si1 0.590343 0.350834 0.267154
Si Si2 0.766248 0.086635 0.000000
Si Si3 0.000000 0.085764 0.368258
Si Si4 0.676901 0.583481 0.135340
Si Si5 0.869120 0.583105 0.133400
Si Si6 0.226099 0.414388 0.740851
Si Si7 0.376883 0.414841 0.500000
Si Si8 0.056375 0.294606 0.133745
O O1 0.547491 0.385241 0.193921
O O2 0.640383 0.362336 0.198827
O O3 0.592630 0.389770 0.390056
O O4 0.580973 0.265773 0.285548
O O5 0.737880 0.116312 0.112928
O O6 0.821664 0.117162 0.000000
O O7 0.767719 0.000000 0.000000
O O8 0.000000 0.113390 0.500000
O O9 0.000000 0.000000 0.363064
O O10 0.666614 0.500000 0.173637
O O11 0.730975 0.607608 0.171421
O O12 0.670415 0.592534 0.000000
O O13 0.881104 0.500000 0.165713
O O14 0.824957 0.615908 0.210368
O O15 0.917407 0.629209 0.159421
O O16 0.853138 0.589320 0.000000
O O17 0.221647 0.500000 0.736035
O O18 0.373281 0.500000 0.500000
O O19 0.000000 0.303963 0.166831
O O20 0.062529 0.271987 0.000000
#
# Coordination Sequence:
#
# PCOD8288725 Si02
#       8
#    16   8   8  16  16  16   8  16
#     4  12  21  35  53  75 111 147 185 225 270 318
#     4   9  16  28  49  78 112 145 175 214 264 313
#     4  11  24  39  55  77 106 144 194 242 273 304
#     4  10  19  31  51  78 110 148 187 225 265 310
#     4   9  18  34  59  86 108 133 173 220 268 331
#     4   9  16  29  52  81 110 139 174 220 269 320
#     4  11  20  31  52  81 109 145 190 227 256 306
#     4  10  21  38  56  78 108 143 175 220 283 327
#
# _framework density 17.765272
#
# number of rings (size 3 to 8) (size 9 to 14) (size 15 to 20)
#    0.000    1.923    3.077    2.308    0.000    3.692 
#    0.000    3.077    3.385    0.000    0.000    0.000 
#    0.000    3.692    0.000    0.000    0.000    0.000 
#
# Total GULP energy -644822.652823 kJ/mol
# GULP energy per Si atom -12400.435631 kJ/mol
# Density = 1.772484 g / cm^3
# Si number density = 17.765272 Si / 1000 Ang^3
#
#
#
# Elastic Constant Matrix: (Units=GPa)
#
#
# Indices 1 2 3 4 5 6 
#
# 1 120.8545 59.3980 52.1987 0.0000 0.0000 0.0000
# 2 59.3980 71.5249 41.7661 0.0000 0.0000 0.0000
# 3 52.1987 41.7661 104.8964 0.0000 0.0000 0.0000
# 4 0.0000 0.0000 0.0000 16.7690 0.0000 0.0000
# 5 0.0000 0.0000 0.0000 0.0000 44.8147 0.0000
# 6 0.0000 0.0000 0.0000 0.0000 0.0000 56.6476
#
#
#
# Elastic Compliance Matrix: (Units=1/GPa)
#
#
# Indices 1 2 3 4 5 6 
#
# 1 0.014767 -0.010388 -0.003213 0.000000 0.000000 0.000000
# 2 -0.010388 0.025523 -0.004993 0.000000 0.000000 0.000000
# 3 -0.003213 -0.004993 0.013120 0.000000 0.000000 0.000000
# 4 0.000000 0.000000 0.000000 0.059634 0.000000 0.000000
# 5 0.000000 0.000000 0.000000 0.000000 0.022314 0.000000
# 6 0.000000 0.000000 0.000000 0.000000 0.000000 0.017653
#
#
# Mechanical properties :
#
#
# Convention : Reuss Voigt Hill
#
# Bulk Modulus (GPa) = 61.63861 67.11125 64.37493
# Shear Modulus (GPa) = 25.56149 33.24046 29.40097
#
# Velocity S-wave (km/s) = 3.79733 4.33030 4.07254
# Velocity P-wave (km/s) = 7.34831 7.92847 7.64390
#
# Compressibility (1/GPa) = 0.01622360
#
# Stress axis : x y z
#
# Youngs Moduli (GPa) = 67.71722 39.17973 76.21920
#
# Poissons Ratio (x) = 0.40698 0.24486
# Poissons Ratio (y) = 0.70342 0.38060
# Poissons Ratio (z) = 0.21754 0.19564
#
# Static dielectric constant tensor:
#      x y z
#    x 3.381150 0.000000 0.000000 
#    y 0.000000 3.014440 0.000000 
#    z 0.000000 0.000000 3.458520 
# 
# 
# High freq. dielectric constant tensor:
#      x y z
#    x 1.693570 0.000000 0.000000 
#    y 0.000000 1.653240 0.000000 
#    z 0.000000 0.000000 1.689810 
# 
# From -- ./inp_files/30228.got.cif
#   From: 2010.06.25/outbox.cif.g09.slc.cpg/sg71_16_cif.got.tgz:30228.got - 2010.06.28 04:59:45.
