data_PCOD8288511
_publ_section_title
;
Structure prediction by ZEFSAII (Michael W. Deem and Ramdas Pophale) SiO2 
 PCOD8288511
Probable space group: I M M M
;
_chemical_formula_sum "Si O2"
_cell_formula_units_Z 88
_cell_length_a 15.595713
_cell_length_b 22.245568
_cell_length_c 14.463482
_cell_angle_alpha 90.000000
_cell_angle_beta 90.000000
_cell_angle_gamma 90.000000
_cell_volume 5017.895273
_symmetry_space_group_name_H-M "I M M M"
_symmetry_group_IT_number 71
_symmetry_cell_setting 'orthorhombic'
loop_
_space_group_symop_operation_xyz
x,y,z
-x,-y,z
x,-y,-z
-x,y,-z
-x,-y,-z
x,y,-z
-x,y,z
x,-y,z
1/2+x,1/2+y,1/2+z
1/2-x,1/2-y,1/2+z
1/2+x,1/2-y,1/2-z
1/2-x,1/2+y,1/2-z
1/2-x,1/2-y,1/2-z
1/2+x,1/2+y,1/2-z
1/2-x,1/2+y,1/2+z
1/2+x,1/2-y,1/2+z
loop_
_atom_site_type_symbol
_atom_site_label
_atom_site_fract_x
_atom_site_fract_y
_atom_site_fract_z
Si Si1 0.598510 0.137314 0.391718
Si Si2 0.297447 0.384955 0.392182
Si Si3 0.907973 0.000000 0.107667
Si Si4 0.595751 0.428629 0.104729
Si Si5 0.738686 0.928931 0.282942
Si Si6 0.406166 0.270570 0.391086
O O1 0.612911 0.130616 0.500000
O O2 0.500000 0.124518 0.365358
O O3 0.657415 0.087970 0.344066
O O4 0.624761 0.204679 0.357800
O O5 0.267793 0.388037 0.500000
O O6 0.361279 0.438982 0.364508
O O7 0.222468 0.396805 0.317688
O O8 0.338531 0.321510 0.364770
O O9 0.000000 0.000000 0.158978
O O10 0.922675 0.000000 0.000000
O O11 0.500000 0.406590 0.136360
O O12 0.598265 0.500000 0.106273
O O13 0.672335 0.404488 0.170711
O O14 0.613258 0.405790 0.000000
O O15 0.740860 0.000000 0.270573
O O16 0.417180 0.268879 0.500000
O O17 0.500000 0.285641 0.348269
#
# Coordination Sequence:
#
# PCOD8288511 Si02
#       6
#    16  16   8  16  16  16
#     4   9  19  36  56  76  97 122 162 220 273 307
#     4  10  19  31  46  69 102 137 165 198 244 293
#     4   9  16  26  42  66  96 129 162 194 232 281
#     4   8  15  28  43  61  91 129 162 193 235 293
#     4  11  21  31  47  74 101 133 170 208 249 301
#     4   8  15  30  51  73  98 130 167 208 254 300
#
# _framework density 17.537234000000002
#
# number of rings (size 3 to 8) (size 9 to 14) (size 15 to 20)
#    0.000    2.818    0.909    2.727    0.000    5.818 
#    0.000    0.909    0.000    0.545    0.000    1.273 
#    0.000    1.455    0.000    0.000    0.000    0.000 
#
# Total GULP energy -545077.551063 kJ/mol
# GULP energy per Si atom -12388.126161 kJ/mol
# Density = 1.749732 g / cm^3
# Si number density = 17.537234 Si / 1000 Ang^3
#
#
#
# Elastic Constant Matrix: (Units=GPa)
#
#
# Indices 1 2 3 4 5 6 
#
# 1 77.6622 28.8612 48.5677 0.0000 0.0000 0.0000
# 2 28.8612 46.9384 30.9425 -0.0001 0.0000 0.0000
# 3 48.5677 30.9425 78.2460 -0.0003 -0.0001 0.0000
# 4 0.0000 -0.0001 -0.0003 19.7340 0.0000 0.0000
# 5 0.0000 0.0000 -0.0001 0.0000 16.8842 0.0000
# 6 0.0000 0.0000 0.0000 0.0000 0.0000 13.6714
#
#
#
# Elastic Compliance Matrix: (Units=1/GPa)
#
#
# Indices 1 2 3 4 5 6 
#
# 1 0.022307 -0.006206 -0.011392 0.000000 0.000000 0.000000
# 2 -0.006206 0.030543 -0.008226 0.000000 0.000000 0.000000
# 3 -0.011392 -0.008226 0.023104 0.000000 0.000000 0.000000
# 4 0.000000 0.000000 0.000000 0.050674 0.000000 0.000000
# 5 0.000000 0.000000 0.000000 0.000000 0.059227 0.000000
# 6 0.000000 0.000000 0.000000 0.000000 0.000000 0.073145
#
#
# Mechanical properties :
#
#
# Convention : Reuss Voigt Hill
#
# Bulk Modulus (GPa) = 41.14194 46.62103 43.88148
# Shear Modulus (GPa) = 15.68627 16.35629 16.02128
#
# Velocity S-wave (km/s) = 2.99399 3.05726 3.02579
# Velocity P-wave (km/s) = 5.95505 6.25334 6.10602
#
# Compressibility (1/GPa) = 0.02430610
#
# Stress axis : x y z
#
# Youngs Moduli (GPa) = 44.82975 32.74034 43.28243
#
# Poissons Ratio (x) = 0.20319 0.49305
# Poissons Ratio (y) = 0.27822 0.35605
# Poissons Ratio (z) = 0.51068 0.26933
#
# Static dielectric constant tensor:
#      x y z
#    x 3.192140 0.000000 0.000000 
#    y 0.000000 3.124430 0.000000 
#    z 0.000000 0.000000 3.265820 
# 
# 
# High freq. dielectric constant tensor:
#      x y z
#    x 1.649720 0.000000 0.000000 
#    y 0.000000 1.663270 0.000000 
#    z 0.000000 0.000000 1.668730 
# 
# From -- ./inp_files/34664.got.cif
#   From: 2010.06.25/outbox.cif.g09.slc.cpg/sg71_18_cif.got.tgz:34664.got - 2010.06.28 04:59:45.
