data_PCOD8288208
_publ_section_title
;
Structure prediction by ZEFSAII (Michael W. Deem and Ramdas Pophale) SiO2 
 PCOD8288208
Probable space group: I M M M
;
_chemical_formula_sum "Si O2"
_cell_formula_units_Z 72
_cell_length_a 19.299782
_cell_length_b 9.202554
_cell_length_c 22.061016
_cell_angle_alpha 90.000000
_cell_angle_beta 90.000000
_cell_angle_gamma 90.000000
_cell_volume 3918.197179
_symmetry_space_group_name_H-M "I M M M"
_symmetry_group_IT_number 71
_symmetry_cell_setting 'orthorhombic'
loop_
_space_group_symop_operation_xyz
x,y,z
-x,-y,z
x,-y,-z
-x,y,-z
-x,-y,-z
x,y,-z
-x,y,z
x,-y,z
1/2+x,1/2+y,1/2+z
1/2-x,1/2-y,1/2+z
1/2+x,1/2-y,1/2-z
1/2-x,1/2+y,1/2-z
1/2-x,1/2-y,1/2-z
1/2+x,1/2+y,1/2-z
1/2-x,1/2+y,1/2+z
1/2+x,1/2-y,1/2+z
loop_
_atom_site_type_symbol
_atom_site_label
_atom_site_fract_x
_atom_site_fract_y
_atom_site_fract_z
Si Si1 0.500000 0.166828 0.768639
Si Si2 0.000000 0.155636 0.432115
Si Si3 0.000000 0.827997 0.855732
Si Si4 0.389296 0.169605 0.870124
Si Si5 0.773329 0.168498 0.569455
Si Si6 0.887320 0.333903 0.069724
O O1 0.500000 0.274983 0.713060
O O2 0.429578 0.198474 0.806851
O O3 0.500000 0.000000 0.746669
O O4 0.932625 0.251802 0.421786
O O5 0.000000 0.107770 0.500000
O O6 0.000000 0.000000 0.395353
O O7 0.068790 0.772213 0.888497
O O8 0.000000 0.000000 0.856623
O O9 0.313114 0.239460 0.878295
O O10 0.384479 0.000000 0.883324
O O11 0.789566 0.218330 0.500000
O O12 0.692891 0.193890 0.583470
O O13 0.793184 0.000000 0.576738
O O14 0.907169 0.500000 0.084819
O O15 0.904634 0.299845 0.000000
#
# Coordination Sequence:
#
# PCOD8288208 Si02
#       6
#     8   8   8  16  16  16
#     4   9  21  40  55  70 100 144 188 221 256 312
#     4  10  19  29  44  68  99 138 180 217 257 311
#     4  12  24  36  56  84 107 131 172 226 275 312
#     4  10  20  33  51  75 103 137 177 223 268 305
#     4   9  18  33  54  81 111 143 177 210 253 316
#     4   9  19  37  60  83 109 143 175 203 251 322
#
# _framework density 18.375796999999999
#
# number of rings (size 3 to 8) (size 9 to 14) (size 15 to 20)
#    0.000    2.333    0.000    5.000    0.000    9.333 
#    0.000    3.333    0.000    0.000    0.000    0.000 
#    0.000    0.000    0.000    0.000    0.000    0.000 
#
# Total GULP energy -446166.648846 kJ/mol
# GULP energy per Si atom -12393.518023 kJ/mol
# Density = 1.833397 g / cm^3
# Si number density = 18.375797 Si / 1000 Ang^3
#
#
#
# Elastic Constant Matrix: (Units=GPa)
#
#
# Indices 1 2 3 4 5 6 
#
# 1 107.4418 72.8427 58.7991 0.0000 0.0000 0.0000
# 2 72.8427 144.0223 75.2014 0.0000 0.0000 0.0000
# 3 58.7991 75.2014 95.2822 0.0000 0.0000 0.0000
# 4 0.0000 0.0000 0.0000 28.9106 0.0000 0.0000
# 5 0.0000 0.0000 0.0000 0.0000 41.8672 0.0000
# 6 0.0000 0.0000 0.0000 0.0000 0.0000 37.2867
#
#
#
# Elastic Compliance Matrix: (Units=1/GPa)
#
#
# Indices 1 2 3 4 5 6 
#
# 1 0.015898 -0.004964 -0.005893 0.000000 0.000000 0.000000
# 2 -0.004964 0.013360 -0.007482 0.000000 0.000000 0.000000
# 3 -0.005893 -0.007482 0.020037 0.000000 0.000000 0.000000
# 4 0.000000 0.000000 0.000000 0.034589 0.000000 0.000000
# 5 0.000000 0.000000 0.000000 0.000000 0.023885 0.000000
# 6 0.000000 0.000000 0.000000 0.000000 0.000000 0.026819
#
#
# Mechanical properties :
#
#
# Convention : Reuss Voigt Hill
#
# Bulk Modulus (GPa) = 79.25063 84.49254 81.87159
# Shear Modulus (GPa) = 28.49484 30.93978 29.71731
#
# Velocity S-wave (km/s) = 3.94213 4.10777 4.02580
# Velocity P-wave (km/s) = 7.99637 8.28122 8.14004
#
# Compressibility (1/GPa) = 0.01261820
#
# Stress axis : x y z
#
# Youngs Moduli (GPa) = 62.90281 74.84846 49.90872
#
# Poissons Ratio (x) = 0.37151 0.29411
# Poissons Ratio (y) = 0.31222 0.37340
# Poissons Ratio (z) = 0.37069 0.55999
#
# Static dielectric constant tensor:
#      x y z
#    x 3.855870 0.000000 0.000000 
#    y 0.000000 3.353730 0.000000 
#    z 0.000000 0.000000 3.155200 
# 
# 
# High freq. dielectric constant tensor:
#      x y z
#    x 1.719650 0.000000 0.000000 
#    y 0.000000 1.717400 0.000000 
#    z 0.000000 0.000000 1.687790 
# 
# From -- ./inp_files/50348.got.cif
#   From: 2010.06.25/outbox.cif.g09.slc.cpg/sg71_26_cif.got.tgz:50348.got - 2010.06.28 04:59:45.
