data_PCOD8288479
_publ_section_title
;
Structure prediction by ZEFSAII (Michael W. Deem and Ramdas Pophale) SiO2 
 PCOD8288479
Probable space group: I M M M
;
_chemical_formula_sum "Si O2"
_cell_formula_units_Z 104
_cell_length_a 13.310255
_cell_length_b 27.024535
_cell_length_c 17.250271
_cell_angle_alpha 90.000000
_cell_angle_beta 90.000000
_cell_angle_gamma 90.000000
_cell_volume 6204.982028
_symmetry_space_group_name_H-M "I M M M"
_symmetry_group_IT_number 71
_symmetry_cell_setting 'orthorhombic'
loop_
_space_group_symop_operation_xyz
x,y,z
-x,-y,z
x,-y,-z
-x,y,-z
-x,-y,-z
x,y,-z
-x,y,z
x,-y,z
1/2+x,1/2+y,1/2+z
1/2-x,1/2-y,1/2+z
1/2+x,1/2-y,1/2-z
1/2-x,1/2+y,1/2-z
1/2-x,1/2-y,1/2-z
1/2+x,1/2+y,1/2-z
1/2-x,1/2+y,1/2+z
1/2+x,1/2-y,1/2+z
loop_
_atom_site_type_symbol
_atom_site_label
_atom_site_fract_x
_atom_site_fract_y
_atom_site_fract_z
Si Si1 0.276007 0.694865 0.654849
Si Si2 0.881124 0.137093 0.585597
Si Si3 0.882878 0.500000 0.408721
Si Si4 0.889611 0.918215 0.000000
Si Si5 0.385590 0.556134 0.796424
Si Si6 0.886697 0.800937 0.000000
Si Si7 0.117548 0.225111 0.694210
Si Si8 0.237639 0.079635 0.145364
O O1 0.325676 0.716296 0.576268
O O2 0.176036 0.724230 0.678434
O O3 0.358321 0.700903 0.722507
O O4 0.241836 0.638209 0.644436
O O5 0.831999 0.135937 0.500000
O O6 0.843838 0.089529 0.633495
O O7 0.846870 0.186823 0.628605
O O8 0.000000 0.135831 0.578768
O O9 0.858521 0.500000 0.500000
O O10 0.840315 0.450452 0.367612
O O11 0.000000 0.500000 0.392413
O O12 0.834960 0.937477 0.923622
O O13 0.895268 0.859451 0.000000
O O14 0.000000 0.941624 0.000000
O O15 0.500000 0.571635 0.773943
O O16 0.381899 0.500000 0.825705
O O17 0.313624 0.563361 0.724276
O O18 0.000000 0.778195 0.000000
O O19 0.000000 0.236885 0.690147
#
# Coordination Sequence:
#
# PCOD8288479 Si02
#       8
#    16  16   8   8  16   8  16  16
#     4  10  21  33  54  79 103 138 179 220 266 316
#     4   9  18  32  50  73 105 141 166 197 252 314
#     4  11  24  40  54  70 101 146 187 223 260 295
#     4   9  18  29  48  75 102 132 164 211 263 313
#     4  10  19  30  50  79 108 134 162 207 261 314
#     4   9  18  32  50  74 105 138 174 215 265 316
#     4  10  20  35  53  77 108 140 175 218 263 313
#     4  11  19  35  52  73 103 135 179 217 256 310
#
# _framework density 16.760725000000001
#
# number of rings (size 3 to 8) (size 9 to 14) (size 15 to 20)
#    0.000    2.077    3.077    0.923    1.077    2.154 
#    0.000    1.923    0.000    0.000    0.000    0.000 
#    0.000    0.615    0.000    0.000    0.000    0.000 
#
# Total GULP energy -644794.990574 kJ/mol
# GULP energy per Si atom -12399.903665 kJ/mol
# Density = 1.672258 g / cm^3
# Si number density = 16.760725 Si / 1000 Ang^3
#
#
#
# Elastic Constant Matrix: (Units=GPa)
#
#
# Indices 1 2 3 4 5 6 
#
# 1 83.9926 41.9436 44.4803 0.0000 0.0000 0.0000
# 2 41.9436 90.3732 38.7273 0.0000 0.0000 0.0000
# 3 44.4803 38.7273 134.8947 0.0002 0.0000 0.0000
# 4 0.0000 0.0000 0.0002 -40.0374 -0.0001 -0.0001
# 5 0.0000 0.0000 0.0000 -0.0001 17.1385 0.0000
# 6 0.0000 0.0000 0.0000 -0.0001 0.0000 18.7314
#
#
#
# Elastic Compliance Matrix: (Units=1/GPa)
#
#
# Indices 1 2 3 4 5 6 
#
# 1 0.017069 -0.006283 -0.003824 0.000000 0.000000 0.000000
# 2 -0.006283 0.014930 -0.002215 0.000000 0.000000 0.000000
# 3 -0.003824 -0.002215 0.009310 0.000000 0.000000 0.000000
# 4 0.000000 0.000000 0.000000 -0.024977 0.000000 0.000000
# 5 0.000000 0.000000 0.000000 0.000000 0.058348 0.000000
# 6 0.000000 0.000000 0.000000 0.000000 0.000000 0.053386
#
#
# Mechanical properties :
#
#
# Convention : Reuss Voigt Hill
#
# Bulk Modulus (GPa) = 60.00619 62.17367 61.08993
# Shear Modulus (GPa) = 31.59243 11.44045 21.51644
#
# Velocity S-wave (km/s) = 4.34626 2.61545 3.58682
# Velocity P-wave (km/s) = 7.81448 6.80413 7.32674
#
# Compressibility (1/GPa) = 0.01666495
#
# Stress axis : x y z
#
# Youngs Moduli (GPa) = 58.58680 66.97800 107.41058
#
# Poissons Ratio (x) = 0.42082 0.41079
# Poissons Ratio (y) = 0.36810 0.23787
# Poissons Ratio (z) = 0.22406 0.14833
#
# Static dielectric constant tensor:
#      x y z
#    x 2.906730 0.000000 0.000000 
#    y 0.000000 3.139200 0.000000 
#    z 0.000000 0.000000 3.412610 
# 
# 
# High freq. dielectric constant tensor:
#      x y z
#    x 1.618050 0.000000 0.000000 
#    y 0.000000 1.645440 0.000000 
#    z 0.000000 0.000000 1.655740 
# 
# From -- ./inp_files/43840.got.cif
#   From: 2010.06.25/outbox.cif.g09.slc.cpg/sg71_22_cif.got.tgz:43840.got - 2010.06.28 04:59:45.
