data_PCOD8288907
_publ_section_title
;
Structure prediction by ZEFSAII (Michael W. Deem and Ramdas Pophale) SiO2 
 PCOD8288907
Probable space group: I M M M
;
_chemical_formula_sum "Si O2"
_cell_formula_units_Z 88
_cell_length_a 28.222529
_cell_length_b 13.949105
_cell_length_c 11.614999
_cell_angle_alpha 90.000000
_cell_angle_beta 90.000000
_cell_angle_gamma 90.000000
_cell_volume 4572.581428
_symmetry_space_group_name_H-M "I M M M"
_symmetry_group_IT_number 71
_symmetry_cell_setting 'orthorhombic'
loop_
_space_group_symop_operation_xyz
x,y,z
-x,-y,z
x,-y,-z
-x,y,-z
-x,-y,-z
x,y,-z
-x,y,z
x,-y,z
1/2+x,1/2+y,1/2+z
1/2-x,1/2-y,1/2+z
1/2+x,1/2-y,1/2-z
1/2-x,1/2+y,1/2-z
1/2-x,1/2-y,1/2-z
1/2+x,1/2+y,1/2-z
1/2-x,1/2+y,1/2+z
1/2+x,1/2-y,1/2+z
loop_
_atom_site_type_symbol
_atom_site_label
_atom_site_fract_x
_atom_site_fract_y
_atom_site_fract_z
Si Si1 0.306952 0.886158 0.000000
Si Si2 0.202701 0.112126 0.000000
Si Si3 0.856978 0.111614 0.220342
Si Si4 0.323693 0.113341 0.251803
Si Si5 0.771185 0.113752 0.628088
Si Si6 0.000000 0.391713 0.136722
Si Si7 0.907823 0.721220 0.136003
O O1 0.254408 0.839598 0.000000
O O2 0.332553 0.853440 0.881309
O O3 0.303314 0.000000 0.000000
O O4 0.173623 0.142512 0.110689
O O5 0.210915 0.000000 0.000000
O O6 0.823559 0.142559 0.326557
O O7 0.903699 0.178544 0.208581
O O8 0.872088 0.000000 0.223257
O O9 0.271626 0.150493 0.291013
O O10 0.362298 0.156862 0.336787
O O11 0.327262 0.000000 0.264098
O O12 0.765731 0.156409 0.500000
O O13 0.768737 0.000000 0.627015
O O14 0.045957 0.334598 0.181211
O O15 0.000000 0.500000 0.187716
O O16 0.000000 0.397690 0.000000
O O17 0.911390 0.741517 0.000000
#
# Coordination Sequence:
#
# PCOD8288907 Si02
#       7
#     8   8  16  16  16   8  16
#     4   9  16  30  50  73 106 147 184 215 258 310
#     4   9  14  28  50  67  99 149 183 205 245 300
#     4  10  19  33  52  75 108 146 178 212 254 306
#     4  10  19  32  51  76 108 143 180 223 263 308
#     4   9  17  30  48  74 111 149 180 215 259 303
#     4   9  20  40  61  80 106 133 161 212 276 327
#     4  11  22  35  55  81 102 132 179 220 266 324
#
# _framework density 19.245146999999999
#
# number of rings (size 3 to 8) (size 9 to 14) (size 15 to 20)
#    0.000    2.273    2.727    1.091    0.000    2.545 
#    1.636    0.455    0.000    2.182    0.000    2.545 
#    0.000    2.909    0.000    0.000    0.000    0.000 
#
# Total GULP energy -545292.691221 kJ/mol
# GULP energy per Si atom -12393.015710 kJ/mol
# Density = 1.920134 g / cm^3
# Si number density = 19.245147 Si / 1000 Ang^3
#
#
#
# Elastic Constant Matrix: (Units=GPa)
#
#
# Indices 1 2 3 4 5 6 
#
# 1 101.4859 59.6145 19.8432 0.0000 0.0000 0.0000
# 2 59.6145 93.4506 20.0216 0.0000 0.0000 0.0000
# 3 19.8432 20.0216 86.4904 0.0000 0.0000 0.0000
# 4 0.0000 0.0000 0.0000 18.3699 0.0000 0.0000
# 5 0.0000 0.0000 0.0000 0.0000 18.9934 0.0000
# 6 0.0000 0.0000 0.0000 0.0000 0.0000 31.5962
#
#
#
# Elastic Compliance Matrix: (Units=1/GPa)
#
#
# Indices 1 2 3 4 5 6 
#
# 1 0.015911 -0.009857 -0.001369 0.000000 0.000000 0.000000
# 2 -0.009857 0.017366 -0.001758 0.000000 0.000000 0.000000
# 3 -0.001369 -0.001758 0.012283 0.000000 0.000000 0.000000
# 4 0.000000 0.000000 0.000000 0.054437 0.000000 0.000000
# 5 0.000000 0.000000 0.000000 0.000000 0.052650 0.000000
# 6 0.000000 0.000000 0.000000 0.000000 0.000000 0.031649
#
#
# Mechanical properties :
#
#
# Convention : Reuss Voigt Hill
#
# Bulk Modulus (GPa) = 51.04216 53.37616 52.20916
# Shear Modulus (GPa) = 23.06324 25.92175 24.49250
#
# Velocity S-wave (km/s) = 3.46554 3.67403 3.57130
# Velocity P-wave (km/s) = 6.52633 6.76706 6.64778
#
# Compressibility (1/GPa) = 0.01959165
#
# Stress axis : x y z
#
# Youngs Moduli (GPa) = 62.84802 57.58496 81.41295
#
# Poissons Ratio (x) = 0.56762 0.11143
# Poissons Ratio (y) = 0.61950 0.14316
# Poissons Ratio (z) = 0.08602 0.10126
#
# Static dielectric constant tensor:
#      x y z
#    x 3.338830 0.000000 0.000000 
#    y 0.000000 3.634840 0.000000 
#    z 0.000000 0.000000 3.653220 
# 
# 
# High freq. dielectric constant tensor:
#      x y z
#    x 1.702110 0.000000 0.000000 
#    y 0.000000 1.761220 0.000000 
#    z 0.000000 0.000000 1.737770 
# 
# From -- ./inp_files/28638.got.cif
#   From: 2010.06.25/outbox.cif.g09.slc.cpg/sg71_15_cif.got.tgz:28638.got - 2010.06.28 04:59:45.
