data_PCOD8288679
_publ_section_title
;
Structure prediction by ZEFSAII (Michael W. Deem and Ramdas Pophale) SiO2 
 PCOD8288679
Probable space group: I M M M
;
_chemical_formula_sum "Si O2"
_cell_formula_units_Z 88
_cell_length_a 9.004103
_cell_length_b 27.513364
_cell_length_c 19.696668
_cell_angle_alpha 90.000000
_cell_angle_beta 90.000000
_cell_angle_gamma 90.000000
_cell_volume 4879.517871
_symmetry_space_group_name_H-M "I M M M"
_symmetry_group_IT_number 71
_symmetry_cell_setting 'orthorhombic'
loop_
_space_group_symop_operation_xyz
x,y,z
-x,-y,z
x,-y,-z
-x,y,-z
-x,-y,-z
x,y,-z
-x,y,z
x,-y,z
1/2+x,1/2+y,1/2+z
1/2-x,1/2-y,1/2+z
1/2+x,1/2-y,1/2-z
1/2-x,1/2+y,1/2-z
1/2-x,1/2-y,1/2-z
1/2+x,1/2+y,1/2-z
1/2-x,1/2+y,1/2+z
1/2+x,1/2-y,1/2+z
loop_
_atom_site_type_symbol
_atom_site_label
_atom_site_fract_x
_atom_site_fract_y
_atom_site_fract_z
Si Si1 0.325598 0.421487 0.169502
Si Si2 0.326841 0.315238 0.199724
Si Si3 0.326436 0.789274 0.835097
Si Si4 0.675484 0.125673 0.074528
Si Si5 0.330144 0.944587 0.191194
Si Si6 0.673748 0.000000 0.420468
O O1 0.500000 0.432044 0.164487
O O2 0.288689 0.364234 0.158142
O O3 0.270596 0.437966 0.242991
O O4 0.243719 0.451453 0.111090
O O5 0.500000 0.313080 0.215743
O O6 0.275440 0.267144 0.157727
O O7 0.246510 0.316472 0.271721
O O8 0.500000 0.792090 0.821502
O O9 0.282793 0.819329 0.902356
O O10 0.500000 0.119280 0.069693
O O11 0.736863 0.087200 0.129368
O O12 0.746670 0.116802 0.000000
O O13 0.500000 0.929209 0.208323
O O14 0.323521 0.000000 0.166939
O O15 0.500000 0.000000 0.404071
O O16 0.707468 0.000000 0.500000
#
# Coordination Sequence:
#
# PCOD8288679 Si02
#       6
#    16  16  16  16  16   8
#     4  11  21  34  55  82 110 138 171 216 268 321
#     4   9  18  30  48  77 106 132 170 219 267 311
#     4   9  16  29  49  73 102 137 178 220 262 307
#     4   9  17  29  47  73 105 141 181 223 263 304
#     4  10  19  31  50  76 104 137 179 221 263 311
#     4  11  25  43  61  81 106 137 174 215 263 322
#
# _framework density 18.034569000000001
#
# number of rings (size 3 to 8) (size 9 to 14) (size 15 to 20)
#    0.000    2.273    2.727    0.818    0.000    1.818 
#    0.000    2.727    0.000    5.455    0.000    1.273 
#    0.000    0.000    0.000    0.000    0.000    0.000 
#
# Total GULP energy -545410.190814 kJ/mol
# GULP energy per Si atom -12395.686155 kJ/mol
# Density = 1.799352 g / cm^3
# Si number density = 18.034569 Si / 1000 Ang^3
#
#
#
# Elastic Constant Matrix: (Units=GPa)
#
#
# Indices 1 2 3 4 5 6 
#
# 1 51.9232 41.3575 40.8724 0.0000 0.0000 0.0000
# 2 41.3575 136.9016 68.3142 0.0001 0.0000 0.0000
# 3 40.8724 68.3142 122.9752 0.0003 0.0000 0.0000
# 4 0.0000 0.0001 0.0003 23.9094 0.0000 0.0000
# 5 0.0000 0.0000 0.0000 0.0000 14.0277 0.0000
# 6 0.0000 0.0000 0.0000 0.0000 0.0000 21.5180
#
#
#
# Elastic Compliance Matrix: (Units=1/GPa)
#
#
# Indices 1 2 3 4 5 6 
#
# 1 0.028717 -0.005413 -0.006537 0.000000 0.000000 0.000000
# 2 -0.005413 0.011126 -0.004382 0.000000 0.000000 0.000000
# 3 -0.006537 -0.004382 0.012739 0.000000 0.000000 0.000000
# 4 0.000000 0.000000 0.000000 0.041824 0.000000 0.000000
# 5 0.000000 0.000000 0.000000 0.000000 0.071287 0.000000
# 6 0.000000 0.000000 0.000000 0.000000 0.000000 0.046473
#
#
# Mechanical properties :
#
#
# Convention : Reuss Voigt Hill
#
# Bulk Modulus (GPa) = 50.20735 68.09870 59.15302
# Shear Modulus (GPa) = 19.88312 22.64143 21.26228
#
# Velocity S-wave (km/s) = 3.32399 3.54707 3.43734
# Velocity P-wave (km/s) = 6.52931 7.39038 6.97315
#
# Compressibility (1/GPa) = 0.01991740
#
# Stress axis : x y z
#
# Youngs Moduli (GPa) = 34.82280 89.87752 78.50184
#
# Poissons Ratio (x) = 0.48652 0.51319
# Poissons Ratio (y) = 0.18850 0.34397
# Poissons Ratio (z) = 0.22765 0.39381
#
# Static dielectric constant tensor:
#      x y z
#    x 3.196150 0.000000 0.000000 
#    y 0.000000 3.850250 0.000000 
#    z 0.000000 0.000000 3.309750 
# 
# 
# High freq. dielectric constant tensor:
#      x y z
#    x 1.678410 0.000000 0.000000 
#    y 0.000000 1.720300 0.000000 
#    z 0.000000 0.000000 1.672530 
# 
# From -- ./inp_files/42433.got.cif
#   From: 2010.06.25/outbox.cif.g09.slc.cpg/sg71_22_cif.got.tgz:42433.got - 2010.06.28 04:59:45.
