data_PCOD8288996
_publ_section_title
;
Structure prediction by ZEFSAII (Michael W. Deem and Ramdas Pophale) SiO2 
 PCOD8288996
Probable space group: I M M M
;
_chemical_formula_sum "Si O2"
_cell_formula_units_Z 104
_cell_length_a 17.286277
_cell_length_b 13.606579
_cell_length_c 23.058042
_cell_angle_alpha 90.000000
_cell_angle_beta 90.000000
_cell_angle_gamma 90.000000
_cell_volume 5423.415043
_symmetry_space_group_name_H-M "I M M M"
_symmetry_group_IT_number 71
_symmetry_cell_setting 'orthorhombic'
loop_
_space_group_symop_operation_xyz
x,y,z
-x,-y,z
x,-y,-z
-x,y,-z
-x,-y,-z
x,y,-z
-x,y,z
x,-y,z
1/2+x,1/2+y,1/2+z
1/2-x,1/2-y,1/2+z
1/2+x,1/2-y,1/2-z
1/2-x,1/2+y,1/2-z
1/2-x,1/2-y,1/2-z
1/2+x,1/2+y,1/2-z
1/2-x,1/2+y,1/2+z
1/2+x,1/2-y,1/2+z
loop_
_atom_site_type_symbol
_atom_site_label
_atom_site_fract_x
_atom_site_fract_y
_atom_site_fract_z
Si Si1 0.339360 0.773283 0.745458
Si Si2 0.592172 0.803299 0.131390
Si Si3 0.091826 0.109199 0.434474
Si Si4 0.909624 0.780689 0.936446
Si Si5 0.908154 0.500000 0.434595
Si Si6 0.588962 0.888795 0.645388
Si Si7 0.408287 0.607904 0.326164
O O1 0.250000 0.750000 0.750000
O O2 0.371756 0.813500 0.805462
O O3 0.355094 0.856095 0.697270
O O4 0.382755 0.673575 0.727705
O O5 0.500000 0.801608 0.135477
O O6 0.623899 0.701048 0.103125
O O7 0.620965 0.899692 0.096321
O O8 0.122431 0.122644 0.500000
O O9 0.000000 0.114065 0.434176
O O10 0.117897 0.000000 0.411097
O O11 0.894072 0.670615 0.913562
O O12 0.874591 0.854314 0.888032
O O13 0.000000 0.801182 0.942945
O O14 0.870319 0.794865 0.000000
O O15 0.875460 0.500000 0.500000
O O16 0.000000 0.500000 0.435130
O O17 0.500000 0.871621 0.665367
O O18 0.606783 0.000000 0.629609
O O19 0.500000 0.609231 0.328868
O O20 0.374818 0.500000 0.315254
#
# Coordination Sequence:
#
# PCOD8288996 Si02
#       7
#    16  16  16  16   8  16  16
#     4  11  23  36  50  73 103 142 178 221 261 310
#     4  10  19  32  53  79 105 137 178 219 267 324
#     4   8  14  26  47  76 106 131 159 204 258 310
#     4   8  14  26  47  78 107 128 161 209 262 317
#     4   9  18  32  54  86 114 134 168 228 286 331
#     4   9  18  33  54  77 104 136 171 217 268 315
#     4   9  18  34  54  76 104 136 170 216 267 308
#
# _framework density 19.176110000000001
#
# number of rings (size 3 to 8) (size 9 to 14) (size 15 to 20)
#    0.000    2.846    0.000    3.231    1.077    3.692 
#    0.000    4.615    0.000    7.385    0.000    0.000 
#    0.000    0.000    0.000    0.000    0.000    0.000 
#
# Total GULP energy -644444.436935 kJ/mol
# GULP energy per Si atom -12393.162249 kJ/mol
# Density = 1.913246 g / cm^3
# Si number density = 19.176110 Si / 1000 Ang^3
#
#
#
# Elastic Constant Matrix: (Units=GPa)
#
#
# Indices 1 2 3 4 5 6 
#
# 1 26.3925 11.2830 16.5289 0.0000 0.0000 0.0000
# 2 11.2830 144.9262 45.2584 0.0000 0.0000 0.0000
# 3 16.5289 45.2584 121.1519 0.0000 0.0000 0.0000
# 4 0.0000 0.0000 0.0000 19.6154 0.0000 0.0000
# 5 0.0000 0.0000 0.0000 0.0000 1.3646 0.0000
# 6 0.0000 0.0000 0.0000 0.0000 0.0000 10.0229
#
#
#
# Elastic Compliance Matrix: (Units=1/GPa)
#
#
# Indices 1 2 3 4 5 6 
#
# 1 0.041782 -0.001667 -0.005078 0.000000 0.000000 0.000000
# 2 -0.001667 0.007878 -0.002715 0.000000 0.000000 0.000000
# 3 -0.005078 -0.002715 0.009961 0.000000 0.000000 0.000000
# 4 0.000000 0.000000 0.000000 0.050980 0.000000 0.000000
# 5 0.000000 0.000000 0.000000 0.000000 0.732816 0.000000
# 6 0.000000 0.000000 0.000000 0.000000 0.000000 0.099772
#
#
# Mechanical properties :
#
#
# Convention : Reuss Voigt Hill
#
# Bulk Modulus (GPa) = 24.56950 48.73458 36.65204
# Shear Modulus (GPa) = 5.12465 20.82726 12.97596
#
# Velocity S-wave (km/s) = 1.63652 3.29919 2.60412
# Velocity P-wave (km/s) = 4.05109 6.32315 5.31006
#
# Compressibility (1/GPa) = 0.04070088
#
# Stress axis : x y z
#
# Youngs Moduli (GPa) = 23.93357 126.93807 100.38906
#
# Poissons Ratio (x) = 0.21164 0.50974
# Poissons Ratio (y) = 0.03990 0.27260
# Poissons Ratio (z) = 0.12152 0.34469
#
# Static dielectric constant tensor:
#      x y z
#    x 3.040750 0.000000 0.000000 
#    y 0.000000 4.236150 0.000000 
#    z 0.000000 0.000000 3.757270 
# 
# 
# High freq. dielectric constant tensor:
#      x y z
#    x 1.686140 0.000000 0.000000 
#    y 0.000000 1.759870 0.000000 
#    z 0.000000 0.000000 1.748880 
# 
# From -- ./inp_files/54127.got.cif
#   From: 2010.06.25/outbox.cif.g09.slc.cpg/sg71_28_cif.got.tgz:54127.got - 2010.06.28 04:59:45.
