data_PCOD8288096
_publ_section_title
;
Structure prediction by ZEFSAII (Michael W. Deem and Ramdas Pophale) SiO2 
 PCOD8288096
Probable space group: I M M M
;
_chemical_formula_sum "Si O2"
_cell_formula_units_Z 96
_cell_length_a 9.053877
_cell_length_b 23.149200
_cell_length_c 38.543528
_cell_angle_alpha 90.000000
_cell_angle_beta 90.000000
_cell_angle_gamma 90.000000
_cell_volume 8078.338398
_symmetry_space_group_name_H-M "I M M M"
_symmetry_group_IT_number 71
_symmetry_cell_setting 'orthorhombic'
loop_
_space_group_symop_operation_xyz
x,y,z
-x,-y,z
x,-y,-z
-x,y,-z
-x,-y,-z
x,y,-z
-x,y,z
x,-y,z
1/2+x,1/2+y,1/2+z
1/2-x,1/2-y,1/2+z
1/2+x,1/2-y,1/2-z
1/2-x,1/2+y,1/2-z
1/2-x,1/2-y,1/2-z
1/2+x,1/2+y,1/2-z
1/2-x,1/2+y,1/2+z
1/2+x,1/2-y,1/2+z
loop_
_atom_site_type_symbol
_atom_site_label
_atom_site_fract_x
_atom_site_fract_y
_atom_site_fract_z
Si Si1 0.827365 0.434528 0.233326
Si Si2 0.175303 0.876519 0.669738
Si Si3 0.664350 0.229296 0.301652
Si Si4 0.336585 0.827631 0.773471
Si Si5 0.665524 0.431457 0.961838
Si Si6 0.330218 0.931683 0.394518
O O1 0.794037 0.500000 0.244503
O O2 0.735377 0.419402 0.199204
O O3 0.781716 0.393218 0.265684
O O4 0.000000 0.424809 0.224254
O O5 0.235000 0.811413 0.674427
O O6 0.227650 0.899806 0.632937
O O7 0.000000 0.875437 0.671533
O O8 0.500000 0.232592 0.317495
O O9 0.660059 0.204402 0.263202
O O10 0.730054 0.294391 0.300231
O O11 0.500000 0.828062 0.789955
O O12 0.500000 0.408961 0.953516
O O13 0.664585 0.500000 0.962251
O O14 0.778968 0.409714 0.932506
O O15 0.715896 0.408789 0.000000
O O16 0.500000 0.914112 0.388920
O O17 0.307939 0.000000 0.390365
#
# Coordination Sequence:
#
# PCOD8288096 Si02
#       6
#    16  16  16  16  16  16
#     4   9  17  28  39  50  66  86 105 127 158 195
#     4  11  20  27  36  49  65  84 106 132 162 196
#     4   9  16  26  38  49  62  80 102 128 157 189
#     4   8  14  24  37  51  64  79 101 127 154 186
#     4   8  14  25  39  52  65  81 102 128 156 186
#     4  10  19  28  37  49  66  86 106 129 159 196
#
# _framework density 11.883630999999999
#
# number of rings (size 3 to 8) (size 9 to 14) (size 15 to 20)
#    0.000    2.833    0.000    4.500    0.000    7.667 
#    0.000    1.667    0.000    0.000    0.000    0.000 
#    0.000    0.000    0.000    0.000    0.000    0.000 
#
# Total GULP energy -594920.027638 kJ/mol
# GULP energy per Si atom -12394.167242 kJ/mol
# Density = 1.185658 g / cm^3
# Si number density = 11.883631 Si / 1000 Ang^3
#
#
#
# Elastic Constant Matrix: (Units=GPa)
#
#
# Indices 1 2 3 4 5 6 
#
# 1 80.6251 36.8425 30.9260 0.0000 0.0000 0.0000
# 2 36.8425 71.7422 31.7020 0.0000 0.0000 0.0000
# 3 30.9260 31.7020 39.1165 0.0000 0.0000 0.0000
# 4 0.0000 0.0000 0.0000 9.2301 0.0000 0.0000
# 5 0.0000 0.0000 0.0000 0.0000 17.5697 0.0000
# 6 0.0000 0.0000 0.0000 0.0000 0.0000 16.0647
#
#
#
# Elastic Compliance Matrix: (Units=1/GPa)
#
#
# Indices 1 2 3 4 5 6 
#
# 1 0.018810 -0.004811 -0.010972 0.000000 0.000000 0.000000
# 2 -0.004811 0.022946 -0.014793 0.000000 0.000000 0.000000
# 3 -0.010972 -0.014793 0.046229 0.000000 0.000000 0.000000
# 4 0.000000 0.000000 0.000000 0.108341 0.000000 0.000000
# 5 0.000000 0.000000 0.000000 0.000000 0.056916 0.000000
# 6 0.000000 0.000000 0.000000 0.000000 0.000000 0.062248
#
#
# Mechanical properties :
#
#
# Convention : Reuss Voigt Hill
#
# Bulk Modulus (GPa) = 37.26905 43.38051 40.32478
# Shear Modulus (GPa) = 12.96717 14.70712 13.83715
#
# Velocity S-wave (km/s) = 3.30688 3.52176 3.41601
# Velocity P-wave (km/s) = 6.78310 7.28840 7.04028
#
# Compressibility (1/GPa) = 0.02683191
#
# Stress axis : x y z
#
# Youngs Moduli (GPa) = 53.16191 43.57964 21.63160
#
# Poissons Ratio (x) = 0.20968 0.23735
# Poissons Ratio (y) = 0.25578 0.32000
# Poissons Ratio (z) = 0.58331 0.64468
#
# Static dielectric constant tensor:
#      x y z
#    x 2.627890 0.000000 0.000000 
#    y 0.000000 2.475960 0.000000 
#    z 0.000000 0.000000 2.344870 
# 
# 
# High freq. dielectric constant tensor:
#      x y z
#    x 1.463020 0.000000 0.000000 
#    y 0.000000 1.421540 0.000000 
#    z 0.000000 0.000000 1.411710 
# 
# From -- ./inp_files/63657.got.cif
#   From: 2010.06.25/outbox.cif.g09.slc.cpg/sg71_32_cif.got.tgz:63657.got - 2010.06.28 04:59:45.
