data_PCOD8288067
_publ_section_title
;
Structure prediction by ZEFSAII (Michael W. Deem and Ramdas Pophale) SiO2 
 PCOD8288067
Probable space group: I M M M
;
_chemical_formula_sum "Si O2"
_cell_formula_units_Z 64
_cell_length_a 16.627304
_cell_length_b 7.612075
_cell_length_c 23.978811
_cell_angle_alpha 90.000000
_cell_angle_beta 90.000000
_cell_angle_gamma 90.000000
_cell_volume 3034.956987
_symmetry_space_group_name_H-M "I M M M"
_symmetry_group_IT_number 71
_symmetry_cell_setting 'orthorhombic'
loop_
_space_group_symop_operation_xyz
x,y,z
-x,-y,z
x,-y,-z
-x,y,-z
-x,-y,-z
x,y,-z
-x,y,z
x,-y,z
1/2+x,1/2+y,1/2+z
1/2-x,1/2-y,1/2+z
1/2+x,1/2-y,1/2-z
1/2-x,1/2+y,1/2-z
1/2-x,1/2-y,1/2-z
1/2+x,1/2+y,1/2-z
1/2-x,1/2+y,1/2+z
1/2+x,1/2-y,1/2+z
loop_
_atom_site_type_symbol
_atom_site_label
_atom_site_fract_x
_atom_site_fract_y
_atom_site_fract_z
Si Si1 0.589633 0.792235 0.240799
Si Si2 0.000000 0.291407 0.937074
Si Si3 0.325014 0.199634 0.129830
Si Si4 0.645556 0.790875 0.639735
Si Si5 0.409650 0.500000 0.065662
O O1 0.500000 0.718127 0.229445
O O2 0.648674 0.731622 0.191180
O O3 0.622121 0.717382 0.299269
O O4 0.586452 0.000000 0.245264
O O5 0.920817 0.225174 0.904590
O O6 0.000000 0.500000 0.938247
O O7 0.000000 0.214965 0.000000
O O8 0.229591 0.205931 0.122734
O O9 0.365125 0.323610 0.084372
O O10 0.355072 0.000000 0.120120
O O11 0.653201 0.000000 0.639528
O O12 0.500000 0.500000 0.089632
O O13 0.409501 0.500000 0.000000
#
# Coordination Sequence:
#
# PCOD8288067 Si02
#       5
#    16   8  16  16   8
#     4   9  17  32  58  89 126 170 213 265 322 378
#     4   9  18  32  57  89 121 170 223 262 311 373
#     4  11  23  40  65  96 130 164 212 265 324 383
#     4  10  18  35  59  89 130 171 216 267 316 372
#     4  11  26  48  70  93 125 163 211 266 322 385
#
# _framework density 21.087613999999999
#
# number of rings (size 3 to 8) (size 9 to 14) (size 15 to 20)
#    0.000    2.000    2.500    1.500    0.000    3.000 
#    2.250    1.875    0.000    0.750    0.000    0.000 
#    0.000    0.000    0.000    0.000    0.000    0.000 
#
# Total GULP energy -396850.636917 kJ/mol
# GULP energy per Si atom -12401.582404 kJ/mol
# Density = 2.103962 g / cm^3
# Si number density = 21.087614 Si / 1000 Ang^3
#
#
#
# Elastic Constant Matrix: (Units=GPa)
#
#
# Indices 1 2 3 4 5 6 
#
# 1 177.1741 27.1282 65.6756 0.0000 0.0000 0.0000
# 2 27.1282 69.8432 29.1915 0.0000 0.0000 0.0000
# 3 65.6756 29.1915 125.3039 0.0000 0.0000 0.0000
# 4 0.0000 0.0000 0.0000 17.2543 0.0000 0.0000
# 5 0.0000 0.0000 0.0000 0.0000 27.3896 0.0000
# 6 0.0000 0.0000 0.0000 0.0000 0.0000 6.4004
#
#
#
# Elastic Compliance Matrix: (Units=1/GPa)
#
#
# Indices 1 2 3 4 5 6 
#
# 1 0.007116 -0.001335 -0.003419 0.000000 0.000000 0.000000
# 2 -0.001335 0.016113 -0.003054 0.000000 0.000000 0.000000
# 3 -0.003419 -0.003054 0.010484 0.000000 0.000000 0.000000
# 4 0.000000 0.000000 0.000000 0.057957 0.000000 0.000000
# 5 0.000000 0.000000 0.000000 0.000000 0.036510 0.000000
# 6 0.000000 0.000000 0.000000 0.000000 0.000000 0.156240
#
#
# Mechanical properties :
#
#
# Convention : Reuss Voigt Hill
#
# Bulk Modulus (GPa) = 55.25726 68.47912 61.86819
# Shear Modulus (GPa) = 16.33630 26.89725 21.61678
#
# Velocity S-wave (km/s) = 2.78634 3.57529 3.20518
# Velocity P-wave (km/s) = 6.05080 7.04185 6.56505
#
# Compressibility (1/GPa) = 0.01809717
#
# Stress axis : x y z
#
# Youngs Moduli (GPa) = 140.53230 62.06256 95.38475
#
# Poissons Ratio (x) = 0.08286 0.32608
# Poissons Ratio (y) = 0.18762 0.29130
# Poissons Ratio (z) = 0.48042 0.18954
#
# Static dielectric constant tensor:
#      x y z
#    x 3.956310 0.000000 0.000000 
#    y 0.000000 3.453540 0.000000 
#    z 0.000000 0.000000 3.895330 
# 
# 
# High freq. dielectric constant tensor:
#      x y z
#    x 1.838140 0.000000 0.000000 
#    y 0.000000 1.805860 0.000000 
#    z 0.000000 0.000000 1.820750 
# 
# From -- ./inp_files/5518.got.cif
#   From: 2010.06.25/outbox.cif.g09.slc.cpg/sg71_3_cif.got.tgz:5518.got - 2010.06.28 04:59:45.
