data_PCOD8288928
_publ_section_title
;
Structure prediction by ZEFSAII (Michael W. Deem and Ramdas Pophale) SiO2 
 PCOD8288928
Probable space group: I M M M
;
_chemical_formula_sum "Si O2"
_cell_formula_units_Z 80
_cell_length_a 26.008658
_cell_length_b 9.013529
_cell_length_c 18.287347
_cell_angle_alpha 90.000000
_cell_angle_beta 90.000000
_cell_angle_gamma 90.000000
_cell_volume 4287.098974
_symmetry_space_group_name_H-M "I M M M"
_symmetry_group_IT_number 71
_symmetry_cell_setting 'orthorhombic'
loop_
_space_group_symop_operation_xyz
x,y,z
-x,-y,z
x,-y,-z
-x,y,-z
-x,-y,-z
x,y,-z
-x,y,z
x,-y,z
1/2+x,1/2+y,1/2+z
1/2-x,1/2-y,1/2+z
1/2+x,1/2-y,1/2-z
1/2-x,1/2+y,1/2-z
1/2-x,1/2-y,1/2-z
1/2+x,1/2+y,1/2-z
1/2-x,1/2+y,1/2+z
1/2+x,1/2-y,1/2+z
loop_
_atom_site_type_symbol
_atom_site_label
_atom_site_fract_x
_atom_site_fract_y
_atom_site_fract_z
Si Si1 0.700671 0.833074 0.163891
Si Si2 0.000000 0.176615 0.582266
Si Si3 0.404260 0.674136 0.661286
Si Si4 0.098537 0.173307 0.668618
Si Si5 0.500000 0.171542 0.586380
Si Si6 0.199159 0.332454 0.161997
O O1 0.648532 0.755438 0.137214
O O2 0.749500 0.745435 0.131064
O O3 0.701857 0.831305 0.251012
O O4 0.702410 0.000000 0.133578
O O5 0.050283 0.236189 0.623639
O O6 0.000000 0.238412 0.500000
O O7 0.000000 0.000000 0.583987
O O8 0.404273 0.500000 0.644765
O O9 0.412151 0.707727 0.746728
O O10 0.449696 0.750407 0.617490
O O11 0.350334 0.742151 0.633967
O O12 0.107514 0.000000 0.655979
O O13 0.500000 0.190289 0.500000
O O14 0.500000 0.000000 0.610022
O O15 0.196150 0.500000 0.131828
#
# Coordination Sequence:
#
# PCOD8288928 Si02
#       6
#    16   8  16  16   8  16
#     4   9  16  26  43  70 101 131 162 198 244 295
#     4   9  17  30  49  71  96 129 168 206 244 289
#     4  10  19  32  52  76 101 129 163 204 247 292
#     4   9  17  30  49  74 101 129 164 206 249 292
#     4  11  24  39  53  71  98 131 166 204 246 295
#     4   9  16  27  45  71 102 131 159 197 245 294
#
# _framework density 18.660637999999999
#
# number of rings (size 3 to 8) (size 9 to 14) (size 15 to 20)
#    0.000    2.600    0.000    2.700    0.000    8.000 
#    0.000    0.500    0.000    2.400    0.000    2.800 
#    0.000    0.000    0.000    0.000    0.000    0.000 
#
# Total GULP energy -496020.639358 kJ/mol
# GULP energy per Si atom -12400.515984 kJ/mol
# Density = 1.861817 g / cm^3
# Si number density = 18.660638 Si / 1000 Ang^3
#
#
#
# Elastic Constant Matrix: (Units=GPa)
#
#
# Indices 1 2 3 4 5 6 
#
# 1 212.3029 92.8490 53.2503 0.0000 0.0000 0.0000
# 2 92.8490 132.0270 38.7580 0.0000 0.0000 0.0000
# 3 53.2503 38.7580 43.7887 0.0000 0.0000 0.0000
# 4 0.0000 0.0000 0.0000 13.7355 0.0000 0.0000
# 5 0.0000 0.0000 0.0000 0.0000 -1.7967 0.0000
# 6 0.0000 0.0000 0.0000 0.0000 0.0000 33.2386
#
#
#
# Elastic Compliance Matrix: (Units=1/GPa)
#
#
# Indices 1 2 3 4 5 6 
#
# 1 0.007926 -0.003708 -0.006357 0.000000 0.000000 0.000000
# 2 -0.003708 0.011968 -0.006084 0.000000 0.000000 0.000000
# 3 -0.006357 -0.006084 0.035952 0.000000 0.000000 0.000000
# 4 0.000000 0.000000 0.000000 0.072804 0.000000 0.000000
# 5 0.000000 0.000000 0.000000 0.000000 -0.556565 0.000000
# 6 0.000000 0.000000 0.000000 0.000000 0.000000 0.030085
#
#
# Mechanical properties :
#
#
# Convention : Reuss Voigt Hill
#
# Bulk Modulus (GPa) = 42.46453 84.20368 63.33411
# Shear Modulus (GPa) = -13.97889 22.58624 4.30367
#
# Velocity S-wave (km/s) = -2.73996 3.48281 1.52029
# Velocity P-wave (km/s) = 3.57712 7.83549 6.09060
#
# Compressibility (1/GPa) = 0.02354906
#
# Stress axis : x y z
#
# Youngs Moduli (GPa) = 126.15953 83.55682 27.81476
#
# Poissons Ratio (x) = 0.30984 0.17682
# Poissons Ratio (y) = 0.46782 0.16921
# Poissons Ratio (z) = 0.80200 0.50832
#
# Static dielectric constant tensor:
#      x y z
#    x 3.687680 0.000000 0.000000 
#    y 0.000000 3.493770 0.000000 
#    z 0.000000 0.000000 2.974580 
# 
# 
# High freq. dielectric constant tensor:
#      x y z
#    x 1.745890 0.000000 0.000000 
#    y 0.000000 1.726170 0.000000 
#    z 0.000000 0.000000 1.669800 
# 
# From -- ./inp_files/42275.got.cif
#   From: 2010.06.25/outbox.cif.g09.slc.cpg/sg71_22_cif.got.tgz:42275.got - 2010.06.28 04:59:45.
