data_PCOD8288806
_publ_section_title
;
Structure prediction by ZEFSAII (Michael W. Deem and Ramdas Pophale) SiO2 
 PCOD8288806
Probable space group: I M M M
;
_chemical_formula_sum "Si O2"
_cell_formula_units_Z 88
_cell_length_a 8.897727
_cell_length_b 18.336823
_cell_length_c 28.841371
_cell_angle_alpha 90.000000
_cell_angle_beta 90.000000
_cell_angle_gamma 90.000000
_cell_volume 4705.644028
_symmetry_space_group_name_H-M "I M M M"
_symmetry_group_IT_number 71
_symmetry_cell_setting 'orthorhombic'
loop_
_space_group_symop_operation_xyz
x,y,z
-x,-y,z
x,-y,-z
-x,y,-z
-x,-y,-z
x,y,-z
-x,y,z
x,-y,z
1/2+x,1/2+y,1/2+z
1/2-x,1/2-y,1/2+z
1/2+x,1/2-y,1/2-z
1/2-x,1/2+y,1/2-z
1/2-x,1/2-y,1/2-z
1/2+x,1/2+y,1/2-z
1/2-x,1/2+y,1/2+z
1/2+x,1/2-y,1/2+z
loop_
_atom_site_type_symbol
_atom_site_label
_atom_site_fract_x
_atom_site_fract_y
_atom_site_fract_z
Si Si1 0.178716 0.419441 0.051871
Si Si2 0.178000 0.293815 0.883219
Si Si3 0.326976 0.083081 0.202631
Si Si4 0.822145 0.500000 0.446149
Si Si5 0.673507 0.190195 0.280667
Si Si6 0.676336 0.629754 0.388667
O O1 0.226692 0.500000 0.070241
O O2 0.249183 0.355454 0.083451
O O3 0.000000 0.413777 0.051667
O O4 0.240728 0.408118 0.000000
O O5 0.245289 0.309655 0.832011
O O6 0.218852 0.213036 0.902368
O O7 0.000000 0.302814 0.881447
O O8 0.500000 0.092983 0.187279
O O9 0.300846 0.113610 0.254422
O O10 0.222731 0.122228 0.164929
O O11 0.277911 0.000000 0.204305
O O12 0.773067 0.500000 0.500000
O O13 0.760873 0.572905 0.421786
O O14 0.000000 0.500000 0.440596
O O15 0.500000 0.210661 0.284637
O O16 0.750000 0.250000 0.250000
O O17 0.500000 0.614967 0.393664
#
# Coordination Sequence:
#
# PCOD8288806 Si02
#       6
#    16  16  16   8  16  16
#     4   8  14  26  45  69 100 138 171 204 257 318
#     4   9  18  30  47  75 108 138 175 223 268 314
#     4  10  20  33  51  74 102 141 184 221 265 321
#     4  11  25  43  59  77 107 143 183 231 276 325
#     4  10  19  32  49  72 104 139 176 217 262 312
#     4  11  21  34  55  80 106 139 179 223 274 325
#
# _framework density 18.700946999999999
#
# number of rings (size 3 to 8) (size 9 to 14) (size 15 to 20)
#    0.000    2.273    2.727    1.364    0.000    2.182 
#    0.000    5.455    0.000    0.000    0.000    0.000 
#    0.000    2.909    0.000   20.000    0.000   17.818 
#
# Total GULP energy -545398.142118 kJ/mol
# GULP energy per Si atom -12395.412321 kJ/mol
# Density = 1.865838 g / cm^3
# Si number density = 18.700947 Si / 1000 Ang^3
#
#
#
# Elastic Constant Matrix: (Units=GPa)
#
#
# Indices 1 2 3 4 5 6 
#
# 1 35.5005 29.1099 25.0529 0.0000 0.0000 0.0000
# 2 29.1099 161.8607 82.3864 0.0000 0.0000 0.0000
# 3 25.0529 82.3864 132.9370 0.0000 0.0000 0.0000
# 4 0.0000 0.0000 0.0000 38.0678 0.0000 0.0000
# 5 0.0000 0.0000 0.0000 0.0000 19.2695 0.0000
# 6 0.0000 0.0000 0.0000 0.0000 0.0000 15.7218
#
#
#
# Elastic Compliance Matrix: (Units=1/GPa)
#
#
# Indices 1 2 3 4 5 6 
#
# 1 0.034348 -0.004211 -0.003863 0.000000 0.000000 0.000000
# 2 -0.004211 0.009541 -0.005120 0.000000 0.000000 0.000000
# 3 -0.003863 -0.005120 0.011423 0.000000 0.000000 0.000000
# 4 0.000000 0.000000 0.000000 0.026269 0.000000 0.000000
# 5 0.000000 0.000000 0.000000 0.000000 0.051896 0.000000
# 6 0.000000 0.000000 0.000000 0.000000 0.000000 0.063606
#
#
# Mechanical properties :
#
#
# Convention : Reuss Voigt Hill
#
# Bulk Modulus (GPa) = 34.57246 67.04407 50.80827
# Shear Modulus (GPa) = 21.44889 27.52840 24.48865
#
# Velocity S-wave (km/s) = 3.39033 3.84087 3.62261
# Velocity P-wave (km/s) = 5.81832 7.45642 6.68771
#
# Compressibility (1/GPa) = 0.02892475
#
# Stress axis : x y z
#
# Youngs Moduli (GPa) = 29.11381 104.80761 87.54068
#
# Poissons Ratio (x) = 0.44133 0.33821
# Poissons Ratio (y) = 0.12259 0.44817
# Poissons Ratio (z) = 0.11248 0.53657
#
# Static dielectric constant tensor:
#      x y z
#    x 3.097520 0.000000 0.000000 
#    y 0.000000 10.474330 0.000000 
#    z 0.000000 0.000000 2.518540 
# 
# 
# High freq. dielectric constant tensor:
#      x y z
#    x 1.685060 0.000000 0.000000 
#    y 0.000000 1.740690 0.000000 
#    z 0.000000 0.000000 1.726910 
# 
# From -- ./inp_files/68027.got.cif
#   From: 2010.06.25/outbox.cif.g09.slc.cpg/sg71_35_cif.got.tgz:68027.got - 2010.06.28 04:59:45.
