data_PCOD8288117
_publ_section_title
;
Structure prediction by ZEFSAII (Michael W. Deem and Ramdas Pophale) SiO2 
 PCOD8288117
Probable space group: I M M M
;
_chemical_formula_sum "Si O2"
_cell_formula_units_Z 76
_cell_length_a 7.676684
_cell_length_b 39.771452
_cell_length_c 18.685690
_cell_angle_alpha 90.000000
_cell_angle_beta 90.000000
_cell_angle_gamma 90.000000
_cell_volume 5704.981627
_symmetry_space_group_name_H-M "I M M M"
_symmetry_group_IT_number 71
_symmetry_cell_setting 'orthorhombic'
loop_
_space_group_symop_operation_xyz
x,y,z
-x,-y,z
x,-y,-z
-x,y,-z
-x,-y,-z
x,y,-z
-x,y,z
x,-y,z
1/2+x,1/2+y,1/2+z
1/2-x,1/2-y,1/2+z
1/2+x,1/2-y,1/2-z
1/2-x,1/2+y,1/2-z
1/2-x,1/2-y,1/2-z
1/2+x,1/2+y,1/2-z
1/2-x,1/2+y,1/2+z
1/2+x,1/2-y,1/2+z
loop_
_atom_site_type_symbol
_atom_site_label
_atom_site_fract_x
_atom_site_fract_y
_atom_site_fract_z
Si Si1 0.806382 0.537374 0.415147
Si Si2 0.000000 0.841289 0.143428
Si Si3 0.000000 0.200426 0.000000
Si Si4 0.299025 0.730469 0.845453
Si Si5 0.798578 0.245971 0.500000
Si Si6 0.304072 0.802725 0.210354
Si Si7 0.000000 0.914805 0.085506
O O1 0.799267 0.536108 0.500000
O O2 0.760346 0.500000 0.385796
O O3 0.668527 0.564594 0.387773
O O4 0.000000 0.547975 0.389303
O O5 0.000000 0.822874 0.068400
O O6 0.826997 0.832274 0.188574
O O7 0.000000 0.880712 0.129756
O O8 0.823947 0.221826 0.000000
O O9 0.500000 0.726506 0.825492
O O10 0.239560 0.768670 0.828892
O O11 0.196298 0.703930 0.796232
O O12 0.261472 0.723411 0.929429
O O13 0.000000 0.258625 0.500000
O O14 0.500000 0.812791 0.187122
O O15 0.000000 0.908526 0.000000
#
# Coordination Sequence:
#
# PCOD8288117 Si02
#       7
#    16   8   4  16   8  16   8
#     4   8  14  26  43  61  79  99 126 160 195 229
#     4  12  22  33  40  57  82 107 136 163 206 260
#     4  12  22  30  44  56  77 106 126 164 218 260
#     4   9  17  30  45  61  75  92 125 165 208 249
#     4  10  20  30  44  64  78  89 120 171 217 252
#     4  10  20  31  44  56  74 102 130 161 200 251
#     4  10  19  28  40  58  79 105 132 161 199 244
#
# _framework density 13.32169
#
# number of rings (size 3 to 8) (size 9 to 14) (size 15 to 20)
#    0.000    2.316    3.684    0.947    2.947    2.105 
#    0.000    0.000    0.000    0.000    0.000    0.000 
#    0.000    0.000    0.000    0.000    0.000    0.000 
#
# Total GULP energy -471025.342827 kJ/mol
# GULP energy per Si atom -12395.403759 kJ/mol
# Density = 1.329137 g / cm^3
# Si number density = 13.321690 Si / 1000 Ang^3
#
#
#
# Elastic Constant Matrix: (Units=GPa)
#
#
# Indices 1 2 3 4 5 6 
#
# 1 93.6440 54.5765 26.4009 0.0000 0.0000 0.0000
# 2 54.5765 79.8255 26.9174 0.0000 0.0000 0.0000
# 3 26.4009 26.9174 73.1565 0.0003 0.0000 0.0000
# 4 0.0000 0.0000 0.0003 12.5468 0.0000 0.0000
# 5 0.0000 0.0000 0.0000 0.0000 2.7905 0.0000
# 6 0.0000 0.0000 0.0000 0.0000 0.0000 12.8880
#
#
#
# Elastic Compliance Matrix: (Units=1/GPa)
#
#
# Indices 1 2 3 4 5 6 
#
# 1 0.018073 -0.011596 -0.002256 0.000000 0.000000 0.000000
# 2 -0.011596 0.021742 -0.003815 0.000000 0.000000 0.000000
# 3 -0.002256 -0.003815 0.015887 0.000000 0.000000 0.000000
# 4 0.000000 0.000000 0.000000 0.079702 0.000001 0.000000
# 5 0.000000 0.000000 0.000000 0.000001 0.358358 0.000000
# 6 0.000000 0.000000 0.000000 0.000000 0.000000 0.077592
#
#
# Mechanical properties :
#
#
# Convention : Reuss Voigt Hill
#
# Bulk Modulus (GPa) = 49.09450 51.37952 50.23701
# Shear Modulus (GPa) = 8.15030 14.89380 11.52205
#
# Velocity S-wave (km/s) = 2.47616 3.34730 2.94412
# Velocity P-wave (km/s) = 6.71626 7.32060 7.02493
#
# Compressibility (1/GPa) = 0.02036888
#
# Stress axis : x y z
#
# Youngs Moduli (GPa) = 55.33205 45.99455 62.94446
#
# Poissons Ratio (x) = 0.53334 0.14198
# Poissons Ratio (y) = 0.64161 0.24013
# Poissons Ratio (z) = 0.12481 0.17547
#
# Static dielectric constant tensor:
#      x y z
#    x 2.914320 0.000000 0.000000 
#    y 0.000000 2.420650 0.000000 
#    z 0.000000 0.000000 2.591920 
# 
# 
# High freq. dielectric constant tensor:
#      x y z
#    x 1.527330 0.000000 0.000000 
#    y 0.000000 1.461670 0.000000 
#    z 0.000000 0.000000 1.478630 
# 
# From -- ./inp_files/42320.got.cif
#   From: 2010.06.25/outbox.cif.g09.slc.cpg/sg71_22_cif.got.tgz:42320.got - 2010.06.28 04:59:45.
