data_PCOD8288976
_publ_section_title
;
Structure prediction by ZEFSAII (Michael W. Deem and Ramdas Pophale) SiO2 
 PCOD8288976
Probable space group: I M M M
;
_chemical_formula_sum "Si O2"
_cell_formula_units_Z 120
_cell_length_a 23.386971
_cell_length_b 13.352800
_cell_length_c 19.326636
_cell_angle_alpha 90.000000
_cell_angle_beta 90.000000
_cell_angle_gamma 90.000000
_cell_volume 6035.351776
_symmetry_space_group_name_H-M "I M M M"
_symmetry_group_IT_number 71
_symmetry_cell_setting 'orthorhombic'
loop_
_space_group_symop_operation_xyz
x,y,z
-x,-y,z
x,-y,-z
-x,y,-z
-x,-y,-z
x,y,-z
-x,y,z
x,-y,z
1/2+x,1/2+y,1/2+z
1/2-x,1/2-y,1/2+z
1/2+x,1/2-y,1/2-z
1/2-x,1/2+y,1/2-z
1/2-x,1/2-y,1/2-z
1/2+x,1/2+y,1/2-z
1/2-x,1/2+y,1/2+z
1/2+x,1/2-y,1/2+z
loop_
_atom_site_type_symbol
_atom_site_label
_atom_site_fract_x
_atom_site_fract_y
_atom_site_fract_z
Si Si1 0.061878 0.186914 0.420350
Si Si2 0.935415 0.608748 0.644299
Si Si3 0.567835 0.890028 0.500000
Si Si4 0.680883 0.385809 0.920301
Si Si5 0.228675 0.276862 0.825998
Si Si6 0.332479 0.616889 0.581183
Si Si7 0.116203 0.613798 0.212615
Si Si8 0.935037 0.757445 0.883531
O O1 0.055959 0.162015 0.500000
O O2 0.075080 0.304909 0.411545
O O3 0.115575 0.124294 0.391366
O O4 0.000000 0.158497 0.385143
O O5 0.926905 0.500000 0.608162
O O6 0.888243 0.619108 0.704666
O O7 0.000000 0.615528 0.675135
O O8 0.500000 0.899363 0.500000
O O9 0.589042 0.829010 0.434057
O O10 0.596390 0.000000 0.500000
O O11 0.699979 0.500000 0.916176
O O12 0.720664 0.323455 0.870164
O O13 0.685098 0.346885 0.000000
O O14 0.250000 0.250000 0.750000
O O15 0.209381 0.178987 0.868907
O O16 0.178368 0.357519 0.816532
O O17 0.322490 0.642256 0.500000
O O18 0.322332 0.500000 0.595350
O O19 0.397321 0.643697 0.604351
O O20 0.100993 0.500000 0.187660
O O21 0.071619 0.700873 0.189420
O O22 0.000000 0.789784 0.897643
#
# Coordination Sequence:
#
# PCOD8288976 Si02
#       8
#    16  16   8  16  16  16  16  16
#     4   9  18  33  54  81 111 141 175 219 271 331
#     4   9  17  30  49  74 107 146 183 220 268 325
#     4   9  16  26  43  71 107 143 180 224 270 317
#     4  10  21  38  60  84 112 145 180 224 279 339
#     4  11  23  39  60  83 109 144 188 240 289 338
#     4  10  22  40  60  83 114 152 193 237 284 337
#     4  10  20  33  51  76 107 144 185 230 281 335
#     4  10  19  32  52  80 113 150 191 233 278 329
#
# _framework density 19.882850999999999
#
# number of rings (size 3 to 8) (size 9 to 14) (size 15 to 20)
#    0.000    2.200    0.667    2.400    0.000    3.200 
#    0.000    4.000    0.000    0.800    0.000    3.733 
#    0.000    0.000    0.000    0.000    0.000    0.000 
#
# Total GULP energy -743474.583322 kJ/mol
# GULP energy per Si atom -12391.243055 kJ/mol
# Density = 1.983760 g / cm^3
# Si number density = 19.882851 Si / 1000 Ang^3
#
#
#
# Elastic Constant Matrix: (Units=GPa)
#
#
# Indices 1 2 3 4 5 6 
#
# 1 115.8537 41.3160 44.0361 0.0000 0.0000 0.0000
# 2 41.3160 91.6298 34.9549 0.0000 0.0000 0.0000
# 3 44.0361 34.9549 64.1165 0.0000 0.0000 0.0000
# 4 0.0000 0.0000 0.0000 24.0276 0.0000 0.0000
# 5 0.0000 0.0000 0.0000 0.0000 25.8149 0.0000
# 6 0.0000 0.0000 0.0000 0.0000 0.0000 26.3206
#
#
#
# Elastic Compliance Matrix: (Units=1/GPa)
#
#
# Indices 1 2 3 4 5 6 
#
# 1 0.012273 -0.002927 -0.006833 0.000000 0.000000 0.000000
# 2 -0.002927 0.014477 -0.005882 0.000000 0.000000 0.000000
# 3 -0.006833 -0.005882 0.023497 0.000000 0.000000 0.000000
# 4 0.000000 0.000000 0.000000 0.041619 0.000000 0.000000
# 5 0.000000 0.000000 0.000000 0.000000 0.038737 0.000000
# 6 0.000000 0.000000 0.000000 0.000000 0.000000 0.037993
#
#
# Mechanical properties :
#
#
# Convention : Reuss Voigt Hill
#
# Bulk Modulus (GPa) = 52.73890 56.91265 54.82577
# Shear Modulus (GPa) = 24.24807 25.31883 24.78345
#
# Velocity S-wave (km/s) = 3.49599 3.57235 3.53437
# Velocity P-wave (km/s) = 6.54815 6.76030 6.65507
#
# Compressibility (1/GPa) = 0.01896134
#
# Stress axis : x y z
#
# Youngs Moduli (GPa) = 81.48112 69.07374 42.55898
#
# Poissons Ratio (x) = 0.20218 0.29082
# Poissons Ratio (y) = 0.23850 0.25035
# Poissons Ratio (z) = 0.55679 0.40632
#
# Static dielectric constant tensor:
#      x y z
#    x 3.765300 0.000000 0.000000 
#    y 0.000000 3.607840 0.000000 
#    z 0.000000 0.000000 3.548530 
# 
# 
# High freq. dielectric constant tensor:
#      x y z
#    x 1.773050 0.000000 0.000000 
#    y 0.000000 1.771710 0.000000 
#    z 0.000000 0.000000 1.762020 
# 
# From -- ./inp_files/55836.got.cif
#   From: 2010.06.25/outbox.cif.g09.slc.cpg/sg71_28_cif.got.tgz:55836.got - 2010.06.28 04:59:45.
