data_PCOD8288935
_publ_section_title
;
Structure prediction by ZEFSAII (Michael W. Deem and Ramdas Pophale) SiO2 
 PCOD8288935
Probable space group: I M M M
;
_chemical_formula_sum "Si O2"
_cell_formula_units_Z 104
_cell_length_a 22.804621
_cell_length_b 8.270845
_cell_length_c 27.447077
_cell_angle_alpha 90.000000
_cell_angle_beta 90.000000
_cell_angle_gamma 90.000000
_cell_volume 5176.888862
_symmetry_space_group_name_H-M "I M M M"
_symmetry_group_IT_number 71
_symmetry_cell_setting 'orthorhombic'
loop_
_space_group_symop_operation_xyz
x,y,z
-x,-y,z
x,-y,-z
-x,y,-z
-x,-y,-z
x,y,-z
-x,y,z
x,-y,z
1/2+x,1/2+y,1/2+z
1/2-x,1/2-y,1/2+z
1/2+x,1/2-y,1/2-z
1/2-x,1/2+y,1/2-z
1/2-x,1/2-y,1/2-z
1/2+x,1/2+y,1/2-z
1/2-x,1/2+y,1/2+z
1/2+x,1/2-y,1/2+z
loop_
_atom_site_type_symbol
_atom_site_label
_atom_site_fract_x
_atom_site_fract_y
_atom_site_fract_z
Si Si1 0.130172 0.313986 0.300142
Si Si2 0.174803 0.689950 0.554217
Si Si3 0.569690 0.000000 0.444879
Si Si4 0.433882 0.312541 0.111530
Si Si5 0.568694 0.322847 0.604429
Si Si6 0.860496 0.816594 0.195653
Si Si7 0.744528 0.809653 0.145032
O O1 0.118934 0.500000 0.312472
O O2 0.083395 0.214254 0.331836
O O3 0.123214 0.285336 0.242932
O O4 0.195789 0.262486 0.315185
O O5 0.182355 0.767091 0.500000
O O6 0.182992 0.500000 0.550501
O O7 0.109816 0.721454 0.574979
O O8 0.223813 0.761009 0.592095
O O9 0.596346 0.166370 0.422483
O O10 0.500000 0.000000 0.437938
O O11 0.589613 0.000000 0.500000
O O12 0.500000 0.247944 0.103206
O O13 0.430166 0.500000 0.099294
O O14 0.500000 0.321637 0.596423
O O15 0.593137 0.500000 0.585523
O O16 0.582578 0.308012 0.661533
O O17 0.806052 0.739022 0.164929
O O18 0.845524 0.000000 0.211537
O O19 0.751590 0.000000 0.139209
#
# Coordination Sequence:
#
# PCOD8288935 Si02
#       7
#    16  16   8  16  16  16  16
#     4  10  20  33  52  77 103 136 177 219 263 315
#     4   9  18  34  56  79 105 138 176 222 271 318
#     4   9  18  34  56  76 100 136 172 214 262 310
#     4  10  21  36  53  75 106 141 178 221 265 318
#     4   9  19  34  52  78 109 139 176 220 267 324
#     4  10  19  32  52  76 106 142 175 213 266 321
#     4   8  16  32  51  75 104 135 176 218 260 315
#
# _framework density 20.089286000000001
#
# number of rings (size 3 to 8) (size 9 to 14) (size 15 to 20)
#    0.000    2.692    0.000    2.308    1.077    2.769 
#    0.000    8.462    0.000    2.769    0.000    0.000 
#    0.000    0.000    0.000    0.000    0.000    0.000 
#
# Total GULP energy -644390.733204 kJ/mol
# GULP energy per Si atom -12392.129485 kJ/mol
# Density = 2.004356 g / cm^3
# Si number density = 20.089286 Si / 1000 Ang^3
#
#
#
# Elastic Constant Matrix: (Units=GPa)
#
#
# Indices 1 2 3 4 5 6 
#
# 1 16.4783 5.2129 3.3750 0.0000 0.0000 0.0000
# 2 5.2129 70.8589 31.3093 0.0000 0.0000 0.0000
# 3 3.3750 31.3093 127.1216 0.0000 0.0000 0.0000
# 4 0.0000 0.0000 0.0000 24.0176 0.0000 0.0000
# 5 0.0000 0.0000 0.0000 0.0000 19.3082 0.0000
# 6 0.0000 0.0000 0.0000 0.0000 0.0000 14.8001
#
#
#
# Elastic Compliance Matrix: (Units=1/GPa)
#
#
# Indices 1 2 3 4 5 6 
#
# 1 0.062171 -0.004314 -0.000588 0.000000 0.000000 0.000000
# 2 -0.004314 0.016135 -0.003859 0.000000 0.000000 0.000000
# 3 -0.000588 -0.003859 0.008833 0.000000 0.000000 0.000000
# 4 0.000000 0.000000 0.000000 0.041636 0.000000 0.000000
# 5 0.000000 0.000000 0.000000 0.000000 0.051791 0.000000
# 6 0.000000 0.000000 0.000000 0.000000 0.000000 0.067567
#
#
# Mechanical properties :
#
#
# Convention : Reuss Voigt Hill
#
# Bulk Modulus (GPa) = 14.36454 32.69482 23.52968
# Shear Modulus (GPa) = 17.30931 23.26262 20.28596
#
# Velocity S-wave (km/s) = 2.93852 3.40658 3.18117
# Velocity P-wave (km/s) = 4.32193 5.63765 5.02305
#
# Compressibility (1/GPa) = 0.06961586
#
# Stress axis : x y z
#
# Youngs Moduli (GPa) = 16.08467 61.97606 113.21613
#
# Poissons Ratio (x) = 0.26736 0.06658
# Poissons Ratio (y) = 0.06939 0.43696
# Poissons Ratio (z) = 0.00946 0.23920
#
# Static dielectric constant tensor:
#      x y z
#    x 3.594280 0.000000 0.000000 
#    y 0.000000 3.677910 0.000000 
#    z 0.000000 0.000000 3.812650 
# 
# 
# High freq. dielectric constant tensor:
#      x y z
#    x 1.765680 0.000000 0.000000 
#    y 0.000000 1.772180 0.000000 
#    z 0.000000 0.000000 1.781160 
# 
# From -- ./inp_files/61936.got.cif
#   From: 2010.06.25/outbox.cif.g09.slc.cpg/sg71_31_cif.got.tgz:61936.got - 2010.06.28 04:59:45.
