data_PCOD8288531
_publ_section_title
;
Structure prediction by ZEFSAII (Michael W. Deem and Ramdas Pophale) SiO2 
 PCOD8288531
Probable space group: I M M M
;
_chemical_formula_sum "Si O2"
_cell_formula_units_Z 128
_cell_length_a 30.986142
_cell_length_b 10.043873
_cell_length_c 24.256415
_cell_angle_alpha 90.000000
_cell_angle_beta 90.000000
_cell_angle_gamma 90.000000
_cell_volume 7549.102701
_symmetry_space_group_name_H-M "I M M M"
_symmetry_group_IT_number 71
_symmetry_cell_setting 'orthorhombic'
loop_
_space_group_symop_operation_xyz
x,y,z
-x,-y,z
x,-y,-z
-x,y,-z
-x,-y,-z
x,y,-z
-x,y,z
x,-y,z
1/2+x,1/2+y,1/2+z
1/2-x,1/2-y,1/2+z
1/2+x,1/2-y,1/2-z
1/2-x,1/2+y,1/2-z
1/2-x,1/2-y,1/2-z
1/2+x,1/2+y,1/2-z
1/2-x,1/2+y,1/2+z
1/2+x,1/2-y,1/2+z
loop_
_atom_site_type_symbol
_atom_site_label
_atom_site_fract_x
_atom_site_fract_y
_atom_site_fract_z
Si Si1 0.952009 0.841773 0.727709
Si Si2 0.211279 0.851722 0.750019
Si Si3 0.424208 0.345991 0.652465
Si Si4 0.673337 0.355078 0.367387
Si Si5 0.274670 0.149281 0.435674
Si Si6 0.949809 0.644796 0.060272
Si Si7 0.322366 0.658399 0.938862
Si Si8 0.866014 0.158306 0.328890
O O1 0.944548 0.793873 0.790344
O O2 0.913329 0.784592 0.688771
O O3 0.000000 0.793200 0.708184
O O4 0.949667 0.000000 0.726118
O O5 0.250000 0.750000 0.750000
O O6 0.201983 0.862934 0.813848
O O7 0.170978 0.795611 0.714129
O O8 0.224137 0.000000 0.727722
O O9 0.436217 0.500000 0.642603
O O10 0.373654 0.320450 0.654909
O O11 0.442043 0.262244 0.602385
O O12 0.673915 0.500000 0.397372
O O13 0.689918 0.243246 0.408568
O O14 0.284038 0.147619 0.500000
O O15 0.226342 0.204504 0.424162
O O16 0.279640 0.000000 0.411445
O O17 0.930903 0.500000 0.079704
O O18 0.000000 0.628325 0.053152
O O19 0.929766 0.681219 0.000000
O O20 0.322561 0.500000 0.941069
O O21 0.354476 0.710811 0.890771
O O22 0.336078 0.712717 0.000000
O O23 0.867969 0.000000 0.328290
#
# Coordination Sequence:
#
# PCOD8288531 Si02
#       8
#    16  16  16  16  16  16  16  16
#     4   9  16  27  45  67  89 117 155 196 238 284
#     4  10  19  31  47  68  95 127 159 194 236 282
#     4  10  19  32  48  68  93 120 156 200 238 279
#     4  10  20  32  45  65  96 124 153 197 243 283
#     4   9  18  32  48  67  91 123 167 205 230 275
#     4   9  19  35  51  67  89 117 151 193 241 289
#     4   8  14  25  43  66  89 116 153 193 228 269
#     4   9  15  26  44  65  91 120 151 191 236 279
#
# _framework density 16.955658
#
# number of rings (size 3 to 8) (size 9 to 14) (size 15 to 20)
#    0.000    2.750    1.250    2.250    0.000    3.750 
#    0.000    3.125    0.000    0.375    0.000    2.625 
#    0.000    0.000    0.000    0.000    0.000    0.000 
#
# Total GULP energy -792932.470557 kJ/mol
# GULP energy per Si atom -12389.569852 kJ/mol
# Density = 1.691707 g / cm^3
# Si number density = 16.955658 Si / 1000 Ang^3
#
#
#
# Elastic Constant Matrix: (Units=GPa)
#
#
# Indices 1 2 3 4 5 6 
#
# 1 97.7572 35.2014 27.0463 0.0000 0.0000 0.0000
# 2 35.2014 43.6088 31.3511 0.0000 0.0000 0.0000
# 3 27.0463 31.3511 55.7572 0.0000 0.0000 0.0000
# 4 0.0000 0.0000 0.0000 15.2328 0.0000 0.0000
# 5 0.0000 0.0000 0.0000 0.0000 30.7059 0.0000
# 6 0.0000 0.0000 0.0000 0.0000 0.0000 20.7405
#
#
#
# Elastic Compliance Matrix: (Units=1/GPa)
#
#
# Indices 1 2 3 4 5 6 
#
# 1 0.014440 -0.011113 -0.000756 0.000000 0.000000 0.000000
# 2 -0.011113 0.047042 -0.021060 0.000000 0.000000 0.000000
# 3 -0.000756 -0.021060 0.030143 0.000000 0.000000 0.000000
# 4 0.000000 0.000000 0.000000 0.065648 0.000000 0.000000
# 5 0.000000 0.000000 0.000000 0.000000 0.032567 0.000000
# 6 0.000000 0.000000 0.000000 0.000000 0.000000 0.048215
#
#
# Mechanical properties :
#
#
# Convention : Reuss Voigt Hill
#
# Bulk Modulus (GPa) = 38.80859 42.70230 40.75544
# Shear Modulus (GPa) = 15.99985 20.23745 18.11865
#
# Velocity S-wave (km/s) = 3.07519 3.45853 3.27248
# Velocity P-wave (km/s) = 5.96213 6.41778 6.19415
#
# Compressibility (1/GPa) = 0.02576749
#
# Stress axis : x y z
#
# Youngs Moduli (GPa) = 69.25118 21.25757 33.17467
#
# Poissons Ratio (x) = 0.23623 0.02508
# Poissons Ratio (y) = 0.76957 0.69867
# Poissons Ratio (z) = 0.05236 0.44769
#
# Static dielectric constant tensor:
#      x y z
#    x 3.245550 0.000000 0.000000 
#    y 0.000000 3.135220 0.000000 
#    z 0.000000 0.000000 3.080220 
# 
# 
# High freq. dielectric constant tensor:
#      x y z
#    x 1.649510 0.000000 0.000000 
#    y 0.000000 1.611150 0.000000 
#    z 0.000000 0.000000 1.652700 
# 
# From -- ./inp_files/62161.got.cif
#   From: 2010.06.25/outbox.cif.g09.slc.cpg/sg71_32_cif.got.tgz:62161.got - 2010.06.28 04:59:45.
