data_PCOD8288283
_publ_section_title
;
Structure prediction by ZEFSAII (Michael W. Deem and Ramdas Pophale) SiO2 
 PCOD8288283
Probable space group: I M M M
;
_chemical_formula_sum "Si O2"
_cell_formula_units_Z 80
_cell_length_a 19.057388
_cell_length_b 20.424571
_cell_length_c 13.804917
_cell_angle_alpha 90.000000
_cell_angle_beta 90.000000
_cell_angle_gamma 90.000000
_cell_volume 5373.411733
_symmetry_space_group_name_H-M "I M M M"
_symmetry_group_IT_number 71
_symmetry_cell_setting 'orthorhombic'
loop_
_space_group_symop_operation_xyz
x,y,z
-x,-y,z
x,-y,-z
-x,y,-z
-x,-y,-z
x,y,-z
-x,y,z
x,-y,z
1/2+x,1/2+y,1/2+z
1/2-x,1/2-y,1/2+z
1/2+x,1/2-y,1/2-z
1/2-x,1/2+y,1/2-z
1/2-x,1/2-y,1/2-z
1/2+x,1/2+y,1/2-z
1/2-x,1/2+y,1/2+z
1/2+x,1/2-y,1/2+z
loop_
_atom_site_type_symbol
_atom_site_label
_atom_site_fract_x
_atom_site_fract_y
_atom_site_fract_z
Si Si1 0.417975 0.621629 0.268409
Si Si2 0.418964 0.249253 0.387769
Si Si3 0.814879 0.076989 0.386523
Si Si4 0.336500 0.877599 0.614673
Si Si5 0.078532 0.500000 0.884144
Si Si6 0.416705 0.500000 0.392971
O O1 0.500000 0.614509 0.245763
O O2 0.400533 0.689435 0.320772
O O3 0.377766 0.614511 0.167063
O O4 0.390282 0.564402 0.338275
O O5 0.404395 0.267346 0.500000
O O6 0.500000 0.227775 0.375452
O O7 0.368525 0.191269 0.350203
O O8 0.827321 0.087046 0.500000
O O9 0.743364 0.112134 0.351349
O O10 0.812297 0.000000 0.360977
O O11 0.340942 0.881463 0.500000
O O12 0.383079 0.936135 0.658299
O O13 0.000000 0.500000 0.843861
O O14 0.080030 0.500000 0.000000
O O15 0.500000 0.500000 0.399951
O O16 0.383450 0.500000 0.500000
#
# Coordination Sequence:
#
# PCOD8288283 Si02
#       6
#    16  16  16  16   8   8
#     4  10  19  30  44  63  84 113 151 184 216 255
#     4   9  17  29  45  66  92 115 137 173 219 266
#     4  10  19  31  45  61  86 117 149 186 217 245
#     4   9  16  27  42  62  87 115 143 171 211 260
#     4   9  14  21  38  62  85 110 140 170 203 252
#     4   9  16  27  43  61  81 106 139 177 214 253
#
# _framework density 14.888120000000001
#
# number of rings (size 3 to 8) (size 9 to 14) (size 15 to 20)
#    0.000    2.600    2.000    1.200    0.000    6.000 
#    0.000    1.000    0.000    0.000    0.000    0.000 
#    0.000    0.000    0.000    0.000    0.000   21.000 
#
# Total GULP energy -495909.535543 kJ/mol
# GULP energy per Si atom -12397.738389 kJ/mol
# Density = 1.485423 g / cm^3
# Si number density = 14.888120 Si / 1000 Ang^3
#
#
#
# Elastic Constant Matrix: (Units=GPa)
#
#
# Indices 1 2 3 4 5 6 
#
# 1 89.5911 64.0274 43.9935 0.0000 0.0000 0.0000
# 2 64.0274 121.4536 42.2473 0.0000 0.0000 0.0000
# 3 43.9935 42.2473 52.8849 0.0000 0.0000 0.0000
# 4 0.0000 0.0000 0.0000 11.7325 0.0000 0.0000
# 5 0.0000 0.0000 0.0000 0.0000 15.7355 0.0000
# 6 0.0000 0.0000 0.0000 0.0000 0.0000 25.5275
#
#
#
# Elastic Compliance Matrix: (Units=1/GPa)
#
#
# Indices 1 2 3 4 5 6 
#
# 1 0.022998 -0.007574 -0.013081 0.000000 0.000000 0.000000
# 2 -0.007574 0.013896 -0.004801 0.000000 0.000000 0.000000
# 3 -0.013081 -0.004801 0.033626 0.000000 0.000000 0.000000
# 4 0.000000 0.000000 0.000000 0.085233 0.000000 0.000000
# 5 0.000000 0.000000 0.000000 0.000000 0.063551 0.000000
# 6 0.000000 0.000000 0.000000 0.000000 0.000000 0.039173
#
#
# Mechanical properties :
#
#
# Convention : Reuss Voigt Hill
#
# Bulk Modulus (GPa) = 50.99690 62.71844 56.85767
# Shear Modulus (GPa) = 15.82659 18.17653 17.00156
#
# Velocity S-wave (km/s) = 3.26396 3.49789 3.38295
# Velocity P-wave (km/s) = 6.96652 7.65060 7.31656
#
# Compressibility (1/GPa) = 0.01960904
#
# Stress axis : x y z
#
# Youngs Moduli (GPa) = 43.48226 71.96227 29.73924
#
# Poissons Ratio (x) = 0.54503 0.38902
# Poissons Ratio (y) = 0.32932 0.14277
# Poissons Ratio (z) = 0.56879 0.34546
#
# Static dielectric constant tensor:
#      x y z
#    x 2.866120 0.000000 0.000000 
#    y 0.000000 2.999010 0.000000 
#    z 0.000000 0.000000 2.568500 
# 
# 
# High freq. dielectric constant tensor:
#      x y z
#    x 1.563680 0.000000 0.000000 
#    y 0.000000 1.578760 0.000000 
#    z 0.000000 0.000000 1.527880 
# 
# From -- ./inp_files/36266.got.cif
#   From: 2010.06.25/outbox.cif.g09.slc.cpg/sg71_19_cif.got.tgz:36266.got - 2010.06.28 04:59:45.
