data_PCOD8288910
_publ_section_title
;
Structure prediction by ZEFSAII (Michael W. Deem and Ramdas Pophale) SiO2 
 PCOD8288910
Probable space group: I M M M
;
_chemical_formula_sum "Si O2"
_cell_formula_units_Z 120
_cell_length_a 13.589754
_cell_length_b 30.560696
_cell_length_c 14.747661
_cell_angle_alpha 90.000000
_cell_angle_beta 90.000000
_cell_angle_gamma 90.000000
_cell_volume 6124.885610
_symmetry_space_group_name_H-M "I M M M"
_symmetry_group_IT_number 71
_symmetry_cell_setting 'orthorhombic'
loop_
_space_group_symop_operation_xyz
x,y,z
-x,-y,z
x,-y,-z
-x,y,-z
-x,-y,-z
x,y,-z
-x,y,z
x,-y,z
1/2+x,1/2+y,1/2+z
1/2-x,1/2-y,1/2+z
1/2+x,1/2-y,1/2-z
1/2-x,1/2+y,1/2-z
1/2-x,1/2-y,1/2-z
1/2+x,1/2+y,1/2-z
1/2-x,1/2+y,1/2+z
1/2+x,1/2-y,1/2+z
loop_
_atom_site_type_symbol
_atom_site_label
_atom_site_fract_x
_atom_site_fract_y
_atom_site_fract_z
Si Si1 0.116125 0.788497 0.103082
Si Si2 0.107486 0.757955 0.603987
Si Si3 0.611127 0.166265 0.849606
Si Si4 0.111120 0.500000 0.607766
Si Si5 0.109450 0.689857 0.144602
Si Si6 0.765740 0.582654 0.396266
Si Si7 0.882972 0.872325 0.781872
Si Si8 0.302112 0.654005 0.899413
O O1 0.144474 0.740729 0.143516
O O2 0.154571 0.827386 0.169337
O O3 0.000000 0.793570 0.099100
O O4 0.158394 0.793111 0.000000
O O5 0.092564 0.768612 0.500000
O O6 0.163318 0.711699 0.617091
O O7 0.163669 0.799419 0.643427
O O8 0.000000 0.754920 0.653298
O O9 0.500000 0.163938 0.888848
O O10 0.610447 0.167757 0.742240
O O11 0.668831 0.125866 0.889443
O O12 0.104447 0.500000 0.500000
O O13 0.169878 0.542556 0.642590
O O14 0.000000 0.500000 0.648296
O O15 0.184416 0.659114 0.088779
O O16 0.000000 0.686690 0.101579
O O17 0.735288 0.574183 0.500000
O O18 0.665646 0.587822 0.338309
O O19 0.840892 0.878343 0.678858
O O20 0.000000 0.877552 0.780979
O O21 0.344078 0.641475 0.000000
#
# Coordination Sequence:
#
# PCOD8288910 Si02
#       8
#    16  16  16   8  16  16  16  16
#     4   9  18  32  49  71 106 154 197 234 281 332
#     4   9  18  30  44  68 102 142 189 235 276 318
#     4  10  19  32  51  77 109 144 186 237 283 324
#     4   9  20  40  65  93 124 153 179 213 267 339
#     4  10  20  33  48  71 106 146 194 245 289 331
#     4  11  22  37  60  88 117 149 182 217 270 339
#     4  11  23  38  55  80 113 149 194 243 282 327
#     4  11  22  35  53  75 106 152 199 241 290 333
#
# _framework density 19.592202
#
# number of rings (size 3 to 8) (size 9 to 14) (size 15 to 20)
#    0.000    1.933    1.333    2.800    1.867    6.933 
#    0.000    0.333    0.000    1.200    0.000    0.467 
#    0.000    1.600    0.000    0.000    0.000    0.000 
#
# Total GULP energy -743558.613050 kJ/mol
# GULP energy per Si atom -12392.643551 kJ/mol
# Density = 1.954761 g / cm^3
# Si number density = 19.592202 Si / 1000 Ang^3
#
#
#
# Elastic Constant Matrix: (Units=GPa)
#
#
# Indices 1 2 3 4 5 6 
#
# 1 80.6780 34.1303 34.6056 -0.0003 0.0000 0.0001
# 2 34.1303 59.8640 26.9582 -0.0003 0.0000 0.0001
# 3 34.6056 26.9582 91.5198 -0.0029 0.0030 0.0002
# 4 -0.0003 -0.0003 -0.0029 15.2837 0.0004 0.0000
# 5 0.0000 0.0000 0.0030 0.0004 21.2440 -0.0004
# 6 0.0001 0.0001 0.0002 0.0000 -0.0004 27.0906
#
#
#
# Elastic Compliance Matrix: (Units=1/GPa)
#
#
# Indices 1 2 3 4 5 6 
#
# 1 0.017681 -0.008151 -0.004285 -0.000001 0.000001 0.000000
# 2 -0.008151 0.023017 -0.003698 0.000000 0.000001 0.000000
# 3 -0.004285 -0.003698 0.013636 0.000002 -0.000002 0.000000
# 4 -0.000001 0.000000 0.000002 0.065429 -0.000001 0.000000
# 5 0.000001 0.000001 -0.000002 -0.000001 0.047072 0.000001
# 6 0.000000 0.000000 0.000000 0.000000 0.000001 0.036913
#
#
# Mechanical properties :
#
#
# Convention : Reuss Voigt Hill
#
# Bulk Modulus (GPa) = 45.31662 47.05000 46.18331
# Shear Modulus (GPa) = 20.54478 21.81482 21.17980
#
# Velocity S-wave (km/s) = 3.24175 3.34045 3.29147
# Velocity P-wave (km/s) = 6.09853 6.24059 6.16997
#
# Compressibility (1/GPa) = 0.02206696
#
# Stress axis : x y z
#
# Youngs Moduli (GPa) = 56.55786 43.44639 73.33563
#
# Poissons Ratio (x) = 0.35413 0.31421
# Poissons Ratio (y) = 0.46100 0.27118
# Poissons Ratio (z) = 0.24233 0.16066
#
# Static dielectric constant tensor:
#      x y z
#    x 3.922000 0.000000 0.000000 
#    y 0.000000 3.170920 0.000000 
#    z 0.000000 0.000000 3.491330 
# 
# 
# High freq. dielectric constant tensor:
#      x y z
#    x 1.781090 0.000000 0.000000 
#    y 0.000000 1.695070 0.000000 
#    z 0.000000 0.000000 1.759430 
# 
# From -- ./inp_files/35437.got.cif
#   From: 2010.06.25/outbox.cif.g09.slc.cpg/sg71_18_cif.got.tgz:35437.got - 2010.06.28 04:59:45.
