data_PCOD8288613
_publ_section_title
;
Structure prediction by ZEFSAII (Michael W. Deem and Ramdas Pophale) SiO2 
 PCOD8288613
Probable space group: I M M M
;
_chemical_formula_sum "Si O2"
_cell_formula_units_Z 88
_cell_length_a 18.022233
_cell_length_b 30.526752
_cell_length_c 9.088239
_cell_angle_alpha 90.000000
_cell_angle_beta 90.000000
_cell_angle_gamma 90.000000
_cell_volume 4999.987725
_symmetry_space_group_name_H-M "I M M M"
_symmetry_group_IT_number 71
_symmetry_cell_setting 'orthorhombic'
loop_
_space_group_symop_operation_xyz
x,y,z
-x,-y,z
x,-y,-z
-x,y,-z
-x,-y,-z
x,y,-z
-x,y,z
x,-y,z
1/2+x,1/2+y,1/2+z
1/2-x,1/2-y,1/2+z
1/2+x,1/2-y,1/2-z
1/2-x,1/2+y,1/2-z
1/2-x,1/2-y,1/2-z
1/2+x,1/2+y,1/2-z
1/2-x,1/2+y,1/2+z
1/2+x,1/2-y,1/2+z
loop_
_atom_site_type_symbol
_atom_site_label
_atom_site_fract_x
_atom_site_fract_y
_atom_site_fract_z
Si Si1 0.301700 0.614192 0.174747
Si Si2 0.656263 0.912702 0.827050
Si Si3 0.264978 0.205441 0.331056
Si Si4 0.586906 0.549828 0.328719
Si Si5 0.417258 0.838034 0.332359
Si Si6 0.919623 0.500000 0.673486
O O1 0.230539 0.589392 0.233819
O O2 0.288993 0.665412 0.223008
O O3 0.372865 0.589342 0.241817
O O4 0.306395 0.610876 0.000000
O O5 0.594784 0.877263 0.781606
O O6 0.625038 0.958420 0.774491
O O7 0.673256 0.909003 0.000000
O O8 0.248162 0.213616 0.500000
O O9 0.250000 0.250000 0.250000
O O10 0.352296 0.196792 0.302410
O O11 0.605837 0.555389 0.500000
O O12 0.500000 0.556066 0.299259
O O13 0.610280 0.500000 0.279248
O O14 0.409781 0.855338 0.500000
O O15 0.500000 0.818021 0.305838
O O16 0.929361 0.500000 0.500000
O O17 0.000000 0.500000 0.749742
#
# Coordination Sequence:
#
# PCOD8288613 Si02
#       6
#    16  16  16  16  16   8
#     4  10  21  36  53  77 107 138 173 215 264 318
#     4  10  19  31  49  72  99 134 174 213 249 293
#     4   9  19  35  54  76 103 134 171 217 268 320
#     4   9  19  36  57  81 109 141 180 225 269 317
#     4   9  18  34  53  73 100 131 165 210 262 313
#     4   9  18  30  43  65  98 131 164 205 247 282
#
# _framework density 17.600042999999999
#
# number of rings (size 3 to 8) (size 9 to 14) (size 15 to 20)
#    0.000    2.636    0.000    3.273    1.273    5.455 
#    0.000    3.182    0.000    6.545    0.000    0.000 
#    0.000    0.000    0.000    0.000    0.000    0.000 
#
# Total GULP energy -545173.624312 kJ/mol
# GULP energy per Si atom -12390.309643 kJ/mol
# Density = 1.755998 g / cm^3
# Si number density = 17.600043 Si / 1000 Ang^3
#
#
#
# Elastic Constant Matrix: (Units=GPa)
#
#
# Indices 1 2 3 4 5 6 
#
# 1 104.3465 72.7286 42.7092 -0.0029 0.0008 0.0004
# 2 72.7286 147.3440 57.7161 -0.0040 0.0003 0.0000
# 3 42.7092 57.7161 57.4957 -0.0085 -0.0020 0.0023
# 4 -0.0029 -0.0040 -0.0085 29.2490 -0.0009 0.0000
# 5 0.0008 0.0003 -0.0020 -0.0009 29.9728 -0.0016
# 6 0.0004 0.0000 0.0023 0.0000 -0.0016 24.2717
#
#
#
# Elastic Compliance Matrix: (Units=1/GPa)
#
#
# Indices 1 2 3 4 5 6 
#
# 1 0.015961 -0.005330 -0.006506 -0.000001 -0.000001 0.000000
# 2 -0.005330 0.012965 -0.009055 -0.000001 -0.000001 0.000001
# 3 -0.006506 -0.009055 0.031315 0.000007 0.000002 -0.000003
# 4 -0.000001 -0.000001 0.000007 0.034189 0.000001 0.000000
# 5 -0.000001 -0.000001 0.000002 0.000001 0.033364 0.000002
# 6 0.000000 0.000001 -0.000003 0.000000 0.000002 0.041200
#
#
# Mechanical properties :
#
#
# Convention : Reuss Voigt Hill
#
# Bulk Modulus (GPa) = 54.17417 72.83270 63.50343
# Shear Modulus (GPa) = 23.04890 25.76750 24.40820
#
# Velocity S-wave (km/s) = 3.62276 3.83045 3.72805
# Velocity P-wave (km/s) = 6.95318 7.81250 7.39533
#
# Compressibility (1/GPa) = 0.01845898
#
# Stress axis : x y z
#
# Youngs Moduli (GPa) = 62.65128 77.13246 31.93319
#
# Poissons Ratio (x) = 0.41112 0.20776
# Poissons Ratio (y) = 0.33393 0.28916
# Poissons Ratio (z) = 0.40761 0.69845
#
# Static dielectric constant tensor:
#      x y z
#    x 3.496500 0.000000 0.000000 
#    y 0.000000 3.309360 -0.000010 
#    z 0.000000 -0.000010 3.241170 
# 
# 
# High freq. dielectric constant tensor:
#      x y z
#    x 1.683520 0.000000 0.000000 
#    y 0.000000 1.672210 0.000000 
#    z 0.000000 0.000000 1.675730 
# 
# From -- ./inp_files/8856.got.cif
#   From: 2010.06.25/outbox.cif.g09.slc.cpg/sg71_5_cif.got.tgz:8856.got - 2010.06.28 04:59:45.
