data_PCOD8288097
_publ_section_title
;
Structure prediction by ZEFSAII (Michael W. Deem and Ramdas Pophale) SiO2 
 PCOD8288097
Probable space group: I M M M
;
_chemical_formula_sum "Si O2"
_cell_formula_units_Z 88
_cell_length_a 22.353016
_cell_length_b 9.029115
_cell_length_c 34.538681
_cell_angle_alpha 90.000000
_cell_angle_beta 90.000000
_cell_angle_gamma 90.000000
_cell_volume 6970.871253
_symmetry_space_group_name_H-M "I M M M"
_symmetry_group_IT_number 71
_symmetry_cell_setting 'orthorhombic'
loop_
_space_group_symop_operation_xyz
x,y,z
-x,-y,z
x,-y,-z
-x,y,-z
-x,-y,-z
x,y,-z
-x,y,z
x,-y,z
1/2+x,1/2+y,1/2+z
1/2-x,1/2-y,1/2+z
1/2+x,1/2-y,1/2-z
1/2-x,1/2+y,1/2-z
1/2-x,1/2-y,1/2-z
1/2+x,1/2+y,1/2-z
1/2-x,1/2+y,1/2+z
1/2+x,1/2-y,1/2+z
loop_
_atom_site_type_symbol
_atom_site_label
_atom_site_fract_x
_atom_site_fract_y
_atom_site_fract_z
Si Si1 0.260000 0.336443 0.191923
Si Si2 0.429775 0.173008 0.922510
Si Si3 0.430984 0.170005 0.775366
Si Si4 0.877259 0.176023 0.348210
Si Si5 0.070969 0.832882 0.500000
Si Si6 0.836114 0.835638 0.230315
O O1 0.236255 0.500000 0.181672
O O2 0.307673 0.282479 0.159729
O O3 0.202455 0.229725 0.194494
O O4 0.294587 0.340900 0.232319
O O5 0.500000 0.200605 0.916334
O O6 0.394102 0.252601 0.888660
O O7 0.406515 0.245010 0.962324
O O8 0.414596 0.000000 0.923043
O O9 0.500000 0.184307 0.764067
O O10 0.419434 0.259249 0.814739
O O11 0.393704 0.234918 0.739251
O O12 0.412099 0.000000 0.782170
O O13 0.886758 0.000000 0.349073
O O14 0.000000 0.837162 0.500000
O O15 0.096941 0.000000 0.500000
O O16 0.857638 0.000000 0.218843
#
# Coordination Sequence:
#
# PCOD8288097 Si02
#       6
#    16  16  16  16   8  16
#     4   8  15  26  37  50  67  86 109 137 170 206
#     4  10  19  29  40  54  72  92 113 140 176 214
#     4  10  19  28  37  50  69  92 115 141 176 213
#     4  10  19  28  39  54  70  89 113 143 177 210
#     4   9  17  29  43  55  67  87 115 143 170 205
#     4   9  16  25  38  52  65  85 111 139 170 204
#
# _framework density 12.623961
#
# number of rings (size 3 to 8) (size 9 to 14) (size 15 to 20)
#    0.000    2.636    0.000    4.091    0.000   10.909 
#    0.000    0.000    0.000    0.000    0.000    0.000 
#    0.000    0.000    0.000    0.000    0.000    0.000 
#
# Total GULP energy -545473.845022 kJ/mol
# GULP energy per Si atom -12397.132841 kJ/mol
# Density = 1.259523 g / cm^3
# Si number density = 12.623961 Si / 1000 Ang^3
#
#
#
# Elastic Constant Matrix: (Units=GPa)
#
#
# Indices 1 2 3 4 5 6 
#
# 1 56.2308 46.1490 42.3514 0.0000 0.0000 0.0000
# 2 46.1490 106.3195 47.4017 0.0000 0.0000 0.0000
# 3 42.3514 47.4017 62.6195 0.0000 0.0000 0.0000
# 4 0.0000 0.0000 0.0000 20.7562 0.0000 0.0000
# 5 0.0000 0.0000 0.0000 0.0000 16.6792 0.0000
# 6 0.0000 0.0000 0.0000 0.0000 0.0000 19.4549
#
#
#
# Elastic Compliance Matrix: (Units=1/GPa)
#
#
# Indices 1 2 3 4 5 6 
#
# 1 0.040373 -0.008076 -0.021192 0.000000 0.000000 0.000000
# 2 -0.008076 0.015812 -0.006508 0.000000 0.000000 0.000000
# 3 -0.021192 -0.006508 0.035229 0.000000 0.000000 0.000000
# 4 0.000000 0.000000 0.000000 0.048178 0.000000 0.000000
# 5 0.000000 0.000000 0.000000 0.000000 0.059955 0.000000
# 6 0.000000 0.000000 0.000000 0.000000 0.000000 0.051401
#
#
# Mechanical properties :
#
#
# Convention : Reuss Voigt Hill
#
# Bulk Modulus (GPa) = 50.34627 55.21933 52.78280
# Shear Modulus (GPa) = 15.19198 17.32926 16.26062
#
# Velocity S-wave (km/s) = 3.47280 3.70905 3.59287
# Velocity P-wave (km/s) = 7.48656 7.88539 7.68856
#
# Compressibility (1/GPa) = 0.01986244
#
# Stress axis : x y z
#
# Youngs Moduli (GPa) = 24.76885 63.24122 28.38599
#
# Poissons Ratio (x) = 0.51073 0.60156
# Poissons Ratio (y) = 0.20003 0.18473
# Poissons Ratio (z) = 0.52491 0.41155
#
# Static dielectric constant tensor:
#      x y z
#    x 2.480110 0.000000 0.000000 
#    y 0.000000 2.841550 0.000000 
#    z 0.000000 0.000000 2.406870 
# 
# 
# High freq. dielectric constant tensor:
#      x y z
#    x 1.450850 0.000000 0.000000 
#    y 0.000000 1.502100 0.000000 
#    z 0.000000 0.000000 1.440950 
# 
# From -- ./inp_files/11394.got.cif
#   From: 2010.06.25/outbox.cif.g09.slc.cpg/sg71_6_cif.got.tgz:11394.got - 2010.06.28 04:59:45.
