data_PCOD8288539
_publ_section_title
;
Structure prediction by ZEFSAII (Michael W. Deem and Ramdas Pophale) SiO2 
 PCOD8288539
Probable space group: I M M M
;
_chemical_formula_sum "Si O2"
_cell_formula_units_Z 88
_cell_length_a 29.535592
_cell_length_b 17.985022
_cell_length_c 9.218807
_cell_angle_alpha 90.000000
_cell_angle_beta 90.000000
_cell_angle_gamma 90.000000
_cell_volume 4897.014347
_symmetry_space_group_name_H-M "I M M M"
_symmetry_group_IT_number 71
_symmetry_cell_setting 'orthorhombic'
loop_
_space_group_symop_operation_xyz
x,y,z
-x,-y,z
x,-y,-z
-x,y,-z
-x,-y,-z
x,y,-z
-x,y,z
x,-y,z
1/2+x,1/2+y,1/2+z
1/2-x,1/2-y,1/2+z
1/2+x,1/2-y,1/2-z
1/2-x,1/2+y,1/2-z
1/2-x,1/2-y,1/2-z
1/2+x,1/2+y,1/2-z
1/2-x,1/2+y,1/2+z
1/2+x,1/2-y,1/2+z
loop_
_atom_site_type_symbol
_atom_site_label
_atom_site_fract_x
_atom_site_fract_y
_atom_site_fract_z
Si Si1 0.791249 0.284284 0.835688
Si Si2 0.764864 0.081863 0.664177
Si Si3 0.053864 0.500000 0.165486
Si Si4 0.147057 0.083295 0.169188
Si Si5 0.553586 0.853404 0.167001
Si Si6 0.389100 0.263587 0.329782
O O1 0.750000 0.250000 0.750000
O O2 0.781685 0.372338 0.823444
O O3 0.840734 0.267269 0.773108
O O4 0.789111 0.254664 0.000000
O O5 0.783153 0.082707 0.500000
O O6 0.806304 0.112698 0.760515
O O7 0.752081 0.000000 0.718038
O O8 0.071762 0.573790 0.247687
O O9 0.000000 0.500000 0.167526
O O10 0.072106 0.500000 0.000000
O O11 0.109101 0.146783 0.201143
O O12 0.132992 0.000000 0.226469
O O13 0.156379 0.079324 0.000000
O O14 0.500000 0.847951 0.179266
O O15 0.572677 0.777971 0.238199
O O16 0.569057 0.859347 0.000000
O O17 0.396529 0.246800 0.500000
#
# Coordination Sequence:
#
# PCOD8288539 Si02
#       6
#    16  16   8  16  16  16
#     4  10  19  31  47  70 100 133 170 210 255 304
#     4   9  17  29  45  65  93 131 171 207 247 296
#     4   9  17  33  59  85 107 135 169 205 251 305
#     4   9  17  30  49  72  99 131 171 217 258 302
#     4  10  21  37  57  80 106 135 170 213 258 306
#     4  10  20  33  50  76 104 134 175 216 262 316
#
# _framework density 17.970133000000001
#
# number of rings (size 3 to 8) (size 9 to 14) (size 15 to 20)
#    0.000    2.455    1.818    0.818    0.000    3.636 
#    1.636    0.000    0.000    0.545    0.000    3.818 
#    0.000    0.000    0.000    0.000    0.000    0.000 
#
# Total GULP energy -545279.306777 kJ/mol
# GULP energy per Si atom -12392.711518 kJ/mol
# Density = 1.792923 g / cm^3
# Si number density = 17.970133 Si / 1000 Ang^3
#
#
#
# Elastic Constant Matrix: (Units=GPa)
#
#
# Indices 1 2 3 4 5 6 
#
# 1 33.9169 31.4811 26.4161 0.0000 0.0000 0.0000
# 2 31.4811 113.7595 46.5568 0.0000 0.0000 0.0000
# 3 26.4161 46.5568 74.6769 0.0000 0.0000 0.0000
# 4 0.0000 0.0000 0.0000 27.4567 0.0000 0.0000
# 5 0.0000 0.0000 0.0000 0.0000 25.3033 0.0000
# 6 0.0000 0.0000 0.0000 0.0000 0.0000 28.5346
#
#
#
# Elastic Compliance Matrix: (Units=1/GPa)
#
#
# Indices 1 2 3 4 5 6 
#
# 1 0.045635 -0.008085 -0.011102 0.000000 0.000000 0.000000
# 2 -0.008085 0.013234 -0.005391 0.000000 0.000000 0.000000
# 3 -0.011102 -0.005391 0.020679 0.000000 0.000000 0.000000
# 4 0.000000 0.000000 0.000000 0.036421 0.000000 0.000000
# 5 0.000000 0.000000 0.000000 0.000000 0.039521 0.000000
# 6 0.000000 0.000000 0.000000 0.000000 0.000000 0.035045
#
#
# Mechanical properties :
#
#
# Convention : Reuss Voigt Hill
#
# Bulk Modulus (GPa) = 32.90316 47.91795 40.41056
# Shear Modulus (GPa) = 20.01421 24.11887 22.06654
#
# Velocity S-wave (km/s) = 3.34091 3.66753 3.50802
# Velocity P-wave (km/s) = 5.76471 6.68263 6.24057
#
# Compressibility (1/GPa) = 0.03039222
#
# Stress axis : x y z
#
# Youngs Moduli (GPa) = 21.91281 75.56252 48.35791
#
# Poissons Ratio (x) = 0.61093 0.53689
# Poissons Ratio (y) = 0.17717 0.26068
# Poissons Ratio (z) = 0.24328 0.40733
#
# Static dielectric constant tensor:
#      x y z
#    x 2.977880 0.000000 0.000000 
#    y 0.000000 3.885860 0.000000 
#    z 0.000000 0.000000 3.364590 
# 
# 
# High freq. dielectric constant tensor:
#      x y z
#    x 1.648810 0.000000 0.000000 
#    y 0.000000 1.714800 0.000000 
#    z 0.000000 0.000000 1.694770 
# 
# From -- ./inp_files/16614.got.cif
#   From: 2010.06.25/outbox.cif.g09.slc.cpg/sg71_9_cif.got.tgz:16614.got - 2010.06.28 04:59:45.
