data_PCOD8288880
_publ_section_title
;
Structure prediction by ZEFSAII (Michael W. Deem and Ramdas Pophale) SiO2 
 PCOD8288880
Probable space group: I M M M
;
_chemical_formula_sum "Si O2"
_cell_formula_units_Z 88
_cell_length_a 27.112591
_cell_length_b 9.207489
_cell_length_c 19.350924
_cell_angle_alpha 90.000000
_cell_angle_beta 90.000000
_cell_angle_gamma 90.000000
_cell_volume 4830.743060
_symmetry_space_group_name_H-M "I M M M"
_symmetry_group_IT_number 71
_symmetry_cell_setting 'orthorhombic'
loop_
_space_group_symop_operation_xyz
x,y,z
-x,-y,z
x,-y,-z
-x,y,-z
-x,-y,-z
x,y,-z
-x,y,z
x,-y,z
1/2+x,1/2+y,1/2+z
1/2-x,1/2-y,1/2+z
1/2+x,1/2-y,1/2-z
1/2-x,1/2+y,1/2-z
1/2-x,1/2-y,1/2-z
1/2+x,1/2+y,1/2-z
1/2-x,1/2+y,1/2+z
1/2+x,1/2-y,1/2+z
loop_
_atom_site_type_symbol
_atom_site_label
_atom_site_fract_x
_atom_site_fract_y
_atom_site_fract_z
Si Si1 0.685799 0.162052 0.500000
Si Si2 0.795269 0.251784 0.500000
Si Si3 0.942065 0.331247 0.367268
Si Si4 0.902995 0.836421 0.500000
Si Si5 0.713156 0.160540 0.150239
Si Si6 0.677025 0.332992 0.365622
Si Si7 0.629824 0.669053 0.775652
O O1 0.745302 0.156947 0.500000
O O2 0.663582 0.239161 0.432372
O O3 0.665213 0.000000 0.500000
O O4 0.843810 0.151436 0.500000
O O5 0.795703 0.351256 0.567971
O O6 0.927382 0.500000 0.373314
O O7 0.922266 0.248618 0.433777
O O8 0.917286 0.262027 0.299319
O O9 0.000000 0.310295 0.360290
O O10 0.924317 0.000000 0.500000
O O11 0.769329 0.209297 0.165146
O O12 0.678296 0.280517 0.183527
O O13 0.702418 0.000000 0.181237
O O14 0.678090 0.500000 0.389115
O O15 0.636712 0.305070 0.306109
O O16 0.621495 0.500000 0.792853
#
# Coordination Sequence:
#
# PCOD8288880 Si02
#       7
#     8   8  16   8  16  16  16
#     4  10  20  33  53  80 110 142 180 220 256 307
#     4  10  20  31  49  77 108 145 183 223 264 304
#     4  11  25  42  58  77 104 139 181 229 277 323
#     4  12  23  36  57  80 106 139 183 233 274 313
#     4  10  19  32  51  74 106 145 183 219 259 312
#     4   9  20  36  52  76 109 144 175 211 262 317
#     4  11  22  35  54  78 106 138 176 221 268 319
#
# _framework density 18.216657999999999
#
# number of rings (size 3 to 8) (size 9 to 14) (size 15 to 20)
#    0.000    1.636    1.818    3.000    0.000    9.818 
#    0.000    0.000    0.000    0.000    0.000    0.636 
#    0.000    5.091    0.000    0.000    0.000    0.000 
#
# Total GULP energy -545631.869026 kJ/mol
# GULP energy per Si atom -12400.724296 kJ/mol
# Density = 1.817520 g / cm^3
# Si number density = 18.216658 Si / 1000 Ang^3
#
#
#
# Elastic Constant Matrix: (Units=GPa)
#
#
# Indices 1 2 3 4 5 6 
#
# 1 66.1027 42.7676 44.1092 0.0000 0.0000 0.0000
# 2 42.7676 123.1120 59.9330 0.0000 0.0000 0.0000
# 3 44.1092 59.9330 106.1919 0.0000 0.0000 0.0000
# 4 0.0000 0.0000 0.0000 23.5907 0.0000 0.0000
# 5 0.0000 0.0000 0.0000 0.0000 14.6158 0.0000
# 6 0.0000 0.0000 0.0000 0.0000 0.0000 22.1813
#
#
#
# Elastic Compliance Matrix: (Units=1/GPa)
#
#
# Indices 1 2 3 4 5 6 
#
# 1 0.022623 -0.004529 -0.006841 0.000000 0.000000 0.000000
# 2 -0.004529 0.012106 -0.004952 0.000000 0.000000 0.000000
# 3 -0.006841 -0.004952 0.015053 0.000000 0.000000 0.000000
# 4 0.000000 0.000000 0.000000 0.042390 0.000000 0.000000
# 5 0.000000 0.000000 0.000000 0.000000 0.068419 0.000000
# 6 0.000000 0.000000 0.000000 0.000000 0.000000 0.045083
#
#
# Mechanical properties :
#
#
# Convention : Reuss Voigt Hill
#
# Bulk Modulus (GPa) = 58.34347 65.44734 61.89541
# Shear Modulus (GPa) = 20.48930 21.98402 21.23666
#
# Velocity S-wave (km/s) = 3.35738 3.47768 3.41806
# Velocity P-wave (km/s) = 6.86487 7.22017 7.04476
#
# Compressibility (1/GPa) = 0.01713988
#
# Stress axis : x y z
#
# Youngs Moduli (GPa) = 44.20317 82.60118 66.43154
#
# Poissons Ratio (x) = 0.37406 0.45446
# Poissons Ratio (y) = 0.20018 0.32894
# Poissons Ratio (z) = 0.30240 0.40901
#
# Static dielectric constant tensor:
#      x y z
#    x 3.228060 0.000000 0.000000 
#    y 0.000000 3.359860 0.000000 
#    z 0.000000 0.000000 3.439720 
# 
# 
# High freq. dielectric constant tensor:
#      x y z
#    x 1.672020 0.000000 0.000000 
#    y 0.000000 1.715510 0.000000 
#    z 0.000000 0.000000 1.704060 
# 
# From -- ./inp_files/8937.got.cif
#   From: 2010.06.25/outbox.cif.g09.slc.cpg/sg71_5_cif.got.tgz:8937.got - 2010.06.28 04:59:45.
