data_PCOD8288451
_publ_section_title
;
Structure prediction by ZEFSAII (Michael W. Deem and Ramdas Pophale) SiO2 
 PCOD8288451
Probable space group: I M M M
;
_chemical_formula_sum "Si O2"
_cell_formula_units_Z 104
_cell_length_a 19.925741
_cell_length_b 8.840045
_cell_length_c 32.209959
_cell_angle_alpha 90.000000
_cell_angle_beta 90.000000
_cell_angle_gamma 90.000000
_cell_volume 5673.605419
_symmetry_space_group_name_H-M "I M M M"
_symmetry_group_IT_number 71
_symmetry_cell_setting 'orthorhombic'
loop_
_space_group_symop_operation_xyz
x,y,z
-x,-y,z
x,-y,-z
-x,y,-z
-x,-y,-z
x,y,-z
-x,y,z
x,-y,z
1/2+x,1/2+y,1/2+z
1/2-x,1/2-y,1/2+z
1/2+x,1/2-y,1/2-z
1/2-x,1/2+y,1/2-z
1/2-x,1/2-y,1/2-z
1/2+x,1/2+y,1/2-z
1/2-x,1/2+y,1/2+z
1/2+x,1/2-y,1/2+z
loop_
_atom_site_type_symbol
_atom_site_label
_atom_site_fract_x
_atom_site_fract_y
_atom_site_fract_z
Si Si1 0.572725 0.822978 0.846122
Si Si2 0.078192 0.820568 0.500000
Si Si3 0.195935 0.178950 0.100802
Si Si4 0.207446 0.327130 0.187584
Si Si5 0.842891 0.320184 0.423423
Si Si6 0.574246 0.320106 0.546663
Si Si7 0.833946 0.326258 0.274970
O O1 0.500000 0.744769 0.851580
O O2 0.624110 0.761636 0.880582
O O3 0.597798 0.788972 0.799465
O O4 0.565554 0.000000 0.853345
O O5 0.117145 0.758404 0.460254
O O6 0.000000 0.766562 0.500000
O O7 0.081797 0.000000 0.500000
O O8 0.188272 0.226663 0.148433
O O9 0.265241 0.233936 0.079169
O O10 0.132633 0.248299 0.075801
O O11 0.194539 0.000000 0.099873
O O12 0.208043 0.500000 0.172919
O O13 0.154811 0.300002 0.225624
O O14 0.279292 0.285788 0.206238
O O15 0.847498 0.500000 0.429466
O O16 0.586546 0.260678 0.500000
O O17 0.500000 0.267729 0.562059
O O18 0.577888 0.500000 0.547120
O O19 0.811106 0.500000 0.283248
#
# Coordination Sequence:
#
# PCOD8288451 Si02
#       7
#    16   8  16  16  16  16  16
#     4   9  16  29  51  75  98 127 169 217 254 288
#     4  11  25  41  53  71 106 145 172 208 265 315
#     4  10  19  32  54  80 106 133 167 214 257 300
#     4  10  19  30  49  74 103 134 165 206 255 302
#     4  10  20  34  55  79 101 131 176 221 255 297
#     4   8  15  29  51  78 103 129 166 210 255 302
#     4   9  17  32  50  71  98 131 172 210 248 296
#
# _framework density 18.330496
#
# number of rings (size 3 to 8) (size 9 to 14) (size 15 to 20)
#    0.000    2.538    1.538    1.615    1.077    2.462 
#    0.000    0.769    0.000    1.846    0.000    1.077 
#    0.000    0.000    0.000    0.000    0.000    0.000 
#
# Total GULP energy -644457.811093 kJ/mol
# GULP energy per Si atom -12393.419444 kJ/mol
# Density = 1.828877 g / cm^3
# Si number density = 18.330496 Si / 1000 Ang^3
#
#
#
# Elastic Constant Matrix: (Units=GPa)
#
#
# Indices 1 2 3 4 5 6 
#
# 1 156.3263 22.2465 84.8662 0.0000 0.0000 0.0000
# 2 22.2465 17.4962 20.3253 0.0000 0.0000 0.0000
# 3 84.8662 20.3253 131.7844 0.0000 0.0000 0.0000
# 4 0.0000 0.0000 0.0000 26.4371 0.0000 0.0000
# 5 0.0000 0.0000 0.0000 0.0000 21.9484 0.0000
# 6 0.0000 0.0000 0.0000 0.0000 0.0000 12.0020
#
#
#
# Elastic Compliance Matrix: (Units=1/GPa)
#
#
# Indices 1 2 3 4 5 6 
#
# 1 0.010435 -0.006654 -0.005693 0.000000 0.000000 0.000000
# 2 -0.006654 0.073874 -0.007109 0.000000 0.000000 0.000000
# 3 -0.005693 -0.007109 0.012351 0.000000 0.000000 0.000000
# 4 0.000000 0.000000 0.000000 0.037826 0.000000 0.000000
# 5 0.000000 0.000000 0.000000 0.000000 0.045561 0.000000
# 6 0.000000 0.000000 0.000000 0.000000 0.000000 0.083320
#
#
# Mechanical properties :
#
#
# Convention : Reuss Voigt Hill
#
# Bulk Modulus (GPa) = 17.31673 62.27588 39.79630
# Shear Modulus (GPa) = 15.55079 23.95544 19.75311
#
# Velocity S-wave (km/s) = 2.91581 3.61898 3.28626
# Velocity P-wave (km/s) = 4.56108 7.17707 6.01306
#
# Compressibility (1/GPa) = 0.05774763
#
# Stress axis : x y z
#
# Youngs Moduli (GPa) = 95.83519 13.53657 80.96497
#
# Poissons Ratio (x) = 0.09007 0.46097
# Poissons Ratio (y) = 0.63765 0.57558
# Poissons Ratio (z) = 0.54563 0.09623
#
# Static dielectric constant tensor:
#      x y z
#    x 3.690230 0.000000 0.000000 
#    y 0.000000 3.039720 0.000000 
#    z 0.000000 0.000000 3.616330 
# 
# 
# High freq. dielectric constant tensor:
#      x y z
#    x 1.705390 0.000000 0.000000 
#    y 0.000000 1.672890 0.000000 
#    z 0.000000 0.000000 1.719490 
# 
# From -- ./inp_files/70757.got.cif
#   From: 2010.06.25/outbox.cif.g09.slc.cpg/sg71_36_cif.got.tgz:70757.got - 2010.06.28 04:59:45.
