data_PCOD8288998
_publ_section_title
;
Structure prediction by ZEFSAII (Michael W. Deem and Ramdas Pophale) SiO2 
 PCOD8288998
Probable space group: I M M M
;
_chemical_formula_sum "Si O2"
_cell_formula_units_Z 96
_cell_length_a 23.218302
_cell_length_b 22.533833
_cell_length_c 10.080267
_cell_angle_alpha 90.000000
_cell_angle_beta 90.000000
_cell_angle_gamma 90.000000
_cell_volume 5273.968879
_symmetry_space_group_name_H-M "I M M M"
_symmetry_group_IT_number 71
_symmetry_cell_setting 'orthorhombic'
loop_
_space_group_symop_operation_xyz
x,y,z
-x,-y,z
x,-y,-z
-x,y,-z
-x,-y,-z
x,y,-z
-x,y,z
x,-y,z
1/2+x,1/2+y,1/2+z
1/2-x,1/2-y,1/2+z
1/2+x,1/2-y,1/2-z
1/2-x,1/2+y,1/2-z
1/2-x,1/2-y,1/2-z
1/2+x,1/2+y,1/2-z
1/2-x,1/2+y,1/2+z
1/2+x,1/2-y,1/2+z
loop_
_atom_site_type_symbol
_atom_site_label
_atom_site_fract_x
_atom_site_fract_y
_atom_site_fract_z
Si Si1 0.832147 0.784697 0.344791
Si Si2 0.432202 0.564877 0.000000
Si Si3 0.567921 0.357173 0.246292
Si Si4 0.432061 0.432535 0.500000
Si Si5 0.063624 0.429562 0.147392
Si Si6 0.656265 0.067515 0.149356
Si Si7 0.238423 0.670694 0.649465
O O1 0.831667 0.803177 0.500000
O O2 0.894814 0.797117 0.277219
O O3 0.815094 0.715917 0.327563
O O4 0.786140 0.823298 0.262430
O O5 0.412860 0.599718 0.870925
O O6 0.402858 0.500000 0.000000
O O7 0.500000 0.557358 0.000000
O O8 0.500000 0.340667 0.247541
O O9 0.587695 0.393507 0.375235
O O10 0.405587 0.500000 0.500000
O O11 0.500000 0.439936 0.500000
O O12 0.061245 0.500000 0.157870
O O13 0.108117 0.404228 0.254536
O O14 0.000000 0.403721 0.177347
O O15 0.083478 0.410119 0.000000
O O16 0.714704 0.104351 0.163938
O O17 0.671216 0.000000 0.188505
O O18 0.631852 0.071574 0.000000
O O19 0.263636 0.680817 0.500000
#
# Coordination Sequence:
#
# PCOD8288998 Si02
#       7
#    16   8  16   8  16  16  16
#     4  10  20  36  56  77 100 133 179 216 253 309
#     4   9  16  28  48  73 104 140 169 198 248 310
#     4  10  19  32  53  79 107 137 170 216 263 308
#     4   9  18  32  50  75 108 144 177 204 248 318
#     4   8  14  25  43  68  98 131 162 193 239 301
#     4   9  17  31  51  74 100 128 164 211 260 305
#     4   9  20  37  56  74  98 137 178 217 258 308
#
# _framework density 18.20261
#
# number of rings (size 3 to 8) (size 9 to 14) (size 15 to 20)
#    0.000    2.833    0.833    1.000    1.167    3.000 
#    0.000    4.167    0.000    3.000    0.000    0.000 
#    0.000    0.000    0.000    0.000    0.000    0.000 
#
# Total GULP energy -594850.697830 kJ/mol
# GULP energy per Si atom -12392.722871 kJ/mol
# Density = 1.816118 g / cm^3
# Si number density = 18.202610 Si / 1000 Ang^3
#
#
#
# Elastic Constant Matrix: (Units=GPa)
#
#
# Indices 1 2 3 4 5 6 
#
# 1 73.9038 35.0605 45.2044 0.0000 0.0000 0.0000
# 2 35.0605 57.4463 33.9304 0.0000 0.0000 0.0000
# 3 45.2044 33.9304 121.1164 0.0000 0.0000 0.0000
# 4 0.0000 0.0000 0.0000 19.8002 0.0000 0.0000
# 5 0.0000 0.0000 0.0000 0.0000 26.5512 0.0000
# 6 0.0000 0.0000 0.0000 0.0000 0.0000 20.7958
#
#
#
# Elastic Compliance Matrix: (Units=1/GPa)
#
#
# Indices 1 2 3 4 5 6 
#
# 1 0.021473 -0.010032 -0.005204 0.000000 0.000000 0.000000
# 2 -0.010032 0.025546 -0.003412 0.000000 0.000000 0.000000
# 3 -0.005204 -0.003412 0.011155 0.000000 0.000000 0.000000
# 4 0.000000 0.000000 0.000000 0.050504 0.000000 0.000000
# 5 0.000000 0.000000 0.000000 0.000000 0.037663 0.000000
# 6 0.000000 0.000000 0.000000 0.000000 0.000000 0.048087
#
#
# Mechanical properties :
#
#
# Convention : Reuss Voigt Hill
#
# Bulk Modulus (GPa) = 47.89898 53.42856 50.66377
# Shear Modulus (GPa) = 20.94819 22.64751 21.79785
#
# Velocity S-wave (km/s) = 3.39608 3.53114 3.46426
# Velocity P-wave (km/s) = 6.46137 6.78536 6.62534
#
# Compressibility (1/GPa) = 0.02087727
#
# Stress axis : x y z
#
# Youngs Moduli (GPa) = 46.56909 39.14563 89.64715
#
# Poissons Ratio (x) = 0.39270 0.46654
# Poissons Ratio (y) = 0.46717 0.30591
# Poissons Ratio (z) = 0.24235 0.13358
#
# Static dielectric constant tensor:
#      x y z
#    x 3.193700 0.000000 0.000000 
#    y 0.000000 3.244360 0.000000 
#    z 0.000000 0.000000 3.640190 
# 
# 
# High freq. dielectric constant tensor:
#      x y z
#    x 1.679550 0.000000 0.000000 
#    y 0.000000 1.683410 0.000000 
#    z 0.000000 0.000000 1.721270 
# 
# From -- ./inp_files/12955.got.cif
#   From: 2010.06.25/outbox.cif.g09.slc.cpg/sg71_7_cif.got.tgz:12955.got - 2010.06.28 04:59:45.
