data_PCOD8288748
_publ_section_title
;
Structure prediction by ZEFSAII (Michael W. Deem and Ramdas Pophale) SiO2 
 PCOD8288748
Probable space group: I M M M
;
_chemical_formula_sum "Si O2"
_cell_formula_units_Z 88
_cell_length_a 19.560983
_cell_length_b 7.900625
_cell_length_c 28.633331
_cell_angle_alpha 90.000000
_cell_angle_beta 90.000000
_cell_angle_gamma 90.000000
_cell_volume 4425.109257
_symmetry_space_group_name_H-M "I M M M"
_symmetry_group_IT_number 71
_symmetry_cell_setting 'orthorhombic'
loop_
_space_group_symop_operation_xyz
x,y,z
-x,-y,z
x,-y,-z
-x,y,-z
-x,-y,-z
x,y,-z
-x,y,z
x,-y,z
1/2+x,1/2+y,1/2+z
1/2-x,1/2-y,1/2+z
1/2+x,1/2-y,1/2-z
1/2-x,1/2+y,1/2-z
1/2-x,1/2-y,1/2-z
1/2+x,1/2+y,1/2-z
1/2-x,1/2+y,1/2+z
1/2+x,1/2-y,1/2+z
loop_
_atom_site_type_symbol
_atom_site_label
_atom_site_fract_x
_atom_site_fract_y
_atom_site_fract_z
Si Si1 0.075333 0.694055 0.877541
Si Si2 0.424115 0.000000 0.945211
Si Si3 0.188065 0.700750 0.052655
Si Si4 0.664266 0.304363 0.090956
Si Si5 0.345650 0.690789 0.707908
Si Si6 0.698631 0.305478 0.805993
O O1 0.067610 0.500000 0.891160
O O2 0.127903 0.779360 0.914715
O O3 0.104317 0.701877 0.824856
O O4 0.000000 0.780435 0.880708
O O5 0.388942 0.174852 0.930528
O O6 0.500000 0.000000 0.923560
O O7 0.426971 0.000000 0.000000
O O8 0.182466 0.500000 0.052607
O O9 0.260811 0.753101 0.074028
O O10 0.180946 0.772889 0.000000
O O11 0.649097 0.500000 0.075896
O O12 0.656461 0.284869 0.146632
O O13 0.372241 0.500000 0.704585
O O14 0.347395 0.756261 0.761889
O O15 0.267838 0.698944 0.689843
O O16 0.720400 0.500000 0.797642
#
# Coordination Sequence:
#
# PCOD8288748 Si02
#       6
#    16   8  16  16  16  16
#     4  10  20  34  51  74 111 153 190 235 288 340
#     4  11  26  44  62  90 123 151 189 239 299 375
#     4   9  17  31  54  82 109 143 192 242 285 336
#     4  10  20  38  64  90 118 154 194 242 294 347
#     4  10  19  31  52  81 111 148 188 235 288 342
#     4   9  18  33  55  84 113 142 186 237 284 341
#
# _framework density 19.886513999999998
#
# number of rings (size 3 to 8) (size 9 to 14) (size 15 to 20)
#    0.000    2.273    1.818    1.091    1.273    2.909 
#    0.000    3.636    0.000    3.273    0.000    1.273 
#    0.000    0.000    0.000    0.000    0.000    0.000 
#
# Total GULP energy -545376.599438 kJ/mol
# GULP energy per Si atom -12394.922715 kJ/mol
# Density = 1.984125 g / cm^3
# Si number density = 19.886514 Si / 1000 Ang^3
#
#
#
# Elastic Constant Matrix: (Units=GPa)
#
#
# Indices 1 2 3 4 5 6 
#
# 1 146.4759 40.4584 74.9243 0.0000 0.0000 0.0000
# 2 40.4584 52.2492 24.0001 0.0000 0.0000 0.0000
# 3 74.9243 24.0001 136.6665 0.0000 0.0000 0.0000
# 4 0.0000 0.0000 0.0000 24.9424 0.0000 0.0000
# 5 0.0000 0.0000 0.0000 0.0000 24.5148 0.0000
# 6 0.0000 0.0000 0.0000 0.0000 0.0000 18.4655
#
#
#
# Elastic Compliance Matrix: (Units=1/GPa)
#
#
# Indices 1 2 3 4 5 6 
#
# 1 0.011125 -0.006323 -0.004989 0.000000 0.000000 0.000000
# 2 -0.006323 0.024412 -0.000820 0.000000 0.000000 0.000000
# 3 -0.004989 -0.000820 0.010196 0.000000 0.000000 0.000000
# 4 0.000000 0.000000 0.000000 0.040092 0.000000 0.000000
# 5 0.000000 0.000000 0.000000 0.000000 0.040792 0.000000
# 6 0.000000 0.000000 0.000000 0.000000 0.000000 0.054155
#
#
# Mechanical properties :
#
#
# Convention : Reuss Voigt Hill
#
# Bulk Modulus (GPa) = 46.57939 68.23970 57.40954
# Shear Modulus (GPa) = 23.56329 26.65179 25.10754
#
# Velocity S-wave (km/s) = 3.44595 3.66484 3.55708
# Velocity P-wave (km/s) = 6.26947 7.23167 6.76769
#
# Compressibility (1/GPa) = 0.02146872
#
# Stress axis : x y z
#
# Youngs Moduli (GPa) = 89.88365 40.96304 98.07585
#
# Poissons Ratio (x) = 0.25902 0.48929
# Poissons Ratio (y) = 0.56836 0.08047
# Poissons Ratio (z) = 0.44842 0.03361
#
# Static dielectric constant tensor:
#      x y z
#    x 3.583640 0.000000 0.000000 
#    y 0.000000 3.399660 0.000000 
#    z 0.000000 0.000000 3.909070 
# 
# 
# High freq. dielectric constant tensor:
#      x y z
#    x 1.747200 0.000000 0.000000 
#    y 0.000000 1.757320 0.000000 
#    z 0.000000 0.000000 1.789300 
# 
# From -- ./inp_files/70370.got.cif
#   From: 2010.06.25/outbox.cif.g09.slc.cpg/sg71_36_cif.got.tgz:70370.got - 2010.06.28 04:59:45.
