data_PCOD8288989
_publ_section_title
;
Structure prediction by ZEFSAII (Michael W. Deem and Ramdas Pophale) SiO2 
 PCOD8288989
Probable space group: I M M M
;
_chemical_formula_sum "Si O2"
_cell_formula_units_Z 104
_cell_length_a 30.810205
_cell_length_b 9.114865
_cell_length_c 20.525089
_cell_angle_alpha 90.000000
_cell_angle_beta 90.000000
_cell_angle_gamma 90.000000
_cell_volume 5764.078379
_symmetry_space_group_name_H-M "I M M M"
_symmetry_group_IT_number 71
_symmetry_cell_setting 'orthorhombic'
loop_
_space_group_symop_operation_xyz
x,y,z
-x,-y,z
x,-y,-z
-x,y,-z
-x,-y,-z
x,y,-z
-x,y,z
x,-y,z
1/2+x,1/2+y,1/2+z
1/2-x,1/2-y,1/2+z
1/2+x,1/2-y,1/2-z
1/2-x,1/2+y,1/2-z
1/2-x,1/2-y,1/2-z
1/2+x,1/2+y,1/2-z
1/2-x,1/2+y,1/2+z
1/2+x,1/2-y,1/2+z
loop_
_atom_site_type_symbol
_atom_site_label
_atom_site_fract_x
_atom_site_fract_y
_atom_site_fract_z
Si Si1 0.748678 0.832092 0.182365
Si Si2 0.920848 0.328879 0.127640
Si Si3 0.000000 0.670093 0.220414
Si Si4 0.000000 0.825478 0.357046
Si Si5 0.655443 0.334712 0.690190
Si Si6 0.332066 0.329748 0.842456
Si Si7 0.450251 0.326381 0.500000
Si Si8 0.086950 0.174579 0.573608
O O1 0.750000 0.750000 0.250000
O O2 0.797638 0.821466 0.154343
O O3 0.712147 0.755801 0.136878
O O4 0.735250 0.000000 0.193806
O O5 0.921680 0.500000 0.110328
O O6 0.875004 0.286026 0.158274
O O7 0.958050 0.287398 0.178712
O O8 0.926572 0.236643 0.062670
O O9 0.000000 0.500000 0.240174
O O10 0.000000 0.767827 0.284134
O O11 0.042544 0.765834 0.394398
O O12 0.000000 0.000000 0.354333
O O13 0.637171 0.500000 0.680378
O O14 0.657950 0.300534 0.766922
O O15 0.324135 0.500000 0.856891
O O16 0.371921 0.267535 0.885199
O O17 0.445922 0.500000 0.500000
O O18 0.500000 0.274225 0.500000
O O19 0.090403 0.234814 0.500000
O O20 0.086230 0.000000 0.574183
#
# Coordination Sequence:
#
# PCOD8288989 Si02
#       8
#    16  16   8   8  16  16   8  16
#     4   9  17  30  50  75 104 134 167 211 261 312
#     4  11  22  36  55  77 106 139 172 211 256 308
#     4  10  22  36  50  75 109 139 164 207 264 305
#     4  10  19  32  53  77 102 135 177 219 258 306
#     4   9  18  32  50  77 107 132 169 218 266 313
#     4   9  17  30  50  76 106 138 174 219 266 313
#     4  11  23  39  59  79 101 137 177 211 251 304
#     4   9  17  30  50  76 104 136 176 221 262 301
#
# _framework density 18.04278
#
# number of rings (size 3 to 8) (size 9 to 14) (size 15 to 20)
#    0.000    2.385    0.769    3.231    0.000    6.769 
#    0.000    0.769    1.692    2.308    0.000    0.000 
#    0.000    0.000    0.000    0.000    0.000    0.000 
#
# Total GULP energy -644720.946630 kJ/mol
# GULP energy per Si atom -12398.479743 kJ/mol
# Density = 1.800171 g / cm^3
# Si number density = 18.042780 Si / 1000 Ang^3
#
#
#
# Elastic Constant Matrix: (Units=GPa)
#
#
# Indices 1 2 3 4 5 6 
#
# 1 151.1867 47.4576 59.6604 0.0000 0.0000 0.0000
# 2 47.4576 60.8580 30.8798 0.0000 0.0000 0.0000
# 3 59.6604 30.8798 93.2386 0.0000 0.0000 0.0000
# 4 0.0000 0.0000 0.0000 19.6327 0.0000 0.0000
# 5 0.0000 0.0000 0.0000 0.0000 12.0742 0.0000
# 6 0.0000 0.0000 0.0000 0.0000 0.0000 30.8035
#
#
#
# Elastic Compliance Matrix: (Units=1/GPa)
#
#
# Indices 1 2 3 4 5 6 
#
# 1 0.010219 -0.005590 -0.004687 0.000000 0.000000 0.000000
# 2 -0.005590 0.022809 -0.003977 0.000000 0.000000 0.000000
# 3 -0.004687 -0.003977 0.015042 0.000000 0.000000 0.000000
# 4 0.000000 0.000000 0.000000 0.050935 0.000000 0.000000
# 5 0.000000 0.000000 0.000000 0.000000 0.082821 0.000000
# 6 0.000000 0.000000 0.000000 0.000000 0.000000 0.032464
#
#
# Mechanical properties :
#
#
# Convention : Reuss Voigt Hill
#
# Bulk Modulus (GPa) = 51.12433 64.58652 57.85542
# Shear Modulus (GPa) = 20.05459 23.65445 21.85452
#
# Velocity S-wave (km/s) = 3.33754 3.62473 3.48409
# Velocity P-wave (km/s) = 6.57638 7.30700 6.95130
#
# Compressibility (1/GPa) = 0.01956016
#
# Stress axis : x y z
#
# Youngs Moduli (GPa) = 97.85884 43.84209 66.48257
#
# Poissons Ratio (x) = 0.24509 0.31162
# Poissons Ratio (y) = 0.54707 0.26441
# Poissons Ratio (z) = 0.45868 0.17436
#
# Static dielectric constant tensor:
#      x y z
#    x 3.845020 0.000000 0.000000 
#    y 0.000000 3.232190 0.000000 
#    z 0.000000 0.000000 3.167970 
# 
# 
# High freq. dielectric constant tensor:
#      x y z
#    x 1.714210 0.000000 0.000000 
#    y 0.000000 1.685970 0.000000 
#    z 0.000000 0.000000 1.674180 
# 
# From -- ./inp_files/62029.got.cif
#   From: 2010.06.25/outbox.cif.g09.slc.cpg/sg71_32_cif.got.tgz:62029.got - 2010.06.28 04:59:45.
