data_PCOD8288595
_publ_section_title
;
Structure prediction by ZEFSAII (Michael W. Deem and Ramdas Pophale) SiO2 
 PCOD8288595
Probable space group: I M M M
;
_chemical_formula_sum "Si O2"
_cell_formula_units_Z 72
_cell_length_a 22.245670
_cell_length_b 7.689416
_cell_length_c 25.849178
_cell_angle_alpha 90.000000
_cell_angle_beta 90.000000
_cell_angle_gamma 90.000000
_cell_volume 4421.662442
_symmetry_space_group_name_H-M "I M M M"
_symmetry_group_IT_number 71
_symmetry_cell_setting 'orthorhombic'
loop_
_space_group_symop_operation_xyz
x,y,z
-x,-y,z
x,-y,-z
-x,y,-z
-x,-y,-z
x,y,-z
-x,y,z
x,-y,z
1/2+x,1/2+y,1/2+z
1/2-x,1/2-y,1/2+z
1/2+x,1/2-y,1/2-z
1/2-x,1/2+y,1/2-z
1/2-x,1/2-y,1/2-z
1/2+x,1/2+y,1/2-z
1/2-x,1/2+y,1/2+z
1/2+x,1/2-y,1/2+z
loop_
_atom_site_type_symbol
_atom_site_label
_atom_site_fract_x
_atom_site_fract_y
_atom_site_fract_z
Si Si1 0.435560 0.500000 0.663997
Si Si2 0.155283 0.695892 0.720662
Si Si3 0.931390 0.705259 0.000000
Si Si4 0.125191 0.300369 0.106444
Si Si5 0.432815 0.500000 0.215161
Si Si6 0.226555 0.698117 0.178428
O O1 0.500000 0.500000 0.636662
O O2 0.405592 0.320656 0.648035
O O3 0.441847 0.500000 0.724431
O O4 0.128790 0.500000 0.723397
O O5 0.179735 0.760033 0.776810
O O6 0.211785 0.693987 0.680695
O O7 0.103899 0.825875 0.699452
O O8 0.892350 0.767904 0.049322
O O9 0.936063 0.500000 0.000000
O O10 0.000000 0.781880 0.000000
O O11 0.103623 0.500000 0.113936
O O12 0.196149 0.283790 0.121164
O O13 0.500000 0.500000 0.189310
O O14 0.243634 0.500000 0.190592
#
# Coordination Sequence:
#
# PCOD8288595 Si02
#       6
#     8  16   8  16   8  16
#     4  11  22  31  46  65  90 124 161 197 236 276
#     4  10  19  31  49  69  89 121 151 192 240 282
#     4   9  18  33  49  63  90 129 165 199 237 274
#     4  10  20  33  48  67  88 119 162 206 242 271
#     4  11  22  34  45  68 101 123 151 194 234 281
#     4   9  17  29  48  69  91 113 156 201 237 278
#
# _framework density 16.283470000000001
#
# number of rings (size 3 to 8) (size 9 to 14) (size 15 to 20)
#    0.000    2.111    3.333    0.667    3.111    2.222 
#    0.000    3.333    0.000    0.000    0.000    0.000 
#    0.000    0.000    0.000    2.000    0.000    2.889 
#
# Total GULP energy -446010.421939 kJ/mol
# GULP energy per Si atom -12389.178387 kJ/mol
# Density = 1.624641 g / cm^3
# Si number density = 16.283470 Si / 1000 Ang^3
#
#
#
# Elastic Constant Matrix: (Units=GPa)
#
#
# Indices 1 2 3 4 5 6 
#
# 1 105.5713 40.6075 33.6159 0.0000 0.0000 0.0000
# 2 40.6075 75.1532 5.4493 0.0000 0.0000 0.0000
# 3 33.6159 5.4493 58.6190 0.0000 0.0000 0.0000
# 4 0.0000 0.0000 0.0000 11.1211 0.0000 0.0000
# 5 0.0000 0.0000 0.0000 0.0000 23.3656 0.0000
# 6 0.0000 0.0000 0.0000 0.0000 0.0000 12.8425
#
#
#
# Elastic Compliance Matrix: (Units=1/GPa)
#
#
# Indices 1 2 3 4 5 6 
#
# 1 0.014821 -0.007442 -0.007807 0.000000 0.000000 0.000000
# 2 -0.007442 0.017133 0.002675 0.000000 0.000000 0.000000
# 3 -0.007807 0.002675 0.021288 0.000000 0.000000 0.000000
# 4 0.000000 0.000000 0.000000 0.089919 0.000000 0.000000
# 5 0.000000 0.000000 0.000000 0.000000 0.042798 0.000000
# 6 0.000000 0.000000 0.000000 0.000000 0.000000 0.077866
#
#
# Mechanical properties :
#
#
# Convention : Reuss Voigt Hill
#
# Bulk Modulus (GPa) = 35.59578 44.29877 39.94727
# Shear Modulus (GPa) = 16.75948 20.11057 18.43503
#
# Velocity S-wave (km/s) = 3.21165 3.51811 3.36837
# Velocity P-wave (km/s) = 5.97163 6.61563 6.30187
#
# Compressibility (1/GPa) = 0.02809322
#
# Stress axis : x y z
#
# Youngs Moduli (GPa) = 67.47253 58.36567 46.97507
#
# Poissons Ratio (x) = 0.43436 0.36675
# Poissons Ratio (y) = 0.50213 -0.12566
# Poissons Ratio (z) = 0.52678 -0.15613
#
# Static dielectric constant tensor:
#      x y z
#    x 3.252980 0.000000 0.000000 
#    y 0.000000 3.078390 0.000000 
#    z 0.000000 0.000000 2.871680 
# 
# 
# High freq. dielectric constant tensor:
#      x y z
#    x 1.614130 0.000000 0.000000 
#    y 0.000000 1.638610 0.000000 
#    z 0.000000 0.000000 1.570900 
# 
# From -- ./inp_files/66271.got.cif
#   From: 2010.06.25/outbox.cif.g09.slc.cpg/sg71_34_cif.got.tgz:66271.got - 2010.06.28 04:59:45.
