data_PCOD8288376
_publ_section_title
;
Structure prediction by ZEFSAII (Michael W. Deem and Ramdas Pophale) SiO2 
 PCOD8288376
Probable space group: I M M M
;
_chemical_formula_sum "Si O2"
_cell_formula_units_Z 112
_cell_length_a 17.765988
_cell_length_b 18.955281
_cell_length_c 18.790643
_cell_angle_alpha 90.000000
_cell_angle_beta 90.000000
_cell_angle_gamma 90.000000
_cell_volume 6327.923685
_symmetry_space_group_name_H-M "I M M M"
_symmetry_group_IT_number 71
_symmetry_cell_setting 'orthorhombic'
loop_
_space_group_symop_operation_xyz
x,y,z
-x,-y,z
x,-y,-z
-x,y,-z
-x,-y,-z
x,y,-z
-x,y,z
x,-y,z
1/2+x,1/2+y,1/2+z
1/2-x,1/2-y,1/2+z
1/2+x,1/2-y,1/2-z
1/2-x,1/2+y,1/2-z
1/2-x,1/2-y,1/2-z
1/2+x,1/2+y,1/2-z
1/2-x,1/2+y,1/2+z
1/2+x,1/2-y,1/2+z
loop_
_atom_site_type_symbol
_atom_site_label
_atom_site_fract_x
_atom_site_fract_y
_atom_site_fract_z
Si Si1 0.156841 0.299583 0.301377
Si Si2 0.413571 0.824752 0.418768
Si Si3 0.910543 0.923717 0.355048
Si Si4 0.588153 0.282754 0.922229
Si Si5 0.412790 0.578454 0.693118
Si Si6 0.412597 0.919085 0.713273
Si Si7 0.329409 0.288525 0.664555
O O1 0.104081 0.280082 0.367517
O O2 0.136526 0.376932 0.271703
O O3 0.240294 0.296081 0.332480
O O4 0.140947 0.243078 0.239185
O O5 0.398397 0.848652 0.500000
O O6 0.500000 0.798796 0.409386
O O7 0.397727 0.890659 0.366557
O O8 0.356254 0.761772 0.399464
O O9 0.875190 0.857891 0.398033
O O10 0.883498 0.918308 0.273920
O O11 0.000000 0.920942 0.357120
O O12 0.883554 0.000000 0.386457
O O13 0.500000 0.293457 0.927027
O O14 0.621147 0.263527 0.000000
O O15 0.500000 0.599063 0.688168
O O16 0.399185 0.500000 0.661757
O O17 0.365086 0.635070 0.648896
O O18 0.500000 0.910942 0.733641
O O19 0.386331 0.000000 0.715704
#
# Coordination Sequence:
#
# PCOD8288376 Si02
#       7
#    16  16  16  16  16  16  16
#     4  10  20  32  47  71  98 130 171 211 245 292
#     4   9  18  32  52  78 104 131 164 202 249 307
#     4   8  14  25  42  66  96 128 160 196 237 278
#     4  10  19  30  47  69  96 132 168 207 249 286
#     4   9  16  27  47  73  98 125 158 199 243 284
#     4   9  18  33  54  77 100 129 165 210 261 304
#     4  10  19  31  49  71  97 134 168 202 247 288
#
# _framework density 17.699328000000001
#
# number of rings (size 3 to 8) (size 9 to 14) (size 15 to 20)
#    0.000    2.714    1.429    1.714    0.000    2.857 
#    0.000    2.857    0.000    0.857    0.000    8.000 
#    0.000    0.000    0.000    0.000    0.000    0.000 
#
# Total GULP energy -694142.511390 kJ/mol
# GULP energy per Si atom -12395.401989 kJ/mol
# Density = 1.765904 g / cm^3
# Si number density = 17.699328 Si / 1000 Ang^3
#
#
#
# Elastic Constant Matrix: (Units=GPa)
#
#
# Indices 1 2 3 4 5 6 
#
# 1 38.6016 34.1297 17.5413 0.0000 0.0000 0.0000
# 2 34.1297 128.8225 49.4999 0.0000 0.0000 0.0000
# 3 17.5413 49.4999 82.1908 0.0000 0.0000 0.0000
# 4 0.0000 0.0000 0.0000 18.0415 0.0000 0.0000
# 5 0.0000 0.0000 0.0000 0.0000 16.9449 0.0000
# 6 0.0000 0.0000 0.0000 0.0000 0.0000 17.3491
#
#
#
# Elastic Compliance Matrix: (Units=1/GPa)
#
#
# Indices 1 2 3 4 5 6 
#
# 1 0.034189 -0.008137 -0.002396 0.000000 0.000000 0.000000
# 2 -0.008137 0.012037 -0.005512 0.000000 0.000000 0.000000
# 3 -0.002396 -0.005512 0.015998 0.000000 0.000000 0.000000
# 4 0.000000 0.000000 0.000000 0.055428 0.000000 0.000000
# 5 0.000000 0.000000 0.000000 0.000000 0.059015 0.000000
# 6 0.000000 0.000000 0.000000 0.000000 0.000000 0.057640
#
#
# Mechanical properties :
#
#
# Convention : Reuss Voigt Hill
#
# Bulk Modulus (GPa) = 33.18691 50.21740 41.70215
# Shear Modulus (GPa) = 18.08700 20.36336 19.22518
#
# Velocity S-wave (km/s) = 3.20019 3.39561 3.29934
# Velocity P-wave (km/s) = 5.69614 6.61873 6.17469
#
# Compressibility (1/GPa) = 0.03013236
#
# Stress axis : x y z
#
# Youngs Moduli (GPa) = 29.24917 83.07980 62.50750
#
# Poissons Ratio (x) = 0.67604 0.14977
# Poissons Ratio (y) = 0.23801 0.34457
# Poissons Ratio (z) = 0.07008 0.45797
#
# Static dielectric constant tensor:
#      x y z
#    x 3.027650 0.000000 0.000000 
#    y 0.000000 3.334830 0.000000 
#    z 0.000000 0.000000 3.161410 
# 
# 
# High freq. dielectric constant tensor:
#      x y z
#    x 1.661030 0.000000 0.000000 
#    y 0.000000 1.682850 0.000000 
#    z 0.000000 0.000000 1.659280 
# 
# From -- ./inp_files/47514.got.cif
#   From: 2010.06.25/outbox.cif.g09.slc.cpg/sg71_24_cif.got.tgz:47514.got - 2010.06.28 04:59:45.
