data_PCOD8288639
_publ_section_title
;
Structure prediction by ZEFSAII (Michael W. Deem and Ramdas Pophale) SiO2 
 PCOD8288639
Probable space group: I M M M
;
_chemical_formula_sum "Si O2"
_cell_formula_units_Z 104
_cell_length_a 27.505954
_cell_length_b 17.856771
_cell_length_c 11.577539
_cell_angle_alpha 90.000000
_cell_angle_beta 90.000000
_cell_angle_gamma 90.000000
_cell_volume 5686.511138
_symmetry_space_group_name_H-M "I M M M"
_symmetry_group_IT_number 71
_symmetry_cell_setting 'orthorhombic'
loop_
_space_group_symop_operation_xyz
x,y,z
-x,-y,z
x,-y,-z
-x,y,-z
-x,-y,-z
x,y,-z
-x,y,z
x,-y,z
1/2+x,1/2+y,1/2+z
1/2-x,1/2-y,1/2+z
1/2+x,1/2-y,1/2-z
1/2-x,1/2+y,1/2-z
1/2-x,1/2-y,1/2-z
1/2+x,1/2+y,1/2-z
1/2-x,1/2+y,1/2+z
1/2+x,1/2-y,1/2+z
loop_
_atom_site_type_symbol
_atom_site_label
_atom_site_fract_x
_atom_site_fract_y
_atom_site_fract_z
Si Si1 0.392516 0.084601 0.867199
Si Si2 0.201292 0.364345 0.234550
Si Si3 0.846044 0.168844 0.500000
Si Si4 0.050811 0.832683 0.500000
Si Si5 0.650876 0.282889 0.252990
Si Si6 0.245310 0.415642 0.000000
Si Si7 0.946969 0.276105 0.285181
Si Si8 0.795472 0.086773 0.863540
O O1 0.345547 0.096105 0.787444
O O2 0.435287 0.139938 0.827896
O O3 0.411518 0.000000 0.850558
O O4 0.377924 0.099677 0.000000
O O5 0.192072 0.276358 0.209456
O O6 0.213434 0.398563 0.111175
O O7 0.244996 0.378001 0.323201
O O8 0.897780 0.121221 0.500000
O O9 0.846990 0.220380 0.613504
O O10 0.797685 0.121885 0.500000
O O11 0.049381 0.779666 0.390689
O O12 0.000000 0.881641 0.500000
O O13 0.597218 0.255249 0.295426
O O14 0.661402 0.365212 0.304139
O O15 0.260755 0.500000 0.000000
O O16 0.000000 0.277888 0.221508
O O17 0.800321 0.000000 0.824689
O O18 0.799857 0.094580 0.000000
#
# Coordination Sequence:
#
# PCOD8288639 Si02
#       8
#    16  16   8   8  16   8  16  16
#     4  10  19  31  49  76 113 150 182 220 268 324
#     4  11  23  35  54  76 110 150 187 224 259 320
#     4  10  20  32  54  80 105 143 177 221 267 316
#     4   8  14  28  47  71 102 130 169 216 266 323
#     4  10  22  35  56  81 109 142 183 220 264 326
#     4  12  24  36  52  75 108 147 188 228 274 316
#     4   9  17  31  51  77 105 138 175 220 270 321
#     4  11  23  37  56  80 111 144 177 223 275 324
#
# _framework density 18.288896000000001
#
# number of rings (size 3 to 8) (size 9 to 14) (size 15 to 20)
#    0.000    1.846    2.308    2.308    5.385    1.538 
#    0.000    0.769    0.000    1.154    0.000    5.385 
#    0.000    5.846    0.000    0.000    0.000    0.000 
#
# Total GULP energy -644276.779055 kJ/mol
# GULP energy per Si atom -12389.938059 kJ/mol
# Density = 1.824727 g / cm^3
# Si number density = 18.288896 Si / 1000 Ang^3
#
#
#
# Elastic Constant Matrix: (Units=GPa)
#
#
# Indices 1 2 3 4 5 6 
#
# 1 137.3641 51.2985 28.0489 0.0000 0.0000 0.0000
# 2 51.2985 87.0001 9.8658 0.0000 0.0000 0.0000
# 3 28.0489 9.8658 45.7505 0.0000 0.0000 0.0000
# 4 0.0000 0.0000 0.0000 21.6726 0.0000 0.0000
# 5 0.0000 0.0000 0.0000 0.0000 16.1179 0.0000
# 6 0.0000 0.0000 0.0000 0.0000 0.0000 11.3409
#
#
#
# Elastic Compliance Matrix: (Units=1/GPa)
#
#
# Indices 1 2 3 4 5 6 
#
# 1 0.010412 -0.005551 -0.005186 0.000000 0.000000 0.000000
# 2 -0.005551 0.014742 0.000224 0.000000 0.000000 0.000000
# 3 -0.005186 0.000224 0.024989 0.000000 0.000000 0.000000
# 4 0.000000 0.000000 0.000000 0.046141 0.000000 0.000000
# 5 0.000000 0.000000 0.000000 0.000000 0.062043 0.000000
# 6 0.000000 0.000000 0.000000 0.000000 0.000000 0.088176
#
#
# Mechanical properties :
#
#
# Convention : Reuss Voigt Hill
#
# Bulk Modulus (GPa) = 34.34474 49.83789 42.09132
# Shear Modulus (GPa) = 18.03521 21.88638 19.96080
#
# Velocity S-wave (km/s) = 3.14368 3.46309 3.30724
# Velocity P-wave (km/s) = 5.65656 6.58029 6.13583
#
# Compressibility (1/GPa) = 0.02911654
#
# Stress axis : x y z
#
# Youngs Moduli (GPa) = 96.04278 67.83346 40.01767
#
# Poissons Ratio (x) = 0.37656 0.20755
# Poissons Ratio (y) = 0.53315 -0.00898
# Poissons Ratio (z) = 0.49811 -0.01522
#
# Static dielectric constant tensor:
#      x y z
#    x 3.958810 0.000000 0.000000 
#    y 0.000000 3.386540 0.000000 
#    z 0.000000 0.000000 3.150310 
# 
# 
# High freq. dielectric constant tensor:
#      x y z
#    x 1.716710 0.000000 0.000000 
#    y 0.000000 1.701470 0.000000 
#    z 0.000000 0.000000 1.686000 
# 
# From -- ./inp_files/24837.got.cif
#   From: 2010.06.25/outbox.cif.g09.slc.cpg/sg71_13_cif.got.tgz:24837.got - 2010.06.28 04:59:45.
