data_PCOD8288338
_publ_section_title
;
Structure prediction by ZEFSAII (Michael W. Deem and Ramdas Pophale) SiO2 
 PCOD8288338
Probable space group: I M M M
;
_chemical_formula_sum "Si O2"
_cell_formula_units_Z 80
_cell_length_a 18.089084
_cell_length_b 27.965879
_cell_length_c 8.980266
_cell_angle_alpha 90.000000
_cell_angle_beta 90.000000
_cell_angle_gamma 90.000000
_cell_volume 4542.911230
_symmetry_space_group_name_H-M "I M M M"
_symmetry_group_IT_number 71
_symmetry_cell_setting 'orthorhombic'
loop_
_space_group_symop_operation_xyz
x,y,z
-x,-y,z
x,-y,-z
-x,y,-z
-x,-y,-z
x,y,-z
-x,y,z
x,-y,z
1/2+x,1/2+y,1/2+z
1/2-x,1/2-y,1/2+z
1/2+x,1/2-y,1/2-z
1/2-x,1/2+y,1/2-z
1/2-x,1/2-y,1/2-z
1/2+x,1/2+y,1/2-z
1/2-x,1/2+y,1/2+z
1/2+x,1/2-y,1/2+z
loop_
_atom_site_type_symbol
_atom_site_label
_atom_site_fract_x
_atom_site_fract_y
_atom_site_fract_z
Si Si1 0.712007 0.147744 0.174044
Si Si2 0.582933 0.403877 0.828964
Si Si3 0.415816 0.786490 0.825215
Si Si4 0.283186 0.446998 0.325204
Si Si5 0.632458 0.689329 0.675115
O O1 0.637066 0.171211 0.238818
O O2 0.726921 0.093881 0.236713
O O3 0.780967 0.181996 0.213549
O O4 0.701387 0.142949 0.000000
O O5 0.500000 0.424317 0.814876
O O6 0.637790 0.441881 0.754004
O O7 0.585662 0.352907 0.747968
O O8 0.605837 0.396630 0.000000
O O9 0.500000 0.801624 0.792409
O O10 0.395923 0.738619 0.740039
O O11 0.402356 0.777679 0.000000
O O12 0.296901 0.439097 0.500000
O O13 0.251041 0.500000 0.292045
O O14 0.618340 0.688608 0.500000
#
# Coordination Sequence:
#
# PCOD8288338 Si02
#       5
#    16  16  16  16  16
#     4   8  16  31  48  67  91 120 154 189 227 272
#     4  10  20  32  46  67  97 128 155 186 225 270
#     4  10  19  30  46  68  95 125 154 187 229 275
#     4   9  18  33  52  70  88 116 155 196 234 271
#     4  10  19  31  48  68  93 126 160 191 222 262
#
# _framework density 17.609853999999999
#
# number of rings (size 3 to 8) (size 9 to 14) (size 15 to 20)
#    0.000    2.600    0.000    3.600    0.000    5.200 
#    0.000    6.000    0.000    0.600    0.000    4.200 
#    0.000    0.000    0.000    9.000    0.000   10.000 
#
# Total GULP energy -495818.632907 kJ/mol
# GULP energy per Si atom -12395.465823 kJ/mol
# Density = 1.756977 g / cm^3
# Si number density = 17.609854 Si / 1000 Ang^3
#
#
#
# Elastic Constant Matrix: (Units=GPa)
#
#
# Indices 1 2 3 4 5 6 
#
# 1 72.3417 37.9085 30.9909 0.0000 0.0000 0.0000
# 2 37.9085 97.8591 32.1664 0.0000 0.0000 0.0000
# 3 30.9909 32.1664 56.2002 -0.0004 -0.0003 -0.0001
# 4 0.0000 0.0000 -0.0004 21.2908 -0.0001 0.0000
# 5 0.0000 0.0000 -0.0003 -0.0001 15.3051 0.0000
# 6 0.0000 0.0000 -0.0001 0.0000 0.0000 12.5517
#
#
#
# Elastic Compliance Matrix: (Units=1/GPa)
#
#
# Indices 1 2 3 4 5 6 
#
# 1 0.019948 -0.005064 -0.008101 0.000000 0.000000 0.000000
# 2 -0.005064 0.013873 -0.005147 0.000000 0.000000 0.000000
# 3 -0.008101 -0.005147 0.025207 0.000000 0.000001 0.000000
# 4 0.000000 0.000000 0.000000 0.046969 0.000000 0.000000
# 5 0.000000 0.000000 0.000001 0.000000 0.065338 0.000000
# 6 0.000000 0.000000 0.000000 0.000000 0.000000 0.079670
#
#
# Mechanical properties :
#
#
# Convention : Reuss Voigt Hill
#
# Bulk Modulus (GPa) = 44.64043 47.61475 46.12759
# Shear Modulus (GPa) = 16.94361 18.18522 17.56442
#
# Velocity S-wave (km/s) = 3.10525 3.21701 3.16162
# Velocity P-wave (km/s) = 6.18558 6.39502 6.29117
#
# Compressibility (1/GPa) = 0.02240122
#
# Stress axis : x y z
#
# Youngs Moduli (GPa) = 50.13110 72.08484 39.67161
#
# Poissons Ratio (x) = 0.36507 0.32139
# Poissons Ratio (y) = 0.25388 0.20420
# Poissons Ratio (z) = 0.40613 0.37104
#
# Static dielectric constant tensor:
#      x y z
#    x 3.462520 0.000000 0.000000 
#    y 0.000000 3.536710 0.000000 
#    z 0.000000 0.000000 3.164290 
# 
# 
# High freq. dielectric constant tensor:
#      x y z
#    x 1.667830 0.000000 0.000000 
#    y 0.000000 1.676010 0.000000 
#    z 0.000000 0.000000 1.667420 
# 
# From -- ./inp_files/8268.got.cif
#   From: 2010.06.25/outbox.cif.g09.slc.cpg/sg71_5_cif.got.tgz:8268.got - 2010.06.28 04:59:45.
