data_PCOD8288763
_publ_section_title
;
Structure prediction by ZEFSAII (Michael W. Deem and Ramdas Pophale) SiO2 
 PCOD8288763
Probable space group: I M M M
;
_chemical_formula_sum "Si O2"
_cell_formula_units_Z 88
_cell_length_a 20.318076
_cell_length_b 11.150179
_cell_length_c 22.280544
_cell_angle_alpha 90.000000
_cell_angle_beta 90.000000
_cell_angle_gamma 90.000000
_cell_volume 5047.661350
_symmetry_space_group_name_H-M "I M M M"
_symmetry_group_IT_number 71
_symmetry_cell_setting 'orthorhombic'
loop_
_space_group_symop_operation_xyz
x,y,z
-x,-y,z
x,-y,-z
-x,y,-z
-x,-y,-z
x,y,-z
-x,y,z
x,-y,z
1/2+x,1/2+y,1/2+z
1/2-x,1/2-y,1/2+z
1/2+x,1/2-y,1/2-z
1/2-x,1/2+y,1/2-z
1/2-x,1/2-y,1/2-z
1/2+x,1/2+y,1/2-z
1/2-x,1/2+y,1/2+z
1/2+x,1/2-y,1/2+z
loop_
_atom_site_type_symbol
_atom_site_label
_atom_site_fract_x
_atom_site_fract_y
_atom_site_fract_z
Si Si1 0.144091 0.282090 0.898904
Si Si2 0.425601 0.358632 0.500000
Si Si3 0.311782 0.365700 0.710561
Si Si4 0.420625 0.000000 0.787826
Si Si5 0.075455 0.500000 0.847439
Si Si6 0.830151 0.710856 0.678532
Si Si7 0.787627 0.138820 0.568631
O O1 0.153271 0.221140 0.835340
O O2 0.093183 0.387536 0.888026
O O3 0.210245 0.336788 0.926071
O O4 0.112776 0.184935 0.942019
O O5 0.424385 0.500000 0.500000
O O6 0.500000 0.309294 0.500000
O O7 0.337868 0.500000 0.702603
O O8 0.233715 0.364747 0.698414
O O9 0.334103 0.323006 0.776310
O O10 0.392412 0.879260 0.819478
O O11 0.500000 0.000000 0.793886
O O12 0.392717 0.000000 0.719266
O O13 0.000000 0.500000 0.833675
O O14 0.826337 0.768821 0.611900
O O15 0.809891 0.163255 0.500000
O O16 0.801518 0.000000 0.586221
#
# Coordination Sequence:
#
# PCOD8288763 Si02
#       7
#    16   8  16   8   8  16  16
#     4  11  20  35  54  80 113 150 198 235 284 329
#     4  11  24  39  51  69 113 170 211 236 267 324
#     4  10  19  31  55  81 111 142 185 241 279 336
#     4  11  22  40  60  84 120 150 186 239 289 344
#     4  11  22  35  56  82 116 157 197 236 278 333
#     4  10  20  34  56  84 110 146 185 225 294 338
#     4  10  20  35  57  85 117 144 175 239 291 346
#
# _framework density 17.433816
#
# number of rings (size 3 to 8) (size 9 to 14) (size 15 to 20)
#    0.000    1.545    4.545    1.636    0.000    0.364 
#    0.000    1.364    0.000    4.364    0.000    1.273 
#    0.000    0.000    0.000    0.000    0.000    0.000 
#
# Total GULP energy -545555.127973 kJ/mol
# GULP energy per Si atom -12398.980181 kJ/mol
# Density = 1.739414 g / cm^3
# Si number density = 17.433816 Si / 1000 Ang^3
#
#
#
# Elastic Constant Matrix: (Units=GPa)
#
#
# Indices 1 2 3 4 5 6 
#
# 1 63.3717 29.0680 26.6432 0.0000 0.0000 0.0000
# 2 29.0680 99.7533 33.6700 0.0000 0.0000 0.0000
# 3 26.6432 33.6700 99.9631 0.0000 0.0000 0.0000
# 4 0.0000 0.0000 0.0000 -56.1142 0.0000 0.0000
# 5 0.0000 0.0000 0.0000 0.0000 19.9494 0.0000
# 6 0.0000 0.0000 0.0000 0.0000 0.0000 19.7476
#
#
#
# Elastic Compliance Matrix: (Units=1/GPa)
#
#
# Indices 1 2 3 4 5 6 
#
# 1 0.019341 -0.004396 -0.003674 0.000000 0.000000 0.000000
# 2 -0.004396 0.012310 -0.002975 0.000000 0.000000 0.000000
# 3 -0.003674 -0.002975 0.011985 0.000000 0.000000 0.000000
# 4 0.000000 0.000000 0.000000 -0.017821 0.000000 0.000000
# 5 0.000000 0.000000 0.000000 0.000000 0.050127 0.000000
# 6 0.000000 0.000000 0.000000 0.000000 0.000000 0.050639
#
#
# Mechanical properties :
#
#
# Convention : Reuss Voigt Hill
#
# Bulk Modulus (GPa) = 46.41187 49.09449 47.75318
# Shear Modulus (GPa) = 32.08169 8.29703 20.18936
#
# Velocity S-wave (km/s) = 4.29441 2.18392 3.40672
# Velocity P-wave (km/s) = 7.16022 5.88056 6.55171
#
# Compressibility (1/GPa) = 0.02154621
#
# Stress axis : x y z
#
# Youngs Moduli (GPa) = 51.70362 81.23697 83.43811
#
# Poissons Ratio (x) = 0.35710 0.30658
# Poissons Ratio (y) = 0.22728 0.24819
# Poissons Ratio (z) = 0.18998 0.24165
#
# Static dielectric constant tensor:
#      x y z
#    x 3.021110 0.000000 0.000000 
#    y 0.000000 3.221410 0.000000 
#    z 0.000000 0.000000 3.271420 
# 
# 
# High freq. dielectric constant tensor:
#      x y z
#    x 1.641090 0.000000 0.000000 
#    y 0.000000 1.687020 0.000000 
#    z 0.000000 0.000000 1.678990 
# 
# From -- ./inp_files/25686.got.cif
#   From: 2010.06.25/outbox.cif.g09.slc.cpg/sg71_13_cif.got.tgz:25686.got - 2010.06.28 04:59:45.
