data_PCOD8288791
_publ_section_title
;
Structure prediction by ZEFSAII (Michael W. Deem and Ramdas Pophale) SiO2 
 PCOD8288791
Probable space group: I M M M
;
_chemical_formula_sum "Si O2"
_cell_formula_units_Z 120
_cell_length_a 9.242683
_cell_length_b 26.621520
_cell_length_c 27.363917
_cell_angle_alpha 90.000000
_cell_angle_beta 90.000000
_cell_angle_gamma 90.000000
_cell_volume 6733.008631
_symmetry_space_group_name_H-M "I M M M"
_symmetry_group_IT_number 71
_symmetry_cell_setting 'orthorhombic'
loop_
_space_group_symop_operation_xyz
x,y,z
-x,-y,z
x,-y,-z
-x,y,-z
-x,-y,-z
x,y,-z
-x,y,z
x,-y,z
1/2+x,1/2+y,1/2+z
1/2-x,1/2-y,1/2+z
1/2+x,1/2-y,1/2-z
1/2-x,1/2+y,1/2-z
1/2-x,1/2-y,1/2-z
1/2+x,1/2+y,1/2-z
1/2-x,1/2+y,1/2+z
1/2+x,1/2-y,1/2+z
loop_
_atom_site_type_symbol
_atom_site_label
_atom_site_fract_x
_atom_site_fract_y
_atom_site_fract_z
Si Si1 0.828095 0.556975 0.000000
Si Si2 0.669595 0.129671 0.585372
Si Si3 0.838468 0.440318 0.551415
Si Si4 0.667965 0.758104 0.445302
Si Si5 0.328866 0.145735 0.221554
Si Si6 0.668015 0.341908 0.177657
Si Si7 0.172284 0.444279 0.344722
Si Si8 0.333850 0.228916 0.854782
O O1 0.775237 0.586244 0.048536
O O2 0.766491 0.500000 0.000000
O O3 0.000000 0.556827 0.000000
O O4 0.500000 0.124114 0.596933
O O5 0.704665 0.183146 0.560912
O O6 0.757669 0.124179 0.635818
O O7 0.758691 0.423908 0.500000
O O8 0.846872 0.500000 0.553831
O O9 0.763764 0.423736 0.602775
O O10 0.000000 0.417923 0.549206
O O11 0.714727 0.742123 0.500000
O O12 0.500000 0.748617 0.436609
O O13 0.751466 0.723515 0.406319
O O14 0.500000 0.150035 0.231516
O O15 0.243650 0.147413 0.271506
O O16 0.282077 0.092898 0.198080
O O17 0.275296 0.189734 0.185288
O O18 0.500000 0.356125 0.180533
O O19 0.692730 0.283682 0.166785
O O20 0.231585 0.500000 0.332027
O O21 0.000000 0.445739 0.350329
O O22 0.500000 0.217645 0.866100
#
# Coordination Sequence:
#
# PCOD8288791 Si02
#       8
#     8  16  16  16  16  16  16  16
#     4   9  16  28  51  81 107 129 159 203 248 289
#     4   9  16  30  51  74  98 124 158 197 236 282
#     4   7   9  15  30  53  80 107 134 166 206 253
#     4   9  16  28  48  72  97 128 163 195 230 283
#     4  10  19  32  49  69  94 123 157 200 245 286
#     4  10  20  33  49  69  93 124 163 200 238 287
#     4   8  14  25  42  64  88 115 149 187 228 278
#     4   9  19  32  46  69  98 125 156 197 245 290
#
# _framework density 17.822641000000001
#
# number of rings (size 3 to 8) (size 9 to 14) (size 15 to 20)
#    0.000    3.133    0.667    2.000    0.000    1.333 
#    0.000    1.667    0.000    7.600    0.000    0.000 
#    0.000    0.000    0.000    4.800    0.000    3.733 
#
# Total GULP energy -743442.498866 kJ/mol
# GULP energy per Si atom -12390.708314 kJ/mol
# Density = 1.778208 g / cm^3
# Si number density = 17.822641 Si / 1000 Ang^3
#
#
#
# Elastic Constant Matrix: (Units=GPa)
#
#
# Indices 1 2 3 4 5 6 
#
# 1 45.6088 29.0306 63.5773 0.0000 0.0000 0.0000
# 2 29.0306 69.8460 62.0418 0.0000 0.0000 0.0000
# 3 63.5773 62.0418 191.5246 0.0000 0.0000 0.0000
# 4 0.0000 0.0000 0.0000 17.5200 0.0000 0.0000
# 5 0.0000 0.0000 0.0000 0.0000 26.5304 0.0000
# 6 0.0000 0.0000 0.0000 0.0000 0.0000 11.3252
#
#
#
# Elastic Compliance Matrix: (Units=1/GPa)
#
#
# Indices 1 2 3 4 5 6 
#
# 1 0.043339 -0.007349 -0.012006 0.000000 0.000000 0.000000
# 2 -0.007349 0.021347 -0.004476 0.000000 0.000000 0.000000
# 3 -0.012006 -0.004476 0.010657 0.000000 0.000000 0.000000
# 4 0.000000 0.000000 0.000000 0.057078 0.000000 0.000000
# 5 0.000000 0.000000 0.000000 0.000000 0.037693 0.000000
# 6 0.000000 0.000000 0.000000 0.000000 0.000000 0.088299
#
#
# Mechanical properties :
#
#
# Convention : Reuss Voigt Hill
#
# Bulk Modulus (GPa) = 36.12466 68.47542 52.30004
# Shear Modulus (GPa) = 15.85787 21.23042 18.54414
#
# Velocity S-wave (km/s) = 2.98612 3.45513 3.22915
# Velocity P-wave (km/s) = 5.67470 7.37707 6.58116
#
# Compressibility (1/GPa) = 0.02768192
#
# Stress axis : x y z
#
# Youngs Moduli (GPa) = 23.07372 46.84442 93.83890
#
# Poissons Ratio (x) = 0.34425 1.12664
# Poissons Ratio (y) = 0.16957 0.41999
# Poissons Ratio (z) = 0.27703 0.20966
#
# Static dielectric constant tensor:
#      x y z
#    x 2.924960 0.000000 0.000000 
#    y 0.000000 3.277920 0.000000 
#    z 0.000000 0.000000 3.633050 
# 
# 
# High freq. dielectric constant tensor:
#      x y z
#    x 1.643560 0.000000 0.000000 
#    y 0.000000 1.664820 0.000000 
#    z 0.000000 0.000000 1.709050 
# 
# From -- ./inp_files/63831.got.cif
#   From: 2010.06.25/outbox.cif.g09.slc.cpg/sg71_32_cif.got.tgz:63831.got - 2010.06.28 04:59:45.
