data_PCOD8288736
_publ_section_title
;
Structure prediction by ZEFSAII (Michael W. Deem and Ramdas Pophale) SiO2 
 PCOD8288736
Probable space group: I M M M
;
_chemical_formula_sum "Si O2"
_cell_formula_units_Z 104
_cell_length_a 30.599904
_cell_length_b 8.633554
_cell_length_c 20.545510
_cell_angle_alpha 90.000000
_cell_angle_beta 90.000000
_cell_angle_gamma 90.000000
_cell_volume 5427.834535
_symmetry_space_group_name_H-M "I M M M"
_symmetry_group_IT_number 71
_symmetry_cell_setting 'orthorhombic'
loop_
_space_group_symop_operation_xyz
x,y,z
-x,-y,z
x,-y,-z
-x,y,-z
-x,-y,-z
x,y,-z
-x,y,z
x,-y,z
1/2+x,1/2+y,1/2+z
1/2-x,1/2-y,1/2+z
1/2+x,1/2-y,1/2-z
1/2-x,1/2+y,1/2-z
1/2-x,1/2-y,1/2-z
1/2+x,1/2+y,1/2-z
1/2-x,1/2+y,1/2+z
1/2+x,1/2-y,1/2+z
loop_
_atom_site_type_symbol
_atom_site_label
_atom_site_fract_x
_atom_site_fract_y
_atom_site_fract_z
Si Si1 0.181140 0.683369 0.000000
Si Si2 0.500000 0.826682 0.077654
Si Si3 0.086399 0.827971 0.577128
Si Si4 0.829321 0.679072 0.380109
Si Si5 0.951198 0.816737 0.926246
Si Si6 0.723851 0.184710 0.000000
Si Si7 0.798933 0.315174 0.243111
Si Si8 0.639681 0.316030 0.628203
O O1 0.156867 0.742296 0.937186
O O2 0.185496 0.500000 0.000000
O O3 0.227525 0.762225 0.000000
O O4 0.459193 0.731900 0.105075
O O5 0.500000 0.000000 0.106159
O O6 0.500000 0.832585 0.000000
O O7 0.085892 0.828048 0.500000
O O8 0.120747 0.705580 0.602914
O O9 0.096060 0.000000 0.604010
O O10 0.818268 0.500000 0.378409
O O11 0.799250 0.756687 0.435850
O O12 0.820563 0.747589 0.309266
O O13 0.912530 0.769276 0.874297
O O14 0.000000 0.758100 0.903668
O O15 0.951835 0.000000 0.930051
O O16 0.941538 0.753534 0.000000
O O17 0.719743 0.000000 0.000000
O O18 0.796996 0.500000 0.235800
O O19 0.750000 0.250000 0.250000
O O20 0.830716 0.250521 0.186715
O O21 0.645730 0.500000 0.628226
#
# Coordination Sequence:
#
# PCOD8288736 Si02
#       8
#     8   8  16  16  16   8  16  16
#     4  12  24  36  55  85 119 150 188 240 292 345
#     4   9  17  29  49  75 107 145 181 218 271 334
#     4  10  19  31  51  81 112 139 175 227 278 327
#     4  10  21  37  58  80 107 145 188 233 287 348
#     4   8  14  28  55  90 120 148 190 241 290 344
#     4  10  20  36  58  82 108 142 192 245 293 347
#     4  11  24  41  60  85 116 155 199 245 297 358
#     4  11  21  37  61  87 117 156 198 244 296 355
#
# _framework density 19.160494
#
# number of rings (size 3 to 8) (size 9 to 14) (size 15 to 20)
#    0.000    1.923    1.538    3.692    0.000    4.615 
#    0.000    0.000    1.692    2.308    0.000    0.000 
#    0.000    0.000    0.000    0.000    0.000    0.000 
#
# Total GULP energy -644216.148955 kJ/mol
# GULP energy per Si atom -12388.772095 kJ/mol
# Density = 1.911688 g / cm^3
# Si number density = 19.160494 Si / 1000 Ang^3
#
#
#
# Elastic Constant Matrix: (Units=GPa)
#
#
# Indices 1 2 3 4 5 6 
#
# 1 181.5520 41.4278 67.8053 0.0000 0.0000 0.0000
# 2 41.4278 71.5631 43.7962 0.0000 0.0000 0.0000
# 3 67.8053 43.7962 110.6607 0.0000 0.0000 0.0000
# 4 0.0000 0.0000 0.0000 20.6418 0.0000 0.0000
# 5 0.0000 0.0000 0.0000 0.0000 17.8070 0.0000
# 6 0.0000 0.0000 0.0000 0.0000 0.0000 28.6819
#
#
#
# Elastic Compliance Matrix: (Units=1/GPa)
#
#
# Indices 1 2 3 4 5 6 
#
# 1 0.007349 -0.001977 -0.003720 0.000000 0.000000 0.000000
# 2 -0.001977 0.018972 -0.006297 0.000000 0.000000 0.000000
# 3 -0.003720 -0.006297 0.013808 0.000000 0.000000 0.000000
# 4 0.000000 0.000000 0.000000 0.048445 0.000000 0.000000
# 5 0.000000 0.000000 0.000000 0.000000 0.056158 0.000000
# 6 0.000000 0.000000 0.000000 0.000000 0.000000 0.034865
#
#
# Mechanical properties :
#
#
# Convention : Reuss Voigt Hill
#
# Bulk Modulus (GPa) = 61.95813 74.42605 68.19209
# Shear Modulus (GPa) = 23.92728 27.47590 25.70159
#
# Velocity S-wave (km/s) = 3.53764 3.79091 3.66646
# Velocity P-wave (km/s) = 7.00665 7.62162 7.32060
#
# Compressibility (1/GPa) = 0.01613993
#
# Stress axis : x y z
#
# Youngs Moduli (GPa) = 136.07893 52.70897 72.42054
#
# Poissons Ratio (x) = 0.10423 0.26942
# Poissons Ratio (y) = 0.26909 0.45603
# Poissons Ratio (z) = 0.50624 0.33191
#
# Static dielectric constant tensor:
#      x y z
#    x 3.903110 0.000000 0.000000 
#    y 0.000000 3.443820 0.000000 
#    z 0.000000 0.000000 3.690020 
# 
# 
# High freq. dielectric constant tensor:
#      x y z
#    x 1.766670 0.000000 0.000000 
#    y 0.000000 1.732900 0.000000 
#    z 0.000000 0.000000 1.720640 
# 
# From -- ./inp_files/56752.got.cif
#   From: 2010.06.25/outbox.cif.g09.slc.cpg/sg71_29_cif.got.tgz:56752.got - 2010.06.28 04:59:45.
