data_PCOD8288120
_publ_section_title
;
Structure prediction by ZEFSAII (Michael W. Deem and Ramdas Pophale) SiO2 
 PCOD8288120
Probable space group: I M M M
;
_chemical_formula_sum "Si O2"
_cell_formula_units_Z 96
_cell_length_a 9.328534
_cell_length_b 32.615719
_cell_length_c 18.587434
_cell_angle_alpha 90.000000
_cell_angle_beta 90.000000
_cell_angle_gamma 90.000000
_cell_volume 5655.354000
_symmetry_space_group_name_H-M "I M M M"
_symmetry_group_IT_number 71
_symmetry_cell_setting 'orthorhombic'
loop_
_space_group_symop_operation_xyz
x,y,z
-x,-y,z
x,-y,-z
-x,y,-z
-x,-y,-z
x,y,-z
-x,y,z
x,-y,z
1/2+x,1/2+y,1/2+z
1/2-x,1/2-y,1/2+z
1/2+x,1/2-y,1/2-z
1/2-x,1/2+y,1/2-z
1/2-x,1/2-y,1/2-z
1/2+x,1/2+y,1/2-z
1/2-x,1/2+y,1/2+z
1/2+x,1/2-y,1/2+z
loop_
_atom_site_type_symbol
_atom_site_label
_atom_site_fract_x
_atom_site_fract_y
_atom_site_fract_z
Si Si1 0.665518 0.762165 0.916631
Si Si2 0.829535 0.169832 0.420693
Si Si3 0.663825 0.093438 0.920089
Si Si4 0.833144 0.164899 0.143433
Si Si5 0.333072 0.382227 0.211824
Si Si6 0.667673 0.953650 0.220210
O O1 0.500000 0.766833 0.893967
O O2 0.721614 0.715957 0.903189
O O3 0.760859 0.790986 0.866119
O O4 0.685564 0.774201 0.000000
O O5 0.773890 0.156394 0.500000
O O6 0.771605 0.138140 0.361154
O O7 0.000000 0.170156 0.420073
O O8 0.500000 0.107889 0.908894
O O9 0.763548 0.132982 0.911965
O O10 0.704562 0.058771 0.862006
O O11 0.686481 0.074930 0.000000
O O12 0.804491 0.149930 0.224447
O O13 0.000000 0.168378 0.125696
O O14 0.500000 0.392977 0.205543
O O15 0.249883 0.424595 0.224056
O O16 0.500000 0.949522 0.235709
O O17 0.721056 0.000000 0.231854
#
# Coordination Sequence:
#
# PCOD8288120 Si02
#       6
#    16  16  16  16  16  16
#     4   9  17  29  45  64  87 119 158 192 219 252
#     4   8  15  30  51  70  87 112 148 188 226 262
#     4   9  17  29  45  64  87 119 158 192 218 249
#     4  10  19  28  40  63  95 125 151 183 222 260
#     4   9  18  32  49  69  91 115 146 183 223 267
#     4   9  18  32  49  69  92 117 145 179 222 269
#
# _framework density 16.975066000000002
#
# number of rings (size 3 to 8) (size 9 to 14) (size 15 to 20)
#    0.000    3.000    0.000    2.000    0.000    4.667 
#    0.000    2.500    0.000    2.000    0.000    8.167 
#    0.000    0.000    0.000    0.000    0.000    0.000 
#
# Total GULP energy -595117.942349 kJ/mol
# GULP energy per Si atom -12398.290466 kJ/mol
# Density = 1.693643 g / cm^3
# Si number density = 16.975066 Si / 1000 Ang^3
#
#
#
# Elastic Constant Matrix: (Units=GPa)
#
#
# Indices 1 2 3 4 5 6 
#
# 1 55.4478 50.5170 38.7008 0.0000 0.0000 0.0000
# 2 50.5170 137.6783 78.2971 0.0000 0.0000 0.0000
# 3 38.7008 78.2971 95.3697 0.0005 0.0000 0.0000
# 4 0.0000 0.0000 0.0005 18.9954 0.0000 0.0000
# 5 0.0000 0.0000 0.0000 0.0000 18.1684 0.0000
# 6 0.0000 0.0000 0.0000 0.0000 0.0000 25.6820
#
#
#
# Elastic Compliance Matrix: (Units=1/GPa)
#
#
# Indices 1 2 3 4 5 6 
#
# 1 0.028607 -0.007306 -0.005611 0.000000 0.000000 0.000000
# 2 -0.007306 0.015490 -0.009753 0.000000 0.000000 0.000000
# 3 -0.005611 -0.009753 0.020769 -0.000001 0.000000 0.000000
# 4 0.000000 0.000000 -0.000001 0.052644 0.000000 0.000000
# 5 0.000000 0.000000 0.000000 0.000000 0.055041 0.000000
# 6 0.000000 0.000000 0.000000 0.000000 0.000000 0.038938
#
#
# Mechanical properties :
#
#
# Convention : Reuss Voigt Hill
#
# Bulk Modulus (GPa) = 51.20795 69.28064 60.24429
# Shear Modulus (GPa) = 18.98707 20.63453 19.81080
#
# Velocity S-wave (km/s) = 3.34807 3.49030 3.41992
# Velocity P-wave (km/s) = 6.72147 7.55941 7.15272
#
# Compressibility (1/GPa) = 0.01952822
#
# Stress axis : x y z
#
# Youngs Moduli (GPa) = 34.95618 64.55707 48.14843
#
# Poissons Ratio (x) = 0.47163 0.27016
# Poissons Ratio (y) = 0.25538 0.46957
# Poissons Ratio (z) = 0.19614 0.62960
#
# Static dielectric constant tensor:
#      x y z
#    x 3.012320 0.000000 0.000000 
#    y 0.000000 3.126560 0.000000 
#    z 0.000000 0.000000 3.279450 
# 
# 
# High freq. dielectric constant tensor:
#      x y z
#    x 1.636610 0.000000 0.000000 
#    y 0.000000 1.644430 0.000000 
#    z 0.000000 0.000000 1.645600 
# 
# From -- ./inp_files/50803.got.cif
#   From: 2010.06.25/outbox.cif.g09.slc.cpg/sg71_26_cif.got.tgz:50803.got - 2010.06.28 04:59:45.
