data_PCOD8288421
_publ_section_title
;
Structure prediction by ZEFSAII (Michael W. Deem and Ramdas Pophale) SiO2 
 PCOD8288421
Probable space group: I M M M
;
_chemical_formula_sum "Si O2"
_cell_formula_units_Z 120
_cell_length_a 28.523177
_cell_length_b 8.854606
_cell_length_c 27.515524
_cell_angle_alpha 90.000000
_cell_angle_beta 90.000000
_cell_angle_gamma 90.000000
_cell_volume 6949.361855
_symmetry_space_group_name_H-M "I M M M"
_symmetry_group_IT_number 71
_symmetry_cell_setting 'orthorhombic'
loop_
_space_group_symop_operation_xyz
x,y,z
-x,-y,z
x,-y,-z
-x,y,-z
-x,-y,-z
x,y,-z
-x,y,z
x,-y,z
1/2+x,1/2+y,1/2+z
1/2-x,1/2-y,1/2+z
1/2+x,1/2-y,1/2-z
1/2-x,1/2+y,1/2-z
1/2-x,1/2-y,1/2-z
1/2+x,1/2+y,1/2-z
1/2-x,1/2+y,1/2+z
1/2+x,1/2-y,1/2+z
loop_
_atom_site_type_symbol
_atom_site_label
_atom_site_fract_x
_atom_site_fract_y
_atom_site_fract_z
Si Si1 0.084820 0.176736 0.385126
Si Si2 0.054535 0.679141 0.713642
Si Si3 0.000000 0.179697 0.447075
Si Si4 0.272736 0.323582 0.445295
Si Si5 0.174454 0.327889 0.406222
Si Si6 0.134732 0.175259 0.771665
Si Si7 0.307142 0.827576 0.348646
Si Si8 0.794473 0.828830 0.685984
O O1 0.081033 0.259201 0.333759
O O2 0.131154 0.216686 0.415868
O O3 0.044276 0.241032 0.418633
O O4 0.081358 0.000000 0.374990
O O5 0.055793 0.500000 0.713416
O O6 0.086322 0.740323 0.757803
O O7 0.000000 0.735345 0.717124
O O8 0.000000 0.253465 0.500000
O O9 0.000000 0.000000 0.450229
O O10 0.289282 0.277961 0.500000
O O11 0.281652 0.500000 0.435517
O O12 0.217137 0.288487 0.442125
O O13 0.299470 0.231134 0.403702
O O14 0.158263 0.500000 0.412342
O O15 0.189012 0.299316 0.350800
O O16 0.150610 0.234389 0.824459
O O17 0.179109 0.206001 0.736186
O O18 0.122626 0.000000 0.774788
O O19 0.261881 0.813451 0.313005
O O20 0.322901 0.000000 0.353198
O O21 0.807752 0.000000 0.668574
#
# Coordination Sequence:
#
# PCOD8288421 Si02
#       8
#    16  16   8  16  16  16  16  16
#     4  11  20  33  52  70  93 125 165 212 263 319
#     4  11  23  37  54  76 102 132 170 214 263 315
#     4   9  20  36  51  67  87 117 161 215 270 317
#     4   9  19  36  54  72 100 138 176 213 255 303
#     4  10  19  30  48  72  97 128 166 210 256 300
#     4  11  21  33  52  76 104 137 172 206 252 311
#     4  10  20  33  50  75 107 137 171 212 255 302
#     4   9  18  31  47  71 101 134 168 203 245 300
#
# _framework density 17.267772999999998
#
# number of rings (size 3 to 8) (size 9 to 14) (size 15 to 20)
#    0.000    1.933    2.000    2.400    0.000    3.200 
#    0.000    0.000    0.000    2.800    0.000    0.000 
#    0.000    0.533    0.000    5.600    0.000    2.400 
#
# Total GULP energy -743660.329046 kJ/mol
# GULP energy per Si atom -12394.338817 kJ/mol
# Density = 1.722847 g / cm^3
# Si number density = 17.267773 Si / 1000 Ang^3
#
#
#
# Elastic Constant Matrix: (Units=GPa)
#
#
# Indices 1 2 3 4 5 6 
#
# 1 53.7784 21.5630 33.2543 0.0000 0.0000 0.0000
# 2 21.5630 61.5918 27.3111 0.0000 0.0000 0.0000
# 3 33.2543 27.3111 79.1203 0.0000 0.0000 0.0000
# 4 0.0000 0.0000 0.0000 19.1999 0.0000 0.0000
# 5 0.0000 0.0000 0.0000 0.0000 15.9906 0.0000
# 6 0.0000 0.0000 0.0000 0.0000 0.0000 31.4293
#
#
#
# Elastic Compliance Matrix: (Units=1/GPa)
#
#
# Indices 1 2 3 4 5 6 
#
# 1 0.026419 -0.005107 -0.009341 0.000000 0.000000 0.000000
# 2 -0.005107 0.020157 -0.004812 0.000000 0.000000 0.000000
# 3 -0.009341 -0.004812 0.018226 0.000000 0.000000 0.000000
# 4 0.000000 0.000000 0.000000 0.052084 0.000000 0.000000
# 5 0.000000 0.000000 0.000000 0.000000 0.062537 0.000000
# 6 0.000000 0.000000 0.000000 0.000000 0.000000 0.031817
#
#
# Mechanical properties :
#
#
# Convention : Reuss Voigt Hill
#
# Bulk Modulus (GPa) = 38.04759 39.86083 38.95421
# Shear Modulus (GPa) = 19.34091 20.81477 20.07784
#
# Velocity S-wave (km/s) = 3.35036 3.47567 3.41359
# Velocity P-wave (km/s) = 6.08673 6.26427 6.17614
#
# Compressibility (1/GPa) = 0.02628287
#
# Stress axis : x y z
#
# Youngs Moduli (GPa) = 37.85218 49.60949 54.86720
#
# Poissons Ratio (x) = 0.25336 0.51251
# Poissons Ratio (y) = 0.19331 0.26400
# Poissons Ratio (z) = 0.35357 0.23870
#
# Static dielectric constant tensor:
#      x y z
#    x 3.218580 0.000000 0.000000 
#    y 0.000000 3.200910 0.000000 
#    z 0.000000 0.000000 3.062840 
# 
# 
# High freq. dielectric constant tensor:
#      x y z
#    x 1.646750 0.000000 0.000000 
#    y 0.000000 1.672190 0.000000 
#    z 0.000000 0.000000 1.643510 
# 
# From -- ./inp_files/67186.got.cif
#   From: 2010.06.25/outbox.cif.g09.slc.cpg/sg71_34_cif.got.tgz:67186.got - 2010.06.28 04:59:45.
