data_PCOD8288711
_publ_section_title
;
Structure prediction by ZEFSAII (Michael W. Deem and Ramdas Pophale) SiO2 
 PCOD8288711
Probable space group: I M M M
;
_chemical_formula_sum "Si O2"
_cell_formula_units_Z 88
_cell_length_a 27.838030
_cell_length_b 8.892775
_cell_length_c 18.563801
_cell_angle_alpha 90.000000
_cell_angle_beta 90.000000
_cell_angle_gamma 90.000000
_cell_volume 4595.605144
_symmetry_space_group_name_H-M "I M M M"
_symmetry_group_IT_number 71
_symmetry_cell_setting 'orthorhombic'
loop_
_space_group_symop_operation_xyz
x,y,z
-x,-y,z
x,-y,-z
-x,y,-z
-x,-y,-z
x,y,-z
-x,y,z
x,-y,z
1/2+x,1/2+y,1/2+z
1/2-x,1/2-y,1/2+z
1/2+x,1/2-y,1/2-z
1/2-x,1/2+y,1/2-z
1/2-x,1/2-y,1/2-z
1/2+x,1/2+y,1/2-z
1/2-x,1/2+y,1/2+z
1/2+x,1/2-y,1/2+z
loop_
_atom_site_type_symbol
_atom_site_label
_atom_site_fract_x
_atom_site_fract_y
_atom_site_fract_z
Si Si1 0.944135 0.166586 0.640041
Si Si2 0.442473 0.169291 0.000000
Si Si3 0.268187 0.323234 0.420231
Si Si4 0.945981 0.676889 0.210854
Si Si5 0.293389 0.822934 0.207851
Si Si6 0.646244 0.677999 0.318915
O O1 0.921234 0.246317 0.570104
O O2 0.935521 0.272492 0.708013
O O3 0.000000 0.147318 0.624887
O O4 0.921462 0.000000 0.652331
O O5 0.500000 0.165998 0.000000
O O6 0.422174 0.000000 0.000000
O O7 0.265303 0.249437 0.500000
O O8 0.275154 0.500000 0.427426
O O9 0.218552 0.289486 0.376558
O O10 0.315150 0.261603 0.377409
O O11 0.939091 0.500000 0.205172
O O12 0.906707 0.759513 0.160067
O O13 0.000000 0.723957 0.186876
O O14 0.250000 0.750000 0.250000
O O15 0.341223 0.743303 0.238622
O O16 0.296149 0.000000 0.222827
O O17 0.645364 0.500000 0.315178
#
# Coordination Sequence:
#
# PCOD8288711 Si02
#       6
#    16   8  16  16  16  16
#     4   9  16  26  41  61  84 112 151 200 250 295
#     4   9  15  23  37  57  81 109 143 185 237 295
#     4   8  15  29  51  79 106 132 164 203 248 300
#     4  10  20  33  49  69  95 129 172 220 263 305
#     4   9  16  28  49  75 103 133 164 202 248 302
#     4  10  19  31  51  76 103 135 170 211 256 307
#
# _framework density 19.148731000000002
#
# number of rings (size 3 to 8) (size 9 to 14) (size 15 to 20)
#    0.000    2.818    0.000    3.545    0.000    4.364 
#    0.000    0.000    2.000   20.182    0.000    3.818 
#    0.000    0.000    0.000    0.000    0.000    0.000 
#
# Total GULP energy -545151.967961 kJ/mol
# GULP energy per Si atom -12389.817454 kJ/mol
# Density = 1.910515 g / cm^3
# Si number density = 19.148731 Si / 1000 Ang^3
#
#
#
# Elastic Constant Matrix: (Units=GPa)
#
#
# Indices 1 2 3 4 5 6 
#
# 1 81.8550 29.9619 27.7881 0.0000 0.0000 0.0000
# 2 29.9619 82.4480 20.2110 0.0000 0.0000 0.0000
# 3 27.7881 20.2110 84.7650 0.0000 0.0000 0.0000
# 4 0.0000 0.0000 0.0000 20.1070 0.0000 0.0000
# 5 0.0000 0.0000 0.0000 0.0000 14.9083 0.0000
# 6 0.0000 0.0000 0.0000 0.0000 0.0000 28.4369
#
#
#
# Elastic Compliance Matrix: (Units=1/GPa)
#
#
# Indices 1 2 3 4 5 6 
#
# 1 0.015214 -0.004573 -0.003897 0.000000 0.000000 0.000000
# 2 -0.004573 0.014257 -0.001900 0.000000 0.000000 0.000000
# 3 -0.003897 -0.001900 0.013528 0.000000 0.000000 0.000000
# 4 0.000000 0.000000 0.000000 0.049734 0.000000 0.000000
# 5 0.000000 0.000000 0.000000 0.000000 0.067077 0.000000
# 6 0.000000 0.000000 0.000000 0.000000 0.000000 0.035166
#
#
# Mechanical properties :
#
#
# Convention : Reuss Voigt Hill
#
# Bulk Modulus (GPa) = 44.92887 44.99889 44.96388
# Shear Modulus (GPa) = 22.40804 24.09758 23.25281
#
# Velocity S-wave (km/s) = 3.42454 3.55130 3.48850
# Velocity P-wave (km/s) = 6.25705 6.35345 6.30544
#
# Compressibility (1/GPa) = 0.02225740
#
# Stress axis : x y z
#
# Youngs Moduli (GPa) = 65.73025 70.14285 73.92146
#
# Poissons Ratio (x) = 0.32079 0.28807
# Poissons Ratio (y) = 0.30061 0.14045
# Poissons Ratio (z) = 0.25615 0.13327
#
# Static dielectric constant tensor:
#      x y z
#    x 3.615710 0.000000 0.000000 
#    y 0.000000 3.539770 0.000000 
#    z 0.000000 0.000000 3.671230 
# 
# 
# High freq. dielectric constant tensor:
#      x y z
#    x 1.727600 0.000000 0.000000 
#    y 0.000000 1.741930 0.000000 
#    z 0.000000 0.000000 1.715050 
# 
# From -- ./inp_files/49234.got.cif
#   From: 2010.06.25/outbox.cif.g09.slc.cpg/sg71_25_cif.got.tgz:49234.got - 2010.06.28 04:59:45.
