data_PCOD8288455
_publ_section_title
;
Structure prediction by ZEFSAII (Michael W. Deem and Ramdas Pophale) SiO2 
 PCOD8288455
Probable space group: I M M M
;
_chemical_formula_sum "Si O2"
_cell_formula_units_Z 120
_cell_length_a 15.324693
_cell_length_b 15.271732
_cell_length_c 30.033792
_cell_angle_alpha 90.000000
_cell_angle_beta 90.000000
_cell_angle_gamma 90.000000
_cell_volume 7028.946632
_symmetry_space_group_name_H-M "I M M M"
_symmetry_group_IT_number 71
_symmetry_cell_setting 'orthorhombic'
loop_
_space_group_symop_operation_xyz
x,y,z
-x,-y,z
x,-y,-z
-x,y,-z
-x,-y,-z
x,y,-z
-x,y,z
x,-y,z
1/2+x,1/2+y,1/2+z
1/2-x,1/2-y,1/2+z
1/2+x,1/2-y,1/2-z
1/2-x,1/2+y,1/2-z
1/2-x,1/2-y,1/2-z
1/2+x,1/2+y,1/2-z
1/2-x,1/2+y,1/2+z
1/2+x,1/2-y,1/2+z
loop_
_atom_site_type_symbol
_atom_site_label
_atom_site_fract_x
_atom_site_fract_y
_atom_site_fract_z
Si Si1 0.329340 0.658290 0.687801
Si Si2 0.247527 0.163810 0.330416
Si Si3 0.253883 0.398311 0.071384
Si Si4 0.102253 0.094745 0.099535
Si Si5 0.601870 0.396780 0.000000
Si Si6 0.327605 0.095985 0.755468
Si Si7 0.594071 0.273654 0.773602
Si Si8 0.900693 0.266589 0.948729
O O1 0.287156 0.740214 0.661332
O O2 0.375791 0.597874 0.651813
O O3 0.260041 0.602416 0.715574
O O4 0.399111 0.695006 0.722745
O O5 0.229295 0.114115 0.376297
O O6 0.309409 0.108737 0.297266
O O7 0.156310 0.173548 0.305743
O O8 0.235927 0.500000 0.060816
O O9 0.165423 0.346811 0.058864
O O10 0.339988 0.367051 0.043270
O O11 0.140193 0.179147 0.073920
O O12 0.000000 0.096767 0.092543
O O13 0.138144 0.000000 0.081755
O O14 0.591853 0.500000 0.000000
O O15 0.500000 0.358650 0.000000
O O16 0.392367 0.169091 0.774119
O O17 0.369193 0.000000 0.762094
O O18 0.500000 0.294549 0.792778
O O19 0.000000 0.289013 0.931093
O O20 0.906651 0.244142 0.000000
#
# Coordination Sequence:
#
# PCOD8288455 Si02
#       8
#    16  16  16  16   8  16  16  16
#     4   9  16  30  48  66  95 132 166 204 241 290
#     4   9  18  31  48  68  96 131 168 206 247 300
#     4  11  20  34  56  77 102 137 170 206 258 314
#     4  10  19  30  49  75 101 133 169 205 246 291
#     4   9  20  36  53  77 102 127 169 219 257 298
#     4   9  17  29  45  68  96 128 165 205 247 295
#     4   9  18  30  46  68  96 132 167 205 254 297
#     4  10  21  36  53  76 108 138 166 206 251 305
#
# _framework density 17.072258999999999
#
# number of rings (size 3 to 8) (size 9 to 14) (size 15 to 20)
#    0.000    2.467    2.000    2.800    0.000    1.333 
#    0.000    2.000    0.000    9.200    0.000    0.000 
#    0.000    1.067    0.000    0.000    0.000    0.000 
#
# Total GULP energy -743363.953434 kJ/mol
# GULP energy per Si atom -12389.399224 kJ/mol
# Density = 1.703340 g / cm^3
# Si number density = 17.072259 Si / 1000 Ang^3
#
#
#
# Elastic Constant Matrix: (Units=GPa)
#
#
# Indices 1 2 3 4 5 6 
#
# 1 73.3693 31.1587 13.3522 0.0000 0.0000 0.0000
# 2 31.1587 76.7664 29.1578 0.0000 0.0000 0.0000
# 3 13.3522 29.1578 75.7054 0.0000 0.0000 0.0000
# 4 0.0000 0.0000 0.0000 18.1684 0.0000 0.0000
# 5 0.0000 0.0000 0.0000 0.0000 14.4752 0.0000
# 6 0.0000 0.0000 0.0000 0.0000 0.0000 6.1676
#
#
#
# Elastic Compliance Matrix: (Units=1/GPa)
#
#
# Indices 1 2 3 4 5 6 
#
# 1 0.016478 -0.006541 -0.000387 0.000000 0.000000 0.000000
# 2 -0.006541 0.017855 -0.005723 0.000000 0.000000 0.000000
# 3 -0.000387 -0.005723 0.015482 0.000000 0.000000 0.000000
# 4 0.000000 0.000000 0.000000 0.055041 0.000000 0.000000
# 5 0.000000 0.000000 0.000000 0.000000 0.069084 0.000000
# 6 0.000000 0.000000 0.000000 0.000000 0.000000 0.162138
#
#
# Mechanical properties :
#
#
# Convention : Reuss Voigt Hill
#
# Bulk Modulus (GPa) = 40.79606 41.46428 41.13017
# Shear Modulus (GPa) = 13.52991 17.90705 15.71848
#
# Velocity S-wave (km/s) = 2.81821 3.24218 3.03760
# Velocity P-wave (km/s) = 5.87688 6.19321 6.03712
#
# Compressibility (1/GPa) = 0.02451217
#
# Stress axis : x y z
#
# Youngs Moduli (GPa) = 60.68662 56.00521 64.59261
#
# Poissons Ratio (x) = 0.36635 0.02499
# Poissons Ratio (y) = 0.39697 0.36968
# Poissons Ratio (z) = 0.02348 0.32054
#
# Static dielectric constant tensor:
#      x y z
#    x 3.104200 0.000000 0.000000 
#    y 0.000000 3.263750 0.000000 
#    z 0.000000 0.000000 3.195250 
# 
# 
# High freq. dielectric constant tensor:
#      x y z
#    x 1.638350 0.000000 0.000000 
#    y 0.000000 1.656040 0.000000 
#    z 0.000000 0.000000 1.655550 
# 
# From -- ./inp_files/70144.got.cif
#   From: 2010.06.25/outbox.cif.g09.slc.cpg/sg71_36_cif.got.tgz:70144.got - 2010.06.28 04:59:45.
