data_PCOD8288712
_publ_section_title
;
Structure prediction by ZEFSAII (Michael W. Deem and Ramdas Pophale) SiO2 
 PCOD8288712
Probable space group: I M M M
;
_chemical_formula_sum "Si O2"
_cell_formula_units_Z 120
_cell_length_a 13.581585
_cell_length_b 22.100794
_cell_length_c 20.932342
_cell_angle_alpha 90.000000
_cell_angle_beta 90.000000
_cell_angle_gamma 90.000000
_cell_volume 6283.131575
_symmetry_space_group_name_H-M "I M M M"
_symmetry_group_IT_number 71
_symmetry_cell_setting 'orthorhombic'
loop_
_space_group_symop_operation_xyz
x,y,z
-x,-y,z
x,-y,-z
-x,y,-z
-x,-y,-z
x,y,-z
-x,y,z
x,-y,z
1/2+x,1/2+y,1/2+z
1/2-x,1/2-y,1/2+z
1/2+x,1/2-y,1/2-z
1/2-x,1/2+y,1/2-z
1/2-x,1/2-y,1/2-z
1/2+x,1/2+y,1/2-z
1/2-x,1/2+y,1/2+z
1/2+x,1/2-y,1/2+z
loop_
_atom_site_type_symbol
_atom_site_label
_atom_site_fract_x
_atom_site_fract_y
_atom_site_fract_z
Si Si1 0.881977 0.314518 0.761398
Si Si2 0.884153 0.569127 0.683446
Si Si3 0.730131 0.747735 0.848572
Si Si4 0.116542 0.860597 0.380436
Si Si5 0.221984 0.635873 0.571814
Si Si6 0.617254 0.566985 0.240597
Si Si7 0.117346 0.933704 0.500000
Si Si8 0.892069 0.070805 0.119069
O O1 0.855145 0.384651 0.741828
O O2 0.826209 0.290559 0.825139
O O3 0.841883 0.269783 0.707334
O O4 0.000000 0.306647 0.769544
O O5 0.840830 0.500000 0.693056
O O6 0.853743 0.598036 0.615326
O O7 0.000000 0.564144 0.680935
O O8 0.662567 0.704507 0.891550
O O9 0.757778 0.801906 0.895706
O O10 0.154314 0.885939 0.312127
O O11 0.157781 0.902221 0.436658
O O12 0.000000 0.856976 0.382805
O O13 0.179128 0.645363 0.500000
O O14 0.322268 0.597554 0.565037
O O15 0.500000 0.566532 0.246139
O O16 0.653479 0.500000 0.220946
O O17 0.657867 0.585462 0.310932
O O18 0.000000 0.935068 0.500000
O O19 0.162843 0.000000 0.500000
O O20 0.000000 0.100667 0.113515
O O21 0.901914 0.000000 0.110095
#
# Coordination Sequence:
#
# PCOD8288712 Si02
#       8
#    16  16  16  16  16  16   8  16
#     4   9  19  37  57  80 108 135 170 221 276 325
#     4   9  19  37  59  82 108 137 174 226 281 328
#     4  10  22  35  53  78 105 143 180 216 260 317
#     4  10  19  31  51  76 106 142 177 214 257 315
#     4  11  24  38  52  74 107 148 185 224 262 312
#     4   8  15  28  48  75 104 132 162 203 257 314
#     4   9  18  32  50  76 111 145 174 211 267 327
#     4   9  19  35  54  78 107 135 168 214 266 319
#
# _framework density 19.098756999999999
#
# number of rings (size 3 to 8) (size 9 to 14) (size 15 to 20)
#    0.000    2.600    0.000    2.000    6.533    4.267 
#    0.000    2.000    0.000    0.000    0.000    0.000 
#    0.000    0.533    0.000    0.000    0.000    0.000 
#
# Total GULP energy -743496.584599 kJ/mol
# GULP energy per Si atom -12391.609743 kJ/mol
# Density = 1.905529 g / cm^3
# Si number density = 19.098757 Si / 1000 Ang^3
#
#
#
# Elastic Constant Matrix: (Units=GPa)
#
#
# Indices 1 2 3 4 5 6 
#
# 1 32.1271 32.2889 18.0186 0.0000 0.0000 0.0000
# 2 32.2889 108.6976 43.5846 0.0000 0.0000 0.0000
# 3 18.0186 43.5846 82.6457 0.0000 0.0000 0.0000
# 4 0.0000 0.0000 0.0000 24.9354 0.0000 0.0000
# 5 0.0000 0.0000 0.0000 0.0000 18.1546 0.0000
# 6 0.0000 0.0000 0.0000 0.0000 0.0000 26.2912
#
#
#
# Elastic Compliance Matrix: (Units=1/GPa)
#
#
# Indices 1 2 3 4 5 6 
#
# 1 0.045165 -0.012007 -0.003515 0.000000 0.000000 0.000000
# 2 -0.012007 0.014859 -0.005218 0.000000 0.000000 0.000000
# 3 -0.003515 -0.005218 0.015618 0.000000 0.000000 0.000000
# 4 0.000000 0.000000 0.000000 0.040104 0.000000 0.000000
# 5 0.000000 0.000000 0.000000 0.000000 0.055082 0.000000
# 6 0.000000 0.000000 0.000000 0.000000 0.000000 0.038036
#
#
# Mechanical properties :
#
#
# Convention : Reuss Voigt Hill
#
# Bulk Modulus (GPa) = 29.27246 45.69494 37.48370
# Shear Modulus (GPa) = 19.10353 22.51480 20.80917
#
# Velocity S-wave (km/s) = 3.16610 3.43718 3.30442
# Velocity P-wave (km/s) = 5.35964 6.30316 5.85045
#
# Compressibility (1/GPa) = 0.03416180
#
# Stress axis : x y z
#
# Youngs Moduli (GPa) = 22.14091 67.29948 64.02818
#
# Poissons Ratio (x) = 0.80807 0.22505
# Poissons Ratio (y) = 0.26585 0.33412
# Poissons Ratio (z) = 0.07782 0.35119
#
# Static dielectric constant tensor:
#      x y z
#    x 3.345700 0.000000 0.000000 
#    y 0.000000 3.742890 0.000000 
#    z 0.000000 0.000000 3.433760 
# 
# 
# High freq. dielectric constant tensor:
#      x y z
#    x 1.728070 0.000000 0.000000 
#    y 0.000000 1.751640 0.000000 
#    z 0.000000 0.000000 1.720170 
# 
# From -- ./inp_files/38447.got.cif
#   From: 2010.06.25/outbox.cif.g09.slc.cpg/sg71_20_cif.got.tgz:38447.got - 2010.06.28 04:59:45.
