data_PCOD8288504
_publ_section_title
;
Structure prediction by ZEFSAII (Michael W. Deem and Ramdas Pophale) SiO2 
 PCOD8288504
Probable space group: I M M M
;
_chemical_formula_sum "Si O2"
_cell_formula_units_Z 96
_cell_length_a 29.343932
_cell_length_b 7.942662
_cell_length_c 23.993431
_cell_angle_alpha 90.000000
_cell_angle_beta 90.000000
_cell_angle_gamma 90.000000
_cell_volume 5592.123377
_symmetry_space_group_name_H-M "I M M M"
_symmetry_group_IT_number 71
_symmetry_cell_setting 'orthorhombic'
loop_
_space_group_symop_operation_xyz
x,y,z
-x,-y,z
x,-y,-z
-x,y,-z
-x,-y,-z
x,y,-z
-x,y,z
x,-y,z
1/2+x,1/2+y,1/2+z
1/2-x,1/2-y,1/2+z
1/2+x,1/2-y,1/2-z
1/2-x,1/2+y,1/2-z
1/2-x,1/2-y,1/2-z
1/2+x,1/2+y,1/2-z
1/2-x,1/2+y,1/2+z
1/2+x,1/2-y,1/2+z
loop_
_atom_site_type_symbol
_atom_site_label
_atom_site_fract_x
_atom_site_fract_y
_atom_site_fract_z
Si Si1 0.054184 0.000000 0.344533
Si Si2 0.053991 0.313841 0.728085
Si Si3 0.948970 0.806359 0.155037
Si Si4 0.379872 0.200116 0.563135
Si Si5 0.719832 0.186827 0.433745
Si Si6 0.626604 0.500000 0.066223
Si Si7 0.314275 0.184172 0.066146
O O1 0.072091 0.833168 0.312366
O O2 0.077136 0.000000 0.405337
O O3 0.000000 0.000000 0.353174
O O4 0.069147 0.500000 0.706657
O O5 0.071771 0.290838 0.791467
O O6 0.000000 0.297454 0.730009
O O7 0.917860 0.781921 0.101453
O O8 0.000000 0.741451 0.140551
O O9 0.950719 0.000000 0.172253
O O10 0.389266 0.260609 0.500000
O O11 0.329574 0.262049 0.583605
O O12 0.382044 0.000000 0.566753
O O13 0.720736 0.175933 0.500000
O O14 0.762318 0.296304 0.411353
O O15 0.725847 0.000000 0.408818
O O16 0.653612 0.665569 0.087650
O O17 0.619397 0.500000 0.000000
O O18 0.332274 0.000000 0.085991
O O19 0.313452 0.193943 0.000000
#
# Coordination Sequence:
#
# PCOD8288504 Si02
#       7
#     8  16  16  16  16   8  16
#     4  10  20  35  54  78 103 128 164 200 236 286
#     4   9  17  32  54  74  93 121 163 216 255 278
#     4  10  19  31  46  65  94 128 168 216 256 295
#     4   9  18  29  42  65  98 133 168 206 253 309
#     4   8  13  25  43  62  91 126 160 204 247 281
#     4  10  20  33  50  76 110 137 156 190 234 286
#     4   9  16  27  46  70  97 131 166 197 233 278
#
# _framework density 17.167002
#
# number of rings (size 3 to 8) (size 9 to 14) (size 15 to 20)
#    0.000    2.833    1.667    1.500    0.000    3.167 
#    0.000    3.333    0.000    0.000    0.000    5.833 
#    0.000    0.000    0.000    0.000    0.000    0.000 
#
# Total GULP energy -594779.892230 kJ/mol
# GULP energy per Si atom -12391.247755 kJ/mol
# Density = 1.712793 g / cm^3
# Si number density = 17.167002 Si / 1000 Ang^3
#
#
#
# Elastic Constant Matrix: (Units=GPa)
#
#
# Indices 1 2 3 4 5 6 
#
# 1 80.1552 38.0534 38.4516 0.0000 0.0000 0.0000
# 2 38.0534 112.1720 30.9164 0.0000 0.0000 0.0000
# 3 38.4516 30.9164 54.6199 0.0000 0.0000 0.0000
# 4 0.0000 0.0000 0.0000 13.5292 0.0000 0.0000
# 5 0.0000 0.0000 0.0000 0.0000 3.3469 0.0000
# 6 0.0000 0.0000 0.0000 0.0000 0.0000 14.0516
#
#
#
# Elastic Compliance Matrix: (Units=1/GPa)
#
#
# Indices 1 2 3 4 5 6 
#
# 1 0.019887 -0.003422 -0.012064 0.000000 0.000000 0.000000
# 2 -0.003422 0.011151 -0.003903 0.000000 0.000000 0.000000
# 3 -0.012064 -0.003903 0.029010 0.000000 0.000000 0.000000
# 4 0.000000 0.000000 0.000000 0.073914 0.000000 0.000000
# 5 0.000000 0.000000 0.000000 0.000000 0.298782 0.000000
# 6 0.000000 0.000000 0.000000 0.000000 0.000000 0.071166
#
#
# Mechanical properties :
#
#
# Convention : Reuss Voigt Hill
#
# Bulk Modulus (GPa) = 47.01010 51.30998 49.16004
# Shear Modulus (GPa) = 9.09456 15.48725 12.29090
#
# Velocity S-wave (km/s) = 2.30417 3.00684 2.67865
# Velocity P-wave (km/s) = 5.87557 6.48139 6.18590
#
# Compressibility (1/GPa) = 0.02127203
#
# Stress axis : x y z
#
# Youngs Moduli (GPa) = 50.28329 89.67447 34.47051
#
# Poissons Ratio (x) = 0.30684 0.41584
# Poissons Ratio (y) = 0.17205 0.13455
# Poissons Ratio (z) = 0.60660 0.35002
#
# Static dielectric constant tensor:
#      x y z
#    x 3.182840 0.000000 0.000000 
#    y 0.000000 3.427850 0.000000 
#    z 0.000000 0.000000 2.797310 
# 
# 
# High freq. dielectric constant tensor:
#      x y z
#    x 1.645730 0.000000 0.000000 
#    y 0.000000 1.674950 0.000000 
#    z 0.000000 0.000000 1.610890 
# 
# From -- ./inp_files/61907.got.cif
#   From: 2010.06.25/outbox.cif.g09.slc.cpg/sg71_31_cif.got.tgz:61907.got - 2010.06.28 04:59:45.
