data_PCOD8288413
_publ_section_title
;
Structure prediction by ZEFSAII (Michael W. Deem and Ramdas Pophale) SiO2 
 PCOD8288413
Probable space group: I M M M
;
_chemical_formula_sum "Si O2"
_cell_formula_units_Z 104
_cell_length_a 26.207682
_cell_length_b 9.101554
_cell_length_c 24.291647
_cell_angle_alpha 90.000000
_cell_angle_beta 90.000000
_cell_angle_gamma 90.000000
_cell_volume 5794.301934
_symmetry_space_group_name_H-M "I M M M"
_symmetry_group_IT_number 71
_symmetry_cell_setting 'orthorhombic'
loop_
_space_group_symop_operation_xyz
x,y,z
-x,-y,z
x,-y,-z
-x,y,-z
-x,-y,-z
x,y,-z
-x,y,z
x,-y,z
1/2+x,1/2+y,1/2+z
1/2-x,1/2-y,1/2+z
1/2+x,1/2-y,1/2-z
1/2-x,1/2+y,1/2-z
1/2-x,1/2-y,1/2-z
1/2+x,1/2+y,1/2-z
1/2-x,1/2+y,1/2+z
1/2+x,1/2-y,1/2+z
loop_
_atom_site_type_symbol
_atom_site_label
_atom_site_fract_x
_atom_site_fract_y
_atom_site_fract_z
Si Si1 0.126890 0.326839 0.936497
Si Si2 0.680554 0.825777 0.843561
Si Si3 0.631103 0.833362 0.267933
Si Si4 0.108829 0.676055 0.561230
Si Si5 0.559616 0.672433 0.348071
Si Si6 0.215753 0.664256 0.140612
Si Si7 0.000000 0.659621 0.434946
O O1 0.117586 0.500000 0.928611
O O2 0.082728 0.243946 0.903212
O O3 0.182813 0.284977 0.912644
O O4 0.124323 0.278546 0.000000
O O5 0.650024 0.766741 0.790253
O O6 0.651439 0.765551 0.897292
O O7 0.738097 0.772150 0.847560
O O8 0.682497 0.000000 0.840964
O O9 0.585501 0.736264 0.292828
O O10 0.679736 0.829594 0.306918
O O11 0.610829 0.000000 0.261322
O O12 0.123179 0.731775 0.500000
O O13 0.105305 0.500000 0.561819
O O14 0.053229 0.741051 0.580522
O O15 0.500000 0.709723 0.345995
O O16 0.570122 0.500000 0.350274
O O17 0.237114 0.500000 0.131628
O O18 0.000000 0.500000 0.405731
O O19 0.000000 0.636614 0.500000
#
# Coordination Sequence:
#
# PCOD8288413 Si02
#       7
#    16  16  16  16  16  16   8
#     4   9  19  36  56  78 105 138 176 212 247 298
#     4  10  19  30  47  75 101 124 166 215 253 294
#     4   9  19  35  51  70  97 131 172 212 250 300
#     4   8  14  25  41  64  95 124 150 189 242 293
#     4  10  21  36  54  77 105 135 168 211 262 312
#     4   9  18  32  49  68  96 134 168 200 246 298
#     4   7  10  20  38  56  81 119 149 171 216 279
#
# _framework density 17.948665999999999
#
# number of rings (size 3 to 8) (size 9 to 14) (size 15 to 20)
#    0.000    3.000    0.000    2.769    0.000    5.538 
#    1.385    1.538    0.000    0.000    0.000    0.000 
#    0.000    1.846    0.000    0.000    0.000    0.000 
#
# Total GULP energy -644475.431841 kJ/mol
# GULP energy per Si atom -12393.758305 kJ/mol
# Density = 1.790781 g / cm^3
# Si number density = 17.948666 Si / 1000 Ang^3
#
#
#
# Elastic Constant Matrix: (Units=GPa)
#
#
# Indices 1 2 3 4 5 6 
#
# 1 108.6889 45.8152 72.6940 0.0000 0.0000 0.0000
# 2 45.8152 46.1193 36.9744 0.0000 0.0000 0.0000
# 3 72.6940 36.9744 125.1934 0.0000 0.0000 0.0000
# 4 0.0000 0.0000 0.0000 13.4569 0.0000 0.0000
# 5 0.0000 0.0000 0.0000 0.0000 14.4068 0.0000
# 6 0.0000 0.0000 0.0000 0.0000 0.0000 23.4098
#
#
#
# Elastic Compliance Matrix: (Units=1/GPa)
#
#
# Indices 1 2 3 4 5 6 
#
# 1 0.020145 -0.013934 -0.007582 0.000000 0.000000 0.000000
# 2 -0.013934 0.038047 -0.003146 0.000000 0.000000 0.000000
# 3 -0.007582 -0.003146 0.013319 0.000000 0.000000 0.000000
# 4 0.000000 0.000000 0.000000 0.074311 0.000000 0.000000
# 5 0.000000 0.000000 0.000000 0.000000 0.069412 0.000000
# 6 0.000000 0.000000 0.000000 0.000000 0.000000 0.042717
#
#
# Mechanical properties :
#
#
# Convention : Reuss Voigt Hill
#
# Bulk Modulus (GPa) = 45.07012 65.66318 55.36665
# Shear Modulus (GPa) = 15.88960 18.55590 17.22275
#
# Velocity S-wave (km/s) = 2.97859 3.21881 3.10103
# Velocity P-wave (km/s) = 6.08231 7.10476 6.61332
#
# Compressibility (1/GPa) = 0.02218765
#
# Stress axis : x y z
#
# Youngs Moduli (GPa) = 49.63988 26.28340 75.07812
#
# Poissons Ratio (x) = 0.36622 0.56926
# Poissons Ratio (y) = 0.69166 0.23621
# Poissons Ratio (z) = 0.37638 0.08269
#
# Static dielectric constant tensor:
#      x y z
#    x 3.417300 0.000000 0.000000 
#    y 0.000000 3.021840 0.000000 
#    z 0.000000 0.000000 3.486370 
# 
# 
# High freq. dielectric constant tensor:
#      x y z
#    x 1.699120 0.000000 0.000000 
#    y 0.000000 1.660410 0.000000 
#    z 0.000000 0.000000 1.694780 
# 
# From -- ./inp_files/13286.got.cif
#   From: 2010.06.25/outbox.cif.g09.slc.cpg/sg71_7_cif.got.tgz:13286.got - 2010.06.28 04:59:45.
