data_PCOD8288566
_publ_section_title
;
Structure prediction by ZEFSAII (Michael W. Deem and Ramdas Pophale) SiO2 
 PCOD8288566
Probable space group: I M M M
;
_chemical_formula_sum "Si O2"
_cell_formula_units_Z 88
_cell_length_a 9.194479
_cell_length_b 27.055671
_cell_length_c 19.816630
_cell_angle_alpha 90.000000
_cell_angle_beta 90.000000
_cell_angle_gamma 90.000000
_cell_volume 4929.640342
_symmetry_space_group_name_H-M "I M M M"
_symmetry_group_IT_number 71
_symmetry_cell_setting 'orthorhombic'
loop_
_space_group_symop_operation_xyz
x,y,z
-x,-y,z
x,-y,-z
-x,y,-z
-x,-y,-z
x,y,-z
-x,y,z
x,-y,z
1/2+x,1/2+y,1/2+z
1/2-x,1/2-y,1/2+z
1/2+x,1/2-y,1/2-z
1/2-x,1/2+y,1/2-z
1/2-x,1/2-y,1/2-z
1/2+x,1/2+y,1/2-z
1/2-x,1/2+y,1/2+z
1/2+x,1/2-y,1/2+z
loop_
_atom_site_type_symbol
_atom_site_label
_atom_site_fract_x
_atom_site_fract_y
_atom_site_fract_z
Si Si1 0.834880 0.665170 0.000000
Si Si2 0.168534 0.556504 0.369292
Si Si3 0.670864 0.666812 0.866997
Si Si4 0.662959 0.282596 0.500000
Si Si5 0.831266 0.361858 0.737818
Si Si6 0.336354 0.558686 0.500000
Si Si7 0.668167 0.781132 0.130006
O O1 0.750068 0.646251 0.933864
O O2 0.833554 0.723862 0.000000
O O3 0.000000 0.644712 0.000000
O O4 0.211621 0.500000 0.352695
O O5 0.206145 0.588991 0.304095
O O6 0.256696 0.578079 0.432923
O O7 0.000000 0.561139 0.388446
O O8 0.500000 0.657532 0.874712
O O9 0.732232 0.636283 0.803998
O O10 0.707565 0.724394 0.854835
O O11 0.500000 0.303520 0.500000
O O12 0.742672 0.302373 0.433352
O O13 0.790318 0.313192 0.695065
O O14 0.000000 0.360420 0.759128
O O15 0.330765 0.500000 0.500000
O O16 0.500000 0.579172 0.500000
O O17 0.500000 0.787237 0.111090
#
# Coordination Sequence:
#
# PCOD8288566 Si02
#       7
#     8  16  16   8  16   8  16
#     4   9  17  31  50  68  90 122 157 189 222 268
#     4   9  18  33  51  69  91 122 160 198 233 273
#     4  10  19  31  48  70  95 122 153 189 229 273
#     4   9  17  28  44  65  89 122 161 197 230 264
#     4  10  20  32  47  68  93 123 157 191 232 278
#     4   9  17  30  49  70  92 121 157 198 241 278
#     4   9  18  31  45  63  92 127 158 190 228 272
#
# _framework density 17.851201
#
# number of rings (size 3 to 8) (size 9 to 14) (size 15 to 20)
#    0.000    2.636    0.000    1.909    0.000    6.182 
#    0.000    3.636    0.000    0.000    0.000    0.636 
#    0.000    5.091    0.000    0.000    0.000    0.000 
#
# Total GULP energy -545657.565204 kJ/mol
# GULP energy per Si atom -12401.308300 kJ/mol
# Density = 1.781057 g / cm^3
# Si number density = 17.851201 Si / 1000 Ang^3
#
#
#
# Elastic Constant Matrix: (Units=GPa)
#
#
# Indices 1 2 3 4 5 6 
#
# 1 105.3119 28.3207 83.5832 -0.0001 0.0000 0.0000
# 2 28.3207 47.5318 40.0192 -0.0001 0.0000 0.0000
# 3 83.5832 40.0192 157.4281 -0.0008 -0.0001 0.0000
# 4 -0.0001 -0.0001 -0.0008 6.6786 -0.0001 0.0000
# 5 0.0000 0.0000 -0.0001 -0.0001 38.1309 -0.0001
# 6 0.0000 0.0000 0.0000 0.0000 -0.0001 13.4142
#
#
#
# Elastic Compliance Matrix: (Units=1/GPa)
#
#
# Indices 1 2 3 4 5 6 
#
# 1 0.016780 -0.003177 -0.008101 -0.000001 0.000000 0.000000
# 2 -0.003177 0.027369 -0.005271 0.000000 0.000000 0.000000
# 3 -0.008101 -0.005271 0.011993 0.000001 0.000000 0.000000
# 4 -0.000001 0.000000 0.000001 0.149733 0.000000 0.000000
# 5 0.000000 0.000000 0.000000 0.000000 0.026225 0.000000
# 6 0.000000 0.000000 0.000000 0.000000 0.000000 0.074548
#
#
# Mechanical properties :
#
#
# Convention : Reuss Voigt Hill
#
# Bulk Modulus (GPa) = 43.39492 68.23535 55.81514
# Shear Modulus (GPa) = 14.39152 22.20131 18.29641
#
# Velocity S-wave (km/s) = 2.84243 3.53042 3.20494
# Velocity P-wave (km/s) = 5.92744 7.41121 6.71046
#
# Compressibility (1/GPa) = 0.02304417
#
# Stress axis : x y z
#
# Youngs Moduli (GPa) = 59.59589 36.53762 83.38124
#
# Poissons Ratio (x) = 0.11608 0.67549
# Poissons Ratio (y) = 0.18934 0.43947
# Poissons Ratio (z) = 0.48280 0.19258
#
# Static dielectric constant tensor:
#      x y z
#    x 3.369960 0.000000 0.000000 
#    y 0.000000 3.025680 0.000000 
#    z 0.000000 0.000000 3.294820 
# 
# 
# High freq. dielectric constant tensor:
#      x y z
#    x 1.695680 0.000000 0.000000 
#    y 0.000000 1.649960 0.000000 
#    z 0.000000 0.000000 1.691890 
# 
# From -- ./inp_files/8897.got.cif
#   From: 2010.06.25/outbox.cif.g09.slc.cpg/sg71_5_cif.got.tgz:8897.got - 2010.06.28 04:59:45.
