data_PCOD8288886
_publ_section_title
;
Structure prediction by ZEFSAII (Michael W. Deem and Ramdas Pophale) SiO2 
 PCOD8288886
Probable space group: I M M M
;
_chemical_formula_sum "Si O2"
_cell_formula_units_Z 72
_cell_length_a 14.002200
_cell_length_b 9.738644
_cell_length_c 29.262095
_cell_angle_alpha 90.000000
_cell_angle_beta 90.000000
_cell_angle_gamma 90.000000
_cell_volume 3990.250703
_symmetry_space_group_name_H-M "I M M M"
_symmetry_group_IT_number 71
_symmetry_cell_setting 'orthorhombic'
loop_
_space_group_symop_operation_xyz
x,y,z
-x,-y,z
x,-y,-z
-x,y,-z
-x,-y,-z
x,y,-z
-x,y,z
x,-y,z
1/2+x,1/2+y,1/2+z
1/2-x,1/2-y,1/2+z
1/2+x,1/2-y,1/2-z
1/2-x,1/2+y,1/2-z
1/2-x,1/2-y,1/2-z
1/2+x,1/2+y,1/2-z
1/2-x,1/2+y,1/2+z
1/2+x,1/2-y,1/2+z
loop_
_atom_site_type_symbol
_atom_site_label
_atom_site_fract_x
_atom_site_fract_y
_atom_site_fract_z
Si Si1 0.893945 0.336818 0.000000
Si Si2 0.891877 0.654961 0.447174
Si Si3 0.735423 0.156462 0.314237
Si Si4 0.889723 0.660187 0.728773
Si Si5 0.232299 0.657808 0.083717
O O1 0.841256 0.283830 0.954109
O O2 0.899670 0.500000 0.000000
O O3 0.000000 0.273260 0.000000
O O4 0.884449 0.696276 0.500000
O O5 0.854905 0.500000 0.439739
O O6 0.830356 0.759037 0.417664
O O7 0.000000 0.667827 0.429781
O O8 0.827324 0.253775 0.307299
O O9 0.650029 0.192391 0.279499
O O10 0.691585 0.176223 0.365047
O O11 0.770373 0.000000 0.307192
O O12 0.879486 0.500000 0.716536
O O13 0.000000 0.706771 0.726616
O O14 0.255506 0.500000 0.072668
#
# Coordination Sequence:
#
# PCOD8288886 Si02
#       5
#     8  16  16  16  16
#     4   9  18  32  50  73 100 130 165 203 242 285
#     4   9  18  32  49  69  95 130 168 203 243 289
#     4   9  19  33  50  75 103 129 161 204 251 295
#     4   9  18  34  54  74  98 130 166 203 246 298
#     4  10  19  32  51  75 102 131 165 205 247 290
#
# _framework density 18.043979
#
# number of rings (size 3 to 8) (size 9 to 14) (size 15 to 20)
#    0.000    2.778    1.111    0.667    0.000    3.556 
#    0.000   10.000    0.000    1.333    0.000    3.111 
#    0.000    0.000    0.000    0.000    0.000    0.000 
#
# Total GULP energy -446338.050453 kJ/mol
# GULP energy per Si atom -12398.279179 kJ/mol
# Density = 1.800291 g / cm^3
# Si number density = 18.043979 Si / 1000 Ang^3
#
#
#
# Elastic Constant Matrix: (Units=GPa)
#
#
# Indices 1 2 3 4 5 6 
#
# 1 103.5498 36.7555 43.6751 0.0000 0.0000 0.0000
# 2 36.7555 48.2241 29.7804 0.0000 0.0000 0.0000
# 3 43.6751 29.7804 108.0798 0.0000 0.0000 0.0000
# 4 0.0000 0.0000 0.0000 24.2972 0.0000 0.0000
# 5 0.0000 0.0000 0.0000 0.0000 16.4346 0.0000
# 6 0.0000 0.0000 0.0000 0.0000 0.0000 21.3444
#
#
#
# Elastic Compliance Matrix: (Units=1/GPa)
#
#
# Indices 1 2 3 4 5 6 
#
# 1 0.014158 -0.008746 -0.003311 0.000000 0.000000 0.000000
# 2 -0.008746 0.030392 -0.004840 0.000000 0.000000 0.000000
# 3 -0.003311 -0.004840 0.011924 0.000000 0.000000 0.000000
# 4 0.000000 0.000000 0.000000 0.041157 0.000000 0.000000
# 5 0.000000 0.000000 0.000000 0.000000 0.060847 0.000000
# 6 0.000000 0.000000 0.000000 0.000000 0.000000 0.046851
#
#
# Mechanical properties :
#
#
# Convention : Reuss Voigt Hill
#
# Bulk Modulus (GPa) = 44.09351 53.36397 48.72874
# Shear Modulus (GPa) = 20.26886 22.39142 21.33014
#
# Velocity S-wave (km/s) = 3.35521 3.52651 3.44193
# Velocity P-wave (km/s) = 6.28487 6.79855 6.54675
#
# Compressibility (1/GPa) = 0.02267908
#
# Stress axis : x y z
#
# Youngs Moduli (GPa) = 70.62932 32.90393 83.86360
#
# Poissons Ratio (x) = 0.28779 0.27771
# Poissons Ratio (y) = 0.61775 0.40588
# Poissons Ratio (z) = 0.23389 0.15925
#
# Static dielectric constant tensor:
#      x y z
#    x 3.292560 0.000000 0.000000 
#    y 0.000000 3.211310 0.000000 
#    z 0.000000 0.000000 3.391550 
# 
# 
# High freq. dielectric constant tensor:
#      x y z
#    x 1.684860 0.000000 0.000000 
#    y 0.000000 1.683780 0.000000 
#    z 0.000000 0.000000 1.703290 
# 
# From -- ./inp_files/6442.got.cif
#   From: 2010.06.25/outbox.cif.g09.slc.cpg/sg71_4_cif.got.tgz:6442.got - 2010.06.28 04:59:45.
