data_PCOD8288420
_publ_section_title
;
Structure prediction by ZEFSAII (Michael W. Deem and Ramdas Pophale) SiO2 
 PCOD8288420
Probable space group: I M M M
;
_chemical_formula_sum "Si O2"
_cell_formula_units_Z 96
_cell_length_a 9.184432
_cell_length_b 25.444853
_cell_length_c 23.342539
_cell_angle_alpha 90.000000
_cell_angle_beta 90.000000
_cell_angle_gamma 90.000000
_cell_volume 5455.070182
_symmetry_space_group_name_H-M "I M M M"
_symmetry_group_IT_number 71
_symmetry_cell_setting 'orthorhombic'
loop_
_space_group_symop_operation_xyz
x,y,z
-x,-y,z
x,-y,-z
-x,y,-z
-x,-y,-z
x,y,-z
-x,y,z
x,-y,z
1/2+x,1/2+y,1/2+z
1/2-x,1/2-y,1/2+z
1/2+x,1/2-y,1/2-z
1/2-x,1/2+y,1/2-z
1/2-x,1/2-y,1/2-z
1/2+x,1/2+y,1/2-z
1/2-x,1/2+y,1/2+z
1/2+x,1/2-y,1/2+z
loop_
_atom_site_type_symbol
_atom_site_label
_atom_site_fract_x
_atom_site_fract_y
_atom_site_fract_z
Si Si1 0.173253 0.941887 0.564584
Si Si2 0.170415 0.195109 0.244259
Si Si3 0.671738 0.345218 0.135381
Si Si4 0.328139 0.347811 0.621970
Si Si5 0.667443 0.754368 0.066054
Si Si6 0.332095 0.939537 0.934189
O O1 0.224499 0.928609 0.500000
O O2 0.239534 0.898265 0.607830
O O3 0.000000 0.941467 0.567187
O O4 0.230094 0.000000 0.582503
O O5 0.250000 0.250000 0.250000
O O6 0.213512 0.157736 0.297689
O O7 0.219119 0.165577 0.186789
O O8 0.000000 0.207411 0.244454
O O9 0.500000 0.346276 0.125761
O O10 0.732772 0.293676 0.103084
O O11 0.500000 0.347502 0.614354
O O12 0.260144 0.306122 0.578338
O O13 0.268156 0.405304 0.607394
O O14 0.500000 0.766009 0.082399
O O15 0.682642 0.738787 0.000000
O O16 0.500000 0.924403 0.924501
O O17 0.304503 0.000000 0.918231
O O18 0.288795 0.928933 0.000000
#
# Coordination Sequence:
#
# PCOD8288420 Si02
#       6
#    16  16  16  16  16  16
#     4   8  13  22  39  65  95 123 151 190 243 294
#     4  10  20  34  50  69  96 134 174 205 244 296
#     4   9  16  28  45  65  92 126 166 205 241 284
#     4  11  22  33  48  74 105 133 165 204 254 309
#     4  10  19  30  48  72  96 127 167 208 250 299
#     4   9  19  37  59  79  99 129 171 212 250 300
#
# _framework density 17.598306000000001
#
# number of rings (size 3 to 8) (size 9 to 14) (size 15 to 20)
#    0.000    2.500    1.667    2.500    0.000    5.667 
#    0.000    1.667    0.000    3.000    0.000    0.000 
#    0.000    2.000    0.000    9.167    0.000    8.333 
#
# Total GULP energy -595155.069625 kJ/mol
# GULP energy per Si atom -12399.063951 kJ/mol
# Density = 1.755825 g / cm^3
# Si number density = 17.598306 Si / 1000 Ang^3
#
#
#
# Elastic Constant Matrix: (Units=GPa)
#
#
# Indices 1 2 3 4 5 6 
#
# 1 41.1393 34.9336 33.8708 0.0000 0.0000 0.0000
# 2 34.9336 122.5525 59.0449 0.0000 0.0000 0.0000
# 3 33.8708 59.0449 106.3153 0.0000 0.0000 0.0000
# 4 0.0000 0.0000 0.0000 31.0532 0.0000 0.0000
# 5 0.0000 0.0000 0.0000 0.0000 19.7473 0.0000
# 6 0.0000 0.0000 0.0000 0.0000 0.0000 18.9554
#
#
#
# Elastic Compliance Matrix: (Units=1/GPa)
#
#
# Indices 1 2 3 4 5 6 
#
# 1 0.036427 -0.006543 -0.007971 0.000000 0.000000 0.000000
# 2 -0.006543 0.012316 -0.004756 0.000000 0.000000 0.000000
# 3 -0.007971 -0.004756 0.014587 0.000000 0.000000 0.000000
# 4 0.000000 0.000000 0.000000 0.032203 0.000000 0.000000
# 5 0.000000 0.000000 0.000000 0.000000 0.050640 0.000000
# 6 0.000000 0.000000 0.000000 0.000000 0.000000 0.052755
#
#
# Mechanical properties :
#
#
# Convention : Reuss Voigt Hill
#
# Bulk Modulus (GPa) = 40.33922 58.41174 49.37548
# Shear Modulus (GPa) = 20.34754 23.42836 21.88795
#
# Velocity S-wave (km/s) = 3.40401 3.65264 3.53051
# Velocity P-wave (km/s) = 6.19853 7.14512 6.68859
#
# Compressibility (1/GPa) = 0.02478977
#
# Stress axis : x y z
#
# Youngs Moduli (GPa) = 27.45253 81.19537 68.55588
#
# Poissons Ratio (x) = 0.53125 0.54648
# Poissons Ratio (y) = 0.17962 0.32602
# Poissons Ratio (z) = 0.21883 0.38613
#
# Static dielectric constant tensor:
#      x y z
#    x 2.914790 0.000000 0.000000 
#    y 0.000000 3.465230 0.000000 
#    z 0.000000 0.000000 3.485280 
# 
# 
# High freq. dielectric constant tensor:
#      x y z
#    x 1.640190 0.000000 0.000000 
#    y 0.000000 1.684770 0.000000 
#    z 0.000000 0.000000 1.683160 
# 
# From -- ./inp_files/12874.got.cif
#   From: 2010.06.25/outbox.cif.g09.slc.cpg/sg71_7_cif.got.tgz:12874.got - 2010.06.28 04:59:45.
