data_PCOD8288980
_publ_section_title
;
Structure prediction by ZEFSAII (Michael W. Deem and Ramdas Pophale) SiO2 
 PCOD8288980
Probable space group: I M M M
;
_chemical_formula_sum "Si O2"
_cell_formula_units_Z 104
_cell_length_a 18.160285
_cell_length_b 12.293455
_cell_length_c 23.327409
_cell_angle_alpha 90.000000
_cell_angle_beta 90.000000
_cell_angle_gamma 90.000000
_cell_volume 5207.905794
_symmetry_space_group_name_H-M "I M M M"
_symmetry_group_IT_number 71
_symmetry_cell_setting 'orthorhombic'
loop_
_space_group_symop_operation_xyz
x,y,z
-x,-y,z
x,-y,-z
-x,y,-z
-x,-y,-z
x,y,-z
-x,y,z
x,-y,z
1/2+x,1/2+y,1/2+z
1/2-x,1/2-y,1/2+z
1/2+x,1/2-y,1/2-z
1/2-x,1/2+y,1/2-z
1/2-x,1/2-y,1/2-z
1/2+x,1/2+y,1/2-z
1/2-x,1/2+y,1/2+z
1/2+x,1/2-y,1/2+z
loop_
_atom_site_type_symbol
_atom_site_label
_atom_site_fract_x
_atom_site_fract_y
_atom_site_fract_z
Si Si1 0.587119 0.879236 0.937604
Si Si2 0.915317 0.765246 0.107166
Si Si3 0.291685 0.125215 0.437350
Si Si4 0.086734 0.000000 0.934608
Si Si5 0.713875 0.623180 0.174726
Si Si6 0.372541 0.877050 0.712315
Si Si7 0.084173 0.728034 0.678213
O O1 0.500000 0.888298 0.933834
O O2 0.613922 0.808207 0.884132
O O3 0.621199 0.000000 0.932205
O O4 0.610214 0.829221 0.000000
O O5 0.867175 0.692994 0.064080
O O6 0.888624 0.891648 0.100945
O O7 0.906068 0.716315 0.171255
O O8 0.000000 0.755934 0.088267
O O9 0.255143 0.139117 0.500000
O O10 0.235715 0.167445 0.388762
O O11 0.312043 0.000000 0.424540
O O12 0.000000 0.000000 0.939659
O O13 0.119633 0.000000 0.000000
O O14 0.689029 0.500000 0.170081
O O15 0.784008 0.639207 0.216510
O O16 0.641274 0.680836 0.199347
O O17 0.409222 0.867734 0.775003
O O18 0.389370 0.000000 0.689680
O O19 0.000000 0.770937 0.675282
#
# Coordination Sequence:
#
# PCOD8288980 Si02
#       7
#    16  16  16   8  16  16  16
#     4   8  15  29  49  75 107 138 170 218 281 340
#     4  10  19  32  52  81 115 150 187 231 279 328
#     4   9  18  33  55  80 106 144 190 234 284 333
#     4   9  18  32  50  74 110 156 194 222 266 326
#     4   9  20  38  55  74 108 149 184 225 272 332
#     4  10  21  38  59  82 110 148 190 232 285 340
#     4  11  21  33  56  86 110 140 183 231 286 341
#
# _framework density 19.969639000000001
#
# number of rings (size 3 to 8) (size 9 to 14) (size 15 to 20)
#    0.000    2.538    0.000    3.692    0.000    4.615 
#    1.385    0.769   13.538    0.000    0.000    4.308 
#    0.000    0.000    0.000    0.000    0.000    0.000 
#
# Total GULP energy -644281.628961 kJ/mol
# GULP energy per Si atom -12390.031326 kJ/mol
# Density = 1.992419 g / cm^3
# Si number density = 19.969639 Si / 1000 Ang^3
#
#
#
# Elastic Constant Matrix: (Units=GPa)
#
#
# Indices 1 2 3 4 5 6 
#
# 1 78.3047 40.1282 12.9538 0.0000 0.0000 0.0000
# 2 40.1282 100.9538 28.5142 0.0000 0.0000 0.0000
# 3 12.9538 28.5142 106.3577 0.0000 0.0000 0.0000
# 4 0.0000 0.0000 0.0000 25.8315 0.0000 0.0000
# 5 0.0000 0.0000 0.0000 0.0000 14.7619 0.0000
# 6 0.0000 0.0000 0.0000 0.0000 0.0000 23.9341
#
#
#
# Elastic Compliance Matrix: (Units=1/GPa)
#
#
# Indices 1 2 3 4 5 6 
#
# 1 0.016044 -0.006303 -0.000264 0.000000 0.000000 0.000000
# 2 -0.006303 0.013193 -0.002769 0.000000 0.000000 0.000000
# 3 -0.000264 -0.002769 0.010177 0.000000 0.000000 0.000000
# 4 0.000000 0.000000 0.000000 0.038712 0.000000 0.000000
# 5 0.000000 0.000000 0.000000 0.000000 0.067742 0.000000
# 6 0.000000 0.000000 0.000000 0.000000 0.000000 0.041781
#
#
# Mechanical properties :
#
#
# Convention : Reuss Voigt Hill
#
# Bulk Modulus (GPa) = 48.21325 49.86764 49.04044
# Shear Modulus (GPa) = 23.44813 26.50684 24.97748
#
# Velocity S-wave (km/s) = 3.43036 3.64724 3.54046
# Velocity P-wave (km/s) = 6.31550 6.53930 6.42837
#
# Compressibility (1/GPa) = 0.02074119
#
# Stress axis : x y z
#
# Youngs Moduli (GPa) = 62.32745 75.79761 98.26187
#
# Poissons Ratio (x) = 0.47774 0.02598
# Poissons Ratio (y) = 0.39284 0.27212
# Poissons Ratio (z) = 0.01648 0.20991
#
# Static dielectric constant tensor:
#      x y z
#    x 3.298650 0.000000 0.000000 
#    y 0.000000 3.641790 0.000000 
#    z 0.000000 0.000000 3.800080 
# 
# 
# High freq. dielectric constant tensor:
#      x y z
#    x 1.753960 0.000000 0.000000 
#    y 0.000000 1.768760 0.000000 
#    z 0.000000 0.000000 1.783240 
# 
# From -- ./inp_files/66036.got.cif
#   From: 2010.06.25/outbox.cif.g09.slc.cpg/sg71_34_cif.got.tgz:66036.got - 2010.06.28 04:59:45.
