data_PCOD8288087
_publ_section_title
;
Structure prediction by ZEFSAII (Michael W. Deem and Ramdas Pophale) SiO2 
 PCOD8288087
Probable space group: I M M M
;
_chemical_formula_sum "Si O2"
_cell_formula_units_Z 80
_cell_length_a 9.375850
_cell_length_b 36.011485
_cell_length_c 18.300599
_cell_angle_alpha 90.000000
_cell_angle_beta 90.000000
_cell_angle_gamma 90.000000
_cell_volume 6178.982799
_symmetry_space_group_name_H-M "I M M M"
_symmetry_group_IT_number 71
_symmetry_cell_setting 'orthorhombic'
loop_
_space_group_symop_operation_xyz
x,y,z
-x,-y,z
x,-y,-z
-x,y,-z
-x,-y,-z
x,y,-z
-x,y,z
x,-y,z
1/2+x,1/2+y,1/2+z
1/2-x,1/2-y,1/2+z
1/2+x,1/2-y,1/2-z
1/2-x,1/2+y,1/2-z
1/2-x,1/2-y,1/2-z
1/2+x,1/2+y,1/2-z
1/2-x,1/2+y,1/2+z
1/2+x,1/2-y,1/2+z
loop_
_atom_site_type_symbol
_atom_site_label
_atom_site_fract_x
_atom_site_fract_y
_atom_site_fract_z
Si Si1 0.661309 0.823443 0.152115
Si Si2 0.166400 0.110713 0.914684
Si Si3 0.834665 0.755865 0.584207
Si Si4 0.164124 0.718566 0.208632
Si Si5 0.339862 0.959127 0.913241
O O1 0.500000 0.835079 0.130912
O O2 0.769849 0.855098 0.129420
O O3 0.702697 0.785887 0.109209
O O4 0.673344 0.817960 0.240141
O O5 0.234179 0.072573 0.883696
O O6 0.000000 0.108811 0.899180
O O7 0.201083 0.116146 0.000000
O O8 0.794338 0.760668 0.500000
O O9 0.739738 0.785804 0.629557
O O10 0.000000 0.764379 0.599383
O O11 0.250000 0.750000 0.250000
O O12 0.000000 0.730531 0.197891
O O13 0.500000 0.950335 0.885886
O O14 0.291848 0.000000 0.884486
O O15 0.336071 0.959463 0.000000
#
# Coordination Sequence:
#
# PCOD8288087 Si02
#       5
#    16  16  16  16  16
#     4   9  17  28  39  50  68  94 120 146 177 214
#     4  10  19  26  34  52  73  91 115 149 185 214
#     4   9  17  28  41  56  72  91 117 149 184 219
#     4   9  17  28  40  53  69  91 118 147 181 218
#     4   8  14  25  39  51  64  87 117 144 172 209
#
# _framework density 12.947113999999999
#
# number of rings (size 3 to 8) (size 9 to 14) (size 15 to 20)
#    0.000    3.000    0.000    3.600    0.000    6.800 
#    0.000    2.000    0.000    0.000    0.000    0.000 
#    0.000    0.000    0.000    0.000    0.000    1.000 
#
# Total GULP energy -495721.510148 kJ/mol
# GULP energy per Si atom -12393.037754 kJ/mol
# Density = 1.291765 g / cm^3
# Si number density = 12.947114 Si / 1000 Ang^3
#
#
#
# Elastic Constant Matrix: (Units=GPa)
#
#
# Indices 1 2 3 4 5 6 
#
# 1 88.1318 49.1426 43.7987 0.0000 0.0000 0.0000
# 2 49.1426 62.6461 30.5698 0.0000 0.0000 0.0000
# 3 43.7987 30.5698 69.9930 -0.0002 0.0000 0.0000
# 4 0.0000 0.0000 -0.0002 10.5671 0.0000 0.0000
# 5 0.0000 0.0000 0.0000 0.0000 21.3817 0.0000
# 6 0.0000 0.0000 0.0000 0.0000 0.0000 20.8153
#
#
#
# Elastic Compliance Matrix: (Units=1/GPa)
#
#
# Indices 1 2 3 4 5 6 
#
# 1 0.023557 -0.014343 -0.008477 0.000000 0.000000 0.000000
# 2 -0.014343 0.029019 -0.003699 0.000000 0.000000 0.000000
# 3 -0.008477 -0.003699 0.021207 0.000000 0.000000 0.000000
# 4 0.000000 0.000000 0.000000 0.094634 0.000000 0.000000
# 5 0.000000 0.000000 0.000000 0.000000 0.046769 0.000000
# 6 0.000000 0.000000 0.000000 0.000000 0.000000 0.048041
#
#
# Mechanical properties :
#
#
# Convention : Reuss Voigt Hill
#
# Bulk Modulus (GPa) = 48.20221 51.97699 50.08960
# Shear Modulus (GPa) = 15.47131 17.03681 16.25406
#
# Velocity S-wave (km/s) = 3.46057 3.63144 3.54703
# Velocity P-wave (km/s) = 7.29920 7.60368 7.45299
#
# Compressibility (1/GPa) = 0.02074594
#
# Stress axis : x y z
#
# Youngs Moduli (GPa) = 42.45071 34.46040 47.15417
#
# Poissons Ratio (x) = 0.49425 0.39971
# Poissons Ratio (y) = 0.60886 0.17443
# Poissons Ratio (z) = 0.35984 0.12747
#
# Static dielectric constant tensor:
#      x y z
#    x 2.773320 0.000000 0.000000 
#    y 0.000000 2.611290 0.000000 
#    z 0.000000 0.000000 2.724350 
# 
# 
# High freq. dielectric constant tensor:
#      x y z
#    x 1.505170 0.000000 0.000000 
#    y 0.000000 1.464810 0.000000 
#    z 0.000000 0.000000 1.459010 
# 
# From -- ./inp_files/11264.got.cif
#   From: 2010.06.25/outbox.cif.g09.slc.cpg/sg71_6_cif.got.tgz:11264.got - 2010.06.28 04:59:45.
