data_PCOD8288072
_publ_section_title
;
Structure prediction by ZEFSAII (Michael W. Deem and Ramdas Pophale) SiO2 
 PCOD8288072
Probable space group: I M M M
;
_chemical_formula_sum "Si O2"
_cell_formula_units_Z 96
_cell_length_a 13.726101
_cell_length_b 16.019306
_cell_length_c 21.048916
_cell_angle_alpha 90.000000
_cell_angle_beta 90.000000
_cell_angle_gamma 90.000000
_cell_volume 4628.290632
_symmetry_space_group_name_H-M "I M M M"
_symmetry_group_IT_number 71
_symmetry_cell_setting 'orthorhombic'
loop_
_space_group_symop_operation_xyz
x,y,z
-x,-y,z
x,-y,-z
-x,y,-z
-x,-y,-z
x,y,-z
-x,y,z
x,-y,z
1/2+x,1/2+y,1/2+z
1/2-x,1/2-y,1/2+z
1/2+x,1/2-y,1/2-z
1/2-x,1/2+y,1/2-z
1/2-x,1/2-y,1/2-z
1/2+x,1/2+y,1/2-z
1/2-x,1/2+y,1/2+z
1/2+x,1/2-y,1/2+z
loop_
_atom_site_type_symbol
_atom_site_label
_atom_site_fract_x
_atom_site_fract_y
_atom_site_fract_z
Si Si1 0.731068 0.406346 0.427121
Si Si2 0.893173 0.762138 0.123200
Si Si3 0.389023 0.141335 0.158674
Si Si4 0.895140 0.655999 0.000000
Si Si5 0.315547 0.595402 0.000000
Si Si6 0.720030 0.836006 0.720600
Si Si7 0.610777 0.338435 0.865783
O O1 0.728052 0.375302 0.500000
O O2 0.688161 0.500000 0.422671
O O3 0.672787 0.345198 0.379440
O O4 0.842020 0.405655 0.401613
O O5 0.859776 0.687596 0.168577
O O6 0.000000 0.791953 0.144800
O O7 0.892024 0.720744 0.055964
O O8 0.500000 0.112093 0.165610
O O9 0.331132 0.111592 0.222897
O O10 0.382002 0.239901 0.145005
O O11 0.802461 0.594844 0.000000
O O12 0.000000 0.606451 0.000000
O O13 0.357234 0.641114 0.937700
O O14 0.351330 0.500000 0.000000
O O15 0.750000 0.750000 0.750000
O O16 0.813604 0.880355 0.685503
O O17 0.500000 0.370398 0.853939
#
# Coordination Sequence:
#
# PCOD8288072 Si02
#       7
#    16  16  16   8   8  16  16
#     4  11  23  38  56  84 123 156 191 241 294 351
#     4  11  20  35  62  87 113 150 196 243 287 341
#     4  10  21  38  62  88 114 151 198 246 292 342
#     4  10  20  36  62  88 109 149 201 244 286 333
#     4  12  23  39  60  84 125 161 190 239 295 351
#     4  10  18  35  61  87 113 143 190 248 287 337
#     4  10  21  36  59  88 116 150 196 244 288 341
#
# _framework density 20.742000000000001
#
# number of rings (size 3 to 8) (size 9 to 14) (size 15 to 20)
#    0.000    1.500    5.833    0.750    1.167    2.500 
#    0.000    2.500    0.000    0.000    0.000    0.000 
#    0.000    0.000    0.000    0.000    0.000    0.000 
#
# Total GULP energy -594699.759288 kJ/mol
# GULP energy per Si atom -12389.578318 kJ/mol
# Density = 2.069479 g / cm^3
# Si number density = 20.742000 Si / 1000 Ang^3
#
#
#
# Elastic Constant Matrix: (Units=GPa)
#
#
# Indices 1 2 3 4 5 6 
#
# 1 162.6334 21.5039 54.1136 0.0000 0.0000 0.0000
# 2 21.5039 32.6947 9.7950 0.0000 0.0000 0.0000
# 3 54.1136 9.7950 87.9213 0.0000 0.0000 0.0000
# 4 0.0000 0.0000 0.0000 15.1895 0.0000 0.0000
# 5 0.0000 0.0000 0.0000 0.0000 17.2625 0.0000
# 6 0.0000 0.0000 0.0000 0.0000 0.0000 13.0704
#
#
#
# Elastic Compliance Matrix: (Units=1/GPa)
#
#
# Indices 1 2 3 4 5 6 
#
# 1 0.008214 -0.004022 -0.004607 0.000000 0.000000 0.000000
# 2 -0.004022 0.033612 -0.001269 0.000000 0.000000 0.000000
# 3 -0.004607 -0.001269 0.014351 0.000000 0.000000 0.000000
# 4 0.000000 0.000000 0.000000 0.065835 0.000000 0.000000
# 5 0.000000 0.000000 0.000000 0.000000 0.057929 0.000000
# 6 0.000000 0.000000 0.000000 0.000000 0.000000 0.076509
#
#
# Mechanical properties :
#
#
# Convention : Reuss Voigt Hill
#
# Bulk Modulus (GPa) = 27.48809 50.45270 38.97040
# Shear Modulus (GPa) = 17.33870 22.29357 19.81614
#
# Velocity S-wave (km/s) = 2.89437 3.28198 3.09425
# Velocity P-wave (km/s) = 4.94479 6.22403 5.62092
#
# Compressibility (1/GPa) = 0.03637939
#
# Stress axis : x y z
#
# Youngs Moduli (GPa) = 121.74990 29.75168 69.68239
#
# Poissons Ratio (x) = 0.11966 0.32104
# Poissons Ratio (y) = 0.48967 0.08844
# Poissons Ratio (z) = 0.56093 0.03776
#
# Static dielectric constant tensor:
#      x y z
#    x 4.509590 0.000000 0.000000 
#    y 0.000000 3.179350 0.000000 
#    z 0.000000 0.000000 4.085810 
# 
# 
# High freq. dielectric constant tensor:
#      x y z
#    x 1.825160 0.000000 0.000000 
#    y 0.000000 1.761830 0.000000 
#    z 0.000000 0.000000 1.827690 
# 
# From -- ./inp_files/53018.got.cif
#   From: 2010.06.25/outbox.cif.g09.slc.cpg/sg71_27_cif.got.tgz:53018.got - 2010.06.28 04:59:45.
