data_PCOD8288031
_publ_section_title
;
Structure prediction by ZEFSAII (Michael W. Deem and Ramdas Pophale) SiO2 
 PCOD8288031
Probable space group: I M M M
;
_chemical_formula_sum "Si O2"
_cell_formula_units_Z 64
_cell_length_a 21.342399
_cell_length_b 7.600942
_cell_length_c 22.767453
_cell_angle_alpha 90.000000
_cell_angle_beta 90.000000
_cell_angle_gamma 90.000000
_cell_volume 3693.389432
_symmetry_space_group_name_H-M "I M M M"
_symmetry_group_IT_number 71
_symmetry_cell_setting 'orthorhombic'
loop_
_space_group_symop_operation_xyz
x,y,z
-x,-y,z
x,-y,-z
-x,y,-z
-x,-y,-z
x,y,-z
-x,y,z
x,-y,z
1/2+x,1/2+y,1/2+z
1/2-x,1/2-y,1/2+z
1/2+x,1/2-y,1/2-z
1/2-x,1/2+y,1/2-z
1/2-x,1/2-y,1/2-z
1/2+x,1/2+y,1/2-z
1/2-x,1/2+y,1/2+z
1/2+x,1/2-y,1/2+z
loop_
_atom_site_type_symbol
_atom_site_label
_atom_site_fract_x
_atom_site_fract_y
_atom_site_fract_z
Si Si1 0.648021 0.000000 0.438583
Si Si2 0.289624 0.298494 0.500000
Si Si3 0.344599 0.306059 0.000000
Si Si4 0.074076 0.803963 0.734878
Si Si5 0.574547 0.000000 0.318993
Si Si6 0.070575 0.706825 0.392692
O O1 0.689361 0.182474 0.442236
O O2 0.604121 0.000000 0.382906
O O3 0.607254 0.000000 0.500000
O O4 0.317373 0.500000 0.500000
O O5 0.214443 0.324248 0.500000
O O6 0.386820 0.286139 0.057197
O O7 0.315452 0.500000 0.000000
O O8 0.099762 0.670117 0.783829
O O9 0.100384 0.759505 0.670230
O O10 0.000000 0.781017 0.731662
O O11 0.094310 0.000000 0.753611
O O12 0.500000 0.000000 0.326196
O O13 0.069101 0.500000 0.399313
O O14 0.000000 0.783015 0.398979
#
# Coordination Sequence:
#
# PCOD8288031 Si02
#       6
#     8   8   8  16   8  16
#     4   8  20  37  56  82  99 135 168 218 263 317
#     4   9  19  39  56  74  98 137 173 218 266 304
#     4  12  21  32  51  77 100 138 186 224 258 308
#     4   9  17  30  48  75 110 145 172 200 248 309
#     4  10  18  33  58  81 110 138 165 205 258 326
#     4  10  19  31  47  75 112 144 176 215 259 303
#
# _framework density 17.328256
#
# number of rings (size 3 to 8) (size 9 to 14) (size 15 to 20)
#    0.750    1.500    2.500    2.250    0.000    4.250 
#    0.000    0.000    0.000    2.250    0.000    0.000 
#    0.000    0.000    0.000    0.000    0.000    0.000 
#
# Total GULP energy -396439.134043 kJ/mol
# GULP energy per Si atom -12388.722939 kJ/mol
# Density = 1.728882 g / cm^3
# Si number density = 17.328256 Si / 1000 Ang^3
#
#
#
# Elastic Constant Matrix: (Units=GPa)
#
#
# Indices 1 2 3 4 5 6 
#
# 1 43.9530 23.2526 42.3991 0.0000 0.0000 0.0000
# 2 23.2526 128.8474 45.6557 0.0000 0.0000 0.0000
# 3 42.3991 45.6557 145.3732 0.0000 0.0000 0.0000
# 4 0.0000 0.0000 0.0000 19.2945 0.0000 0.0000
# 5 0.0000 0.0000 0.0000 0.0000 -8.8473 0.0000
# 6 0.0000 0.0000 0.0000 0.0000 0.0000 15.6806
#
#
#
# Elastic Compliance Matrix: (Units=1/GPa)
#
#
# Indices 1 2 3 4 5 6 
#
# 1 0.032547 -0.002824 -0.008606 0.000000 0.000000 0.000000
# 2 -0.002824 0.008978 -0.001996 0.000000 0.000000 0.000000
# 3 -0.008606 -0.001996 0.010016 0.000000 0.000000 0.000000
# 4 0.000000 0.000000 0.000000 0.051828 0.000000 0.000000
# 5 0.000000 0.000000 0.000000 0.000000 -0.113028 0.000000
# 6 0.000000 0.000000 0.000000 0.000000 0.000000 0.063773
#
#
# Mechanical properties :
#
#
# Convention : Reuss Voigt Hill
#
# Bulk Modulus (GPa) = 40.50379 60.08760 50.29570
# Shear Modulus (GPa) = 56.05705 19.01663 37.53684
#
# Velocity S-wave (km/s) = 5.69388 3.31635 4.65932
# Velocity P-wave (km/s) = 8.16408 7.02962 7.61800
#
# Compressibility (1/GPa) = 0.02468905
#
# Stress axis : x y z
#
# Youngs Moduli (GPa) = 30.72472 111.38291 99.84479
#
# Poissons Ratio (x) = 0.31459 0.85922
# Poissons Ratio (y) = 0.08678 0.19928
# Poissons Ratio (z) = 0.26440 0.22231
#
# Static dielectric constant tensor:
#      x y z
#    x 2.778700 0.000000 0.000000 
#    y 0.000000 3.434610 0.000000 
#    z 0.000000 0.000000 3.208530 
# 
# 
# High freq. dielectric constant tensor:
#      x y z
#    x 1.615530 0.000000 0.000000 
#    y 0.000000 1.689380 0.000000 
#    z 0.000000 0.000000 1.662000 
# 
# From -- ./inp_files/54659.got.cif
#   From: 2010.06.25/outbox.cif.g09.slc.cpg/sg71_28_cif.got.tgz:54659.got - 2010.06.28 04:59:45.
