data_PCOD8288291
_publ_section_title
;
Structure prediction by ZEFSAII (Michael W. Deem and Ramdas Pophale) SiO2 
 PCOD8288291
Probable space group: I M M M
;
_chemical_formula_sum "Si O2"
_cell_formula_units_Z 104
_cell_length_a 18.127599
_cell_length_b 18.235349
_cell_length_c 18.662680
_cell_angle_alpha 90.000000
_cell_angle_beta 90.000000
_cell_angle_gamma 90.000000
_cell_volume 6169.193249
_symmetry_space_group_name_H-M "I M M M"
_symmetry_group_IT_number 71
_symmetry_cell_setting 'orthorhombic'
loop_
_space_group_symop_operation_xyz
x,y,z
-x,-y,z
x,-y,-z
-x,y,-z
-x,-y,-z
x,y,-z
-x,y,z
x,-y,z
1/2+x,1/2+y,1/2+z
1/2-x,1/2-y,1/2+z
1/2+x,1/2-y,1/2-z
1/2-x,1/2+y,1/2-z
1/2-x,1/2-y,1/2-z
1/2+x,1/2+y,1/2-z
1/2-x,1/2+y,1/2+z
1/2+x,1/2-y,1/2+z
loop_
_atom_site_type_symbol
_atom_site_label
_atom_site_fract_x
_atom_site_fract_y
_atom_site_fract_z
Si Si1 0.202531 0.349072 0.084405
Si Si2 0.701508 0.209400 0.083221
Si Si3 0.306967 0.081959 0.808742
Si Si4 0.086246 0.586262 0.183347
Si Si5 0.913702 0.919830 0.500000
Si Si6 0.687747 0.419246 0.810106
Si Si7 0.914087 0.182701 0.369299
O O1 0.230608 0.265371 0.097975
O O2 0.122598 0.363828 0.120597
O O3 0.259910 0.403756 0.121674
O O4 0.198307 0.366226 0.000000
O O5 0.710683 0.133603 0.124502
O O6 0.623822 0.240823 0.112291
O O7 0.694709 0.191045 0.000000
O O8 0.376677 0.106817 0.759821
O O9 0.233766 0.084410 0.761878
O O10 0.321322 0.000000 0.838281
O O11 0.099496 0.500000 0.166719
O O12 0.000000 0.605659 0.187158
O O13 0.890419 0.873752 0.568562
O O14 0.000000 0.930442 0.500000
O O15 0.875432 0.000000 0.500000
O O16 0.652768 0.500000 0.819984
O O17 0.622705 0.358204 0.801181
O O18 0.000000 0.196026 0.358280
#
# Coordination Sequence:
#
# PCOD8288291 Si02
#       7
#    16  16  16  16   8  16  16
#     4   9  18  30  45  69  98 127 160 194 233 278
#     4  10  20  34  51  69  94 124 157 203 247 285
#     4   9  19  36  53  69  90 119 159 205 251 292
#     4   9  18  32  49  71 100 131 162 195 232 278
#     4   9  16  26  40  60  91 129 160 182 207 250
#     4   9  18  30  46  68  96 128 160 196 232 275
#     4  10  19  30  44  68 100 131 159 186 225 276
#
# _framework density 16.857958
#
# number of rings (size 3 to 8) (size 9 to 14) (size 15 to 20)
#    0.000    2.692    0.769    1.846    1.077    8.923 
#    0.000    0.769    0.000    0.000    0.000    3.231 
#    0.000    0.000    0.000    6.769    0.000    0.000 
#
# Total GULP energy -644455.318827 kJ/mol
# GULP energy per Si atom -12393.371516 kJ/mol
# Density = 1.681959 g / cm^3
# Si number density = 16.857958 Si / 1000 Ang^3
#
#
#
# Elastic Constant Matrix: (Units=GPa)
#
#
# Indices 1 2 3 4 5 6 
#
# 1 82.1465 27.3055 34.0633 0.0000 0.0000 0.0000
# 2 27.3055 89.1833 57.7774 0.0000 0.0000 0.0000
# 3 34.0633 57.7774 74.0996 0.0000 0.0000 0.0000
# 4 0.0000 0.0000 0.0000 30.9062 0.0000 0.0000
# 5 0.0000 0.0000 0.0000 0.0000 12.1435 0.0000
# 6 0.0000 0.0000 0.0000 0.0000 0.0000 17.6608
#
#
#
# Elastic Compliance Matrix: (Units=1/GPa)
#
#
# Indices 1 2 3 4 5 6 
#
# 1 0.015043 -0.000254 -0.006717 0.000000 0.000000 0.000000
# 2 -0.000254 0.022663 -0.017554 0.000000 0.000000 0.000000
# 3 -0.006717 -0.017554 0.030271 0.000000 0.000000 0.000000
# 4 0.000000 0.000000 0.000000 0.032356 0.000000 0.000000
# 5 0.000000 0.000000 0.000000 0.000000 0.082348 0.000000
# 6 0.000000 0.000000 0.000000 0.000000 0.000000 0.056623
#
#
# Mechanical properties :
#
#
# Convention : Reuss Voigt Hill
#
# Bulk Modulus (GPa) = 52.83726 53.74688 53.29207
# Shear Modulus (GPa) = 16.96849 20.56099 18.76474
#
# Velocity S-wave (km/s) = 3.17607 3.49615 3.33995
# Velocity P-wave (km/s) = 6.69780 6.94614 6.82310
#
# Compressibility (1/GPa) = 0.01892604
#
# Stress axis : x y z
#
# Youngs Moduli (GPa) = 66.47517 44.12436 33.03520
#
# Poissons Ratio (x) = 0.01121 0.22190
# Poissons Ratio (y) = 0.01689 0.57991
# Poissons Ratio (z) = 0.44652 0.77457
#
# Static dielectric constant tensor:
#      x y z
#    x 3.185340 0.000000 0.000000 
#    y 0.000000 3.154590 0.000000 
#    z 0.000000 0.000000 2.957840 
# 
# 
# High freq. dielectric constant tensor:
#      x y z
#    x 1.643200 0.000000 0.000000 
#    y 0.000000 1.642930 0.000000 
#    z 0.000000 0.000000 1.628860 
# 
# From -- ./inp_files/46125.got.cif
#   From: 2010.06.25/outbox.cif.g09.slc.cpg/sg71_24_cif.got.tgz:46125.got - 2010.06.28 04:59:45.
