data_PCOD8288794
_publ_section_title
;
Structure prediction by ZEFSAII (Michael W. Deem and Ramdas Pophale) SiO2 
 PCOD8288794
Probable space group: I M M M
;
_chemical_formula_sum "Si O2"
_cell_formula_units_Z 128
_cell_length_a 23.487368
_cell_length_b 9.762706
_cell_length_c 33.556394
_cell_angle_alpha 90.000000
_cell_angle_beta 90.000000
_cell_angle_gamma 90.000000
_cell_volume 7694.490154
_symmetry_space_group_name_H-M "I M M M"
_symmetry_group_IT_number 71
_symmetry_cell_setting 'orthorhombic'
loop_
_space_group_symop_operation_xyz
x,y,z
-x,-y,z
x,-y,-z
-x,y,-z
-x,-y,-z
x,y,-z
-x,y,z
x,-y,z
1/2+x,1/2+y,1/2+z
1/2-x,1/2-y,1/2+z
1/2+x,1/2-y,1/2-z
1/2-x,1/2+y,1/2-z
1/2-x,1/2-y,1/2-z
1/2+x,1/2+y,1/2-z
1/2-x,1/2+y,1/2+z
1/2+x,1/2-y,1/2+z
loop_
_atom_site_type_symbol
_atom_site_label
_atom_site_fract_x
_atom_site_fract_y
_atom_site_fract_z
Si Si1 0.334308 0.840729 0.742287
Si Si2 0.247450 0.844921 0.607308
Si Si3 0.063840 0.337216 0.188344
Si Si4 0.934917 0.844800 0.045987
Si Si5 0.620164 0.843215 0.608006
Si Si6 0.720407 0.342601 0.804704
Si Si7 0.683698 0.160104 0.952893
Si Si8 0.439872 0.162431 0.955283
O O1 0.393503 0.787854 0.723070
O O2 0.324507 0.753987 0.782272
O O3 0.284294 0.813193 0.710549
O O4 0.337480 0.000000 0.754116
O O5 0.313583 0.828981 0.616942
O O6 0.215478 0.808302 0.648471
O O7 0.229886 0.744674 0.571700
O O8 0.233344 0.000000 0.594080
O O9 0.065512 0.500000 0.186871
O O10 0.085315 0.282777 0.145574
O O11 0.000000 0.282176 0.196873
O O12 0.893845 0.744131 0.069303
O O13 0.000000 0.801282 0.053206
O O14 0.924990 0.000000 0.060510
O O15 0.918592 0.831320 0.000000
O O16 0.603022 0.000000 0.599608
O O17 0.704265 0.500000 0.796307
O O18 0.620710 0.209482 0.936788
O O19 0.693686 0.000000 0.944453
O O20 0.690191 0.190228 0.000000
O O21 0.500000 0.209769 0.933734
O O22 0.437984 0.000000 0.956704
O O23 0.442060 0.219962 0.000000
#
# Coordination Sequence:
#
# PCOD8288794 Si02
#       8
#    16  16  16  16  16  16  16  16
#     4   9  16  29  50  74  95 116 148 188 230 280
#     4  10  20  33  48  67  98 133 163 198 240 284
#     4   9  16  28  49  75 100 123 149 191 245 288
#     4   9  19  35  50  64  88 123 160 201 251 298
#     4  10  19  32  49  70  93 121 162 205 241 283
#     4   9  17  31  49  69  95 123 152 189 229 274
#     4   9  18  31  47  70  98 126 161 204 245 288
#     4   7  10  20  41  66  88 110 140 184 236 280
#
# _framework density 16.635280999999999
#
# number of rings (size 3 to 8) (size 9 to 14) (size 15 to 20)
#    0.000    3.000    1.250    1.875    0.000    2.750 
#    0.000    3.750    0.000    2.250    0.000    7.000 
#    0.000    0.000    0.000    0.000    0.000    0.000 
#
# Total GULP energy -793080.733227 kJ/mol
# GULP energy per Si atom -12391.886457 kJ/mol
# Density = 1.659742 g / cm^3
# Si number density = 16.635281 Si / 1000 Ang^3
#
#
#
# Elastic Constant Matrix: (Units=GPa)
#
#
# Indices 1 2 3 4 5 6 
#
# 1 83.9474 34.2446 43.7823 0.0000 0.0000 0.0000
# 2 34.2446 57.5354 48.1560 0.0000 0.0000 0.0000
# 3 43.7823 48.1560 83.3247 0.0000 0.0000 0.0000
# 4 0.0000 0.0000 0.0000 25.8498 0.0000 0.0000
# 5 0.0000 0.0000 0.0000 0.0000 28.3752 0.0000
# 6 0.0000 0.0000 0.0000 0.0000 0.0000 20.9746
#
#
#
# Elastic Compliance Matrix: (Units=1/GPa)
#
#
# Indices 1 2 3 4 5 6 
#
# 1 0.017167 -0.005168 -0.006034 0.000000 0.000000 0.000000
# 2 -0.005168 0.035220 -0.017640 0.000000 0.000000 0.000000
# 3 -0.006034 -0.017640 0.025366 0.000000 0.000000 0.000000
# 4 0.000000 0.000000 0.000000 0.038685 0.000000 0.000000
# 5 0.000000 0.000000 0.000000 0.000000 0.035242 0.000000
# 6 0.000000 0.000000 0.000000 0.000000 0.000000 0.047677
#
#
# Mechanical properties :
#
#
# Convention : Reuss Voigt Hill
#
# Bulk Modulus (GPa) = 49.82182 53.01924 51.42053
# Shear Modulus (GPa) = 18.95876 21.61488 20.28682
#
# Velocity S-wave (km/s) = 3.37957 3.60855 3.49593
# Velocity P-wave (km/s) = 6.72630 7.02160 6.87554
#
# Compressibility (1/GPa) = 0.02007153
#
# Stress axis : x y z
#
# Youngs Moduli (GPa) = 58.25083 28.39267 39.42247
#
# Poissons Ratio (x) = 0.14672 0.23787
# Poissons Ratio (y) = 0.30101 0.69540
# Poissons Ratio (z) = 0.35148 0.50084
#
# Static dielectric constant tensor:
#      x y z
#    x 3.332500 0.000000 0.000000 
#    y 0.000000 2.874330 0.000000 
#    z 0.000000 0.000000 2.937640 
# 
# 
# High freq. dielectric constant tensor:
#      x y z
#    x 1.642450 0.000000 0.000000 
#    y 0.000000 1.613620 0.000000 
#    z 0.000000 0.000000 1.621110 
# 
# From -- ./inp_files/67010.got.cif
#   From: 2010.06.25/outbox.cif.g09.slc.cpg/sg71_34_cif.got.tgz:67010.got - 2010.06.28 04:59:45.
