data_PCOD8288466
_publ_section_title
;
Structure prediction by ZEFSAII (Michael W. Deem and Ramdas Pophale) SiO2 
 PCOD8288466
Probable space group: I M M M
;
_chemical_formula_sum "Si O2"
_cell_formula_units_Z 80
_cell_length_a 23.184513
_cell_length_b 7.829658
_cell_length_c 24.223007
_cell_angle_alpha 90.000000
_cell_angle_beta 90.000000
_cell_angle_gamma 90.000000
_cell_volume 4397.125133
_symmetry_space_group_name_H-M "I M M M"
_symmetry_group_IT_number 71
_symmetry_cell_setting 'orthorhombic'
loop_
_space_group_symop_operation_xyz
x,y,z
-x,-y,z
x,-y,-z
-x,y,-z
-x,-y,-z
x,y,-z
-x,y,z
x,-y,z
1/2+x,1/2+y,1/2+z
1/2-x,1/2-y,1/2+z
1/2+x,1/2-y,1/2-z
1/2-x,1/2+y,1/2-z
1/2-x,1/2-y,1/2-z
1/2+x,1/2+y,1/2-z
1/2-x,1/2+y,1/2+z
1/2+x,1/2-y,1/2+z
loop_
_atom_site_type_symbol
_atom_site_label
_atom_site_fract_x
_atom_site_fract_y
_atom_site_fract_z
Si Si1 0.431646 0.308669 0.258131
Si Si2 0.259331 0.000000 0.934595
Si Si3 0.432142 0.807967 0.624288
Si Si4 0.162709 0.809642 0.436518
Si Si5 0.065683 0.304025 0.640012
Si Si6 0.370469 0.500000 0.434523
O O1 0.500000 0.309977 0.258170
O O2 0.406638 0.500000 0.260022
O O3 0.409999 0.209667 0.312539
O O4 0.410018 0.217157 0.202357
O O5 0.291988 0.170362 0.913354
O O6 0.194669 0.000000 0.910973
O O7 0.256607 0.000000 0.000000
O O8 0.500000 0.770990 0.620748
O O9 0.401155 0.671730 0.585631
O O10 0.417692 0.000000 0.603914
O O11 0.147407 0.769315 0.500000
O O12 0.103725 0.804301 0.402135
O O13 0.189442 0.000000 0.430569
O O14 0.069416 0.500000 0.622498
O O15 0.000000 0.236112 0.636128
O O16 0.372215 0.500000 0.500000
#
# Coordination Sequence:
#
# PCOD8288466 Si02
#       6
#    16   8  16  16  16   8
#     4   9  16  29  50  77 109 143 180 214 253 315
#     4   9  20  39  57  75 101 138 189 234 267 314
#     4  10  20  35  56  84 116 146 174 210 264 326
#     4  10  20  35  55  77 104 143 185 227 277 322
#     4  10  19  30  49  81 114 143 179 223 270 323
#     4  11  23  38  59  83 108 141 182 225 267 317
#
# _framework density 18.193705000000001
#
# number of rings (size 3 to 8) (size 9 to 14) (size 15 to 20)
#    0.000    2.200    2.000    1.500    0.000    6.000 
#    0.000    5.000    0.000    1.200    0.000    0.000 
#    0.000    0.000    0.000    0.000    0.000    0.000 
#
# Total GULP energy -495922.451137 kJ/mol
# GULP energy per Si atom -12398.061278 kJ/mol
# Density = 1.815230 g / cm^3
# Si number density = 18.193705 Si / 1000 Ang^3
#
#
#
# Elastic Constant Matrix: (Units=GPa)
#
#
# Indices 1 2 3 4 5 6 
#
# 1 80.8062 54.1321 42.8339 0.0000 0.0000 0.0000
# 2 54.1321 134.3444 42.4287 0.0000 0.0000 0.0000
# 3 42.8339 42.4287 87.1267 0.0000 0.0000 0.0000
# 4 0.0000 0.0000 0.0000 29.3376 0.0000 0.0000
# 5 0.0000 0.0000 0.0000 0.0000 1.8335 0.0000
# 6 0.0000 0.0000 0.0000 0.0000 0.0000 15.1139
#
#
#
# Elastic Compliance Matrix: (Units=1/GPa)
#
#
# Indices 1 2 3 4 5 6 
#
# 1 0.019996 -0.005853 -0.006981 0.000000 0.000000 0.000000
# 2 -0.005853 0.010509 -0.002241 0.000000 0.000000 0.000000
# 3 -0.006981 -0.002241 0.016000 0.000000 0.000000 0.000000
# 4 0.000000 0.000000 0.000000 0.034086 0.000000 0.000000
# 5 0.000000 0.000000 0.000000 0.000000 0.545402 0.000000
# 6 0.000000 0.000000 0.000000 0.000000 0.000000 0.066164
#
#
# Mechanical properties :
#
#
# Convention : Reuss Voigt Hill
#
# Bulk Modulus (GPa) = 61.12981 64.56294 62.84638
# Shear Modulus (GPa) = 6.87041 20.11584 13.49312
#
# Velocity S-wave (km/s) = 1.94537 3.32874 2.72626
# Velocity P-wave (km/s) = 6.22240 7.09489 6.67292
#
# Compressibility (1/GPa) = 0.01635863
#
# Stress axis : x y z
#
# Youngs Moduli (GPa) = 50.00949 95.15324 62.49807
#
# Poissons Ratio (x) = 0.55689 0.43628
# Poissons Ratio (y) = 0.29268 0.14003
# Poissons Ratio (z) = 0.34910 0.21319
#
# Static dielectric constant tensor:
#      x y z
#    x 3.131960 0.000000 0.000000 
#    y 0.000000 3.523820 0.000000 
#    z 0.000000 0.000000 3.375770 
# 
# 
# High freq. dielectric constant tensor:
#      x y z
#    x 1.662010 0.000000 0.000000 
#    y 0.000000 1.723030 0.000000 
#    z 0.000000 0.000000 1.698720 
# 
# From -- ./inp_files/50395.got.cif
#   From: 2010.06.25/outbox.cif.g09.slc.cpg/sg71_26_cif.got.tgz:50395.got - 2010.06.28 04:59:45.
