data_PCOD8288979
_publ_section_title
;
Structure prediction by ZEFSAII (Michael W. Deem and Ramdas Pophale) SiO2 
 PCOD8288979
Probable space group: I M M M
;
_chemical_formula_sum "Si O2"
_cell_formula_units_Z 56
_cell_length_a 10.349145
_cell_length_b 33.403206
_cell_length_c 8.702561
_cell_angle_alpha 90.000000
_cell_angle_beta 90.000000
_cell_angle_gamma 90.000000
_cell_volume 3008.428538
_symmetry_space_group_name_H-M "I M M M"
_symmetry_group_IT_number 71
_symmetry_cell_setting 'orthorhombic'
loop_
_space_group_symop_operation_xyz
x,y,z
-x,-y,z
x,-y,-z
-x,y,-z
-x,-y,-z
x,y,-z
-x,y,z
x,-y,z
1/2+x,1/2+y,1/2+z
1/2-x,1/2-y,1/2+z
1/2+x,1/2-y,1/2-z
1/2-x,1/2+y,1/2-z
1/2-x,1/2-y,1/2-z
1/2+x,1/2+y,1/2-z
1/2-x,1/2+y,1/2+z
1/2+x,1/2-y,1/2+z
loop_
_atom_site_type_symbol
_atom_site_label
_atom_site_fract_x
_atom_site_fract_y
_atom_site_fract_z
Si Si1 0.000000 0.709702 0.317479
Si Si2 0.846505 0.500000 0.326678
Si Si3 0.348714 0.918057 0.679167
Si Si4 0.752742 0.338801 0.318515
Si Si5 0.000000 0.199839 0.681875
O O1 0.873178 0.687107 0.254917
O O2 0.000000 0.754837 0.253433
O O3 0.000000 0.708769 0.500000
O O4 0.791825 0.500000 0.500000
O O5 0.796500 0.460883 0.237097
O O6 0.000000 0.500000 0.327719
O O7 0.318939 0.913752 0.500000
O O8 0.500000 0.913271 0.715144
O O9 0.271239 0.884790 0.772877
O O10 0.738900 0.335105 0.500000
O O11 0.624981 0.322795 0.240248
O O12 0.000000 0.200099 0.500000
#
# Coordination Sequence:
#
# PCOD8288979 Si02
#       5
#     8   8  16  16   8
#     4   9  20  37  59  82 109 142 187 237 282 330
#     4   9  17  29  49  78 111 146 181 224 273 324
#     4  10  19  32  52  81 113 145 182 228 278 327
#     4  11  21  37  58  82 111 148 188 231 279 334
#     4  11  23  39  55  80 113 148 187 233 283 334
#
# _framework density 18.614367999999999
#
# number of rings (size 3 to 8) (size 9 to 14) (size 15 to 20)
#    0.000    1.857    1.429    3.429    0.000    2.857 
#    0.000    4.286    0.000    0.857    0.000    6.000 
#    0.000    0.000    0.000    0.000    0.000    0.000 
#
# Total GULP energy -347302.484712 kJ/mol
# GULP energy per Si atom -12403.660168 kJ/mol
# Density = 1.857200 g / cm^3
# Si number density = 18.614368 Si / 1000 Ang^3
#
#
#
# Elastic Constant Matrix: (Units=GPa)
#
#
# Indices 1 2 3 4 5 6 
#
# 1 110.6431 57.8823 30.1591 0.0042 0.0017 -0.0137
# 2 57.8823 157.0052 32.6020 0.0066 0.0001 -0.0235
# 3 30.1591 32.6020 71.8005 0.0102 0.0041 -0.0550
# 4 0.0042 0.0066 0.0102 30.9881 0.0016 -0.0289
# 5 0.0017 0.0001 0.0041 0.0016 7.7871 -0.0255
# 6 -0.0137 -0.0235 -0.0550 -0.0289 -0.0255 -78.2892
#
#
#
# Elastic Compliance Matrix: (Units=1/GPa)
#
#
# Indices 1 2 3 4 5 6 
#
# 1 0.011870 -0.003689 -0.003311 0.000000 -0.000001 0.000001
# 2 -0.003689 0.008178 -0.002164 -0.000001 0.000002 0.000000
# 3 -0.003311 -0.002164 0.016301 -0.000004 -0.000008 -0.000010
# 4 0.000000 -0.000001 -0.000004 0.032270 -0.000006 -0.000012
# 5 -0.000001 0.000002 -0.000008 -0.000006 0.128417 -0.000042
# 6 0.000001 0.000000 -0.000010 -0.000012 -0.000042 -0.012773
#
#
# Mechanical properties :
#
#
# Convention : Reuss Voigt Hill
#
# Bulk Modulus (GPa) = 55.48816 64.52618 60.00717
# Shear Modulus (GPa) = 23.96939 6.68422 15.32680
#
# Velocity S-wave (km/s) = 3.59232 1.89702 2.87258
# Velocity P-wave (km/s) = 6.86152 6.28794 6.58098
#
# Compressibility (1/GPa) = 0.01802186
#
# Stress axis : x y z
#
# Youngs Moduli (GPa) = 84.24388 122.27228 61.34610
#
# Poissons Ratio (x) = 0.45101 0.20313
# Poissons Ratio (y) = 0.31074 0.13276
# Poissons Ratio (z) = 0.27894 0.26462
#
# Static dielectric constant tensor:
#      x y z
#    x 3.507390 0.000060 0.000060 
#    y 0.000060 3.662660 -0.000010 
#    z 0.000060 -0.000010 3.386420 
# 
# 
# High freq. dielectric constant tensor:
#      x y z
#    x 1.690870 0.000000 0.000000 
#    y 0.000000 1.741580 0.000000 
#    z 0.000000 0.000000 1.725360 
# 
# From -- ./inp_files/3617.got.cif
#   From: 2010.06.25/outbox.cif.g09.slc.cpg/sg71_2_cif.got.tgz:3617.got - 2010.06.28 04:59:45.
