data_PCOD8288971
_publ_section_title
;
Structure prediction by ZEFSAII (Michael W. Deem and Ramdas Pophale) SiO2 
 PCOD8288971
Probable space group: I M M M
;
_chemical_formula_sum "Si O2"
_cell_formula_units_Z 88
_cell_length_a 21.564470
_cell_length_b 9.313718
_cell_length_c 23.578259
_cell_angle_alpha 90.000000
_cell_angle_beta 90.000000
_cell_angle_gamma 90.000000
_cell_volume 4735.584681
_symmetry_space_group_name_H-M "I M M M"
_symmetry_group_IT_number 71
_symmetry_cell_setting 'orthorhombic'
loop_
_space_group_symop_operation_xyz
x,y,z
-x,-y,z
x,-y,-z
-x,y,-z
-x,-y,-z
x,y,-z
-x,y,z
x,-y,z
1/2+x,1/2+y,1/2+z
1/2-x,1/2-y,1/2+z
1/2+x,1/2-y,1/2-z
1/2-x,1/2+y,1/2-z
1/2-x,1/2-y,1/2-z
1/2+x,1/2+y,1/2-z
1/2-x,1/2+y,1/2+z
1/2+x,1/2-y,1/2+z
loop_
_atom_site_type_symbol
_atom_site_label
_atom_site_fract_x
_atom_site_fract_y
_atom_site_fract_z
Si Si1 0.567278 0.839603 0.733985
Si Si2 0.642353 0.338836 0.347949
Si Si3 0.401719 0.165176 0.141972
Si Si4 0.000000 0.829709 0.567556
Si Si5 0.272490 0.836488 0.805310
Si Si6 0.569674 0.838305 0.435195
O O1 0.500000 0.808730 0.705811
O O2 0.618236 0.731692 0.710263
O O3 0.558370 0.822804 0.801029
O O4 0.589452 0.000000 0.718899
O O5 0.617257 0.500000 0.348952
O O6 0.716521 0.332686 0.350174
O O7 0.617815 0.258973 0.402670
O O8 0.436961 0.260712 0.094469
O O9 0.332650 0.222802 0.160200
O O10 0.398506 0.000000 0.120008
O O11 0.000000 0.799440 0.500000
O O12 0.000000 0.000000 0.579949
O O13 0.250000 0.750000 0.750000
O O14 0.287076 0.000000 0.785678
O O15 0.589940 0.834180 0.500000
O O16 0.500000 0.779176 0.427542
O O17 0.573484 0.000000 0.411579
#
# Coordination Sequence:
#
# PCOD8288971 Si02
#       6
#    16  16  16   8  16  16
#     4  10  19  32  52  79 110 145 186 230 273 326
#     4  11  22  33  50  82 117 147 181 223 277 333
#     4  10  20  38  61  84 110 148 195 234 278 344
#     4  11  25  43  63  89 119 149 188 247 310 355
#     4  10  21  36  55  82 117 153 189 228 277 339
#     4   9  19  37  58  77 101 141 191 233 269 317
#
# _framework density 18.582712000000001
#
# number of rings (size 3 to 8) (size 9 to 14) (size 15 to 20)
#    0.000    1.909    2.727    1.909    0.000    6.182 
#    0.000    1.818    0.000    5.455    0.000    0.000 
#    0.000    0.000    0.000    0.000    0.000    0.000 
#
# Total GULP energy -545273.462695 kJ/mol
# GULP energy per Si atom -12392.578698 kJ/mol
# Density = 1.854042 g / cm^3
# Si number density = 18.582712 Si / 1000 Ang^3
#
#
#
# Elastic Constant Matrix: (Units=GPa)
#
#
# Indices 1 2 3 4 5 6 
#
# 1 133.9978 57.2254 46.4008 0.0000 0.0000 0.0000
# 2 57.2254 100.2304 49.5890 0.0000 0.0000 0.0000
# 3 46.4008 49.5890 95.7780 0.0000 0.0000 0.0000
# 4 0.0000 0.0000 0.0000 30.8673 0.0000 0.0000
# 5 0.0000 0.0000 0.0000 0.0000 17.6084 0.0000
# 6 0.0000 0.0000 0.0000 0.0000 0.0000 23.9540
#
#
#
# Elastic Compliance Matrix: (Units=1/GPa)
#
#
# Indices 1 2 3 4 5 6 
#
# 1 0.010338 -0.004604 -0.002625 0.000000 0.000000 0.000000
# 2 -0.004604 0.015463 -0.005776 0.000000 0.000000 0.000000
# 3 -0.002625 -0.005776 0.014703 0.000000 0.000000 0.000000
# 4 0.000000 0.000000 0.000000 0.032397 0.000000 0.000000
# 5 0.000000 0.000000 0.000000 0.000000 0.056791 0.000000
# 6 0.000000 0.000000 0.000000 0.000000 0.000000 0.041747
#
#
# Mechanical properties :
#
#
# Convention : Reuss Voigt Hill
#
# Bulk Modulus (GPa) = 68.98733 70.71515 69.85124
# Shear Modulus (GPa) = 24.71850 26.27200 25.49525
#
# Velocity S-wave (km/s) = 3.65113 3.76412 3.70805
# Velocity P-wave (km/s) = 7.41481 7.55171 7.48357
#
# Compressibility (1/GPa) = 0.01449541
#
# Stress axis : x y z
#
# Youngs Moduli (GPa) = 96.73305 64.67095 68.01472
#
# Poissons Ratio (x) = 0.29772 0.17852
# Poissons Ratio (y) = 0.44532 0.39283
# Poissons Ratio (z) = 0.25390 0.37351
#
# Static dielectric constant tensor:
#      x y z
#    x 3.607280 0.000000 0.000000 
#    y 0.000000 3.402190 0.000000 
#    z 0.000000 0.000000 3.209240 
# 
# 
# High freq. dielectric constant tensor:
#      x y z
#    x 1.732920 0.000000 0.000000 
#    y 0.000000 1.713530 0.000000 
#    z 0.000000 0.000000 1.704290 
# 
# From -- ./inp_files/61130.got.cif
#   From: 2010.06.25/outbox.cif.g09.slc.cpg/sg71_31_cif.got.tgz:61130.got - 2010.06.28 04:59:45.
