data_PCOD8288229
_publ_section_title
;
Structure prediction by ZEFSAII (Michael W. Deem and Ramdas Pophale) SiO2 
 PCOD8288229
Probable space group: I M M M
;
_chemical_formula_sum "Si O2"
_cell_formula_units_Z 120
_cell_length_a 29.205489
_cell_length_b 13.314218
_cell_length_c 19.068997
_cell_angle_alpha 90.000000
_cell_angle_beta 90.000000
_cell_angle_gamma 90.000000
_cell_volume 7414.946062
_symmetry_space_group_name_H-M "I M M M"
_symmetry_group_IT_number 71
_symmetry_cell_setting 'orthorhombic'
loop_
_space_group_symop_operation_xyz
x,y,z
-x,-y,z
x,-y,-z
-x,y,-z
-x,-y,-z
x,y,-z
-x,y,z
x,-y,z
1/2+x,1/2+y,1/2+z
1/2-x,1/2-y,1/2+z
1/2+x,1/2-y,1/2-z
1/2-x,1/2+y,1/2-z
1/2-x,1/2-y,1/2-z
1/2+x,1/2+y,1/2-z
1/2-x,1/2+y,1/2+z
1/2+x,1/2-y,1/2+z
loop_
_atom_site_type_symbol
_atom_site_label
_atom_site_fract_x
_atom_site_fract_y
_atom_site_fract_z
Si Si1 0.793818 0.112127 0.700381
Si Si2 0.000000 0.115131 0.917214
Si Si3 0.233293 0.699937 0.920298
Si Si4 0.899179 0.885700 0.706476
Si Si5 0.906695 0.801901 0.147802
Si Si6 0.864770 0.385665 0.080958
Si Si7 0.051180 0.119311 0.425555
Si Si8 0.192340 0.115801 0.141310
O O1 0.770098 0.178559 0.640406
O O2 0.846967 0.112229 0.683920
O O3 0.790120 0.150894 0.781066
O O4 0.773417 0.000000 0.695053
O O5 0.046600 0.165632 0.889757
O O6 0.000000 0.000000 0.892761
O O7 0.000000 0.126106 0.000000
O O8 0.188932 0.632008 0.904766
O O9 0.219266 0.817052 0.914903
O O10 0.251723 0.680186 0.000000
O O11 0.913190 0.811871 0.769114
O O12 0.922929 0.834037 0.639959
O O13 0.915313 0.000000 0.724471
O O14 0.896113 0.686497 0.128313
O O15 0.862395 0.870711 0.129331
O O16 0.876778 0.500000 0.100882
O O17 0.875993 0.362726 0.000000
O O18 0.073900 0.151411 0.500000
O O19 0.000000 0.160466 0.423645
O O20 0.052148 0.000000 0.418694
O O21 0.204236 0.000000 0.128317
#
# Coordination Sequence:
#
# PCOD8288229 Si02
#       8
#    16   8  16  16  16  16  16  16
#     4   9  17  29  44  63  89 119 153 191 228 269
#     4  11  22  32  45  69  98 124 151 186 229 275
#     4  10  19  29  46  71  93 116 150 192 233 271
#     4   9  17  28  44  66  92 124 153 182 228 275
#     4  10  19  32  48  68  92 120 156 193 228 271
#     4   9  18  33  50  66  88 120 157 194 231 272
#     4   8  14  24  38  59  88 121 154 181 211 264
#     4   9  18  33  49  65  90 124 156 184 223 277
#
# _framework density 16.183530000000001
#
# number of rings (size 3 to 8) (size 9 to 14) (size 15 to 20)
#    0.000    2.733    0.000    3.600    0.933    2.133 
#    0.000    1.667    0.000    1.200    0.000    0.000 
#    0.000    0.533    0.000    1.467    0.000    0.133 
#
# Total GULP energy -743416.517590 kJ/mol
# GULP energy per Si atom -12390.275293 kJ/mol
# Density = 1.614670 g / cm^3
# Si number density = 16.183530 Si / 1000 Ang^3
#
#
#
# Elastic Constant Matrix: (Units=GPa)
#
#
# Indices 1 2 3 4 5 6 
#
# 1 52.2813 27.2009 44.2316 0.0000 0.0000 0.0000
# 2 27.2009 81.5344 46.2768 0.0000 0.0000 0.0000
# 3 44.2316 46.2768 100.3220 0.0000 0.0000 0.0000
# 4 0.0000 0.0000 0.0000 20.5493 0.0000 0.0000
# 5 0.0000 0.0000 0.0000 0.0000 26.5212 0.0000
# 6 0.0000 0.0000 0.0000 0.0000 0.0000 14.1361
#
#
#
# Elastic Compliance Matrix: (Units=1/GPa)
#
#
# Indices 1 2 3 4 5 6 
#
# 1 0.031238 -0.003528 -0.012145 0.000000 0.000000 0.000000
# 2 -0.003528 0.017013 -0.006292 0.000000 0.000000 0.000000
# 3 -0.012145 -0.006292 0.018225 0.000000 0.000000 0.000000
# 4 0.000000 0.000000 0.000000 0.048664 0.000000 0.000000
# 5 0.000000 0.000000 0.000000 0.000000 0.037706 0.000000
# 6 0.000000 0.000000 0.000000 0.000000 0.000000 0.070741
#
#
# Mechanical properties :
#
#
# Convention : Reuss Voigt Hill
#
# Bulk Modulus (GPa) = 44.35554 52.17291 48.26423
# Shear Modulus (GPa) = 18.17959 20.00319 19.09139
#
# Velocity S-wave (km/s) = 3.35526 3.51952 3.43837
# Velocity P-wave (km/s) = 6.51749 6.98744 6.75655
#
# Compressibility (1/GPa) = 0.02254510
#
# Stress axis : x y z
#
# Youngs Moduli (GPa) = 32.01202 58.77809 54.86869
#
# Poissons Ratio (x) = 0.20737 0.66640
# Poissons Ratio (y) = 0.11294 0.34525
# Poissons Ratio (z) = 0.38880 0.36985
#
# Static dielectric constant tensor:
#      x y z
#    x 2.957610 0.000000 0.000000 
#    y 0.000000 2.838950 0.000000 
#    z 0.000000 0.000000 3.283990 
# 
# 
# High freq. dielectric constant tensor:
#      x y z
#    x 1.607780 0.000000 0.000000 
#    y 0.000000 1.589710 0.000000 
#    z 0.000000 0.000000 1.632810 
# 
# From -- ./inp_files/56468.got.cif
#   From: 2010.06.25/outbox.cif.g09.slc.cpg/sg71_29_cif.got.tgz:56468.got - 2010.06.28 04:59:45.
