data_PCOD8288552
_publ_section_title
;
Structure prediction by ZEFSAII (Michael W. Deem and Ramdas Pophale) SiO2 
 PCOD8288552
Probable space group: I M M M
;
_chemical_formula_sum "Si O2"
_cell_formula_units_Z 72
_cell_length_a 16.937442
_cell_length_b 24.934745
_cell_length_c 9.218863
_cell_angle_alpha 90.000000
_cell_angle_beta 90.000000
_cell_angle_gamma 90.000000
_cell_volume 3893.409760
_symmetry_space_group_name_H-M "I M M M"
_symmetry_group_IT_number 71
_symmetry_cell_setting 'orthorhombic'
loop_
_space_group_symop_operation_xyz
x,y,z
-x,-y,z
x,-y,-z
-x,y,-z
-x,-y,-z
x,y,-z
-x,y,z
x,-y,z
1/2+x,1/2+y,1/2+z
1/2-x,1/2-y,1/2+z
1/2+x,1/2-y,1/2-z
1/2-x,1/2+y,1/2-z
1/2-x,1/2-y,1/2-z
1/2+x,1/2+y,1/2-z
1/2-x,1/2+y,1/2+z
1/2+x,1/2-y,1/2+z
loop_
_atom_site_type_symbol
_atom_site_label
_atom_site_fract_x
_atom_site_fract_y
_atom_site_fract_z
Si Si1 0.625713 0.147042 0.172119
Si Si2 0.412368 0.748108 0.334528
Si Si3 0.304408 0.347728 0.327224
Si Si4 0.087883 0.059124 0.827439
Si Si5 0.000000 0.439357 0.671706
O O1 0.584661 0.198770 0.238944
O O2 0.715449 0.146188 0.230501
O O3 0.578365 0.093470 0.221796
O O4 0.622397 0.152605 0.000000
O O5 0.391841 0.763515 0.500000
O O6 0.500000 0.721614 0.326645
O O7 0.346645 0.706849 0.272726
O O8 0.306825 0.349082 0.500000
O O9 0.352226 0.397749 0.260638
O O10 0.000000 0.070778 0.768403
O O11 0.115842 0.000000 0.778214
O O12 0.087397 0.062841 0.000000
O O13 0.000000 0.500000 0.738520
O O14 0.000000 0.444151 0.500000
#
# Coordination Sequence:
#
# PCOD8288552 Si02
#       5
#    16  16  16  16   8
#     4  10  19  32  49  68  93 122 154 195 234 275
#     4  10  19  31  48  68  94 125 154 188 233 282
#     4   9  17  27  42  66  92 121 156 190 231 279
#     4   8  13  22  37  59  90 123 151 183 225 274
#     4   9  18  32  49  69  93 123 156 193 238 278
#
# _framework density 18.492788000000001
#
# number of rings (size 3 to 8) (size 9 to 14) (size 15 to 20)
#    0.000    2.778    1.111    2.000    0.000    3.556 
#    0.000    4.444    0.000    1.333    0.000    0.000 
#    0.000    2.667    0.000   12.222    0.000   11.111 
#
# Total GULP energy -446170.405842 kJ/mol
# GULP energy per Si atom -12393.622384 kJ/mol
# Density = 1.845070 g / cm^3
# Si number density = 18.492788 Si / 1000 Ang^3
#
#
#
# Elastic Constant Matrix: (Units=GPa)
#
#
# Indices 1 2 3 4 5 6 
#
# 1 144.4950 79.5248 14.7652 0.0000 0.0000 0.0000
# 2 79.5248 151.2186 16.8255 0.0000 0.0000 0.0000
# 3 14.7652 16.8255 12.3713 0.0000 0.0000 0.0000
# 4 0.0000 0.0000 0.0000 15.8817 0.0000 0.0000
# 5 0.0000 0.0000 0.0000 0.0000 11.8186 0.0000
# 6 0.0000 0.0000 0.0000 0.0000 0.0000 27.8856
#
#
#
# Elastic Compliance Matrix: (Units=1/GPa)
#
#
# Indices 1 2 3 4 5 6 
#
# 1 0.010067 -0.004663 -0.005673 0.000000 0.000000 0.000000
# 2 -0.004663 0.009952 -0.007970 0.000000 0.000000 0.000000
# 3 -0.005673 -0.007970 0.098442 0.000000 0.000000 0.000000
# 4 0.000000 0.000000 0.000000 0.062965 0.000000 0.000000
# 5 0.000000 0.000000 0.000000 0.000000 0.084612 0.000000
# 6 0.000000 0.000000 0.000000 0.000000 0.000000 0.035861
#
#
# Mechanical properties :
#
#
# Convention : Reuss Voigt Hill
#
# Bulk Modulus (GPa) = 12.21756 58.92399 35.57078
# Shear Modulus (GPa) = 13.66891 24.24847 18.95869
#
# Velocity S-wave (km/s) = 2.72168 3.62503 3.20534
# Velocity P-wave (km/s) = 4.06174 7.03232 5.74244
#
# Compressibility (1/GPa) = 0.08184938
#
# Stress axis : x y z
#
# Youngs Moduli (GPa) = 99.33907 100.48418 10.15825
#
# Poissons Ratio (x) = 0.46853 0.05763
# Poissons Ratio (y) = 0.46319 0.08096
# Poissons Ratio (z) = 0.56354 0.80085
#
# Static dielectric constant tensor:
#      x y z
#    x 3.771540 0.000000 0.000000 
#    y 0.000000 3.612740 0.000000 
#    z 0.000000 0.000000 2.729470 
# 
# 
# High freq. dielectric constant tensor:
#      x y z
#    x 1.732700 0.000000 0.000000 
#    y 0.000000 1.723380 0.000000 
#    z 0.000000 0.000000 1.643730 
# 
# From -- ./inp_files/6084.got.cif
#   From: 2010.06.25/outbox.cif.g09.slc.cpg/sg71_4_cif.got.tgz:6084.got - 2010.06.28 04:59:45.
