data_PCOD8288374
_publ_section_title
;
Structure prediction by ZEFSAII (Michael W. Deem and Ramdas Pophale) SiO2 
 PCOD8288374
Probable space group: I M M M
;
_chemical_formula_sum "Si O2"
_cell_formula_units_Z 96
_cell_length_a 27.918348
_cell_length_b 20.507160
_cell_length_c 9.298811
_cell_angle_alpha 90.000000
_cell_angle_beta 90.000000
_cell_angle_gamma 90.000000
_cell_volume 5323.811340
_symmetry_space_group_name_H-M "I M M M"
_symmetry_group_IT_number 71
_symmetry_cell_setting 'orthorhombic'
loop_
_space_group_symop_operation_xyz
x,y,z
-x,-y,z
x,-y,-z
-x,y,-z
-x,-y,-z
x,y,-z
-x,y,z
x,-y,z
1/2+x,1/2+y,1/2+z
1/2-x,1/2-y,1/2+z
1/2+x,1/2-y,1/2-z
1/2-x,1/2+y,1/2-z
1/2-x,1/2-y,1/2-z
1/2+x,1/2+y,1/2-z
1/2-x,1/2+y,1/2+z
1/2+x,1/2-y,1/2+z
loop_
_atom_site_type_symbol
_atom_site_label
_atom_site_fract_x
_atom_site_fract_y
_atom_site_fract_z
Si Si1 0.053824 0.427922 0.171130
Si Si2 0.776512 0.692278 0.170946
Si Si3 0.114227 0.691678 0.829120
Si Si4 0.392886 0.575432 0.166457
Si Si5 0.555138 0.684633 0.331994
Si Si6 0.285465 0.571664 0.170611
O O1 0.070587 0.500000 0.222721
O O2 0.089063 0.373060 0.235545
O O3 0.000000 0.413851 0.226043
O O4 0.054548 0.425224 0.000000
O O5 0.750000 0.750000 0.250000
O O6 0.831185 0.692413 0.223508
O O7 0.752657 0.624762 0.224249
O O8 0.771917 0.701258 0.000000
O O9 0.086934 0.755639 0.771209
O O10 0.111336 0.689765 0.000000
O O11 0.405857 0.500000 0.191418
O O12 0.430321 0.618109 0.254684
O O13 0.338985 0.589992 0.223166
O O14 0.397586 0.594166 0.000000
O O15 0.564152 0.674715 0.500000
O O16 0.500000 0.700733 0.299036
O O17 0.270784 0.500000 0.230672
O O18 0.286383 0.568422 0.000000
#
# Coordination Sequence:
#
# PCOD8288374 Si02
#       6
#    16  16  16  16  16  16
#     4   8  13  22  38  61  90 122 151 180 218 263
#     4  10  19  30  47  69  92 119 150 186 224 263
#     4   9  17  28  42  63  91 121 152 184 220 263
#     4   9  18  33  51  68  88 116 149 186 227 269
#     4  10  20  32  46  65  92 124 152 182 223 268
#     4   8  15  29  48  69  92 118 148 182 223 268
#
# _framework density 18.032195000000002
#
# number of rings (size 3 to 8) (size 9 to 14) (size 15 to 20)
#    0.000    3.000    0.000    3.000    0.000    3.667 
#    0.000    5.000    0.000    1.500    0.000    0.000 
#    0.000    2.000    0.000    9.167    0.000    8.333 
#
# Total GULP energy -595039.148960 kJ/mol
# GULP energy per Si atom -12396.648937 kJ/mol
# Density = 1.799115 g / cm^3
# Si number density = 18.032195 Si / 1000 Ang^3
#
#
#
# Elastic Constant Matrix: (Units=GPa)
#
#
# Indices 1 2 3 4 5 6 
#
# 1 125.5781 87.6029 30.8359 0.0000 0.0000 0.0000
# 2 87.6029 146.2129 32.7490 0.0000 0.0000 0.0000
# 3 30.8359 32.7490 20.1878 0.0000 0.0000 0.0000
# 4 0.0000 0.0000 0.0000 18.8756 0.0000 0.0000
# 5 0.0000 0.0000 0.0000 0.0000 17.9278 0.0000
# 6 0.0000 0.0000 0.0000 0.0000 0.0000 41.7869
#
#
#
# Elastic Compliance Matrix: (Units=1/GPa)
#
#
# Indices 1 2 3 4 5 6 
#
# 1 0.015796 -0.006377 -0.013783 0.000000 0.000000 0.000000
# 2 -0.006377 0.013317 -0.011863 0.000000 0.000000 0.000000
# 3 -0.013783 -0.011863 0.089831 0.000000 0.000000 0.000000
# 4 0.000000 0.000000 0.000000 0.052978 0.000000 0.000000
# 5 0.000000 0.000000 0.000000 0.000000 0.055779 0.000000
# 6 0.000000 0.000000 0.000000 0.000000 0.000000 0.023931
#
#
# Mechanical properties :
#
#
# Convention : Reuss Voigt Hill
#
# Bulk Modulus (GPa) = 18.21510 66.03935 42.12723
# Shear Modulus (GPa) = 14.97102 25.10413 20.03758
#
# Velocity S-wave (km/s) = 2.88451 3.73525 3.33710
# Velocity P-wave (km/s) = 4.60622 7.43675 6.18557
#
# Compressibility (1/GPa) = 0.05489951
#
# Stress axis : x y z
#
# Youngs Moduli (GPa) = 63.30609 75.09093 11.13198
#
# Poissons Ratio (x) = 0.47887 0.15343
# Poissons Ratio (y) = 0.40371 0.13205
# Poissons Ratio (z) = 0.87254 0.89077
#
# Static dielectric constant tensor:
#      x y z
#    x 3.673990 0.000000 0.000000 
#    y 0.000000 6.736780 0.000000 
#    z 0.000000 0.000000 2.750220 
# 
# 
# High freq. dielectric constant tensor:
#      x y z
#    x 1.704490 0.000000 0.000000 
#    y 0.000000 1.714770 0.000000 
#    z 0.000000 0.000000 1.634270 
# 
# From -- ./inp_files/10865.got.cif
#   From: 2010.06.25/outbox.cif.g09.slc.cpg/sg71_6_cif.got.tgz:10865.got - 2010.06.28 04:59:45.
