data_PCOD8288461
_publ_section_title
;
Structure prediction by ZEFSAII (Michael W. Deem and Ramdas Pophale) SiO2 
 PCOD8288461
Probable space group: I M M M
;
_chemical_formula_sum "Si O2"
_cell_formula_units_Z 88
_cell_length_a 29.461933
_cell_length_b 17.176373
_cell_length_c 9.202716
_cell_angle_alpha 90.000000
_cell_angle_beta 90.000000
_cell_angle_gamma 90.000000
_cell_volume 4657.026614
_symmetry_space_group_name_H-M "I M M M"
_symmetry_group_IT_number 71
_symmetry_cell_setting 'orthorhombic'
loop_
_space_group_symop_operation_xyz
x,y,z
-x,-y,z
x,-y,-z
-x,y,-z
-x,-y,-z
x,y,-z
-x,y,z
x,-y,z
1/2+x,1/2+y,1/2+z
1/2-x,1/2-y,1/2+z
1/2+x,1/2-y,1/2-z
1/2-x,1/2+y,1/2-z
1/2-x,1/2-y,1/2-z
1/2+x,1/2+y,1/2-z
1/2-x,1/2+y,1/2+z
1/2+x,1/2-y,1/2+z
loop_
_atom_site_type_symbol
_atom_site_label
_atom_site_fract_x
_atom_site_fract_y
_atom_site_fract_z
Si Si1 0.121500 0.869467 0.169926
Si Si2 0.051480 0.000000 0.828203
Si Si3 0.789126 0.853050 0.335626
Si Si4 0.384266 0.809828 0.668304
Si Si5 0.203238 0.331952 0.336151
Si Si6 0.946567 0.586826 0.338230
O O1 0.167049 0.891022 0.258160
O O2 0.108320 0.780818 0.204381
O O3 0.079649 0.923631 0.222391
O O4 0.131858 0.882564 0.000000
O O5 0.000000 0.000000 0.761409
O O6 0.046951 0.000000 0.000000
O O7 0.786239 0.885224 0.500000
O O8 0.790971 0.760354 0.335242
O O9 0.744056 0.876285 0.246497
O O10 0.374291 0.822049 0.500000
O O11 0.343422 0.850632 0.754861
O O12 0.429439 0.853554 0.716987
O O13 0.201468 0.364164 0.500000
O O14 0.930843 0.612811 0.500000
O O15 0.928318 0.500000 0.305375
O O16 0.000000 0.587435 0.328619
#
# Coordination Sequence:
#
# PCOD8288461 Si02
#       6
#    16   8  16  16  16  16
#     4   9  18  32  51  75 102 135 175 216 260 311
#     4   9  18  34  55  75  99 137 183 227 266 307
#     4   9  16  27  46  72 101 131 165 207 254 304
#     4  10  19  30  49  79 109 134 167 214 263 308
#     4   9  16  27  46  72 102 135 168 202 246 303
#     4   9  19  36  55  73  97 133 172 206 247 305
#
# _framework density 18.896177000000002
#
# number of rings (size 3 to 8) (size 9 to 14) (size 15 to 20)
#    0.000    2.818    0.000    2.182    0.000    6.545 
#    0.000    3.182    2.000    1.091    0.000    0.000 
#    0.000    0.000    0.000    0.000    0.000    0.000 
#
# Total GULP energy -545481.160318 kJ/mol
# GULP energy per Si atom -12397.299098 kJ/mol
# Density = 1.885317 g / cm^3
# Si number density = 18.896177 Si / 1000 Ang^3
#
#
#
# Elastic Constant Matrix: (Units=GPa)
#
#
# Indices 1 2 3 4 5 6 
#
# 1 123.6931 52.8076 59.1598 0.0000 0.0000 0.0000
# 2 52.8076 60.0650 38.9555 0.0000 0.0000 0.0000
# 3 59.1598 38.9555 105.3548 0.0000 0.0000 0.0000
# 4 0.0000 0.0000 0.0000 18.4301 0.0000 0.0000
# 5 0.0000 0.0000 0.0000 0.0000 35.6389 0.0000
# 6 0.0000 0.0000 0.0000 0.0000 0.0000 21.4216
#
#
#
# Elastic Compliance Matrix: (Units=1/GPa)
#
#
# Indices 1 2 3 4 5 6 
#
# 1 0.014385 -0.009745 -0.004474 0.000000 0.000000 0.000000
# 2 -0.009745 0.028502 -0.005067 0.000000 0.000000 0.000000
# 3 -0.004474 -0.005067 0.013878 0.000000 0.000000 0.000000
# 4 0.000000 0.000000 0.000000 0.054259 0.000000 0.000000
# 5 0.000000 0.000000 0.000000 0.000000 0.028059 0.000000
# 6 0.000000 0.000000 0.000000 0.000000 0.000000 0.046682
#
#
# Mechanical properties :
#
#
# Convention : Reuss Voigt Hill
#
# Bulk Modulus (GPa) = 54.96709 65.66210 60.31459
# Shear Modulus (GPa) = 21.70129 24.31079 23.00604
#
# Velocity S-wave (km/s) = 3.39255 3.59074 3.49305
# Velocity P-wave (km/s) = 6.67069 7.21218 6.94671
#
# Compressibility (1/GPa) = 0.01819270
#
# Stress axis : x y z
#
# Youngs Moduli (GPa) = 69.51775 35.08499 72.05846
#
# Poissons Ratio (x) = 0.34190 0.32241
# Poissons Ratio (y) = 0.67745 0.36510
# Poissons Ratio (z) = 0.31104 0.17777
#
# Static dielectric constant tensor:
#      x y z
#    x 3.546690 0.000000 0.000000 
#    y 0.000000 3.216670 0.000000 
#    z 0.000000 0.000000 3.519570 
# 
# 
# High freq. dielectric constant tensor:
#      x y z
#    x 1.737340 0.000000 0.000000 
#    y 0.000000 1.701320 0.000000 
#    z 0.000000 0.000000 1.730480 
# 
# From -- ./inp_files/16672.got.cif
#   From: 2010.06.25/outbox.cif.g09.slc.cpg/sg71_9_cif.got.tgz:16672.got - 2010.06.28 04:59:45.
