data_PCOD8288978
_publ_section_title
;
Structure prediction by ZEFSAII (Michael W. Deem and Ramdas Pophale) SiO2 
 PCOD8288978
Probable space group: I M M M
;
_chemical_formula_sum "Si O2"
_cell_formula_units_Z 96
_cell_length_a 9.046427
_cell_length_b 22.047232
_cell_length_c 26.350705
_cell_angle_alpha 90.000000
_cell_angle_beta 90.000000
_cell_angle_gamma 90.000000
_cell_volume 5255.613193
_symmetry_space_group_name_H-M "I M M M"
_symmetry_group_IT_number 71
_symmetry_cell_setting 'orthorhombic'
loop_
_space_group_symop_operation_xyz
x,y,z
-x,-y,z
x,-y,-z
-x,y,-z
-x,-y,-z
x,y,-z
-x,y,z
x,-y,z
1/2+x,1/2+y,1/2+z
1/2-x,1/2-y,1/2+z
1/2+x,1/2-y,1/2-z
1/2-x,1/2+y,1/2-z
1/2-x,1/2-y,1/2-z
1/2+x,1/2+y,1/2-z
1/2-x,1/2+y,1/2+z
1/2+x,1/2-y,1/2+z
loop_
_atom_site_type_symbol
_atom_site_label
_atom_site_fract_x
_atom_site_fract_y
_atom_site_fract_z
Si Si1 0.672267 0.571776 0.000000
Si Si2 0.823118 0.500000 0.441969
Si Si3 0.670266 0.823481 0.786952
Si Si4 0.836683 0.781789 0.057137
Si Si5 0.674047 0.148034 0.414737
Si Si6 0.169975 0.617498 0.612482
Si Si7 0.826802 0.812113 0.314278
O O1 0.747874 0.596943 0.051274
O O2 0.694442 0.500000 0.000000
O O3 0.500000 0.589837 0.000000
O O4 0.767075 0.500000 0.500000
O O5 0.754795 0.558245 0.412500
O O6 0.000000 0.500000 0.439756
O O7 0.500000 0.820115 0.769003
O O8 0.695920 0.878102 0.827023
O O9 0.773755 0.839092 0.739539
O O10 0.713350 0.759527 0.813850
O O11 0.792736 0.711534 0.057908
O O12 0.723118 0.820092 0.088977
O O13 0.000000 0.790528 0.080616
O O14 0.831943 0.805620 0.000000
O O15 0.500000 0.133540 0.411339
O O16 0.741459 0.151616 0.358243
O O17 0.000000 0.613637 0.598941
O O18 0.000000 0.823561 0.321272
#
# Coordination Sequence:
#
# PCOD8288978 Si02
#       7
#     8   8  16  16  16  16  16
#     4  11  25  43  63  87 117 150 185 226 273 331
#     4   9  18  32  51  77 109 145 185 230 279 326
#     4   9  18  31  49  77 109 144 184 229 286 339
#     4  10  20  33  49  77 111 140 175 224 276 326
#     4  11  21  36  58  84 114 147 183 223 273 332
#     4  10  19  33  53  77 105 142 189 234 277 332
#     4  10  19  32  52  81 113 143 180 228 285 339
#
# _framework density 18.266183999999999
#
# number of rings (size 3 to 8) (size 9 to 14) (size 15 to 20)
#    0.000    2.000    2.500    1.750    0.000    3.667 
#    0.000    0.417    1.833    1.500    0.000    0.000 
#    0.000    0.000    0.000    0.000    0.000    0.000 
#
# Total GULP energy -595103.666944 kJ/mol
# GULP energy per Si atom -12397.993061 kJ/mol
# Density = 1.822461 g / cm^3
# Si number density = 18.266184 Si / 1000 Ang^3
#
#
#
# Elastic Constant Matrix: (Units=GPa)
#
#
# Indices 1 2 3 4 5 6 
#
# 1 76.7190 45.5268 62.1324 0.0000 0.0000 0.0000
# 2 45.5268 77.8840 58.4487 0.0000 0.0000 0.0000
# 3 62.1324 58.4487 122.1122 0.0000 0.0000 0.0000
# 4 0.0000 0.0000 0.0000 26.5984 0.0000 0.0000
# 5 0.0000 0.0000 0.0000 0.0000 33.0086 0.0000
# 6 0.0000 0.0000 0.0000 0.0000 0.0000 15.8657
#
#
#
# Elastic Compliance Matrix: (Units=1/GPa)
#
#
# Indices 1 2 3 4 5 6 
#
# 1 0.024931 -0.007886 -0.008910 0.000000 0.000000 0.000000
# 2 -0.007886 0.022532 -0.006772 0.000000 0.000000 0.000000
# 3 -0.008910 -0.006772 0.015964 0.000000 0.000000 0.000000
# 4 0.000000 0.000000 0.000000 0.037596 0.000000 0.000000
# 5 0.000000 0.000000 0.000000 0.000000 0.030295 0.000000
# 6 0.000000 0.000000 0.000000 0.000000 0.000000 0.063029
#
#
# Mechanical properties :
#
#
# Convention : Reuss Voigt Hill
#
# Bulk Modulus (GPa) = 61.39003 67.65900 64.52451
# Shear Modulus (GPa) = 20.24994 22.46836 21.35915
#
# Velocity S-wave (km/s) = 3.33318 3.51101 3.42325
# Velocity P-wave (km/s) = 6.96383 7.31828 7.14326
#
# Compressibility (1/GPa) = 0.01628929
#
# Stress axis : x y z
#
# Youngs Moduli (GPa) = 40.11119 44.38204 62.63967
#
# Poissons Ratio (x) = 0.35001 0.55814
# Poissons Ratio (y) = 0.31633 0.42420
# Poissons Ratio (z) = 0.35740 0.30056
#
# Static dielectric constant tensor:
#      x y z
#    x 3.307400 0.000000 0.000000 
#    y 0.000000 3.226630 0.000000 
#    z 0.000000 0.000000 3.509710 
# 
# 
# High freq. dielectric constant tensor:
#      x y z
#    x 1.702010 0.000000 0.000000 
#    y 0.000000 1.679010 0.000000 
#    z 0.000000 0.000000 1.718230 
# 
# From -- ./inp_files/57917.got.cif
#   From: 2010.06.25/outbox.cif.g09.slc.cpg/sg71_29_cif.got.tgz:57917.got - 2010.06.28 04:59:45.
