data_PCOD8288512
_publ_section_title
;
Structure prediction by ZEFSAII (Michael W. Deem and Ramdas Pophale) SiO2 
 PCOD8288512
Probable space group: I M M M
;
_chemical_formula_sum "Si O2"
_cell_formula_units_Z 120
_cell_length_a 22.285167
_cell_length_b 22.916494
_cell_length_c 13.300653
_cell_angle_alpha 90.000000
_cell_angle_beta 90.000000
_cell_angle_gamma 90.000000
_cell_volume 6792.615500
_symmetry_space_group_name_H-M "I M M M"
_symmetry_group_IT_number 71
_symmetry_cell_setting 'orthorhombic'
loop_
_space_group_symop_operation_xyz
x,y,z
-x,-y,z
x,-y,-z
-x,y,-z
-x,-y,-z
x,y,-z
-x,y,z
x,-y,z
1/2+x,1/2+y,1/2+z
1/2-x,1/2-y,1/2+z
1/2+x,1/2-y,1/2-z
1/2-x,1/2+y,1/2-z
1/2-x,1/2-y,1/2-z
1/2+x,1/2+y,1/2-z
1/2-x,1/2+y,1/2+z
1/2+x,1/2-y,1/2+z
loop_
_atom_site_type_symbol
_atom_site_label
_atom_site_fract_x
_atom_site_fract_y
_atom_site_fract_z
Si Si1 0.434545 0.175768 0.193305
Si Si2 0.724455 0.068678 0.700601
Si Si3 0.372259 0.852426 0.612709
Si Si4 0.344707 0.095533 0.113469
Si Si5 0.283293 0.745033 0.386716
Si Si6 0.435216 0.000000 0.118972
Si Si7 0.066046 0.197383 0.617735
Si Si8 0.310419 0.328354 0.200207
O O1 0.500000 0.151126 0.156433
O O2 0.426307 0.154883 0.308736
O O3 0.376042 0.158291 0.126633
O O4 0.436090 0.244619 0.183931
O O5 0.667109 0.089695 0.636027
O O6 0.712670 0.082401 0.818474
O O7 0.781323 0.108857 0.673180
O O8 0.737445 0.000000 0.681156
O O9 0.398148 0.857590 0.500000
O O10 0.331904 0.795358 0.626185
O O11 0.398775 0.055756 0.154832
O O12 0.324752 0.083044 0.000000
O O13 0.280416 0.720463 0.500000
O O14 0.300834 0.689623 0.317236
O O15 0.218930 0.774150 0.360816
O O16 0.500000 0.000000 0.171792
O O17 0.441757 0.000000 0.000000
O O18 0.078210 0.209876 0.500000
O O19 0.120600 0.160971 0.666766
O O20 0.000000 0.166546 0.629685
#
# Coordination Sequence:
#
# PCOD8288512 Si02
#       8
#    16  16  16  16  16   8  16  16
#     4  10  19  31  48  73 102 134 171 205 246 304
#     4  10  21  35  51  73  99 133 176 219 260 304
#     4   9  18  33  50  70  99 132 169 212 254 295
#     4  10  19  31  46  70 103 134 168 210 257 304
#     4   9  17  30  50  76 103 132 167 207 255 308
#     4   9  16  26  42  62  91 135 176 205 239 287
#     4  10  20  34  53  78 107 134 160 198 254 319
#     4  10  19  33  51  76 104 135 171 211 259 313
#
# _framework density 17.666243999999999
#
# number of rings (size 3 to 8) (size 9 to 14) (size 15 to 20)
#    0.000    2.333    2.000    1.200    1.867    2.933 
#    0.000    0.000    0.000    0.800    0.000    2.800 
#    0.000    0.000    0.000    2.400    0.000    0.000 
#
# Total GULP energy -743385.841010 kJ/mol
# GULP energy per Si atom -12389.764017 kJ/mol
# Density = 1.762603 g / cm^3
# Si number density = 17.666244 Si / 1000 Ang^3
#
#
#
# Elastic Constant Matrix: (Units=GPa)
#
#
# Indices 1 2 3 4 5 6 
#
# 1 90.6292 25.7434 18.0452 0.0000 0.0000 0.0000
# 2 25.7434 64.8802 12.4311 0.0000 0.0000 0.0000
# 3 18.0452 12.4311 89.5168 0.0000 0.0000 0.0000
# 4 0.0000 0.0000 0.0000 13.0420 0.0000 0.0000
# 5 0.0000 0.0000 0.0000 0.0000 20.5984 0.0000
# 6 0.0000 0.0000 0.0000 0.0000 0.0000 21.3905
#
#
#
# Elastic Compliance Matrix: (Units=1/GPa)
#
#
# Indices 1 2 3 4 5 6 
#
# 1 0.012748 -0.004691 -0.001918 0.000000 0.000000 0.000000
# 2 -0.004691 0.017560 -0.001493 0.000000 0.000000 0.000000
# 3 -0.001918 -0.001493 0.011765 0.000000 0.000000 0.000000
# 4 0.000000 0.000000 0.000000 0.076675 0.000000 0.000000
# 5 0.000000 0.000000 0.000000 0.000000 0.048548 0.000000
# 6 0.000000 0.000000 0.000000 0.000000 0.000000 0.046750
#
#
# Mechanical properties :
#
#
# Convention : Reuss Voigt Hill
#
# Bulk Modulus (GPa) = 38.65575 39.71839 39.18707
# Shear Modulus (GPa) = 20.93155 23.59327 22.26241
#
# Velocity S-wave (km/s) = 3.44587 3.65841 3.55373
# Velocity P-wave (km/s) = 6.14497 6.35427 6.25050
#
# Compressibility (1/GPa) = 0.02586937
#
# Stress axis : x y z
#
# Youngs Moduli (GPa) = 78.44133 56.94665 84.99672
#
# Poissons Ratio (x) = 0.26712 0.16306
# Poissons Ratio (y) = 0.36795 0.12690
# Poissons Ratio (z) = 0.15049 0.08502
#
# Static dielectric constant tensor:
#      x y z
#    x 3.376850 0.000000 0.000000 
#    y 0.000000 3.043150 0.000000 
#    z 0.000000 0.000000 3.282240 
# 
# 
# High freq. dielectric constant tensor:
#      x y z
#    x 1.669670 0.000000 0.000000 
#    y 0.000000 1.651050 0.000000 
#    z 0.000000 0.000000 1.680770 
# 
# From -- ./inp_files/38529.got.cif
#   From: 2010.06.25/outbox.cif.g09.slc.cpg/sg71_20_cif.got.tgz:38529.got - 2010.06.28 04:59:45.
