data_PCOD8288722
_publ_section_title
;
Structure prediction by ZEFSAII (Michael W. Deem and Ramdas Pophale) SiO2 
 PCOD8288722
Probable space group: I M M M
;
_chemical_formula_sum "Si O2"
_cell_formula_units_Z 64
_cell_length_a 8.691571
_cell_length_b 10.400519
_cell_length_c 35.941170
_cell_angle_alpha 90.000000
_cell_angle_beta 90.000000
_cell_angle_gamma 90.000000
_cell_volume 3248.968529
_symmetry_space_group_name_H-M "I M M M"
_symmetry_group_IT_number 71
_symmetry_cell_setting 'orthorhombic'
loop_
_space_group_symop_operation_xyz
x,y,z
-x,-y,z
x,-y,-z
-x,y,-z
-x,-y,-z
x,y,-z
-x,y,z
x,-y,z
1/2+x,1/2+y,1/2+z
1/2-x,1/2-y,1/2+z
1/2+x,1/2-y,1/2-z
1/2-x,1/2+y,1/2-z
1/2-x,1/2-y,1/2-z
1/2+x,1/2+y,1/2-z
1/2-x,1/2+y,1/2+z
1/2+x,1/2-y,1/2+z
loop_
_atom_site_type_symbol
_atom_site_label
_atom_site_fract_x
_atom_site_fract_y
_atom_site_fract_z
Si Si1 0.317334 0.500000 0.831809
Si Si2 0.681938 0.000000 0.915353
Si Si3 0.683622 0.248603 0.957924
Si Si4 0.179076 0.000000 0.165120
Si Si5 0.818681 0.744137 0.790719
Si Si6 0.183013 0.000000 0.416446
O O1 0.500000 0.500000 0.829108
O O2 0.254529 0.373587 0.812441
O O3 0.258063 0.500000 0.874182
O O4 0.749106 0.874588 0.935965
O O5 0.726266 0.000000 0.872580
O O6 0.500000 0.000000 0.918460
O O7 0.500000 0.248924 0.957844
O O8 0.748304 0.374885 0.937410
O O9 0.746389 0.245794 0.000000
O O10 0.226235 0.875261 0.188558
O O11 0.000000 0.000000 0.155266
O O12 0.750000 0.750000 0.750000
O O13 0.000000 0.724938 0.788197
O O14 0.000000 0.000000 0.417471
#
# Coordination Sequence:
#
# PCOD8288722 Si02
#       6
#     8   8  16   8  16   8
#     4  11  22  37  57  85 119 150 185 230 279 338
#     4  10  19  31  51  78 105 137 178 223 273 327
#     4   9  16  27  45  72 105 138 175 222 272 319
#     4  10  23  40  57  80 112 147 184 228 277 332
#     4  11  23  40  61  85 112 146 188 233 284 336
#     4   9  17  28  45  71 104 142 179 217 267 325
#
# _framework density 19.698560000000001
#
# number of rings (size 3 to 8) (size 9 to 14) (size 15 to 20)
#    0.000    2.000    0.000    4.125    0.000    8.000 
#    0.000    0.000    0.000    1.500    0.000    0.000 
#    0.000   10.000    0.000    0.000    0.000    0.000 
#
# Total GULP energy -396887.479681 kJ/mol
# GULP energy per Si atom -12402.733740 kJ/mol
# Density = 1.965373 g / cm^3
# Si number density = 19.698560 Si / 1000 Ang^3
#
#
#
# Elastic Constant Matrix: (Units=GPa)
#
#
# Indices 1 2 3 4 5 6 
#
# 1 41.5661 40.0606 40.2190 0.0000 0.0000 0.0000
# 2 40.0606 215.4581 108.7406 0.0000 0.0000 0.0000
# 3 40.2190 108.7406 198.1417 0.0000 0.0000 0.0000
# 4 0.0000 0.0000 0.0000 42.3099 0.0000 0.0000
# 5 0.0000 0.0000 0.0000 0.0000 23.1338 0.0000
# 6 0.0000 0.0000 0.0000 0.0000 0.0000 51.0305
#
#
#
# Elastic Compliance Matrix: (Units=1/GPa)
#
#
# Indices 1 2 3 4 5 6 
#
# 1 0.031923 -0.003686 -0.004457 0.000000 0.000000 0.000000
# 2 -0.003686 0.006845 -0.003008 0.000000 0.000000 0.000000
# 3 -0.004457 -0.003008 0.007602 0.000000 0.000000 0.000000
# 4 0.000000 0.000000 0.000000 0.023635 0.000000 0.000000
# 5 0.000000 0.000000 0.000000 0.000000 0.043227 0.000000
# 6 0.000000 0.000000 0.000000 0.000000 0.000000 0.019596
#
#
# Mechanical properties :
#
#
# Convention : Reuss Voigt Hill
#
# Bulk Modulus (GPa) = 41.54900 92.57847 67.06374
# Shear Modulus (GPa) = 30.64595 41.03790 35.84192
#
# Velocity S-wave (km/s) = 3.94857 4.56926 4.27021
# Velocity P-wave (km/s) = 6.47507 8.65663 7.64407
#
# Compressibility (1/GPa) = 0.02406797
#
# Stress axis : x y z
#
# Youngs Moduli (GPa) = 31.32528 146.09374 131.53604
#
# Poissons Ratio (x) = 0.53853 0.58623
# Poissons Ratio (y) = 0.11547 0.39570
# Poissons Ratio (z) = 0.13961 0.43949
#
# Static dielectric constant tensor:
#      x y z
#    x 3.076650 0.000000 0.000000 
#    y 0.000000 3.954440 0.000000 
#    z 0.000000 0.000000 3.746800 
# 
# 
# High freq. dielectric constant tensor:
#      x y z
#    x 1.726470 0.000000 0.000000 
#    y 0.000000 1.792140 0.000000 
#    z 0.000000 0.000000 1.788460 
# 
# From -- ./inp_files/67733.got.cif
#   From: 2010.06.25/outbox.cif.g09.slc.cpg/sg71_34_cif.got.tgz:67733.got - 2010.06.28 04:59:45.
