data_PCOD8288337
_publ_section_title
;
Structure prediction by ZEFSAII (Michael W. Deem and Ramdas Pophale) SiO2 
 PCOD8288337
Probable space group: I M M M
;
_chemical_formula_sum "Si O2"
_cell_formula_units_Z 88
_cell_length_a 18.204395
_cell_length_b 30.405452
_cell_length_c 9.459671
_cell_angle_alpha 90.000000
_cell_angle_beta 90.000000
_cell_angle_gamma 90.000000
_cell_volume 5236.049534
_symmetry_space_group_name_H-M "I M M M"
_symmetry_group_IT_number 71
_symmetry_cell_setting 'orthorhombic'
loop_
_space_group_symop_operation_xyz
x,y,z
-x,-y,z
x,-y,-z
-x,y,-z
-x,-y,-z
x,y,-z
-x,y,z
x,-y,z
1/2+x,1/2+y,1/2+z
1/2-x,1/2-y,1/2+z
1/2+x,1/2-y,1/2-z
1/2-x,1/2+y,1/2-z
1/2-x,1/2-y,1/2-z
1/2+x,1/2+y,1/2-z
1/2-x,1/2+y,1/2+z
1/2+x,1/2-y,1/2+z
loop_
_atom_site_type_symbol
_atom_site_label
_atom_site_fract_x
_atom_site_fract_y
_atom_site_fract_z
Si Si1 0.290416 0.614284 0.165857
Si Si2 0.649790 0.910489 0.832407
Si Si3 0.268285 0.207848 0.339160
Si Si4 0.582110 0.549268 0.167331
Si Si5 0.418281 0.837072 0.338745
Si Si6 0.920003 0.500000 0.666520
O O1 0.228367 0.593495 0.261676
O O2 0.287227 0.667020 0.195193
O O3 0.364917 0.589459 0.216249
O O4 0.274782 0.605720 0.000000
O O5 0.590053 0.877081 0.769529
O O6 0.624526 0.958072 0.784042
O O7 0.655250 0.903587 0.000000
O O8 0.258347 0.221759 0.500000
O O9 0.250000 0.250000 0.250000
O O10 0.353528 0.197243 0.305204
O O11 0.500000 0.558968 0.226335
O O12 0.607609 0.500000 0.219019
O O13 0.579878 0.548809 0.000000
O O14 0.408545 0.853998 0.500000
O O15 0.500000 0.816287 0.317556
O O16 0.929763 0.500000 0.500000
O O17 0.000000 0.500000 0.738869
#
# Coordination Sequence:
#
# PCOD8288337 Si02
#       6
#    16  16  16  16  16   8
#     4   9  18  32  49  71  97 125 159 202 245 285
#     4  10  19  30  46  68  94 127 163 195 229 279
#     4   9  18  32  49  70  96 124 155 194 242 289
#     4   8  14  26  47  74  99 125 159 199 244 292
#     4   9  18  34  53  71  93 121 156 200 246 286
#     4   9  18  30  41  59  92 127 154 186 229 271
#
# _framework density 16.806562
#
# number of rings (size 3 to 8) (size 9 to 14) (size 15 to 20)
#    0.000    3.000    0.000    2.727    1.273    4.000 
#    0.000    2.273    0.000    4.909    0.000    1.273 
#    0.000    0.000    0.000    0.000    0.000    0.000 
#
# Total GULP energy -545114.949700 kJ/mol
# GULP energy per Si atom -12388.976130 kJ/mol
# Density = 1.676831 g / cm^3
# Si number density = 16.806562 Si / 1000 Ang^3
#
#
#
# Elastic Constant Matrix: (Units=GPa)
#
#
# Indices 1 2 3 4 5 6 
#
# 1 120.0385 80.4292 37.3632 -0.0034 0.0064 0.0040
# 2 80.4292 147.7791 55.3257 -0.0022 -0.0004 -0.0006
# 3 37.3632 55.3257 56.0980 0.0397 -0.0092 0.0211
# 4 -0.0034 -0.0022 0.0397 20.5092 -0.0048 0.0017
# 5 0.0064 -0.0004 -0.0092 -0.0048 19.3268 -0.0109
# 6 0.0040 -0.0006 0.0211 0.0017 -0.0109 41.1709
#
#
#
# Elastic Compliance Matrix: (Units=1/GPa)
#
#
# Indices 1 2 3 4 5 6 
#
# 1 0.013373 -0.006252 -0.002741 0.000007 -0.000006 0.000000
# 2 -0.006252 0.013651 -0.009299 0.000018 -0.000002 0.000006
# 3 -0.002741 -0.009299 0.028822 -0.000057 0.000015 -0.000015
# 4 0.000007 0.000018 -0.000057 0.048759 0.000012 -0.000002
# 5 -0.000006 -0.000002 0.000015 0.000012 0.051742 0.000014
# 6 0.000000 0.000006 -0.000015 -0.000002 0.000014 0.024289
#
#
# Mechanical properties :
#
#
# Convention : Reuss Voigt Hill
#
# Bulk Modulus (GPa) = 51.91411 74.46132 63.18771
# Shear Modulus (GPa) = 22.35740 26.25456 24.30598
#
# Velocity S-wave (km/s) = 3.65125 3.95671 3.80705
# Velocity P-wave (km/s) = 6.98082 8.07930 7.55006
#
# Compressibility (1/GPa) = 0.01926259
#
# Stress axis : x y z
#
# Youngs Moduli (GPa) = 74.77834 73.25509 34.69541
#
# Poissons Ratio (x) = 0.45800 0.09509
# Poissons Ratio (y) = 0.46753 0.32263
# Poissons Ratio (z) = 0.20495 0.68119
#
# Static dielectric constant tensor:
#      x y z
#    x 3.508810 -0.000020 -0.000060 
#    y -0.000020 3.017240 -0.000010 
#    z -0.000060 -0.000010 2.940950 
# 
# 
# High freq. dielectric constant tensor:
#      x y z
#    x 1.650700 0.000000 0.000000 
#    y 0.000000 1.638940 0.000000 
#    z 0.000000 0.000000 1.626410 
# 
# From -- ./inp_files/8857.got.cif
#   From: 2010.06.25/outbox.cif.g09.slc.cpg/sg71_5_cif.got.tgz:8857.got - 2010.06.28 04:59:45.
