data_PCOD8288394
_publ_section_title
;
Structure prediction by ZEFSAII (Michael W. Deem and Ramdas Pophale) SiO2 
 PCOD8288394
Probable space group: I M M M
;
_chemical_formula_sum "Si O2"
_cell_formula_units_Z 112
_cell_length_a 18.649159
_cell_length_b 17.464345
_cell_length_c 19.141819
_cell_angle_alpha 90.000000
_cell_angle_beta 90.000000
_cell_angle_gamma 90.000000
_cell_volume 6234.401376
_symmetry_space_group_name_H-M "I M M M"
_symmetry_group_IT_number 71
_symmetry_cell_setting 'orthorhombic'
loop_
_space_group_symop_operation_xyz
x,y,z
-x,-y,z
x,-y,-z
-x,y,-z
-x,-y,-z
x,y,-z
-x,y,z
x,-y,z
1/2+x,1/2+y,1/2+z
1/2-x,1/2-y,1/2+z
1/2+x,1/2-y,1/2-z
1/2-x,1/2+y,1/2-z
1/2-x,1/2-y,1/2-z
1/2+x,1/2+y,1/2-z
1/2-x,1/2+y,1/2+z
1/2+x,1/2-y,1/2+z
loop_
_atom_site_type_symbol
_atom_site_label
_atom_site_fract_x
_atom_site_fract_y
_atom_site_fract_z
Si Si1 0.727534 0.090822 0.076703
Si Si2 0.577125 0.088166 0.878898
Si Si3 0.312185 0.413273 0.293916
Si Si4 0.669042 0.589580 0.918925
Si Si5 0.299983 0.085990 0.330009
Si Si6 0.083524 0.829019 0.299417
Si Si7 0.579796 0.834595 0.259182
O O1 0.646808 0.125648 0.084207
O O2 0.782090 0.124800 0.134325
O O3 0.722205 0.000000 0.089188
O O4 0.757178 0.111481 0.000000
O O5 0.500000 0.126180 0.902226
O O6 0.584538 0.095157 0.795094
O O7 0.574007 0.000000 0.899359
O O8 0.335633 0.500000 0.307220
O O9 0.249657 0.407063 0.237614
O O10 0.382784 0.370330 0.267991
O O11 0.651737 0.500000 0.903856
O O12 0.751735 0.606505 0.897711
O O13 0.616856 0.642083 0.872478
O O14 0.657889 0.610228 0.000000
O O15 0.364918 0.146987 0.322137
O O16 0.330973 0.000000 0.337410
O O17 0.099582 0.739611 0.287325
O O18 0.000000 0.848044 0.301593
O O19 0.500000 0.825962 0.291650
#
# Coordination Sequence:
#
# PCOD8288394 Si02
#       7
#    16  16  16  16  16  16  16
#     4   9  16  27  44  66  93 123 155 194 236 276
#     4   9  16  27  44  66  95 129 162 194 230 276
#     4   9  17  30  48  70  93 119 160 206 243 287
#     4   9  19  35  55  79 103 128 163 209 259 309
#     4   9  16  30  53  75  98 129 165 206 250 295
#     4  10  21  34  50  72  99 131 164 202 251 300
#     4  10  19  30  47  72 101 131 164 201 238 283
#
# _framework density 17.964835999999998
#
# number of rings (size 3 to 8) (size 9 to 14) (size 15 to 20)
#    0.000    2.714    1.429    1.714    0.000    4.857 
#    0.000    2.857    0.000    3.429    0.000    6.000 
#    0.000    0.000    0.000    0.000    0.000    0.000 
#
# Total GULP energy -693927.011967 kJ/mol
# GULP energy per Si atom -12391.553785 kJ/mol
# Density = 1.792395 g / cm^3
# Si number density = 17.964836 Si / 1000 Ang^3
#
#
#
# Elastic Constant Matrix: (Units=GPa)
#
#
# Indices 1 2 3 4 5 6 
#
# 1 115.5019 50.5678 62.8615 0.0000 0.0000 0.0000
# 2 50.5678 49.9267 23.7527 0.0000 0.0000 0.0000
# 3 62.8615 23.7527 103.4750 0.0000 0.0000 0.0000
# 4 0.0000 0.0000 0.0000 15.3226 0.0000 0.0000
# 5 0.0000 0.0000 0.0000 0.0000 23.1903 0.0000
# 6 0.0000 0.0000 0.0000 0.0000 0.0000 25.0480
#
#
#
# Elastic Compliance Matrix: (Units=1/GPa)
#
#
# Indices 1 2 3 4 5 6 
#
# 1 0.020855 -0.016946 -0.008780 0.000000 0.000000 0.000000
# 2 -0.016946 0.036255 0.001973 0.000000 0.000000 0.000000
# 3 -0.008780 0.001973 0.014545 0.000000 0.000000 0.000000
# 4 0.000000 0.000000 0.000000 0.065263 0.000000 0.000000
# 5 0.000000 0.000000 0.000000 0.000000 0.043121 0.000000
# 6 0.000000 0.000000 0.000000 0.000000 0.000000 0.039923
#
#
# Mechanical properties :
#
#
# Convention : Reuss Voigt Hill
#
# Bulk Modulus (GPa) = 41.41034 60.36306 50.88670
# Shear Modulus (GPa) = 18.14754 21.49364 19.82059
#
# Velocity S-wave (km/s) = 3.18177 3.46269 3.32520
# Velocity P-wave (km/s) = 6.04971 7.04703 6.56733
#
# Compressibility (1/GPa) = 0.02414856
#
# Stress axis : x y z
#
# Youngs Moduli (GPa) = 47.94906 27.58256 68.75177
#
# Poissons Ratio (x) = 0.46742 0.60362
# Poissons Ratio (y) = 0.81256 -0.13562
# Poissons Ratio (z) = 0.42098 -0.05441
#
# Static dielectric constant tensor:
#      x y z
#    x 3.451640 0.000000 0.000000 
#    y 0.000000 3.135450 0.000000 
#    z 0.000000 0.000000 3.213900 
# 
# 
# High freq. dielectric constant tensor:
#      x y z
#    x 1.690830 0.000000 0.000000 
#    y 0.000000 1.670970 0.000000 
#    z 0.000000 0.000000 1.670480 
# 
# From -- ./inp_files/54272.got.cif
#   From: 2010.06.25/outbox.cif.g09.slc.cpg/sg71_28_cif.got.tgz:54272.got - 2010.06.28 04:59:45.
