data_PCOD8288431
_publ_section_title
;
Structure prediction by ZEFSAII (Michael W. Deem and Ramdas Pophale) SiO2 
 PCOD8288431
Probable space group: I M M M
;
_chemical_formula_sum "Si O2"
_cell_formula_units_Z 104
_cell_length_a 32.470095
_cell_length_b 20.092525
_cell_length_c 9.178503
_cell_angle_alpha 90.000000
_cell_angle_beta 90.000000
_cell_angle_gamma 90.000000
_cell_volume 5988.112223
_symmetry_space_group_name_H-M "I M M M"
_symmetry_group_IT_number 71
_symmetry_cell_setting 'orthorhombic'
loop_
_space_group_symop_operation_xyz
x,y,z
-x,-y,z
x,-y,-z
-x,y,-z
-x,-y,-z
x,y,-z
-x,y,z
x,-y,z
1/2+x,1/2+y,1/2+z
1/2-x,1/2-y,1/2+z
1/2+x,1/2-y,1/2-z
1/2-x,1/2+y,1/2-z
1/2-x,1/2-y,1/2-z
1/2+x,1/2+y,1/2-z
1/2-x,1/2+y,1/2+z
1/2+x,1/2-y,1/2+z
loop_
_atom_site_type_symbol
_atom_site_label
_atom_site_fract_x
_atom_site_fract_y
_atom_site_fract_z
Si Si1 0.873283 0.303088 0.326501
Si Si2 0.163418 0.180395 0.835818
Si Si3 0.320643 0.926608 0.172789
Si Si4 0.453632 0.235249 0.330076
Si Si5 0.771736 0.925568 0.826653
Si Si6 0.424927 0.378225 0.660300
Si Si7 0.454250 0.500000 0.829026
O O1 0.875178 0.296955 0.500000
O O2 0.844628 0.243960 0.265896
O O3 0.852859 0.371778 0.271479
O O4 0.919804 0.303812 0.264454
O O5 0.198786 0.133104 0.765823
O O6 0.123080 0.135987 0.842839
O O7 0.174924 0.204407 0.000000
O O8 0.274539 0.910096 0.228680
O O9 0.334209 0.000000 0.229274
O O10 0.319728 0.926555 0.000000
O O11 0.443269 0.223948 0.500000
O O12 0.500000 0.210501 0.292280
O O13 0.450700 0.313303 0.292674
O O14 0.784872 0.000000 0.772538
O O15 0.774399 0.924411 0.000000
O O16 0.439452 0.402180 0.500000
O O17 0.431117 0.434575 0.778157
O O18 0.500000 0.500000 0.763255
O O19 0.454693 0.500000 0.000000
#
# Coordination Sequence:
#
# PCOD8288431 Si02
#       7
#    16  16  16  16  16  16   8
#     4  10  19  30  48  74 102 127 154 192 242 295
#     4   9  18  31  48  70  95 124 163 206 241 276
#     4   8  15  29  48  72  99 127 160 197 236 280
#     4   9  18  34  54  72  91 119 157 198 236 279
#     4   8  14  26  47  70  92 125 171 211 235 266
#     4   9  18  31  47  65  86 115 154 198 237 274
#     4  11  23  33  41  59  87 119 155 195 241 287
#
# _framework density 17.367744999999999
#
# number of rings (size 3 to 8) (size 9 to 14) (size 15 to 20)
#    0.000    3.000    0.000    3.000    1.077    4.615 
#    0.000    0.000    0.000    3.231    0.000    7.538 
#    0.000    0.000    0.000    0.000    0.000    0.000 
#
# Total GULP energy -644487.787886 kJ/mol
# GULP energy per Si atom -12393.995921 kJ/mol
# Density = 1.732822 g / cm^3
# Si number density = 17.367745 Si / 1000 Ang^3
#
#
#
# Elastic Constant Matrix: (Units=GPa)
#
#
# Indices 1 2 3 4 5 6 
#
# 1 110.9901 78.2279 33.9979 0.0000 0.0000 0.0000
# 2 78.2279 116.1280 39.1168 0.0000 0.0000 0.0000
# 3 33.9979 39.1168 47.9203 0.0000 0.0000 0.0000
# 4 0.0000 0.0000 0.0000 21.0802 0.0000 0.0000
# 5 0.0000 0.0000 0.0000 0.0000 19.3849 0.0000
# 6 0.0000 0.0000 0.0000 0.0000 0.0000 19.3190
#
#
#
# Elastic Compliance Matrix: (Units=1/GPa)
#
#
# Indices 1 2 3 4 5 6 
#
# 1 0.017665 -0.010590 -0.003888 0.000000 0.000000 0.000000
# 2 -0.010590 0.018225 -0.007364 0.000000 0.000000 0.000000
# 3 -0.003888 -0.007364 0.029638 0.000000 0.000000 0.000000
# 4 0.000000 0.000000 0.000000 0.047438 0.000000 0.000000
# 5 0.000000 0.000000 0.000000 0.000000 0.051587 0.000000
# 6 0.000000 0.000000 0.000000 0.000000 0.000000 0.051763
#
#
# Mechanical properties :
#
#
# Convention : Reuss Voigt Hill
#
# Bulk Modulus (GPa) = 45.77976 64.19151 54.98563
# Shear Modulus (GPa) = 18.70694 20.20320 19.45507
#
# Velocity S-wave (km/s) = 3.28549 3.41436 3.35055
# Velocity P-wave (km/s) = 6.38819 7.25150 6.83349
#
# Compressibility (1/GPa) = 0.02184372
#
# Stress axis : x y z
#
# Youngs Moduli (GPa) = 56.60980 54.86832 33.74083
#
# Poissons Ratio (x) = 0.58105 0.13119
# Poissons Ratio (y) = 0.59949 0.24847
# Poissons Ratio (z) = 0.22011 0.40405
#
# Static dielectric constant tensor:
#      x y z
#    x 3.404760 0.000000 0.000000 
#    y 0.000000 3.297030 0.000000 
#    z 0.000000 0.000000 2.943410 
# 
# 
# High freq. dielectric constant tensor:
#      x y z
#    x 1.673430 0.000000 0.000000 
#    y 0.000000 1.658830 0.000000 
#    z 0.000000 0.000000 1.638940 
# 
# From -- ./inp_files/17009.got.cif
#   From: 2010.06.25/outbox.cif.g09.slc.cpg/sg71_9_cif.got.tgz:17009.got - 2010.06.28 04:59:45.
