data_PCOD8288993
_publ_section_title
;
Structure prediction by ZEFSAII (Michael W. Deem and Ramdas Pophale) SiO2 
 PCOD8288993
Probable space group: I M M M
;
_chemical_formula_sum "Si O2"
_cell_formula_units_Z 80
_cell_length_a 19.401514
_cell_length_b 8.820955
_cell_length_c 25.791065
_cell_angle_alpha 90.000000
_cell_angle_beta 90.000000
_cell_angle_gamma 90.000000
_cell_volume 4413.879819
_symmetry_space_group_name_H-M "I M M M"
_symmetry_group_IT_number 71
_symmetry_cell_setting 'orthorhombic'
loop_
_space_group_symop_operation_xyz
x,y,z
-x,-y,z
x,-y,-z
-x,y,-z
-x,-y,-z
x,y,-z
-x,y,z
x,-y,z
1/2+x,1/2+y,1/2+z
1/2-x,1/2-y,1/2+z
1/2+x,1/2-y,1/2-z
1/2-x,1/2+y,1/2-z
1/2-x,1/2-y,1/2-z
1/2+x,1/2+y,1/2-z
1/2-x,1/2+y,1/2+z
1/2+x,1/2-y,1/2+z
loop_
_atom_site_type_symbol
_atom_site_label
_atom_site_fract_x
_atom_site_fract_y
_atom_site_fract_z
Si Si1 0.672985 0.667642 0.500000
Si Si2 0.079000 0.324727 0.802515
Si Si3 0.820197 0.678509 0.894646
Si Si4 0.326571 0.819165 0.110767
Si Si5 0.163783 0.334799 0.500000
Si Si6 0.419428 0.325415 0.803748
O O1 0.639090 0.500000 0.500000
O O2 0.649984 0.757343 0.448598
O O3 0.754351 0.651069 0.500000
O O4 0.089627 0.500000 0.787928
O O5 0.124794 0.276314 0.851092
O O6 0.103027 0.226001 0.753456
O O7 0.000000 0.290146 0.817016
O O8 0.810700 0.500000 0.900239
O O9 0.747787 0.749566 0.877143
O O10 0.379935 0.775150 0.154656
O O11 0.318667 0.000000 0.107306
O O12 0.355490 0.754301 0.054787
O O13 0.128578 0.500000 0.500000
O O14 0.500000 0.296232 0.812180
O O15 0.399320 0.500000 0.811259
#
# Coordination Sequence:
#
# PCOD8288993 Si02
#       6
#     8  16  16  16   8  16
#     4   9  17  31  50  73 104 138 169 202 248 306
#     4   9  19  36  55  74  99 134 173 211 256 308
#     4  10  19  32  53  79 104 131 168 214 257 297
#     4  10  19  33  54  77 103 134 168 208 253 304
#     4   7  14  29  48  71  96 126 163 199 238 285
#     4  10  21  36  53  74 101 133 170 212 257 304
#
# _framework density 18.124644
#
# number of rings (size 3 to 8) (size 9 to 14) (size 15 to 20)
#    0.000    2.600    0.000    3.300    0.000    3.600 
#    0.000    2.500    0.000    6.000    0.000    0.000 
#    0.000    0.000    0.000    0.000    0.000    0.000 
#
# Total GULP energy -495836.443641 kJ/mol
# GULP energy per Si atom -12395.911091 kJ/mol
# Density = 1.808339 g / cm^3
# Si number density = 18.124644 Si / 1000 Ang^3
#
#
#
# Elastic Constant Matrix: (Units=GPa)
#
#
# Indices 1 2 3 4 5 6 
#
# 1 58.0243 35.2651 67.8810 0.0000 0.0000 0.0000
# 2 35.2651 83.5179 58.2364 0.0000 0.0000 0.0000
# 3 67.8810 58.2364 162.3255 0.0000 0.0000 0.0000
# 4 0.0000 0.0000 0.0000 31.0898 0.0000 0.0000
# 5 0.0000 0.0000 0.0000 0.0000 -20.1969 0.0000
# 6 0.0000 0.0000 0.0000 0.0000 0.0000 21.1219
#
#
#
# Elastic Compliance Matrix: (Units=1/GPa)
#
#
# Indices 1 2 3 4 5 6 
#
# 1 0.036053 -0.006282 -0.012823 0.000000 0.000000 0.000000
# 2 -0.006282 0.017063 -0.003494 0.000000 0.000000 0.000000
# 3 -0.012823 -0.003494 0.012776 0.000000 0.000000 0.000000
# 4 0.000000 0.000000 0.000000 0.032165 0.000000 0.000000
# 5 0.000000 0.000000 0.000000 0.000000 -0.049513 0.000000
# 6 0.000000 0.000000 0.000000 0.000000 0.000000 0.047344
#
#
# Mechanical properties :
#
#
# Convention : Reuss Voigt Hill
#
# Bulk Modulus (GPa) = 48.32412 69.62588 58.97500
# Shear Modulus (GPa) = 33.78696 15.90196 24.84446
#
# Velocity S-wave (km/s) = 4.32226 2.96525 3.70639
# Velocity P-wave (km/s) = 7.18535 7.08675 7.13622
#
# Compressibility (1/GPa) = 0.02069360
#
# Stress axis : x y z
#
# Youngs Moduli (GPa) = 27.73659 58.60738 78.26897
#
# Poissons Ratio (x) = 0.36817 1.00364
# Poissons Ratio (y) = 0.17424 0.27351
# Poissons Ratio (z) = 0.35567 0.20480
#
# Static dielectric constant tensor:
#      x y z
#    x 3.072200 0.000000 0.000000 
#    y 0.000000 3.369730 0.000000 
#    z 0.000000 0.000000 3.714930 
# 
# 
# High freq. dielectric constant tensor:
#      x y z
#    x 1.672400 0.000000 0.000000 
#    y 0.000000 1.703480 0.000000 
#    z 0.000000 0.000000 1.720050 
# 
# From -- ./inp_files/10227.got.cif
#   From: 2010.06.25/outbox.cif.g09.slc.cpg/sg71_6_cif.got.tgz:10227.got - 2010.06.28 04:59:45.
