data_PCOD8288918
_publ_section_title
;
Structure prediction by ZEFSAII (Michael W. Deem and Ramdas Pophale) SiO2 
 PCOD8288918
Probable space group: I M M M
;
_chemical_formula_sum "Si O2"
_cell_formula_units_Z 104
_cell_length_a 25.382962
_cell_length_b 23.464424
_cell_length_c 9.267893
_cell_angle_alpha 90.000000
_cell_angle_beta 90.000000
_cell_angle_gamma 90.000000
_cell_volume 5519.925400
_symmetry_space_group_name_H-M "I M M M"
_symmetry_group_IT_number 71
_symmetry_cell_setting 'orthorhombic'
loop_
_space_group_symop_operation_xyz
x,y,z
-x,-y,z
x,-y,-z
-x,y,-z
-x,-y,-z
x,y,-z
-x,y,z
x,-y,z
1/2+x,1/2+y,1/2+z
1/2-x,1/2-y,1/2+z
1/2+x,1/2-y,1/2-z
1/2-x,1/2+y,1/2-z
1/2-x,1/2-y,1/2-z
1/2+x,1/2+y,1/2-z
1/2-x,1/2+y,1/2+z
1/2+x,1/2-y,1/2+z
loop_
_atom_site_type_symbol
_atom_site_label
_atom_site_fract_x
_atom_site_fract_y
_atom_site_fract_z
Si Si1 0.104420 0.879173 0.830381
Si Si2 0.939066 0.434018 0.830229
Si Si3 0.500000 0.436953 0.328394
Si Si4 0.243934 0.328102 0.838621
Si Si5 0.138706 0.347305 0.664473
Si Si6 0.146983 0.221414 0.663076
Si Si7 0.309981 0.562441 0.841630
O O1 0.111215 0.817116 0.763249
O O2 0.148481 0.923587 0.782098
O O3 0.049863 0.902872 0.771222
O O4 0.106248 0.872746 0.000000
O O5 0.926242 0.500000 0.789595
O O6 0.899137 0.391157 0.749001
O O7 0.000000 0.420491 0.787775
O O8 0.931013 0.424771 0.000000
O O9 0.500000 0.500000 0.261152
O O10 0.500000 0.440924 0.500000
O O11 0.195772 0.334182 0.730090
O O12 0.290943 0.284396 0.784981
O O13 0.263426 0.392748 0.839554
O O14 0.224823 0.310282 0.000000
O O15 0.143842 0.369694 0.500000
O O16 0.117563 0.282487 0.667715
O O17 0.147771 0.197073 0.500000
O O18 0.286000 0.500000 0.809048
O O19 0.337267 0.563453 0.000000
#
# Coordination Sequence:
#
# PCOD8288918 Si02
#       7
#    16  16   8  16  16  16  16
#     4  10  19  32  52  75 100 135 179 226 269 310
#     4   9  20  41  65  85 108 142 183 225 270 326
#     4   9  18  32  49  73 105 135 168 217 272 313
#     4   9  18  33  53  76 108 147 184 220 262 317
#     4  11  22  35  56  86 114 140 175 220 271 323
#     4   9  20  38  54  74 109 147 179 217 268 322
#     4   9  18  33  51  72 103 141 177 216 267 323
#
# _framework density 18.840834999999998
#
# number of rings (size 3 to 8) (size 9 to 14) (size 15 to 20)
#    0.000    2.538    0.000    3.231    0.000    5.846 
#    1.385    3.846    0.000    2.769    0.000    0.000 
#    0.000    0.000    0.000    0.000    0.000    0.000 
#
# Total GULP energy -644202.993592 kJ/mol
# GULP energy per Si atom -12388.519108 kJ/mol
# Density = 1.879795 g / cm^3
# Si number density = 18.840835 Si / 1000 Ang^3
#
#
#
# Elastic Constant Matrix: (Units=GPa)
#
#
# Indices 1 2 3 4 5 6 
#
# 1 87.5179 41.4635 45.6816 0.0000 0.0000 0.0000
# 2 41.4635 98.9961 35.6442 0.0000 0.0000 0.0000
# 3 45.6816 35.6442 81.2097 0.0000 0.0000 0.0000
# 4 0.0000 0.0000 0.0000 27.5497 0.0000 0.0000
# 5 0.0000 0.0000 0.0000 0.0000 28.2392 0.0000
# 6 0.0000 0.0000 0.0000 0.0000 0.0000 16.9625
#
#
#
# Elastic Compliance Matrix: (Units=1/GPa)
#
#
# Indices 1 2 3 4 5 6 
#
# 1 0.017756 -0.004561 -0.007986 0.000000 0.000000 0.000000
# 2 -0.004561 0.013169 -0.003214 0.000000 0.000000 0.000000
# 3 -0.007986 -0.003214 0.018217 0.000000 0.000000 0.000000
# 4 0.000000 0.000000 0.000000 0.036298 0.000000 0.000000
# 5 0.000000 0.000000 0.000000 0.000000 0.035412 0.000000
# 6 0.000000 0.000000 0.000000 0.000000 0.000000 0.058954
#
#
# Mechanical properties :
#
#
# Convention : Reuss Voigt Hill
#
# Bulk Modulus (GPa) = 56.75806 57.03357 56.89581
# Shear Modulus (GPa) = 23.02017 24.21257 23.61637
#
# Velocity S-wave (km/s) = 3.49925 3.58873 3.54427
# Velocity P-wave (km/s) = 6.82032 6.89268 6.85659
#
# Compressibility (1/GPa) = 0.01761864
#
# Stress axis : x y z
#
# Youngs Moduli (GPa) = 56.32030 75.93444 54.89475
#
# Poissons Ratio (x) = 0.34637 0.43837
# Poissons Ratio (y) = 0.25690 0.17645
# Poissons Ratio (z) = 0.44976 0.24408
#
# Static dielectric constant tensor:
#      x y z
#    x 3.342230 0.000000 0.000000 
#    y 0.000000 3.807200 0.000000 
#    z 0.000000 0.000000 3.468120 
# 
# 
# High freq. dielectric constant tensor:
#      x y z
#    x 1.710860 0.000000 0.000000 
#    y 0.000000 1.746780 0.000000 
#    z 0.000000 0.000000 1.728920 
# 
# From -- ./inp_files/15303.got.cif
#   From: 2010.06.25/outbox.cif.g09.slc.cpg/sg71_8_cif.got.tgz:15303.got - 2010.06.28 04:59:45.
