data_PCOD8288647
_publ_section_title
;
Structure prediction by ZEFSAII (Michael W. Deem and Ramdas Pophale) SiO2 
 PCOD8288647
Probable space group: I M M M
;
_chemical_formula_sum "Si O2"
_cell_formula_units_Z 88
_cell_length_a 28.097358
_cell_length_b 8.711619
_cell_length_c 19.251144
_cell_angle_alpha 90.000000
_cell_angle_beta 90.000000
_cell_angle_gamma 90.000000
_cell_volume 4712.169469
_symmetry_space_group_name_H-M "I M M M"
_symmetry_group_IT_number 71
_symmetry_cell_setting 'orthorhombic'
loop_
_space_group_symop_operation_xyz
x,y,z
-x,-y,z
x,-y,-z
-x,y,-z
-x,-y,-z
x,y,-z
-x,y,z
x,-y,z
1/2+x,1/2+y,1/2+z
1/2-x,1/2-y,1/2+z
1/2+x,1/2-y,1/2-z
1/2-x,1/2+y,1/2-z
1/2-x,1/2-y,1/2-z
1/2+x,1/2+y,1/2-z
1/2-x,1/2+y,1/2+z
1/2+x,1/2-y,1/2+z
loop_
_atom_site_type_symbol
_atom_site_label
_atom_site_fract_x
_atom_site_fract_y
_atom_site_fract_z
Si Si1 0.153318 0.318954 0.182651
Si Si2 0.948315 0.322751 0.779938
Si Si3 0.445422 0.667972 0.000000
Si Si4 0.313190 0.679731 0.178518
Si Si5 0.407190 0.823720 0.132872
Si Si6 0.769200 0.318570 0.077863
O O1 0.149912 0.500000 0.195114
O O2 0.098976 0.250407 0.182731
O O3 0.185880 0.256934 0.245590
O O4 0.178982 0.277181 0.110218
O O5 0.950973 0.500000 0.800470
O O6 0.942346 0.300939 0.697683
O O7 0.000000 0.247385 0.801124
O O8 0.434441 0.772077 0.065458
O O9 0.419127 0.500000 0.000000
O O10 0.500000 0.630819 0.000000
O O11 0.306291 0.500000 0.189587
O O12 0.361715 0.714913 0.138903
O O13 0.271041 0.747444 0.129738
O O14 0.390550 0.000000 0.127329
O O15 0.762992 0.500000 0.072552
O O16 0.765488 0.247000 0.000000
#
# Coordination Sequence:
#
# PCOD8288647 Si02
#       6
#    16  16   8  16  16  16
#     4   9  17  31  51  72  96 127 165 205 244 302
#     4   8  14  26  46  70  92 117 154 199 243 286
#     4  11  23  35  47  67  99 137 173 211 256 301
#     4  10  19  31  50  72  97 129 164 207 255 302
#     4  10  20  33  49  69  95 129 171 212 250 296
#     4   9  18  31  48  71  98 131 166 200 249 309
#
# _framework density 18.675049999999999
#
# number of rings (size 3 to 8) (size 9 to 14) (size 15 to 20)
#    0.000    2.636    0.000    3.545    1.273    1.455 
#    0.000    0.909    0.000    8.182    0.000    3.818 
#    0.000    0.000    0.000    6.545    0.000    7.273 
#
# Total GULP energy -545160.487650 kJ/mol
# GULP energy per Si atom -12390.011083 kJ/mol
# Density = 1.863254 g / cm^3
# Si number density = 18.675050 Si / 1000 Ang^3
#
#
#
# Elastic Constant Matrix: (Units=GPa)
#
#
# Indices 1 2 3 4 5 6 
#
# 1 125.8589 10.1167 57.9681 0.0000 0.0000 0.0000
# 2 10.1167 26.6216 13.1742 0.0000 0.0000 0.0000
# 3 57.9681 13.1742 89.0444 0.0000 0.0000 0.0000
# 4 0.0000 0.0000 0.0000 18.5071 0.0000 0.0000
# 5 0.0000 0.0000 0.0000 0.0000 -39.7120 0.0000
# 6 0.0000 0.0000 0.0000 0.0000 0.0000 17.9649
#
#
#
# Elastic Compliance Matrix: (Units=1/GPa)
#
#
# Indices 1 2 3 4 5 6 
#
# 1 0.011360 -0.000709 -0.007291 0.000000 0.000000 0.000000
# 2 -0.000709 0.040575 -0.005541 0.000000 0.000000 0.000000
# 3 -0.007291 -0.005541 0.016796 0.000000 0.000000 0.000000
# 4 0.000000 0.000000 0.000000 0.054033 0.000000 0.000000
# 5 0.000000 0.000000 0.000000 0.000000 -0.025181 0.000000
# 6 0.000000 0.000000 0.000000 0.000000 0.000000 0.055664
#
#
# Mechanical properties :
#
#
# Convention : Reuss Voigt Hill
#
# Bulk Modulus (GPa) = 24.00993 44.89364 34.45179
# Shear Modulus (GPa) = 25.74478 10.03638 17.89058
#
# Velocity S-wave (km/s) = 3.71693 2.32075 3.09851
# Velocity P-wave (km/s) = 5.59512 5.59220 5.59366
#
# Compressibility (1/GPa) = 0.04164943
#
# Stress axis : x y z
#
# Youngs Moduli (GPa) = 88.02530 24.64554 59.53628
#
# Poissons Ratio (x) = 0.01748 0.43406
# Poissons Ratio (y) = 0.06243 0.32992
# Poissons Ratio (z) = 0.64177 0.13657
#
# Static dielectric constant tensor:
#      x y z
#    x 3.786970 0.000000 0.000000 
#    y 0.000000 3.119350 0.000000 
#    z 0.000000 0.000000 3.376100 
# 
# 
# High freq. dielectric constant tensor:
#      x y z
#    x 1.736200 0.000000 0.000000 
#    y 0.000000 1.689810 0.000000 
#    z 0.000000 0.000000 1.703840 
# 
# From -- ./inp_files/8777.got.cif
#   From: 2010.06.25/outbox.cif.g09.slc.cpg/sg71_5_cif.got.tgz:8777.got - 2010.06.28 04:59:45.
