data_PCOD8288716
_publ_section_title
;
Structure prediction by ZEFSAII (Michael W. Deem and Ramdas Pophale) SiO2 
 PCOD8288716
Probable space group: I M M M
;
_chemical_formula_sum "Si O2"
_cell_formula_units_Z 120
_cell_length_a 31.515118
_cell_length_b 14.312439
_cell_length_c 14.414569
_cell_angle_alpha 90.000000
_cell_angle_beta 90.000000
_cell_angle_gamma 90.000000
_cell_volume 6501.809604
_symmetry_space_group_name_H-M "I M M M"
_symmetry_group_IT_number 71
_symmetry_cell_setting 'orthorhombic'
loop_
_space_group_symop_operation_xyz
x,y,z
-x,-y,z
x,-y,-z
-x,y,-z
-x,-y,-z
x,y,-z
-x,y,z
x,-y,z
1/2+x,1/2+y,1/2+z
1/2-x,1/2-y,1/2+z
1/2+x,1/2-y,1/2-z
1/2-x,1/2+y,1/2-z
1/2-x,1/2-y,1/2-z
1/2+x,1/2+y,1/2-z
1/2-x,1/2+y,1/2+z
1/2+x,1/2-y,1/2+z
loop_
_atom_site_type_symbol
_atom_site_label
_atom_site_fract_x
_atom_site_fract_y
_atom_site_fract_z
Si Si1 0.000000 0.605199 0.889684
Si Si2 0.176126 0.207399 0.605123
Si Si3 0.451410 0.606486 0.712035
Si Si4 0.080943 0.721195 0.109716
Si Si5 0.836263 0.607811 0.892517
Si Si6 0.591966 0.606666 0.103697
Si Si7 0.749901 0.893865 0.707543
Si Si8 0.212880 0.396967 0.602531
O O1 0.041816 0.658595 0.853559
O O2 0.000000 0.500000 0.849188
O O3 0.000000 0.601298 0.000000
O O4 0.184862 0.173060 0.500000
O O5 0.130926 0.170150 0.638349
O O6 0.213331 0.171454 0.670663
O O7 0.175732 0.320139 0.611857
O O8 0.500000 0.626969 0.686552
O O9 0.439074 0.500000 0.685276
O O10 0.421357 0.675987 0.654735
O O11 0.445718 0.621692 0.822847
O O12 0.124513 0.671624 0.140138
O O13 0.078529 0.733212 0.000000
O O14 0.848584 0.500000 0.874589
O O15 0.795436 0.638023 0.833267
O O16 0.825529 0.624592 0.000000
O O17 0.607873 0.500000 0.103845
O O18 0.576407 0.635166 0.000000
O O19 0.748888 0.882522 0.819254
O O20 0.759565 0.000000 0.677369
O O21 0.234288 0.388450 0.500000
O O22 0.192079 0.500000 0.615664
#
# Coordination Sequence:
#
# PCOD8288716 Si02
#       8
#     8  16  16  16  16  16  16  16
#     4   9  16  28  49  75 100 129 165 205 253 300
#     4  10  19  32  54  79 102 131 169 214 260 304
#     4  10  21  36  54  76 102 133 170 210 253 309
#     4  10  19  32  50  73 104 139 171 208 251 299
#     4   9  18  31  48  74 106 137 170 212 261 308
#     4   9  19  35  55  80 105 128 161 212 270 315
#     4  10  19  31  51  77 103 135 173 215 260 300
#     4   9  19  34  48  67  99 137 178 214 245 294
#
# _framework density 18.456399999999999
#
# number of rings (size 3 to 8) (size 9 to 14) (size 15 to 20)
#    0.000    2.467    0.667    1.600    1.867    3.467 
#    0.000    2.000    0.000    0.000    0.000    0.000 
#    0.000    0.533    0.000    0.000    0.000    0.000 
#
# Total GULP energy -743852.260260 kJ/mol
# GULP energy per Si atom -12397.537671 kJ/mol
# Density = 1.841439 g / cm^3
# Si number density = 18.456400 Si / 1000 Ang^3
#
#
#
# Elastic Constant Matrix: (Units=GPa)
#
#
# Indices 1 2 3 4 5 6 
#
# 1 51.1911 26.5382 21.7449 0.0000 0.0000 0.0000
# 2 26.5382 93.2845 28.5433 0.0000 0.0000 0.0000
# 3 21.7449 28.5433 63.7931 0.0000 0.0000 0.0000
# 4 0.0000 0.0000 0.0000 22.8514 0.0000 0.0000
# 5 0.0000 0.0000 0.0000 0.0000 18.7951 0.0000
# 6 0.0000 0.0000 0.0000 0.0000 0.0000 18.1372
#
#
#
# Elastic Compliance Matrix: (Units=1/GPa)
#
#
# Indices 1 2 3 4 5 6 
#
# 1 0.024832 -0.005184 -0.006145 0.000000 0.000000 0.000000
# 2 -0.005184 0.013503 -0.004274 0.000000 0.000000 0.000000
# 3 -0.006145 -0.004274 0.019683 0.000000 0.000000 0.000000
# 4 0.000000 0.000000 0.000000 0.043761 0.000000 0.000000
# 5 0.000000 0.000000 0.000000 0.000000 0.053205 0.000000
# 6 0.000000 0.000000 0.000000 0.000000 0.000000 0.055135
#
#
# Mechanical properties :
#
#
# Convention : Reuss Voigt Hill
#
# Bulk Modulus (GPa) = 37.29854 40.21349 38.75601
# Shear Modulus (GPa) = 19.97892 20.71955 20.34924
#
# Velocity S-wave (km/s) = 3.29370 3.35419 3.32408
# Velocity P-wave (km/s) = 5.89215 6.06930 5.98138
#
# Compressibility (1/GPa) = 0.02681070
#
# Stress axis : x y z
#
# Youngs Moduli (GPa) = 40.26982 74.05948 50.80583
#
# Poissons Ratio (x) = 0.38395 0.31220
# Poissons Ratio (y) = 0.20877 0.21717
# Poissons Ratio (z) = 0.24745 0.31656
#
# Static dielectric constant tensor:
#      x y z
#    x 3.139170 0.000000 0.000000 
#    y 0.000000 3.574050 0.000000 
#    z 0.000000 0.000000 3.441510 
# 
# 
# High freq. dielectric constant tensor:
#      x y z
#    x 1.686430 0.000000 0.000000 
#    y 0.000000 1.725200 0.000000 
#    z 0.000000 0.000000 1.712450 
# 
# From -- ./inp_files/41139.got.cif
#   From: 2010.06.25/outbox.cif.g09.slc.cpg/sg71_21_cif.got.tgz:41139.got - 2010.06.28 04:59:45.
