data_PCOD8288959
_publ_section_title
;
Structure prediction by ZEFSAII (Michael W. Deem and Ramdas Pophale) SiO2 
 PCOD8288959
Probable space group: I M M M
;
_chemical_formula_sum "Si O2"
_cell_formula_units_Z 48
_cell_length_a 8.669109
_cell_length_b 7.592201
_cell_length_c 38.208990
_cell_angle_alpha 90.000000
_cell_angle_beta 90.000000
_cell_angle_gamma 90.000000
_cell_volume 2514.824709
_symmetry_space_group_name_H-M "I M M M"
_symmetry_group_IT_number 71
_symmetry_cell_setting 'orthorhombic'
loop_
_space_group_symop_operation_xyz
x,y,z
-x,-y,z
x,-y,-z
-x,y,-z
-x,-y,-z
x,y,-z
-x,y,z
x,-y,z
1/2+x,1/2+y,1/2+z
1/2-x,1/2-y,1/2+z
1/2+x,1/2-y,1/2-z
1/2-x,1/2+y,1/2-z
1/2-x,1/2-y,1/2-z
1/2+x,1/2+y,1/2-z
1/2-x,1/2+y,1/2+z
1/2+x,1/2-y,1/2+z
loop_
_atom_site_type_symbol
_atom_site_label
_atom_site_fract_x
_atom_site_fract_y
_atom_site_fract_z
Si Si1 0.315961 0.000000 0.410604
Si Si2 0.816890 0.195820 0.038840
Si Si3 0.319426 0.702225 0.712800
Si Si4 0.818340 0.000000 0.665784
O O1 0.256503 0.830616 0.432117
O O2 0.500000 0.000000 0.404776
O O3 0.228800 0.000000 0.374300
O O4 0.000000 0.202685 0.037938
O O5 0.759641 0.000000 0.049007
O O6 0.755259 0.246579 0.000000
O O7 0.500000 0.738573 0.714429
O O8 0.282864 0.500000 0.703300
O O9 0.250000 0.750000 0.750000
O O10 0.246827 0.823556 0.683127
O O11 0.000000 0.000000 0.670312
#
# Coordination Sequence:
#
# PCOD8288959 Si02
#       4
#     8  16  16   8
#     4  10  19  32  52  78 110 146 188 238 288 339
#     4   8  14  26  48  79 110 140 180 233 290 343
#     4  11  23  40  65  91 115 145 186 238 293 348
#     4  12  26  41  57  83 120 162 200 238 287 345
#
# _framework density 19.086817
#
# number of rings (size 3 to 8) (size 9 to 14) (size 15 to 20)
#    0.000    2.000    1.667    4.000    0.000    5.333 
#    0.000    3.333    0.000    2.000    0.000    2.333 
#    0.000    0.000    0.000    0.000    0.000    0.000 
#
# Total GULP energy -297576.679454 kJ/mol
# GULP energy per Si atom -12399.028311 kJ/mol
# Density = 1.904338 g / cm^3
# Si number density = 19.086817 Si / 1000 Ang^3
#
#
#
# Elastic Constant Matrix: (Units=GPa)
#
#
# Indices 1 2 3 4 5 6 
#
# 1 85.4212 64.3250 45.2842 0.0000 0.0000 0.0000
# 2 64.3250 172.5732 104.4289 0.0001 0.0000 0.0000
# 3 45.2842 104.4289 161.4764 0.0001 0.0000 0.0000
# 4 0.0000 0.0001 0.0001 21.3284 0.0000 0.0000
# 5 0.0000 0.0000 0.0000 0.0000 27.4977 0.0000
# 6 0.0000 0.0000 0.0000 0.0000 0.0000 18.4410
#
#
#
# Elastic Compliance Matrix: (Units=1/GPa)
#
#
# Indices 1 2 3 4 5 6 
#
# 1 0.016385 -0.005466 -0.001060 0.000000 0.000000 0.000000
# 2 -0.005466 0.011344 -0.005803 0.000000 0.000000 0.000000
# 3 -0.001060 -0.005803 0.010243 0.000000 0.000000 0.000000
# 4 0.000000 0.000000 0.000000 0.046886 0.000000 0.000000
# 5 0.000000 0.000000 0.000000 0.000000 0.036367 0.000000
# 6 0.000000 0.000000 0.000000 0.000000 0.000000 0.054227
#
#
# Mechanical properties :
#
#
# Convention : Reuss Voigt Hill
#
# Bulk Modulus (GPa) = 75.11341 94.17189 84.64265
# Shear Modulus (GPa) = 24.44428 27.14894 25.79661
#
# Velocity S-wave (km/s) = 3.58255 3.77555 3.68032
# Velocity P-wave (km/s) = 7.52010 8.27359 7.90582
#
# Compressibility (1/GPa) = 0.01331320
#
# Stress axis : x y z
#
# Youngs Moduli (GPa) = 61.03326 88.15497 97.62536
#
# Poissons Ratio (x) = 0.48182 0.10350
# Poissons Ratio (y) = 0.33359 0.56655
# Poissons Ratio (z) = 0.06470 0.51159
#
# Static dielectric constant tensor:
#      x y z
#    x 3.250840 0.000000 0.000000 
#    y 0.000000 2.655020 0.000000 
#    z 0.000000 0.000000 3.595390 
# 
# 
# High freq. dielectric constant tensor:
#      x y z
#    x 1.710870 0.000000 0.000000 
#    y 0.000000 1.761800 0.000000 
#    z 0.000000 0.000000 1.745200 
# 
# From -- ./inp_files/67569.got.cif
#   From: 2010.06.25/outbox.cif.g09.slc.cpg/sg71_34_cif.got.tgz:67569.got - 2010.06.28 04:59:45.
