data_PCOD8288347
_publ_section_title
;
Structure prediction by ZEFSAII (Michael W. Deem and Ramdas Pophale) SiO2 
 PCOD8288347
Probable space group: I M M M
;
_chemical_formula_sum "Si O2"
_cell_formula_units_Z 104
_cell_length_a 9.424538
_cell_length_b 22.809075
_cell_length_c 28.103469
_cell_angle_alpha 90.000000
_cell_angle_beta 90.000000
_cell_angle_gamma 90.000000
_cell_volume 6041.262047
_symmetry_space_group_name_H-M "I M M M"
_symmetry_group_IT_number 71
_symmetry_cell_setting 'orthorhombic'
loop_
_space_group_symop_operation_xyz
x,y,z
-x,-y,z
x,-y,-z
-x,y,-z
-x,-y,-z
x,y,-z
-x,y,z
x,-y,z
1/2+x,1/2+y,1/2+z
1/2-x,1/2-y,1/2+z
1/2+x,1/2-y,1/2-z
1/2-x,1/2+y,1/2-z
1/2-x,1/2-y,1/2-z
1/2+x,1/2+y,1/2-z
1/2-x,1/2+y,1/2+z
1/2+x,1/2-y,1/2+z
loop_
_atom_site_type_symbol
_atom_site_label
_atom_site_fract_x
_atom_site_fract_y
_atom_site_fract_z
Si Si1 0.836706 0.129701 0.680798
Si Si2 0.336889 0.758499 0.201935
Si Si3 0.337505 0.569194 0.911533
Si Si4 0.662342 0.567098 0.272897
Si Si5 0.168050 0.375061 0.648309
Si Si6 0.831790 0.566210 0.552740
Si Si7 0.659316 0.069845 0.500000
O O1 0.817563 0.198788 0.672403
O O2 0.768516 0.096921 0.635853
O O3 0.770729 0.107340 0.730700
O O4 0.000000 0.110336 0.683121
O O5 0.500000 0.768781 0.216520
O O6 0.250000 0.750000 0.250000
O O7 0.283126 0.810856 0.167400
O O8 0.500000 0.589431 0.919824
O O9 0.327989 0.500000 0.907212
O O10 0.242789 0.593676 0.954338
O O11 0.500000 0.585041 0.284514
O O12 0.672007 0.500000 0.256537
O O13 0.757240 0.576234 0.319362
O O14 0.218738 0.387952 0.593819
O O15 0.000000 0.382532 0.652591
O O16 0.776288 0.585939 0.500000
O O17 0.776876 0.500000 0.563911
O O18 0.000000 0.565261 0.551914
O O19 0.500000 0.095071 0.500000
O O20 0.658237 0.000000 0.500000
#
# Coordination Sequence:
#
# PCOD8288347 Si02
#       7
#    16  16  16  16  16  16   8
#     4   9  17  30  47  66  92 122 157 197 231 273
#     4  10  19  32  49  68  93 126 160 193 233 278
#     4   9  16  28  48  69  88 117 157 195 232 277
#     4  10  19  30  46  69  97 128 157 187 231 282
#     4  10  19  30  48  72  96 122 158 199 236 279
#     4   8  14  26  45  68  94 123 152 187 237 290
#     4   9  17  29  45  67  95 121 145 183 236 287
#
# _framework density 17.214946999999999
#
# number of rings (size 3 to 8) (size 9 to 14) (size 15 to 20)
#    0.000    2.692    1.538    1.615    0.000    3.692 
#    0.000    1.538    1.692    2.308    0.000    2.154 
#    0.000    0.000    0.000    0.000    0.000    0.000 
#
# Total GULP energy -644482.725287 kJ/mol
# GULP energy per Si atom -12393.898563 kJ/mol
# Density = 1.717576 g / cm^3
# Si number density = 17.214947 Si / 1000 Ang^3
#
#
#
# Elastic Constant Matrix: (Units=GPa)
#
#
# Indices 1 2 3 4 5 6 
#
# 1 39.7276 18.9699 37.9071 0.0000 0.0000 0.0000
# 2 18.9699 77.5134 54.8585 0.0000 0.0000 0.0000
# 3 37.9071 54.8585 162.1096 0.0000 0.0000 0.0000
# 4 0.0000 0.0000 0.0000 24.7540 0.0000 0.0000
# 5 0.0000 0.0000 0.0000 0.0000 19.9233 0.0000
# 6 0.0000 0.0000 0.0000 0.0000 0.0000 15.5499
#
#
#
# Elastic Compliance Matrix: (Units=1/GPa)
#
#
# Indices 1 2 3 4 5 6 
#
# 1 0.033087 -0.003447 -0.006570 0.000000 0.000000 0.000000
# 2 -0.003447 0.017323 -0.005056 0.000000 0.000000 0.000000
# 3 -0.006570 -0.005056 0.009416 0.000000 0.000000 0.000000
# 4 0.000000 0.000000 0.000000 0.040398 0.000000 0.000000
# 5 0.000000 0.000000 0.000000 0.000000 0.050192 0.000000
# 6 0.000000 0.000000 0.000000 0.000000 0.000000 0.064309
#
#
# Mechanical properties :
#
#
# Convention : Reuss Voigt Hill
#
# Bulk Modulus (GPa) = 33.69460 55.86905 44.78183
# Shear Modulus (GPa) = 19.62595 23.21980 21.42287
#
# Velocity S-wave (km/s) = 3.38013 3.67661 3.53148
# Velocity P-wave (km/s) = 5.90331 7.10968 6.53439
#
# Compressibility (1/GPa) = 0.02967834
#
# Stress axis : x y z
#
# Youngs Moduli (GPa) = 30.22365 57.72681 106.20210
#
# Poissons Ratio (x) = 0.19901 0.69778
# Poissons Ratio (y) = 0.10419 0.53696
# Poissons Ratio (z) = 0.19858 0.29187
#
# Static dielectric constant tensor:
#      x y z
#    x 2.966250 0.000000 0.000000 
#    y 0.000000 3.179780 0.000000 
#    z 0.000000 0.000000 3.515600 
# 
# 
# High freq. dielectric constant tensor:
#      x y z
#    x 1.628780 0.000000 0.000000 
#    y 0.000000 1.650330 0.000000 
#    z 0.000000 0.000000 1.670070 
# 
# From -- ./inp_files/15295.got.cif
#   From: 2010.06.25/outbox.cif.g09.slc.cpg/sg71_8_cif.got.tgz:15295.got - 2010.06.28 04:59:45.
