data_PCOD8288917
_publ_section_title
;
Structure prediction by ZEFSAII (Michael W. Deem and Ramdas Pophale) SiO2 
 PCOD8288917
Probable space group: I M M M
;
_chemical_formula_sum "Si O2"
_cell_formula_units_Z 88
_cell_length_a 12.908993
_cell_length_b 21.395870
_cell_length_c 18.107576
_cell_angle_alpha 90.000000
_cell_angle_beta 90.000000
_cell_angle_gamma 90.000000
_cell_volume 5001.296847
_symmetry_space_group_name_H-M "I M M M"
_symmetry_group_IT_number 71
_symmetry_cell_setting 'orthorhombic'
loop_
_space_group_symop_operation_xyz
x,y,z
-x,-y,z
x,-y,-z
-x,y,-z
-x,-y,-z
x,y,-z
-x,y,z
x,-y,z
1/2+x,1/2+y,1/2+z
1/2-x,1/2-y,1/2+z
1/2+x,1/2-y,1/2-z
1/2-x,1/2+y,1/2-z
1/2-x,1/2-y,1/2-z
1/2+x,1/2+y,1/2-z
1/2-x,1/2+y,1/2+z
1/2+x,1/2-y,1/2+z
loop_
_atom_site_type_symbol
_atom_site_label
_atom_site_fract_x
_atom_site_fract_y
_atom_site_fract_z
Si Si1 0.695568 0.429177 0.325142
Si Si2 0.382904 0.767966 0.179948
Si Si3 0.765111 0.341829 0.800219
Si Si4 0.382517 0.114982 0.914469
Si Si5 0.120595 0.571266 0.914783
Si Si6 0.500000 0.574251 0.582486
O O1 0.672205 0.500000 0.301183
O O2 0.699965 0.387513 0.252307
O O3 0.803756 0.428451 0.369540
O O4 0.602777 0.402039 0.375560
O O5 0.500000 0.745059 0.189343
O O6 0.312852 0.707898 0.164202
O O7 0.352378 0.805122 0.254269
O O8 0.369428 0.813108 0.109658
O O9 0.815296 0.381010 0.865629
O O10 0.500000 0.092111 0.898046
O O11 0.355322 0.109251 0.000000
O O12 0.149675 0.500000 0.893632
O O13 0.000000 0.582649 0.899861
O O14 0.147710 0.584005 0.000000
O O15 0.500000 0.500000 0.577602
O O16 0.500000 0.603051 0.500000
#
# Coordination Sequence:
#
# PCOD8288917 Si02
#       6
#    16  16  16  16  16   8
#     4  10  20  32  49  75 102 134 171 206 254 307
#     4   9  19  33  49  72  98 133 172 208 251 295
#     4  10  19  32  52  75 100 135 166 216 251 306
#     4   9  18  33  51  72 100 130 165 208 251 299
#     4   9  18  33  54  79 105 133 166 210 267 321
#     4   9  18  32  48  68  99 137 173 207 241 292
#
# _framework density 17.595434999999998
#
# number of rings (size 3 to 8) (size 9 to 14) (size 15 to 20)
#    0.000    2.636    0.000    2.182    1.273    2.909 
#    0.000    0.909    0.000    0.000    0.000    1.273 
#    0.000    0.000    0.000    0.000    0.000    0.000 
#
# Total GULP energy -545620.924648 kJ/mol
# GULP energy per Si atom -12400.475560 kJ/mol
# Density = 1.755539 g / cm^3
# Si number density = 17.595435 Si / 1000 Ang^3
#
#
#
# Elastic Constant Matrix: (Units=GPa)
#
#
# Indices 1 2 3 4 5 6 
#
# 1 84.9066 33.6235 28.1726 0.0000 0.0000 0.0000
# 2 33.6235 81.0203 33.1288 0.0000 0.0000 0.0000
# 3 28.1726 33.1288 67.5524 -0.0001 0.0000 0.0000
# 4 0.0000 0.0000 -0.0001 21.8242 0.0000 0.0000
# 5 0.0000 0.0000 0.0000 0.0000 29.2740 0.0000
# 6 0.0000 0.0000 0.0000 0.0000 0.0000 25.4177
#
#
#
# Elastic Compliance Matrix: (Units=1/GPa)
#
#
# Indices 1 2 3 4 5 6 
#
# 1 0.014903 -0.004557 -0.003980 0.000000 0.000000 0.000000
# 2 -0.004557 0.016832 -0.006354 0.000000 0.000000 0.000000
# 3 -0.003980 -0.006354 0.019579 0.000000 0.000000 0.000000
# 4 0.000000 0.000000 0.000000 0.045821 0.000000 0.000000
# 5 0.000000 0.000000 0.000000 0.000000 0.034160 0.000000
# 6 0.000000 0.000000 0.000000 0.000000 0.000000 0.039343
#
#
# Mechanical properties :
#
#
# Convention : Reuss Voigt Hill
#
# Bulk Modulus (GPa) = 46.44433 47.03658 46.74046
# Shear Modulus (GPa) = 24.08496 24.54013 24.31255
#
# Velocity S-wave (km/s) = 3.70377 3.73860 3.72123
# Velocity P-wave (km/s) = 6.68906 6.73992 6.71454
#
# Compressibility (1/GPa) = 0.02153115
#
# Stress axis : x y z
#
# Youngs Moduli (GPa) = 67.10039 59.41056 51.07385
#
# Poissons Ratio (x) = 0.27075 0.20329
# Poissons Ratio (y) = 0.30579 0.32453
# Poissons Ratio (z) = 0.26708 0.37750
#
# Static dielectric constant tensor:
#      x y z
#    x 3.331950 0.000000 0.000000 
#    y 0.000000 3.145430 0.000000 
#    z 0.000000 0.000000 3.189720 
# 
# 
# High freq. dielectric constant tensor:
#      x y z
#    x 1.683290 0.000000 0.000000 
#    y 0.000000 1.671810 0.000000 
#    z 0.000000 0.000000 1.674570 
# 
# From -- ./inp_files/23933.got.cif
#   From: 2010.06.25/outbox.cif.g09.slc.cpg/sg71_12_cif.got.tgz:23933.got - 2010.06.28 04:59:45.
