data_PCOD8288751
_publ_section_title
;
Structure prediction by ZEFSAII (Michael W. Deem and Ramdas Pophale) SiO2 
 PCOD8288751
Probable space group: I M M M
;
_chemical_formula_sum "Si O2"
_cell_formula_units_Z 96
_cell_length_a 7.598768
_cell_length_b 25.171996
_cell_length_c 25.415441
_cell_angle_alpha 90.000000
_cell_angle_beta 90.000000
_cell_angle_gamma 90.000000
_cell_volume 4861.367901
_symmetry_space_group_name_H-M "I M M M"
_symmetry_group_IT_number 71
_symmetry_cell_setting 'orthorhombic'
loop_
_space_group_symop_operation_xyz
x,y,z
-x,-y,z
x,-y,-z
-x,y,-z
-x,-y,-z
x,y,-z
-x,y,z
x,-y,z
1/2+x,1/2+y,1/2+z
1/2-x,1/2-y,1/2+z
1/2+x,1/2-y,1/2-z
1/2-x,1/2+y,1/2-z
1/2-x,1/2-y,1/2-z
1/2+x,1/2+y,1/2-z
1/2-x,1/2+y,1/2+z
1/2+x,1/2-y,1/2+z
loop_
_atom_site_type_symbol
_atom_site_label
_atom_site_fract_x
_atom_site_fract_y
_atom_site_fract_z
Si Si1 0.209163 0.557972 0.835616
Si Si2 0.304728 0.836183 0.378481
Si Si3 0.000000 0.158930 0.062671
Si Si4 0.296315 0.089047 0.781056
Si Si5 0.195044 0.262823 0.559807
Si Si6 0.500000 0.559531 0.638835
Si Si7 0.795253 0.191911 0.266787
O O1 0.276592 0.500000 0.854559
O O2 0.279822 0.603849 0.875921
O O3 0.270394 0.566801 0.775413
O O4 0.000000 0.561413 0.836400
O O5 0.500000 0.836881 0.403315
O O6 0.192024 0.793605 0.410407
O O7 0.320083 0.819166 0.318007
O O8 0.168905 0.193368 0.081535
O O9 0.000000 0.102434 0.091763
O O10 0.000000 0.148308 0.000000
O O11 0.500000 0.074439 0.792586
O O12 0.266812 0.152614 0.779871
O O13 0.176114 0.064778 0.826545
O O14 0.244857 0.249797 0.500000
O O15 0.000000 0.287510 0.565024
O O16 0.500000 0.500000 0.614415
O O17 0.750000 0.250000 0.250000
O O18 0.000000 0.184538 0.279555
#
# Coordination Sequence:
#
# PCOD8288751 Si02
#       7
#    16  16   8  16  16   8  16
#     4   8  15  30  52  77 112 158 199 233 272 325
#     4  10  19  31  52  82 113 147 190 237 288 343
#     4  10  24  45  66  88 115 146 184 238 304 362
#     4  10  21  38  56  83 119 159 199 239 281 334
#     4  10  21  39  63  87 112 146 189 239 298 361
#     4  12  26  41  64  92 114 151 200 242 292 352
#     4  11  21  33  50  79 119 157 191 230 282 342
#
# _framework density 19.747530000000001
#
# number of rings (size 3 to 8) (size 9 to 14) (size 15 to 20)
#    0.000    2.000    1.667    3.500    2.333    1.833 
#    0.000    0.000    0.000    0.500    0.000    7.000 
#    0.000    0.000    0.000    0.000    0.000    0.000 
#
# Total GULP energy -594898.977123 kJ/mol
# GULP energy per Si atom -12393.728690 kJ/mol
# Density = 1.970258 g / cm^3
# Si number density = 19.747530 Si / 1000 Ang^3
#
#
#
# Elastic Constant Matrix: (Units=GPa)
#
#
# Indices 1 2 3 4 5 6 
#
# 1 103.2295 32.4037 23.5724 0.0000 0.0000 0.0000
# 2 32.4037 182.0103 44.9104 0.0000 0.0000 0.0000
# 3 23.5724 44.9104 51.5716 0.0000 0.0000 0.0000
# 4 0.0000 0.0000 0.0000 27.9220 0.0000 0.0000
# 5 0.0000 0.0000 0.0000 0.0000 21.6175 0.0000
# 6 0.0000 0.0000 0.0000 0.0000 0.0000 14.1531
#
#
#
# Elastic Compliance Matrix: (Units=1/GPa)
#
#
# Indices 1 2 3 4 5 6 
#
# 1 0.010933 -0.000909 -0.004206 0.000000 0.000000 0.000000
# 2 -0.000909 0.007073 -0.005744 0.000000 0.000000 0.000000
# 3 -0.004206 -0.005744 0.026315 0.000000 0.000000 0.000000
# 4 0.000000 0.000000 0.000000 0.035814 0.000000 0.000000
# 5 0.000000 0.000000 0.000000 0.000000 0.046259 0.000000
# 6 0.000000 0.000000 0.000000 0.000000 0.000000 0.070656
#
#
# Mechanical properties :
#
#
# Convention : Reuss Voigt Hill
#
# Bulk Modulus (GPa) = 44.24064 59.84271 52.04168
# Shear Modulus (GPa) = 22.09429 28.46685 25.28057
#
# Velocity S-wave (km/s) = 3.34853 3.80088 3.58185
# Velocity P-wave (km/s) = 6.11572 7.04499 6.59674
#
# Compressibility (1/GPa) = 0.02260365
#
# Stress axis : x y z
#
# Youngs Moduli (GPa) = 91.46798 141.37521 38.00049
#
# Poissons Ratio (x) = 0.12845 0.15983
# Poissons Ratio (y) = 0.08311 0.21829
# Poissons Ratio (z) = 0.38471 0.81212
#
# Static dielectric constant tensor:
#      x y z
#    x 3.693860 0.000000 0.000000 
#    y 0.000000 3.986990 0.000000 
#    z 0.000000 0.000000 3.226260 
# 
# 
# High freq. dielectric constant tensor:
#      x y z
#    x 1.775070 0.000000 0.000000 
#    y 0.000000 1.779810 0.000000 
#    z 0.000000 0.000000 1.722840 
# 
# From -- ./inp_files/63484.got.cif
#   From: 2010.06.25/outbox.cif.g09.slc.cpg/sg71_32_cif.got.tgz:63484.got - 2010.06.28 04:59:45.
