data_PCOD8288391
_publ_section_title
;
Structure prediction by ZEFSAII (Michael W. Deem and Ramdas Pophale) SiO2 
 PCOD8288391
Probable space group: I M M M
;
_chemical_formula_sum "Si O2"
_cell_formula_units_Z 88
_cell_length_a 18.772249
_cell_length_b 9.495698
_cell_length_c 27.694570
_cell_angle_alpha 90.000000
_cell_angle_beta 90.000000
_cell_angle_gamma 90.000000
_cell_volume 4936.712394
_symmetry_space_group_name_H-M "I M M M"
_symmetry_group_IT_number 71
_symmetry_cell_setting 'orthorhombic'
loop_
_space_group_symop_operation_xyz
x,y,z
-x,-y,z
x,-y,-z
-x,y,-z
-x,-y,-z
x,y,-z
-x,y,z
x,-y,z
1/2+x,1/2+y,1/2+z
1/2-x,1/2-y,1/2+z
1/2+x,1/2-y,1/2-z
1/2-x,1/2+y,1/2-z
1/2-x,1/2-y,1/2-z
1/2+x,1/2+y,1/2-z
1/2-x,1/2+y,1/2+z
1/2+x,1/2-y,1/2+z
loop_
_atom_site_type_symbol
_atom_site_label
_atom_site_fract_x
_atom_site_fract_y
_atom_site_fract_z
Si Si1 0.000000 0.666434 0.447395
Si Si2 0.335946 0.158800 0.654267
Si Si3 0.581027 0.662841 0.724607
Si Si4 0.728864 0.837323 0.446128
Si Si5 0.820624 0.839617 0.314397
Si Si6 0.852529 0.332895 0.594383
O O1 0.930746 0.717425 0.419650
O O2 0.000000 0.500000 0.452099
O O3 0.000000 0.736501 0.500000
O O4 0.397900 0.255269 0.675978
O O5 0.323454 0.204631 0.598108
O O6 0.265101 0.172901 0.687659
O O7 0.364272 0.000000 0.655610
O O8 0.500000 0.703199 0.740243
O O9 0.585765 0.500000 0.711629
O O10 0.638706 0.701983 0.765491
O O11 0.694905 0.815676 0.500000
O O12 0.798131 0.739512 0.442728
O O13 0.751753 0.000000 0.438693
O O14 0.844989 0.723308 0.351957
O O15 0.841244 0.000000 0.329533
O O16 0.840906 0.500000 0.592658
#
# Coordination Sequence:
#
# PCOD8288391 Si02
#       6
#     8  16  16  16  16  16
#     4   9  18  30  41  59  95 135 165 203 252 293
#     4   9  18  33  53  77 102 130 165 207 252 299
#     4  10  21  35  52  75 103 136 170 207 254 304
#     4   9  18  34  54  75 100 128 162 206 254 302
#     4   9  19  35  52  72 100 134 170 208 251 298
#     4  10  19  30  47  71  98 130 170 211 250 294
#
# _framework density 17.825628999999999
#
# number of rings (size 3 to 8) (size 9 to 14) (size 15 to 20)
#    0.000    2.636    0.000    2.727    1.273    5.091 
#    0.000    1.364    0.000    3.818    0.000    3.818 
#    0.000    0.000    0.000    0.000    0.000    0.000 
#
# Total GULP energy -545293.211330 kJ/mol
# GULP energy per Si atom -12393.027530 kJ/mol
# Density = 1.778506 g / cm^3
# Si number density = 17.825629 Si / 1000 Ang^3
#
#
#
# Elastic Constant Matrix: (Units=GPa)
#
#
# Indices 1 2 3 4 5 6 
#
# 1 49.8060 22.0631 35.3228 0.0000 0.0000 0.0000
# 2 22.0631 53.2871 32.6069 0.0000 0.0000 0.0000
# 3 35.3228 32.6069 104.8214 0.0000 0.0000 0.0000
# 4 0.0000 0.0000 0.0000 27.3828 0.0000 0.0000
# 5 0.0000 0.0000 0.0000 0.0000 13.8240 0.0000
# 6 0.0000 0.0000 0.0000 0.0000 0.0000 20.3184
#
#
#
# Elastic Compliance Matrix: (Units=1/GPa)
#
#
# Indices 1 2 3 4 5 6 
#
# 1 0.028523 -0.007322 -0.007334 0.000000 0.000000 0.000000
# 2 -0.007322 0.025058 -0.005327 0.000000 0.000000 0.000000
# 3 -0.007334 -0.005327 0.013669 0.000000 0.000000 0.000000
# 4 0.000000 0.000000 0.000000 0.036519 0.000000 0.000000
# 5 0.000000 0.000000 0.000000 0.000000 0.072338 0.000000
# 6 0.000000 0.000000 0.000000 0.000000 0.000000 0.049216
#
#
# Mechanical properties :
#
#
# Convention : Reuss Voigt Hill
#
# Bulk Modulus (GPa) = 36.65346 43.10001 39.87673
# Shear Modulus (GPa) = 18.22267 20.16649 19.19458
#
# Velocity S-wave (km/s) = 3.20077 3.36716 3.28502
# Velocity P-wave (km/s) = 5.85378 6.27281 6.06692
#
# Compressibility (1/GPa) = 0.02728255
#
# Stress axis : x y z
#
# Youngs Moduli (GPa) = 35.05992 39.90785 73.16021
#
# Poissons Ratio (x) = 0.29220 0.53655
# Poissons Ratio (y) = 0.25670 0.38975
# Poissons Ratio (z) = 0.25713 0.21261
#
# Static dielectric constant tensor:
#      x y z
#    x 3.179970 0.000000 0.000000 
#    y 0.000000 3.215750 0.000000 
#    z 0.000000 0.000000 3.327780 
# 
# 
# High freq. dielectric constant tensor:
#      x y z
#    x 1.665660 0.000000 0.000000 
#    y 0.000000 1.686450 0.000000 
#    z 0.000000 0.000000 1.691230 
# 
# From -- ./inp_files/8772.got.cif
#   From: 2010.06.25/outbox.cif.g09.slc.cpg/sg71_5_cif.got.tgz:8772.got - 2010.06.28 04:59:45.
