data_PCOD8288371
_publ_section_title
;
Structure prediction by ZEFSAII (Michael W. Deem and Ramdas Pophale) SiO2 
 PCOD8288371
Probable space group: I M M M
;
_chemical_formula_sum "Si O2"
_cell_formula_units_Z 104
_cell_length_a 23.824056
_cell_length_b 10.181095
_cell_length_c 25.751697
_cell_angle_alpha 90.000000
_cell_angle_beta 90.000000
_cell_angle_gamma 90.000000
_cell_volume 6246.202284
_symmetry_space_group_name_H-M "I M M M"
_symmetry_group_IT_number 71
_symmetry_cell_setting 'orthorhombic'
loop_
_space_group_symop_operation_xyz
x,y,z
-x,-y,z
x,-y,-z
-x,y,-z
-x,-y,-z
x,y,-z
-x,y,z
x,-y,z
1/2+x,1/2+y,1/2+z
1/2-x,1/2-y,1/2+z
1/2+x,1/2-y,1/2-z
1/2-x,1/2+y,1/2-z
1/2-x,1/2-y,1/2-z
1/2+x,1/2+y,1/2-z
1/2-x,1/2+y,1/2+z
1/2+x,1/2-y,1/2+z
loop_
_atom_site_type_symbol
_atom_site_label
_atom_site_fract_x
_atom_site_fract_y
_atom_site_fract_z
Si Si1 0.867955 0.343994 0.403507
Si Si2 0.249307 0.845615 0.940927
Si Si3 0.064233 0.850184 0.210765
Si Si4 0.561021 0.141057 0.439623
Si Si5 0.564534 0.151934 0.803543
Si Si6 0.062377 0.656812 0.500000
Si Si7 0.865626 0.849410 0.109622
O O1 0.868015 0.500000 0.404940
O O2 0.805313 0.287880 0.413599
O O3 0.893849 0.298188 0.348764
O O4 0.906738 0.287953 0.449266
O O5 0.199419 0.812508 0.900296
O O6 0.256209 0.000000 0.947018
O O7 0.240459 0.788345 0.000000
O O8 0.077337 0.746281 0.255458
O O9 0.111109 0.819776 0.167100
O O10 0.000000 0.831473 0.190194
O O11 0.071741 0.000000 0.230905
O O12 0.553397 0.127380 0.500000
O O13 0.500000 0.169265 0.414155
O O14 0.601595 0.260797 0.430377
O O15 0.583814 0.000000 0.417712
O O16 0.500000 0.166701 0.822159
O O17 0.576462 0.000000 0.788099
O O18 0.062120 0.500000 0.500000
O O19 0.000000 0.714284 0.500000
O O20 0.876996 0.000000 0.094717
#
# Coordination Sequence:
#
# PCOD8288371 Si02
#       7
#    16  16  16  16  16   8  16
#     4   9  15  25  41  65  97 126 150 183 230 280
#     4   9  16  27  43  65  94 126 155 186 232 282
#     4   9  18  32  47  64  89 120 153 193 241 282
#     4   9  18  31  45  64  92 122 150 187 241 296
#     4   9  17  29  47  71  95 119 151 191 233 279
#     4   9  14  20  36  64  97 127 150 179 226 282
#     4  10  19  30  47  69  90 118 162 204 230 266
#
# _framework density 16.650116000000001
#
# number of rings (size 3 to 8) (size 9 to 14) (size 15 to 20)
#    0.000    2.846    0.769    1.846    0.000    4.308 
#    0.000    3.077    0.000    0.923    0.000    0.538 
#    0.000    3.077    0.000    0.000    0.000    0.000 
#
# Total GULP energy -644247.457474 kJ/mol
# GULP energy per Si atom -12389.374182 kJ/mol
# Density = 1.661222 g / cm^3
# Si number density = 16.650116 Si / 1000 Ang^3
#
#
#
# Elastic Constant Matrix: (Units=GPa)
#
#
# Indices 1 2 3 4 5 6 
#
# 1 141.8415 42.6962 74.8260 0.0000 0.0000 0.0000
# 2 42.6962 50.6546 40.0110 0.0000 0.0000 0.0000
# 3 74.8260 40.0110 104.0933 0.0000 0.0000 0.0000
# 4 0.0000 0.0000 0.0000 19.3917 0.0000 0.0000
# 5 0.0000 0.0000 0.0000 0.0000 45.3047 0.0000
# 6 0.0000 0.0000 0.0000 0.0000 0.0000 4.9985
#
#
#
# Elastic Compliance Matrix: (Units=1/GPa)
#
#
# Indices 1 2 3 4 5 6 
#
# 1 0.012114 -0.004785 -0.006869 0.000000 0.000000 0.000000
# 2 -0.004785 0.030239 -0.008183 0.000000 0.000000 0.000000
# 3 -0.006869 -0.008183 0.017690 0.000000 0.000000 0.000000
# 4 0.000000 0.000000 0.000000 0.051568 0.000000 0.000000
# 5 0.000000 0.000000 0.000000 0.000000 0.022073 0.000000
# 6 0.000000 0.000000 0.000000 0.000000 0.000000 0.200060
#
#
# Mechanical properties :
#
#
# Convention : Reuss Voigt Hill
#
# Bulk Modulus (GPa) = 49.09642 67.96174 58.52908
# Shear Modulus (GPa) = 13.15074 23.20940 18.18007
#
# Velocity S-wave (km/s) = 2.81344 3.73761 3.30796
# Velocity P-wave (km/s) = 6.33286 7.71573 7.05824
#
# Compressibility (1/GPa) = 0.02036808
#
# Stress axis : x y z
#
# Youngs Moduli (GPa) = 82.54917 33.07002 56.53050
#
# Poissons Ratio (x) = 0.15825 0.38828
# Poissons Ratio (y) = 0.39503 0.46260
# Poissons Ratio (z) = 0.56699 0.27062
#
# Static dielectric constant tensor:
#      x y z
#    x 3.368000 0.000000 0.000000 
#    y 0.000000 2.902220 0.000000 
#    z 0.000000 0.000000 3.042420 
# 
# 
# High freq. dielectric constant tensor:
#      x y z
#    x 1.642940 0.000000 0.000000 
#    y 0.000000 1.603440 0.000000 
#    z 0.000000 0.000000 1.632010 
# 
# From -- ./inp_files/66793.got.cif
#   From: 2010.06.25/outbox.cif.g09.slc.cpg/sg71_34_cif.got.tgz:66793.got - 2010.06.28 04:59:45.
