data_PCOD8288223
_publ_section_title
;
Structure prediction by ZEFSAII (Michael W. Deem and Ramdas Pophale) SiO2 
 PCOD8288223
Probable space group: I M M M
;
_chemical_formula_sum "Si O2"
_cell_formula_units_Z 112
_cell_length_a 28.201601
_cell_length_b 12.236802
_cell_length_c 18.495256
_cell_angle_alpha 90.000000
_cell_angle_beta 90.000000
_cell_angle_gamma 90.000000
_cell_volume 6382.664897
_symmetry_space_group_name_H-M "I M M M"
_symmetry_group_IT_number 71
_symmetry_cell_setting 'orthorhombic'
loop_
_space_group_symop_operation_xyz
x,y,z
-x,-y,z
x,-y,-z
-x,y,-z
-x,-y,-z
x,y,-z
-x,y,z
x,-y,z
1/2+x,1/2+y,1/2+z
1/2-x,1/2-y,1/2+z
1/2+x,1/2-y,1/2-z
1/2-x,1/2+y,1/2-z
1/2-x,1/2-y,1/2-z
1/2+x,1/2+y,1/2-z
1/2-x,1/2+y,1/2+z
1/2+x,1/2-y,1/2+z
loop_
_atom_site_type_symbol
_atom_site_label
_atom_site_fract_x
_atom_site_fract_y
_atom_site_fract_z
Si Si1 0.448147 0.371321 0.690506
Si Si2 0.726505 0.380236 0.081658
Si Si3 0.308493 0.125159 0.792793
Si Si4 0.362529 0.765089 0.082112
Si Si5 0.372096 0.628932 0.419385
Si Si6 0.944342 0.126672 0.645153
Si Si7 0.788960 0.222424 0.168577
O O1 0.500000 0.319036 0.677613
O O2 0.451209 0.500000 0.678929
O O3 0.412665 0.318962 0.631803
O O4 0.430894 0.348127 0.771785
O O5 0.722396 0.500000 0.114270
O O6 0.674371 0.332555 0.088480
O O7 0.765884 0.322596 0.127938
O O8 0.744718 0.378764 0.000000
O O9 0.343831 0.143029 0.861520
O O10 0.252287 0.137940 0.808907
O O11 0.319078 0.220903 0.733713
O O12 0.317077 0.000000 0.766424
O O13 0.414049 0.712989 0.098588
O O14 0.363516 0.813541 0.000000
O O15 0.376318 0.678996 0.500000
O O16 0.377630 0.500000 0.423059
O O17 0.321713 0.655770 0.385351
O O18 0.000000 0.148499 0.630843
O O19 0.932542 0.000000 0.625637
#
# Coordination Sequence:
#
# PCOD8288223 Si02
#       7
#    16  16  16  16  16  16  16
#     4   8  15  28  44  64  93 128 161 188 220 270
#     4   9  17  29  45  66  95 128 156 186 230 283
#     4  10  21  35  51  69  90 124 166 205 247 292
#     4  10  20  32  47  69  96 127 162 199 243 298
#     4  10  19  29  45  71 102 133 159 187 228 278
#     4   9  17  30  50  75 102 131 162 201 249 295
#     4  10  19  32  49  70  95 121 159 205 240 278
#
# _framework density 17.547529999999998
#
# number of rings (size 3 to 8) (size 9 to 14) (size 15 to 20)
#    0.000    2.571    0.000    3.429    0.000    2.286 
#    0.000    6.429    0.000    0.429    0.000    1.000 
#    0.000    1.714    0.000   11.571    0.000    0.857 
#
# Total GULP energy -693943.412093 kJ/mol
# GULP energy per Si atom -12391.846645 kJ/mol
# Density = 1.750759 g / cm^3
# Si number density = 17.547530 Si / 1000 Ang^3
#
#
#
# Elastic Constant Matrix: (Units=GPa)
#
#
# Indices 1 2 3 4 5 6 
#
# 1 65.2994 9.2401 32.9453 0.0000 0.0000 0.0000
# 2 9.2401 36.2863 10.8118 0.0000 0.0000 0.0000
# 3 32.9453 10.8118 82.8720 0.0000 0.0000 0.0000
# 4 0.0000 0.0000 0.0000 20.9373 0.0000 0.0000
# 5 0.0000 0.0000 0.0000 0.0000 20.4979 0.0000
# 6 0.0000 0.0000 0.0000 0.0000 0.0000 15.7365
#
#
#
# Elastic Compliance Matrix: (Units=1/GPa)
#
#
# Indices 1 2 3 4 5 6 
#
# 1 0.019417 -0.002751 -0.007360 0.000000 0.000000 0.000000
# 2 -0.002751 0.029063 -0.002698 0.000000 0.000000 0.000000
# 3 -0.007360 -0.002698 0.015345 0.000000 0.000000 0.000000
# 4 0.000000 0.000000 0.000000 0.047762 0.000000 0.000000
# 5 0.000000 0.000000 0.000000 0.000000 0.048785 0.000000
# 6 0.000000 0.000000 0.000000 0.000000 0.000000 0.063547
#
#
# Mechanical properties :
#
#
# Convention : Reuss Voigt Hill
#
# Bulk Modulus (GPa) = 26.17395 32.27244 29.22319
# Shear Modulus (GPa) = 19.06416 20.19837 19.63127
#
# Velocity S-wave (km/s) = 3.29968 3.39642 3.34840
# Velocity P-wave (km/s) = 5.42822 5.81483 5.62485
#
# Compressibility (1/GPa) = 0.03820593
#
# Stress axis : x y z
#
# Youngs Moduli (GPa) = 51.50196 34.40791 65.16897
#
# Poissons Ratio (x) = 0.09467 0.47965
# Poissons Ratio (y) = 0.14170 0.17582
# Poissons Ratio (z) = 0.37906 0.09283
#
# Static dielectric constant tensor:
#      x y z
#    x 3.439060 0.000000 0.000000 
#    y 0.000000 2.933440 0.000000 
#    z 0.000000 0.000000 3.588180 
# 
# 
# High freq. dielectric constant tensor:
#      x y z
#    x 1.670700 0.000000 0.000000 
#    y 0.000000 1.637520 0.000000 
#    z 0.000000 0.000000 1.689880 
# 
# From -- ./inp_files/55789.got.cif
#   From: 2010.06.25/outbox.cif.g09.slc.cpg/sg71_28_cif.got.tgz:55789.got - 2010.06.28 04:59:45.
