data_PCOD8288985
_publ_section_title
;
Structure prediction by ZEFSAII (Michael W. Deem and Ramdas Pophale) SiO2 
 PCOD8288985
Probable space group: I M M M
;
_chemical_formula_sum "Si O2"
_cell_formula_units_Z 112
_cell_length_a 29.000553
_cell_length_b 12.518870
_cell_length_c 17.334211
_cell_angle_alpha 90.000000
_cell_angle_beta 90.000000
_cell_angle_gamma 90.000000
_cell_volume 6293.257291
_symmetry_space_group_name_H-M "I M M M"
_symmetry_group_IT_number 71
_symmetry_cell_setting 'orthorhombic'
loop_
_space_group_symop_operation_xyz
x,y,z
-x,-y,z
x,-y,-z
-x,y,-z
-x,-y,-z
x,y,-z
-x,y,z
x,-y,z
1/2+x,1/2+y,1/2+z
1/2-x,1/2-y,1/2+z
1/2+x,1/2-y,1/2-z
1/2-x,1/2+y,1/2-z
1/2-x,1/2-y,1/2-z
1/2+x,1/2+y,1/2-z
1/2-x,1/2+y,1/2+z
1/2+x,1/2-y,1/2+z
loop_
_atom_site_type_symbol
_atom_site_label
_atom_site_fract_x
_atom_site_fract_y
_atom_site_fract_z
Si Si1 0.448690 0.121270 0.373648
Si Si2 0.138193 0.743319 0.914025
Si Si3 0.804774 0.253743 0.677147
Si Si4 0.552899 0.787372 0.211985
Si Si5 0.876336 0.124426 0.769956
Si Si6 0.716782 0.874400 0.671635
Si Si7 0.878979 0.623875 0.411362
O O1 0.500000 0.162052 0.395400
O O2 0.412387 0.192009 0.419618
O O3 0.441700 0.128045 0.281251
O O4 0.441992 0.000000 0.399403
O O5 0.136174 0.845742 0.858258
O O6 0.172938 0.654361 0.880703
O O7 0.153198 0.779100 0.000000
O O8 0.834263 0.160494 0.716647
O O9 0.759868 0.196426 0.641514
O O10 0.792205 0.345318 0.739130
O O11 0.832851 0.310660 0.609109
O O12 0.500000 0.763567 0.190729
O O13 0.576555 0.678114 0.240459
O O14 0.577565 0.835855 0.137488
O O15 0.883655 0.000000 0.763383
O O16 0.727041 0.000000 0.664248
O O17 0.891247 0.644851 0.500000
O O18 0.869713 0.500000 0.394557
#
# Coordination Sequence:
#
# PCOD8288985 Si02
#       7
#    16  16  16  16  16  16  16
#     4   9  17  30  49  70  94 129 166 198 240 292
#     4  10  21  33  46  72 105 129 158 205 254 302
#     4   9  19  34  52  74 100 127 168 218 251 290
#     4   9  18  32  51  76 102 126 163 213 248 282
#     4   9  18  34  55  73  92 127 169 205 248 298
#     4  10  19  32  53  75  96 130 172 213 258 301
#     4  10  20  33  51  76 107 140 166 194 244 305
#
# _framework density 17.796824999999998
#
# number of rings (size 3 to 8) (size 9 to 14) (size 15 to 20)
#    0.000    2.571    0.000    2.571    0.000    3.714 
#    0.000    2.143    0.000   10.286    0.000    8.000 
#    0.000    0.000    0.000    0.000    0.000    0.000 
#
# Total GULP energy -694389.501109 kJ/mol
# GULP energy per Si atom -12399.812520 kJ/mol
# Density = 1.775632 g / cm^3
# Si number density = 17.796825 Si / 1000 Ang^3
#
#
#
# Elastic Constant Matrix: (Units=GPa)
#
#
# Indices 1 2 3 4 5 6 
#
# 1 101.3793 32.5768 25.5191 0.0000 0.0000 0.0000
# 2 32.5768 101.5997 37.2873 0.0000 0.0000 0.0000
# 3 25.5191 37.2873 88.4006 0.0000 0.0000 0.0000
# 4 0.0000 0.0000 0.0000 13.3858 0.0000 0.0000
# 5 0.0000 0.0000 0.0000 0.0000 17.0871 0.0000
# 6 0.0000 0.0000 0.0000 0.0000 0.0000 19.0849
#
#
#
# Elastic Compliance Matrix: (Units=1/GPa)
#
#
# Indices 1 2 3 4 5 6 
#
# 1 0.011303 -0.002871 -0.002052 0.000000 0.000000 0.000000
# 2 -0.002871 0.012375 -0.004391 0.000000 0.000000 0.000000
# 3 -0.002052 -0.004391 0.013756 0.000000 0.000000 0.000000
# 4 0.000000 0.000000 0.000000 0.074706 0.000000 0.000000
# 5 0.000000 0.000000 0.000000 0.000000 0.058524 0.000000
# 6 0.000000 0.000000 0.000000 0.000000 0.000000 0.052398
#
#
# Mechanical properties :
#
#
# Convention : Reuss Voigt Hill
#
# Bulk Modulus (GPa) = 53.17294 53.57177 53.37236
# Shear Modulus (GPa) = 20.16473 22.97797 21.57135
#
# Velocity S-wave (km/s) = 3.36974 3.59712 3.48528
# Velocity P-wave (km/s) = 6.71437 6.88619 6.80082
#
# Compressibility (1/GPa) = 0.01880656
#
# Stress axis : x y z
#
# Youngs Moduli (GPa) = 88.47170 80.81089 72.69298
#
# Poissons Ratio (x) = 0.23202 0.14916
# Poissons Ratio (y) = 0.25402 0.31918
# Poissons Ratio (z) = 0.18153 0.35482
#
# Static dielectric constant tensor:
#      x y z
#    x 3.487430 0.000000 0.000000 
#    y 0.000000 3.057950 0.000000 
#    z 0.000000 0.000000 3.134750 
# 
# 
# High freq. dielectric constant tensor:
#      x y z
#    x 1.700830 0.000000 0.000000 
#    y 0.000000 1.673370 0.000000 
#    z 0.000000 0.000000 1.675790 
# 
# From -- ./inp_files/22703.got.cif
#   From: 2010.06.25/outbox.cif.g09.slc.cpg/sg71_12_cif.got.tgz:22703.got - 2010.06.28 04:59:45.
