data_PCOD8288133
_publ_section_title
;
Structure prediction by ZEFSAII (Michael W. Deem and Ramdas Pophale) SiO2 
 PCOD8288133
Probable space group: I M M M
;
_chemical_formula_sum "Si O2"
_cell_formula_units_Z 80
_cell_length_a 23.143174
_cell_length_b 22.949512
_cell_length_c 9.365133
_cell_angle_alpha 90.000000
_cell_angle_beta 90.000000
_cell_angle_gamma 90.000000
_cell_volume 4974.052045
_symmetry_space_group_name_H-M "I M M M"
_symmetry_group_IT_number 71
_symmetry_cell_setting 'orthorhombic'
loop_
_space_group_symop_operation_xyz
x,y,z
-x,-y,z
x,-y,-z
-x,y,-z
-x,-y,-z
x,y,-z
-x,y,z
x,-y,z
1/2+x,1/2+y,1/2+z
1/2-x,1/2-y,1/2+z
1/2+x,1/2-y,1/2-z
1/2-x,1/2+y,1/2-z
1/2-x,1/2-y,1/2-z
1/2+x,1/2+y,1/2-z
1/2-x,1/2+y,1/2+z
1/2+x,1/2-y,1/2+z
loop_
_atom_site_type_symbol
_atom_site_label
_atom_site_fract_x
_atom_site_fract_y
_atom_site_fract_z
Si Si1 0.067400 0.338071 0.166114
Si Si2 0.367215 0.500000 0.671180
Si Si3 0.868698 0.435151 0.338502
Si Si4 0.431417 0.729255 0.842215
Si Si5 0.761211 0.500000 0.666455
Si Si6 0.567569 0.400989 0.834240
O O1 0.100968 0.392875 0.228200
O O2 0.091743 0.278117 0.233547
O O3 0.000000 0.346222 0.200765
O O4 0.079961 0.334795 0.000000
O O5 0.370152 0.500000 0.500000
O O6 0.301953 0.500000 0.737094
O O7 0.397890 0.557285 0.729673
O O8 0.875628 0.410842 0.500000
O O9 0.897270 0.500000 0.329482
O O10 0.800258 0.442480 0.296884
O O11 0.500000 0.729229 0.845470
O O12 0.411361 0.664580 0.796626
O O13 0.407530 0.744179 0.000000
O O14 0.749712 0.500000 0.500000
O O15 0.500000 0.409077 0.802838
O O16 0.580385 0.415491 0.000000
#
# Coordination Sequence:
#
# PCOD8288133 Si02
#       6
#    16   8  16  16   8  16
#     4  10  19  28  42  69 101 124 143 180 234 278
#     4  11  20  30  49  73  95 118 148 189 234 279
#     4   8  16  32  50  64  83 119 161 194 222 261
#     4   8  15  29  47  64  87 124 161 184 209 259
#     4   7  16  34  49  64  86 117 156 195 232 263
#     4   9  18  32  48  69  98 126 152 184 220 262
#
# _framework density 16.083466999999999
#
# number of rings (size 3 to 8) (size 9 to 14) (size 15 to 20)
#    0.600    2.600    0.000    2.400    0.000    4.400 
#    0.000    6.000    0.000    1.200    0.000    0.000 
#    0.000    0.000    0.000    0.000    0.000    0.000 
#
# Total GULP energy -495543.530850 kJ/mol
# GULP energy per Si atom -12388.588271 kJ/mol
# Density = 1.604686 g / cm^3
# Si number density = 16.083467 Si / 1000 Ang^3
#
#
#
# Elastic Constant Matrix: (Units=GPa)
#
#
# Indices 1 2 3 4 5 6 
#
# 1 65.5695 51.6615 51.4093 0.0000 0.0000 0.0000
# 2 51.6615 120.6455 68.6377 0.0000 0.0000 0.0000
# 3 51.4093 68.6377 89.9798 0.0000 0.0000 0.0000
# 4 0.0000 0.0000 0.0000 27.6998 0.0000 0.0000
# 5 0.0000 0.0000 0.0000 0.0000 15.9128 0.0000
# 6 0.0000 0.0000 0.0000 0.0000 0.0000 -5.1822
#
#
#
# Elastic Compliance Matrix: (Units=1/GPa)
#
#
# Indices 1 2 3 4 5 6 
#
# 1 0.029473 -0.005372 -0.012742 0.000000 0.000000 0.000000
# 2 -0.005372 0.015623 -0.008848 0.000000 0.000000 0.000000
# 3 -0.012742 -0.008848 0.025143 0.000000 0.000000 0.000000
# 4 0.000000 0.000000 0.000000 0.036101 0.000000 0.000000
# 5 0.000000 0.000000 0.000000 0.000000 0.062842 0.000000
# 6 0.000000 0.000000 0.000000 0.000000 0.000000 -0.192969
#
#
# Mechanical properties :
#
#
# Convention : Reuss Voigt Hill
#
# Bulk Modulus (GPa) = 61.29002 68.84576 65.06789
# Shear Modulus (GPa) = 140.54119 14.65185 77.59652
#
# Velocity S-wave (km/s) = 9.35800 3.02153 6.95348
# Velocity P-wave (km/s) = 12.44801 7.42099 10.24754
#
# Compressibility (1/GPa) = 0.01631587
#
# Stress axis : x y z
#
# Youngs Moduli (GPa) = 33.92891 64.00845 39.77231
#
# Poissons Ratio (x) = 0.34383 0.50677
# Poissons Ratio (y) = 0.18226 0.35192
# Poissons Ratio (z) = 0.43232 0.56637
#
# Static dielectric constant tensor:
#      x y z
#    x 2.942430 0.000000 0.000000 
#    y 0.000000 3.150290 0.000000 
#    z 0.000000 0.000000 2.977770 
# 
# 
# High freq. dielectric constant tensor:
#      x y z
#    x 1.581850 0.000000 0.000000 
#    y 0.000000 1.621200 0.000000 
#    z 0.000000 0.000000 1.614260 
# 
# From -- ./inp_files/14762.got.cif
#   From: 2010.06.25/outbox.cif.g09.slc.cpg/sg71_8_cif.got.tgz:14762.got - 2010.06.28 04:59:45.
