data_PCOD8288610
_publ_section_title
;
Structure prediction by ZEFSAII (Michael W. Deem and Ramdas Pophale) SiO2 
 PCOD8288610
Probable space group: I M M M
;
_chemical_formula_sum "Si O2"
_cell_formula_units_Z 80
_cell_length_a 10.142422
_cell_length_b 22.401836
_cell_length_c 19.534953
_cell_angle_alpha 90.000000
_cell_angle_beta 90.000000
_cell_angle_gamma 90.000000
_cell_volume 4438.514680
_symmetry_space_group_name_H-M "I M M M"
_symmetry_group_IT_number 71
_symmetry_cell_setting 'orthorhombic'
loop_
_space_group_symop_operation_xyz
x,y,z
-x,-y,z
x,-y,-z
-x,y,-z
-x,-y,-z
x,y,-z
-x,y,z
x,-y,z
1/2+x,1/2+y,1/2+z
1/2-x,1/2-y,1/2+z
1/2+x,1/2-y,1/2-z
1/2-x,1/2+y,1/2-z
1/2-x,1/2-y,1/2-z
1/2+x,1/2+y,1/2-z
1/2-x,1/2+y,1/2+z
1/2+x,1/2-y,1/2+z
loop_
_atom_site_type_symbol
_atom_site_label
_atom_site_fract_x
_atom_site_fract_y
_atom_site_fract_z
Si Si1 0.849082 0.256225 0.421597
Si Si2 0.858361 0.069531 0.074554
Si Si3 0.847696 0.648675 0.077977
Si Si4 0.154426 0.566509 0.198928
Si Si5 0.347921 0.128069 0.835955
O O1 0.830173 0.279730 0.500000
O O2 0.747161 0.203850 0.405896
O O3 0.815359 0.306069 0.364392
O O4 0.000000 0.234066 0.411948
O O5 0.736918 0.081191 0.122919
O O6 0.000000 0.094130 0.103045
O O7 0.870143 0.000000 0.065755
O O8 0.832441 0.098795 0.000000
O O9 0.802290 0.593989 0.126089
O O10 0.000000 0.667359 0.092611
O O11 0.830506 0.627032 0.000000
O O12 0.219345 0.500000 0.208851
O O13 0.192366 0.615644 0.257005
O O14 0.000000 0.557026 0.200170
O O15 0.500000 0.112952 0.849157
#
# Coordination Sequence:
#
# PCOD8288610 Si02
#       5
#    16  16  16  16  16
#     4   9  18  32  49  71 100 130 160 199 245 289
#     4   9  18  31  45  64  94 131 168 206 246 284
#     4   9  18  33  53  75  97 125 164 205 247 300
#     4   9  18  32  50  74 102 128 159 206 255 291
#     4  10  19  31  49  72  98 130 166 200 239 291
#
# _framework density 18.024046999999999
#
# number of rings (size 3 to 8) (size 9 to 14) (size 15 to 20)
#    0.000    2.800    0.000    1.800    0.000    4.400 
#    0.000    6.000    0.000    1.800    0.000    2.800 
#    0.000    0.000    0.000    0.000    0.000    0.000 
#
# Total GULP energy -495537.889233 kJ/mol
# GULP energy per Si atom -12388.447231 kJ/mol
# Density = 1.798302 g / cm^3
# Si number density = 18.024047 Si / 1000 Ang^3
#
#
#
# Elastic Constant Matrix: (Units=GPa)
#
#
# Indices 1 2 3 4 5 6 
#
# 1 58.8325 37.4943 41.0092 0.0000 0.0000 0.0000
# 2 37.4943 99.7255 71.5725 0.0000 0.0000 0.0000
# 3 41.0092 71.5725 123.1142 0.0001 0.0000 0.0000
# 4 0.0000 0.0000 0.0001 41.4018 0.0000 0.0000
# 5 0.0000 0.0000 0.0000 0.0000 2.5616 0.0000
# 6 0.0000 0.0000 0.0000 0.0000 0.0000 25.8812
#
#
#
# Elastic Compliance Matrix: (Units=1/GPa)
#
#
# Indices 1 2 3 4 5 6 
#
# 1 0.023830 -0.005598 -0.004683 0.000000 0.000000 0.000000
# 2 -0.005598 0.018522 -0.008903 0.000000 0.000000 0.000000
# 3 -0.004683 -0.008903 0.014858 0.000000 0.000000 0.000000
# 4 0.000000 0.000000 0.000000 0.024154 0.000000 0.000000
# 5 0.000000 0.000000 0.000000 0.000000 0.390387 0.000000
# 6 0.000000 0.000000 0.000000 0.000000 0.000000 0.038638
#
#
# Mechanical properties :
#
#
# Convention : Reuss Voigt Hill
#
# Bulk Modulus (GPa) = 53.07542 64.64714 58.86128
# Shear Modulus (GPa) = 9.00840 22.74200 15.87520
#
# Velocity S-wave (km/s) = 2.23804 3.55598 2.97101
# Velocity P-wave (km/s) = 6.01576 7.26670 6.67062
#
# Compressibility (1/GPa) = 0.01884111
#
# Stress axis : x y z
#
# Youngs Moduli (GPa) = 41.96468 53.98995 67.30300
#
# Poissons Ratio (x) = 0.30225 0.31518
# Poissons Ratio (y) = 0.23493 0.59920
# Poissons Ratio (z) = 0.19652 0.48067
#
# Static dielectric constant tensor:
#      x y z
#    x 3.360910 0.000000 0.000000 
#    y 0.000000 3.201460 0.000000 
#    z 0.000000 0.000000 3.541540 
# 
# 
# High freq. dielectric constant tensor:
#      x y z
#    x 1.685280 0.000000 0.000000 
#    y 0.000000 1.679240 0.000000 
#    z 0.000000 0.000000 1.699580 
# 
# From -- ./inp_files/27102.got.cif
#   From: 2010.06.25/outbox.cif.g09.slc.cpg/sg71_14_cif.got.tgz:27102.got - 2010.06.28 04:59:45.
