data_PCOD8288495
_publ_section_title
;
Structure prediction by ZEFSAII (Michael W. Deem and Ramdas Pophale) SiO2 
 PCOD8288495
Probable space group: I M M M
;
_chemical_formula_sum "Si O2"
_cell_formula_units_Z 96
_cell_length_a 28.964071
_cell_length_b 9.163006
_cell_length_c 26.470916
_cell_angle_alpha 90.000000
_cell_angle_beta 90.000000
_cell_angle_gamma 90.000000
_cell_volume 7025.327009
_symmetry_space_group_name_H-M "I M M M"
_symmetry_group_IT_number 71
_symmetry_cell_setting 'orthorhombic'
loop_
_space_group_symop_operation_xyz
x,y,z
-x,-y,z
x,-y,-z
-x,y,-z
-x,-y,-z
x,y,-z
-x,y,z
x,-y,z
1/2+x,1/2+y,1/2+z
1/2-x,1/2-y,1/2+z
1/2+x,1/2-y,1/2-z
1/2-x,1/2+y,1/2-z
1/2-x,1/2-y,1/2-z
1/2+x,1/2+y,1/2-z
1/2-x,1/2+y,1/2+z
1/2+x,1/2-y,1/2+z
loop_
_atom_site_type_symbol
_atom_site_label
_atom_site_fract_x
_atom_site_fract_y
_atom_site_fract_z
Si Si1 0.277654 0.828574 0.205847
Si Si2 0.051214 0.167601 0.208747
Si Si3 0.633855 0.328255 0.443475
Si Si4 0.854960 0.830558 0.250677
Si Si5 0.307589 0.329805 0.648210
Si Si6 0.947339 0.669476 0.894608
O O1 0.250000 0.750000 0.250000
O O2 0.329221 0.759298 0.204376
O O3 0.247556 0.797626 0.154826
O O4 0.281077 0.000000 0.216651
O O5 0.089815 0.199282 0.251806
O O6 0.061201 0.268332 0.161099
O O7 0.000000 0.197880 0.231303
O O8 0.055910 0.000000 0.190584
O O9 0.651177 0.291676 0.500000
O O10 0.626185 0.500000 0.436566
O O11 0.672037 0.264069 0.403947
O O12 0.584973 0.250464 0.434614
O O13 0.836074 0.771756 0.196677
O O14 0.843176 0.000000 0.258784
O O15 0.316421 0.500000 0.645804
O O16 0.934742 0.500000 0.893538
O O17 0.000000 0.695858 0.911675
#
# Coordination Sequence:
#
# PCOD8288495 Si02
#       6
#    16  16  16  16  16  16
#     4   9  16  25  38  55  75  95 117 144 180 221
#     4   9  16  27  43  58  74  99 127 154 185 221
#     4  10  19  31  46  58  68  90 125 159 193 231
#     4   9  15  25  40  57  77  94 116 150 182 216
#     4   8  14  26  39  54  73  90 112 151 187 212
#     4  10  20  31  41  54  73  95 120 156 199 234
#
# _framework density 13.664844
#
# number of rings (size 3 to 8) (size 9 to 14) (size 15 to 20)
#    0.000    2.833    1.667    2.000    0.000    2.333 
#    0.000    2.500    0.000    0.000    0.000    0.000 
#    0.000    0.000    0.000    0.000    0.000    0.833 
#
# Total GULP energy -594676.148177 kJ/mol
# GULP energy per Si atom -12389.086420 kJ/mol
# Density = 1.363374 g / cm^3
# Si number density = 13.664844 Si / 1000 Ang^3
#
#
#
# Elastic Constant Matrix: (Units=GPa)
#
#
# Indices 1 2 3 4 5 6 
#
# 1 105.1531 36.5700 49.1585 0.0000 0.0000 0.0000
# 2 36.5700 50.2951 24.1220 0.0000 0.0000 0.0000
# 3 49.1585 24.1220 45.7935 0.0000 0.0000 0.0000
# 4 0.0000 0.0000 0.0000 10.5648 0.0000 0.0000
# 5 0.0000 0.0000 0.0000 0.0000 20.0215 0.0000
# 6 0.0000 0.0000 0.0000 0.0000 0.0000 21.0355
#
#
#
# Elastic Compliance Matrix: (Units=1/GPa)
#
#
# Indices 1 2 3 4 5 6 
#
# 1 0.020263 -0.005755 -0.018721 0.000000 0.000000 0.000000
# 2 -0.005755 0.028238 -0.008697 0.000000 0.000000 0.000000
# 3 -0.018721 -0.008697 0.046515 0.000000 0.000000 0.000000
# 4 0.000000 0.000000 0.000000 0.094654 0.000000 0.000000
# 5 0.000000 0.000000 0.000000 0.000000 0.049946 0.000000
# 6 0.000000 0.000000 0.000000 0.000000 0.000000 0.047539
#
#
# Mechanical properties :
#
#
# Convention : Reuss Voigt Hill
#
# Bulk Modulus (GPa) = 34.87840 46.77143 40.82491
# Shear Modulus (GPa) = 13.77193 16.41710 15.09451
#
# Velocity S-wave (km/s) = 3.17809 3.46990 3.32719
# Velocity P-wave (km/s) = 6.24873 7.09616 6.68588
#
# Compressibility (1/GPa) = 0.02867104
#
# Stress axis : x y z
#
# Youngs Moduli (GPa) = 49.35038 35.41300 21.49852
#
# Poissons Ratio (x) = 0.20380 0.40247
# Poissons Ratio (y) = 0.28401 0.18697
# Poissons Ratio (z) = 0.92388 0.30798
#
# Static dielectric constant tensor:
#      x y z
#    x 3.161160 0.000000 0.000000 
#    y 0.000000 2.735730 0.000000 
#    z 0.000000 0.000000 2.557630 
# 
# 
# High freq. dielectric constant tensor:
#      x y z
#    x 1.522680 0.000000 0.000000 
#    y 0.000000 1.517580 0.000000 
#    z 0.000000 0.000000 1.463650 
# 
# From -- ./inp_files/67028.got.cif
#   From: 2010.06.25/outbox.cif.g09.slc.cpg/sg71_34_cif.got.tgz:67028.got - 2010.06.28 04:59:45.
