data_PCOD8288906
_publ_section_title
;
Structure prediction by ZEFSAII (Michael W. Deem and Ramdas Pophale) SiO2 
 PCOD8288906
Probable space group: I M M M
;
_chemical_formula_sum "Si O2"
_cell_formula_units_Z 64
_cell_length_a 9.356437
_cell_length_b 13.160611
_cell_length_c 31.590234
_cell_angle_alpha 90.000000
_cell_angle_beta 90.000000
_cell_angle_gamma 90.000000
_cell_volume 3889.908565
_symmetry_space_group_name_H-M "I M M M"
_symmetry_group_IT_number 71
_symmetry_cell_setting 'orthorhombic'
loop_
_space_group_symop_operation_xyz
x,y,z
-x,-y,z
x,-y,-z
-x,y,-z
-x,-y,-z
x,y,-z
-x,y,z
x,-y,z
1/2+x,1/2+y,1/2+z
1/2-x,1/2-y,1/2+z
1/2+x,1/2-y,1/2-z
1/2-x,1/2+y,1/2-z
1/2-x,1/2-y,1/2-z
1/2+x,1/2+y,1/2-z
1/2-x,1/2+y,1/2+z
1/2+x,1/2-y,1/2+z
loop_
_atom_site_type_symbol
_atom_site_label
_atom_site_fract_x
_atom_site_fract_y
_atom_site_fract_z
Si Si1 0.839644 0.879922 0.000000
Si Si2 0.333383 0.882244 0.918057
Si Si3 0.766300 0.220564 0.835009
Si Si4 0.500000 0.218346 0.773626
Si Si5 0.500000 0.609894 0.292261
Si Si6 0.000000 0.381116 0.812803
O O1 0.755330 0.843887 0.958482
O O2 0.000000 0.833517 0.000000
O O3 0.847341 0.000000 0.000000
O O4 0.500000 0.871609 0.928608
O O5 0.291757 0.802550 0.881591
O O6 0.298293 0.000000 0.906085
O O7 0.638123 0.218958 0.802267
O O8 0.863820 0.126138 0.821998
O O9 0.858289 0.325568 0.831985
O O10 0.500000 0.321820 0.748551
O O11 0.500000 0.127855 0.738616
O O12 0.500000 0.500000 0.272574
O O13 0.000000 0.500000 0.825523
#
# Coordination Sequence:
#
# PCOD8288906 Si02
#       6
#     8  16  16   8   8   8
#     4   9  19  31  49  77 107 136 165 194 240 311
#     4  10  19  32  51  76 108 139 164 199 249 304
#     4  10  20  34  51  74 102 133 176 216 246 305
#     4  10  20  34  50  73  99 132 177 218 255 297
#     4  10  20  32  48  70 101 135 169 212 258 299
#     4  10  22  36  52  70 102 142 176 220 263 296
#
# _framework density 16.452829000000001
#
# number of rings (size 3 to 8) (size 9 to 14) (size 15 to 20)
#    0.000    2.375    1.250    4.125    3.500    6.500 
#    0.000    0.000    0.000    0.000    0.000    1.750 
#    0.000    2.000    0.000    0.000    0.000    0.000 
#
# Total GULP energy -396563.434141 kJ/mol
# GULP energy per Si atom -12392.607317 kJ/mol
# Density = 1.641538 g / cm^3
# Si number density = 16.452829 Si / 1000 Ang^3
#
#
#
# Elastic Constant Matrix: (Units=GPa)
#
#
# Indices 1 2 3 4 5 6 
#
# 1 120.8267 27.3643 45.5262 0.0000 0.0000 0.0000
# 2 27.3643 81.8379 26.2103 0.0000 0.0000 0.0000
# 3 45.5262 26.2103 109.1670 0.0000 0.0000 0.0000
# 4 0.0000 0.0000 0.0000 4.5276 0.0000 0.0000
# 5 0.0000 0.0000 0.0000 0.0000 36.4931 0.0000
# 6 0.0000 0.0000 0.0000 0.0000 0.0000 -102.2433
#
#
#
# Elastic Compliance Matrix: (Units=1/GPa)
#
#
# Indices 1 2 3 4 5 6 
#
# 1 0.010176 -0.002214 -0.003712 0.000000 0.000000 0.000000
# 2 -0.002214 0.013719 -0.002371 0.000000 0.000000 0.000000
# 3 -0.003712 -0.002371 0.011278 0.000000 0.000000 0.000000
# 4 0.000000 0.000000 0.000000 0.220867 0.000000 0.000000
# 5 0.000000 0.000000 0.000000 0.000000 0.027402 0.000000
# 6 0.000000 0.000000 0.000000 0.000000 0.000000 -0.009781
#
#
# Mechanical properties :
#
#
# Convention : Reuss Voigt Hill
#
# Bulk Modulus (GPa) = 53.82317 56.67034 55.24675
# Shear Modulus (GPa) = 16.86637 1.93753 9.40195
#
# Velocity S-wave (km/s) = 3.20525 1.08636 2.39309
# Velocity P-wave (km/s) = 6.81783 6.00770 6.42555
#
# Compressibility (1/GPa) = 0.01857936
#
# Stress axis : x y z
#
# Youngs Moduli (GPa) = 98.26584 72.89308 88.67111
#
# Poissons Ratio (x) = 0.16137 0.32918
# Poissons Ratio (y) = 0.21754 0.21020
# Poissons Ratio (z) = 0.36480 0.17280
#
# Static dielectric constant tensor:
#      x y z
#    x 3.237710 0.000000 0.000000 
#    y 0.000000 2.813110 0.000000 
#    z 0.000000 0.000000 3.155730 
# 
# 
# High freq. dielectric constant tensor:
#      x y z
#    x 1.658300 0.000000 0.000000 
#    y 0.000000 1.592360 0.000000 
#    z 0.000000 0.000000 1.631480 
# 
# From -- ./inp_files/67821.got.cif
#   From: 2010.06.25/outbox.cif.g09.slc.cpg/sg71_34_cif.got.tgz:67821.got - 2010.06.28 04:59:45.
