data_PCOD8288615
_publ_section_title
;
Structure prediction by ZEFSAII (Michael W. Deem and Ramdas Pophale) SiO2 
 PCOD8288615
Probable space group: I M M M
;
_chemical_formula_sum "Si O2"
_cell_formula_units_Z 96
_cell_length_a 20.668607
_cell_length_b 19.631211
_cell_length_c 14.196485
_cell_angle_alpha 90.000000
_cell_angle_beta 90.000000
_cell_angle_gamma 90.000000
_cell_volume 5760.220738
_symmetry_space_group_name_H-M "I M M M"
_symmetry_group_IT_number 71
_symmetry_cell_setting 'orthorhombic'
loop_
_space_group_symop_operation_xyz
x,y,z
-x,-y,z
x,-y,-z
-x,y,-z
-x,-y,-z
x,y,-z
-x,y,z
x,-y,z
1/2+x,1/2+y,1/2+z
1/2-x,1/2-y,1/2+z
1/2+x,1/2-y,1/2-z
1/2-x,1/2+y,1/2-z
1/2-x,1/2-y,1/2-z
1/2+x,1/2+y,1/2-z
1/2-x,1/2+y,1/2+z
1/2+x,1/2-y,1/2+z
loop_
_atom_site_type_symbol
_atom_site_label
_atom_site_fract_x
_atom_site_fract_y
_atom_site_fract_z
Si Si1 0.000000 0.424485 0.112046
Si Si2 0.922129 0.210029 0.214660
Si Si3 0.000000 0.927450 0.390242
Si Si4 0.122196 0.658860 0.888044
Si Si5 0.076661 0.924596 0.893981
Si Si6 0.754726 0.423355 0.110689
Si Si7 0.624512 0.343330 0.890518
O O1 0.063252 0.386617 0.149583
O O2 0.000000 0.500000 0.154732
O O3 0.000000 0.426728 0.000000
O O4 0.887329 0.265634 0.150366
O O5 0.900196 0.136353 0.173983
O O6 0.887800 0.219062 0.318244
O O7 0.000000 0.220061 0.217231
O O8 0.935902 0.889495 0.359968
O O9 0.000000 0.939339 0.500000
O O10 0.000000 0.000000 0.337279
O O11 0.187225 0.623011 0.848624
O O12 0.123551 0.663948 0.000000
O O13 0.000000 0.924409 0.894957
O O14 0.101433 0.000000 0.860665
O O15 0.102222 0.910331 0.000000
O O16 0.755191 0.500000 0.154546
O O17 0.688254 0.385381 0.133898
O O18 0.763775 0.430762 0.000000
O O19 0.622585 0.319557 0.000000
#
# Coordination Sequence:
#
# PCOD8288615 Si02
#       7
#     8  16   8  16  16  16  16
#     4   9  16  27  46  72 100 127 154 188 236 295
#     4  11  20  30  46  70  97 128 164 206 246 291
#     4   9  16  27  44  64  85 112 150 196 241 278
#     4  10  19  31  49  73 101 130 160 196 243 297
#     4   8  15  27  41  59  87 123 159 194 234 282
#     4   9  18  33  51  71  98 131 162 196 245 302
#     4  10  20  33  47  66  94 128 164 204 244 285
#
# _framework density 16.666028000000001
#
# number of rings (size 3 to 8) (size 9 to 14) (size 15 to 20)
#    0.000    2.500    1.667    2.000    0.000    6.667 
#    0.000    0.000    0.000    0.000    0.000    0.000 
#    0.000    4.667    0.000    0.000    0.000    0.000 
#
# Total GULP energy -594727.828746 kJ/mol
# GULP energy per Si atom -12390.163099 kJ/mol
# Density = 1.662810 g / cm^3
# Si number density = 16.666028 Si / 1000 Ang^3
#
#
#
# Elastic Constant Matrix: (Units=GPa)
#
#
# Indices 1 2 3 4 5 6 
#
# 1 116.2173 43.6142 24.0060 0.0000 0.0000 0.0000
# 2 43.6142 94.5896 30.6234 0.0000 0.0000 0.0000
# 3 24.0060 30.6234 51.6978 0.0000 0.0000 0.0000
# 4 0.0000 0.0000 0.0000 12.1130 0.0000 0.0000
# 5 0.0000 0.0000 0.0000 0.0000 4.7949 0.0000
# 6 0.0000 0.0000 0.0000 0.0000 0.0000 10.2925
#
#
#
# Elastic Compliance Matrix: (Units=1/GPa)
#
#
# Indices 1 2 3 4 5 6 
#
# 1 0.010665 -0.004100 -0.002523 0.000000 0.000000 0.000000
# 2 -0.004100 0.014657 -0.006778 0.000000 0.000000 0.000000
# 3 -0.002523 -0.006778 0.024530 0.000000 0.000000 0.000000
# 4 0.000000 0.000000 0.000000 0.082556 0.000000 0.000000
# 5 0.000000 0.000000 0.000000 0.000000 0.208557 0.000000
# 6 0.000000 0.000000 0.000000 0.000000 0.000000 0.097158
#
#
# Mechanical properties :
#
#
# Convention : Reuss Voigt Hill
#
# Bulk Modulus (GPa) = 43.38772 50.99910 47.19341
# Shear Modulus (GPa) = 10.57958 16.39081 13.48519
#
# Velocity S-wave (km/s) = 2.52225 3.13946 2.84763
# Velocity P-wave (km/s) = 5.87984 6.61881 6.26024
#
# Compressibility (1/GPa) = 0.02304800
#
# Stress axis : x y z
#
# Youngs Moduli (GPa) = 93.76836 68.22649 40.76657
#
# Poissons Ratio (x) = 0.27976 0.10286
# Poissons Ratio (y) = 0.38449 0.27632
# Poissons Ratio (z) = 0.23660 0.46245
#
# Static dielectric constant tensor:
#      x y z
#    x 3.113480 0.000000 0.000000 
#    y 0.000000 3.322950 0.000000 
#    z 0.000000 0.000000 3.019180 
# 
# 
# High freq. dielectric constant tensor:
#      x y z
#    x 1.628800 0.000000 0.000000 
#    y 0.000000 1.635770 0.000000 
#    z 0.000000 0.000000 1.615000 
# 
# From -- ./inp_files/47455.got.cif
#   From: 2010.06.25/outbox.cif.g09.slc.cpg/sg71_24_cif.got.tgz:47455.got - 2010.06.28 04:59:45.
