data_PCOD8288628
_publ_section_title
;
Structure prediction by ZEFSAII (Michael W. Deem and Ramdas Pophale) SiO2 
 PCOD8288628
Probable space group: I M M M
;
_chemical_formula_sum "Si O2"
_cell_formula_units_Z 120
_cell_length_a 8.545631
_cell_length_b 28.949481
_cell_length_c 24.382711
_cell_angle_alpha 90.000000
_cell_angle_beta 90.000000
_cell_angle_gamma 90.000000
_cell_volume 6032.077454
_symmetry_space_group_name_H-M "I M M M"
_symmetry_group_IT_number 71
_symmetry_cell_setting 'orthorhombic'
loop_
_space_group_symop_operation_xyz
x,y,z
-x,-y,z
x,-y,-z
-x,y,-z
-x,-y,-z
x,y,-z
-x,y,z
x,-y,z
1/2+x,1/2+y,1/2+z
1/2-x,1/2-y,1/2+z
1/2+x,1/2-y,1/2-z
1/2-x,1/2+y,1/2-z
1/2-x,1/2-y,1/2-z
1/2+x,1/2+y,1/2-z
1/2-x,1/2+y,1/2+z
1/2+x,1/2-y,1/2+z
loop_
_atom_site_type_symbol
_atom_site_label
_atom_site_fract_x
_atom_site_fract_y
_atom_site_fract_z
Si Si1 0.315213 0.409461 0.121385
Si Si2 0.186349 0.228467 0.938004
Si Si3 0.313737 0.500000 0.061357
Si Si4 0.686655 0.650137 0.356857
Si Si5 0.183716 0.049861 0.843741
Si Si6 0.183968 0.683141 0.129243
Si Si7 0.821637 0.551882 0.774162
Si Si8 0.815362 0.198981 0.746319
O O1 0.500000 0.404661 0.115692
O O2 0.248231 0.453708 0.089289
O O3 0.232909 0.363515 0.096974
O O4 0.264282 0.413972 0.184412
O O5 0.248142 0.183438 0.905327
O O6 0.248174 0.273558 0.905695
O O7 0.000000 0.229125 0.939811
O O8 0.253954 0.227796 0.000000
O O9 0.500000 0.500000 0.065080
O O10 0.251054 0.500000 0.000000
O O11 0.500000 0.650241 0.355638
O O12 0.748628 0.597687 0.370541
O O13 0.748747 0.668182 0.297536
O O14 0.220177 0.054229 0.780167
O O15 0.000000 0.047878 0.852634
O O16 0.254104 0.000000 0.865968
O O17 0.263685 0.678291 0.188487
O O18 0.000000 0.687437 0.137097
O O19 0.818405 0.500000 0.798095
O O20 0.000000 0.567943 0.763377
O O21 0.750000 0.250000 0.750000
O O22 0.000000 0.201388 0.749930
#
# Coordination Sequence:
#
# PCOD8288628 Si02
#       8
#    16  16   8  16  16  16  16  16
#     4  11  21  35  55  76 100 136 175 216 269 328
#     4   9  18  34  55  76 101 138 182 224 269 321
#     4   9  20  38  57  75  97 133 183 231 276 331
#     4   9  17  31  51  76 105 139 179 215 256 318
#     4   9  17  29  49  77 109 141 173 211 255 310
#     4  11  22  36  54  81 110 139 179 228 276 326
#     4  10  19  31  49  74 106 139 173 213 256 309
#     4  11  20  33  54  81 112 145 180 222 271 328
#
# _framework density 19.893643999999998
#
# number of rings (size 3 to 8) (size 9 to 14) (size 15 to 20)
#    0.000    2.067    2.000    2.400    0.000    2.133 
#    0.000    0.667    0.000    4.400    0.000    2.800 
#    0.000    0.000    0.000    3.333    0.000    3.467 
#
# Total GULP energy -743564.271035 kJ/mol
# GULP energy per Si atom -12392.737851 kJ/mol
# Density = 1.984837 g / cm^3
# Si number density = 19.893644 Si / 1000 Ang^3
#
#
#
# Elastic Constant Matrix: (Units=GPa)
#
#
# Indices 1 2 3 4 5 6 
#
# 1 19.1623 17.7554 3.0512 0.0000 0.0000 0.0000
# 2 17.7554 203.7099 65.2921 0.0000 0.0000 0.0000
# 3 3.0512 65.2921 104.5914 -0.0001 0.0000 0.0000
# 4 0.0000 0.0000 -0.0001 35.1879 0.0000 0.0000
# 5 0.0000 0.0000 0.0000 0.0000 12.3730 0.0000
# 6 0.0000 0.0000 0.0000 0.0000 0.0000 25.7051
#
#
#
# Elastic Compliance Matrix: (Units=1/GPa)
#
#
# Indices 1 2 3 4 5 6 
#
# 1 0.057040 -0.005548 0.001800 0.000000 0.000000 0.000000
# 2 -0.005548 0.006677 -0.004006 0.000000 0.000000 0.000000
# 3 0.001800 -0.004006 0.012009 0.000000 0.000000 0.000000
# 4 0.000000 0.000000 0.000000 0.028419 0.000000 0.000000
# 5 0.000000 0.000000 0.000000 0.000000 0.080821 0.000000
# 6 0.000000 0.000000 0.000000 0.000000 0.000000 0.038903
#
#
# Mechanical properties :
#
#
# Convention : Reuss Voigt Hill
#
# Bulk Modulus (GPa) = 16.60672 55.51788 36.06230
# Shear Modulus (GPa) = 19.27146 30.74418 25.00782
#
# Velocity S-wave (km/s) = 3.11581 3.93546 3.54937
# Velocity P-wave (km/s) = 4.61630 6.97269 5.91306
#
# Compressibility (1/GPa) = 0.06021659
#
# Stress axis : x y z
#
# Youngs Moduli (GPa) = 17.53144 149.77813 83.26868
#
# Poissons Ratio (x) = 0.83104 -0.14986
# Poissons Ratio (y) = 0.09727 0.33358
# Poissons Ratio (z) = -0.03155 0.60002
#
# Static dielectric constant tensor:
#      x y z
#    x 3.241440 0.000000 0.000000 
#    y 0.000000 4.300000 0.000000 
#    z 0.000000 0.000000 3.503610 
# 
# 
# High freq. dielectric constant tensor:
#      x y z
#    x 1.739850 0.000000 0.000000 
#    y 0.000000 1.805470 0.000000 
#    z 0.000000 0.000000 1.740490 
# 
# From -- ./inp_files/63788.got.cif
#   From: 2010.06.25/outbox.cif.g09.slc.cpg/sg71_32_cif.got.tgz:63788.got - 2010.06.28 04:59:45.
