data_PCOD8288021
_publ_section_title
;
Structure prediction by ZEFSAII (Michael W. Deem and Ramdas Pophale) SiO2 
 PCOD8288021
Probable space group: I M M M
;
_chemical_formula_sum "Si O2"
_cell_formula_units_Z 88
_cell_length_a 19.436686
_cell_length_b 18.606041
_cell_length_c 13.753001
_cell_angle_alpha 90.000000
_cell_angle_beta 90.000000
_cell_angle_gamma 90.000000
_cell_volume 4973.632209
_symmetry_space_group_name_H-M "I M M M"
_symmetry_group_IT_number 71
_symmetry_cell_setting 'orthorhombic'
loop_
_space_group_symop_operation_xyz
x,y,z
-x,-y,z
x,-y,-z
-x,y,-z
-x,-y,-z
x,y,-z
-x,y,z
x,-y,z
1/2+x,1/2+y,1/2+z
1/2-x,1/2-y,1/2+z
1/2+x,1/2-y,1/2-z
1/2-x,1/2+y,1/2-z
1/2-x,1/2-y,1/2-z
1/2+x,1/2+y,1/2-z
1/2-x,1/2+y,1/2+z
1/2+x,1/2-y,1/2+z
loop_
_atom_site_type_symbol
_atom_site_label
_atom_site_fract_x
_atom_site_fract_y
_atom_site_fract_z
Si Si1 0.000000 0.920560 0.752641
Si Si2 0.608516 0.168319 0.696585
Si Si3 0.275214 0.919553 0.386033
Si Si4 0.500000 0.081060 0.604624
Si Si5 0.079289 0.272174 0.392820
Si Si6 0.500000 0.719695 0.384303
Si Si7 0.378895 0.614004 0.890150
O O1 0.933289 0.916861 0.684890
O O2 0.000000 0.858625 0.834484
O O3 0.000000 0.000000 0.802412
O O4 0.685501 0.148534 0.662996
O O5 0.566873 0.097832 0.666875
O O6 0.609262 0.173571 0.813259
O O7 0.569672 0.237504 0.648571
O O8 0.286468 0.910127 0.500000
O O9 0.195538 0.913362 0.357496
O O10 0.299926 0.000000 0.353734
O O11 0.500000 0.123755 0.500000
O O12 0.500000 0.000000 0.576777
O O13 0.085821 0.307572 0.500000
O O14 0.122905 0.199982 0.387245
O O15 0.000000 0.252938 0.368588
O O16 0.500000 0.708604 0.500000
O O17 0.396705 0.587954 0.000000
#
# Coordination Sequence:
#
# PCOD8288021 Si02
#       7
#     8  16  16   8  16   8  16
#     4  12  22  36  56  78 106 141 179 220 269 318
#     4  11  18  34  56  76 106 143 174 214 263 312
#     4  10  21  34  51  81 115 141 170 217 272 320
#     4  10  19  30  49  78 105 134 176 217 260 313
#     4  10  18  33  56  81 108 135 175 224 266 307
#     4  11  22  37  54  79 105 138 185 220 253 311
#     4  10  19  35  56  82 109 135 173 219 269 321
#
# _framework density 17.693307000000001
#
# number of rings (size 3 to 8) (size 9 to 14) (size 15 to 20)
#    0.000    1.545    4.545    3.545    0.000    3.818 
#    0.000    0.000    0.000    2.727    0.000    0.000 
#    0.000    0.000    0.000    0.000    0.000    0.000 
#
# Total GULP energy -545245.269080 kJ/mol
# GULP energy per Si atom -12391.937934 kJ/mol
# Density = 1.765304 g / cm^3
# Si number density = 17.693307 Si / 1000 Ang^3
#
#
#
# Elastic Constant Matrix: (Units=GPa)
#
#
# Indices 1 2 3 4 5 6 
#
# 1 85.7799 47.4109 49.9260 0.0000 0.0000 0.0000
# 2 47.4109 99.9768 57.5837 0.0000 0.0000 0.0000
# 3 49.9260 57.5837 115.0245 0.0000 0.0000 0.0000
# 4 0.0000 0.0000 0.0000 21.5901 0.0000 0.0000
# 5 0.0000 0.0000 0.0000 0.0000 22.8254 0.0000
# 6 0.0000 0.0000 0.0000 0.0000 0.0000 20.9539
#
#
#
# Elastic Compliance Matrix: (Units=1/GPa)
#
#
# Indices 1 2 3 4 5 6 
#
# 1 0.017529 -0.005523 -0.004844 0.000000 0.000000 0.000000
# 2 -0.005523 0.015795 -0.005510 0.000000 0.000000 0.000000
# 3 -0.004844 -0.005510 0.013555 0.000000 0.000000 0.000000
# 4 0.000000 0.000000 0.000000 0.046318 0.000000 0.000000
# 5 0.000000 0.000000 0.000000 0.000000 0.043811 0.000000
# 6 0.000000 0.000000 0.000000 0.000000 0.000000 0.047724
#
#
# Mechanical properties :
#
#
# Convention : Reuss Voigt Hill
#
# Bulk Modulus (GPa) = 66.11292 67.84695 66.97993
# Shear Modulus (GPa) = 22.57063 22.79792 22.68427
#
# Velocity S-wave (km/s) = 3.57551 3.59347 3.58450
# Velocity P-wave (km/s) = 7.38193 7.45967 7.42090
#
# Compressibility (1/GPa) = 0.01512564
#
# Stress axis : x y z
#
# Youngs Moduli (GPa) = 57.04679 63.31075 73.77536
#
# Poissons Ratio (x) = 0.34967 0.35734
# Poissons Ratio (y) = 0.31507 0.40651
# Poissons Ratio (z) = 0.27632 0.34885
#
# Static dielectric constant tensor:
#      x y z
#    x 3.319020 0.000000 0.000000 
#    y 0.000000 3.226160 0.000000 
#    z 0.000000 0.000000 3.324200 
# 
# 
# High freq. dielectric constant tensor:
#      x y z
#    x 1.679320 0.000000 0.000000 
#    y 0.000000 1.674330 0.000000 
#    z 0.000000 0.000000 1.673850 
# 
# From -- ./inp_files/36426.got.cif
#   From: 2010.06.25/outbox.cif.g09.slc.cpg/sg71_19_cif.got.tgz:36426.got - 2010.06.28 04:59:45.
