data_PCOD8288061
_publ_section_title
;
Structure prediction by ZEFSAII (Michael W. Deem and Ramdas Pophale) SiO2 
 PCOD8288061
Probable space group: I M M M
;
_chemical_formula_sum "Si O2"
_cell_formula_units_Z 88
_cell_length_a 15.288600
_cell_length_b 27.416233
_cell_length_c 11.875181
_cell_angle_alpha 90.000000
_cell_angle_beta 90.000000
_cell_angle_gamma 90.000000
_cell_volume 4977.551228
_symmetry_space_group_name_H-M "I M M M"
_symmetry_group_IT_number 71
_symmetry_cell_setting 'orthorhombic'
loop_
_space_group_symop_operation_xyz
x,y,z
-x,-y,z
x,-y,-z
-x,y,-z
-x,-y,-z
x,y,-z
-x,y,z
x,-y,z
1/2+x,1/2+y,1/2+z
1/2-x,1/2-y,1/2+z
1/2+x,1/2-y,1/2-z
1/2-x,1/2+y,1/2-z
1/2-x,1/2-y,1/2-z
1/2+x,1/2+y,1/2-z
1/2-x,1/2+y,1/2+z
1/2+x,1/2-y,1/2+z
loop_
_atom_site_type_symbol
_atom_site_label
_atom_site_fract_x
_atom_site_fract_y
_atom_site_fract_z
Si Si1 0.177869 0.891010 0.366983
Si Si2 0.599096 0.076919 0.500000
Si Si3 0.400421 0.861712 0.869918
Si Si4 0.000000 0.943563 0.632279
Si Si5 0.104891 0.314136 0.000000
Si Si6 0.282880 0.198762 0.707683
Si Si7 0.666702 0.053139 0.268445
O O1 0.193018 0.900308 0.500000
O O2 0.200658 0.834563 0.335319
O O3 0.239023 0.924187 0.289774
O O4 0.081946 0.909783 0.330647
O O5 0.500000 0.091377 0.500000
O O6 0.643643 0.130464 0.500000
O O7 0.621097 0.046733 0.389441
O O8 0.500000 0.843474 0.853519
O O9 0.333393 0.825363 0.811461
O O10 0.392131 0.914983 0.814782
O O11 0.374826 0.865106 0.000000
O O12 0.000000 0.950053 0.500000
O O13 0.000000 0.000000 0.682320
O O14 0.146159 0.290024 0.110653
O O15 0.000000 0.308160 0.000000
O O16 0.250000 0.250000 0.750000
O O17 0.676598 0.000000 0.213151
#
# Coordination Sequence:
#
# PCOD8288061 Si02
#       7
#    16   8  16   8   8  16  16
#     4  10  18  35  52  78 112 144 181 228 278 331
#     4  11  19  30  51  78 112 140 172 222 269 319
#     4  10  22  39  55  76 110 148 184 221 266 330
#     4   9  18  30  52  80 113 149 179 221 283 343
#     4  11  20  39  62  83 110 144 186 233 285 339
#     4  11  22  37  61  82 111 143 187 234 289 335
#     4  11  20  31  52  80 110 145 183 222 270 321
#
# _framework density 17.679376000000001
#
# number of rings (size 3 to 8) (size 9 to 14) (size 15 to 20)
#    0.000    1.545    5.455    1.909    1.273    2.909 
#    3.273    0.909    0.000    0.000    0.000    5.727 
#    0.000   17.455    0.000    0.000    0.000    0.000 
#
# Total GULP energy -545306.564550 kJ/mol
# GULP energy per Si atom -12393.331013 kJ/mol
# Density = 1.763914 g / cm^3
# Si number density = 17.679376 Si / 1000 Ang^3
#
#
#
# Elastic Constant Matrix: (Units=GPa)
#
#
# Indices 1 2 3 4 5 6 
#
# 1 104.7685 45.8444 37.9052 0.0001 -0.0001 0.0000
# 2 45.8444 127.9193 34.1295 0.0008 -0.0005 0.0000
# 3 37.9052 34.1295 96.6887 0.0038 -0.0013 0.0003
# 4 0.0001 0.0008 0.0038 18.8286 -0.0005 0.0000
# 5 -0.0001 -0.0005 -0.0013 -0.0005 21.9392 -0.0001
# 6 0.0000 0.0000 0.0003 0.0000 -0.0001 15.1061
#
#
#
# Elastic Compliance Matrix: (Units=1/GPa)
#
#
# Indices 1 2 3 4 5 6 
#
# 1 0.012374 -0.003467 -0.003627 0.000001 0.000000 0.000000
# 2 -0.003467 0.009602 -0.002030 0.000000 0.000000 0.000000
# 3 -0.003627 -0.002030 0.012481 -0.000002 0.000001 0.000000
# 4 0.000001 0.000000 -0.000002 0.053111 0.000001 0.000000
# 5 0.000000 0.000000 0.000001 0.000001 0.045581 0.000000
# 6 0.000000 0.000000 0.000000 0.000000 0.000000 0.066198
#
#
# Mechanical properties :
#
#
# Convention : Reuss Voigt Hill
#
# Bulk Modulus (GPa) = 61.69701 62.79274 62.24487
# Shear Modulus (GPa) = 22.42172 25.27460 23.84816
#
# Velocity S-wave (km/s) = 3.56510 3.78512 3.67676
# Velocity P-wave (km/s) = 7.20556 7.39577 7.30129
#
# Compressibility (1/GPa) = 0.01620824
#
# Stress axis : x y z
#
# Youngs Moduli (GPa) = 80.81264 104.14979 80.12127
#
# Poissons Ratio (x) = 0.36108 0.29063
# Poissons Ratio (y) = 0.28017 0.16265
# Poissons Ratio (z) = 0.29314 0.21143
#
# Static dielectric constant tensor:
#      x y z
#    x 3.366360 0.000000 0.000000 
#    y 0.000000 3.222280 0.000000 
#    z 0.000000 0.000000 3.184090 
# 
# 
# High freq. dielectric constant tensor:
#      x y z
#    x 1.688420 0.000000 0.000000 
#    y 0.000000 1.676200 0.000000 
#    z 0.000000 0.000000 1.665090 
# 
# From -- ./inp_files/22333.got.cif
#   From: 2010.06.25/outbox.cif.g09.slc.cpg/sg71_12_cif.got.tgz:22333.got - 2010.06.28 04:59:45.
