data_PCOD8288397
_publ_section_title
;
Structure prediction by ZEFSAII (Michael W. Deem and Ramdas Pophale) SiO2 
 PCOD8288397
Probable space group: I M M M
;
_chemical_formula_sum "Si O2"
_cell_formula_units_Z 88
_cell_length_a 30.334243
_cell_length_b 19.220736
_cell_length_c 7.866678
_cell_angle_alpha 90.000000
_cell_angle_beta 90.000000
_cell_angle_gamma 90.000000
_cell_volume 4586.638889
_symmetry_space_group_name_H-M "I M M M"
_symmetry_group_IT_number 71
_symmetry_cell_setting 'orthorhombic'
loop_
_space_group_symop_operation_xyz
x,y,z
-x,-y,z
x,-y,-z
-x,y,-z
-x,-y,-z
x,y,-z
-x,y,z
x,-y,z
1/2+x,1/2+y,1/2+z
1/2-x,1/2-y,1/2+z
1/2+x,1/2-y,1/2-z
1/2-x,1/2+y,1/2-z
1/2-x,1/2-y,1/2-z
1/2+x,1/2+y,1/2-z
1/2-x,1/2+y,1/2+z
1/2+x,1/2-y,1/2+z
loop_
_atom_site_type_symbol
_atom_site_label
_atom_site_fract_x
_atom_site_fract_y
_atom_site_fract_z
Si Si1 0.118472 0.719168 0.696695
Si Si2 0.052295 0.078359 0.500000
Si Si3 0.949154 0.825468 0.808361
Si Si4 0.206190 0.788873 0.300235
Si Si5 0.152487 0.422100 0.200856
Si Si6 0.751640 0.924328 0.297680
O O1 0.113679 0.737255 0.500000
O O2 0.076946 0.752788 0.792118
O O3 0.162733 0.753626 0.779173
O O4 0.119826 0.635750 0.721205
O O5 0.068667 0.118268 0.670616
O O6 0.000000 0.073778 0.500000
O O7 0.072227 0.000000 0.500000
O O8 0.000000 0.808198 0.770901
O O9 0.943219 0.855292 0.000000
O O10 0.200547 0.787835 0.500000
O O11 0.250000 0.750000 0.250000
O O12 0.212865 0.867919 0.231855
O O13 0.137712 0.500000 0.258010
O O14 0.202166 0.407412 0.268522
O O15 0.150663 0.416176 0.000000
O O16 0.749565 0.924182 0.500000
O O17 0.766626 0.000000 0.230033
#
# Coordination Sequence:
#
# PCOD8288397 Si02
#       6
#    16   8  16  16  16  16
#     4  11  21  32  51  80 113 146 185 229 284 336
#     4   9  18  36  62  90 119 147 181 231 282 334
#     4  10  21  38  61  87 114 149 190 232 283 337
#     4  10  19  30  47  72 103 136 179 222 269 326
#     4   9  17  30  50  74  99 136 186 232 274 323
#     4   8  14  27  46  66  93 133 178 221 265 315
#
# _framework density 19.186161999999999
#
# number of rings (size 3 to 8) (size 9 to 14) (size 15 to 20)
#    0.000    2.455    2.727    1.636    0.000    1.455 
#    0.000    2.727    0.000    1.091    0.000    3.818 
#    0.000    0.000    0.000    0.000    0.000    0.000 
#
# Total GULP energy -545300.488186 kJ/mol
# GULP energy per Si atom -12393.192913 kJ/mol
# Density = 1.914249 g / cm^3
# Si number density = 19.186162 Si / 1000 Ang^3
#
#
#
# Elastic Constant Matrix: (Units=GPa)
#
#
# Indices 1 2 3 4 5 6 
#
# 1 67.8965 51.0872 24.4348 0.0000 0.0000 0.0000
# 2 51.0872 152.6583 34.7739 0.0000 0.0000 0.0000
# 3 24.4348 34.7739 67.1217 0.0000 0.0000 0.0000
# 4 0.0000 0.0000 0.0000 24.5262 0.0000 0.0000
# 5 0.0000 0.0000 0.0000 0.0000 16.1856 0.0000
# 6 0.0000 0.0000 0.0000 0.0000 0.0000 28.2246
#
#
#
# Elastic Compliance Matrix: (Units=1/GPa)
#
#
# Indices 1 2 3 4 5 6 
#
# 1 0.020819 -0.005942 -0.004500 0.000000 0.000000 0.000000
# 2 -0.005942 0.009123 -0.002563 0.000000 0.000000 0.000000
# 3 -0.004500 -0.002563 0.017865 0.000000 0.000000 0.000000
# 4 0.000000 0.000000 0.000000 0.040773 0.000000 0.000000
# 5 0.000000 0.000000 0.000000 0.000000 0.061783 0.000000
# 6 0.000000 0.000000 0.000000 0.000000 0.000000 0.035430
#
#
# Mechanical properties :
#
#
# Convention : Reuss Voigt Hill
#
# Bulk Modulus (GPa) = 45.88198 56.47425 51.17811
# Shear Modulus (GPa) = 22.82394 25.61269 24.21831
#
# Velocity S-wave (km/s) = 3.45281 3.65767 3.55671
# Velocity P-wave (km/s) = 6.31362 6.88018 6.60298
#
# Compressibility (1/GPa) = 0.02179505
#
# Stress axis : x y z
#
# Youngs Moduli (GPa) = 48.03366 109.61429 55.97658
#
# Poissons Ratio (x) = 0.65131 0.25192
# Poissons Ratio (y) = 0.28541 0.14348
# Poissons Ratio (z) = 0.21618 0.28097
#
# Static dielectric constant tensor:
#      x y z
#    x 3.284430 0.000000 0.000000 
#    y 0.000000 3.941090 0.000000 
#    z 0.000000 0.000000 3.349000 
# 
# 
# High freq. dielectric constant tensor:
#      x y z
#    x 1.705470 0.000000 0.000000 
#    y 0.000000 1.754230 0.000000 
#    z 0.000000 0.000000 1.734660 
# 
# From -- ./inp_files/12519.got.cif
#   From: 2010.06.25/outbox.cif.g09.slc.cpg/sg71_7_cif.got.tgz:12519.got - 2010.06.28 04:59:45.
