data_PCOD8288006
_publ_section_title
;
Structure prediction by ZEFSAII (Michael W. Deem and Ramdas Pophale) SiO2 
 PCOD8288006
Probable space group: I M M M
;
_chemical_formula_sum "Si O2"
_cell_formula_units_Z 88
_cell_length_a 17.812598
_cell_length_b 21.826521
_cell_length_c 13.009998
_cell_angle_alpha 90.000000
_cell_angle_beta 90.000000
_cell_angle_gamma 90.000000
_cell_volume 5058.118669
_symmetry_space_group_name_H-M "I M M M"
_symmetry_group_IT_number 71
_symmetry_cell_setting 'orthorhombic'
loop_
_space_group_symop_operation_xyz
x,y,z
-x,-y,z
x,-y,-z
-x,y,-z
-x,-y,-z
x,y,-z
-x,y,z
x,-y,z
1/2+x,1/2+y,1/2+z
1/2-x,1/2-y,1/2+z
1/2+x,1/2-y,1/2-z
1/2-x,1/2+y,1/2-z
1/2-x,1/2-y,1/2-z
1/2+x,1/2+y,1/2-z
1/2-x,1/2+y,1/2+z
1/2+x,1/2-y,1/2+z
loop_
_atom_site_type_symbol
_atom_site_label
_atom_site_fract_x
_atom_site_fract_y
_atom_site_fract_z
Si Si1 0.670750 0.928443 0.296465
Si Si2 0.697915 0.262719 0.383902
Si Si3 0.912377 0.778028 0.705918
Si Si4 0.158688 0.339259 0.383647
Si Si5 0.584583 0.072763 0.500000
Si Si6 0.793120 0.144349 0.380291
O O1 0.640370 0.894142 0.195130
O O2 0.625332 0.903670 0.396529
O O3 0.758634 0.913669 0.319056
O O4 0.659391 0.000000 0.277534
O O5 0.670647 0.254701 0.500000
O O6 0.623164 0.270754 0.318399
O O7 0.754076 0.320155 0.372177
O O8 0.742360 0.202529 0.346573
O O9 0.895517 0.718527 0.636718
O O10 0.877866 0.839244 0.652848
O O11 0.000000 0.788668 0.717632
O O12 0.143171 0.362016 0.500000
O O13 0.500000 0.098342 0.500000
O O14 0.586060 0.000000 0.500000
O O15 0.790823 0.129914 0.500000
#
# Coordination Sequence:
#
# PCOD8288006 Si02
#       6
#    16  16  16  16   8  16
#     4  11  20  33  56  80 103 142 182 216 263 311
#     4   9  17  32  54  75 100 135 170 218 276 316
#     4  11  20  32  53  79 108 140 174 216 270 325
#     4  10  20  36  54  74 107 140 174 219 259 316
#     4   9  20  36  52  76 105 133 175 225 267 304
#     4  10  18  33  53  75 105 134 176 222 261 318
#
# _framework density 17.397773000000001
#
# number of rings (size 3 to 8) (size 9 to 14) (size 15 to 20)
#    0.000    1.909    4.545    2.727    0.000    2.909 
#    0.000    0.000    0.000    0.545    0.000    5.091 
#    0.000    2.909    0.000    0.000    0.000    0.000 
#
# Total GULP energy -545564.071646 kJ/mol
# GULP energy per Si atom -12399.183447 kJ/mol
# Density = 1.735817 g / cm^3
# Si number density = 17.397773 Si / 1000 Ang^3
#
#
#
# Elastic Constant Matrix: (Units=GPa)
#
#
# Indices 1 2 3 4 5 6 
#
# 1 105.1259 14.8763 34.0498 0.0000 0.0000 0.0000
# 2 14.8763 43.2090 29.3794 0.0000 0.0000 0.0000
# 3 34.0498 29.3794 114.8643 0.0000 0.0000 0.0000
# 4 0.0000 0.0000 0.0000 27.5958 0.0000 0.0000
# 5 0.0000 0.0000 0.0000 0.0000 22.4674 0.0000
# 6 0.0000 0.0000 0.0000 0.0000 0.0000 13.3701
#
#
#
# Elastic Compliance Matrix: (Units=1/GPa)
#
#
# Indices 1 2 3 4 5 6 
#
# 1 0.010642 -0.001839 -0.002684 0.000000 0.000000 0.000000
# 2 -0.001839 0.028333 -0.006702 0.000000 0.000000 0.000000
# 3 -0.002684 -0.006702 0.011216 0.000000 0.000000 0.000000
# 4 0.000000 0.000000 0.000000 0.036237 0.000000 0.000000
# 5 0.000000 0.000000 0.000000 0.000000 0.044509 0.000000
# 6 0.000000 0.000000 0.000000 0.000000 0.000000 0.074794
#
#
# Mechanical properties :
#
#
# Convention : Reuss Voigt Hill
#
# Bulk Modulus (GPa) = 36.04750 46.64559 41.34654
# Shear Modulus (GPa) = 21.05902 25.01291 23.03596
#
# Velocity S-wave (km/s) = 3.48292 3.79582 3.64273
# Velocity P-wave (km/s) = 6.07774 6.78826 6.44280
#
# Compressibility (1/GPa) = 0.02774117
#
# Stress axis : x y z
#
# Youngs Moduli (GPa) = 93.96677 35.29430 89.15967
#
# Poissons Ratio (x) = 0.06490 0.23934
# Poissons Ratio (y) = 0.17278 0.59753
# Poissons Ratio (z) = 0.25224 0.23654
#
# Static dielectric constant tensor:
#      x y z
#    x 3.069490 0.000000 0.000000 
#    y 0.000000 2.977110 0.000000 
#    z 0.000000 0.000000 3.414970 
# 
# 
# High freq. dielectric constant tensor:
#      x y z
#    x 1.645820 0.000000 0.000000 
#    y 0.000000 1.636610 0.000000 
#    z 0.000000 0.000000 1.693640 
# 
# From -- ./inp_files/36579.got.cif
#   From: 2010.06.25/outbox.cif.g09.slc.cpg/sg71_19_cif.got.tgz:36579.got - 2010.06.28 04:59:45.
