data_PCOD8288285
_publ_section_title
;
Structure prediction by ZEFSAII (Michael W. Deem and Ramdas Pophale) SiO2 
 PCOD8288285
Probable space group: I M M M
;
_chemical_formula_sum "Si O2"
_cell_formula_units_Z 88
_cell_length_a 19.002159
_cell_length_b 30.561029
_cell_length_c 9.704555
_cell_angle_alpha 90.000000
_cell_angle_beta 90.000000
_cell_angle_gamma 90.000000
_cell_volume 5635.682868
_symmetry_space_group_name_H-M "I M M M"
_symmetry_group_IT_number 71
_symmetry_cell_setting 'orthorhombic'
loop_
_space_group_symop_operation_xyz
x,y,z
-x,-y,z
x,-y,-z
-x,y,-z
-x,-y,-z
x,y,-z
-x,y,z
x,-y,z
1/2+x,1/2+y,1/2+z
1/2-x,1/2-y,1/2+z
1/2+x,1/2-y,1/2-z
1/2-x,1/2+y,1/2-z
1/2-x,1/2-y,1/2-z
1/2+x,1/2+y,1/2-z
1/2-x,1/2+y,1/2+z
1/2+x,1/2-y,1/2+z
loop_
_atom_site_type_symbol
_atom_site_label
_atom_site_fract_x
_atom_site_fract_y
_atom_site_fract_z
Si Si1 0.720827 0.120568 0.840500
Si Si2 0.922000 0.744113 0.843871
Si Si3 0.291824 0.549432 0.153219
Si Si4 0.216933 0.212364 0.841618
Si Si5 0.421296 0.837989 0.158485
Si Si6 0.577539 0.551595 0.000000
O O1 0.750376 0.080293 0.755929
O O2 0.758837 0.164917 0.789459
O O3 0.636613 0.124381 0.813847
O O4 0.737464 0.111810 0.000000
O O5 0.867702 0.784133 0.825491
O O6 0.900213 0.704145 0.746537
O O7 0.000000 0.761540 0.806443
O O8 0.919396 0.726179 0.000000
O O9 0.286240 0.500000 0.211039
O O10 0.257159 0.551784 0.000000
O O11 0.374983 0.563473 0.135833
O O12 0.250000 0.250000 0.750000
O O13 0.240818 0.219210 0.000000
O O14 0.500000 0.855174 0.196256
O O15 0.417583 0.823131 0.000000
O O16 0.567053 0.500000 0.000000
O O17 0.500000 0.574555 0.000000
#
# Coordination Sequence:
#
# PCOD8288285 Si02
#       6
#    16  16  16  16  16   8
#     4  10  19  30  46  71  98 124 156 194 239 284
#     4   9  17  29  44  62  87 122 160 196 234 273
#     4   8  17  32  51  75  94 119 155 193 232 277
#     4  10  19  30  44  66  92 122 158 194 231 276
#     4   9  17  29  45  65  91 123 160 199 233 271
#     4   7  12  28  54  76  93 117 151 191 230 274
#
# _framework density 15.614789
#
# number of rings (size 3 to 8) (size 9 to 14) (size 15 to 20)
#    0.545    2.455    1.818    0.000    0.000    1.818 
#    0.000    0.909    0.000    2.182    0.000    6.364 
#    0.000    0.000    0.000    0.000    0.000    0.000 
#
# Total GULP energy -545076.208188 kJ/mol
# GULP energy per Si atom -12388.095641 kJ/mol
# Density = 1.557925 g / cm^3
# Si number density = 15.614789 Si / 1000 Ang^3
#
#
#
# Elastic Constant Matrix: (Units=GPa)
#
#
# Indices 1 2 3 4 5 6 
#
# 1 113.9158 56.1708 39.2758 0.0000 -0.0001 -0.0001
# 2 56.1708 87.2901 42.1832 0.0001 0.0001 0.0001
# 3 39.2758 42.1832 50.7468 0.0019 0.0002 0.0000
# 4 0.0000 0.0001 0.0019 26.7287 0.0000 0.0000
# 5 -0.0001 0.0001 0.0002 0.0000 20.4457 -0.0001
# 6 -0.0001 0.0001 0.0000 0.0000 -0.0001 20.6117
#
#
#
# Elastic Compliance Matrix: (Units=1/GPa)
#
#
# Indices 1 2 3 4 5 6 
#
# 1 0.013713 -0.006177 -0.005479 0.000000 0.000000 0.000000
# 2 -0.006177 0.021930 -0.013449 0.000001 0.000000 0.000000
# 3 -0.005479 -0.013449 0.035125 -0.000002 0.000000 0.000000
# 4 0.000000 0.000001 -0.000002 0.037413 0.000000 0.000000
# 5 0.000000 0.000000 0.000000 0.000000 0.048910 0.000000
# 6 0.000000 0.000000 0.000000 0.000000 0.000000 0.048516
#
#
# Mechanical properties :
#
#
# Convention : Reuss Voigt Hill
#
# Bulk Modulus (GPa) = 48.63902 58.57917 53.60909
# Shear Modulus (GPa) = 19.03535 21.17874 20.10704
#
# Velocity S-wave (km/s) = 3.49529 3.68683 3.59234
# Velocity P-wave (km/s) = 6.89249 7.46460 7.18424
#
# Compressibility (1/GPa) = 0.02055963
#
# Stress axis : x y z
#
# Youngs Moduli (GPa) = 72.92309 45.60015 28.46939
#
# Poissons Ratio (x) = 0.28165 0.15599
# Poissons Ratio (y) = 0.45041 0.38288
# Poissons Ratio (z) = 0.39955 0.61326
#
# Static dielectric constant tensor:
#      x y z
#    x 3.437040 0.000000 0.000000 
#    y 0.000000 2.639510 0.000000 
#    z 0.000000 0.000000 2.914220 
# 
# 
# High freq. dielectric constant tensor:
#      x y z
#    x 1.611920 0.000000 0.000000 
#    y 0.000000 1.559810 0.000000 
#    z 0.000000 0.000000 1.592230 
# 
# From -- ./inp_files/11355.got.cif
#   From: 2010.06.25/outbox.cif.g09.slc.cpg/sg71_6_cif.got.tgz:11355.got - 2010.06.28 04:59:45.
