data_PCOD8288326
_publ_section_title
;
Structure prediction by ZEFSAII (Michael W. Deem and Ramdas Pophale) SiO2 
 PCOD8288326
Probable space group: I M M M
;
_chemical_formula_sum "Si O2"
_cell_formula_units_Z 104
_cell_length_a 7.985472
_cell_length_b 26.225280
_cell_length_c 27.561046
_cell_angle_alpha 90.000000
_cell_angle_beta 90.000000
_cell_angle_gamma 90.000000
_cell_volume 5771.868405
_symmetry_space_group_name_H-M "I M M M"
_symmetry_group_IT_number 71
_symmetry_cell_setting 'orthorhombic'
loop_
_space_group_symop_operation_xyz
x,y,z
-x,-y,z
x,-y,-z
-x,y,-z
-x,-y,-z
x,y,-z
-x,y,z
x,-y,z
1/2+x,1/2+y,1/2+z
1/2-x,1/2-y,1/2+z
1/2+x,1/2-y,1/2-z
1/2-x,1/2+y,1/2-z
1/2-x,1/2-y,1/2-z
1/2+x,1/2+y,1/2-z
1/2-x,1/2+y,1/2+z
1/2+x,1/2-y,1/2+z
loop_
_atom_site_type_symbol
_atom_site_label
_atom_site_fract_x
_atom_site_fract_y
_atom_site_fract_z
Si Si1 0.500000 0.187966 0.945564
Si Si2 0.693048 0.144382 0.804527
Si Si3 0.817796 0.306920 0.887760
Si Si4 0.500000 0.690066 0.944075
Si Si5 0.692606 0.298813 0.219217
Si Si6 0.678996 0.691029 0.394681
Si Si7 0.309713 0.058835 0.121212
Si Si8 0.500000 0.560763 0.555169
O O1 0.500000 0.248821 0.939096
O O2 0.335020 0.163339 0.921084
O O3 0.500000 0.169749 0.000000
O O4 0.500000 0.160372 0.802014
O O5 0.773659 0.149988 0.751186
O O6 0.790682 0.185840 0.837357
O O7 0.717261 0.088431 0.827795
O O8 0.664942 0.333339 0.917247
O O9 0.793239 0.306235 0.830227
O O10 0.827510 0.249853 0.908516
O O11 0.000000 0.333044 0.898426
O O12 0.500000 0.672718 0.000000
O O13 0.500000 0.293404 0.205049
O O14 0.750000 0.250000 0.250000
O O15 0.500000 0.665795 0.410133
O O16 0.500000 0.067615 0.101152
O O17 0.170306 0.078873 0.082919
O O18 0.279580 0.000000 0.133565
O O19 0.500000 0.500000 0.553000
O O20 0.500000 0.582675 0.500000
#
# Coordination Sequence:
#
# PCOD8288326 Si02
#       8
#     8  16  16   8  16  16  16   8
#     4   9  18  32  46  59  82 115 154 194 235 282
#     4  11  21  33  51  70  95 124 156 194 244 301
#     4  10  19  32  46  68  95 119 157 199 235 281
#     4   9  18  32  49  65  87 124 161 199 238 274
#     4  12  22  31  47  74 100 129 161 199 247 297
#     4  10  19  30  46  63  86 116 148 190 235 286
#     4   9  20  37  55  74  96 124 160 203 251 311
#     4   9  18  34  57  78  94 116 153 207 267 319
#
# _framework density 18.018429999999999
#
# number of rings (size 3 to 8) (size 9 to 14) (size 15 to 20)
#    0.000    1.923    3.077    1.846    2.154    0.923 
#    0.000    5.385    0.000    0.000    0.000    0.000 
#    0.000    0.000    0.000    0.000    0.000    1.538 
#
# Total GULP energy -644450.410930 kJ/mol
# GULP energy per Si atom -12393.277133 kJ/mol
# Density = 1.797742 g / cm^3
# Si number density = 18.018430 Si / 1000 Ang^3
#
#
#
# Elastic Constant Matrix: (Units=GPa)
#
#
# Indices 1 2 3 4 5 6 
#
# 1 167.4470 18.8981 66.0976 0.0000 0.0000 0.0000
# 2 18.8981 23.6845 11.8282 0.0000 0.0000 0.0000
# 3 66.0976 11.8282 110.4132 0.0000 0.0000 0.0000
# 4 0.0000 0.0000 0.0000 12.8600 0.0000 0.0000
# 5 0.0000 0.0000 0.0000 0.0000 25.3624 0.0000
# 6 0.0000 0.0000 0.0000 0.0000 0.0000 17.7220
#
#
#
# Elastic Compliance Matrix: (Units=1/GPa)
#
#
# Indices 1 2 3 4 5 6 
#
# 1 0.008220 -0.004333 -0.004457 0.000000 0.000000 0.000000
# 2 -0.004333 0.046892 -0.002429 0.000000 0.000000 0.000000
# 3 -0.004457 -0.002429 0.011985 0.000000 0.000000 0.000000
# 4 0.000000 0.000000 0.000000 0.077760 0.000000 0.000000
# 5 0.000000 0.000000 0.000000 0.000000 0.039429 0.000000
# 6 0.000000 0.000000 0.000000 0.000000 0.000000 0.056427
#
#
# Mechanical properties :
#
#
# Convention : Reuss Voigt Hill
#
# Bulk Modulus (GPa) = 22.39189 55.02140 38.70665
# Shear Modulus (GPa) = 17.98307 24.83693 21.41000
#
# Velocity S-wave (km/s) = 3.16260 3.71673 3.45081
# Velocity P-wave (km/s) = 5.07841 7.00152 6.11603
#
# Compressibility (1/GPa) = 0.04465902
#
# Stress axis : x y z
#
# Youngs Moduli (GPa) = 121.64896 21.32538 83.43649
#
# Poissons Ratio (x) = 0.09241 0.37186
# Poissons Ratio (y) = 0.52715 0.20270
# Poissons Ratio (z) = 0.54217 0.05181
#
# Static dielectric constant tensor:
#      x y z
#    x 3.926100 0.000000 0.000000 
#    y 0.000000 2.854790 0.000000 
#    z 0.000000 0.000000 3.298900 
# 
# 
# High freq. dielectric constant tensor:
#      x y z
#    x 1.732570 0.000000 0.000000 
#    y 0.000000 1.628290 0.000000 
#    z 0.000000 0.000000 1.681890 
# 
# From -- ./inp_files/58239.got.cif
#   From: 2010.06.25/outbox.cif.g09.slc.cpg/sg71_30_cif.got.tgz:58239.got - 2010.06.28 04:59:45.
