data_PCOD8288080
_publ_section_title
;
Structure prediction by ZEFSAII (Michael W. Deem and Ramdas Pophale) SiO2 
 PCOD8288080
Probable space group: I M M M
;
_chemical_formula_sum "Si O2"
_cell_formula_units_Z 104
_cell_length_a 27.320640
_cell_length_b 22.131365
_cell_length_c 8.945028
_cell_angle_alpha 90.000000
_cell_angle_beta 90.000000
_cell_angle_gamma 90.000000
_cell_volume 5408.549065
_symmetry_space_group_name_H-M "I M M M"
_symmetry_group_IT_number 71
_symmetry_cell_setting 'orthorhombic'
loop_
_space_group_symop_operation_xyz
x,y,z
-x,-y,z
x,-y,-z
-x,y,-z
-x,-y,-z
x,y,-z
-x,y,z
x,-y,z
1/2+x,1/2+y,1/2+z
1/2-x,1/2-y,1/2+z
1/2+x,1/2-y,1/2-z
1/2-x,1/2+y,1/2-z
1/2-x,1/2-y,1/2-z
1/2+x,1/2+y,1/2-z
1/2-x,1/2+y,1/2+z
1/2+x,1/2-y,1/2+z
loop_
_atom_site_type_symbol
_atom_site_label
_atom_site_fract_x
_atom_site_fract_y
_atom_site_fract_z
Si Si1 0.000000 0.568919 0.677200
Si Si2 0.944844 0.210690 0.173039
Si Si3 0.819344 0.000000 0.821202
Si Si4 0.638528 0.375098 0.671816
Si Si5 0.761198 0.187932 0.172727
Si Si6 0.177326 0.375041 0.828985
Si Si7 0.283955 0.000000 0.333423
Si Si8 0.419833 0.835804 0.822826
O O1 0.047440 0.607039 0.731556
O O2 0.000000 0.500000 0.743914
O O3 0.000000 0.564438 0.500000
O O4 0.909264 0.158269 0.241201
O O5 0.940752 0.273424 0.260381
O O6 0.000000 0.186269 0.189691
O O7 0.931179 0.223039 0.000000
O O8 0.847405 0.059607 0.756390
O O9 0.762232 0.000000 0.777055
O O10 0.818845 0.000000 0.000000
O O11 0.627681 0.388400 0.500000
O O12 0.682241 0.327805 0.693443
O O13 0.750000 0.250000 0.250000
O O14 0.729893 0.139002 0.259556
O O15 0.746011 0.189849 0.000000
O O16 0.176848 0.446662 0.812597
O O17 0.134864 0.344153 0.734869
O O18 0.173477 0.352369 0.000000
O O19 0.261068 0.000000 0.500000
O O20 0.420001 0.831319 0.000000
#
# Coordination Sequence:
#
# PCOD8288080 Si02
#       8
#     8  16   8  16  16  16   8  16
#     4   9  20  38  57  81 113 146 187 244 296 347
#     4  10  20  37  60  85 117 154 191 237 301 359
#     4  10  18  36  61  82 111 151 198 244 290 353
#     4   9  19  34  56  84 112 148 193 241 290 349
#     4  11  21  35  55  82 115 151 192 236 289 344
#     4  11  23  38  55  81 116 149 187 234 286 347
#     4  10  22  38  56  80 116 153 189 237 290 346
#     4  11  22  38  61  86 113 149 197 243 293 349
#
# _framework density 19.228818
#
# number of rings (size 3 to 8) (size 9 to 14) (size 15 to 20)
#    0.000    1.769    2.308    2.308    1.077    1.846 
#    0.000    1.923    0.000    4.154    0.000    0.000 
#    0.000    1.846    0.000    0.000    0.000    0.000 
#
# Total GULP energy -644581.516389 kJ/mol
# GULP energy per Si atom -12395.798392 kJ/mol
# Density = 1.918505 g / cm^3
# Si number density = 19.228818 Si / 1000 Ang^3
#
#
#
# Elastic Constant Matrix: (Units=GPa)
#
#
# Indices 1 2 3 4 5 6 
#
# 1 100.0988 33.3228 25.8852 0.0000 0.0000 0.0000
# 2 33.3228 111.3203 29.7811 0.0000 0.0000 0.0000
# 3 25.8852 29.7811 60.8336 0.0000 0.0000 0.0000
# 4 0.0000 0.0000 0.0000 25.2564 0.0000 0.0000
# 5 0.0000 0.0000 0.0000 0.0000 21.0523 0.0000
# 6 0.0000 0.0000 0.0000 0.0000 0.0000 34.0828
#
#
#
# Elastic Compliance Matrix: (Units=1/GPa)
#
#
# Indices 1 2 3 4 5 6 
#
# 1 0.011810 -0.002521 -0.003791 0.000000 0.000000 0.000000
# 2 -0.002521 0.010875 -0.004251 0.000000 0.000000 0.000000
# 3 -0.003791 -0.004251 0.020133 0.000000 0.000000 0.000000
# 4 0.000000 0.000000 0.000000 0.039594 0.000000 0.000000
# 5 0.000000 0.000000 0.000000 0.000000 0.047501 0.000000
# 6 0.000000 0.000000 0.000000 0.000000 0.000000 0.029340
#
#
# Mechanical properties :
#
#
# Convention : Reuss Voigt Hill
#
# Bulk Modulus (GPa) = 46.10203 50.02565 48.06384
# Shear Modulus (GPa) = 26.65121 28.29588 27.47355
#
# Velocity S-wave (km/s) = 3.72695 3.84022 3.78401
# Velocity P-wave (km/s) = 6.52286 6.76280 6.64392
#
# Compressibility (1/GPa) = 0.02169102
#
# Stress axis : x y z
#
# Youngs Moduli (GPa) = 84.67629 91.95391 49.67076
#
# Poissons Ratio (x) = 0.23181 0.18830
# Poissons Ratio (y) = 0.21346 0.21116
# Poissons Ratio (z) = 0.32101 0.39091
#
# Static dielectric constant tensor:
#      x y z
#    x 3.699720 0.000000 0.000000 
#    y 0.000000 3.549890 0.000000 
#    z 0.000000 0.000000 3.016630 
# 
# 
# High freq. dielectric constant tensor:
#      x y z
#    x 1.748900 0.000000 0.000000 
#    y 0.000000 1.759490 0.000000 
#    z 0.000000 0.000000 1.726070 
# 
# From -- ./inp_files/17067.got.cif
#   From: 2010.06.25/outbox.cif.g09.slc.cpg/sg71_9_cif.got.tgz:17067.got - 2010.06.28 04:59:45.
