data_PCOD8288587
_publ_section_title
;
Structure prediction by ZEFSAII (Michael W. Deem and Ramdas Pophale) SiO2 
 PCOD8288587
Probable space group: I M M M
;
_chemical_formula_sum "Si O2"
_cell_formula_units_Z 88
_cell_length_a 18.142201
_cell_length_b 8.907523
_cell_length_c 29.393054
_cell_angle_alpha 90.000000
_cell_angle_beta 90.000000
_cell_angle_gamma 90.000000
_cell_volume 4749.978449
_symmetry_space_group_name_H-M "I M M M"
_symmetry_group_IT_number 71
_symmetry_cell_setting 'orthorhombic'
loop_
_space_group_symop_operation_xyz
x,y,z
-x,-y,z
x,-y,-z
-x,y,-z
-x,-y,-z
x,y,-z
-x,y,z
x,-y,z
1/2+x,1/2+y,1/2+z
1/2-x,1/2-y,1/2+z
1/2+x,1/2-y,1/2-z
1/2-x,1/2+y,1/2-z
1/2-x,1/2-y,1/2-z
1/2+x,1/2+y,1/2-z
1/2-x,1/2+y,1/2+z
1/2+x,1/2-y,1/2+z
loop_
_atom_site_type_symbol
_atom_site_label
_atom_site_fract_x
_atom_site_fract_y
_atom_site_fract_z
Si Si1 0.500000 0.670525 0.445861
Si Si2 0.149244 0.671885 0.053912
Si Si3 0.421374 0.324270 0.242053
Si Si4 0.085444 0.176454 0.358862
Si Si5 0.215574 0.825798 0.206661
Si Si6 0.226181 0.678526 0.610831
O O1 0.500000 0.500000 0.427680
O O2 0.500000 0.675490 0.500000
O O3 0.574055 0.751359 0.427421
O O4 0.149397 0.500000 0.070246
O O5 0.222382 0.754666 0.071661
O O6 0.151945 0.684237 0.000000
O O7 0.500000 0.250183 0.253711
O O8 0.430552 0.500000 0.234112
O O9 0.394126 0.265280 0.192414
O O10 0.370840 0.291285 0.285634
O O11 0.141746 0.262340 0.392910
O O12 0.000000 0.216941 0.370235
O O13 0.098598 0.000000 0.364996
O O14 0.250000 0.750000 0.250000
O O15 0.240410 0.759888 0.158528
O O16 0.234997 0.000000 0.208702
O O17 0.227296 0.500000 0.606868
#
# Coordination Sequence:
#
# PCOD8288587 Si02
#       6
#     8  16  16  16  16  16
#     4   9  17  33  59  87 113 139 171 217 269 317
#     4  10  21  38  60  82 106 141 183 222 262 315
#     4   8  14  27  47  67  91 130 177 216 250 295
#     4   9  17  31  53  76  98 135 184 224 261 313
#     4  10  19  31  48  72 102 137 175 213 260 313
#     4  11  22  33  50  81 112 141 176 219 277 325
#
# _framework density 18.526399999999999
#
# number of rings (size 3 to 8) (size 9 to 14) (size 15 to 20)
#    0.000    2.455    1.818    2.455    0.000    3.273 
#    1.636    0.000    0.000    1.091    0.000    3.818 
#    0.000    0.000    0.000    0.000    0.000    0.000 
#
# Total GULP energy -545212.466558 kJ/mol
# GULP energy per Si atom -12391.192422 kJ/mol
# Density = 1.848423 g / cm^3
# Si number density = 18.526400 Si / 1000 Ang^3
#
#
#
# Elastic Constant Matrix: (Units=GPa)
#
#
# Indices 1 2 3 4 5 6 
#
# 1 126.1617 54.5643 29.0627 0.0000 0.0000 0.0000
# 2 54.5643 83.2788 24.1345 0.0000 0.0000 0.0000
# 3 29.0627 24.1345 29.6815 0.0000 0.0000 0.0000
# 4 0.0000 0.0000 0.0000 20.6761 0.0000 0.0000
# 5 0.0000 0.0000 0.0000 0.0000 24.0225 0.0000
# 6 0.0000 0.0000 0.0000 0.0000 0.0000 30.7766
#
#
#
# Elastic Compliance Matrix: (Units=1/GPa)
#
#
# Indices 1 2 3 4 5 6 
#
# 1 0.012096 -0.005878 -0.007064 0.000000 0.000000 0.000000
# 2 -0.005878 0.018566 -0.009341 0.000000 0.000000 0.000000
# 3 -0.007064 -0.009341 0.048203 0.000000 0.000000 0.000000
# 4 0.000000 0.000000 0.000000 0.048365 0.000000 0.000000
# 5 0.000000 0.000000 0.000000 0.000000 0.041628 0.000000
# 6 0.000000 0.000000 0.000000 0.000000 0.000000 0.032492
#
#
# Mechanical properties :
#
#
# Convention : Reuss Voigt Hill
#
# Bulk Modulus (GPa) = 29.15542 50.51612 39.83577
# Shear Modulus (GPa) = 19.42881 23.85239 21.64060
#
# Velocity S-wave (km/s) = 3.24189 3.59204 3.42145
# Velocity P-wave (km/s) = 5.45752 6.67308 6.09568
#
# Compressibility (1/GPa) = 0.03429894
#
# Stress axis : x y z
#
# Youngs Moduli (GPa) = 82.67293 53.86138 20.74544
#
# Poissons Ratio (x) = 0.31660 0.14655
# Poissons Ratio (y) = 0.48595 0.19378
# Poissons Ratio (z) = 0.58402 0.50312
#
# Static dielectric constant tensor:
#      x y z
#    x 3.597720 0.000000 0.000000 
#    y 0.000000 3.290410 0.000000 
#    z 0.000000 0.000000 3.001650 
# 
# 
# High freq. dielectric constant tensor:
#      x y z
#    x 1.736430 0.000000 0.000000 
#    y 0.000000 1.704790 0.000000 
#    z 0.000000 0.000000 1.679080 
# 
# From -- ./inp_files/42451.got.cif
#   From: 2010.06.25/outbox.cif.g09.slc.cpg/sg71_22_cif.got.tgz:42451.got - 2010.06.28 04:59:45.
