data_PCOD8288467
_publ_section_title
;
Structure prediction by ZEFSAII (Michael W. Deem and Ramdas Pophale) SiO2 
 PCOD8288467
Probable space group: I M M M
;
_chemical_formula_sum "Si O2"
_cell_formula_units_Z 80
_cell_length_a 29.450216
_cell_length_b 18.442747
_cell_length_c 7.867910
_cell_angle_alpha 90.000000
_cell_angle_beta 90.000000
_cell_angle_gamma 90.000000
_cell_volume 4273.399319
_symmetry_space_group_name_H-M "I M M M"
_symmetry_group_IT_number 71
_symmetry_cell_setting 'orthorhombic'
loop_
_space_group_symop_operation_xyz
x,y,z
-x,-y,z
x,-y,-z
-x,y,-z
-x,-y,-z
x,y,-z
-x,y,z
x,-y,z
1/2+x,1/2+y,1/2+z
1/2-x,1/2-y,1/2+z
1/2+x,1/2-y,1/2-z
1/2-x,1/2+y,1/2-z
1/2-x,1/2-y,1/2-z
1/2+x,1/2+y,1/2-z
1/2-x,1/2+y,1/2+z
1/2+x,1/2-y,1/2+z
loop_
_atom_site_type_symbol
_atom_site_label
_atom_site_fract_x
_atom_site_fract_y
_atom_site_fract_z
Si Si1 0.309200 0.086126 0.312480
Si Si2 0.448266 0.702139 0.689619
Si Si3 0.052968 0.696120 0.500000
Si Si4 0.883567 0.917507 0.694511
Si Si5 0.870074 0.586092 0.500000
Si Si6 0.213470 0.913928 0.809225
O O1 0.325699 0.111738 0.500000
O O2 0.258461 0.117461 0.281718
O O3 0.307551 0.000000 0.302629
O O4 0.343228 0.114123 0.166924
O O5 0.443627 0.736120 0.500000
O O6 0.500000 0.678429 0.726008
O O7 0.432842 0.759775 0.831243
O O8 0.417482 0.630701 0.695683
O O9 0.080259 0.621141 0.500000
O O10 0.000000 0.676210 0.500000
O O11 0.898607 0.912515 0.500000
O O12 0.831949 0.888408 0.712543
O O13 0.886877 0.000000 0.762385
O O14 0.876326 0.500000 0.500000
O O15 0.216402 0.000000 0.808797
O O16 0.211754 0.883465 0.000000
#
# Coordination Sequence:
#
# PCOD8288467 Si02
#       6
#    16  16   8  16   8  16
#     4   9  16  28  48  77 111 142 172 210 259 319
#     4  10  21  38  58  78 103 144 190 225 269 326
#     4  10  22  41  61  80 106 139 179 223 271 335
#     4  10  19  30  49  81 114 145 185 232 274 306
#     4  10  20  35  58  87 111 134 171 221 275 327
#     4   9  15  25  43  72 110 145 180 218 257 308
#
# _framework density 18.720459999999999
#
# number of rings (size 3 to 8) (size 9 to 14) (size 15 to 20)
#    0.000    2.400    2.000    1.200    0.000    5.000 
#    0.000    2.000    0.000    1.200    0.000    5.600 
#    0.000    0.000    0.000    0.000    0.000    0.000 
#
# Total GULP energy -495881.192762 kJ/mol
# GULP energy per Si atom -12397.029819 kJ/mol
# Density = 1.867785 g / cm^3
# Si number density = 18.720460 Si / 1000 Ang^3
#
#
#
# Elastic Constant Matrix: (Units=GPa)
#
#
# Indices 1 2 3 4 5 6 
#
# 1 107.0402 45.2618 44.4418 0.0000 0.0000 0.0000
# 2 45.2618 42.5084 29.1699 0.0000 0.0000 0.0000
# 3 44.4418 29.1699 137.8657 0.0000 0.0000 0.0000
# 4 0.0000 0.0000 0.0000 10.6832 0.0000 0.0000
# 5 0.0000 0.0000 0.0000 0.0000 24.7976 0.0000
# 6 0.0000 0.0000 0.0000 0.0000 0.0000 11.2383
#
#
#
# Elastic Compliance Matrix: (Units=1/GPa)
#
#
# Indices 1 2 3 4 5 6 
#
# 1 0.017444 -0.017214 -0.001981 0.000000 0.000000 0.000000
# 2 -0.017214 0.044509 -0.003868 0.000000 0.000000 0.000000
# 3 -0.001981 -0.003868 0.008710 0.000000 0.000000 0.000000
# 4 0.000000 0.000000 0.000000 0.093605 0.000000 0.000000
# 5 0.000000 0.000000 0.000000 0.000000 0.040326 0.000000
# 6 0.000000 0.000000 0.000000 0.000000 0.000000 0.088982
#
#
# Mechanical properties :
#
#
# Convention : Reuss Voigt Hill
#
# Bulk Modulus (GPa) = 40.75623 58.35125 49.55374
# Shear Modulus (GPa) = 14.37272 20.57987 17.47629
#
# Velocity S-wave (km/s) = 2.77384 3.31920 3.05870
# Velocity P-wave (km/s) = 5.66367 6.77694 6.24516
#
# Compressibility (1/GPa) = 0.02453612
#
# Stress axis : x y z
#
# Youngs Moduli (GPa) = 57.32695 22.46759 114.80559
#
# Poissons Ratio (x) = 0.38677 0.22741
# Poissons Ratio (y) = 0.98685 0.44407
# Poissons Ratio (z) = 0.11356 0.08691
#
# Static dielectric constant tensor:
#      x y z
#    x 3.468260 0.000000 0.000000 
#    y 0.000000 2.824630 0.000000 
#    z 0.000000 0.000000 3.715360 
# 
# 
# High freq. dielectric constant tensor:
#      x y z
#    x 1.729420 0.000000 0.000000 
#    y 0.000000 1.662360 0.000000 
#    z 0.000000 0.000000 1.746370 
# 
# From -- ./inp_files/16574.got.cif
#   From: 2010.06.25/outbox.cif.g09.slc.cpg/sg71_9_cif.got.tgz:16574.got - 2010.06.28 04:59:45.
