data_PCOD8288248
_publ_section_title
;
Structure prediction by ZEFSAII (Michael W. Deem and Ramdas Pophale) SiO2 
 PCOD8288248
Probable space group: I M M M
;
_chemical_formula_sum "Si O2"
_cell_formula_units_Z 80
_cell_length_a 31.444758
_cell_length_b 17.795043
_cell_length_c 7.653408
_cell_angle_alpha 90.000000
_cell_angle_beta 90.000000
_cell_angle_gamma 90.000000
_cell_volume 4282.547262
_symmetry_space_group_name_H-M "I M M M"
_symmetry_group_IT_number 71
_symmetry_cell_setting 'orthorhombic'
loop_
_space_group_symop_operation_xyz
x,y,z
-x,-y,z
x,-y,-z
-x,y,-z
-x,-y,-z
x,y,-z
-x,y,z
x,-y,z
1/2+x,1/2+y,1/2+z
1/2-x,1/2-y,1/2+z
1/2+x,1/2-y,1/2-z
1/2-x,1/2+y,1/2-z
1/2-x,1/2-y,1/2-z
1/2+x,1/2+y,1/2-z
1/2-x,1/2+y,1/2+z
1/2+x,1/2-y,1/2+z
loop_
_atom_site_type_symbol
_atom_site_label
_atom_site_fract_x
_atom_site_fract_y
_atom_site_fract_z
Si Si1 0.097027 0.917388 0.500000
Si Si2 0.393461 0.211906 0.695316
Si Si3 0.168189 0.414702 0.707552
Si Si4 0.950064 0.764988 0.500000
Si Si5 0.654697 0.362074 0.702081
Si Si6 0.751921 0.163518 0.204330
O O1 0.061004 0.853585 0.500000
O O2 0.125469 0.912557 0.325472
O O3 0.075469 0.000000 0.500000
O O4 0.412366 0.217906 0.500000
O O5 0.371912 0.131060 0.720054
O O6 0.431993 0.223768 0.828945
O O7 0.357447 0.274689 0.727662
O O8 0.168410 0.408983 0.500000
O O9 0.163403 0.500000 0.772263
O O10 0.212164 0.381268 0.787460
O O11 0.000000 0.755045 0.500000
O O12 0.648626 0.387113 0.500000
O O13 0.703253 0.371250 0.768080
O O14 0.750000 0.250000 0.250000
O O15 0.749980 0.153381 0.000000
#
# Coordination Sequence:
#
# PCOD8288248 Si02
#       6
#     8  16  16   8  16  16
#     4  10  22  37  58  85 115 150 188 231 280 336
#     4  10  19  35  59  84 109 144 188 228 279 339
#     4  10  20  33  51  78 113 153 193 236 284 328
#     4  10  22  41  65  88 112 139 177 232 292 352
#     4   9  19  34  53  78 110 155 198 233 272 321
#     4  10  19  29  50  75 108 154 198 240 275 314
#
# _framework density 18.680471000000001
#
# number of rings (size 3 to 8) (size 9 to 14) (size 15 to 20)
#    0.000    2.200    3.000    0.000    1.400    2.200 
#    0.000    2.000    0.000    1.200    0.000    7.000 
#    0.000    0.000    0.000    0.000    0.000    0.000 
#
# Total GULP energy -495938.700307 kJ/mol
# GULP energy per Si atom -12398.467508 kJ/mol
# Density = 1.863795 g / cm^3
# Si number density = 18.680471 Si / 1000 Ang^3
#
#
#
# Elastic Constant Matrix: (Units=GPa)
#
#
# Indices 1 2 3 4 5 6 
#
# 1 135.6072 49.0387 51.0391 0.0000 0.0000 0.0000
# 2 49.0387 115.8325 31.2356 0.0000 0.0000 0.0000
# 3 51.0391 31.2356 88.4790 0.0000 0.0000 0.0000
# 4 0.0000 0.0000 0.0000 15.5998 0.0000 0.0000
# 5 0.0000 0.0000 0.0000 0.0000 15.4075 0.0000
# 6 0.0000 0.0000 0.0000 0.0000 0.0000 17.2162
#
#
#
# Elastic Compliance Matrix: (Units=1/GPa)
#
#
# Indices 1 2 3 4 5 6 
#
# 1 0.010311 -0.003052 -0.004871 0.000000 0.000000 0.000000
# 2 -0.003052 0.010445 -0.001927 0.000000 0.000000 0.000000
# 3 -0.004871 -0.001927 0.014792 0.000000 0.000000 0.000000
# 4 0.000000 0.000000 0.000000 0.064103 0.000000 0.000000
# 5 0.000000 0.000000 0.000000 0.000000 0.064903 0.000000
# 6 0.000000 0.000000 0.000000 0.000000 0.000000 0.058085
#
#
# Mechanical properties :
#
#
# Convention : Reuss Voigt Hill
#
# Bulk Modulus (GPa) = 63.09437 66.94948 65.02193
# Shear Modulus (GPa) = 20.19217 23.55172 21.87194
#
# Velocity S-wave (km/s) = 3.29131 3.55458 3.42547
# Velocity P-wave (km/s) = 6.94928 7.26387 7.10832
#
# Compressibility (1/GPa) = 0.01584927
#
# Stress axis : x y z
#
# Youngs Moduli (GPa) = 96.98381 95.74157 67.60455
#
# Poissons Ratio (x) = 0.29219 0.32927
# Poissons Ratio (y) = 0.29598 0.13026
# Poissons Ratio (z) = 0.47236 0.18448
#
# Static dielectric constant tensor:
#      x y z
#    x 3.176460 0.000000 0.000000 
#    y 0.000000 3.389650 0.000000 
#    z 0.000000 0.000000 3.552300 
# 
# 
# High freq. dielectric constant tensor:
#      x y z
#    x 1.693820 0.000000 0.000000 
#    y 0.000000 1.715510 0.000000 
#    z 0.000000 0.000000 1.732170 
# 
# From -- ./inp_files/8422.got.cif
#   From: 2010.06.25/outbox.cif.g09.slc.cpg/sg71_5_cif.got.tgz:8422.got - 2010.06.28 04:59:45.
