data_PCOD8288497
_publ_section_title
;
Structure prediction by ZEFSAII (Michael W. Deem and Ramdas Pophale) SiO2 
 PCOD8288497
Probable space group: I M M M
;
_chemical_formula_sum "Si O2"
_cell_formula_units_Z 104
_cell_length_a 28.910326
_cell_length_b 9.389638
_cell_length_c 27.581514
_cell_angle_alpha 90.000000
_cell_angle_beta 90.000000
_cell_angle_gamma 90.000000
_cell_volume 7487.208715
_symmetry_space_group_name_H-M "I M M M"
_symmetry_group_IT_number 71
_symmetry_cell_setting 'orthorhombic'
loop_
_space_group_symop_operation_xyz
x,y,z
-x,-y,z
x,-y,-z
-x,y,-z
-x,-y,-z
x,y,-z
-x,y,z
x,-y,z
1/2+x,1/2+y,1/2+z
1/2-x,1/2-y,1/2+z
1/2+x,1/2-y,1/2-z
1/2-x,1/2+y,1/2-z
1/2-x,1/2-y,1/2-z
1/2+x,1/2+y,1/2-z
1/2-x,1/2+y,1/2+z
1/2+x,1/2-y,1/2+z
loop_
_atom_site_type_symbol
_atom_site_label
_atom_site_fract_x
_atom_site_fract_y
_atom_site_fract_z
Si Si1 0.075918 0.664979 0.097808
Si Si2 0.447428 0.661647 0.691150
Si Si3 0.289927 0.338423 0.641210
Si Si4 0.176831 0.664627 0.055636
Si Si5 0.147739 0.163416 0.767715
Si Si6 0.215942 0.336356 0.283864
Si Si7 0.000000 0.152189 0.053918
O O1 0.062154 0.500000 0.097252
O O2 0.066286 0.725027 0.150872
O O3 0.127013 0.690049 0.078795
O O4 0.044603 0.752982 0.061785
O O5 0.500000 0.691029 0.710324
O O6 0.443912 0.500000 0.670983
O O7 0.408071 0.681484 0.732259
O O8 0.301754 0.500000 0.626999
O O9 0.288969 0.248031 0.591622
O O10 0.328289 0.287237 0.681174
O O11 0.237545 0.326182 0.662283
O O12 0.190705 0.500000 0.056363
O O13 0.179113 0.721628 0.000000
O O14 0.166007 0.260597 0.722940
O O15 0.162286 0.000000 0.758173
O O16 0.212114 0.500000 0.267124
O O17 0.250000 0.250000 0.250000
O O18 0.000000 0.000000 0.083963
O O19 0.000000 0.101905 0.000000
#
# Coordination Sequence:
#
# PCOD8288497 Si02
#       7
#    16  16  16  16  16  16   8
#     4  11  21  32  45  59  75  97 130 173 215 251
#     4  10  19  31  46  61  82 109 137 170 207 248
#     4   9  17  29  44  62  81 102 132 168 202 245
#     4  10  21  33  43  58  80 105 133 167 210 253
#     4   9  17  29  44  63  84 105 133 166 203 247
#     4   9  17  28  43  64  84 102 127 161 206 250
#     4  11  23  35  45  55  67  91 129 171 217 263
#
# _framework density 13.890357
#
# number of rings (size 3 to 8) (size 9 to 14) (size 15 to 20)
#    0.000    2.231    2.308    2.538    0.000    5.846 
#    0.000    0.000    0.000    0.000    0.000    0.000 
#    0.000    0.000    0.000    0.000    0.000    0.769 
#
# Total GULP energy -644211.234508 kJ/mol
# GULP energy per Si atom -12388.677587 kJ/mol
# Density = 1.385874 g / cm^3
# Si number density = 13.890357 Si / 1000 Ang^3
#
#
#
# Elastic Constant Matrix: (Units=GPa)
#
#
# Indices 1 2 3 4 5 6 
#
# 1 78.1528 41.4029 42.6990 0.0000 0.0000 0.0000
# 2 41.4029 81.7975 37.3712 0.0000 0.0000 0.0000
# 3 42.6990 37.3712 46.5711 0.0000 0.0000 0.0000
# 4 0.0000 0.0000 0.0000 22.0743 0.0000 0.0000
# 5 0.0000 0.0000 0.0000 0.0000 22.4954 0.0000
# 6 0.0000 0.0000 0.0000 0.0000 0.0000 19.0904
#
#
#
# Elastic Compliance Matrix: (Units=1/GPa)
#
#
# Indices 1 2 3 4 5 6 
#
# 1 0.026302 -0.003624 -0.021207 0.000000 0.000000 0.000000
# 2 -0.003624 0.019801 -0.012567 0.000000 0.000000 0.000000
# 3 -0.021207 -0.012567 0.051000 0.000000 0.000000 0.000000
# 4 0.000000 0.000000 0.000000 0.045302 0.000000 0.000000
# 5 0.000000 0.000000 0.000000 0.000000 0.044454 0.000000
# 6 0.000000 0.000000 0.000000 0.000000 0.000000 0.052382
#
#
# Mechanical properties :
#
#
# Convention : Reuss Voigt Hill
#
# Bulk Modulus (GPa) = 44.82688 49.94085 47.38386
# Shear Modulus (GPa) = 15.55347 18.40191 16.97769
#
# Velocity S-wave (km/s) = 3.34987 3.64373 3.49988
# Velocity P-wave (km/s) = 6.87780 7.33035 7.10768
#
# Compressibility (1/GPa) = 0.02230804
#
# Stress axis : x y z
#
# Youngs Moduli (GPa) = 38.02025 50.50226 19.60776
#
# Poissons Ratio (x) = 0.18303 0.41582
# Poissons Ratio (y) = 0.13779 0.24640
# Poissons Ratio (z) = 0.80628 0.63464
#
# Static dielectric constant tensor:
#      x y z
#    x 2.979300 0.000000 0.000000 
#    y 0.000000 2.936670 0.000000 
#    z 0.000000 0.000000 2.615270 
# 
# 
# High freq. dielectric constant tensor:
#      x y z
#    x 1.512470 0.000000 0.000000 
#    y 0.000000 1.545650 0.000000 
#    z 0.000000 0.000000 1.485630 
# 
# From -- ./inp_files/62275.got.cif
#   From: 2010.06.25/outbox.cif.g09.slc.cpg/sg71_32_cif.got.tgz:62275.got - 2010.06.28 04:59:45.
