data_PCOD8288251
_publ_section_title
;
Structure prediction by ZEFSAII (Michael W. Deem and Ramdas Pophale) SiO2 
 PCOD8288251
Probable space group: I M M M
;
_chemical_formula_sum "Si O2"
_cell_formula_units_Z 88
_cell_length_a 27.567209
_cell_length_b 13.506985
_cell_length_c 14.961875
_cell_angle_alpha 90.000000
_cell_angle_beta 90.000000
_cell_angle_gamma 90.000000
_cell_volume 5571.052338
_symmetry_space_group_name_H-M "I M M M"
_symmetry_group_IT_number 71
_symmetry_cell_setting 'orthorhombic'
loop_
_space_group_symop_operation_xyz
x,y,z
-x,-y,z
x,-y,-z
-x,y,-z
-x,-y,-z
x,y,-z
-x,y,z
x,-y,z
1/2+x,1/2+y,1/2+z
1/2-x,1/2-y,1/2+z
1/2+x,1/2-y,1/2-z
1/2-x,1/2+y,1/2-z
1/2-x,1/2-y,1/2-z
1/2+x,1/2+y,1/2-z
1/2-x,1/2+y,1/2+z
1/2+x,1/2-y,1/2+z
loop_
_atom_site_type_symbol
_atom_site_label
_atom_site_fract_x
_atom_site_fract_y
_atom_site_fract_z
Si Si1 0.905736 0.612369 0.102287
Si Si2 0.780822 0.112589 0.397687
Si Si3 0.646623 0.615523 0.256933
Si Si4 0.055096 0.208064 0.182252
Si Si5 0.557482 0.390470 0.500000
Si Si6 0.188185 0.738587 0.101796
O O1 0.906886 0.500000 0.135658
O O2 0.941135 0.673589 0.169160
O O3 0.851508 0.652684 0.112124
O O4 0.924312 0.620510 0.000000
O O5 0.796612 0.129074 0.500000
O O6 0.827785 0.134108 0.337619
O O7 0.738741 0.188467 0.369954
O O8 0.762332 0.000000 0.382876
O O9 0.642528 0.500000 0.280611
O O10 0.592410 0.662768 0.245860
O O11 0.677495 0.668671 0.334512
O O12 0.000000 0.176631 0.205942
O O13 0.075506 0.165393 0.087978
O O14 0.579841 0.500000 0.500000
O O15 0.500000 0.393942 0.500000
O O16 0.190103 0.777750 0.000000
#
# Coordination Sequence:
#
# PCOD8288251 Si02
#       6
#    16  16  16  16   8  16
#     4   9  16  26  41  62  88 116 146 178 211 252
#     4   9  17  31  50  68  86 112 147 184 223 264
#     4  10  20  30  44  66  90 118 150 184 216 252
#     4  10  19  30  41  59  86 117 152 182 216 261
#     4   9  16  26  39  53  75 113 150 172 199 251
#     4   9  17  29  45  66  93 120 143 170 213 267
#
# _framework density 15.795939000000001
#
# number of rings (size 3 to 8) (size 9 to 14) (size 15 to 20)
#    0.000    2.636    0.909    1.636    1.273    4.000 
#    0.000    0.909    0.000    0.545    0.000    2.545 
#    0.000    0.000    0.000    6.545    0.000    0.000 
#
# Total GULP energy -545477.854350 kJ/mol
# GULP energy per Si atom -12397.223963 kJ/mol
# Density = 1.575999 g / cm^3
# Si number density = 15.795939 Si / 1000 Ang^3
#
#
#
# Elastic Constant Matrix: (Units=GPa)
#
#
# Indices 1 2 3 4 5 6 
#
# 1 99.4861 40.6282 42.5512 0.0000 0.0000 0.0000
# 2 40.6282 107.8839 35.0202 0.0000 0.0000 0.0000
# 3 42.5512 35.0202 52.4376 0.0000 0.0000 0.0000
# 4 0.0000 0.0000 0.0000 19.6403 0.0000 0.0000
# 5 0.0000 0.0000 0.0000 0.0000 21.5936 0.0000
# 6 0.0000 0.0000 0.0000 0.0000 0.0000 18.6907
#
#
#
# Elastic Compliance Matrix: (Units=1/GPa)
#
#
# Indices 1 2 3 4 5 6 
#
# 1 0.015825 -0.002287 -0.011314 0.000000 0.000000 0.000000
# 2 -0.002287 0.012165 -0.006269 0.000000 0.000000 0.000000
# 3 -0.011314 -0.006269 0.032438 0.000000 0.000000 0.000000
# 4 0.000000 0.000000 0.000000 0.050916 0.000000 0.000000
# 5 0.000000 0.000000 0.000000 0.000000 0.046310 0.000000
# 6 0.000000 0.000000 0.000000 0.000000 0.000000 0.053502
#
#
# Mechanical properties :
#
#
# Convention : Reuss Voigt Hill
#
# Bulk Modulus (GPa) = 48.33596 55.13409 51.73502
# Shear Modulus (GPa) = 19.39554 21.42546 20.41050
#
# Velocity S-wave (km/s) = 3.50792 3.68692 3.59853
# Velocity P-wave (km/s) = 6.86105 7.28726 7.07736
#
# Compressibility (1/GPa) = 0.02068853
#
# Stress axis : x y z
#
# Youngs Moduli (GPa) = 63.19285 82.20048 30.82833
#
# Poissons Ratio (x) = 0.18798 0.34879
# Poissons Ratio (y) = 0.14451 0.19326
# Poissons Ratio (z) = 0.71495 0.51531
#
# Static dielectric constant tensor:
#      x y z
#    x 2.955910 0.000000 0.000000 
#    y 0.000000 3.125560 0.000000 
#    z 0.000000 0.000000 2.792010 
# 
# 
# High freq. dielectric constant tensor:
#      x y z
#    x 1.603750 0.000000 0.000000 
#    y 0.000000 1.614340 0.000000 
#    z 0.000000 0.000000 1.564670 
# 
# From -- ./inp_files/22290.got.cif
#   From: 2010.06.25/outbox.cif.g09.slc.cpg/sg71_12_cif.got.tgz:22290.got - 2010.06.28 04:59:45.
