data_PCOD8288867
_publ_section_title
;
Structure prediction by ZEFSAII (Michael W. Deem and Ramdas Pophale) SiO2 
 PCOD8288867
Probable space group: I M M M
;
_chemical_formula_sum "Si O2"
_cell_formula_units_Z 96
_cell_length_a 19.393357
_cell_length_b 31.234103
_cell_length_c 8.952913
_cell_angle_alpha 90.000000
_cell_angle_beta 90.000000
_cell_angle_gamma 90.000000
_cell_volume 5423.084788
_symmetry_space_group_name_H-M "I M M M"
_symmetry_group_IT_number 71
_symmetry_cell_setting 'orthorhombic'
loop_
_space_group_symop_operation_xyz
x,y,z
-x,-y,z
x,-y,-z
-x,y,-z
-x,-y,-z
x,y,-z
-x,y,z
x,-y,z
1/2+x,1/2+y,1/2+z
1/2-x,1/2-y,1/2+z
1/2+x,1/2-y,1/2-z
1/2-x,1/2+y,1/2-z
1/2-x,1/2-y,1/2-z
1/2+x,1/2+y,1/2-z
1/2-x,1/2+y,1/2+z
1/2+x,1/2-y,1/2+z
loop_
_atom_site_type_symbol
_atom_site_label
_atom_site_fract_x
_atom_site_fract_y
_atom_site_fract_z
Si Si1 0.922465 0.838790 0.675729
Si Si2 0.163926 0.500000 0.662448
Si Si3 0.580349 0.839651 0.325616
Si Si4 0.321063 0.413347 0.177892
Si Si5 0.581893 0.255171 0.665177
Si Si6 0.672809 0.500000 0.666131
Si Si7 0.174740 0.408527 0.321203
O O1 0.923880 0.836878 0.500000
O O2 0.874921 0.877378 0.731233
O O3 0.890987 0.793411 0.730430
O O4 0.000000 0.845729 0.739077
O O5 0.128649 0.500000 0.500000
O O6 0.245890 0.500000 0.648637
O O7 0.144554 0.545320 0.740565
O O8 0.595658 0.847971 0.500000
O O9 0.500000 0.845988 0.291126
O O10 0.605722 0.791883 0.279398
O O11 0.621457 0.872210 0.222469
O O12 0.350043 0.457955 0.242609
O O13 0.247835 0.399437 0.245072
O O14 0.315017 0.416803 0.000000
O O15 0.611413 0.263668 0.500000
O O16 0.500000 0.254321 0.661084
O O17 0.639135 0.500000 0.500000
O O18 0.184512 0.410629 0.500000
#
# Coordination Sequence:
#
# PCOD8288867 Si02
#       7
#    16   8  16  16  16   8  16
#     4   9  18  32  50  73  99 126 160 202 243 287
#     4   7  14  29  46  65  90 120 153 191 232 273
#     4   9  18  33  51  72  99 128 160 200 244 291
#     4  10  19  32  51  73  98 129 162 197 243 292
#     4   8  15  29  49  70  93 125 161 196 239 290
#     4   9  17  31  50  71  96 126 163 202 236 280
#     4  10  19  32  51  73  97 126 162 203 244 286
#
# _framework density 17.702102
#
# number of rings (size 3 to 8) (size 9 to 14) (size 15 to 20)
#    0.000    3.000    0.000    3.250    0.000    2.333 
#    0.000    4.583    0.000    5.000    0.000    0.000 
#    0.000    0.000    0.000    0.000    0.000    0.000 
#
# Total GULP energy -594772.177590 kJ/mol
# GULP energy per Si atom -12391.087033 kJ/mol
# Density = 1.766181 g / cm^3
# Si number density = 17.702102 Si / 1000 Ang^3
#
#
#
# Elastic Constant Matrix: (Units=GPa)
#
#
# Indices 1 2 3 4 5 6 
#
# 1 51.8923 57.7640 28.7853 -0.0006 0.0006 0.0001
# 2 57.7640 175.7004 50.0793 0.0011 0.0006 0.0003
# 3 28.7853 50.0793 57.5083 0.0074 0.0047 0.0036
# 4 -0.0006 0.0011 0.0074 34.0122 0.0006 0.0005
# 5 0.0006 0.0006 0.0047 0.0006 17.8592 0.0002
# 6 0.0001 0.0003 0.0036 0.0005 0.0002 30.8197
#
#
#
# Elastic Compliance Matrix: (Units=1/GPa)
#
#
# Indices 1 2 3 4 5 6 
#
# 1 0.034025 -0.008422 -0.009696 0.000003 0.000002 0.000001
# 2 -0.008422 0.009655 -0.004192 0.000000 0.000001 0.000000
# 3 -0.009696 -0.004192 0.025893 -0.000006 -0.000006 -0.000003
# 4 0.000003 0.000000 -0.000006 0.029401 -0.000001 0.000000
# 5 0.000002 0.000001 -0.000006 -0.000001 0.055993 0.000000
# 6 0.000001 0.000000 -0.000003 0.000000 0.000000 0.032447
#
#
# Mechanical properties :
#
#
# Convention : Reuss Voigt Hill
#
# Bulk Modulus (GPa) = 40.07877 62.03980 51.05928
# Shear Modulus (GPa) = 20.80263 26.43639 23.61951
#
# Velocity S-wave (km/s) = 3.43177 3.86865 3.65674
# Velocity P-wave (km/s) = 6.19617 7.42145 6.83632
#
# Compressibility (1/GPa) = 0.02495087
#
# Stress axis : x y z
#
# Youngs Moduli (GPa) = 29.39030 103.56880 38.62032
#
# Poissons Ratio (x) = 0.87230 0.37448
# Poissons Ratio (y) = 0.24754 0.16191
# Poissons Ratio (z) = 0.28498 0.43420
#
# Static dielectric constant tensor:
#      x y z
#    x 2.980380 0.000000 0.000000 
#    y 0.000000 3.774140 -0.000010 
#    z 0.000000 -0.000010 3.240080 
# 
# 
# High freq. dielectric constant tensor:
#      x y z
#    x 1.641420 0.000000 0.000000 
#    y 0.000000 1.706210 0.000000 
#    z 0.000000 0.000000 1.678190 
# 
# From -- ./inp_files/13229.got.cif
#   From: 2010.06.25/outbox.cif.g09.slc.cpg/sg71_7_cif.got.tgz:13229.got - 2010.06.28 04:59:45.
