data_PCOD8288491
_publ_section_title
;
Structure prediction by ZEFSAII (Michael W. Deem and Ramdas Pophale) SiO2 
 PCOD8288491
Probable space group: I M M M
;
_chemical_formula_sum "Si O2"
_cell_formula_units_Z 80
_cell_length_a 9.827688
_cell_length_b 29.598396
_cell_length_c 19.057306
_cell_angle_alpha 90.000000
_cell_angle_beta 90.000000
_cell_angle_gamma 90.000000
_cell_volume 5543.461610
_symmetry_space_group_name_H-M "I M M M"
_symmetry_group_IT_number 71
_symmetry_cell_setting 'orthorhombic'
loop_
_space_group_symop_operation_xyz
x,y,z
-x,-y,z
x,-y,-z
-x,y,-z
-x,-y,-z
x,y,-z
-x,y,z
x,-y,z
1/2+x,1/2+y,1/2+z
1/2-x,1/2-y,1/2+z
1/2+x,1/2-y,1/2-z
1/2-x,1/2+y,1/2-z
1/2-x,1/2-y,1/2-z
1/2+x,1/2+y,1/2-z
1/2-x,1/2+y,1/2+z
1/2+x,1/2-y,1/2+z
loop_
_atom_site_type_symbol
_atom_site_label
_atom_site_fract_x
_atom_site_fract_y
_atom_site_fract_z
Si Si1 0.159833 0.684700 0.713358
Si Si2 0.238834 0.394917 0.371239
Si Si3 0.000000 0.447697 0.421527
Si Si4 0.500000 0.553546 0.416400
Si Si5 0.838854 0.665807 0.500000
Si Si6 0.154238 0.261844 0.152912
Si Si7 0.652638 0.249651 0.500000
O O1 0.223123 0.634656 0.699956
O O2 0.181986 0.695877 0.795555
O O3 0.239507 0.721654 0.667005
O O4 0.000000 0.685522 0.691983
O O5 0.128464 0.434261 0.375708
O O6 0.377726 0.421606 0.377964
O O7 0.214772 0.359401 0.432231
O O8 0.000000 0.500000 0.434586
O O9 0.000000 0.424285 0.500000
O O10 0.500000 0.500000 0.400911
O O11 0.500000 0.562087 0.500000
O O12 0.769819 0.713947 0.500000
O O13 0.000000 0.672095 0.500000
O O14 0.000000 0.243679 0.166146
O O15 0.170109 0.279141 0.072151
O O16 0.500000 0.271413 0.500000
#
# Coordination Sequence:
#
# PCOD8288491 Si02
#       7
#    16  16   8   8   8  16   8
#     4  10  19  31  45  64  88 115 149 185 220 258
#     4  12  20  32  47  63  84 117 153 188 220 260
#     4  11  20  32  46  63  86 111 143 184 227 265
#     4  11  24  36  46  63  88 117 151 190 227 261
#     4  12  20  28  41  67  87 116 154 185 217 256
#     4   9  19  31  44  64  89 116 148 184 220 256
#     4  10  20  30  46  63  89 120 152 187 219 254
#
# _framework density 14.431414999999999
#
# number of rings (size 3 to 8) (size 9 to 14) (size 15 to 20)
#    0.000    1.400    6.000    0.600    2.800    1.600 
#    0.000    0.000    0.000    0.000    0.000    0.000 
#    0.000    0.000    0.000    5.400    0.000    0.100 
#
# Total GULP energy -495641.231486 kJ/mol
# GULP energy per Si atom -12391.030787 kJ/mol
# Density = 1.439857 g / cm^3
# Si number density = 14.431415 Si / 1000 Ang^3
#
#
#
# Elastic Constant Matrix: (Units=GPa)
#
#
# Indices 1 2 3 4 5 6 
#
# 1 110.2926 49.7893 37.2951 0.0000 0.0000 0.0000
# 2 49.7893 77.5379 44.3383 0.0000 0.0000 0.0000
# 3 37.2951 44.3383 97.2069 -0.0001 0.0003 0.0002
# 4 0.0000 0.0000 -0.0001 23.9587 0.0001 0.0001
# 5 0.0000 0.0000 0.0003 0.0001 10.2347 0.0000
# 6 0.0000 0.0000 0.0002 0.0001 0.0000 23.7615
#
#
#
# Elastic Compliance Matrix: (Units=1/GPa)
#
#
# Indices 1 2 3 4 5 6 
#
# 1 0.012947 -0.007404 -0.001590 0.000000 0.000000 0.000000
# 2 -0.007404 0.021682 -0.007049 0.000000 0.000000 0.000000
# 3 -0.001590 -0.007049 0.014113 0.000000 0.000000 0.000000
# 4 0.000000 0.000000 0.000000 0.041738 0.000000 0.000000
# 5 0.000000 0.000000 0.000000 0.000000 0.097707 0.000000
# 6 0.000000 0.000000 0.000000 0.000000 0.000000 0.042085
#
#
# Mechanical properties :
#
#
# Convention : Reuss Voigt Hill
#
# Bulk Modulus (GPa) = 60.04175 60.87585 60.45880
# Shear Modulus (GPa) = 18.66293 21.83197 20.24745
#
# Velocity S-wave (km/s) = 3.60003 3.89370 3.74974
# Velocity P-wave (km/s) = 7.67955 7.90500 7.79309
#
# Compressibility (1/GPa) = 0.01665508
#
# Stress axis : x y z
#
# Youngs Moduli (GPa) = 77.23776 46.12058 70.85891
#
# Poissons Ratio (x) = 0.34150 0.11267
# Poissons Ratio (y) = 0.57190 0.49948
# Poissons Ratio (z) = 0.12281 0.32510
#
# Static dielectric constant tensor:
#      x y z
#    x 3.026940 0.000000 0.000000 
#    y 0.000000 2.681760 0.000000 
#    z 0.000000 0.000000 2.927320 
# 
# 
# High freq. dielectric constant tensor:
#      x y z
#    x 1.571350 0.000000 0.000000 
#    y 0.000000 1.521780 0.000000 
#    z 0.000000 0.000000 1.532770 
# 
# From -- ./inp_files/11314.got.cif
#   From: 2010.06.25/outbox.cif.g09.slc.cpg/sg71_6_cif.got.tgz:11314.got - 2010.06.28 04:59:45.
