data_PCOD8288821
_publ_section_title
;
Structure prediction by ZEFSAII (Michael W. Deem and Ramdas Pophale) SiO2 
 PCOD8288821
Probable space group: I M M M
;
_chemical_formula_sum "Si O2"
_cell_formula_units_Z 120
_cell_length_a 22.208229
_cell_length_b 23.266313
_cell_length_c 13.256844
_cell_angle_alpha 90.000000
_cell_angle_beta 90.000000
_cell_angle_gamma 90.000000
_cell_volume 6849.859113
_symmetry_space_group_name_H-M "I M M M"
_symmetry_group_IT_number 71
_symmetry_cell_setting 'orthorhombic'
loop_
_space_group_symop_operation_xyz
x,y,z
-x,-y,z
x,-y,-z
-x,y,-z
-x,-y,-z
x,y,-z
-x,y,z
x,-y,z
1/2+x,1/2+y,1/2+z
1/2-x,1/2-y,1/2+z
1/2+x,1/2-y,1/2-z
1/2-x,1/2+y,1/2-z
1/2-x,1/2-y,1/2-z
1/2+x,1/2+y,1/2-z
1/2-x,1/2+y,1/2+z
1/2+x,1/2-y,1/2+z
loop_
_atom_site_type_symbol
_atom_site_label
_atom_site_fract_x
_atom_site_fract_y
_atom_site_fract_z
Si Si1 0.348758 0.657371 0.384318
Si Si2 0.743503 0.138103 0.267402
Si Si3 0.665187 0.434698 0.113859
Si Si4 0.131777 0.565272 0.701651
Si Si5 0.570378 0.566101 0.718222
Si Si6 0.067449 0.431523 0.500000
Si Si7 0.430358 0.888012 0.387054
Si Si8 0.341686 0.785784 0.385236
O O1 0.332069 0.648861 0.500000
O O2 0.287561 0.649313 0.324238
O O3 0.401213 0.611504 0.359926
O O4 0.368530 0.722809 0.359957
O O5 0.779306 0.105301 0.355258
O O6 0.692494 0.098510 0.221470
O O7 0.714484 0.196185 0.313806
O O8 0.687446 0.500000 0.127315
O O9 0.604299 0.423649 0.176445
O O10 0.647377 0.420384 0.000000
O O11 0.149098 0.500000 0.680219
O O12 0.099932 0.591291 0.601667
O O13 0.088908 0.567304 0.800566
O O14 0.500000 0.579612 0.732467
O O15 0.579668 0.500000 0.680461
O O16 0.065206 0.500000 0.500000
O O17 0.000000 0.406264 0.500000
O O18 0.415227 0.912097 0.500000
O O19 0.500000 0.874464 0.376998
O O20 0.396762 0.828423 0.366984
O O21 0.318140 0.788236 0.500000
#
# Coordination Sequence:
#
# PCOD8288821 Si02
#       8
#    16  16  16  16  16   8  16  16
#     4  10  21  34  51  73  98 130 166 204 248 298
#     4  10  19  32  50  71 103 130 166 203 252 293
#     4   9  17  30  50  76 104 134 165 199 246 301
#     4  10  20  32  48  71 100 135 172 209 250 296
#     4   9  19  35  52  74 102 129 163 205 249 301
#     4   9  18  32  48  66  92 130 177 219 250 288
#     4   9  18  32  50  73 100 128 161 205 253 298
#     4   9  18  33  51  73  97 126 164 205 249 299
#
# _framework density 17.518609000000001
#
# number of rings (size 3 to 8) (size 9 to 14) (size 15 to 20)
#    0.000    2.600    0.000    1.600    0.933    3.467 
#    0.000    4.000    0.000    0.000    0.000    0.000 
#    0.000    0.000    0.000    0.000    0.000    0.000 
#
# Total GULP energy -743765.896527 kJ/mol
# GULP energy per Si atom -12396.098275 kJ/mol
# Density = 1.747874 g / cm^3
# Si number density = 17.518609 Si / 1000 Ang^3
#
#
#
# Elastic Constant Matrix: (Units=GPa)
#
#
# Indices 1 2 3 4 5 6 
#
# 1 94.3377 31.4456 36.2514 0.0000 0.0000 0.0000
# 2 31.4456 80.4622 34.9998 0.0000 0.0000 0.0000
# 3 36.2514 34.9998 104.0058 0.0000 0.0000 0.0000
# 4 0.0000 0.0000 0.0000 21.1155 0.0000 0.0000
# 5 0.0000 0.0000 0.0000 0.0000 19.2066 0.0000
# 6 0.0000 0.0000 0.0000 0.0000 0.0000 15.4039
#
#
#
# Elastic Compliance Matrix: (Units=1/GPa)
#
#
# Indices 1 2 3 4 5 6 
#
# 1 0.013105 -0.003672 -0.003332 0.000000 0.000000 0.000000
# 2 -0.003672 0.015588 -0.003966 0.000000 0.000000 0.000000
# 3 -0.003332 -0.003966 0.012111 0.000000 0.000000 0.000000
# 4 0.000000 0.000000 0.000000 0.047358 0.000000 0.000000
# 5 0.000000 0.000000 0.000000 0.000000 0.052065 0.000000
# 6 0.000000 0.000000 0.000000 0.000000 0.000000 0.064919
#
#
# Mechanical properties :
#
#
# Convention : Reuss Voigt Hill
#
# Bulk Modulus (GPa) = 53.01094 53.79992 53.40543
# Shear Modulus (GPa) = 21.42483 22.88580 22.15531
#
# Velocity S-wave (km/s) = 3.50090 3.61830 3.56008
# Velocity P-wave (km/s) = 6.83134 6.94499 6.88840
#
# Compressibility (1/GPa) = 0.01886403
#
# Stress axis : x y z
#
# Youngs Moduli (GPa) = 76.30911 64.15034 82.57111
#
# Poissons Ratio (x) = 0.23557 0.27512
# Poissons Ratio (y) = 0.28022 0.32746
# Poissons Ratio (z) = 0.25425 0.25441
#
# Static dielectric constant tensor:
#      x y z
#    x 3.217610 0.000000 0.000000 
#    y 0.000000 3.280800 0.000000 
#    z 0.000000 0.000000 3.455320 
# 
# 
# High freq. dielectric constant tensor:
#      x y z
#    x 1.676830 0.000000 0.000000 
#    y 0.000000 1.666160 0.000000 
#    z 0.000000 0.000000 1.684040 
# 
# From -- ./inp_files/26316.got.cif
#   From: 2010.06.25/outbox.cif.g09.slc.cpg/sg71_14_cif.got.tgz:26316.got - 2010.06.28 04:59:45.
