data_PCOD8288078
_publ_section_title
;
Structure prediction by ZEFSAII (Michael W. Deem and Ramdas Pophale) SiO2 
 PCOD8288078
Probable space group: I M M M
;
_chemical_formula_sum "Si O2"
_cell_formula_units_Z 98
_cell_length_a 11.615122
_cell_length_b 27.576456
_cell_length_c 16.055923
_cell_angle_alpha 90.000000
_cell_angle_beta 90.000000
_cell_angle_gamma 90.000000
_cell_volume 5142.774767
_symmetry_space_group_name_H-M "I M M M"
_symmetry_group_IT_number 71
_symmetry_cell_setting 'orthorhombic'
loop_
_space_group_symop_operation_xyz
x,y,z
-x,-y,z
x,-y,-z
-x,y,-z
-x,-y,-z
x,y,-z
-x,y,z
x,-y,z
1/2+x,1/2+y,1/2+z
1/2-x,1/2-y,1/2+z
1/2+x,1/2-y,1/2-z
1/2-x,1/2+y,1/2-z
1/2-x,1/2-y,1/2-z
1/2+x,1/2+y,1/2-z
1/2-x,1/2+y,1/2+z
1/2+x,1/2-y,1/2+z
loop_
_atom_site_type_symbol
_atom_site_label
_atom_site_fract_x
_atom_site_fract_y
_atom_site_fract_z
Si Si1 0.000000 0.945681 0.187490
Si Si2 0.000000 0.912446 0.626417
Si Si3 0.000000 0.000000 0.500000
Si Si4 0.723267 0.410149 0.595553
Si Si5 0.366065 0.943493 0.240928
Si Si6 0.636106 0.317901 0.331550
Si Si7 0.630007 0.782236 0.595126
Si Si8 0.280261 0.364342 0.164735
O O1 0.000000 0.915665 0.272513
O O2 0.111305 0.935846 0.132547
O O3 0.000000 0.000000 0.218066
O O4 0.884001 0.882603 0.605684
O O5 0.000000 0.960978 0.574080
O O6 0.741322 0.424574 0.500000
O O7 0.834149 0.429416 0.646083
O O8 0.706393 0.352335 0.604918
O O9 0.500000 0.932155 0.255245
O O10 0.290030 0.911373 0.303701
O O11 0.338800 0.000000 0.258587
O O12 0.500000 0.325700 0.346411
O O13 0.673773 0.262694 0.348952
O O14 0.671388 0.331224 0.238568
O O15 0.639076 0.765479 0.500000
O O16 0.500000 0.795030 0.620344
O O17 0.701254 0.830859 0.608139
#
# Coordination Sequence:
#
# PCOD8288078 Si02
#       8
#     8   8   2  16  16  16  16  16
#     4  12  21  36  58  84 124 156 199 250 290 368
#     4  12  24  43  64  94 122 153 206 240 320 366
#     4  12  32  40  68 100 124 172 192 256 320 390
#     4  11  21  33  56  89 123 160 197 246 304 354
#     4  10  22  38  57  81 111 160 205 246 296 353
#     4  10  18  36  59  88 116 157 196 247 298 363
#     4  10  22  37  58  86 118 153 197 249 300 357
#     4  11  21  39  63  86 118 152 199 252 298 368
#
# _framework density 19.055859999999999
#
# number of rings (size 3 to 8) (size 9 to 14) (size 15 to 20)
#    0.000    1.306    5.306    2.204    2.286    2.612 
#    0.000    0.816    1.796    0.000    0.000    3.429 
#    0.000    0.000    0.000    0.000    0.000    0.000 
#
# Total GULP energy -607078.338545 kJ/mol
# GULP energy per Si atom -12389.353848 kJ/mol
# Density = 1.901249 g / cm^3
# Si number density = 19.055860 Si / 1000 Ang^3
#
#
#
# Elastic Constant Matrix: (Units=GPa)
#
#
# Indices 1 2 3 4 5 6 
#
# 1 104.5387 64.9988 22.2228 0.0000 0.0000 0.0000
# 2 64.9988 133.9299 29.5701 0.0001 0.0000 0.0000
# 3 22.2228 29.5701 56.5596 0.0002 -0.0002 -0.0002
# 4 0.0000 0.0001 0.0002 15.9217 -0.0001 -0.0001
# 5 0.0000 0.0000 -0.0002 -0.0001 15.8332 0.0000
# 6 0.0000 0.0000 -0.0002 -0.0001 0.0000 21.9807
#
#
#
# Elastic Compliance Matrix: (Units=1/GPa)
#
#
# Indices 1 2 3 4 5 6 
#
# 1 0.013936 -0.006279 -0.002193 0.000000 0.000000 0.000000
# 2 -0.006279 0.011270 -0.003425 0.000000 0.000000 0.000000
# 3 -0.002193 -0.003425 0.020333 0.000000 0.000000 0.000000
# 4 0.000000 0.000000 0.000000 0.062807 0.000000 0.000000
# 5 0.000000 0.000000 0.000000 0.000000 0.063159 0.000000
# 6 0.000000 0.000000 0.000000 0.000000 0.000000 0.045495
#
#
# Mechanical properties :
#
#
# Convention : Reuss Voigt Hill
#
# Bulk Modulus (GPa) = 45.98777 58.73461 52.36119
# Shear Modulus (GPa) = 20.15785 22.62954 21.39370
#
# Velocity S-wave (km/s) = 3.25596 3.44980 3.35428
# Velocity P-wave (km/s) = 6.19036 6.83794 6.52219
#
# Compressibility (1/GPa) = 0.02174491
#
# Stress axis : x y z
#
# Youngs Moduli (GPa) = 71.75491 88.72847 49.18197
#
# Poissons Ratio (x) = 0.55717 0.10784
# Poissons Ratio (y) = 0.45058 0.16845
# Poissons Ratio (z) = 0.15734 0.30390
#
# Static dielectric constant tensor:
#      x y z
#    x 3.547440 0.000000 0.000000 
#    y 0.000000 3.656320 0.000000 
#    z 0.000000 0.000000 3.348360 
# 
# 
# High freq. dielectric constant tensor:
#      x y z
#    x 1.732350 0.000000 0.000000 
#    y 0.000000 1.757180 0.000000 
#    z 0.000000 0.000000 1.728870 
# 
# From -- ./inp_files/33264.got.cif
#   From: 2010.06.25/outbox.cif.g09.slc.cpg/sg71_17_cif.got.tgz:33264.got - 2010.06.28 04:59:45.
