data_PCOD8288315
_publ_section_title
;
Structure prediction by ZEFSAII (Michael W. Deem and Ramdas Pophale) SiO2 
 PCOD8288315
Probable space group: I M M M
;
_chemical_formula_sum "Si O2"
_cell_formula_units_Z 120
_cell_length_a 14.584531
_cell_length_b 23.261815
_cell_length_c 21.489502
_cell_angle_alpha 90.000000
_cell_angle_beta 90.000000
_cell_angle_gamma 90.000000
_cell_volume 7290.585653
_symmetry_space_group_name_H-M "I M M M"
_symmetry_group_IT_number 71
_symmetry_cell_setting 'orthorhombic'
loop_
_space_group_symop_operation_xyz
x,y,z
-x,-y,z
x,-y,-z
-x,y,-z
-x,-y,-z
x,y,-z
-x,y,z
x,-y,z
1/2+x,1/2+y,1/2+z
1/2-x,1/2-y,1/2+z
1/2+x,1/2-y,1/2-z
1/2-x,1/2+y,1/2-z
1/2-x,1/2-y,1/2-z
1/2+x,1/2+y,1/2-z
1/2-x,1/2+y,1/2+z
1/2+x,1/2-y,1/2+z
loop_
_atom_site_type_symbol
_atom_site_label
_atom_site_fract_x
_atom_site_fract_y
_atom_site_fract_z
Si Si1 0.263570 0.218414 0.159012
Si Si2 0.106825 0.064256 0.695439
Si Si3 0.390858 0.934832 0.500000
Si Si4 0.896699 0.235337 0.071382
Si Si5 0.392543 0.608064 0.933471
Si Si6 0.398251 0.265324 0.071935
Si Si7 0.246240 0.657803 0.218582
Si Si8 0.895822 0.635642 0.884344
O O1 0.167548 0.205780 0.123396
O O2 0.341818 0.215960 0.106861
O O3 0.273968 0.281250 0.189850
O O4 0.283222 0.169426 0.210001
O O5 0.128096 0.063567 0.621273
O O6 0.169072 0.113458 0.725664
O O7 0.000000 0.079034 0.708124
O O8 0.130071 0.000000 0.720323
O O9 0.500000 0.926315 0.500000
O O10 0.352518 0.906679 0.563633
O O11 0.359054 0.000000 0.500000
O O12 0.893021 0.302760 0.083679
O O13 0.000000 0.211885 0.080858
O O14 0.864391 0.223627 0.000000
O O15 0.500000 0.618665 0.941715
O O16 0.351345 0.671457 0.917738
O O17 0.352911 0.585194 0.000000
O O18 0.500000 0.264663 0.100126
O O19 0.398469 0.249184 0.000000
O O20 0.163726 0.630285 0.178661
O O21 0.000000 0.618773 0.866219
#
# Coordination Sequence:
#
# PCOD8288315 Si02
#       8
#    16  16   8  16  16  16  16  16
#     4  10  19  30  45  66  93 126 156 196 243 288
#     4  10  20  34  49  63  88 127 166 206 240 268
#     4   9  16  28  48  68  85 113 155 199 235 263
#     4   9  16  28  46  65  87 118 152 189 237 288
#     4   8  14  26  43  62  86 119 157 195 232 265
#     4   9  16  27  46  70  96 125 153 187 237 291
#     4  10  21  32  44  66  93 122 163 202 239 287
#     4   9  17  31  46  62  87 118 152 193 240 283
#
# _framework density 16.459582999999999
#
# number of rings (size 3 to 8) (size 9 to 14) (size 15 to 20)
#    0.000    2.733    2.000    1.200    0.000    1.867 
#    1.200    4.000    0.000    0.000    0.000    0.000 
#    0.000    2.133    0.000    8.800    0.000    0.000 
#
# Total GULP energy -743481.779331 kJ/mol
# GULP energy per Si atom -12391.362989 kJ/mol
# Density = 1.642212 g / cm^3
# Si number density = 16.459583 Si / 1000 Ang^3
#
#
#
# Elastic Constant Matrix: (Units=GPa)
#
#
# Indices 1 2 3 4 5 6 
#
# 1 62.9823 30.7085 35.5790 0.0000 0.0000 0.0000
# 2 30.7085 50.9084 40.5673 0.0000 0.0000 0.0000
# 3 35.5790 40.5673 83.7780 0.0000 0.0000 0.0000
# 4 0.0000 0.0000 0.0000 16.6060 0.0000 0.0000
# 5 0.0000 0.0000 0.0000 0.0000 22.4309 0.0000
# 6 0.0000 0.0000 0.0000 0.0000 0.0000 17.4631
#
#
#
# Elastic Compliance Matrix: (Units=1/GPa)
#
#
# Indices 1 2 3 4 5 6 
#
# 1 0.023775 -0.010251 -0.005133 0.000000 0.000000 0.000000
# 2 -0.010251 0.036405 -0.013275 0.000000 0.000000 0.000000
# 3 -0.005133 -0.013275 0.020544 0.000000 0.000000 0.000000
# 4 0.000000 0.000000 0.000000 0.060219 0.000000 0.000000
# 5 0.000000 0.000000 0.000000 0.000000 0.044581 0.000000
# 6 0.000000 0.000000 0.000000 0.000000 0.000000 0.057264
#
#
# Mechanical properties :
#
#
# Convention : Reuss Voigt Hill
#
# Bulk Modulus (GPa) = 42.72299 45.70869 44.21584
# Shear Modulus (GPa) = 16.23859 17.35426 16.79643
#
# Velocity S-wave (km/s) = 3.14438 3.25061 3.19794
# Velocity P-wave (km/s) = 6.26063 6.47450 6.36846
#
# Compressibility (1/GPa) = 0.02340660
#
# Stress axis : x y z
#
# Youngs Moduli (GPa) = 42.06030 27.46887 48.67576
#
# Poissons Ratio (x) = 0.28159 0.24986
# Poissons Ratio (y) = 0.43117 0.64615
# Poissons Ratio (z) = 0.21590 0.36464
#
# Static dielectric constant tensor:
#      x y z
#    x 3.203430 0.000000 0.000000 
#    y 0.000000 2.704410 0.000000 
#    z 0.000000 0.000000 3.143560 
# 
# 
# High freq. dielectric constant tensor:
#      x y z
#    x 1.636020 0.000000 0.000000 
#    y 0.000000 1.576300 0.000000 
#    z 0.000000 0.000000 1.622610 
# 
# From -- ./inp_files/53523.got.cif
#   From: 2010.06.25/outbox.cif.g09.slc.cpg/sg71_27_cif.got.tgz:53523.got - 2010.06.28 04:59:45.
