data_PCOD8288141
_publ_section_title
;
Structure prediction by ZEFSAII (Michael W. Deem and Ramdas Pophale) SiO2 
 PCOD8288141
Probable space group: I M M M
;
_chemical_formula_sum "Si O2"
_cell_formula_units_Z 120
_cell_length_a 17.953746
_cell_length_b 23.450483
_cell_length_c 17.885961
_cell_angle_alpha 90.000000
_cell_angle_beta 90.000000
_cell_angle_gamma 90.000000
_cell_volume 7530.419119
_symmetry_space_group_name_H-M "I M M M"
_symmetry_group_IT_number 71
_symmetry_cell_setting 'orthorhombic'
loop_
_space_group_symop_operation_xyz
x,y,z
-x,-y,z
x,-y,-z
-x,y,-z
-x,-y,-z
x,y,-z
-x,y,z
x,-y,z
1/2+x,1/2+y,1/2+z
1/2-x,1/2-y,1/2+z
1/2+x,1/2-y,1/2-z
1/2-x,1/2+y,1/2-z
1/2-x,1/2-y,1/2-z
1/2+x,1/2+y,1/2-z
1/2-x,1/2+y,1/2+z
1/2+x,1/2-y,1/2+z
loop_
_atom_site_type_symbol
_atom_site_label
_atom_site_fract_x
_atom_site_fract_y
_atom_site_fract_z
Si Si1 0.587910 0.564146 0.500000
Si Si2 0.354731 0.371078 0.643842
Si Si3 0.646251 0.643829 0.913316
Si Si4 0.586562 0.566988 0.213373
Si Si5 0.414682 0.241497 0.851501
Si Si6 0.284426 0.819662 0.916307
Si Si7 0.085518 0.249811 0.820574
Si Si8 0.204079 0.301075 0.082818
O O1 0.618869 0.500000 0.500000
O O2 0.500000 0.564802 0.500000
O O3 0.616106 0.594275 0.573902
O O4 0.366820 0.405534 0.719678
O O5 0.265925 0.361428 0.634363
O O6 0.399008 0.311547 0.643297
O O7 0.614142 0.592056 0.865094
O O8 0.599993 0.701315 0.898099
O O9 0.733945 0.652264 0.893421
O O10 0.636270 0.627826 0.000000
O O11 0.500000 0.581853 0.225587
O O12 0.600788 0.500000 0.212281
O O13 0.500000 0.223122 0.860353
O O14 0.366159 0.188066 0.880689
O O15 0.393083 0.254012 0.766056
O O16 0.245766 0.758719 0.918401
O O17 0.291719 0.844763 0.000000
O O18 0.135482 0.299035 0.859374
O O19 0.000000 0.266812 0.833094
O O20 0.172760 0.314822 0.000000
#
# Coordination Sequence:
#
# PCOD8288141 Si02
#       8
#     8  16  16  16  16  16  16  16
#     4  11  22  34  50  70  95 131 169 205 241 274
#     4  11  20  34  50  68  98 130 163 200 237 284
#     4  10  20  34  51  68  93 130 167 198 238 282
#     4  11  23  36  50  70  95 124 164 208 242 275
#     4  10  19  30  47  73 100 127 159 195 235 284
#     4   9  18  31  47  70  94 125 161 193 231 283
#     4  10  19  28  45  72 100 129 161 191 233 289
#     4   8  17  30  44  67  95 126 160 193 230 283
#
# _framework density 15.935366999999999
#
# number of rings (size 3 to 8) (size 9 to 14) (size 15 to 20)
#    0.000    2.067    2.000    3.200    2.800    5.067 
#    0.000    0.667    0.000    0.000    0.000    0.000 
#    0.000    4.267    0.000    2.933    0.000    0.000 
#
# Total GULP energy -743977.635975 kJ/mol
# GULP energy per Si atom -12399.627266 kJ/mol
# Density = 1.589910 g / cm^3
# Si number density = 15.935367 Si / 1000 Ang^3
#
#
#
# Elastic Constant Matrix: (Units=GPa)
#
#
# Indices 1 2 3 4 5 6 
#
# 1 99.7022 39.6304 54.4348 0.0000 0.0000 0.0000
# 2 39.6304 52.8428 33.5665 0.0000 0.0000 0.0000
# 3 54.4348 33.5665 99.2926 -0.0001 0.0000 0.0000
# 4 0.0000 0.0000 -0.0001 -1.2794 0.0000 0.0000
# 5 0.0000 0.0000 0.0000 0.0000 29.7179 0.0000
# 6 0.0000 0.0000 0.0000 0.0000 0.0000 22.2274
#
#
#
# Elastic Compliance Matrix: (Units=1/GPa)
#
#
# Indices 1 2 3 4 5 6 
#
# 1 0.016949 -0.008671 -0.006361 0.000001 0.000000 0.000000
# 2 -0.008671 0.028535 -0.004893 0.000000 0.000000 0.000000
# 3 -0.006361 -0.004893 0.015212 -0.000002 0.000000 0.000000
# 4 0.000001 0.000000 -0.000002 -0.781620 0.000000 0.000000
# 5 0.000000 0.000000 0.000000 0.000000 0.033650 0.000000
# 6 0.000000 0.000000 0.000000 0.000000 0.000000 0.044990
#
#
# Mechanical properties :
#
#
# Convention : Reuss Voigt Hill
#
# Bulk Modulus (GPa) = 47.96703 56.34454 52.15579
# Shear Modulus (GPa) = -8.39650 18.41357 5.00854
#
# Velocity S-wave (km/s) = -2.29794 3.40298 1.77478
# Velocity P-wave (km/s) = 4.80891 7.13269 6.08280
#
# Compressibility (1/GPa) = 0.02084765
#
# Stress axis : x y z
#
# Youngs Moduli (GPa) = 58.99958 35.04470 65.73577
#
# Poissons Ratio (x) = 0.30387 0.41813
# Poissons Ratio (y) = 0.51158 0.32163
# Poissons Ratio (z) = 0.37528 0.17147
#
# Static dielectric constant tensor:
#      x y z
#    x 3.211440 0.000000 0.000000 
#    y 0.000000 2.787100 0.000000 
#    z 0.000000 0.000000 3.297210 
# 
# 
# High freq. dielectric constant tensor:
#      x y z
#    x 1.610020 0.000000 0.000000 
#    y 0.000000 1.565430 0.000000 
#    z 0.000000 0.000000 1.630700 
# 
# From -- ./inp_files/46466.got.cif
#   From: 2010.06.25/outbox.cif.g09.slc.cpg/sg71_24_cif.got.tgz:46466.got - 2010.06.28 04:59:45.
