data_PCOD8288238
_publ_section_title
;
Structure prediction by ZEFSAII (Michael W. Deem and Ramdas Pophale) SiO2 
 PCOD8288238
Probable space group: I M M M
;
_chemical_formula_sum "Si O2"
_cell_formula_units_Z 104
_cell_length_a 24.802626
_cell_length_b 18.282215
_cell_length_c 13.565092
_cell_angle_alpha 90.000000
_cell_angle_beta 90.000000
_cell_angle_gamma 90.000000
_cell_volume 6151.049473
_symmetry_space_group_name_H-M "I M M M"
_symmetry_group_IT_number 71
_symmetry_cell_setting 'orthorhombic'
loop_
_space_group_symop_operation_xyz
x,y,z
-x,-y,z
x,-y,-z
-x,y,-z
-x,-y,-z
x,y,-z
-x,y,z
x,-y,z
1/2+x,1/2+y,1/2+z
1/2-x,1/2-y,1/2+z
1/2+x,1/2-y,1/2-z
1/2-x,1/2+y,1/2-z
1/2-x,1/2-y,1/2-z
1/2+x,1/2+y,1/2-z
1/2-x,1/2+y,1/2+z
1/2+x,1/2-y,1/2+z
loop_
_atom_site_type_symbol
_atom_site_label
_atom_site_fract_x
_atom_site_fract_y
_atom_site_fract_z
Si Si1 0.107792 0.156228 0.612858
Si Si2 0.349575 0.587077 0.291258
Si Si3 0.500000 0.419293 0.117080
Si Si4 0.438240 0.688299 0.613591
Si Si5 0.741829 0.913550 0.107795
Si Si6 0.937745 0.711359 0.706197
Si Si7 0.377959 0.085015 0.883985
O O1 0.120908 0.138985 0.500000
O O2 0.152261 0.115684 0.678516
O O3 0.100943 0.242216 0.632363
O O4 0.052100 0.122699 0.654610
O O5 0.356788 0.500000 0.297793
O O6 0.397440 0.624078 0.354257
O O7 0.291172 0.614823 0.326846
O O8 0.500000 0.500000 0.163121
O O9 0.500000 0.422252 0.000000
O O10 0.426943 0.710043 0.500000
O O11 0.500000 0.660222 0.626078
O O12 0.429040 0.760676 0.681418
O O13 0.682825 0.892039 0.148697
O O14 0.744529 0.000000 0.098598
O O15 0.749350 0.878329 0.000000
O O16 0.918619 0.628451 0.688059
O O17 0.000000 0.717987 0.674453
O O18 0.388667 0.000000 0.863468
O O19 0.387392 0.102052 0.000000
#
# Coordination Sequence:
#
# PCOD8288238 Si02
#       7
#    16  16   8  16  16  16  16
#     4  10  19  30  42  64  98 133 165 194 231 279
#     4  10  19  29  47  70  91 123 167 207 238 272
#     4   9  16  26  40  56  82 126 168 193 216 258
#     4   9  19  34  48  66  95 128 159 194 239 282
#     4   8  15  30  49  68  92 122 156 193 237 285
#     4  10  19  32  51  72  96 127 157 188 234 290
#     4   9  18  32  52  77 100 121 148 188 238 291
#
# _framework density 16.907684
#
# number of rings (size 3 to 8) (size 9 to 14) (size 15 to 20)
#    0.000    2.692    0.769    2.308    1.077    3.385 
#    0.000    4.615    0.000    3.231    0.000    4.308 
#    0.000    0.000    0.000    0.000    0.000    0.000 
#
# Total GULP energy -644422.672730 kJ/mol
# GULP energy per Si atom -12392.743706 kJ/mol
# Density = 1.686920 g / cm^3
# Si number density = 16.907684 Si / 1000 Ang^3
#
#
#
# Elastic Constant Matrix: (Units=GPa)
#
#
# Indices 1 2 3 4 5 6 
#
# 1 68.4501 37.3458 42.4872 0.0000 0.0000 0.0000
# 2 37.3458 80.0049 36.7563 0.0000 0.0000 0.0000
# 3 42.4872 36.7563 96.1125 0.0000 0.0000 0.0000
# 4 0.0000 0.0000 0.0000 21.3755 0.0000 0.0000
# 5 0.0000 0.0000 0.0000 0.0000 24.4263 0.0000
# 6 0.0000 0.0000 0.0000 0.0000 0.0000 18.6444
#
#
#
# Elastic Compliance Matrix: (Units=1/GPa)
#
#
# Indices 1 2 3 4 5 6 
#
# 1 0.023300 -0.007454 -0.007449 0.000000 0.000000 0.000000
# 2 -0.007454 0.017548 -0.003416 0.000000 0.000000 0.000000
# 3 -0.007449 -0.003416 0.015004 0.000000 0.000000 0.000000
# 4 0.000000 0.000000 0.000000 0.046783 0.000000 0.000000
# 5 0.000000 0.000000 0.000000 0.000000 0.040940 0.000000
# 6 0.000000 0.000000 0.000000 0.000000 0.000000 0.053635
#
#
# Mechanical properties :
#
#
# Convention : Reuss Voigt Hill
#
# Bulk Modulus (GPa) = 52.04631 53.08289 52.56460
# Shear Modulus (GPa) = 20.81156 21.42112 21.11634
#
# Velocity S-wave (km/s) = 3.51222 3.56328 3.53784
# Velocity P-wave (km/s) = 6.87728 6.95652 6.91701
#
# Compressibility (1/GPa) = 0.01921366
#
# Stress axis : x y z
#
# Youngs Moduli (GPa) = 42.91909 56.98673 66.64986
#
# Poissons Ratio (x) = 0.42477 0.49649
# Poissons Ratio (y) = 0.31991 0.22767
# Poissons Ratio (z) = 0.31971 0.19466
#
# Static dielectric constant tensor:
#      x y z
#    x 3.264280 0.000000 0.000000 
#    y 0.000000 2.989740 0.000000 
#    z 0.000000 0.000000 3.165530 
# 
# 
# High freq. dielectric constant tensor:
#      x y z
#    x 1.645350 0.000000 0.000000 
#    y 0.000000 1.632370 0.000000 
#    z 0.000000 0.000000 1.642550 
# 
# From -- ./inp_files/39495.got.cif
#   From: 2010.06.25/outbox.cif.g09.slc.cpg/sg71_20_cif.got.tgz:39495.got - 2010.06.28 04:59:45.
