data_PCOD8288973
_publ_section_title
;
Structure prediction by ZEFSAII (Michael W. Deem and Ramdas Pophale) SiO2 
 PCOD8288973
Probable space group: I M M M
;
_chemical_formula_sum "Si O2"
_cell_formula_units_Z 104
_cell_length_a 9.781928
_cell_length_b 23.409579
_cell_length_c 26.157816
_cell_angle_alpha 90.000000
_cell_angle_beta 90.000000
_cell_angle_gamma 90.000000
_cell_volume 5989.899638
_symmetry_space_group_name_H-M "I M M M"
_symmetry_group_IT_number 71
_symmetry_cell_setting 'orthorhombic'
loop_
_space_group_symop_operation_xyz
x,y,z
-x,-y,z
x,-y,-z
-x,y,-z
-x,-y,-z
x,y,-z
-x,y,z
x,-y,z
1/2+x,1/2+y,1/2+z
1/2-x,1/2-y,1/2+z
1/2+x,1/2-y,1/2-z
1/2-x,1/2+y,1/2-z
1/2-x,1/2-y,1/2-z
1/2+x,1/2+y,1/2-z
1/2-x,1/2+y,1/2+z
1/2+x,1/2-y,1/2+z
loop_
_atom_site_type_symbol
_atom_site_label
_atom_site_fract_x
_atom_site_fract_y
_atom_site_fract_z
Si Si1 0.341812 0.656838 0.579603
Si Si2 0.000000 0.568052 0.060007
Si Si3 0.340489 0.687044 0.800813
Si Si4 0.155880 0.203851 0.813137
Si Si5 0.755332 0.128971 0.393694
Si Si6 0.159771 0.063119 0.000000
Si Si7 0.654516 0.739639 0.942947
Si Si8 0.500000 0.562423 0.940077
O O1 0.500000 0.671694 0.566030
O O2 0.321530 0.657445 0.641413
O O3 0.300116 0.597142 0.552301
O O4 0.239139 0.702294 0.555764
O O5 0.877943 0.595168 0.091359
O O6 0.000000 0.500000 0.065318
O O7 0.000000 0.585547 0.000000
O O8 0.500000 0.696204 0.813637
O O9 0.261196 0.744144 0.818500
O O10 0.317433 0.672858 0.741119
O O11 0.281458 0.632466 0.832424
O O12 0.000000 0.227819 0.814948
O O13 0.756725 0.194923 0.410663
O O14 0.870438 0.096388 0.423270
O O15 0.000000 0.053664 0.000000
O O16 0.230616 0.000000 0.000000
O O17 0.500000 0.748040 0.920716
O O18 0.642421 0.715616 0.000000
O O19 0.500000 0.500000 0.914257
O O20 0.500000 0.555698 0.000000
#
# Coordination Sequence:
#
# PCOD8288973 Si02
#       8
#    16   8  16  16  16   8  16   8
#     4  10  19  32  52  80 107 140 178 225 268 324
#     4  11  26  44  58  77 108 148 192 238 285 335
#     4  10  19  33  51  79 112 146 181 219 274 337
#     4   9  19  32  50  77 116 146 176 220 274 335
#     4  12  22  36  56  80 107 145 184 234 276 334
#     4   9  18  34  55  79 107 143 182 217 264 323
#     4  11  21  31  47  77 116 140 167 217 280 327
#     4  11  22  38  58  77 104 144 188 228 273 333
#
# _framework density 17.362562
#
# number of rings (size 3 to 8) (size 9 to 14) (size 15 to 20)
#    0.000    1.615    3.846    1.846    2.154    1.231 
#    0.000    0.000    0.000    2.769    0.000    0.000 
#    0.000    0.000    0.000    0.000    0.000    0.000 
#
# Total GULP energy -644358.655856 kJ/mol
# GULP energy per Si atom -12391.512613 kJ/mol
# Density = 1.732304 g / cm^3
# Si number density = 17.362562 Si / 1000 Ang^3
#
#
#
# Elastic Constant Matrix: (Units=GPa)
#
#
# Indices 1 2 3 4 5 6 
#
# 1 98.6193 37.6168 39.4002 0.0000 0.0000 0.0000
# 2 37.6168 96.5163 50.3558 0.0000 0.0000 0.0000
# 3 39.4002 50.3558 134.7117 0.0000 0.0000 0.0000
# 4 0.0000 0.0000 0.0000 -144.0616 0.0000 0.0000
# 5 0.0000 0.0000 0.0000 0.0000 24.3339 0.0000
# 6 0.0000 0.0000 0.0000 0.0000 0.0000 36.4205
#
#
#
# Elastic Compliance Matrix: (Units=1/GPa)
#
#
# Indices 1 2 3 4 5 6 
#
# 1 0.012445 -0.003666 -0.002269 0.000000 0.000000 0.000000
# 2 -0.003666 0.013951 -0.004143 0.000000 0.000000 0.000000
# 3 -0.002269 -0.004143 0.009636 0.000000 0.000000 0.000000
# 4 0.000000 0.000000 0.000000 -0.006941 0.000000 0.000000
# 5 0.000000 0.000000 0.000000 0.000000 0.041095 0.000000
# 6 0.000000 0.000000 0.000000 0.000000 0.000000 0.027457
#
#
# Mechanical properties :
#
#
# Convention : Reuss Voigt Hill
#
# Bulk Modulus (GPa) = 62.99224 64.95474 63.97349
# Shear Modulus (GPa) = 40.62024 -3.16313 18.72856
#
# Velocity S-wave (km/s) = 4.84212 -1.35121 3.28788
# Velocity P-wave (km/s) = 8.22318 5.92095 7.16514
#
# Compressibility (1/GPa) = 0.01587497
#
# Stress axis : x y z
#
# Youngs Moduli (GPa) = 80.35240 71.67790 103.78213
#
# Poissons Ratio (x) = 0.26280 0.23552
# Poissons Ratio (y) = 0.29461 0.42994
# Poissons Ratio (z) = 0.18235 0.29694
#
# Static dielectric constant tensor:
#      x y z
#    x 3.220840 0.000000 0.000000 
#    y 0.000000 3.221790 0.000000 
#    z 0.000000 0.000000 3.587790 
# 
# 
# High freq. dielectric constant tensor:
#      x y z
#    x 1.673910 0.000000 0.000000 
#    y 0.000000 1.636570 0.000000 
#    z 0.000000 0.000000 1.685570 
# 
# From -- ./inp_files/63600.got.cif
#   From: 2010.06.25/outbox.cif.g09.slc.cpg/sg71_32_cif.got.tgz:63600.got - 2010.06.28 04:59:45.
