data_PCOD8288633
_publ_section_title
;
Structure prediction by ZEFSAII (Michael W. Deem and Ramdas Pophale) SiO2 
 PCOD8288633
Probable space group: I M M M
;
_chemical_formula_sum "Si O2"
_cell_formula_units_Z 104
_cell_length_a 24.108880
_cell_length_b 9.119012
_cell_length_c 26.323234
_cell_angle_alpha 90.000000
_cell_angle_beta 90.000000
_cell_angle_gamma 90.000000
_cell_volume 5787.141042
_symmetry_space_group_name_H-M "I M M M"
_symmetry_group_IT_number 71
_symmetry_cell_setting 'orthorhombic'
loop_
_space_group_symop_operation_xyz
x,y,z
-x,-y,z
x,-y,-z
-x,y,-z
-x,-y,-z
x,y,-z
-x,y,z
x,-y,z
1/2+x,1/2+y,1/2+z
1/2-x,1/2-y,1/2+z
1/2+x,1/2-y,1/2-z
1/2-x,1/2+y,1/2-z
1/2-x,1/2-y,1/2-z
1/2+x,1/2+y,1/2-z
1/2-x,1/2+y,1/2+z
1/2+x,1/2-y,1/2+z
loop_
_atom_site_type_symbol
_atom_site_label
_atom_site_fract_x
_atom_site_fract_y
_atom_site_fract_z
Si Si1 0.934382 0.159425 0.500000
Si Si2 0.563045 0.827643 0.639980
Si Si3 0.653169 0.171755 0.441615
Si Si4 0.266239 0.670268 0.371039
Si Si5 0.141539 0.830746 0.211969
Si Si6 0.438721 0.325287 0.108077
Si Si7 0.162245 0.173265 0.325167
O O1 0.918653 0.241149 0.446974
O O2 0.000000 0.138116 0.500000
O O3 0.904952 0.000000 0.500000
O O4 0.500000 0.772982 0.631900
O O5 0.598494 0.781778 0.590250
O O6 0.588183 0.754589 0.690591
O O7 0.565180 0.000000 0.648488
O O8 0.642645 0.215618 0.500000
O O9 0.707043 0.257221 0.421131
O O10 0.665080 0.000000 0.435670
O O11 0.256310 0.500000 0.382079
O O12 0.306327 0.697345 0.323734
O O13 0.208726 0.745916 0.357577
O O14 0.159935 0.771787 0.267102
O O15 0.124382 0.000000 0.215206
O O16 0.500000 0.266150 0.122845
O O17 0.440697 0.500000 0.102256
O O18 0.396471 0.277892 0.151505
O O19 0.173161 0.000000 0.328611
#
# Coordination Sequence:
#
# PCOD8288633 Si02
#       7
#     8  16  16  16  16  16  16
#     4   7  10  20  38  58  83 113 139 167 214 271
#     4   9  18  32  51  77 106 134 166 206 254 307
#     4   9  18  34  55  76 100 132 169 210 254 300
#     4  10  20  34  50  69  97 132 167 203 251 305
#     4   9  19  33  49  69  96 133 170 206 248 295
#     4   8  14  25  42  65  92 119 148 189 239 284
#     4  10  19  31  49  74  98 123 165 213 250 289
#
# _framework density 17.970877999999999
#
# number of rings (size 3 to 8) (size 9 to 14) (size 15 to 20)
#    0.000    3.000    0.000    1.846    0.000    2.769 
#    1.385    3.077    0.000    0.462    0.000    4.308 
#    0.000    1.846    0.000    0.000    0.000    0.000 
#
# Total GULP energy -644539.981849 kJ/mol
# GULP energy per Si atom -12394.999651 kJ/mol
# Density = 1.792998 g / cm^3
# Si number density = 17.970878 Si / 1000 Ang^3
#
#
#
# Elastic Constant Matrix: (Units=GPa)
#
#
# Indices 1 2 3 4 5 6 
#
# 1 118.2936 39.4865 48.5416 0.0000 0.0000 0.0000
# 2 39.4865 38.4635 26.9494 0.0000 0.0000 0.0000
# 3 48.5416 26.9494 79.2410 0.0000 0.0000 0.0000
# 4 0.0000 0.0000 0.0000 21.0619 0.0000 0.0000
# 5 0.0000 0.0000 0.0000 0.0000 20.1535 0.0000
# 6 0.0000 0.0000 0.0000 0.0000 0.0000 22.0295
#
#
#
# Elastic Compliance Matrix: (Units=1/GPa)
#
#
# Indices 1 2 3 4 5 6 
#
# 1 0.014177 -0.011119 -0.004903 0.000000 0.000000 0.000000
# 2 -0.011119 0.042852 -0.007763 0.000000 0.000000 0.000000
# 3 -0.004903 -0.007763 0.018263 0.000000 0.000000 0.000000
# 4 0.000000 0.000000 0.000000 0.047479 0.000000 0.000000
# 5 0.000000 0.000000 0.000000 0.000000 0.049619 0.000000
# 6 0.000000 0.000000 0.000000 0.000000 0.000000 0.045394
#
#
# Mechanical properties :
#
#
# Convention : Reuss Voigt Hill
#
# Bulk Modulus (GPa) = 36.07065 51.77255 43.92160
# Shear Modulus (GPa) = 18.20872 20.71703 19.46288
#
# Velocity S-wave (km/s) = 3.18659 3.39899 3.29450
# Velocity P-wave (km/s) = 5.80124 6.65401 6.24221
#
# Compressibility (1/GPa) = 0.02772337
#
# Stress axis : x y z
#
# Youngs Moduli (GPa) = 70.53706 23.33624 54.75454
#
# Poissons Ratio (x) = 0.25947 0.26847
# Poissons Ratio (y) = 0.78427 0.42504
# Poissons Ratio (z) = 0.34585 0.18115
#
# Static dielectric constant tensor:
#      x y z
#    x 3.346450 0.000000 0.000000 
#    y 0.000000 3.021180 0.000000 
#    z 0.000000 0.000000 3.593930 
# 
# 
# High freq. dielectric constant tensor:
#      x y z
#    x 1.689830 0.000000 0.000000 
#    y 0.000000 1.661880 0.000000 
#    z 0.000000 0.000000 1.704150 
# 
# From -- ./inp_files/66788.got.cif
#   From: 2010.06.25/outbox.cif.g09.slc.cpg/sg71_34_cif.got.tgz:66788.got - 2010.06.28 04:59:45.
