data_PCOD8288594
_publ_section_title
;
Structure prediction by ZEFSAII (Michael W. Deem and Ramdas Pophale) SiO2 
 PCOD8288594
Probable space group: I M M M
;
_chemical_formula_sum "Si O2"
_cell_formula_units_Z 104
_cell_length_a 23.763226
_cell_length_b 31.516146
_cell_length_c 7.813160
_cell_angle_alpha 90.000000
_cell_angle_beta 90.000000
_cell_angle_gamma 90.000000
_cell_volume 5851.473197
_symmetry_space_group_name_H-M "I M M M"
_symmetry_group_IT_number 71
_symmetry_cell_setting 'orthorhombic'
loop_
_space_group_symop_operation_xyz
x,y,z
-x,-y,z
x,-y,-z
-x,y,-z
-x,-y,-z
x,y,-z
-x,y,z
x,-y,z
1/2+x,1/2+y,1/2+z
1/2-x,1/2-y,1/2+z
1/2+x,1/2-y,1/2-z
1/2-x,1/2+y,1/2-z
1/2-x,1/2-y,1/2-z
1/2+x,1/2+y,1/2-z
1/2-x,1/2+y,1/2+z
1/2+x,1/2-y,1/2+z
loop_
_atom_site_type_symbol
_atom_site_label
_atom_site_fract_x
_atom_site_fract_y
_atom_site_fract_z
Si Si1 0.117884 0.413518 0.697320
Si Si2 0.566788 0.237358 0.500000
Si Si3 0.727443 0.951940 0.702149
Si Si4 0.937758 0.500000 0.297512
Si Si5 0.566826 0.291693 0.187457
Si Si6 0.645754 0.451926 0.798781
Si Si7 0.437526 0.619185 0.694769
Si Si8 0.432828 0.860061 0.500000
O O1 0.100635 0.402946 0.500000
O O2 0.185480 0.418355 0.708602
O O3 0.093398 0.458001 0.766470
O O4 0.093591 0.378339 0.825084
O O5 0.500000 0.240584 0.500000
O O6 0.592156 0.260340 0.331151
O O7 0.585443 0.188782 0.500000
O O8 0.720194 0.948993 0.500000
O O9 0.790809 0.939592 0.755964
O O10 0.714313 0.000000 0.764484
O O11 0.940121 0.500000 0.500000
O O12 0.000000 0.500000 0.217665
O O13 0.500000 0.292709 0.206520
O O14 0.588396 0.340207 0.206680
O O15 0.585256 0.274857 0.000000
O O16 0.632674 0.500000 0.740891
O O17 0.602288 0.421294 0.707096
O O18 0.638427 0.447318 0.000000
O O19 0.442230 0.633713 0.500000
O O20 0.500000 0.607318 0.764939
O O21 0.500000 0.866838 0.500000
#
# Coordination Sequence:
#
# PCOD8288594 Si02
#       8
#    16   8  16   8  16  16  16   8
#     4  11  21  34  53  76 103 140 182 219 262 315
#     4   9  18  34  51  74 104 134 171 213 262 321
#     4   9  17  33  54  73  98 135 181 229 266 300
#     4   9  18  31  47  71 102 135 174 214 250 305
#     4   9  16  29  52  76 100 133 172 215 259 309
#     4   9  19  33  49  73 107 143 182 226 264 306
#     4  10  19  31  48  74 110 144 178 219 261 315
#     4  11  24  37  52  77 112 143 169 215 274 327
#
# _framework density 17.773304
#
# number of rings (size 3 to 8) (size 9 to 14) (size 15 to 20)
#    0.000    2.385    2.308    1.846    0.000    4.000 
#    0.000    5.385    0.000    0.000    0.000    1.077 
#    0.000    0.000    0.000    0.000    0.000    0.000 
#
# Total GULP energy -644600.467136 kJ/mol
# GULP energy per Si atom -12396.162830 kJ/mol
# Density = 1.773285 g / cm^3
# Si number density = 17.773304 Si / 1000 Ang^3
#
#
#
# Elastic Constant Matrix: (Units=GPa)
#
#
# Indices 1 2 3 4 5 6 
#
# 1 77.7156 47.5125 26.3779 0.0000 0.0000 0.0000
# 2 47.5125 115.1836 55.4126 0.0000 0.0000 0.0000
# 3 26.3779 55.4126 100.8710 0.0000 0.0000 0.0000
# 4 0.0000 0.0000 0.0000 24.8888 0.0000 0.0000
# 5 0.0000 0.0000 0.0000 0.0000 18.8427 0.0000
# 6 0.0000 0.0000 0.0000 0.0000 0.0000 6.8448
#
#
#
# Elastic Compliance Matrix: (Units=1/GPa)
#
#
# Indices 1 2 3 4 5 6 
#
# 1 0.017256 -0.006724 -0.000819 0.000000 0.000000 0.000000
# 2 -0.006724 0.014421 -0.006163 0.000000 0.000000 0.000000
# 3 -0.000819 -0.006163 0.013514 0.000000 0.000000 0.000000
# 4 0.000000 0.000000 0.000000 0.040179 0.000000 0.000000
# 5 0.000000 0.000000 0.000000 0.000000 0.053071 0.000000
# 6 0.000000 0.000000 0.000000 0.000000 0.000000 0.146097
#
#
# Mechanical properties :
#
#
# Convention : Reuss Voigt Hill
#
# Bulk Modulus (GPa) = 56.24999 61.37514 58.81256
# Shear Modulus (GPa) = 15.72941 21.07972 18.40457
#
# Velocity S-wave (km/s) = 2.97813 3.44762 3.22144
# Velocity P-wave (km/s) = 6.59871 7.10319 6.85559
#
# Compressibility (1/GPa) = 0.01777778
#
# Stress axis : x y z
#
# Youngs Moduli (GPa) = 57.94998 69.34512 73.99979
#
# Poissons Ratio (x) = 0.46630 0.06058
# Poissons Ratio (y) = 0.38967 0.45609
# Poissons Ratio (z) = 0.04744 0.42740
#
# Static dielectric constant tensor:
#      x y z
#    x 3.176270 0.000000 0.000000 
#    y 0.000000 3.197660 0.000000 
#    z 0.000000 0.000000 3.290390 
# 
# 
# High freq. dielectric constant tensor:
#      x y z
#    x 1.658260 0.000000 0.000000 
#    y 0.000000 1.666240 0.000000 
#    z 0.000000 0.000000 1.695850 
# 
# From -- ./inp_files/13361.got.cif
#   From: 2010.06.25/outbox.cif.g09.slc.cpg/sg71_7_cif.got.tgz:13361.got - 2010.06.28 04:59:45.
