data_PCOD8288268
_publ_section_title
;
Structure prediction by ZEFSAII (Michael W. Deem and Ramdas Pophale) SiO2 
 PCOD8288268
Probable space group: I M M M
;
_chemical_formula_sum "Si O2"
_cell_formula_units_Z 80
_cell_length_a 25.918382
_cell_length_b 23.616425
_cell_length_c 8.943208
_cell_angle_alpha 90.000000
_cell_angle_beta 90.000000
_cell_angle_gamma 90.000000
_cell_volume 5474.133365
_symmetry_space_group_name_H-M "I M M M"
_symmetry_group_IT_number 71
_symmetry_cell_setting 'orthorhombic'
loop_
_space_group_symop_operation_xyz
x,y,z
-x,-y,z
x,-y,-z
-x,y,-z
-x,-y,-z
x,y,-z
-x,y,z
x,-y,z
1/2+x,1/2+y,1/2+z
1/2-x,1/2-y,1/2+z
1/2+x,1/2-y,1/2-z
1/2-x,1/2+y,1/2-z
1/2-x,1/2-y,1/2-z
1/2+x,1/2+y,1/2-z
1/2-x,1/2+y,1/2+z
1/2+x,1/2-y,1/2+z
loop_
_atom_site_type_symbol
_atom_site_label
_atom_site_fract_x
_atom_site_fract_y
_atom_site_fract_z
Si Si1 0.793817 0.213797 0.173649
Si Si2 0.442090 0.115363 0.822820
Si Si3 0.356034 0.818636 0.670986
Si Si4 0.747799 0.884826 0.323328
Si Si5 0.775272 0.500000 0.678001
Si Si6 0.606919 0.000000 0.822459
O O1 0.750000 0.250000 0.250000
O O2 0.845944 0.251104 0.191900
O O3 0.795065 0.153293 0.257896
O O4 0.780698 0.204448 0.000000
O O5 0.500000 0.125534 0.763143
O O6 0.405643 0.166044 0.768704
O O7 0.421538 0.055514 0.758402
O O8 0.441061 0.114200 0.000000
O O9 0.368530 0.832848 0.500000
O O10 0.306507 0.855668 0.721793
O O11 0.754259 0.890607 0.500000
O O12 0.752779 0.945405 0.245449
O O13 0.770511 0.500000 0.500000
O O14 0.834353 0.500000 0.733432
O O15 0.604681 0.000000 0.000000
#
# Coordination Sequence:
#
# PCOD8288268 Si02
#       6
#    16  16  16  16   8   8
#     4   9  17  29  44  62  81 105 136 171 212 259
#     4  10  19  30  44  60  79 107 146 187 221 255
#     4   9  18  30  43  59  81 106 135 175 218 257
#     4  10  19  30  43  62  85 109 138 176 214 254
#     4  11  19  28  45  63  82 116 147 176 215 256
#     4   9  17  29  42  57  77 107 145 184 220 248
#
# _framework density 14.614186
#
# number of rings (size 3 to 8) (size 9 to 14) (size 15 to 20)
#    0.000    2.400    2.000    3.000    0.000    5.600 
#    0.000    0.500    0.000    1.200    0.000    0.000 
#    0.000    0.000    0.000    0.900    0.000   16.800 
#
# Total GULP energy -495843.925279 kJ/mol
# GULP energy per Si atom -12396.098132 kJ/mol
# Density = 1.458092 g / cm^3
# Si number density = 14.614186 Si / 1000 Ang^3
#
#
#
# Elastic Constant Matrix: (Units=GPa)
#
#
# Indices 1 2 3 4 5 6 
#
# 1 50.3892 47.3355 24.3340 0.0000 0.0000 0.0000
# 2 47.3355 117.2073 44.3613 0.0000 0.0000 0.0000
# 3 24.3340 44.3613 61.1814 0.0000 0.0000 0.0000
# 4 0.0000 0.0000 0.0000 26.4441 0.0000 0.0000
# 5 0.0000 0.0000 0.0000 0.0000 18.3748 0.0000
# 6 0.0000 0.0000 0.0000 0.0000 0.0000 17.6486
#
#
#
# Elastic Compliance Matrix: (Units=1/GPa)
#
#
# Indices 1 2 3 4 5 6 
#
# 1 0.032955 -0.011506 -0.004765 0.000000 0.000000 0.000000
# 2 -0.011506 0.015776 -0.006863 0.000000 0.000000 0.000000
# 3 -0.004765 -0.006863 0.023216 0.000000 0.000000 0.000000
# 4 0.000000 0.000000 0.000000 0.037816 0.000000 0.000000
# 5 0.000000 0.000000 0.000000 0.000000 0.054422 0.000000
# 6 0.000000 0.000000 0.000000 0.000000 0.000000 0.056662
#
#
# Mechanical properties :
#
#
# Convention : Reuss Voigt Hill
#
# Bulk Modulus (GPa) = 38.93987 51.20440 45.07214
# Shear Modulus (GPa) = 18.13739 20.00997 19.07368
#
# Velocity S-wave (km/s) = 3.52672 3.70431 3.61660
# Velocity P-wave (km/s) = 6.57927 7.30817 6.95328
#
# Compressibility (1/GPa) = 0.02568062
#
# Stress axis : x y z
#
# Youngs Moduli (GPa) = 30.34423 63.38708 43.07408
#
# Poissons Ratio (x) = 0.72933 0.20524
# Poissons Ratio (y) = 0.34914 0.29560
# Poissons Ratio (z) = 0.14458 0.43500
#
# Static dielectric constant tensor:
#      x y z
#    x 2.670520 0.000000 0.000000 
#    y 0.000000 3.072490 0.000000 
#    z 0.000000 0.000000 2.817880 
# 
# 
# High freq. dielectric constant tensor:
#      x y z
#    x 1.511010 0.000000 0.000000 
#    y 0.000000 1.556080 0.000000 
#    z 0.000000 0.000000 1.563200 
# 
# From -- ./inp_files/10251.got.cif
#   From: 2010.06.25/outbox.cif.g09.slc.cpg/sg71_6_cif.got.tgz:10251.got - 2010.06.28 04:59:45.
