data_PCOD8288034
_publ_section_title
;
Structure prediction by ZEFSAII (Michael W. Deem and Ramdas Pophale) SiO2 
 PCOD8288034
Probable space group: I M M M
;
_chemical_formula_sum "Si O2"
_cell_formula_units_Z 96
_cell_length_a 20.374575
_cell_length_b 12.074558
_cell_length_c 19.052708
_cell_angle_alpha 90.000000
_cell_angle_beta 90.000000
_cell_angle_gamma 90.000000
_cell_volume 4687.232669
_symmetry_space_group_name_H-M "I M M M"
_symmetry_group_IT_number 71
_symmetry_cell_setting 'orthorhombic'
loop_
_space_group_symop_operation_xyz
x,y,z
-x,-y,z
x,-y,-z
-x,y,-z
-x,-y,-z
x,y,-z
-x,y,z
x,-y,z
1/2+x,1/2+y,1/2+z
1/2-x,1/2-y,1/2+z
1/2+x,1/2-y,1/2-z
1/2-x,1/2+y,1/2-z
1/2-x,1/2-y,1/2-z
1/2+x,1/2+y,1/2-z
1/2-x,1/2+y,1/2+z
1/2+x,1/2-y,1/2+z
loop_
_atom_site_type_symbol
_atom_site_label
_atom_site_fract_x
_atom_site_fract_y
_atom_site_fract_z
Si Si1 0.333305 0.880789 0.579911
Si Si2 0.874866 0.000000 0.576386
Si Si3 0.073007 0.000000 0.282843
Si Si4 0.296116 0.725794 0.919922
Si Si5 0.658967 0.329957 0.291682
Si Si6 0.191076 0.625332 0.293209
Si Si7 0.575185 0.303064 0.579347
O O1 0.310894 0.900049 0.500000
O O2 0.278760 0.794161 0.609776
O O3 0.405880 0.827432 0.582648
O O4 0.333430 0.000000 0.619111
O O5 0.932908 0.000000 0.632652
O O6 0.829780 0.107442 0.586057
O O7 0.908229 0.000000 0.500000
O O8 0.112417 0.110336 0.263953
O O9 0.000000 0.000000 0.250275
O O10 0.327483 0.816890 0.867861
O O11 0.298146 0.771662 0.000000
O O12 0.730597 0.382191 0.285452
O O13 0.659951 0.198094 0.270881
O O14 0.624847 0.360916 0.366442
O O15 0.162579 0.500000 0.291128
O O16 0.585919 0.349344 0.500000
O O17 0.500000 0.319081 0.602592
#
# Coordination Sequence:
#
# PCOD8288034 Si02
#       7
#    16   8   8  16  16  16  16
#     4   9  16  27  48  79 112 149 190 241 303 348
#     4  10  20  37  64  97 122 148 198 256 311 359
#     4  12  24  41  65  90 124 164 202 244 302 364
#     4  10  18  33  59  89 122 154 191 247 307 366
#     4  11  23  40  59  88 122 157 203 252 310 359
#     4  11  23  38  60  89 122 157 200 253 307 372
#     4  10  21  37  56  80 116 162 208 249 290 351
#
# _framework density 20.481168
#
# number of rings (size 3 to 8) (size 9 to 14) (size 15 to 20)
#    0.000    1.667    5.000    0.500    0.000    1.500 
#    0.000    2.083    0.000    3.000    0.000    0.000 
#    0.000    2.667    0.000    0.000    0.000    0.000 
#
# Total GULP energy -594757.960363 kJ/mol
# GULP energy per Si atom -12390.790841 kJ/mol
# Density = 2.043455 g / cm^3
# Si number density = 20.481168 Si / 1000 Ang^3
#
#
#
# Elastic Constant Matrix: (Units=GPa)
#
#
# Indices 1 2 3 4 5 6 
#
# 1 68.2451 8.4136 27.4692 0.0000 0.0000 0.0000
# 2 8.4136 106.4397 22.6083 0.0000 0.0000 0.0000
# 3 27.4692 22.6083 113.4609 0.0000 0.0000 0.0000
# 4 0.0000 0.0000 0.0000 22.6848 0.0000 0.0000
# 5 0.0000 0.0000 0.0000 0.0000 28.8995 0.0000
# 6 0.0000 0.0000 0.0000 0.0000 0.0000 9.0051
#
#
#
# Elastic Compliance Matrix: (Units=1/GPa)
#
#
# Indices 1 2 3 4 5 6 
#
# 1 0.016258 -0.000469 -0.003843 0.000000 0.000000 0.000000
# 2 -0.000469 0.009824 -0.001844 0.000000 0.000000 0.000000
# 3 -0.003843 -0.001844 0.010111 0.000000 0.000000 0.000000
# 4 0.000000 0.000000 0.000000 0.044082 0.000000 0.000000
# 5 0.000000 0.000000 0.000000 0.000000 0.034603 0.000000
# 6 0.000000 0.000000 0.000000 0.000000 0.000000 0.111048
#
#
# Mechanical properties :
#
#
# Convention : Reuss Voigt Hill
#
# Bulk Modulus (GPa) = 41.87300 45.01420 43.44360
# Shear Modulus (GPa) = 20.30897 27.42820 23.86859
#
# Velocity S-wave (km/s) = 3.15237 3.66347 3.41749
# Velocity P-wave (km/s) = 5.80852 6.31828 6.06876
#
# Compressibility (1/GPa) = 0.02388174
#
# Stress axis : x y z
#
# Youngs Moduli (GPa) = 61.50993 101.79444 98.89891
#
# Poissons Ratio (x) = 0.04773 0.38003
# Poissons Ratio (y) = 0.02884 0.18237
# Poissons Ratio (z) = 0.23636 0.18770
#
# Static dielectric constant tensor:
#      x y z
#    x 3.354910 0.000000 0.000000 
#    y 0.000000 3.659390 0.000000 
#    z 0.000000 0.000000 4.006560 
# 
# 
# High freq. dielectric constant tensor:
#      x y z
#    x 1.758070 0.000000 0.000000 
#    y 0.000000 1.789160 0.000000 
#    z 0.000000 0.000000 1.821490 
# 
# From -- ./inp_files/54917.got.cif
#   From: 2010.06.25/outbox.cif.g09.slc.cpg/sg71_28_cif.got.tgz:54917.got - 2010.06.28 04:59:45.
