data_PCOD8288848
_publ_section_title
;
Structure prediction by ZEFSAII (Michael W. Deem and Ramdas Pophale) SiO2 
 PCOD8288848
Probable space group: I M M M
;
_chemical_formula_sum "Si O2"
_cell_formula_units_Z 128
_cell_length_a 18.425382
_cell_length_b 20.853789
_cell_length_c 19.256155
_cell_angle_alpha 90.000000
_cell_angle_beta 90.000000
_cell_angle_gamma 90.000000
_cell_volume 7398.966289
_symmetry_space_group_name_H-M "I M M M"
_symmetry_group_IT_number 71
_symmetry_cell_setting 'orthorhombic'
loop_
_space_group_symop_operation_xyz
x,y,z
-x,-y,z
x,-y,-z
-x,y,-z
-x,-y,-z
x,y,-z
-x,y,z
x,-y,z
1/2+x,1/2+y,1/2+z
1/2-x,1/2-y,1/2+z
1/2+x,1/2-y,1/2-z
1/2-x,1/2+y,1/2-z
1/2-x,1/2-y,1/2-z
1/2+x,1/2+y,1/2-z
1/2-x,1/2+y,1/2+z
1/2+x,1/2-y,1/2+z
loop_
_atom_site_type_symbol
_atom_site_label
_atom_site_fract_x
_atom_site_fract_y
_atom_site_fract_z
Si Si1 0.585374 0.322273 0.785331
Si Si2 0.080335 0.360320 0.076522
Si Si3 0.914940 0.238225 0.425531
Si Si4 0.417662 0.193122 0.282046
Si Si5 0.344730 0.928340 0.212090
Si Si6 0.584924 0.882341 0.079854
Si Si7 0.198274 0.073633 0.715532
Si Si8 0.227289 0.574652 0.924018
O O1 0.500000 0.333453 0.771110
O O2 0.603712 0.313181 0.866793
O O3 0.616755 0.259088 0.746378
O O4 0.629149 0.384634 0.760490
O O5 0.089785 0.304937 0.134375
O O6 0.141583 0.413847 0.087503
O O7 0.000000 0.392049 0.085065
O O8 0.087666 0.328461 0.000000
O O9 0.881284 0.216169 0.500000
O O10 0.888369 0.309579 0.405972
O O11 0.000000 0.244769 0.434460
O O12 0.500000 0.192879 0.255505
O O13 0.384348 0.127291 0.254364
O O14 0.365492 0.925152 0.130672
O O15 0.258751 0.919476 0.224508
O O16 0.366464 0.000000 0.239295
O O17 0.500000 0.892197 0.097831
O O18 0.599607 0.902168 0.000000
O O19 0.228104 0.102081 0.641654
O O20 0.173049 0.000000 0.707671
O O21 0.240385 0.500000 0.924733
O O22 0.251682 0.603158 0.000000
#
# Coordination Sequence:
#
# PCOD8288848 Si02
#       8
#    16  16  16  16  16  16  16  16
#     4  10  20  35  56  75  94 126 168 216 262 305
#     4   9  17  29  46  69 100 136 171 207 238 276
#     4   8  14  27  48  73 101 129 159 202 252 296
#     4  10  19  32  50  76 104 131 168 203 245 301
#     4  11  21  33  48  72 108 142 169 203 245 291
#     4   9  17  31  50  73 105 142 177 207 234 279
#     4  10  22  37  51  72  99 131 170 210 261 310
#     4   9  17  31  48  67  98 137 172 206 245 292
#
# _framework density 17.299714000000002
#
# number of rings (size 3 to 8) (size 9 to 14) (size 15 to 20)
#    0.000    2.500    2.500    1.125    0.000    2.750 
#    0.000    3.125    0.000    0.750    0.000    3.500 
#    0.000    0.000    0.000    7.625    0.000    0.000 
#
# Total GULP energy -792864.307032 kJ/mol
# GULP energy per Si atom -12388.504797 kJ/mol
# Density = 1.726034 g / cm^3
# Si number density = 17.299714 Si / 1000 Ang^3
#
#
#
# Elastic Constant Matrix: (Units=GPa)
#
#
# Indices 1 2 3 4 5 6 
#
# 1 65.1876 48.0470 36.9840 0.0000 0.0000 0.0000
# 2 48.0470 87.3822 34.9066 0.0000 0.0000 0.0000
# 3 36.9840 34.9066 90.7516 0.0000 0.0000 0.0000
# 4 0.0000 0.0000 0.0000 7.0752 0.0000 0.0000
# 5 0.0000 0.0000 0.0000 0.0000 15.8755 0.0000
# 6 0.0000 0.0000 0.0000 0.0000 0.0000 26.4125
#
#
#
# Elastic Compliance Matrix: (Units=1/GPa)
#
#
# Indices 1 2 3 4 5 6 
#
# 1 0.028862 -0.013199 -0.006685 0.000000 0.000000 0.000000
# 2 -0.013199 0.019558 -0.002144 0.000000 0.000000 0.000000
# 3 -0.006685 -0.002144 0.014568 0.000000 0.000000 0.000000
# 4 0.000000 0.000000 0.000000 0.141338 0.000000 0.000000
# 5 0.000000 0.000000 0.000000 0.000000 0.062990 0.000000
# 6 0.000000 0.000000 0.000000 0.000000 0.000000 0.037861
#
#
# Mechanical properties :
#
#
# Convention : Reuss Voigt Hill
#
# Bulk Modulus (GPa) = 52.82129 53.68851 53.25490
# Shear Modulus (GPa) = 14.06302 18.09824 16.08063
#
# Velocity S-wave (km/s) = 2.85424 3.23795 3.05213
# Velocity P-wave (km/s) = 6.43907 6.71422 6.57808
#
# Compressibility (1/GPa) = 0.01893176
#
# Stress axis : x y z
#
# Youngs Moduli (GPa) = 34.64821 51.13058 68.64361
#
# Poissons Ratio (x) = 0.67487 0.45889
# Poissons Ratio (y) = 0.45732 0.14715
# Poissons Ratio (z) = 0.23163 0.10961
#
# Static dielectric constant tensor:
#      x y z
#    x 2.942930 0.000000 0.000000 
#    y 0.000000 3.005610 0.000000 
#    z 0.000000 0.000000 3.802750 
# 
# 
# High freq. dielectric constant tensor:
#      x y z
#    x 1.637290 0.000000 0.000000 
#    y 0.000000 1.641480 0.000000 
#    z 0.000000 0.000000 1.678480 
# 
# From -- ./inp_files/54485.got.cif
#   From: 2010.06.25/outbox.cif.g09.slc.cpg/sg71_28_cif.got.tgz:54485.got - 2010.06.28 04:59:45.
