data_PCOD8288685
_publ_section_title
;
Structure prediction by ZEFSAII (Michael W. Deem and Ramdas Pophale) SiO2 
 PCOD8288685
Probable space group: I M M M
;
_chemical_formula_sum "Si O2"
_cell_formula_units_Z 88
_cell_length_a 14.252724
_cell_length_b 17.843012
_cell_length_c 17.642794
_cell_angle_alpha 90.000000
_cell_angle_beta 90.000000
_cell_angle_gamma 90.000000
_cell_volume 4486.765854
_symmetry_space_group_name_H-M "I M M M"
_symmetry_group_IT_number 71
_symmetry_cell_setting 'orthorhombic'
loop_
_space_group_symop_operation_xyz
x,y,z
-x,-y,z
x,-y,-z
-x,y,-z
-x,-y,-z
x,y,-z
-x,y,z
x,-y,z
1/2+x,1/2+y,1/2+z
1/2-x,1/2-y,1/2+z
1/2+x,1/2-y,1/2-z
1/2-x,1/2+y,1/2-z
1/2-x,1/2-y,1/2-z
1/2+x,1/2+y,1/2-z
1/2-x,1/2+y,1/2+z
1/2+x,1/2-y,1/2+z
loop_
_atom_site_type_symbol
_atom_site_label
_atom_site_fract_x
_atom_site_fract_y
_atom_site_fract_z
Si Si1 0.209987 0.088701 0.153391
Si Si2 0.107226 0.368262 0.278714
Si Si3 0.606562 0.703080 0.239442
Si Si4 0.106737 0.858357 0.584325
Si Si5 0.102655 0.500000 0.161945
Si Si6 0.393442 0.411527 0.500000
Si Si7 0.211610 0.000000 0.586295
O O1 0.321700 0.106862 0.153709
O O2 0.168199 0.139742 0.220386
O O3 0.191815 0.000000 0.168714
O O4 0.163643 0.114953 0.074256
O O5 0.134136 0.288396 0.239807
O O6 0.118327 0.427037 0.211894
O O7 0.000000 0.367023 0.310697
O O8 0.500000 0.684857 0.262852
O O9 0.618292 0.705628 0.147484
O O10 0.141812 0.832267 0.500000
O O11 0.166728 0.925693 0.621256
O O12 0.000000 0.885579 0.578268
O O13 0.176708 0.500000 0.094445
O O14 0.000000 0.500000 0.124485
O O15 0.399947 0.500000 0.500000
O O16 0.500000 0.378128 0.500000
O O17 0.180843 0.000000 0.500000
#
# Coordination Sequence:
#
# PCOD8288685 Si02
#       7
#    16  16  16  16   8   8   8
#     4  11  21  36  60  86 114 150 191 231 282 343
#     4  10  21  38  58  82 111 145 190 241 284 330
#     4  10  21  35  57  86 115 146 186 232 281 342
#     4   9  18  32  50  79 117 147 172 214 276 337
#     4  10  20  36  59  77 101 144 190 241 283 314
#     4   9  20  38  57  83 119 150 181 230 288 337
#     4  10  19  31  50  77 108 146 185 220 265 332
#
# _framework density 19.613237000000002
#
# number of rings (size 3 to 8) (size 9 to 14) (size 15 to 20)
#    0.000    2.091    0.909    2.455    1.273    2.364 
#    1.636    0.455    2.000    1.636    0.000    0.000 
#    0.000    0.000    0.000    0.000    0.000    0.000 
#
# Total GULP energy -545234.939992 kJ/mol
# GULP energy per Si atom -12391.703182 kJ/mol
# Density = 1.956860 g / cm^3
# Si number density = 19.613237 Si / 1000 Ang^3
#
#
#
# Elastic Constant Matrix: (Units=GPa)
#
#
# Indices 1 2 3 4 5 6 
#
# 1 96.1065 32.9915 32.6055 0.0000 0.0000 0.0000
# 2 32.9915 113.3485 35.5702 0.0000 0.0000 0.0002
# 3 32.6055 35.5702 81.4404 0.0000 0.0000 0.0002
# 4 0.0000 0.0000 0.0000 1.3240 0.0000 0.0002
# 5 0.0000 0.0000 0.0000 0.0000 34.7108 0.0001
# 6 0.0000 0.0002 0.0002 0.0002 0.0001 -501.3285
#
#
#
# Elastic Compliance Matrix: (Units=1/GPa)
#
#
# Indices 1 2 3 4 5 6 
#
# 1 0.012585 -0.002413 -0.003985 0.000000 0.000000 0.000000
# 2 -0.002413 0.010686 -0.003701 0.000000 0.000000 0.000000
# 3 -0.003985 -0.003701 0.015491 0.000000 0.000000 0.000000
# 4 0.000000 0.000000 0.000000 0.755262 0.000000 0.000000
# 5 0.000000 0.000000 0.000000 0.000000 0.028809 0.000000
# 6 0.000000 0.000000 0.000000 0.000000 0.000000 -0.001995
#
#
# Mechanical properties :
#
#
# Convention : Reuss Voigt Hill
#
# Bulk Modulus (GPa) = 53.86615 54.80331 54.33473
# Shear Modulus (GPa) = 5.90162 -80.41018 -37.25428
#
# Velocity S-wave (km/s) = 1.73653 -6.40991 -4.36299
# Velocity P-wave (km/s) = 5.61645 5.17493 1.54347
#
# Compressibility (1/GPa) = 0.01856454
#
# Stress axis : x y z
#
# Youngs Moduli (GPa) = 79.45804 93.57943 64.55375
#
# Poissons Ratio (x) = 0.22577 0.25724
# Poissons Ratio (y) = 0.19170 0.23894
# Poissons Ratio (z) = 0.31663 0.34637
#
# Static dielectric constant tensor:
#      x y z
#    x 3.845080 0.000000 0.000000 
#    y 0.000000 3.641310 0.000000 
#    z 0.000000 0.000000 3.366490 
# 
# 
# High freq. dielectric constant tensor:
#      x y z
#    x 1.776350 0.000000 0.000000 
#    y 0.000000 1.759950 0.000000 
#    z 0.000000 0.000000 1.738830 
# 
# From -- ./inp_files/44747.got.cif
#   From: 2010.06.25/outbox.cif.g09.slc.cpg/sg71_23_cif.got.tgz:44747.got - 2010.06.28 04:59:45.
