data_PCOD8288790
_publ_section_title
;
Structure prediction by ZEFSAII (Michael W. Deem and Ramdas Pophale) SiO2 
 PCOD8288790
Probable space group: I M M M
;
_chemical_formula_sum "Si O2"
_cell_formula_units_Z 88
_cell_length_a 9.094920
_cell_length_b 19.956953
_cell_length_c 27.000939
_cell_angle_alpha 90.000000
_cell_angle_beta 90.000000
_cell_angle_gamma 90.000000
_cell_volume 4900.856491
_symmetry_space_group_name_H-M "I M M M"
_symmetry_group_IT_number 71
_symmetry_cell_setting 'orthorhombic'
loop_
_space_group_symop_operation_xyz
x,y,z
-x,-y,z
x,-y,-z
-x,y,-z
-x,-y,-z
x,y,-z
-x,y,z
x,-y,z
1/2+x,1/2+y,1/2+z
1/2-x,1/2-y,1/2+z
1/2+x,1/2-y,1/2-z
1/2-x,1/2+y,1/2-z
1/2-x,1/2-y,1/2-z
1/2+x,1/2+y,1/2-z
1/2-x,1/2+y,1/2+z
1/2+x,1/2-y,1/2+z
loop_
_atom_site_type_symbol
_atom_site_label
_atom_site_fract_x
_atom_site_fract_y
_atom_site_fract_z
Si Si1 0.326720 0.500000 0.554050
Si Si2 0.173388 0.132745 0.214187
Si Si3 0.335541 0.000000 0.668086
Si Si4 0.832927 0.500000 0.285927
Si Si5 0.331637 0.370827 0.827907
Si Si6 0.671197 0.774389 0.861444
Si Si7 0.670263 0.354700 0.558572
O O1 0.500000 0.500000 0.546461
O O2 0.251838 0.500000 0.500000
O O3 0.283534 0.570829 0.579761
O O4 0.247869 0.064874 0.193856
O O5 0.214666 0.144887 0.271397
O O6 0.238013 0.194360 0.183629
O O7 0.000000 0.127875 0.205306
O O8 0.258492 0.067583 0.648503
O O9 0.500000 0.000000 0.647473
O O10 0.328200 0.000000 0.726987
O O11 0.000000 0.500000 0.305815
O O12 0.500000 0.393317 0.828915
O O13 0.302353 0.305332 0.860839
O O14 0.500000 0.791656 0.854596
O O15 0.728653 0.800700 0.914159
O O16 0.698569 0.349962 0.500000
O O17 0.500000 0.340142 0.570905
#
# Coordination Sequence:
#
# PCOD8288790 Si02
#       7
#     8  16   8   8  16  16  16
#     4   7  12  27  51  72  89 116 157 200 237 274
#     4  10  19  32  49  68  94 131 171 205 238 282
#     4   9  17  29  50  74  94 121 159 203 243 283
#     4   9  17  30  46  67  96 128 163 204 247 285
#     4   9  19  34  50  69  97 132 165 197 238 291
#     4  11  22  33  47  71 101 131 162 200 247 291
#     4   9  18  34  54  73  94 124 164 207 247 290
#
# _framework density 17.956046000000001
#
# number of rings (size 3 to 8) (size 9 to 14) (size 15 to 20)
#    0.000    2.636    0.000    3.273    0.000    5.455 
#    0.000    3.182    0.000    1.636    0.000    0.636 
#    0.000    5.091    0.000    0.000    0.000    0.000 
#
# Total GULP energy -545421.787383 kJ/mol
# GULP energy per Si atom -12395.949713 kJ/mol
# Density = 1.791518 g / cm^3
# Si number density = 17.956046 Si / 1000 Ang^3
#
#
#
# Elastic Constant Matrix: (Units=GPa)
#
#
# Indices 1 2 3 4 5 6 
#
# 1 100.6354 65.9021 27.6961 0.0000 0.0000 0.0000
# 2 65.9021 129.1579 39.0712 0.0000 0.0000 0.0000
# 3 27.6961 39.0712 48.0441 0.0000 0.0000 0.0000
# 4 0.0000 0.0000 0.0000 10.5673 0.0000 0.0000
# 5 0.0000 0.0000 0.0000 0.0000 23.4346 0.0000
# 6 0.0000 0.0000 0.0000 0.0000 0.0000 34.3049
#
#
#
# Elastic Compliance Matrix: (Units=1/GPa)
#
#
# Indices 1 2 3 4 5 6 
#
# 1 0.015303 -0.006817 -0.003278 0.000000 0.000000 0.000000
# 2 -0.006817 0.013305 -0.006891 0.000000 0.000000 0.000000
# 3 -0.003278 -0.006891 0.028308 0.000000 0.000000 0.000000
# 4 0.000000 0.000000 0.000000 0.094632 0.000000 0.000000
# 5 0.000000 0.000000 0.000000 0.000000 0.042672 0.000000
# 6 0.000000 0.000000 0.000000 0.000000 0.000000 0.029150
#
#
# Mechanical properties :
#
#
# Convention : Reuss Voigt Hill
#
# Bulk Modulus (GPa) = 43.58269 60.35291 51.96780
# Shear Modulus (GPa) = 18.86871 23.33921 21.10396
#
# Velocity S-wave (km/s) = 3.24516 3.60918 3.43200
# Velocity P-wave (km/s) = 6.19403 7.14512 6.68651
#
# Compressibility (1/GPa) = 0.02294489
#
# Stress axis : x y z
#
# Youngs Moduli (GPa) = 65.34679 75.15967 35.32612
#
# Poissons Ratio (x) = 0.51233 0.11581
# Poissons Ratio (y) = 0.44544 0.24342
# Poissons Ratio (z) = 0.21422 0.51789
#
# Static dielectric constant tensor:
#      x y z
#    x 3.312130 0.000000 0.000000 
#    y 0.000000 3.487150 0.000000 
#    z 0.000000 0.000000 2.904460 
# 
# 
# High freq. dielectric constant tensor:
#      x y z
#    x 1.693720 0.000000 0.000000 
#    y 0.000000 1.701190 0.000000 
#    z 0.000000 0.000000 1.650380 
# 
# From -- ./inp_files/68069.got.cif
#   From: 2010.06.25/outbox.cif.g09.slc.cpg/sg71_35_cif.got.tgz:68069.got - 2010.06.28 04:59:45.
