data_PCOD8288360
_publ_section_title
;
Structure prediction by ZEFSAII (Michael W. Deem and Ramdas Pophale) SiO2 
 PCOD8288360
Probable space group: I M M M
;
_chemical_formula_sum "Si O2"
_cell_formula_units_Z 104
_cell_length_a 29.378883
_cell_length_b 22.599410
_cell_length_c 8.945514
_cell_angle_alpha 90.000000
_cell_angle_beta 90.000000
_cell_angle_gamma 90.000000
_cell_volume 5939.333070
_symmetry_space_group_name_H-M "I M M M"
_symmetry_group_IT_number 71
_symmetry_cell_setting 'orthorhombic'
loop_
_space_group_symop_operation_xyz
x,y,z
-x,-y,z
x,-y,-z
-x,y,-z
-x,-y,-z
x,y,-z
-x,y,z
x,-y,z
1/2+x,1/2+y,1/2+z
1/2-x,1/2-y,1/2+z
1/2+x,1/2-y,1/2-z
1/2-x,1/2+y,1/2-z
1/2-x,1/2-y,1/2-z
1/2+x,1/2+y,1/2-z
1/2-x,1/2+y,1/2+z
1/2+x,1/2-y,1/2+z
loop_
_atom_site_type_symbol
_atom_site_label
_atom_site_fract_x
_atom_site_fract_y
_atom_site_fract_z
Si Si1 0.551031 0.000000 0.177804
Si Si2 0.447551 0.340576 0.172765
Si Si3 0.394378 0.886387 0.177381
Si Si4 0.782153 0.070145 0.165201
Si Si5 0.116840 0.068617 0.825321
Si Si6 0.692991 0.068952 0.673771
Si Si7 0.552538 0.781032 0.324818
O O1 0.576619 0.942024 0.238272
O O2 0.500000 0.000000 0.243111
O O3 0.550271 0.000000 0.000000
O O4 0.500000 0.356796 0.200540
O O5 0.418549 0.396284 0.224827
O O6 0.433301 0.283746 0.269327
O O7 0.437929 0.326574 0.000000
O O8 0.343027 0.892429 0.234950
O O9 0.416061 0.827131 0.239745
O O10 0.394274 0.883966 0.000000
O O11 0.832248 0.091893 0.215434
O O12 0.743380 0.091323 0.280331
O O13 0.784207 0.000000 0.157604
O O14 0.770348 0.094931 0.000000
O O15 0.111234 0.000000 0.783964
O O16 0.106934 0.079134 0.000000
O O17 0.685936 0.080621 0.500000
O O18 0.686763 0.000000 0.715294
O O19 0.561731 0.785542 0.500000
O O20 0.500000 0.794209 0.284805
#
# Coordination Sequence:
#
# PCOD8288360 Si02
#       7
#     8  16  16  16  16  16  16
#     4   9  18  30  45  69  99 131 167 209 258 307
#     4  10  21  36  54  77 105 138 175 212 249 298
#     4  11  20  32  51  73 101 135 173 216 260 309
#     4   8  15  29  49  72 100 134 171 207 248 302
#     4   9  18  33  54  81 110 139 170 207 253 304
#     4  10  19  30  46  71 104 136 171 214 259 305
#     4  10  21  37  55  74  98 132 174 217 260 306
#
# _framework density 17.510383999999998
#
# number of rings (size 3 to 8) (size 9 to 14) (size 15 to 20)
#    0.000    2.385    0.769    3.231    0.000    4.308 
#    0.000    3.077    0.000    2.769    0.000    0.000 
#    0.000    0.000    0.000    0.000    0.000    0.000 
#
# Total GULP energy -644836.370814 kJ/mol
# GULP energy per Si atom -12400.699439 kJ/mol
# Density = 1.747053 g / cm^3
# Si number density = 17.510384 Si / 1000 Ang^3
#
#
#
# Elastic Constant Matrix: (Units=GPa)
#
#
# Indices 1 2 3 4 5 6 
#
# 1 111.4161 52.0929 49.4568 0.0000 0.0000 0.0000
# 2 52.0929 68.7494 36.3028 0.0000 0.0000 0.0000
# 3 49.4568 36.3028 79.8948 0.0000 0.0000 0.0000
# 4 0.0000 0.0000 0.0000 29.0139 0.0000 0.0000
# 5 0.0000 0.0000 0.0000 0.0000 31.8686 0.0000
# 6 0.0000 0.0000 0.0000 0.0000 0.0000 17.4337
#
#
#
# Elastic Compliance Matrix: (Units=1/GPa)
#
#
# Indices 1 2 3 4 5 6 
#
# 1 0.015622 -0.008856 -0.005647 0.000000 0.000000 0.000000
# 2 -0.008856 0.024157 -0.005495 0.000000 0.000000 0.000000
# 3 -0.005647 -0.005495 0.018509 0.000000 0.000000 0.000000
# 4 0.000000 0.000000 0.000000 0.034466 0.000000 0.000000
# 5 0.000000 0.000000 0.000000 0.000000 0.031379 0.000000
# 6 0.000000 0.000000 0.000000 0.000000 0.000000 0.057360
#
#
# Mechanical properties :
#
#
# Convention : Reuss Voigt Hill
#
# Bulk Modulus (GPa) = 54.66308 59.52947 57.09627
# Shear Modulus (GPa) = 21.96974 23.81044 22.89009
#
# Velocity S-wave (km/s) = 3.54597 3.69153 3.61949
# Velocity P-wave (km/s) = 6.93185 7.22775 7.08134
#
# Compressibility (1/GPa) = 0.01829388
#
# Stress axis : x y z
#
# Youngs Moduli (GPa) = 64.01044 41.39557 54.02879
#
# Poissons Ratio (x) = 0.36659 0.30509
# Poissons Ratio (y) = 0.56686 0.29687
# Poissons Ratio (z) = 0.36145 0.22746
#
# Static dielectric constant tensor:
#      x y z
#    x 3.410670 0.000000 0.000000 
#    y 0.000000 2.998170 0.000000 
#    z 0.000000 0.000000 3.208440 
# 
# 
# High freq. dielectric constant tensor:
#      x y z
#    x 1.683440 0.000000 0.000000 
#    y 0.000000 1.646790 0.000000 
#    z 0.000000 0.000000 1.678410 
# 
# From -- ./inp_files/15249.got.cif
#   From: 2010.06.25/outbox.cif.g09.slc.cpg/sg71_8_cif.got.tgz:15249.got - 2010.06.28 04:59:45.
