data_PCOD8288908
_publ_section_title
;
Structure prediction by ZEFSAII (Michael W. Deem and Ramdas Pophale) SiO2 
 PCOD8288908
Probable space group: I M M M
;
_chemical_formula_sum "Si O2"
_cell_formula_units_Z 96
_cell_length_a 30.218317
_cell_length_b 18.826788
_cell_length_c 9.160885
_cell_angle_alpha 90.000000
_cell_angle_beta 90.000000
_cell_angle_gamma 90.000000
_cell_volume 5211.754335
_symmetry_space_group_name_H-M "I M M M"
_symmetry_group_IT_number 71
_symmetry_cell_setting 'orthorhombic'
loop_
_space_group_symop_operation_xyz
x,y,z
-x,-y,z
x,-y,-z
-x,y,-z
-x,-y,-z
x,y,-z
-x,y,z
x,-y,z
1/2+x,1/2+y,1/2+z
1/2-x,1/2-y,1/2+z
1/2+x,1/2-y,1/2-z
1/2-x,1/2+y,1/2-z
1/2-x,1/2-y,1/2-z
1/2+x,1/2+y,1/2-z
1/2-x,1/2+y,1/2+z
1/2+x,1/2-y,1/2+z
loop_
_atom_site_type_symbol
_atom_site_label
_atom_site_fract_x
_atom_site_fract_y
_atom_site_fract_z
Si Si1 0.550242 0.917787 0.828413
Si Si2 0.047453 0.920867 0.826208
Si Si3 0.126055 0.671862 0.168078
Si Si4 0.127278 0.164894 0.168142
Si Si5 0.725274 0.814629 0.331748
Si Si6 0.699549 0.419521 0.832970
O O1 0.500000 0.895233 0.779116
O O2 0.589106 0.872978 0.752674
O O3 0.557680 0.000000 0.787724
O O4 0.554855 0.905893 0.000000
O O5 0.086085 0.874661 0.757203
O O6 0.000000 0.890366 0.775014
O O7 0.053565 0.000000 0.766495
O O8 0.049997 0.919840 0.000000
O O9 0.114785 0.753899 0.188420
O O10 0.176400 0.665820 0.230352
O O11 0.124133 0.647477 0.000000
O O12 0.170713 0.138238 0.248511
O O13 0.134088 0.144842 0.000000
O O14 0.720486 0.789453 0.500000
O O15 0.750000 0.750000 0.250000
O O16 0.751012 0.889087 0.318754
O O17 0.697334 0.500000 0.768000
O O18 0.684063 0.421049 0.000000
#
# Coordination Sequence:
#
# PCOD8288908 Si02
#       6
#    16  16  16  16  16  16
#     4   9  20  40  62  83 111 148 189 232 280 338
#     4   8  14  25  42  65  94 129 166 205 252 300
#     4  10  21  34  54  85 113 140 180 227 280 336
#     4  10  19  32  51  77 105 135 175 221 266 316
#     4  10  20  36  55  77 108 146 184 227 278 332
#     4  10  21  35  52  75 104 142 182 219 268 327
#
# _framework density 18.419902
#
# number of rings (size 3 to 8) (size 9 to 14) (size 15 to 20)
#    0.000    2.500    1.667    1.500    0.000    4.333 
#    0.000    4.167    0.000    0.500    0.000    2.333 
#    0.000    0.000    0.000    0.000    0.000    0.000 
#
# Total GULP energy -594737.636176 kJ/mol
# GULP energy per Si atom -12390.367420 kJ/mol
# Density = 1.837798 g / cm^3
# Si number density = 18.419902 Si / 1000 Ang^3
#
#
#
# Elastic Constant Matrix: (Units=GPa)
#
#
# Indices 1 2 3 4 5 6 
#
# 1 165.4728 58.8331 43.8752 0.0000 0.0000 0.0000
# 2 58.8331 73.8468 32.5591 0.0000 0.0000 0.0000
# 3 43.8752 32.5591 46.0819 0.0000 0.0000 0.0000
# 4 0.0000 0.0000 0.0000 22.3949 0.0000 0.0000
# 5 0.0000 0.0000 0.0000 0.0000 27.9159 0.0000
# 6 0.0000 0.0000 0.0000 0.0000 0.0000 37.3318
#
#
#
# Elastic Compliance Matrix: (Units=1/GPa)
#
#
# Indices 1 2 3 4 5 6 
#
# 1 0.009220 -0.005047 -0.005212 0.000000 0.000000 0.000000
# 2 -0.005047 0.022432 -0.011044 0.000000 0.000000 0.000000
# 3 -0.005212 -0.011044 0.034466 0.000000 0.000000 0.000000
# 4 0.000000 0.000000 0.000000 0.044653 0.000000 0.000000
# 5 0.000000 0.000000 0.000000 0.000000 0.035822 0.000000
# 6 0.000000 0.000000 0.000000 0.000000 0.000000 0.026787
#
#
# Mechanical properties :
#
#
# Convention : Reuss Voigt Hill
#
# Bulk Modulus (GPa) = 42.53245 61.77070 52.15158
# Shear Modulus (GPa) = 22.33913 27.53746 24.93829
#
# Velocity S-wave (km/s) = 3.48626 3.87070 3.68350
# Velocity P-wave (km/s) = 6.27264 7.32011 6.81652
#
# Compressibility (1/GPa) = 0.02351146
#
# Stress axis : x y z
#
# Youngs Moduli (GPa) = 108.46167 44.57951 29.01419
#
# Poissons Ratio (x) = 0.22501 0.15123
# Poissons Ratio (y) = 0.54744 0.32042
# Poissons Ratio (z) = 0.56532 0.49232
#
# Static dielectric constant tensor:
#      x y z
#    x 3.780330 0.000000 0.000000 
#    y 0.000000 3.414320 0.000000 
#    z 0.000000 0.000000 3.120730 
# 
# 
# High freq. dielectric constant tensor:
#      x y z
#    x 1.732750 0.000000 0.000000 
#    y 0.000000 1.713870 0.000000 
#    z 0.000000 0.000000 1.682000 
# 
# From -- ./inp_files/14878.got.cif
#   From: 2010.06.25/outbox.cif.g09.slc.cpg/sg71_8_cif.got.tgz:14878.got - 2010.06.28 04:59:45.
