data_PCOD8288962
_publ_section_title
;
Structure prediction by ZEFSAII (Michael W. Deem and Ramdas Pophale) SiO2 
 PCOD8288962
Probable space group: I M M M
;
_chemical_formula_sum "Si O2"
_cell_formula_units_Z 88
_cell_length_a 32.430416
_cell_length_b 7.549371
_cell_length_c 18.554615
_cell_angle_alpha 90.000000
_cell_angle_beta 90.000000
_cell_angle_gamma 90.000000
_cell_volume 4542.712327
_symmetry_space_group_name_H-M "I M M M"
_symmetry_group_IT_number 71
_symmetry_cell_setting 'orthorhombic'
loop_
_space_group_symop_operation_xyz
x,y,z
-x,-y,z
x,-y,-z
-x,y,-z
-x,-y,-z
x,y,-z
-x,y,z
x,-y,z
1/2+x,1/2+y,1/2+z
1/2-x,1/2-y,1/2+z
1/2+x,1/2-y,1/2-z
1/2-x,1/2+y,1/2-z
1/2-x,1/2-y,1/2-z
1/2+x,1/2+y,1/2-z
1/2-x,1/2+y,1/2+z
1/2+x,1/2-y,1/2+z
loop_
_atom_site_type_symbol
_atom_site_label
_atom_site_fract_x
_atom_site_fract_y
_atom_site_fract_z
Si Si1 0.456153 0.000000 0.917880
Si Si2 0.893809 0.795777 0.916777
Si Si3 0.454052 0.292133 0.294241
Si Si4 0.592975 0.705433 0.847070
Si Si5 0.176827 0.704612 0.583546
Si Si6 0.740151 0.500000 0.084521
Si Si7 0.168895 0.500000 0.914970
O O1 0.431341 0.821257 0.904221
O O2 0.500000 0.000000 0.875243
O O3 0.466589 0.000000 0.000000
O O4 0.933922 0.739826 0.870723
O O5 0.855381 0.676840 0.890977
O O6 0.881502 0.000000 0.902826
O O7 0.905164 0.761093 0.000000
O O8 0.500000 0.205821 0.287856
O O9 0.459169 0.500000 0.288389
O O10 0.422613 0.228807 0.231541
O O11 0.582909 0.500000 0.859864
O O12 0.641035 0.743669 0.860304
O O13 0.163949 0.744654 0.500000
O O14 0.189074 0.500000 0.592629
O O15 0.215791 0.822638 0.607203
O O16 0.785579 0.500000 0.121228
O O17 0.746463 0.500000 0.000000
O O18 0.173347 0.500000 0.000000
#
# Coordination Sequence:
#
# PCOD8288962 Si02
#       7
#     8  16  16  16  16   8   8
#     4  11  24  37  50  74 105 140 187 234 274 323
#     4   9  18  34  57  83 111 145 179 218 275 330
#     4   9  19  35  55  82 110 142 187 228 269 328
#     4  11  21  35  55  76 105 147 182 228 276 325
#     4  10  19  32  52  79 106 137 180 227 273 319
#     4   9  18  32  53  82 110 138 176 225 274 324
#     4   9  18  33  54  83 114 139 175 221 268 331
#
# _framework density 19.371686
#
# number of rings (size 3 to 8) (size 9 to 14) (size 15 to 20)
#    0.000    2.273    1.818    1.091    0.000    4.000 
#    0.000    7.727    0.000    2.727    0.000    0.000 
#    0.000    0.000    0.000    0.000    0.000    0.000 
#
# Total GULP energy -545348.814943 kJ/mol
# GULP energy per Si atom -12394.291249 kJ/mol
# Density = 1.932760 g / cm^3
# Si number density = 19.371686 Si / 1000 Ang^3
#
#
#
# Elastic Constant Matrix: (Units=GPa)
#
#
# Indices 1 2 3 4 5 6 
#
# 1 167.7264 57.3673 59.3324 0.0000 0.0000 0.0000
# 2 57.3673 118.9049 30.7210 0.0000 0.0000 0.0000
# 3 59.3324 30.7210 75.8604 0.0000 0.0000 0.0000
# 4 0.0000 0.0000 0.0000 11.5335 0.0000 0.0000
# 5 0.0000 0.0000 0.0000 0.0000 11.6455 0.0000
# 6 0.0000 0.0000 0.0000 0.0000 0.0000 13.0974
#
#
#
# Elastic Compliance Matrix: (Units=1/GPa)
#
#
# Indices 1 2 3 4 5 6 
#
# 1 0.009019 -0.002824 -0.005910 0.000000 0.000000 0.000000
# 2 -0.002824 0.010277 -0.001953 0.000000 0.000000 0.000000
# 3 -0.005910 -0.001953 0.018595 0.000000 0.000000 0.000000
# 4 0.000000 0.000000 0.000000 0.086704 0.000000 0.000000
# 5 0.000000 0.000000 0.000000 0.000000 0.085870 0.000000
# 6 0.000000 0.000000 0.000000 0.000000 0.000000 0.076351
#
#
# Mechanical properties :
#
#
# Convention : Reuss Voigt Hill
#
# Bulk Modulus (GPa) = 60.54462 73.03701 66.79082
# Shear Modulus (GPa) = 15.93896 21.59335 18.76616
#
# Velocity S-wave (km/s) = 2.87156 3.34231 3.11584
# Velocity P-wave (km/s) = 6.50511 7.25807 6.89188
#
# Compressibility (1/GPa) = 0.01651674
#
# Stress axis : x y z
#
# Youngs Moduli (GPa) = 110.88056 97.30205 53.77666
#
# Poissons Ratio (x) = 0.27480 0.31782
# Poissons Ratio (y) = 0.31315 0.10503
# Poissons Ratio (z) = 0.65531 0.19004
#
# Static dielectric constant tensor:
#      x y z
#    x 3.801470 0.000000 0.000000 
#    y 0.000000 3.641120 0.000000 
#    z 0.000000 0.000000 3.379750 
# 
# 
# High freq. dielectric constant tensor:
#      x y z
#    x 1.751550 0.000000 0.000000 
#    y 0.000000 1.760930 0.000000 
#    z 0.000000 0.000000 1.726810 
# 
# From -- ./inp_files/56609.got.cif
#   From: 2010.06.25/outbox.cif.g09.slc.cpg/sg71_29_cif.got.tgz:56609.got - 2010.06.28 04:59:45.
