data_PCOD8288884
_publ_section_title
;
Structure prediction by ZEFSAII (Michael W. Deem and Ramdas Pophale) SiO2 
 PCOD8288884
Probable space group: I M M M
;
_chemical_formula_sum "Si O2"
_cell_formula_units_Z 88
_cell_length_a 27.554500
_cell_length_b 19.254038
_cell_length_c 9.336837
_cell_angle_alpha 90.000000
_cell_angle_beta 90.000000
_cell_angle_gamma 90.000000
_cell_volume 4953.522460
_symmetry_space_group_name_H-M "I M M M"
_symmetry_group_IT_number 71
_symmetry_cell_setting 'orthorhombic'
loop_
_space_group_symop_operation_xyz
x,y,z
-x,-y,z
x,-y,-z
-x,y,-z
-x,-y,-z
x,y,-z
-x,y,z
x,-y,z
1/2+x,1/2+y,1/2+z
1/2-x,1/2-y,1/2+z
1/2+x,1/2-y,1/2-z
1/2-x,1/2+y,1/2-z
1/2-x,1/2-y,1/2-z
1/2+x,1/2+y,1/2-z
1/2-x,1/2+y,1/2+z
1/2+x,1/2-y,1/2+z
loop_
_atom_site_type_symbol
_atom_site_label
_atom_site_fract_x
_atom_site_fract_y
_atom_site_fract_z
Si Si1 0.500000 0.420882 0.169902
Si Si2 0.685727 0.419876 0.335535
Si Si3 0.268695 0.184653 0.833189
Si Si4 0.054358 0.576433 0.670504
Si Si5 0.599558 0.349932 0.170535
Si Si6 0.377739 0.195284 0.830473
O O1 0.500000 0.500000 0.230611
O O2 0.547701 0.379646 0.223872
O O3 0.500000 0.423361 0.000000
O O4 0.671497 0.404739 0.500000
O O5 0.696376 0.500000 0.308073
O O6 0.735651 0.381264 0.293845
O O7 0.641750 0.396769 0.235836
O O8 0.250000 0.250000 0.750000
O O9 0.323898 0.172609 0.783698
O O10 0.266581 0.202293 0.000000
O O11 0.055546 0.580297 0.500000
O O12 0.072722 0.500000 0.719730
O O13 0.087560 0.636729 0.738075
O O14 0.000000 0.588957 0.726582
O O15 0.606672 0.271188 0.227410
O O16 0.603909 0.354069 0.000000
O O17 0.383095 0.196156 0.000000
#
# Coordination Sequence:
#
# PCOD8288884 Si02
#       6
#     8  16  16  16  16  16
#     4   9  18  30  45  69  98 126 158 201 247 287
#     4  10  21  35  51  72  99 131 164 200 244 292
#     4  10  19  33  50  70  97 128 162 200 242 286
#     4   8  14  24  39  63  97 131 157 188 237 293
#     4  10  19  32  51  74  99 129 164 203 246 292
#     4   9  17  27  44  68  93 124 162 198 237 285
#
# _framework density 17.765136999999999
#
# number of rings (size 3 to 8) (size 9 to 14) (size 15 to 20)
#    0.000    2.636    1.818    1.091    1.273    1.818 
#    0.000    4.091    0.000    1.636    0.000    0.000 
#    0.000    0.727    0.000    8.000    0.000    7.273 
#
# Total GULP energy -545442.774258 kJ/mol
# GULP energy per Si atom -12396.426688 kJ/mol
# Density = 1.772470 g / cm^3
# Si number density = 17.765137 Si / 1000 Ang^3
#
#
#
# Elastic Constant Matrix: (Units=GPa)
#
#
# Indices 1 2 3 4 5 6 
#
# 1 161.4179 98.6309 26.4621 0.0000 0.0000 0.0000
# 2 98.6309 157.7435 26.6873 0.0000 0.0000 0.0000
# 3 26.4621 26.6873 16.7965 0.0000 0.0000 0.0000
# 4 0.0000 0.0000 0.0000 16.2047 0.0000 0.0000
# 5 0.0000 0.0000 0.0000 0.0000 17.3512 0.0000
# 6 0.0000 0.0000 0.0000 0.0000 0.0000 41.7239
#
#
#
# Elastic Compliance Matrix: (Units=1/GPa)
#
#
# Indices 1 2 3 4 5 6 
#
# 1 0.010873 -0.005335 -0.008655 0.000000 0.000000 0.000000
# 2 -0.005335 0.011287 -0.009529 0.000000 0.000000 0.000000
# 3 -0.008655 -0.009529 0.088312 0.000000 0.000000 0.000000
# 4 0.000000 0.000000 0.000000 0.061711 0.000000 0.000000
# 5 0.000000 0.000000 0.000000 0.000000 0.057633 0.000000
# 6 0.000000 0.000000 0.000000 0.000000 0.000000 0.023967
#
#
# Mechanical properties :
#
#
# Convention : Reuss Voigt Hill
#
# Bulk Modulus (GPa) = 15.76408 71.05761 43.41085
# Shear Modulus (GPa) = 15.52962 27.33447 21.43205
#
# Velocity S-wave (km/s) = 2.95983 3.92683 3.47711
# Velocity P-wave (km/s) = 4.53582 7.78750 6.37255
#
# Compressibility (1/GPa) = 0.06343534
#
# Stress axis : x y z
#
# Youngs Moduli (GPa) = 91.96694 88.59715 11.32349
#
# Poissons Ratio (x) = 0.47262 0.09800
# Poissons Ratio (y) = 0.49060 0.10790
# Poissons Ratio (z) = 0.79596 0.84426
#
# Static dielectric constant tensor:
#      x y z
#    x 3.475270 0.000000 0.000000 
#    y 0.000000 3.949030 0.000000 
#    z 0.000000 0.000000 2.818530 
# 
# 
# High freq. dielectric constant tensor:
#      x y z
#    x 1.699410 0.000000 0.000000 
#    y 0.000000 1.702000 0.000000 
#    z 0.000000 0.000000 1.629110 
# 
# From -- ./inp_files/10483.got.cif
#   From: 2010.06.25/outbox.cif.g09.slc.cpg/sg71_6_cif.got.tgz:10483.got - 2010.06.28 04:59:45.
