data_PCOD8288077
_publ_section_title
;
Structure prediction by ZEFSAII (Michael W. Deem and Ramdas Pophale) SiO2 
 PCOD8288077
Probable space group: I M M M
;
_chemical_formula_sum "Si O2"
_cell_formula_units_Z 96
_cell_length_a 8.882420
_cell_length_b 24.540497
_cell_length_c 23.102415
_cell_angle_alpha 90.000000
_cell_angle_beta 90.000000
_cell_angle_gamma 90.000000
_cell_volume 5035.841351
_symmetry_space_group_name_H-M "I M M M"
_symmetry_group_IT_number 71
_symmetry_cell_setting 'orthorhombic'
loop_
_space_group_symop_operation_xyz
x,y,z
-x,-y,z
x,-y,-z
-x,y,-z
-x,-y,-z
x,y,-z
-x,y,z
x,-y,z
1/2+x,1/2+y,1/2+z
1/2-x,1/2-y,1/2+z
1/2+x,1/2-y,1/2-z
1/2-x,1/2+y,1/2-z
1/2-x,1/2-y,1/2-z
1/2+x,1/2+y,1/2-z
1/2-x,1/2+y,1/2+z
1/2+x,1/2-y,1/2+z
loop_
_atom_site_type_symbol
_atom_site_label
_atom_site_fract_x
_atom_site_fract_y
_atom_site_fract_z
Si Si1 0.335541 0.000000 0.165866
Si Si2 0.678078 0.745819 0.500000
Si Si3 0.177670 0.619311 0.199047
Si Si4 0.832270 0.093411 0.892654
Si Si5 0.167913 0.816409 0.802394
Si Si6 0.825623 0.369479 0.500000
Si Si7 0.337184 0.000000 0.299661
Si Si8 0.822450 0.718032 0.124274
O O1 0.234826 0.051900 0.152934
O O2 0.367713 0.000000 0.232573
O O3 0.500000 0.000000 0.134331
O O4 0.500000 0.752312 0.500000
O O5 0.720150 0.683002 0.500000
O O6 0.744768 0.772793 0.559393
O O7 0.234955 0.650436 0.256101
O O8 0.247700 0.558197 0.186940
O O9 0.216456 0.656320 0.143167
O O10 0.000000 0.612145 0.208236
O O11 0.840560 0.151742 0.862766
O O12 0.715863 0.093870 0.945327
O O13 0.000000 0.075700 0.912946
O O14 0.240179 0.758630 0.824450
O O15 0.000000 0.808672 0.776336
O O16 0.000000 0.353035 0.500000
O O17 0.500000 0.000000 0.332143
O O18 0.000000 0.728762 0.122347
#
# Coordination Sequence:
#
# PCOD8288077 Si02
#       8
#     8   8  16  16  16   8   8  16
#     4  11  21  36  54  77 106 141 184 226 269 312
#     4  10  18  36  57  76 104 140 178 219 263 317
#     4  10  19  33  52  77 106 140 175 212 264 321
#     4  11  22  37  56  76 104 142 183 224 266 315
#     4  10  19  32  51  78 105 134 172 217 265 315
#     4  12  24  37  55  80 105 139 182 223 268 315
#     4   9  18  31  50  75 107 140 169 211 264 315
#     4   9  18  32  54  78 103 137 177 214 261 320
#
# _framework density 19.06335
#
# number of rings (size 3 to 8) (size 9 to 14) (size 15 to 20)
#    0.000    1.833    3.333    2.000    0.000    1.000 
#    0.000    2.917    0.000    0.500    0.000    3.500 
#    0.000    0.000    0.000    2.250    0.000    2.500 
#
# Total GULP energy -594675.162594 kJ/mol
# GULP energy per Si atom -12389.065887 kJ/mol
# Density = 1.901996 g / cm^3
# Si number density = 19.063350 Si / 1000 Ang^3
#
#
#
# Elastic Constant Matrix: (Units=GPa)
#
#
# Indices 1 2 3 4 5 6 
#
# 1 43.2215 15.1298 9.1321 0.0000 0.0000 0.0000
# 2 15.1298 138.6627 29.7429 0.0000 0.0000 0.0000
# 3 9.1321 29.7429 55.4551 0.0000 0.0000 0.0000
# 4 0.0000 0.0000 0.0000 22.5153 0.0000 0.0000
# 5 0.0000 0.0000 0.0000 0.0000 16.7326 0.0000
# 6 0.0000 0.0000 0.0000 0.0000 0.0000 17.6442
#
#
#
# Elastic Compliance Matrix: (Units=1/GPa)
#
#
# Indices 1 2 3 4 5 6 
#
# 1 0.024471 -0.002040 -0.002935 0.000000 0.000000 0.000000
# 2 -0.002040 0.008319 -0.004126 0.000000 0.000000 0.000000
# 3 -0.002935 -0.004126 0.020729 0.000000 0.000000 0.000000
# 4 0.000000 0.000000 0.000000 0.044414 0.000000 0.000000
# 5 0.000000 0.000000 0.000000 0.000000 0.059764 0.000000
# 6 0.000000 0.000000 0.000000 0.000000 0.000000 0.056676
#
#
# Mechanical properties :
#
#
# Convention : Reuss Voigt Hill
#
# Bulk Modulus (GPa) = 28.31601 38.37209 33.34405
# Shear Modulus (GPa) = 20.46256 23.60073 22.03164
#
# Velocity S-wave (km/s) = 3.27983 3.52236 3.40326
# Velocity P-wave (km/s) = 5.40638 6.05930 5.74213
#
# Compressibility (1/GPa) = 0.03531571
#
# Stress axis : x y z
#
# Youngs Moduli (GPa) = 40.86450 120.20080 48.24164
#
# Poissons Ratio (x) = 0.24527 0.14161
# Poissons Ratio (y) = 0.08338 0.19905
# Poissons Ratio (z) = 0.11995 0.49595
#
# Static dielectric constant tensor:
#      x y z
#    x 3.241880 0.000000 0.000000 
#    y 0.000000 3.684500 0.000000 
#    z 0.000000 0.000000 3.443650 
# 
# 
# High freq. dielectric constant tensor:
#      x y z
#    x 1.709520 0.000000 0.000000 
#    y 0.000000 1.748350 0.000000 
#    z 0.000000 0.000000 1.722260 
# 
# From -- ./inp_files/57813.got.cif
#   From: 2010.06.25/outbox.cif.g09.slc.cpg/sg71_29_cif.got.tgz:57813.got - 2010.06.28 04:59:45.
