data_PCOD8288544
_publ_section_title
;
Structure prediction by ZEFSAII (Michael W. Deem and Ramdas Pophale) SiO2 
 PCOD8288544
Probable space group: I M M M
;
_chemical_formula_sum "Si O2"
_cell_formula_units_Z 128
_cell_length_a 22.568281
_cell_length_b 18.702831
_cell_length_c 17.963642
_cell_angle_alpha 90.000000
_cell_angle_beta 90.000000
_cell_angle_gamma 90.000000
_cell_volume 7582.287044
_symmetry_space_group_name_H-M "I M M M"
_symmetry_group_IT_number 71
_symmetry_cell_setting 'orthorhombic'
loop_
_space_group_symop_operation_xyz
x,y,z
-x,-y,z
x,-y,-z
-x,y,-z
-x,-y,-z
x,y,-z
-x,y,z
x,-y,z
1/2+x,1/2+y,1/2+z
1/2-x,1/2-y,1/2+z
1/2+x,1/2-y,1/2-z
1/2-x,1/2+y,1/2-z
1/2-x,1/2-y,1/2-z
1/2+x,1/2+y,1/2-z
1/2-x,1/2+y,1/2+z
1/2+x,1/2-y,1/2+z
loop_
_atom_site_type_symbol
_atom_site_label
_atom_site_fract_x
_atom_site_fract_y
_atom_site_fract_z
Si Si1 0.237044 0.689397 0.849329
Si Si2 0.635668 0.277380 0.414300
Si Si3 0.566370 0.719850 0.275536
Si Si4 0.329985 0.802452 0.199489
Si Si5 0.066677 0.080867 0.309683
Si Si6 0.826106 0.916471 0.584079
Si Si7 0.827362 0.419681 0.584477
Si Si8 0.311786 0.576432 0.585983
O O1 0.186623 0.717847 0.905523
O O2 0.287699 0.749312 0.845446
O O3 0.207321 0.669369 0.770351
O O4 0.267548 0.618514 0.880515
O O5 0.615649 0.280603 0.500000
O O6 0.579467 0.261525 0.362087
O O7 0.658672 0.353081 0.379718
O O8 0.500000 0.745993 0.258312
O O9 0.610648 0.762567 0.223039
O O10 0.573290 0.634956 0.259638
O O11 0.353398 0.865928 0.145982
O O12 0.113531 0.103192 0.372922
O O13 0.000000 0.086421 0.343410
O O14 0.078933 0.000000 0.281080
O O15 0.834462 0.888863 0.500000
O O16 0.813567 0.000000 0.586834
O O17 0.843404 0.395456 0.500000
O O18 0.851743 0.500000 0.598321
O O19 0.757670 0.417888 0.596700
O O20 0.328693 0.576089 0.500000
O O21 0.333638 0.500000 0.621232
#
# Coordination Sequence:
#
# PCOD8288544 Si02
#       8
#    16  16  16  16  16  16  16  16
#     4  10  19  31  47  73 102 128 161 198 243 302
#     4  10  19  31  50  72  97 131 163 201 251 293
#     4  10  21  36  50  68  95 128 173 214 241 285
#     4  10  19  32  50  72  99 131 162 197 246 293
#     4   9  18  33  50  67  94 135 175 208 242 279
#     4  10  20  32  48  71  98 129 164 205 248 287
#     4   9  17  29  48  76 105 130 157 191 236 294
#     4   8  14  24  39  65 100 129 153 185 229 282
#
# _framework density 16.881450000000001
#
# number of rings (size 3 to 8) (size 9 to 14) (size 15 to 20)
#    0.000    2.500    2.500    1.125    0.000    2.000 
#    0.000    3.750    0.000    0.750    0.000    4.375 
#    0.000    0.000    0.000   13.250    0.000    0.000 
#
# Total GULP energy -793145.955924 kJ/mol
# GULP energy per Si atom -12392.905561 kJ/mol
# Density = 1.684303 g / cm^3
# Si number density = 16.881450 Si / 1000 Ang^3
#
#
#
# Elastic Constant Matrix: (Units=GPa)
#
#
# Indices 1 2 3 4 5 6 
#
# 1 82.7850 34.5115 35.3570 0.0000 0.0000 0.0000
# 2 34.5115 68.8550 40.2627 0.0000 0.0000 0.0000
# 3 35.3570 40.2627 85.4087 0.0000 0.0000 0.0000
# 4 0.0000 0.0000 0.0000 24.5398 0.0000 0.0000
# 5 0.0000 0.0000 0.0000 0.0000 13.8473 0.0000
# 6 0.0000 0.0000 0.0000 0.0000 0.0000 21.1353
#
#
#
# Elastic Compliance Matrix: (Units=1/GPa)
#
#
# Indices 1 2 3 4 5 6 
#
# 1 0.016191 -0.005793 -0.003972 0.000000 0.000000 0.000000
# 2 -0.005793 0.022123 -0.008031 0.000000 0.000000 0.000000
# 3 -0.003972 -0.008031 0.017138 0.000000 0.000000 0.000000
# 4 0.000000 0.000000 0.000000 0.040750 0.000000 0.000000
# 5 0.000000 0.000000 0.000000 0.000000 0.072216 0.000000
# 6 0.000000 0.000000 0.000000 0.000000 0.000000 0.047314
#
#
# Mechanical properties :
#
#
# Convention : Reuss Voigt Hill
#
# Bulk Modulus (GPa) = 50.34940 50.81234 50.58087
# Shear Modulus (GPa) = 19.38412 20.36566 19.87489
#
# Velocity S-wave (km/s) = 3.39226 3.47708 3.43493
# Velocity P-wave (km/s) = 6.72557 6.80331 6.76455
#
# Compressibility (1/GPa) = 0.01986121
#
# Stress axis : x y z
#
# Youngs Moduli (GPa) = 61.76413 45.20251 58.34820
#
# Poissons Ratio (x) = 0.26184 0.23175
# Poissons Ratio (y) = 0.35777 0.46859
# Poissons Ratio (z) = 0.24532 0.36302
#
# Static dielectric constant tensor:
#      x y z
#    x 2.943880 0.000000 0.000000 
#    y 0.000000 3.214820 0.000000 
#    z 0.000000 0.000000 3.100260 
# 
# 
# High freq. dielectric constant tensor:
#      x y z
#    x 1.624920 0.000000 0.000000 
#    y 0.000000 1.645280 0.000000 
#    z 0.000000 0.000000 1.644810 
# 
# From -- ./inp_files/46649.got.cif
#   From: 2010.06.25/outbox.cif.g09.slc.cpg/sg71_24_cif.got.tgz:46649.got - 2010.06.28 04:59:45.
