data_PCOD8288896
_publ_section_title
;
Structure prediction by ZEFSAII (Michael W. Deem and Ramdas Pophale) SiO2 
 PCOD8288896
Probable space group: I M M M
;
_chemical_formula_sum "Si O2"
_cell_formula_units_Z 88
_cell_length_a 17.245734
_cell_length_b 8.942061
_cell_length_c 28.550912
_cell_angle_alpha 90.000000
_cell_angle_beta 90.000000
_cell_angle_gamma 90.000000
_cell_volume 4402.904816
_symmetry_space_group_name_H-M "I M M M"
_symmetry_group_IT_number 71
_symmetry_cell_setting 'orthorhombic'
loop_
_space_group_symop_operation_xyz
x,y,z
-x,-y,z
x,-y,-z
-x,y,-z
-x,-y,-z
x,y,-z
-x,y,z
x,-y,z
1/2+x,1/2+y,1/2+z
1/2-x,1/2-y,1/2+z
1/2+x,1/2-y,1/2-z
1/2-x,1/2+y,1/2-z
1/2-x,1/2-y,1/2-z
1/2+x,1/2+y,1/2-z
1/2-x,1/2+y,1/2+z
1/2+x,1/2-y,1/2+z
loop_
_atom_site_type_symbol
_atom_site_label
_atom_site_fract_x
_atom_site_fract_y
_atom_site_fract_z
Si Si1 0.813442 0.178292 0.052797
Si Si2 0.154843 0.325051 0.405434
Si Si3 0.087048 0.177948 0.138664
Si Si4 0.827953 0.824635 0.768785
Si Si5 0.000000 0.332030 0.554747
Si Si6 0.912431 0.330209 0.691225
O O1 0.732279 0.245756 0.072313
O O2 0.880571 0.233217 0.088266
O O3 0.810137 0.000000 0.052688
O O4 0.829325 0.238004 0.000000
O O5 0.155387 0.500000 0.417513
O O6 0.150122 0.297973 0.349705
O O7 0.078411 0.249230 0.428367
O O8 0.144662 0.233779 0.180000
O O9 0.000000 0.243042 0.145104
O O10 0.084015 0.000000 0.140320
O O11 0.750000 0.750000 0.750000
O O12 0.897144 0.783465 0.733382
O O13 0.813852 0.000000 0.769971
O O14 0.000000 0.500000 0.576671
O O15 0.000000 0.338632 0.500000
O O16 0.901919 0.500000 0.709272
O O17 0.000000 0.305330 0.672293
#
# Coordination Sequence:
#
# PCOD8288896 Si02
#       6
#    16  16  16  16   8  16
#     4   9  16  25  40  63  93 131 171 209 252 307
#     4   9  15  25  39  63  99 137 173 210 255 302
#     4   9  18  32  48  68  97 133 169 206 255 313
#     4  11  22  36  54  76 103 137 174 216 266 319
#     4   9  14  20  34  58  93 137 177 211 252 305
#     4  10  19  32  51  75 106 144 179 212 254 305
#
# _framework density 19.986806000000001
#
# number of rings (size 3 to 8) (size 9 to 14) (size 15 to 20)
#    0.000    2.455    0.909    2.727    0.000    6.545 
#    0.000    1.818    0.000    0.000    0.000    0.000 
#    0.000   25.455    0.000   17.273    0.000   18.909 
#
# Total GULP energy -545327.673220 kJ/mol
# GULP energy per Si atom -12393.810755 kJ/mol
# Density = 1.994131 g / cm^3
# Si number density = 19.986806 Si / 1000 Ang^3
#
#
#
# Elastic Constant Matrix: (Units=GPa)
#
#
# Indices 1 2 3 4 5 6 
#
# 1 143.9954 16.7412 79.3853 0.0000 0.0000 0.0000
# 2 16.7412 20.1910 21.2593 0.0000 0.0000 0.0000
# 3 79.3853 21.2593 156.1987 0.0000 0.0000 0.0000
# 4 0.0000 0.0000 0.0000 16.3150 0.0000 0.0000
# 5 0.0000 0.0000 0.0000 0.0000 38.3247 0.0000
# 6 0.0000 0.0000 0.0000 0.0000 0.0000 16.4336
#
#
#
# Elastic Compliance Matrix: (Units=1/GPa)
#
#
# Indices 1 2 3 4 5 6 
#
# 1 0.009841 -0.003378 -0.004542 0.000000 0.000000 0.000000
# 2 -0.003378 0.058971 -0.006310 0.000000 0.000000 0.000000
# 3 -0.004542 -0.006310 0.009569 0.000000 0.000000 0.000000
# 4 0.000000 0.000000 0.000000 0.061293 0.000000 0.000000
# 5 0.000000 0.000000 0.000000 0.000000 0.026093 0.000000
# 6 0.000000 0.000000 0.000000 0.000000 0.000000 0.060851
#
#
# Mechanical properties :
#
#
# Convention : Reuss Voigt Hill
#
# Bulk Modulus (GPa) = 20.03077 61.68408 40.85742
# Shear Modulus (GPa) = 18.40142 27.74793 23.07468
#
# Velocity S-wave (km/s) = 3.03756 3.73005 3.40147
# Velocity P-wave (km/s) = 4.72717 7.03423 5.99277
#
# Compressibility (1/GPa) = 0.04992320
#
# Stress axis : x y z
#
# Youngs Moduli (GPa) = 101.61170 16.95751 104.50131
#
# Poissons Ratio (x) = 0.05728 0.47465
# Poissons Ratio (y) = 0.34320 0.65936
# Poissons Ratio (z) = 0.46152 0.10699
#
# Static dielectric constant tensor:
#      x y z
#    x 3.925580 0.000000 0.000000 
#    y 0.000000 2.943870 0.000000 
#    z 0.000000 0.000000 3.840410 
# 
# 
# High freq. dielectric constant tensor:
#      x y z
#    x 1.795400 0.000000 0.000000 
#    y 0.000000 1.688290 0.000000 
#    z 0.000000 0.000000 1.793300 
# 
# From -- ./inp_files/42474.got.cif
#   From: 2010.06.25/outbox.cif.g09.slc.cpg/sg71_22_cif.got.tgz:42474.got - 2010.06.28 04:59:45.
