data_PCOD8288938
_publ_section_title
;
Structure prediction by ZEFSAII (Michael W. Deem and Ramdas Pophale) SiO2 
 PCOD8288938
Probable space group: I M M M
;
_chemical_formula_sum "Si O2"
_cell_formula_units_Z 120
_cell_length_a 20.612530
_cell_length_b 22.711377
_cell_length_c 14.153248
_cell_angle_alpha 90.000000
_cell_angle_beta 90.000000
_cell_angle_gamma 90.000000
_cell_volume 6625.686513
_symmetry_space_group_name_H-M "I M M M"
_symmetry_group_IT_number 71
_symmetry_cell_setting 'orthorhombic'
loop_
_space_group_symop_operation_xyz
x,y,z
-x,-y,z
x,-y,-z
-x,y,-z
-x,-y,-z
x,y,-z
-x,y,z
x,-y,z
1/2+x,1/2+y,1/2+z
1/2-x,1/2-y,1/2+z
1/2+x,1/2-y,1/2-z
1/2-x,1/2+y,1/2-z
1/2-x,1/2-y,1/2-z
1/2+x,1/2+y,1/2-z
1/2-x,1/2+y,1/2+z
1/2+x,1/2-y,1/2+z
loop_
_atom_site_type_symbol
_atom_site_label
_atom_site_fract_x
_atom_site_fract_y
_atom_site_fract_z
Si Si1 0.427438 0.675252 0.801648
Si Si2 0.277289 0.067583 0.225334
Si Si3 0.316347 0.142781 0.388454
Si Si4 0.572111 0.431223 0.500000
Si Si5 0.072914 0.701115 0.220313
Si Si6 0.126975 0.931787 0.198054
Si Si7 0.197835 0.215136 0.393273
Si Si8 0.349765 0.160512 0.110349
O O1 0.500000 0.679222 0.846122
O O2 0.418603 0.727922 0.725185
O O3 0.419504 0.610425 0.758260
O O4 0.372015 0.684438 0.879528
O O5 0.309103 0.083080 0.327223
O O6 0.200867 0.080710 0.225436
O O7 0.310967 0.102414 0.139404
O O8 0.291416 0.000000 0.204113
O O9 0.313969 0.128147 0.500000
O O10 0.382689 0.176327 0.363882
O O11 0.258045 0.182626 0.343385
O O12 0.560693 0.500000 0.500000
O O13 0.500000 0.401261 0.500000
O O14 0.614721 0.413059 0.590012
O O15 0.088079 0.670474 0.322051
O O16 0.000000 0.683928 0.193561
O O17 0.107996 0.000000 0.217372
O O18 0.217168 0.206225 0.500000
O O19 0.197138 0.283978 0.367902
O O20 0.370836 0.157839 0.000000
#
# Coordination Sequence:
#
# PCOD8288938 Si02
#       8
#    16  16  16   8  16  16  16  16
#     4  10  19  32  52  76 108 145 177 220 264 304
#     4  10  21  34  52  81 110 138 177 225 267 310
#     4  10  20  36  58  77 102 141 178 224 274 317
#     4   9  18  32  46  62  92 140 191 223 248 300
#     4   9  20  35  53  82 112 135 169 217 269 325
#     4  10  20  33  49  70 103 147 187 223 259 300
#     4   9  18  33  53  79 104 135 180 220 264 316
#     4   9  19  33  55  81 107 139 172 213 266 323
#
# _framework density 18.111331
#
# number of rings (size 3 to 8) (size 9 to 14) (size 15 to 20)
#    0.000    2.467    1.333    0.400    2.800    3.733 
#    1.200    2.667    0.000    6.800    0.000    8.400 
#    0.000    0.000    0.000    0.000    0.000    0.000 
#
# Total GULP energy -743554.898487 kJ/mol
# GULP energy per Si atom -12392.581641 kJ/mol
# Density = 1.807011 g / cm^3
# Si number density = 18.111331 Si / 1000 Ang^3
#
#
#
# Elastic Constant Matrix: (Units=GPa)
#
#
# Indices 1 2 3 4 5 6 
#
# 1 100.5309 40.4293 11.3806 0.0000 0.0000 0.0000
# 2 40.4293 89.6161 23.3641 0.0000 0.0000 0.0000
# 3 11.3806 23.3641 57.3270 0.0000 0.0000 0.0000
# 4 0.0000 0.0000 0.0000 19.1706 0.0000 0.0000
# 5 0.0000 0.0000 0.0000 0.0000 15.5059 0.0000
# 6 0.0000 0.0000 0.0000 0.0000 0.0000 22.4415
#
#
#
# Elastic Compliance Matrix: (Units=1/GPa)
#
#
# Indices 1 2 3 4 5 6 
#
# 1 0.012154 -0.005431 -0.000199 0.000000 0.000000 0.000000
# 2 -0.005431 0.014912 -0.004999 0.000000 0.000000 0.000000
# 3 -0.000199 -0.004999 0.019521 0.000000 0.000000 0.000000
# 4 0.000000 0.000000 0.000000 0.052163 0.000000 0.000000
# 5 0.000000 0.000000 0.000000 0.000000 0.064491 0.000000
# 6 0.000000 0.000000 0.000000 0.000000 0.000000 0.044560
#
#
# Mechanical properties :
#
#
# Convention : Reuss Voigt Hill
#
# Bulk Modulus (GPa) = 39.48293 44.20243 41.84268
# Shear Modulus (GPa) = 21.05225 22.91028 21.98126
#
# Velocity S-wave (km/s) = 3.41307 3.56050 3.48756
# Velocity P-wave (km/s) = 6.11388 6.43131 6.27460
#
# Compressibility (1/GPa) = 0.02532740
#
# Stress axis : x y z
#
# Youngs Moduli (GPa) = 82.27793 67.05855 51.22710
#
# Poissons Ratio (x) = 0.36421 0.01021
# Poissons Ratio (y) = 0.44686 0.25611
# Poissons Ratio (z) = 0.01640 0.33526
#
# Static dielectric constant tensor:
#      x y z
#    x 3.360750 0.000000 0.000000 
#    y 0.000000 3.268860 0.000000 
#    z 0.000000 0.000000 3.231990 
# 
# 
# High freq. dielectric constant tensor:
#      x y z
#    x 1.701320 0.000000 0.000000 
#    y 0.000000 1.692200 0.000000 
#    z 0.000000 0.000000 1.687970 
# 
# From -- ./inp_files/38392.got.cif
#   From: 2010.06.25/outbox.cif.g09.slc.cpg/sg71_20_cif.got.tgz:38392.got - 2010.06.28 04:59:45.
