data_PCOD8288054
_publ_section_title
;
Structure prediction by ZEFSAII (Michael W. Deem and Ramdas Pophale) SiO2 
 PCOD8288054
Probable space group: I M M M
;
_chemical_formula_sum "Si O2"
_cell_formula_units_Z 80
_cell_length_a 23.783956
_cell_length_b 10.309305
_cell_length_c 17.909647
_cell_angle_alpha 90.000000
_cell_angle_beta 90.000000
_cell_angle_gamma 90.000000
_cell_volume 4391.374818
_symmetry_space_group_name_H-M "I M M M"
_symmetry_group_IT_number 71
_symmetry_cell_setting 'orthorhombic'
loop_
_space_group_symop_operation_xyz
x,y,z
-x,-y,z
x,-y,-z
-x,y,-z
-x,-y,-z
x,y,-z
-x,y,z
x,-y,z
1/2+x,1/2+y,1/2+z
1/2-x,1/2-y,1/2+z
1/2+x,1/2-y,1/2-z
1/2-x,1/2+y,1/2-z
1/2-x,1/2-y,1/2-z
1/2+x,1/2+y,1/2-z
1/2-x,1/2+y,1/2+z
1/2+x,1/2-y,1/2+z
loop_
_atom_site_type_symbol
_atom_site_label
_atom_site_fract_x
_atom_site_fract_y
_atom_site_fract_z
Si Si1 0.934508 0.500000 0.787808
Si Si2 0.151781 0.152539 0.412912
Si Si3 0.727813 0.759903 0.588447
Si Si4 0.652913 0.000000 0.588261
Si Si5 0.564377 0.500000 0.310682
Si Si6 0.830915 0.000000 0.911291
Si Si7 0.435049 0.739872 0.204033
O O1 0.905827 0.500000 0.868711
O O2 0.916474 0.374806 0.740617
O O3 0.000000 0.500000 0.805820
O O4 0.143390 0.181667 0.500000
O O5 0.209227 0.216392 0.381405
O O6 0.100015 0.218238 0.370913
O O7 0.154116 0.000000 0.397195
O O8 0.730411 0.760503 0.500000
O O9 0.703295 0.624464 0.618744
O O10 0.687483 0.874947 0.614983
O O11 0.640486 0.000000 0.500000
O O12 0.500000 0.500000 0.339826
O O13 0.605522 0.500000 0.381363
O O14 0.577311 0.373611 0.262350
O O15 0.835765 0.000000 0.000000
O O16 0.500000 0.741297 0.180024
#
# Coordination Sequence:
#
# PCOD8288054 Si02
#       7
#     8  16  16   8   8   8  16
#     4  10  22  38  54  77 113 147 175 219 277 322
#     4  10  19  35  60  84 105 136 183 227 264 320
#     4   9  18  33  53  79 110 140 173 222 276 316
#     4  10  18  34  59  80 103 143 189 221 256 312
#     4  10  20  36  56  77 107 145 183 223 269 314
#     4  10  20  34  53  80 111 143 181 221 266 324
#     4  10  21  38  56  78 110 144 176 220 277 324
#
# _framework density 18.217531000000001
#
# number of rings (size 3 to 8) (size 9 to 14) (size 15 to 20)
#    0.000    2.200    2.000    1.200    0.000    1.600 
#    0.000    8.500    0.000    9.000    0.000    0.000 
#    0.000    0.000    0.000    0.000    0.000    0.000 
#
# Total GULP energy -496065.685154 kJ/mol
# GULP energy per Si atom -12401.642129 kJ/mol
# Density = 1.817607 g / cm^3
# Si number density = 18.217531 Si / 1000 Ang^3
#
#
#
# Elastic Constant Matrix: (Units=GPa)
#
#
# Indices 1 2 3 4 5 6 
#
# 1 122.7180 61.0251 66.5373 0.0000 0.0000 0.0000
# 2 61.0251 160.2315 47.6228 0.0000 0.0000 0.0000
# 3 66.5373 47.6228 66.2471 0.0000 0.0000 0.0000
# 4 0.0000 0.0000 0.0000 0.5703 0.0000 0.0000
# 5 0.0000 0.0000 0.0000 0.0000 32.2985 0.0000
# 6 0.0000 0.0000 0.0000 0.0000 0.0000 -27.9230
#
#
#
# Elastic Compliance Matrix: (Units=1/GPa)
#
#
# Indices 1 2 3 4 5 6 
#
# 1 0.018346 -0.001921 -0.017045 0.000000 0.000000 0.000000
# 2 -0.001921 0.008138 -0.003921 0.000000 0.000000 0.000000
# 3 -0.017045 -0.003921 0.035033 0.000000 0.000000 0.000000
# 4 0.000000 0.000000 0.000000 1.753469 0.000000 0.000000
# 5 0.000000 0.000000 0.000000 0.000000 0.030961 0.000000
# 6 0.000000 0.000000 0.000000 0.000000 0.000000 -0.035813
#
#
# Mechanical properties :
#
#
# Convention : Reuss Voigt Hill
#
# Bulk Modulus (GPa) = 63.51920 77.72966 70.62443
# Shear Modulus (GPa) = 2.68650 12.58991 7.63821
#
# Velocity S-wave (km/s) = 1.21568 2.63171 2.04985
# Velocity P-wave (km/s) = 6.07563 7.21073 6.66738
#
# Compressibility (1/GPa) = 0.01574327
#
# Stress axis : x y z
#
# Youngs Moduli (GPa) = 54.50756 122.88242 28.54411
#
# Poissons Ratio (x) = 0.23607 0.48655
# Poissons Ratio (y) = 0.10471 0.11191
# Poissons Ratio (z) = 0.92911 0.48177
#
# Static dielectric constant tensor:
#      x y z
#    x 3.424690 0.000000 0.000000 
#    y 0.000000 3.699720 0.000000 
#    z 0.000000 0.000000 3.009310 
# 
# 
# High freq. dielectric constant tensor:
#      x y z
#    x 1.713100 0.000000 0.000000 
#    y 0.000000 1.721260 0.000000 
#    z 0.000000 0.000000 1.679800 
# 
# From -- ./inp_files/47085.got.cif
#   From: 2010.06.25/outbox.cif.g09.slc.cpg/sg71_24_cif.got.tgz:47085.got - 2010.06.28 04:59:45.
