data_PCOD8288255
_publ_section_title
;
Structure prediction by ZEFSAII (Michael W. Deem and Ramdas Pophale) SiO2 
 PCOD8288255
Probable space group: I M M M
;
_chemical_formula_sum "Si O2"
_cell_formula_units_Z 96
_cell_length_a 28.652931
_cell_length_b 28.064684
_cell_length_c 8.878879
_cell_angle_alpha 90.000000
_cell_angle_beta 90.000000
_cell_angle_gamma 90.000000
_cell_volume 7139.821397
_symmetry_space_group_name_H-M "I M M M"
_symmetry_group_IT_number 71
_symmetry_cell_setting 'orthorhombic'
loop_
_space_group_symop_operation_xyz
x,y,z
-x,-y,z
x,-y,-z
-x,y,-z
-x,-y,-z
x,y,-z
-x,y,z
x,-y,z
1/2+x,1/2+y,1/2+z
1/2-x,1/2-y,1/2+z
1/2+x,1/2-y,1/2-z
1/2-x,1/2+y,1/2-z
1/2-x,1/2-y,1/2-z
1/2+x,1/2+y,1/2-z
1/2-x,1/2+y,1/2+z
1/2+x,1/2-y,1/2+z
loop_
_atom_site_type_symbol
_atom_site_label
_atom_site_fract_x
_atom_site_fract_y
_atom_site_fract_z
Si Si1 0.553393 0.408664 0.827318
Si Si2 0.626109 0.651476 0.670237
Si Si3 0.278818 0.594058 0.326858
Si Si4 0.688538 0.266814 0.672835
Si Si5 0.266276 0.824545 0.328662
Si Si6 0.593864 0.500000 0.322645
Si Si7 0.804832 0.000000 0.677407
O O1 0.500000 0.393808 0.801616
O O2 0.585050 0.363562 0.782447
O O3 0.565117 0.453717 0.724552
O O4 0.563116 0.422433 0.000000
O O5 0.609029 0.642442 0.500000
O O6 0.672132 0.620169 0.703269
O O7 0.638247 0.707578 0.696751
O O8 0.272010 0.580623 0.500000
O O9 0.236158 0.628719 0.276336
O O10 0.276278 0.546255 0.229472
O O11 0.705021 0.278256 0.500000
O O12 0.687455 0.209042 0.696652
O O13 0.723371 0.289515 0.793538
O O14 0.262932 0.842211 0.500000
O O15 0.601020 0.500000 0.500000
O O16 0.644323 0.500000 0.249421
O O17 0.810202 0.000000 0.500000
#
# Coordination Sequence:
#
# PCOD8288255 Si02
#       7
#    16  16  16  16  16   8   8
#     4  11  23  35  45  58  75  94 122 163 202 237
#     4   9  17  29  44  58  74  96 121 151 190 234
#     4  10  19  30  42  57  78  99 121 153 188 225
#     4   8  15  26  39  56  78  97 117 147 182 221
#     4   9  15  24  39  58  77  98 120 145 179 220
#     4  12  23  35  48  59  70  92 122 158 202 247
#     4  12  22  31  45  60  74  97 128 160 193 233
#
# _framework density 13.445714000000001
#
# number of rings (size 3 to 8) (size 9 to 14) (size 15 to 20)
#    0.000    2.167    1.667    4.250    0.000    5.667 
#    0.000    0.000    0.000    0.000    0.000    0.000 
#    0.000    0.000    0.000    0.000    0.000    0.000 
#
# Total GULP energy -594894.411520 kJ/mol
# GULP energy per Si atom -12393.633573 kJ/mol
# Density = 1.341511 g / cm^3
# Si number density = 13.445714 Si / 1000 Ang^3
#
#
#
# Elastic Constant Matrix: (Units=GPa)
#
#
# Indices 1 2 3 4 5 6 
#
# 1 37.9794 43.7092 25.5962 0.0000 0.0000 0.0000
# 2 43.7092 84.5926 41.9998 0.0000 0.0000 0.0000
# 3 25.5962 41.9998 83.0373 0.0000 0.0000 0.0000
# 4 0.0000 0.0000 0.0000 22.0603 0.0000 0.0000
# 5 0.0000 0.0000 0.0000 0.0000 15.2353 0.0000
# 6 0.0000 0.0000 0.0000 0.0000 0.0000 5.2093
#
#
#
# Elastic Compliance Matrix: (Units=1/GPa)
#
#
# Indices 1 2 3 4 5 6 
#
# 1 0.066003 -0.032052 -0.004134 0.000000 0.000000 0.000000
# 2 -0.032052 0.031350 -0.005977 0.000000 0.000000 0.000000
# 3 -0.004134 -0.005977 0.016340 0.000000 0.000000 0.000000
# 4 0.000000 0.000000 0.000000 0.045330 0.000000 0.000000
# 5 0.000000 0.000000 0.000000 0.000000 0.065637 0.000000
# 6 0.000000 0.000000 0.000000 0.000000 0.000000 0.191963
#
#
# Mechanical properties :
#
#
# Convention : Reuss Voigt Hill
#
# Bulk Modulus (GPa) = 34.04989 47.57999 40.81494
# Shear Modulus (GPa) = 9.78976 14.78793 12.28885
#
# Velocity S-wave (km/s) = 2.70125 3.31996 3.02646
# Velocity P-wave (km/s) = 5.92520 7.08235 6.52946
#
# Compressibility (1/GPa) = 0.02936867
#
# Stress axis : x y z
#
# Youngs Moduli (GPa) = 15.15078 31.89798 61.19923
#
# Poissons Ratio (x) = 1.02238 0.25300
# Poissons Ratio (y) = 0.48561 0.36577
# Poissons Ratio (z) = 0.06263 0.19065
#
# Static dielectric constant tensor:
#      x y z
#    x 2.435320 0.000000 0.000000 
#    y 0.000000 2.928850 0.000000 
#    z 0.000000 0.000000 2.820510 
# 
# 
# High freq. dielectric constant tensor:
#      x y z
#    x 1.452330 0.000000 0.000000 
#    y 0.000000 1.506500 0.000000 
#    z 0.000000 0.000000 1.529940 
# 
# From -- ./inp_files/17566.got.cif
#   From: 2010.06.25/outbox.cif.g09.slc.cpg/sg71_9_cif.got.tgz:17566.got - 2010.06.28 04:59:45.
