data_PCOD8288878
_publ_section_title
;
Structure prediction by ZEFSAII (Michael W. Deem and Ramdas Pophale) SiO2 
 PCOD8288878
Probable space group: I M M M
;
_chemical_formula_sum "Si O2"
_cell_formula_units_Z 104
_cell_length_a 19.652458
_cell_length_b 9.535123
_cell_length_c 30.013402
_cell_angle_alpha 90.000000
_cell_angle_beta 90.000000
_cell_angle_gamma 90.000000
_cell_volume 5624.169511
_symmetry_space_group_name_H-M "I M M M"
_symmetry_group_IT_number 71
_symmetry_cell_setting 'orthorhombic'
loop_
_space_group_symop_operation_xyz
x,y,z
-x,-y,z
x,-y,-z
-x,y,-z
-x,-y,-z
x,y,-z
-x,y,z
x,-y,z
1/2+x,1/2+y,1/2+z
1/2-x,1/2-y,1/2+z
1/2+x,1/2-y,1/2-z
1/2-x,1/2+y,1/2-z
1/2-x,1/2-y,1/2-z
1/2+x,1/2+y,1/2-z
1/2-x,1/2+y,1/2+z
1/2+x,1/2-y,1/2+z
loop_
_atom_site_type_symbol
_atom_site_label
_atom_site_fract_x
_atom_site_fract_y
_atom_site_fract_z
Si Si1 0.144803 0.332677 0.870343
Si Si2 0.000000 0.332828 0.736582
Si Si3 0.256320 0.841501 0.706522
Si Si4 0.736745 0.833878 0.550426
Si Si5 0.896426 0.844722 0.682907
Si Si6 0.500000 0.166188 0.339257
Si Si7 0.500000 0.148944 0.049319
Si Si8 0.385055 0.661131 0.918059
O O1 0.148075 0.500000 0.869984
O O2 0.188317 0.278471 0.827846
O O3 0.176374 0.276484 0.917070
O O4 0.067384 0.276896 0.864586
O O5 0.932374 0.270951 0.713630
O O6 0.000000 0.500000 0.731243
O O7 0.000000 0.285137 0.787926
O O8 0.250000 0.750000 0.750000
O O9 0.184316 0.835954 0.682775
O O10 0.276475 0.000000 0.720124
O O11 0.729262 0.771938 0.500000
O O12 0.807705 0.789080 0.573249
O O13 0.731884 0.000000 0.547858
O O14 0.913729 0.819003 0.631710
O O15 0.920869 0.000000 0.698240
O O16 0.500000 0.000000 0.340681
O O17 0.432502 0.239674 0.053956
O O18 0.500000 0.000000 0.077444
O O19 0.500000 0.095955 0.000000
O O20 0.392696 0.500000 0.933394
#
# Coordination Sequence:
#
# PCOD8288878 Si02
#       8
#    16   8  16  16  16   8   8  16
#     4   9  16  30  48  70 100 132 167 210 259 309
#     4  11  22  34  49  75 105 140 183 216 252 313
#     4  10  19  32  51  74 104 138 175 214 255 303
#     4   9  16  28  50  76  98 126 171 222 262 301
#     4  10  20  34  51  73 102 137 173 216 262 301
#     4   9  18  30  47  69  99 137 169 204 257 315
#     4  11  24  37  48  70 105 139 168 207 262 312
#     4  10  19  34  54  76  99 132 179 219 255 303
#
# _framework density 18.491619
#
# number of rings (size 3 to 8) (size 9 to 14) (size 15 to 20)
#    0.000    2.231    1.538    2.308    0.000    5.538 
#    0.000    0.385    0.000    2.308    0.000    0.000 
#    0.000    0.000    0.000    0.000    0.000   19.154 
#
# Total GULP energy -644420.561526 kJ/mol
# GULP energy per Si atom -12392.703106 kJ/mol
# Density = 1.844953 g / cm^3
# Si number density = 18.491619 Si / 1000 Ang^3
#
#
#
# Elastic Constant Matrix: (Units=GPa)
#
#
# Indices 1 2 3 4 5 6 
#
# 1 141.4213 32.7693 61.4789 0.0000 0.0000 0.0000
# 2 32.7693 53.8186 35.9766 0.0000 0.0000 0.0000
# 3 61.4789 35.9766 113.4390 0.0000 0.0000 0.0000
# 4 0.0000 0.0000 0.0000 18.8079 0.0000 0.0000
# 5 0.0000 0.0000 0.0000 0.0000 24.9126 0.0000
# 6 0.0000 0.0000 0.0000 0.0000 0.0000 11.5197
#
#
#
# Elastic Compliance Matrix: (Units=1/GPa)
#
#
# Indices 1 2 3 4 5 6 
#
# 1 0.009620 -0.003011 -0.004259 0.000000 0.000000 0.000000
# 2 -0.003011 0.024522 -0.006145 0.000000 0.000000 0.000000
# 3 -0.004259 -0.006145 0.013072 0.000000 0.000000 0.000000
# 4 0.000000 0.000000 0.000000 0.053169 0.000000 0.000000
# 5 0.000000 0.000000 0.000000 0.000000 0.040140 0.000000
# 6 0.000000 0.000000 0.000000 0.000000 0.000000 0.086807
#
#
# Mechanical properties :
#
#
# Convention : Reuss Voigt Hill
#
# Bulk Modulus (GPa) = 49.05603 63.23646 56.14625
# Shear Modulus (GPa) = 19.16030 22.94500 21.05265
#
# Velocity S-wave (km/s) = 3.22244 3.52637 3.37782
# Velocity P-wave (km/s) = 6.35861 7.13106 6.75588
#
# Compressibility (1/GPa) = 0.02038485
#
# Stress axis : x y z
#
# Youngs Moduli (GPa) = 103.94920 40.77948 76.49682
#
# Poissons Ratio (x) = 0.12277 0.32579
# Poissons Ratio (y) = 0.31294 0.47011
# Poissons Ratio (z) = 0.44271 0.25061
#
# Static dielectric constant tensor:
#      x y z
#    x 3.283410 0.000000 0.000000 
#    y 0.000000 2.776820 0.000000 
#    z 0.000000 0.000000 3.653960 
# 
# 
# High freq. dielectric constant tensor:
#      x y z
#    x 1.725570 0.000000 0.000000 
#    y 0.000000 1.669950 0.000000 
#    z 0.000000 0.000000 1.719500 
# 
# From -- ./inp_files/66476.got.cif
#   From: 2010.06.25/outbox.cif.g09.slc.cpg/sg71_34_cif.got.tgz:66476.got - 2010.06.28 04:59:45.
