data_PCOD8288549
_publ_section_title
;
Structure prediction by ZEFSAII (Michael W. Deem and Ramdas Pophale) SiO2 
 PCOD8288549
Probable space group: I M M M
;
_chemical_formula_sum "Si O2"
_cell_formula_units_Z 80
_cell_length_a 29.855493
_cell_length_b 13.155373
_cell_length_c 12.472094
_cell_angle_alpha 90.000000
_cell_angle_beta 90.000000
_cell_angle_gamma 90.000000
_cell_volume 4898.541467
_symmetry_space_group_name_H-M "I M M M"
_symmetry_group_IT_number 71
_symmetry_cell_setting 'orthorhombic'
loop_
_space_group_symop_operation_xyz
x,y,z
-x,-y,z
x,-y,-z
-x,y,-z
-x,-y,-z
x,y,-z
-x,y,z
x,-y,z
1/2+x,1/2+y,1/2+z
1/2-x,1/2-y,1/2+z
1/2+x,1/2-y,1/2-z
1/2-x,1/2+y,1/2-z
1/2-x,1/2-y,1/2-z
1/2+x,1/2+y,1/2-z
1/2-x,1/2+y,1/2+z
1/2+x,1/2-y,1/2+z
loop_
_atom_site_type_symbol
_atom_site_label
_atom_site_fract_x
_atom_site_fract_y
_atom_site_fract_z
Si Si1 0.794252 0.747519 0.620848
Si Si2 0.290170 0.880097 0.675325
Si Si3 0.377948 0.617616 0.121903
Si Si4 0.051506 0.751791 0.000000
Si Si5 0.137690 0.617647 0.000000
Si Si6 0.449454 0.383357 0.292377
O O1 0.800041 0.705621 0.500000
O O2 0.749521 0.814044 0.625494
O O3 0.795372 0.651026 0.700184
O O4 0.834266 0.821001 0.655427
O O5 0.334493 0.852395 0.606926
O O6 0.279245 0.000000 0.667077
O O7 0.366722 0.500000 0.140374
O O8 0.418554 0.655061 0.195730
O O9 0.392294 0.639139 0.000000
O O10 0.088091 0.663748 0.000000
O O11 0.060976 0.819809 0.897242
O O12 0.000000 0.709971 0.000000
O O13 0.128168 0.500000 0.000000
O O14 0.500000 0.367619 0.252633
O O15 0.439861 0.500000 0.321638
#
# Coordination Sequence:
#
# PCOD8288549 Si02
#       6
#    16  16  16   8   8  16
#     4  10  19  32  50  70  94 123 156 192 232 277
#     4  10  20  33  50  70  93 123 155 192 235 279
#     4   9  17  28  45  68  92 121 155 191 228 271
#     4  10  19  31  48  67  91 122 155 194 235 277
#     4  10  20  34  51  70  92 121 158 195 235 278
#     4   9  17  29  45  67  95 125 155 187 229 279
#
# _framework density 16.331392000000001
#
# number of rings (size 3 to 8) (size 9 to 14) (size 15 to 20)
#    0.000    2.400    1.000    2.100    0.000    3.000 
#    0.000    2.000    0.000    1.200    0.000    0.000 
#    0.000    0.000    0.000   37.200    0.000    0.400 
#
# Total GULP energy -495926.776734 kJ/mol
# GULP energy per Si atom -12398.169418 kJ/mol
# Density = 1.629422 g / cm^3
# Si number density = 16.331392 Si / 1000 Ang^3
#
#
#
# Elastic Constant Matrix: (Units=GPa)
#
#
# Indices 1 2 3 4 5 6 
#
# 1 110.7592 39.4996 46.4988 0.0000 0.0000 0.0000
# 2 39.4996 50.1203 33.4485 0.0000 0.0000 0.0000
# 3 46.4988 33.4485 89.6404 0.0000 0.0000 0.0000
# 4 0.0000 0.0000 0.0000 11.8821 0.0000 0.0000
# 5 0.0000 0.0000 0.0000 0.0000 21.1718 0.0000
# 6 0.0000 0.0000 0.0000 0.0000 0.0000 27.8630
#
#
#
# Elastic Compliance Matrix: (Units=1/GPa)
#
#
# Indices 1 2 3 4 5 6 
#
# 1 0.013586 -0.007995 -0.004064 0.000000 0.000000 0.000000
# 2 -0.007995 0.031272 -0.007522 0.000000 0.000000 0.000000
# 3 -0.004064 -0.007522 0.016071 0.000000 0.000000 0.000000
# 4 0.000000 0.000000 0.000000 0.084160 0.000000 0.000000
# 5 0.000000 0.000000 0.000000 0.000000 0.047233 0.000000
# 6 0.000000 0.000000 0.000000 0.000000 0.000000 0.035890
#
#
# Mechanical properties :
#
#
# Convention : Reuss Voigt Hill
#
# Bulk Modulus (GPa) = 45.94056 54.37930 50.15993
# Shear Modulus (GPa) = 18.20638 20.92160 19.56399
#
# Velocity S-wave (km/s) = 3.34250 3.58308 3.46488
# Velocity P-wave (km/s) = 6.56412 7.10547 6.84015
#
# Compressibility (1/GPa) = 0.02176726
#
# Stress axis : x y z
#
# Youngs Moduli (GPa) = 73.60538 31.97702 62.22517
#
# Poissons Ratio (x) = 0.25565 0.25290
# Poissons Ratio (y) = 0.58845 0.46806
# Poissons Ratio (z) = 0.29915 0.24053
#
# Static dielectric constant tensor:
#      x y z
#    x 3.171570 0.000000 0.000000 
#    y 0.000000 2.876510 0.000000 
#    z 0.000000 0.000000 3.241490 
# 
# 
# High freq. dielectric constant tensor:
#      x y z
#    x 1.633540 0.000000 0.000000 
#    y 0.000000 1.607560 0.000000 
#    z 0.000000 0.000000 1.639010 
# 
# From -- ./inp_files/20196.got.cif
#   From: 2010.06.25/outbox.cif.g09.slc.cpg/sg71_11_cif.got.tgz:20196.got - 2010.06.28 04:59:45.
