data_PCOD8288225
_publ_section_title
;
Structure prediction by ZEFSAII (Michael W. Deem and Ramdas Pophale) SiO2 
 PCOD8288225
Probable space group: I M M M
;
_chemical_formula_sum "Si O2"
_cell_formula_units_Z 64
_cell_length_a 38.256423
_cell_length_b 10.310682
_cell_length_c 9.363180
_cell_angle_alpha 90.000000
_cell_angle_beta 90.000000
_cell_angle_gamma 90.000000
_cell_volume 3693.304591
_symmetry_space_group_name_H-M "I M M M"
_symmetry_group_IT_number 71
_symmetry_cell_setting 'orthorhombic'
loop_
_space_group_symop_operation_xyz
x,y,z
-x,-y,z
x,-y,-z
-x,y,-z
-x,-y,-z
x,y,-z
-x,y,z
x,-y,z
1/2+x,1/2+y,1/2+z
1/2-x,1/2-y,1/2+z
1/2+x,1/2-y,1/2-z
1/2-x,1/2+y,1/2-z
1/2-x,1/2-y,1/2-z
1/2+x,1/2+y,1/2-z
1/2-x,1/2+y,1/2+z
1/2+x,1/2-y,1/2+z
loop_
_atom_site_type_symbol
_atom_site_label
_atom_site_fract_x
_atom_site_fract_y
_atom_site_fract_z
Si Si1 0.538546 0.846017 0.660149
Si Si2 0.670275 0.238506 0.333502
Si Si3 0.210265 0.000000 0.835228
Si Si4 0.104379 0.347551 0.666255
Si Si5 0.718269 0.000000 0.667188
O O1 0.547410 0.797255 0.500000
O O2 0.500000 0.794644 0.706375
O O3 0.567797 0.794896 0.769597
O O4 0.538146 0.000000 0.662326
O O5 0.660734 0.224337 0.500000
O O6 0.687528 0.375128 0.296552
O O7 0.635161 0.229671 0.242794
O O8 0.696864 0.126443 0.285324
O O9 0.245072 0.000000 0.744626
O O10 0.221374 0.000000 0.000000
O O11 0.104815 0.314797 0.500000
O O12 0.109167 0.500000 0.695955
O O13 0.725868 0.000000 0.500000
#
# Coordination Sequence:
#
# PCOD8288225 Si02
#       5
#    16  16   8  16   8
#     4   8  14  25  42  65  95 131 165 197 239 290
#     4  10  20  35  52  72  98 130 165 200 243 294
#     4  10  22  36  52  74  99 126 161 206 248 289
#     4  10  19  29  45  71  99 129 165 205 245 284
#     4  10  20  34  54  74  95 128 163 198 246 299
#
# _framework density 17.328655000000001
#
# number of rings (size 3 to 8) (size 9 to 14) (size 15 to 20)
#    0.000    2.500    1.250    2.250    0.000    3.500 
#    0.000    2.500    0.000    0.000    0.000    0.875 
#    0.000    7.000    0.000    0.000    0.000    0.000 
#
# Total GULP energy -396798.911166 kJ/mol
# GULP energy per Si atom -12399.965974 kJ/mol
# Density = 1.728921 g / cm^3
# Si number density = 17.328655 Si / 1000 Ang^3
#
#
#
# Elastic Constant Matrix: (Units=GPa)
#
#
# Indices 1 2 3 4 5 6 
#
# 1 172.3296 52.8001 89.5977 0.0000 0.0000 0.0000
# 2 52.8001 87.2256 35.5181 0.0000 0.0000 0.0000
# 3 89.5977 35.5181 89.4144 0.0000 0.0000 0.0000
# 4 0.0000 0.0000 0.0000 6.6269 0.0000 0.0000
# 5 0.0000 0.0000 0.0000 0.0000 39.1733 0.0000
# 6 0.0000 0.0000 0.0000 0.0000 0.0000 10.2427
#
#
#
# Elastic Compliance Matrix: (Units=1/GPa)
#
#
# Indices 1 2 3 4 5 6 
#
# 1 0.012739 -0.002998 -0.011574 0.000000 0.000000 0.000000
# 2 -0.002998 0.014382 -0.002709 0.000000 0.000000 0.000000
# 3 -0.011574 -0.002709 0.023858 0.000000 0.000000 0.000000
# 4 0.000000 0.000000 0.000000 0.150899 0.000000 0.000000
# 5 0.000000 0.000000 0.000000 0.000000 0.025528 0.000000
# 6 0.000000 0.000000 0.000000 0.000000 0.000000 0.097630
#
#
# Mechanical properties :
#
#
# Convention : Reuss Voigt Hill
#
# Bulk Modulus (GPa) = 60.91266 78.31126 69.61196
# Shear Modulus (GPa) = 13.69594 22.61217 18.15406
#
# Velocity S-wave (km/s) = 2.81439 3.61626 3.24023
# Velocity P-wave (km/s) = 6.76674 7.91999 7.36597
#
# Compressibility (1/GPa) = 0.01641695
#
# Stress axis : x y z
#
# Youngs Moduli (GPa) = 78.49772 69.52910 41.91492
#
# Poissons Ratio (x) = 0.20847 0.48514
# Poissons Ratio (y) = 0.23537 0.11353
# Poissons Ratio (z) = 0.90856 0.18833
#
# Static dielectric constant tensor:
#      x y z
#    x 3.420430 0.000000 0.000000 
#    y 0.000000 2.841150 0.000000 
#    z 0.000000 0.000000 3.224430 
# 
# 
# High freq. dielectric constant tensor:
#      x y z
#    x 1.683920 0.000000 0.000000 
#    y 0.000000 1.627480 0.000000 
#    z 0.000000 0.000000 1.668520 
# 
# From -- ./inp_files/16180.got.cif
#   From: 2010.06.25/outbox.cif.g09.slc.cpg/sg71_9_cif.got.tgz:16180.got - 2010.06.28 04:59:45.
