data_PCOD8288775
_publ_section_title
;
Structure prediction by ZEFSAII (Michael W. Deem and Ramdas Pophale) SiO2 
 PCOD8288775
Probable space group: I M M M
;
_chemical_formula_sum "Si O2"
_cell_formula_units_Z 96
_cell_length_a 26.144353
_cell_length_b 10.112043
_cell_length_c 23.233051
_cell_angle_alpha 90.000000
_cell_angle_beta 90.000000
_cell_angle_gamma 90.000000
_cell_volume 6142.187251
_symmetry_space_group_name_H-M "I M M M"
_symmetry_group_IT_number 71
_symmetry_cell_setting 'orthorhombic'
loop_
_space_group_symop_operation_xyz
x,y,z
-x,-y,z
x,-y,-z
-x,y,-z
-x,-y,-z
x,y,-z
-x,y,z
x,-y,z
1/2+x,1/2+y,1/2+z
1/2-x,1/2-y,1/2+z
1/2+x,1/2-y,1/2-z
1/2-x,1/2+y,1/2-z
1/2-x,1/2-y,1/2-z
1/2+x,1/2+y,1/2-z
1/2-x,1/2+y,1/2+z
1/2+x,1/2-y,1/2+z
loop_
_atom_site_type_symbol
_atom_site_label
_atom_site_fract_x
_atom_site_fract_y
_atom_site_fract_z
Si Si1 0.440739 0.654693 0.673899
Si Si2 0.709619 0.761338 0.626485
Si Si3 0.188830 0.649141 0.344288
Si Si4 0.197315 0.852943 0.565765
Si Si5 0.637246 0.849891 0.724758
Si Si6 0.884719 0.846533 0.937306
O O1 0.500000 0.679718 0.685607
O O2 0.426121 0.500000 0.682928
O O3 0.408835 0.745576 0.717714
O O4 0.426949 0.701951 0.608934
O O5 0.749225 0.662211 0.658958
O O6 0.742995 0.857709 0.585493
O O7 0.678003 0.843620 0.673229
O O8 0.671981 0.678861 0.586005
O O9 0.173776 0.500000 0.360979
O O10 0.166836 0.748440 0.393718
O O11 0.165193 0.689958 0.283497
O O12 0.193144 0.805166 0.500000
O O13 0.174136 0.000000 0.573004
O O14 0.615814 0.000000 0.727115
O O15 0.891818 0.000000 0.946424
O O16 0.893046 0.776990 0.000000
#
# Coordination Sequence:
#
# PCOD8288775 Si02
#       6
#    16  16  16  16  16  16
#     4   9  19  34  49  67  91 117 150 197 247 286
#     4   9  17  28  42  63  91 125 152 190 223 265
#     4   9  19  30  44  66  91 121 156 193 228 268
#     4   9  18  29  41  60  89 125 157 183 215 257
#     4  10  19  32  48  67  90 117 154 194 236 282
#     4   9  16  26  43  67  91 119 157 195 229 266
#
# _framework density 15.629611000000001
#
# number of rings (size 3 to 8) (size 9 to 14) (size 15 to 20)
#    1.000    1.833    0.000    2.000    0.000    2.333 
#    0.000    1.667    0.000    4.500    0.000    4.667 
#    0.000    0.667    0.000    7.333    0.000    5.333 
#
# Total GULP energy -594664.081323 kJ/mol
# GULP energy per Si atom -12388.835028 kJ/mol
# Density = 1.559404 g / cm^3
# Si number density = 15.629611 Si / 1000 Ang^3
#
#
#
# Elastic Constant Matrix: (Units=GPa)
#
#
# Indices 1 2 3 4 5 6 
#
# 1 51.4600 28.0444 30.6595 0.0000 0.0000 0.0000
# 2 28.0444 65.8653 42.2260 0.0000 0.0000 0.0000
# 3 30.6595 42.2260 94.3302 0.0000 0.0000 0.0000
# 4 0.0000 0.0000 0.0000 25.2319 0.0000 0.0000
# 5 0.0000 0.0000 0.0000 0.0000 7.3361 0.0000
# 6 0.0000 0.0000 0.0000 0.0000 0.0000 20.1374
#
#
#
# Elastic Compliance Matrix: (Units=1/GPa)
#
#
# Indices 1 2 3 4 5 6 
#
# 1 0.026933 -0.008212 -0.005078 0.000000 0.000000 0.000000
# 2 -0.008212 0.023797 -0.007983 0.000000 0.000000 0.000000
# 3 -0.005078 -0.007983 0.015825 0.000000 0.000000 0.000000
# 4 0.000000 0.000000 0.000000 0.039632 0.000000 0.000000
# 5 0.000000 0.000000 0.000000 0.000000 0.136313 0.000000
# 6 0.000000 0.000000 0.000000 0.000000 0.000000 0.049659
#
#
# Mechanical properties :
#
#
# Convention : Reuss Voigt Hill
#
# Bulk Modulus (GPa) = 41.65165 45.94615 43.79890
# Shear Modulus (GPa) = 14.58958 17.92278 16.25618
#
# Velocity S-wave (km/s) = 3.05857 3.39000 3.22854
# Velocity P-wave (km/s) = 6.25941 6.69204 6.47934
#
# Compressibility (1/GPa) = 0.02400865
#
# Stress axis : x y z
#
# Youngs Moduli (GPa) = 37.12853 42.02141 63.19047
#
# Poissons Ratio (x) = 0.34510 0.32087
# Poissons Ratio (y) = 0.30492 0.50448
# Poissons Ratio (z) = 0.18853 0.33548
#
# Static dielectric constant tensor:
#      x y z
#    x 2.640970 0.000000 0.000000 
#    y 0.000000 2.850830 0.000000 
#    z 0.000000 0.000000 3.276470 
# 
# 
# High freq. dielectric constant tensor:
#      x y z
#    x 1.557910 0.000000 0.000000 
#    y 0.000000 1.595090 0.000000 
#    z 0.000000 0.000000 1.602010 
# 
# From -- ./inp_files/55716.got.cif
#   From: 2010.06.25/outbox.cif.g09.slc.cpg/sg71_28_cif.got.tgz:55716.got - 2010.06.28 04:59:45.
