data_PCOD8288299
_publ_section_title
;
Structure prediction by ZEFSAII (Michael W. Deem and Ramdas Pophale) SiO2 
 PCOD8288299
Probable space group: I M M M
;
_chemical_formula_sum "Si O2"
_cell_formula_units_Z 80
_cell_length_a 9.432508
_cell_length_b 23.257545
_cell_length_c 24.128632
_cell_angle_alpha 90.000000
_cell_angle_beta 90.000000
_cell_angle_gamma 90.000000
_cell_volume 5293.266402
_symmetry_space_group_name_H-M "I M M M"
_symmetry_group_IT_number 71
_symmetry_cell_setting 'orthorhombic'
loop_
_space_group_symop_operation_xyz
x,y,z
-x,-y,z
x,-y,-z
-x,y,-z
-x,-y,-z
x,y,-z
-x,y,z
x,-y,z
1/2+x,1/2+y,1/2+z
1/2-x,1/2-y,1/2+z
1/2+x,1/2-y,1/2-z
1/2-x,1/2+y,1/2-z
1/2-x,1/2-y,1/2-z
1/2+x,1/2+y,1/2-z
1/2-x,1/2+y,1/2+z
1/2+x,1/2-y,1/2+z
loop_
_atom_site_type_symbol
_atom_site_label
_atom_site_fract_x
_atom_site_fract_y
_atom_site_fract_z
Si Si1 0.335128 0.838451 0.235426
Si Si2 0.662101 0.719827 0.825046
Si Si3 0.663139 0.378632 0.561142
Si Si4 0.336845 0.235062 0.061262
Si Si5 0.336024 0.434377 0.326698
O O1 0.500000 0.851287 0.244411
O O2 0.308349 0.784895 0.194882
O O3 0.265576 0.824877 0.295088
O O4 0.262391 0.894774 0.210839
O O5 0.500000 0.702423 0.812008
O O6 0.695137 0.717711 0.891094
O O7 0.701715 0.403691 0.500000
O O8 0.500000 0.360486 0.563479
O O9 0.748924 0.321478 0.573971
O O10 0.698380 0.425539 0.608037
O O11 0.500000 0.216277 0.065149
O O12 0.301164 0.260478 0.000000
O O13 0.500000 0.419476 0.314504
O O14 0.301539 0.500000 0.311705
#
# Coordination Sequence:
#
# PCOD8288299 Si02
#       5
#    16  16  16  16  16
#     4  10  19  30  45  65  85 112 148 184 222 260
#     4   9  17  29  45  65  88 114 142 177 220 265
#     4   9  17  28  42  60  83 113 150 188 221 254
#     4   9  16  27  44  65  89 115 143 176 216 260
#     4  10  20  32  45  61  85 117 151 188 226 261
#
# _framework density 15.113542000000001
#
# number of rings (size 3 to 8) (size 9 to 14) (size 15 to 20)
#    0.000    2.600    2.000    0.600    0.000    2.400 
#    0.000    2.000    0.000    0.000    0.000    4.200 
#    0.000    0.800    0.000    9.200    0.000    2.600 
#
# Total GULP energy -495844.958979 kJ/mol
# GULP energy per Si atom -12396.123974 kJ/mol
# Density = 1.507914 g / cm^3
# Si number density = 15.113542 Si / 1000 Ang^3
#
#
#
# Elastic Constant Matrix: (Units=GPa)
#
#
# Indices 1 2 3 4 5 6 
#
# 1 75.6906 47.6684 53.7788 0.0000 0.0000 0.0000
# 2 47.6684 67.7379 50.7403 0.0000 0.0000 0.0000
# 3 53.7788 50.7403 104.4314 0.0000 0.0000 0.0000
# 4 0.0000 0.0000 0.0000 21.4516 0.0000 0.0000
# 5 0.0000 0.0000 0.0000 0.0000 20.2962 0.0000
# 6 0.0000 0.0000 0.0000 0.0000 0.0000 22.0827
#
#
#
# Elastic Compliance Matrix: (Units=1/GPa)
#
#
# Indices 1 2 3 4 5 6 
#
# 1 0.026861 -0.013428 -0.007308 0.000000 0.000000 0.000000
# 2 -0.013428 0.029923 -0.007624 0.000000 0.000000 0.000000
# 3 -0.007308 -0.007624 0.017043 0.000000 0.000000 0.000000
# 4 0.000000 0.000000 0.000000 0.046617 0.000000 0.000000
# 5 0.000000 0.000000 0.000000 0.000000 0.049270 0.000000
# 6 0.000000 0.000000 0.000000 0.000000 0.000000 0.045284
#
#
# Mechanical properties :
#
#
# Convention : Reuss Voigt Hill
#
# Bulk Modulus (GPa) = 58.45486 61.35942 59.90714
# Shear Modulus (GPa) = 18.02312 19.14426 18.58369
#
# Velocity S-wave (km/s) = 3.45703 3.56293 3.51038
# Velocity P-wave (km/s) = 7.39566 7.59033 7.49363
#
# Compressibility (1/GPa) = 0.01710722
#
# Stress axis : x y z
#
# Youngs Moduli (GPa) = 37.22862 33.41890 58.67424
#
# Poissons Ratio (x) = 0.44876 0.42880
# Poissons Ratio (y) = 0.49992 0.44731
# Poissons Ratio (z) = 0.27207 0.25478
#
# Static dielectric constant tensor:
#      x y z
#    x 2.974260 0.000000 0.000000 
#    y 0.000000 2.535170 0.000000 
#    z 0.000000 0.000000 3.170510 
# 
# 
# High freq. dielectric constant tensor:
#      x y z
#    x 1.586210 0.000000 0.000000 
#    y 0.000000 1.528710 0.000000 
#    z 0.000000 0.000000 1.584160 
# 
# From -- ./inp_files/8320.got.cif
#   From: 2010.06.25/outbox.cif.g09.slc.cpg/sg71_5_cif.got.tgz:8320.got - 2010.06.28 04:59:45.
