data_PCOD8288344
_publ_section_title
;
Structure prediction by ZEFSAII (Michael W. Deem and Ramdas Pophale) SiO2 
 PCOD8288344
Probable space group: I M M M
;
_chemical_formula_sum "Si O2"
_cell_formula_units_Z 88
_cell_length_a 24.683669
_cell_length_b 22.554767
_cell_length_c 8.973301
_cell_angle_alpha 90.000000
_cell_angle_beta 90.000000
_cell_angle_gamma 90.000000
_cell_volume 4995.745375
_symmetry_space_group_name_H-M "I M M M"
_symmetry_group_IT_number 71
_symmetry_cell_setting 'orthorhombic'
loop_
_space_group_symop_operation_xyz
x,y,z
-x,-y,z
x,-y,-z
-x,y,-z
-x,-y,-z
x,y,-z
-x,y,z
x,-y,z
1/2+x,1/2+y,1/2+z
1/2-x,1/2-y,1/2+z
1/2+x,1/2-y,1/2-z
1/2-x,1/2+y,1/2-z
1/2-x,1/2-y,1/2-z
1/2+x,1/2+y,1/2-z
1/2-x,1/2+y,1/2+z
1/2+x,1/2-y,1/2+z
loop_
_atom_site_type_symbol
_atom_site_label
_atom_site_fract_x
_atom_site_fract_y
_atom_site_fract_z
Si Si1 0.761387 0.312335 0.824528
Si Si2 0.436090 0.884174 0.666870
Si Si3 0.439020 0.566489 0.177314
Si Si4 0.064625 0.500000 0.667917
Si Si5 0.866570 0.703914 0.676554
Si Si6 0.144971 0.838099 0.325493
O O1 0.750000 0.250000 0.750000
O O2 0.816717 0.334585 0.747580
O O3 0.708472 0.353855 0.792868
O O4 0.769950 0.304406 0.000000
O O5 0.411954 0.880115 0.500000
O O6 0.500000 0.887346 0.660408
O O7 0.420792 0.826741 0.764032
O O8 0.412637 0.942669 0.746458
O O9 0.500000 0.584558 0.227631
O O10 0.425494 0.500000 0.235291
O O11 0.395374 0.612959 0.247100
O O12 0.435620 0.566890 0.000000
O O13 0.087490 0.500000 0.500000
O O14 0.000000 0.500000 0.666210
O O15 0.862308 0.700721 0.500000
O O16 0.867656 0.771881 0.734749
O O17 0.133916 0.837607 0.500000
#
# Coordination Sequence:
#
# PCOD8288344 Si02
#       6
#    16  16  16   8  16  16
#     4   9  16  28  45  64  90 122 158 197 240 291
#     4  10  20  33  49  70  97 127 159 196 238 286
#     4   8  13  22  38  61  90 123 155 188 232 287
#     4   9  17  31  51  71  91 121 159 191 224 273
#     4  10  19  30  46  69  95 124 160 201 246 293
#     4   8  15  26  41  63  90 122 159 197 239 289
#
# _framework density 17.614989999999999
#
# number of rings (size 3 to 8) (size 9 to 14) (size 15 to 20)
#    0.000    3.000    0.000    3.545    0.000    2.909 
#    0.000    1.818    2.000    0.000    0.000    0.000 
#    0.000   15.091    0.000   74.000    0.000   66.909 
#
# Total GULP energy -545155.059119 kJ/mol
# GULP energy per Si atom -12389.887707 kJ/mol
# Density = 1.757490 g / cm^3
# Si number density = 17.614990 Si / 1000 Ang^3
#
#
#
# Elastic Constant Matrix: (Units=GPa)
#
#
# Indices 1 2 3 4 5 6 
#
# 1 72.8608 52.8240 28.0574 0.0000 0.0000 0.0000
# 2 52.8240 99.4120 31.3514 0.0000 0.0000 0.0000
# 3 28.0574 31.3514 77.5871 0.0000 0.0000 0.0000
# 4 0.0000 0.0000 0.0000 18.7910 0.0000 0.0000
# 5 0.0000 0.0000 0.0000 0.0000 24.7473 0.0000
# 6 0.0000 0.0000 0.0000 0.0000 0.0000 23.3924
#
#
#
# Elastic Compliance Matrix: (Units=1/GPa)
#
#
# Indices 1 2 3 4 5 6 
#
# 1 0.023325 -0.011155 -0.003927 0.000000 0.000000 0.000000
# 2 -0.011155 0.016864 -0.002780 0.000000 0.000000 0.000000
# 3 -0.003927 -0.002780 0.015432 0.000000 0.000000 0.000000
# 4 0.000000 0.000000 0.000000 0.053217 0.000000 0.000000
# 5 0.000000 0.000000 0.000000 0.000000 0.040408 0.000000
# 6 0.000000 0.000000 0.000000 0.000000 0.000000 0.042749
#
#
# Mechanical properties :
#
#
# Convention : Reuss Voigt Hill
#
# Bulk Modulus (GPa) = 50.26347 52.70285 51.48316
# Shear Modulus (GPa) = 21.33542 22.56128 21.94835
#
# Velocity S-wave (km/s) = 3.48402 3.58271 3.53371
# Velocity P-wave (km/s) = 6.69186 6.86285 6.77789
#
# Compressibility (1/GPa) = 0.01989517
#
# Stress axis : x y z
#
# Youngs Moduli (GPa) = 42.87291 59.29954 64.79929
#
# Poissons Ratio (x) = 0.66151 0.25447
# Poissons Ratio (y) = 0.47827 0.18015
# Poissons Ratio (z) = 0.16837 0.16486
#
# Static dielectric constant tensor:
#      x y z
#    x 3.581030 0.000000 0.000000 
#    y 0.000000 3.337190 0.000000 
#    z 0.000000 0.000000 3.178690 
# 
# 
# High freq. dielectric constant tensor:
#      x y z
#    x 1.676710 0.000000 0.000000 
#    y 0.000000 1.659990 0.000000 
#    z 0.000000 0.000000 1.658880 
# 
# From -- ./inp_files/14881.got.cif
#   From: 2010.06.25/outbox.cif.g09.slc.cpg/sg71_8_cif.got.tgz:14881.got - 2010.06.28 04:59:45.
