data_PCOD8288781
_publ_section_title
;
Structure prediction by ZEFSAII (Michael W. Deem and Ramdas Pophale) SiO2 
 PCOD8288781
Probable space group: I M M M
;
_chemical_formula_sum "Si O2"
_cell_formula_units_Z 104
_cell_length_a 26.801043
_cell_length_b 28.316360
_cell_length_c 7.914952
_cell_angle_alpha 90.000000
_cell_angle_beta 90.000000
_cell_angle_gamma 90.000000
_cell_volume 6006.720250
_symmetry_space_group_name_H-M "I M M M"
_symmetry_group_IT_number 71
_symmetry_cell_setting 'orthorhombic'
loop_
_space_group_symop_operation_xyz
x,y,z
-x,-y,z
x,-y,-z
-x,y,-z
-x,-y,-z
x,y,-z
-x,y,z
x,-y,z
1/2+x,1/2+y,1/2+z
1/2-x,1/2-y,1/2+z
1/2+x,1/2-y,1/2-z
1/2-x,1/2+y,1/2-z
1/2-x,1/2-y,1/2-z
1/2+x,1/2+y,1/2-z
1/2-x,1/2+y,1/2+z
1/2+x,1/2-y,1/2+z
loop_
_atom_site_type_symbol
_atom_site_label
_atom_site_fract_x
_atom_site_fract_y
_atom_site_fract_z
Si Si1 0.940915 0.694093 0.187923
Si Si2 0.559265 0.868959 0.000000
Si Si3 0.691292 0.552643 0.692182
Si Si4 0.097895 0.107367 0.305687
Si Si5 0.295351 0.055952 0.686350
Si Si6 0.139381 0.443853 0.500000
Si Si7 0.943400 0.794199 0.300045
Si Si8 0.500000 0.555509 0.303990
O O1 0.921693 0.658723 0.332761
O O2 0.919923 0.747031 0.217520
O O3 0.000000 0.697119 0.205119
O O4 0.924879 0.676547 0.000000
O O5 0.500000 0.876711 0.000000
O O6 0.584936 0.920124 0.000000
O O7 0.708886 0.549183 0.500000
O O8 0.677292 0.500000 0.759585
O O9 0.643512 0.586073 0.701967
O O10 0.738512 0.574489 0.792346
O O11 0.113344 0.107087 0.500000
O O12 0.088807 0.160775 0.241281
O O13 0.048581 0.076527 0.283573
O O14 0.314908 0.071464 0.500000
O O15 0.293242 0.000000 0.703659
O O16 0.331708 0.074817 0.833066
O O17 0.131613 0.500000 0.500000
O O18 0.942507 0.788016 0.500000
O O19 0.000000 0.802597 0.237631
O O20 0.500000 0.500000 0.274069
O O21 0.500000 0.568823 0.500000
#
# Coordination Sequence:
#
# PCOD8288781 Si02
#       8
#    16   8  16  16  16   8  16   8
#     4   9  17  30  51  75 101 138 175 212 256 292
#     4  10  20  35  54  82 118 146 169 205 234 290
#     4  10  19  32  48  68  98 131 170 222 272 314
#     4  11  21  31  45  67  93 128 172 221 274 330
#     4   9  17  32  54  77 102 133 173 221 260 293
#     4  10  20  35  56  84 114 143 174 202 241 291
#     4   9  16  30  47  65  96 128 165 221 271 309
#     4  11  23  35  41  53  89 139 181 217 265 332
#
# _framework density 17.313941
#
# number of rings (size 3 to 8) (size 9 to 14) (size 15 to 20)
#    0.000    2.231    2.308    1.615    0.000    5.385 
#    0.000    0.000    0.000    0.000    0.000    5.385 
#    0.000    0.000    0.000    0.000    0.000    0.000 
#
# Total GULP energy -644628.535156 kJ/mol
# GULP energy per Si atom -12396.702599 kJ/mol
# Density = 1.727453 g / cm^3
# Si number density = 17.313941 Si / 1000 Ang^3
#
#
#
# Elastic Constant Matrix: (Units=GPa)
#
#
# Indices 1 2 3 4 5 6 
#
# 1 67.6572 38.3908 31.8550 0.0000 0.0000 0.0000
# 2 38.3908 73.0110 35.8383 0.0000 0.0000 0.0000
# 3 31.8550 35.8383 101.4426 0.0000 0.0000 0.0000
# 4 0.0000 0.0000 0.0000 13.9919 0.0000 0.0000
# 5 0.0000 0.0000 0.0000 0.0000 8.4543 0.0000
# 6 0.0000 0.0000 0.0000 0.0000 0.0000 -48.2555
#
#
#
# Elastic Compliance Matrix: (Units=1/GPa)
#
#
# Indices 1 2 3 4 5 6 
#
# 1 0.022001 -0.009893 -0.003414 0.000000 0.000000 0.000000
# 2 -0.009893 0.021019 -0.004319 0.000000 0.000000 0.000000
# 3 -0.003414 -0.004319 0.012456 0.000000 0.000000 0.000000
# 4 0.000000 0.000000 0.000000 0.071470 0.000000 0.000000
# 5 0.000000 0.000000 0.000000 0.000000 0.118284 0.000000
# 6 0.000000 0.000000 0.000000 0.000000 0.000000 -0.020723
#
#
# Mechanical properties :
#
#
# Convention : Reuss Voigt Hill
#
# Bulk Modulus (GPa) = 49.44643 50.47544 49.96094
# Shear Modulus (GPa) = 18.76180 3.90657 11.33418
#
# Velocity S-wave (km/s) = 3.29542 1.50373 2.56134
# Velocity P-wave (km/s) = 6.56509 5.67726 6.13725
#
# Compressibility (1/GPa) = 0.02022391
#
# Stress axis : x y z
#
# Youngs Moduli (GPa) = 45.45178 47.57689 80.28513
#
# Poissons Ratio (x) = 0.47068 0.27407
# Poissons Ratio (y) = 0.44966 0.34675
# Poissons Ratio (z) = 0.15516 0.20548
#
# Static dielectric constant tensor:
#      x y z
#    x 2.854590 0.000000 0.000000 
#    y 0.000000 3.060860 0.000000 
#    z 0.000000 0.000000 3.414170 
# 
# 
# High freq. dielectric constant tensor:
#      x y z
#    x 1.631480 0.000000 0.000000 
#    y 0.000000 1.643670 0.000000 
#    z 0.000000 0.000000 1.685360 
# 
# From -- ./inp_files/13353.got.cif
#   From: 2010.06.25/outbox.cif.g09.slc.cpg/sg71_7_cif.got.tgz:13353.got - 2010.06.28 04:59:45.
