data_PCOD8288385
_publ_section_title
;
Structure prediction by ZEFSAII (Michael W. Deem and Ramdas Pophale) SiO2 
 PCOD8288385
Probable space group: I M M M
;
_chemical_formula_sum "Si O2"
_cell_formula_units_Z 112
_cell_length_a 25.554992
_cell_length_b 9.513697
_cell_length_c 25.265463
_cell_angle_alpha 90.000000
_cell_angle_beta 90.000000
_cell_angle_gamma 90.000000
_cell_volume 6142.601283
_symmetry_space_group_name_H-M "I M M M"
_symmetry_group_IT_number 71
_symmetry_cell_setting 'orthorhombic'
loop_
_space_group_symop_operation_xyz
x,y,z
-x,-y,z
x,-y,-z
-x,y,-z
-x,-y,-z
x,y,-z
-x,y,z
x,-y,z
1/2+x,1/2+y,1/2+z
1/2-x,1/2-y,1/2+z
1/2+x,1/2-y,1/2-z
1/2-x,1/2+y,1/2-z
1/2-x,1/2-y,1/2-z
1/2+x,1/2+y,1/2-z
1/2-x,1/2+y,1/2+z
1/2+x,1/2-y,1/2+z
loop_
_atom_site_type_symbol
_atom_site_label
_atom_site_fract_x
_atom_site_fract_y
_atom_site_fract_z
Si Si1 0.149833 0.665597 0.938458
Si Si2 0.440951 0.166973 0.359458
Si Si3 0.402195 0.166357 0.753157
Si Si4 0.249952 0.338249 0.597031
Si Si5 0.443106 0.167147 0.138014
Si Si6 0.287757 0.160139 0.216005
Si Si7 0.358448 0.165574 0.941843
O O1 0.159158 0.500000 0.931228
O O2 0.098025 0.715270 0.906494
O O3 0.199645 0.743910 0.913985
O O4 0.142081 0.705415 0.000000
O O5 0.500000 0.222849 0.370814
O O6 0.420635 0.230432 0.303216
O O7 0.441886 0.000000 0.356368
O O8 0.439261 0.218032 0.801055
O O9 0.345149 0.218520 0.770827
O O10 0.403805 0.000000 0.747966
O O11 0.264690 0.500000 0.584255
O O12 0.228204 0.321188 0.655738
O O13 0.201471 0.280878 0.561952
O O14 0.500000 0.213298 0.116331
O O15 0.398006 0.234864 0.100854
O O16 0.436943 0.000000 0.136316
O O17 0.250000 0.250000 0.250000
O O18 0.283466 0.000000 0.234183
O O19 0.356349 0.000000 0.931262
O O20 0.380199 0.202008 0.000000
#
# Coordination Sequence:
#
# PCOD8288385 Si02
#       7
#    16  16  16  16  16  16  16
#     4  10  21  35  51  74 102 129 164 214 260 296
#     4   9  17  29  47  70  95 127 163 199 248 304
#     4   9  15  26  42  64  94 123 155 197 241 288
#     4  10  19  33  51  72  99 134 172 203 240 299
#     4   9  15  23  37  59  89 123 157 194 236 281
#     4  10  19  30  47  71 101 132 161 197 241 290
#     4   9  16  26  40  60  89 125 163 199 235 279
#
# _framework density 18.233317
#
# number of rings (size 3 to 8) (size 9 to 14) (size 15 to 20)
#    0.000    2.571    1.429    1.714    0.000    4.857 
#    0.000    2.857    0.000    0.429    0.000    1.000 
#    0.000    3.429    0.000    3.000    0.000    2.857 
#
# Total GULP energy -693947.093266 kJ/mol
# GULP energy per Si atom -12391.912380 kJ/mol
# Density = 1.819182 g / cm^3
# Si number density = 18.233317 Si / 1000 Ang^3
#
#
#
# Elastic Constant Matrix: (Units=GPa)
#
#
# Indices 1 2 3 4 5 6 
#
# 1 165.7876 27.0535 74.7625 0.0000 0.0000 0.0000
# 2 27.0535 18.1288 17.7774 0.0000 0.0000 0.0000
# 3 74.7625 17.7774 97.8154 0.0000 0.0000 0.0000
# 4 0.0000 0.0000 0.0000 15.1860 0.0000 0.0000
# 5 0.0000 0.0000 0.0000 0.0000 28.7507 0.0000
# 6 0.0000 0.0000 0.0000 0.0000 0.0000 19.7363
#
#
#
# Elastic Compliance Matrix: (Units=1/GPa)
#
#
# Indices 1 2 3 4 5 6 
#
# 1 0.010366 -0.009369 -0.006220 0.000000 0.000000 0.000000
# 2 -0.009369 0.075592 -0.006577 0.000000 0.000000 0.000000
# 3 -0.006220 -0.006577 0.016173 0.000000 0.000000 0.000000
# 4 0.000000 0.000000 0.000000 0.065850 0.000000 0.000000
# 5 0.000000 0.000000 0.000000 0.000000 0.034782 0.000000
# 6 0.000000 0.000000 0.000000 0.000000 0.000000 0.050668
#
#
# Mechanical properties :
#
#
# Convention : Reuss Voigt Hill
#
# Bulk Modulus (GPa) = 17.30174 57.87984 37.59079
# Shear Modulus (GPa) = 15.77142 23.54383 19.65762
#
# Velocity S-wave (km/s) = 2.94424 3.59730 3.28703
# Velocity P-wave (km/s) = 4.58996 7.00478 5.92177
#
# Compressibility (1/GPa) = 0.05779765
#
# Stress axis : x y z
#
# Youngs Moduli (GPa) = 96.47353 13.22888 61.83265
#
# Poissons Ratio (x) = 0.12394 0.38459
# Poissons Ratio (y) = 0.90388 0.40670
# Poissons Ratio (z) = 0.60005 0.08701
#
# Static dielectric constant tensor:
#      x y z
#    x 3.565530 0.000000 0.000000 
#    y 0.000000 2.775960 0.000000 
#    z 0.000000 0.000000 3.488690 
# 
# 
# High freq. dielectric constant tensor:
#      x y z
#    x 1.722880 0.000000 0.000000 
#    y 0.000000 1.625390 0.000000 
#    z 0.000000 0.000000 1.722750 
# 
# From -- ./inp_files/27805.got.cif
#   From: 2010.06.25/outbox.cif.g09.slc.cpg/sg71_14_cif.got.tgz:27805.got - 2010.06.28 04:59:45.
