data_PCOD8288988
_publ_section_title
;
Structure prediction by ZEFSAII (Michael W. Deem and Ramdas Pophale) SiO2 
 PCOD8288988
Probable space group: I M M M
;
_chemical_formula_sum "Si O2"
_cell_formula_units_Z 72
_cell_length_a 17.859518
_cell_length_b 9.296050
_cell_length_c 23.713819
_cell_angle_alpha 90.000000
_cell_angle_beta 90.000000
_cell_angle_gamma 90.000000
_cell_volume 3937.038715
_symmetry_space_group_name_H-M "I M M M"
_symmetry_group_IT_number 71
_symmetry_cell_setting 'orthorhombic'
loop_
_space_group_symop_operation_xyz
x,y,z
-x,-y,z
x,-y,-z
-x,y,-z
-x,-y,-z
x,y,-z
-x,y,z
x,-y,z
1/2+x,1/2+y,1/2+z
1/2-x,1/2-y,1/2+z
1/2+x,1/2-y,1/2-z
1/2-x,1/2+y,1/2-z
1/2-x,1/2-y,1/2-z
1/2+x,1/2+y,1/2-z
1/2-x,1/2+y,1/2+z
1/2+x,1/2-y,1/2+z
loop_
_atom_site_type_symbol
_atom_site_label
_atom_site_fract_x
_atom_site_fract_y
_atom_site_fract_z
Si Si1 0.500000 0.171044 0.436694
Si Si2 0.173751 0.334762 0.751572
Si Si3 0.149298 0.666232 0.879028
Si Si4 0.785367 0.670031 0.435247
Si Si5 0.916873 0.670283 0.644931
O O1 0.500000 0.229449 0.500000
O O2 0.574491 0.230457 0.407009
O O3 0.500000 0.000000 0.433625
O O4 0.192775 0.500000 0.738349
O O5 0.250000 0.250000 0.750000
O O6 0.136397 0.315966 0.812467
O O7 0.117490 0.273268 0.704076
O O8 0.162560 0.500000 0.895548
O O9 0.219418 0.755529 0.900884
O O10 0.785688 0.721739 0.500000
O O11 0.773654 0.500000 0.430636
O O12 0.863998 0.717384 0.407075
O O13 0.923502 0.500000 0.647200
O O14 0.000000 0.737298 0.636569
#
# Coordination Sequence:
#
# PCOD8288988 Si02
#       5
#     8  16  16  16  16
#     4   9  18  32  49  73 105 135 166 208 251 296
#     4  10  19  32  53  77 101 130 166 207 252 300
#     4  10  20  33  53  78 102 133 171 210 253 303
#     4  10  20  34  53  76 102 134 171 210 254 304
#     4   9  18  32  51  76 105 135 168 210 255 299
#
# _framework density 18.287856000000001
#
# number of rings (size 3 to 8) (size 9 to 14) (size 15 to 20)
#    0.000    2.333    2.222    0.667    1.556    1.778 
#    0.000    2.778    0.000    4.667    0.000    1.556 
#    0.000    0.000    0.000    0.000    0.000    0.000 
#
# Total GULP energy -446368.670426 kJ/mol
# GULP energy per Si atom -12399.129734 kJ/mol
# Density = 1.824623 g / cm^3
# Si number density = 18.287856 Si / 1000 Ang^3
#
#
#
# Elastic Constant Matrix: (Units=GPa)
#
#
# Indices 1 2 3 4 5 6 
#
# 1 135.8163 20.9528 35.0609 0.0000 0.0000 0.0000
# 2 20.9528 23.3816 15.7017 0.0000 0.0000 0.0000
# 3 35.0609 15.7017 102.4672 0.0000 0.0000 0.0000
# 4 0.0000 0.0000 0.0000 20.4779 0.0000 0.0000
# 5 0.0000 0.0000 0.0000 0.0000 35.7887 0.0000
# 6 0.0000 0.0000 0.0000 0.0000 0.0000 21.6062
#
#
#
# Elastic Compliance Matrix: (Units=1/GPa)
#
#
# Indices 1 2 3 4 5 6 
#
# 1 0.008909 -0.006617 -0.002034 0.000000 0.000000 0.000000
# 2 -0.006617 0.052590 -0.005794 0.000000 0.000000 0.000000
# 3 -0.002034 -0.005794 0.011343 0.000000 0.000000 0.000000
# 4 0.000000 0.000000 0.000000 0.048833 0.000000 0.000000
# 5 0.000000 0.000000 0.000000 0.000000 0.027942 0.000000
# 6 0.000000 0.000000 0.000000 0.000000 0.000000 0.046283
#
#
# Mechanical properties :
#
#
# Convention : Reuss Voigt Hill
#
# Bulk Modulus (GPa) = 22.75326 45.01065 33.88195
# Shear Modulus (GPa) = 20.88188 28.23787 24.55987
#
# Velocity S-wave (km/s) = 3.38278 3.93374 3.66862
# Velocity P-wave (km/s) = 5.26558 6.73039 6.04254
#
# Compressibility (1/GPa) = 0.04394975
#
# Stress axis : x y z
#
# Youngs Moduli (GPa) = 112.24707 19.01508 88.15843
#
# Poissons Ratio (x) = 0.12583 0.17934
# Poissons Ratio (y) = 0.74278 0.51083
# Poissons Ratio (z) = 0.22835 0.11018
#
# Static dielectric constant tensor:
#      x y z
#    x 3.632330 0.000000 0.000000 
#    y 0.000000 3.008170 0.000000 
#    z 0.000000 0.000000 3.752300 
# 
# 
# High freq. dielectric constant tensor:
#      x y z
#    x 1.716960 0.000000 0.000000 
#    y 0.000000 1.663010 0.000000 
#    z 0.000000 0.000000 1.727200 
# 
# From -- ./inp_files/6038.got.cif
#   From: 2010.06.25/outbox.cif.g09.slc.cpg/sg71_4_cif.got.tgz:6038.got - 2010.06.28 04:59:45.
