data_PCOD8288216
_publ_section_title
;
Structure prediction by ZEFSAII (Michael W. Deem and Ramdas Pophale) SiO2 
 PCOD8288216
Probable space group: I M M M
;
_chemical_formula_sum "Si O2"
_cell_formula_units_Z 96
_cell_length_a 24.870277
_cell_length_b 21.434492
_cell_length_c 10.464235
_cell_angle_alpha 90.000000
_cell_angle_beta 90.000000
_cell_angle_gamma 90.000000
_cell_volume 5578.292742
_symmetry_space_group_name_H-M "I M M M"
_symmetry_group_IT_number 71
_symmetry_cell_setting 'orthorhombic'
loop_
_space_group_symop_operation_xyz
x,y,z
-x,-y,z
x,-y,-z
-x,y,-z
-x,-y,-z
x,y,-z
-x,y,z
x,-y,z
1/2+x,1/2+y,1/2+z
1/2-x,1/2-y,1/2+z
1/2+x,1/2-y,1/2-z
1/2-x,1/2+y,1/2-z
1/2-x,1/2-y,1/2-z
1/2+x,1/2+y,1/2-z
1/2-x,1/2+y,1/2+z
1/2+x,1/2-y,1/2+z
loop_
_atom_site_type_symbol
_atom_site_label
_atom_site_fract_x
_atom_site_fract_y
_atom_site_fract_z
Si Si1 0.441299 0.257300 0.142954
Si Si2 0.242482 0.569509 0.355048
Si Si3 0.059999 0.905456 0.640241
Si Si4 0.837487 0.772047 0.222621
Si Si5 0.863586 0.095987 0.861425
Si Si6 0.759879 0.331216 0.142020
O O1 0.500000 0.236901 0.201135
O O2 0.438421 0.331422 0.140359
O O3 0.389212 0.234200 0.221504
O O4 0.437149 0.230210 0.000000
O O5 0.227083 0.591776 0.500000
O O6 0.218712 0.500000 0.329703
O O7 0.306289 0.564330 0.341817
O O8 0.221434 0.618344 0.248825
O O9 0.078826 0.929492 0.500000
O O10 0.098677 0.931587 0.750269
O O11 0.000000 0.929770 0.668131
O O12 0.858582 0.828835 0.136770
O O13 0.803488 0.723955 0.139032
O O14 0.799072 0.802188 0.331857
O O15 0.887441 0.077079 0.000000
O O16 0.758580 0.361434 0.000000
#
# Coordination Sequence:
#
# PCOD8288216 Si02
#       6
#    16  16  16  16  16  16
#     4   8  13  22  37  57  83 116 149 176 204 247
#     4   9  19  34  47  60  82 111 142 178 222 266
#     4   8  14  24  37  55  80 108 138 173 212 250
#     4   9  17  27  41  63  95 120 141 174 220 262
#     4   9  16  26  42  61  81 108 140 174 211 253
#     4  10  19  29  45  67  90 118 150 183 217 259
#
# _framework density 17.209567
#
# number of rings (size 3 to 8) (size 9 to 14) (size 15 to 20)
#    0.000    3.167    0.000    2.000    0.000    9.333 
#    0.000    0.000    0.000    2.000    0.000    3.500 
#    0.000    0.667    0.000    5.167    0.000    1.500 
#
# Total GULP energy -594631.558562 kJ/mol
# GULP energy per Si atom -12388.157470 kJ/mol
# Density = 1.717040 g / cm^3
# Si number density = 17.209567 Si / 1000 Ang^3
#
#
#
# Elastic Constant Matrix: (Units=GPa)
#
#
# Indices 1 2 3 4 5 6 
#
# 1 63.2017 6.0345 20.0481 0.0000 0.0000 0.0000
# 2 6.0345 49.2054 27.5390 0.0000 0.0000 0.0000
# 3 20.0481 27.5390 108.3032 0.0000 0.0000 0.0000
# 4 0.0000 0.0000 0.0000 6.0612 0.0000 0.0000
# 5 0.0000 0.0000 0.0000 0.0000 17.9159 0.0000
# 6 0.0000 0.0000 0.0000 0.0000 0.0000 2.9237
#
#
#
# Elastic Compliance Matrix: (Units=1/GPa)
#
#
# Indices 1 2 3 4 5 6 
#
# 1 0.016815 -0.000373 -0.003018 0.000000 0.000000 0.000000
# 2 -0.000373 0.023703 -0.005958 0.000000 0.000000 0.000000
# 3 -0.003018 -0.005958 0.011307 0.000000 0.000000 0.000000
# 4 0.000000 0.000000 0.000000 0.164983 0.000000 0.000000
# 5 0.000000 0.000000 0.000000 0.000000 0.055816 0.000000
# 6 0.000000 0.000000 0.000000 0.000000 0.000000 0.342036
#
#
# Mechanical properties :
#
#
# Convention : Reuss Voigt Hill
#
# Bulk Modulus (GPa) = 30.18657 36.43927 33.31292
# Shear Modulus (GPa) = 7.75913 16.51941 12.13927
#
# Velocity S-wave (km/s) = 2.12565 3.10158 2.65878
# Velocity P-wave (km/s) = 4.85831 5.83491 5.36886
#
# Compressibility (1/GPa) = 0.03312732
#
# Stress axis : x y z
#
# Youngs Moduli (GPa) = 59.46976 42.18818 88.44103
#
# Poissons Ratio (x) = 0.01575 0.26690
# Poissons Ratio (y) = 0.02220 0.52694
# Poissons Ratio (z) = 0.17947 0.25136
#
# Static dielectric constant tensor:
#      x y z
#    x 3.279960 0.000000 0.000000 
#    y 0.000000 2.826970 0.000000 
#    z 0.000000 0.000000 3.375280 
# 
# 
# High freq. dielectric constant tensor:
#      x y z
#    x 1.639250 0.000000 0.000000 
#    y 0.000000 1.621560 0.000000 
#    z 0.000000 0.000000 1.665740 
# 
# From -- ./inp_files/29030.got.cif
#   From: 2010.06.25/outbox.cif.g09.slc.cpg/sg71_15_cif.got.tgz:29030.got - 2010.06.28 04:59:45.
