data_PCOD8288328
_publ_section_title
;
Structure prediction by ZEFSAII (Michael W. Deem and Ramdas Pophale) SiO2 
 PCOD8288328
Probable space group: I M M M
;
_chemical_formula_sum "Si O2"
_cell_formula_units_Z 80
_cell_length_a 24.096740
_cell_length_b 9.016978
_cell_length_c 23.603406
_cell_angle_alpha 90.000000
_cell_angle_beta 90.000000
_cell_angle_gamma 90.000000
_cell_volume 5128.542732
_symmetry_space_group_name_H-M "I M M M"
_symmetry_group_IT_number 71
_symmetry_cell_setting 'orthorhombic'
loop_
_space_group_symop_operation_xyz
x,y,z
-x,-y,z
x,-y,-z
-x,y,-z
-x,-y,-z
x,y,-z
-x,y,z
x,-y,z
1/2+x,1/2+y,1/2+z
1/2-x,1/2-y,1/2+z
1/2+x,1/2-y,1/2-z
1/2-x,1/2+y,1/2-z
1/2-x,1/2-y,1/2-z
1/2+x,1/2+y,1/2-z
1/2-x,1/2+y,1/2+z
1/2+x,1/2-y,1/2+z
loop_
_atom_site_type_symbol
_atom_site_label
_atom_site_fract_x
_atom_site_fract_y
_atom_site_fract_z
Si Si1 0.168303 0.326430 0.225801
Si Si2 0.940134 0.824201 0.612935
Si Si3 0.736610 0.174045 0.836629
Si Si4 0.173863 0.173784 0.564639
Si Si5 0.937440 0.172358 0.741768
O O1 0.169427 0.500000 0.214014
O O2 0.204465 0.247373 0.177608
O O3 0.192381 0.285840 0.287762
O O4 0.105559 0.266530 0.220792
O O5 0.889008 0.766582 0.575082
O O6 0.932129 0.770859 0.677339
O O7 0.000000 0.763846 0.590027
O O8 0.942152 0.000000 0.611766
O O9 0.716405 0.238627 0.896162
O O10 0.745221 0.000000 0.842565
O O11 0.190088 0.206167 0.500000
O O12 0.177553 0.000000 0.579190
O O13 0.000000 0.200069 0.764219
O O14 0.921618 0.000000 0.746288
#
# Coordination Sequence:
#
# PCOD8288328 Si02
#       5
#    16  16  16  16  16
#     4  10  19  30  47  68  89 115 149 191 232 276
#     4   8  14  25  41  61  86 117 154 193 227 260
#     4  10  20  32  46  64  87 118 152 189 234 280
#     4  10  19  30  46  66  89 118 155 198 234 268
#     4   9  16  27  45  67  92 122 152 184 224 271
#
# _framework density 15.598972
#
# number of rings (size 3 to 8) (size 9 to 14) (size 15 to 20)
#    0.000    2.600    2.000    2.400    0.000    2.800 
#    0.000    2.000    0.000    0.600    0.000    1.400 
#    0.000    0.800    0.000    8.400    0.000    3.600 
#
# Total GULP energy -495895.859485 kJ/mol
# GULP energy per Si atom -12397.396487 kJ/mol
# Density = 1.556347 g / cm^3
# Si number density = 15.598972 Si / 1000 Ang^3
#
#
#
# Elastic Constant Matrix: (Units=GPa)
#
#
# Indices 1 2 3 4 5 6 
#
# 1 107.4916 50.2182 53.2975 0.0000 0.0000 0.0000
# 2 50.2182 62.6023 37.7355 0.0000 0.0000 0.0000
# 3 53.2975 37.7355 69.7702 0.0000 0.0000 0.0000
# 4 0.0000 0.0000 0.0000 20.1779 0.0000 0.0000
# 5 0.0000 0.0000 0.0000 0.0000 24.1244 0.0000
# 6 0.0000 0.0000 0.0000 0.0000 0.0000 25.7461
#
#
#
# Elastic Compliance Matrix: (Units=1/GPa)
#
#
# Indices 1 2 3 4 5 6 
#
# 1 0.017879 -0.009065 -0.008755 0.000000 0.000000 0.000000
# 2 -0.009065 0.028297 -0.008380 0.000000 0.000000 0.000000
# 3 -0.008755 -0.008380 0.025553 0.000000 0.000000 0.000000
# 4 0.000000 0.000000 0.000000 0.049559 0.000000 0.000000
# 5 0.000000 0.000000 0.000000 0.000000 0.041452 0.000000
# 6 0.000000 0.000000 0.000000 0.000000 0.000000 0.038841
#
#
# Mechanical properties :
#
#
# Convention : Reuss Voigt Hill
#
# Bulk Modulus (GPa) = 51.73458 58.04071 54.88765
# Shear Modulus (GPa) = 19.19958 20.58389 19.89174
#
# Velocity S-wave (km/s) = 3.51212 3.63653 3.57486
# Velocity P-wave (km/s) = 7.04869 7.41089 7.23205
#
# Compressibility (1/GPa) = 0.01932943
#
# Stress axis : x y z
#
# Youngs Moduli (GPa) = 55.93178 35.34001 39.13441
#
# Poissons Ratio (x) = 0.32035 0.34262
# Poissons Ratio (y) = 0.50701 0.32794
# Poissons Ratio (z) = 0.48968 0.29614
#
# Static dielectric constant tensor:
#      x y z
#    x 3.142770 0.000000 0.000000 
#    y 0.000000 2.775170 0.000000 
#    z 0.000000 0.000000 2.664300 
# 
# 
# High freq. dielectric constant tensor:
#      x y z
#    x 1.600900 0.000000 0.000000 
#    y 0.000000 1.585820 0.000000 
#    z 0.000000 0.000000 1.555090 
# 
# From -- ./inp_files/16786.got.cif
#   From: 2010.06.25/outbox.cif.g09.slc.cpg/sg71_9_cif.got.tgz:16786.got - 2010.06.28 04:59:45.
