data_PCOD8288419
_publ_section_title
;
Structure prediction by ZEFSAII (Michael W. Deem and Ramdas Pophale) SiO2 
 PCOD8288419
Probable space group: I M M M
;
_chemical_formula_sum "Si O2"
_cell_formula_units_Z 80
_cell_length_a 14.325924
_cell_length_b 33.052082
_cell_length_c 9.677848
_cell_angle_alpha 90.000000
_cell_angle_beta 90.000000
_cell_angle_gamma 90.000000
_cell_volume 4582.476656
_symmetry_space_group_name_H-M "I M M M"
_symmetry_group_IT_number 71
_symmetry_cell_setting 'orthorhombic'
loop_
_space_group_symop_operation_xyz
x,y,z
-x,-y,z
x,-y,-z
-x,y,-z
-x,-y,-z
x,y,-z
-x,y,z
x,-y,z
1/2+x,1/2+y,1/2+z
1/2-x,1/2-y,1/2+z
1/2+x,1/2-y,1/2-z
1/2-x,1/2+y,1/2-z
1/2-x,1/2-y,1/2-z
1/2+x,1/2+y,1/2-z
1/2-x,1/2+y,1/2+z
1/2+x,1/2-y,1/2+z
loop_
_atom_site_type_symbol
_atom_site_label
_atom_site_fract_x
_atom_site_fract_y
_atom_site_fract_z
Si Si1 0.611233 0.226194 0.654039
Si Si2 0.894705 0.652748 0.341100
Si Si3 0.284403 0.608397 0.339769
Si Si4 0.606102 0.452835 0.840886
Si Si5 0.396402 0.314121 0.335732
O O1 0.650474 0.217481 0.500000
O O2 0.500000 0.227895 0.649051
O O3 0.644588 0.190696 0.755095
O O4 0.645012 0.270281 0.711137
O O5 0.890759 0.666473 0.500000
O O6 0.827025 0.614179 0.317333
O O7 0.000000 0.640290 0.297345
O O8 0.308700 0.600549 0.500000
O O9 0.320005 0.570539 0.253029
O O10 0.332205 0.649378 0.283254
O O11 0.500000 0.441383 0.798953
O O12 0.623336 0.500000 0.815901
O O13 0.623768 0.441552 0.000000
O O14 0.400988 0.313558 0.500000
O O15 0.500000 0.321127 0.274186
#
# Coordination Sequence:
#
# PCOD8288419 Si02
#       5
#    16  16  16  16  16
#     4   8  14  26  43  60  82 119 163 199 234 279
#     4   9  18  31  44  62  93 128 161 202 244 270
#     4  10  19  30  48  72  94 122 161 197 229 272
#     4   9  19  36  55  75 101 126 142 168 222 285
#     4   8  14  25  41  63  91 118 148 194 243 278
#
# _framework density 17.457808
#
# number of rings (size 3 to 8) (size 9 to 14) (size 15 to 20)
#    0.000    3.200    0.000    2.400    0.000    3.200 
#    0.000    2.000    0.000    4.200    0.000    4.200 
#    0.000    0.000    0.000    0.000    0.000    0.000 
#
# Total GULP energy -495762.741253 kJ/mol
# GULP energy per Si atom -12394.068531 kJ/mol
# Density = 1.741807 g / cm^3
# Si number density = 17.457808 Si / 1000 Ang^3
#
#
#
# Elastic Constant Matrix: (Units=GPa)
#
#
# Indices 1 2 3 4 5 6 
#
# 1 78.9123 50.1450 35.7265 -0.0001 0.0008 0.0000
# 2 50.1450 87.8571 49.9818 -0.0009 0.0001 0.0001
# 3 35.7265 49.9818 61.3200 -0.0061 0.0073 0.0015
# 4 -0.0001 -0.0009 -0.0061 31.1571 0.0008 0.0007
# 5 0.0008 0.0001 0.0073 0.0008 18.0130 -0.0003
# 6 0.0000 0.0001 0.0015 0.0007 -0.0003 27.3501
#
#
#
# Elastic Compliance Matrix: (Units=1/GPa)
#
#
# Indices 1 2 3 4 5 6 
#
# 1 0.020527 -0.009160 -0.004494 -0.000001 0.000001 0.000000
# 2 -0.009160 0.025311 -0.015294 -0.000002 0.000006 0.000001
# 3 -0.004494 -0.015294 0.031392 0.000006 -0.000012 -0.000002
# 4 -0.000001 -0.000002 0.000006 0.032095 -0.000001 -0.000001
# 5 0.000001 0.000006 -0.000012 -0.000001 0.055515 0.000001
# 6 0.000000 0.000001 -0.000002 -0.000001 0.000001 0.036563
#
#
# Mechanical properties :
#
#
# Convention : Reuss Voigt Hill
#
# Bulk Modulus (GPa) = 51.71863 55.53287 53.62575
# Shear Modulus (GPa) = 18.81506 21.45312 20.13409
#
# Velocity S-wave (km/s) = 3.28646 3.50931 3.39971
# Velocity P-wave (km/s) = 6.64006 6.94976 6.79667
#
# Compressibility (1/GPa) = 0.01933539
#
# Stress axis : x y z
#
# Youngs Moduli (GPa) = 48.71581 39.50865 31.85487
#
# Poissons Ratio (x) = 0.36188 0.14315
# Poissons Ratio (y) = 0.44622 0.48720
# Poissons Ratio (z) = 0.21891 0.60426
#
# Static dielectric constant tensor:
#      x y z
#    x 3.273700 0.000000 0.000000 
#    y 0.000000 3.154700 0.000000 
#    z 0.000000 0.000000 3.089380 
# 
# 
# High freq. dielectric constant tensor:
#      x y z
#    x 1.668250 0.000000 0.000000 
#    y 0.000000 1.655600 0.000000 
#    z 0.000000 0.000000 1.653030 
# 
# From -- ./inp_files/22135.got.cif
#   From: 2010.06.25/outbox.cif.g09.slc.cpg/sg71_12_cif.got.tgz:22135.got - 2010.06.28 04:59:45.
