data_PCOD8288740
_publ_section_title
;
Structure prediction by ZEFSAII (Michael W. Deem and Ramdas Pophale) SiO2 
 PCOD8288740
Probable space group: I M M M
;
_chemical_formula_sum "Si O2"
_cell_formula_units_Z 88
_cell_length_a 22.018636
_cell_length_b 14.958759
_cell_length_c 14.274859
_cell_angle_alpha 90.000000
_cell_angle_beta 90.000000
_cell_angle_gamma 90.000000
_cell_volume 4701.731285
_symmetry_space_group_name_H-M "I M M M"
_symmetry_group_IT_number 71
_symmetry_cell_setting 'orthorhombic'
loop_
_space_group_symop_operation_xyz
x,y,z
-x,-y,z
x,-y,-z
-x,y,-z
-x,-y,-z
x,y,-z
-x,y,z
x,-y,z
1/2+x,1/2+y,1/2+z
1/2-x,1/2-y,1/2+z
1/2+x,1/2-y,1/2-z
1/2-x,1/2+y,1/2-z
1/2-x,1/2-y,1/2-z
1/2+x,1/2+y,1/2-z
1/2-x,1/2+y,1/2+z
1/2+x,1/2-y,1/2+z
loop_
_atom_site_type_symbol
_atom_site_label
_atom_site_fract_x
_atom_site_fract_y
_atom_site_fract_z
Si Si1 0.000000 0.180560 0.894257
Si Si2 0.500000 0.397809 0.201048
Si Si3 0.807906 0.693532 0.276474
Si Si4 0.307903 0.000000 0.759779
Si Si5 0.433788 0.000000 0.329938
Si Si6 0.394436 0.181096 0.603035
Si Si7 0.877397 0.834344 0.610369
Si Si8 0.792685 0.000000 0.391050
O O1 0.000000 0.104293 0.814612
O O2 0.940563 0.239106 0.877127
O O3 0.000000 0.139633 0.000000
O O4 0.500000 0.500000 0.167022
O O5 0.441435 0.348003 0.160652
O O6 0.750000 0.750000 0.250000
O O7 0.790996 0.592775 0.313825
O O8 0.841714 0.682200 0.178395
O O9 0.848667 0.741325 0.354746
O O10 0.380678 0.000000 0.747189
O O11 0.271503 0.000000 0.661431
O O12 0.429739 0.087373 0.394668
O O13 0.500000 0.000000 0.279506
O O14 0.365141 0.192911 0.500000
O O15 0.888407 0.829587 0.500000
O O16 0.831862 0.913840 0.637968
O O17 0.776768 0.000000 0.500000
#
# Coordination Sequence:
#
# PCOD8288740 Si02
#       8
#     8   8  16   8   8  16  16   8
#     4  10  20  35  55  82 118 155 189 227 284 352
#     4  12  23  39  65  92 117 154 199 253 309 368
#     4  11  22  38  59  85 117 161 198 244 302 358
#     4  10  22  36  58  87 118 154 202 240 291 368
#     4  10  19  31  51  84 119 149 182 232 288 345
#     4  10  20  33  53  82 116 149 187 233 288 353
#     4  11  23  39  61  90 123 156 198 259 313 358
#     4  10  20  37  60  90 120 147 192 258 320 359
#
# _framework density 18.716508999999999
#
# number of rings (size 3 to 8) (size 9 to 14) (size 15 to 20)
#    0.000    1.455    5.455    0.545    0.000    4.545 
#    0.000    0.455    0.000    0.000    0.000    1.273 
#    0.000    0.000    0.000    0.000    0.000    0.000 
#
# Total GULP energy -545458.110170 kJ/mol
# GULP energy per Si atom -12396.775231 kJ/mol
# Density = 1.867391 g / cm^3
# Si number density = 18.716509 Si / 1000 Ang^3
#
#
#
# Elastic Constant Matrix: (Units=GPa)
#
#
# Indices 1 2 3 4 5 6 
#
# 1 105.5653 39.9144 30.5407 0.0000 0.0000 0.0000
# 2 39.9144 132.4664 35.7944 0.0000 0.0000 0.0000
# 3 30.5407 35.7944 82.0284 0.0000 0.0000 0.0000
# 4 0.0000 0.0000 0.0000 24.7286 0.0000 0.0000
# 5 0.0000 0.0000 0.0000 0.0000 19.1296 0.0000
# 6 0.0000 0.0000 0.0000 0.0000 0.0000 -0.1844
#
#
#
# Elastic Compliance Matrix: (Units=1/GPa)
#
#
# Indices 1 2 3 4 5 6 
#
# 1 0.011345 -0.002581 -0.003097 0.000000 0.000000 0.000000
# 2 -0.002581 0.009146 -0.003030 0.000000 0.000000 0.000000
# 3 -0.003097 -0.003030 0.014666 0.000000 0.000000 0.000000
# 4 0.000000 0.000000 0.000000 0.040439 0.000000 0.000000
# 5 0.000000 0.000000 0.000000 0.000000 0.052275 0.000000
# 6 0.000000 0.000000 0.000000 0.000000 0.000000 -5.423924
#
#
# Mechanical properties :
#
#
# Convention : Reuss Voigt Hill
#
# Bulk Modulus (GPa) = 56.37139 59.17324 57.77232
# Shear Modulus (GPa) = -0.94828 22.98880 11.02026
#
# Velocity S-wave (km/s) = -0.71257 3.50846 2.42915
# Velocity P-wave (km/s) = 5.43203 6.93517 6.22910
#
# Compressibility (1/GPa) = 0.01773949
#
# Stress axis : x y z
#
# Youngs Moduli (GPa) = 88.14463 109.34235 68.18393
#
# Poissons Ratio (x) = 0.28226 0.21120
# Poissons Ratio (y) = 0.22754 0.20658
# Poissons Ratio (z) = 0.27303 0.33127
#
# Static dielectric constant tensor:
#      x y z
#    x 3.443420 0.000000 0.000000 
#    y 0.000000 4.005470 0.000000 
#    z 0.000000 0.000000 3.217310 
# 
# 
# High freq. dielectric constant tensor:
#      x y z
#    x 1.736560 0.000000 0.000000 
#    y 0.000000 1.735050 0.000000 
#    z 0.000000 0.000000 1.699110 
# 
# From -- ./inp_files/25734.got.cif
#   From: 2010.06.25/outbox.cif.g09.slc.cpg/sg71_13_cif.got.tgz:25734.got - 2010.06.28 04:59:45.
