data_PCOD8288448
_publ_section_title
;
Structure prediction by ZEFSAII (Michael W. Deem and Ramdas Pophale) SiO2 
 PCOD8288448
Probable space group: I M M M
;
_chemical_formula_sum "Si O2"
_cell_formula_units_Z 120
_cell_length_a 9.567556
_cell_length_b 26.621714
_cell_length_c 26.899645
_cell_angle_alpha 90.000000
_cell_angle_beta 90.000000
_cell_angle_gamma 90.000000
_cell_volume 6851.467073
_symmetry_space_group_name_H-M "I M M M"
_symmetry_group_IT_number 71
_symmetry_cell_setting 'orthorhombic'
loop_
_space_group_symop_operation_xyz
x,y,z
-x,-y,z
x,-y,-z
-x,y,-z
-x,-y,-z
x,y,-z
-x,y,z
x,-y,z
1/2+x,1/2+y,1/2+z
1/2-x,1/2-y,1/2+z
1/2+x,1/2-y,1/2-z
1/2-x,1/2+y,1/2-z
1/2-x,1/2-y,1/2-z
1/2+x,1/2+y,1/2-z
1/2-x,1/2+y,1/2+z
1/2+x,1/2-y,1/2+z
loop_
_atom_site_type_symbol
_atom_site_label
_atom_site_fract_x
_atom_site_fract_y
_atom_site_fract_z
Si Si1 0.662715 0.739899 0.056644
Si Si2 0.665548 0.803328 0.356425
Si Si3 0.500000 0.442295 0.554523
Si Si4 0.336723 0.636466 0.782529
Si Si5 0.149832 0.339251 0.607476
Si Si6 0.156230 0.802735 0.812524
Si Si7 0.159919 0.556688 0.275657
Si Si8 0.279208 0.056107 0.890698
O O1 0.500000 0.727924 0.068238
O O2 0.765058 0.705784 0.089815
O O3 0.698174 0.799118 0.065822
O O4 0.698824 0.727435 0.000000
O O5 0.500000 0.815184 0.361685
O O6 0.748490 0.849678 0.331709
O O7 0.694735 0.755171 0.321588
O O8 0.500000 0.500000 0.541797
O O9 0.500000 0.414490 0.500000
O O10 0.628964 0.428643 0.588969
O O11 0.500000 0.625279 0.795112
O O12 0.324781 0.683611 0.745041
O O13 0.264446 0.587795 0.758917
O O14 0.249750 0.339948 0.655012
O O15 0.131829 0.396861 0.587694
O O16 0.000000 0.320594 0.626922
O O17 0.000000 0.813033 0.830817
O O18 0.161201 0.500000 0.255110
O O19 0.218000 0.556945 0.331448
O O20 0.000000 0.577839 0.274540
O O21 0.328488 0.000000 0.909121
#
# Coordination Sequence:
#
# PCOD8288448 Si02
#       8
#    16  16   8  16  16  16  16  16
#     4   9  19  36  54  72  99 133 169 212 263 316
#     4  10  20  34  52  75 103 132 170 213 258 311
#     4   9  20  36  50  66  88 118 162 220 279 323
#     4  11  21  32  51  76 105 139 174 209 253 310
#     4  10  19  30  49  72  98 129 165 210 263 317
#     4   9  19  32  47  69  99 133 169 207 248 303
#     4  10  21  35  51  75 107 141 176 215 263 313
#     4  10  20  32  51  71  94 128 174 225 272 320
#
# _framework density 17.514496999999999
#
# number of rings (size 3 to 8) (size 9 to 14) (size 15 to 20)
#    0.000    2.200    1.333    1.600    1.867    2.933 
#    0.000    0.000    0.000    1.200    0.000   10.267 
#    0.000    0.533    0.000    5.600    0.000    2.400 
#
# Total GULP energy -743351.084320 kJ/mol
# GULP energy per Si atom -12389.184739 kJ/mol
# Density = 1.747463 g / cm^3
# Si number density = 17.514497 Si / 1000 Ang^3
#
#
#
# Elastic Constant Matrix: (Units=GPa)
#
#
# Indices 1 2 3 4 5 6 
#
# 1 119.7902 40.3767 61.1533 0.0000 0.0000 0.0000
# 2 40.3767 51.5661 34.3876 0.0000 0.0000 0.0000
# 3 61.1533 34.3876 82.0489 0.0000 0.0000 0.0000
# 4 0.0000 0.0000 0.0000 13.8719 0.0000 0.0000
# 5 0.0000 0.0000 0.0000 0.0000 25.7623 0.0000
# 6 0.0000 0.0000 0.0000 0.0000 0.0000 25.2300
#
#
#
# Elastic Compliance Matrix: (Units=1/GPa)
#
#
# Indices 1 2 3 4 5 6 
#
# 1 0.014629 -0.005806 -0.008470 0.000000 0.000000 0.000000
# 2 -0.005806 0.029220 -0.007919 0.000000 0.000000 0.000000
# 3 -0.008470 -0.007919 0.021819 0.000000 0.000000 0.000000
# 4 0.000000 0.000000 0.000000 0.072088 0.000000 0.000000
# 5 0.000000 0.000000 0.000000 0.000000 0.038816 0.000000
# 6 0.000000 0.000000 0.000000 0.000000 0.000000 0.039635
#
#
# Mechanical properties :
#
#
# Convention : Reuss Voigt Hill
#
# Bulk Modulus (GPa) = 46.99609 58.36005 52.67807
# Shear Modulus (GPa) = 18.67829 20.80535 19.74182
#
# Velocity S-wave (km/s) = 3.26919 3.45032 3.36098
# Velocity P-wave (km/s) = 6.41413 7.01900 6.72337
#
# Compressibility (1/GPa) = 0.02127836
#
# Stress axis : x y z
#
# Youngs Moduli (GPa) = 68.35789 34.22351 45.83066
#
# Poissons Ratio (x) = 0.19871 0.38818
# Poissons Ratio (y) = 0.39691 0.36292
# Poissons Ratio (z) = 0.57898 0.27101
#
# Static dielectric constant tensor:
#      x y z
#    x 2.983130 0.000000 0.000000 
#    y 0.000000 3.158630 0.000000 
#    z 0.000000 0.000000 2.976680 
# 
# 
# High freq. dielectric constant tensor:
#      x y z
#    x 1.691100 0.000000 0.000000 
#    y 0.000000 1.653900 0.000000 
#    z 0.000000 0.000000 1.642640 
# 
# From -- ./inp_files/63854.got.cif
#   From: 2010.06.25/outbox.cif.g09.slc.cpg/sg71_32_cif.got.tgz:63854.got - 2010.06.28 04:59:45.
