data_PCOD8288156
_publ_section_title
;
Structure prediction by ZEFSAII (Michael W. Deem and Ramdas Pophale) SiO2 
 PCOD8288156
Probable space group: I M M M
;
_chemical_formula_sum "Si O2"
_cell_formula_units_Z 120
_cell_length_a 13.703055
_cell_length_b 28.150891
_cell_length_c 21.337439
_cell_angle_alpha 90.000000
_cell_angle_beta 90.000000
_cell_angle_gamma 90.000000
_cell_volume 8230.985538
_symmetry_space_group_name_H-M "I M M M"
_symmetry_group_IT_number 71
_symmetry_cell_setting 'orthorhombic'
loop_
_space_group_symop_operation_xyz
x,y,z
-x,-y,z
x,-y,-z
-x,y,-z
-x,-y,-z
x,y,-z
-x,y,z
x,-y,z
1/2+x,1/2+y,1/2+z
1/2-x,1/2-y,1/2+z
1/2+x,1/2-y,1/2-z
1/2-x,1/2+y,1/2-z
1/2-x,1/2-y,1/2-z
1/2+x,1/2+y,1/2-z
1/2-x,1/2+y,1/2+z
1/2+x,1/2-y,1/2+z
loop_
_atom_site_type_symbol
_atom_site_label
_atom_site_fract_x
_atom_site_fract_y
_atom_site_fract_z
Si Si1 0.383385 0.553490 0.500000
Si Si2 0.606616 0.358183 0.926330
Si Si3 0.387401 0.554481 0.739669
Si Si4 0.886315 0.210858 0.073324
Si Si5 0.707098 0.806318 0.426177
Si Si6 0.111111 0.596997 0.926753
Si Si7 0.794769 0.054211 0.370807
Si Si8 0.115733 0.889832 0.881318
O O1 0.343717 0.500000 0.500000
O O2 0.500000 0.554668 0.500000
O O3 0.340904 0.579618 0.438646
O O4 0.500000 0.347803 0.896469
O O5 0.686573 0.321284 0.898525
O O6 0.638384 0.412183 0.913381
O O7 0.601553 0.351766 0.000000
O O8 0.500000 0.565896 0.757270
O O9 0.378427 0.500000 0.717304
O O10 0.317826 0.565058 0.798335
O O11 0.348159 0.588331 0.684245
O O12 0.827976 0.256034 0.101695
O O13 0.850277 0.164824 0.111914
O O14 0.000000 0.220894 0.083854
O O15 0.865257 0.202062 0.000000
O O16 0.713699 0.800036 0.500000
O O17 0.630033 0.847801 0.410109
O O18 0.180671 0.563627 0.884946
O O19 0.000000 0.584157 0.910183
O O20 0.133701 0.587749 0.000000
O O21 0.821458 0.000000 0.387162
O O22 0.000000 0.892749 0.885058
#
# Coordination Sequence:
#
# PCOD8288156 Si02
#       8
#     8  16  16  16  16  16  16  16
#     4   9  14  20  32  52  82 114 137 161 198 241
#     4   9  17  28  41  57  77 102 134 168 201 238
#     4   9  17  28  40  54  77 112 147 170 192 231
#     4   9  14  21  36  59  85 106 129 165 203 238
#     4   8  14  24  39  59  81 105 130 159 201 245
#     4   9  17  29  44  62  83 106 132 162 202 249
#     4  10  19  29  41  58  79 104 135 168 199 234
#     4   9  15  23  35  56  82 108 138 168 199 235
#
# _framework density 14.579056
#
# number of rings (size 3 to 8) (size 9 to 14) (size 15 to 20)
#    0.000    3.000    0.667    2.400    0.000    5.333 
#    0.000    1.333    0.000    3.200    0.000    2.800 
#    0.000    0.000    0.000    0.133    0.000    7.467 
#
# Total GULP energy -743651.518991 kJ/mol
# GULP energy per Si atom -12394.191983 kJ/mol
# Density = 1.454587 g / cm^3
# Si number density = 14.579056 Si / 1000 Ang^3
#
#
#
# Elastic Constant Matrix: (Units=GPa)
#
#
# Indices 1 2 3 4 5 6 
#
# 1 79.2003 38.4741 32.9966 0.0000 0.0000 0.0000
# 2 38.4741 97.7106 30.5239 0.0000 0.0000 0.0000
# 3 32.9966 30.5239 46.6258 0.0000 0.0000 0.0000
# 4 0.0000 0.0000 0.0000 16.9414 0.0000 0.0000
# 5 0.0000 0.0000 0.0000 0.0000 12.4325 0.0000
# 6 0.0000 0.0000 0.0000 0.0000 0.0000 14.9806
#
#
#
# Elastic Compliance Matrix: (Units=1/GPa)
#
#
# Indices 1 2 3 4 5 6 
#
# 1 0.019162 -0.004160 -0.010838 0.000000 0.000000 0.000000
# 2 -0.004160 0.013768 -0.006070 0.000000 0.000000 0.000000
# 3 -0.010838 -0.006070 0.033091 0.000000 0.000000 0.000000
# 4 0.000000 0.000000 0.000000 0.059027 0.000000 0.000000
# 5 0.000000 0.000000 0.000000 0.000000 0.080434 0.000000
# 6 0.000000 0.000000 0.000000 0.000000 0.000000 0.066753
#
#
# Mechanical properties :
#
#
# Convention : Reuss Voigt Hill
#
# Bulk Modulus (GPa) = 41.86396 47.50289 44.68342
# Shear Modulus (GPa) = 15.51196 16.97371 16.24284
#
# Velocity S-wave (km/s) = 3.26542 3.41582 3.34147
# Velocity P-wave (km/s) = 6.55704 6.94340 6.75298
#
# Compressibility (1/GPa) = 0.02388690
#
# Stress axis : x y z
#
# Youngs Moduli (GPa) = 52.18632 72.63051 30.21989
#
# Poissons Ratio (x) = 0.30211 0.32752
# Poissons Ratio (y) = 0.21707 0.18343
# Poissons Ratio (z) = 0.56558 0.44086
#
# Static dielectric constant tensor:
#      x y z
#    x 2.839740 0.000000 0.000000 
#    y 0.000000 2.992670 0.000000 
#    z 0.000000 0.000000 2.645960 
# 
# 
# High freq. dielectric constant tensor:
#      x y z
#    x 1.525290 0.000000 0.000000 
#    y 0.000000 1.562430 0.000000 
#    z 0.000000 0.000000 1.527530 
# 
# From -- ./inp_files/53557.got.cif
#   From: 2010.06.25/outbox.cif.g09.slc.cpg/sg71_27_cif.got.tgz:53557.got - 2010.06.28 04:59:45.
