data_PCOD8288555
_publ_section_title
;
Structure prediction by ZEFSAII (Michael W. Deem and Ramdas Pophale) SiO2 
 PCOD8288555
Probable space group: I M M M
;
_chemical_formula_sum "Si O2"
_cell_formula_units_Z 72
_cell_length_a 8.980954
_cell_length_b 18.918445
_cell_length_c 27.214380
_cell_angle_alpha 90.000000
_cell_angle_beta 90.000000
_cell_angle_gamma 90.000000
_cell_volume 4623.877857
_symmetry_space_group_name_H-M "I M M M"
_symmetry_group_IT_number 71
_symmetry_cell_setting 'orthorhombic'
loop_
_space_group_symop_operation_xyz
x,y,z
-x,-y,z
x,-y,-z
-x,y,-z
-x,-y,-z
x,y,-z
-x,y,z
x,-y,z
1/2+x,1/2+y,1/2+z
1/2-x,1/2-y,1/2+z
1/2+x,1/2-y,1/2-z
1/2-x,1/2+y,1/2-z
1/2-x,1/2-y,1/2-z
1/2+x,1/2+y,1/2-z
1/2-x,1/2+y,1/2+z
1/2+x,1/2-y,1/2+z
loop_
_atom_site_type_symbol
_atom_site_label
_atom_site_fract_x
_atom_site_fract_y
_atom_site_fract_z
Si Si1 0.170557 0.770186 0.319804
Si Si2 0.831614 0.500000 0.152227
Si Si3 0.667370 0.000000 0.231744
Si Si4 0.827555 0.123537 0.598026
Si Si5 0.825889 0.143853 0.224658
Si Si6 0.323919 0.917214 0.500000
O O1 0.190698 0.801237 0.374648
O O2 0.218538 0.828448 0.279031
O O3 0.272577 0.701059 0.315536
O O4 0.000000 0.748325 0.309928
O O5 0.832136 0.500000 0.210033
O O6 0.743953 0.432453 0.134207
O O7 0.000000 0.500000 0.130663
O O8 0.748540 0.930173 0.212305
O O9 0.500000 0.000000 0.211078
O O10 0.742156 0.123487 0.546626
O O11 0.000000 0.105056 0.589093
O O12 0.000000 0.131944 0.219453
O O13 0.500000 0.909393 0.500000
O O14 0.276706 0.000000 0.500000
#
# Coordination Sequence:
#
# PCOD8288555 Si02
#       6
#    16   8   8  16  16   8
#     4   9  19  33  47  67  93 122 157 196 238 282
#     4  11  21  30  44  67  93 125 161 199 240 279
#     4  11  21  31  46  68  97 128 160 198 238 279
#     4  11  21  34  51  67  90 125 163 201 240 282
#     4  10  19  31  48  69  93 123 159 195 234 281
#     4  11  23  35  47  69  96 123 160 203 242 278
#
# _framework density 15.571346
#
# number of rings (size 3 to 8) (size 9 to 14) (size 15 to 20)
#    0.000    1.667    3.333    2.333    0.000    4.000 
#    0.000    0.000    0.000    0.000    0.000    0.000 
#    0.000    0.889    0.000    9.333    0.000    4.444 
#
# Total GULP energy -446448.607977 kJ/mol
# GULP energy per Si atom -12401.350222 kJ/mol
# Density = 1.553590 g / cm^3
# Si number density = 15.571346 Si / 1000 Ang^3
#
#
#
# Elastic Constant Matrix: (Units=GPa)
#
#
# Indices 1 2 3 4 5 6 
#
# 1 102.3447 59.4170 34.6378 0.0000 0.0000 0.0000
# 2 59.4170 106.7821 32.0120 0.0000 0.0000 0.0000
# 3 34.6378 32.0120 64.8717 0.0000 0.0000 0.0000
# 4 0.0000 0.0000 0.0000 29.8922 0.0000 0.0000
# 5 0.0000 0.0000 0.0000 0.0000 23.4088 0.0000
# 6 0.0000 0.0000 0.0000 0.0000 0.0000 30.3296
#
#
#
# Elastic Compliance Matrix: (Units=1/GPa)
#
#
# Indices 1 2 3 4 5 6 
#
# 1 0.015586 -0.007250 -0.004744 0.000000 0.000000 0.000000
# 2 -0.007250 0.014363 -0.003217 0.000000 0.000000 0.000000
# 3 -0.004744 -0.003217 0.019535 0.000000 0.000000 0.000000
# 4 0.000000 0.000000 0.000000 0.033453 0.000000 0.000000
# 5 0.000000 0.000000 0.000000 0.000000 0.042719 0.000000
# 6 0.000000 0.000000 0.000000 0.000000 0.000000 0.032971
#
#
# Mechanical properties :
#
#
# Convention : Reuss Voigt Hill
#
# Bulk Modulus (GPa) = 52.45883 58.45912 55.45898
# Shear Modulus (GPa) = 25.58799 26.58824 26.08812
#
# Velocity S-wave (km/s) = 4.05813 4.13669 4.09760
# Velocity P-wave (km/s) = 7.46461 7.77435 7.62105
#
# Compressibility (1/GPa) = 0.01906257
#
# Stress axis : x y z
#
# Youngs Moduli (GPa) = 64.16166 69.62151 51.18895
#
# Poissons Ratio (x) = 0.50476 0.24285
# Poissons Ratio (y) = 0.46518 0.16466
# Poissons Ratio (z) = 0.30439 0.22395
#
# Static dielectric constant tensor:
#      x y z
#    x 3.172730 0.000000 0.000000 
#    y 0.000000 2.823210 0.000000 
#    z 0.000000 0.000000 2.778120 
# 
# 
# High freq. dielectric constant tensor:
#      x y z
#    x 1.617350 0.000000 0.000000 
#    y 0.000000 1.583120 0.000000 
#    z 0.000000 0.000000 1.563630 
# 
# From -- ./inp_files/8210.got.cif
#   From: 2010.06.25/outbox.cif.g09.slc.cpg/sg71_5_cif.got.tgz:8210.got - 2010.06.28 04:59:45.
