data_PCOD8288009
_publ_section_title
;
Structure prediction by ZEFSAII (Michael W. Deem and Ramdas Pophale) SiO2 
 PCOD8288009
Probable space group: I M M M
;
_chemical_formula_sum "Si O2"
_cell_formula_units_Z 88
_cell_length_a 13.632211
_cell_length_b 17.522147
_cell_length_c 22.861995
_cell_angle_alpha 90.000000
_cell_angle_beta 90.000000
_cell_angle_gamma 90.000000
_cell_volume 5460.944269
_symmetry_space_group_name_H-M "I M M M"
_symmetry_group_IT_number 71
_symmetry_cell_setting 'orthorhombic'
loop_
_space_group_symop_operation_xyz
x,y,z
-x,-y,z
x,-y,-z
-x,y,-z
-x,-y,-z
x,y,-z
-x,y,z
x,-y,z
1/2+x,1/2+y,1/2+z
1/2-x,1/2-y,1/2+z
1/2+x,1/2-y,1/2-z
1/2-x,1/2+y,1/2-z
1/2-x,1/2-y,1/2-z
1/2+x,1/2+y,1/2-z
1/2-x,1/2+y,1/2+z
1/2+x,1/2-y,1/2+z
loop_
_atom_site_type_symbol
_atom_site_label
_atom_site_fract_x
_atom_site_fract_y
_atom_site_fract_z
Si Si1 0.799530 0.588947 0.766148
Si Si2 0.613483 0.823188 0.838410
Si Si3 0.612894 0.790462 0.348606
Si Si4 0.610605 0.680353 0.241742
Si Si5 0.734527 0.701248 0.564680
Si Si6 0.384306 0.587753 0.500000
O O1 0.810379 0.500000 0.777135
O O2 0.850585 0.610754 0.705133
O O3 0.853041 0.630490 0.819947
O O4 0.684506 0.610243 0.764547
O O5 0.500000 0.836862 0.852320
O O6 0.632076 0.740971 0.809281
O O7 0.671543 0.826439 0.899080
O O8 0.500000 0.798486 0.366964
O O9 0.629199 0.721288 0.303432
O O10 0.677573 0.771615 0.405353
O O11 0.500000 0.648669 0.237453
O O12 0.769425 0.728706 0.500000
O O13 0.660297 0.628976 0.557764
O O14 0.352312 0.500000 0.500000
O O15 0.500000 0.597681 0.500000
#
# Coordination Sequence:
#
# PCOD8288009 Si02
#       6
#    16  16  16  16  16   8
#     4  11  20  32  52  79 110 137 166 213 269 319
#     4  10  19  35  55  73 102 137 175 214 251 309
#     4  10  18  33  54  75 102 134 176 217 255 311
#     4   9  17  32  54  75  98 133 171 215 265 308
#     4  10  20  33  54  77 100 137 179 212 254 300
#     4   9  20  36  51  73 102 132 172 217 257 299
#
# _framework density 16.114429999999999
#
# number of rings (size 3 to 8) (size 9 to 14) (size 15 to 20)
#    0.545    1.545    3.636    3.273    0.000    2.909 
#    0.000    0.000    0.000    1.091    0.000    1.273 
#    0.000    2.909    0.000    0.000    0.000    0.000 
#
# Total GULP energy -545556.363700 kJ/mol
# GULP energy per Si atom -12399.008266 kJ/mol
# Density = 1.607775 g / cm^3
# Si number density = 16.114430 Si / 1000 Ang^3
#
#
#
# Elastic Constant Matrix: (Units=GPa)
#
#
# Indices 1 2 3 4 5 6 
#
# 1 105.7664 44.4278 41.8814 0.0000 0.0000 0.0000
# 2 44.4278 89.0030 38.7733 0.0000 0.0000 0.0000
# 3 41.8814 38.7733 99.7820 0.0000 0.0000 0.0000
# 4 0.0000 0.0000 0.0000 10.8446 0.0000 0.0000
# 5 0.0000 0.0000 0.0000 0.0000 29.0847 0.0000
# 6 0.0000 0.0000 0.0000 0.0000 0.0000 18.5764
#
#
#
# Elastic Compliance Matrix: (Units=1/GPa)
#
#
# Indices 1 2 3 4 5 6 
#
# 1 0.012909 -0.004915 -0.003508 0.000000 0.000000 0.000000
# 2 -0.004915 0.015397 -0.003920 0.000000 0.000000 0.000000
# 3 -0.003508 -0.003920 0.013017 0.000000 0.000000 0.000000
# 4 0.000000 0.000000 0.000000 0.092212 0.000000 0.000000
# 5 0.000000 0.000000 0.000000 0.000000 0.034382 0.000000
# 6 0.000000 0.000000 0.000000 0.000000 0.000000 0.053832
#
#
# Mechanical properties :
#
#
# Convention : Reuss Voigt Hill
#
# Bulk Modulus (GPa) = 60.10915 60.52403 60.31659
# Shear Modulus (GPa) = 19.84276 22.99906 21.42091
#
# Velocity S-wave (km/s) = 3.51289 3.78197 3.64991
# Velocity P-wave (km/s) = 7.33732 7.53071 7.43464
#
# Compressibility (1/GPa) = 0.01663640
#
# Stress axis : x y z
#
# Youngs Moduli (GPa) = 77.46728 64.94854 76.81994
#
# Poissons Ratio (x) = 0.31925 0.26949
# Poissons Ratio (y) = 0.38078 0.30112
# Poissons Ratio (z) = 0.27176 0.25458
#
# Static dielectric constant tensor:
#      x y z
#    x 3.199080 0.000000 0.000000 
#    y 0.000000 2.732840 0.000000 
#    z 0.000000 0.000000 2.908860 
# 
# 
# High freq. dielectric constant tensor:
#      x y z
#    x 1.639080 0.000000 0.000000 
#    y 0.000000 1.588950 0.000000 
#    z 0.000000 0.000000 1.603130 
# 
# From -- ./inp_files/60023.got.cif
#   From: 2010.06.25/outbox.cif.g09.slc.cpg/sg71_31_cif.got.tgz:60023.got - 2010.06.28 04:59:45.
