data_PCOD8288386
_publ_section_title
;
Structure prediction by ZEFSAII (Michael W. Deem and Ramdas Pophale) SiO2 
 PCOD8288386
Probable space group: I M M M
;
_chemical_formula_sum "Si O2"
_cell_formula_units_Z 88
_cell_length_a 17.733595
_cell_length_b 27.621702
_cell_length_c 9.591291
_cell_angle_alpha 90.000000
_cell_angle_beta 90.000000
_cell_angle_gamma 90.000000
_cell_volume 4698.121987
_symmetry_space_group_name_H-M "I M M M"
_symmetry_group_IT_number 71
_symmetry_cell_setting 'orthorhombic'
loop_
_space_group_symop_operation_xyz
x,y,z
-x,-y,z
x,-y,-z
-x,y,-z
-x,-y,-z
x,y,-z
-x,y,z
x,-y,z
1/2+x,1/2+y,1/2+z
1/2-x,1/2-y,1/2+z
1/2+x,1/2-y,1/2-z
1/2-x,1/2+y,1/2-z
1/2-x,1/2-y,1/2-z
1/2+x,1/2+y,1/2-z
1/2-x,1/2+y,1/2+z
1/2+x,1/2-y,1/2+z
loop_
_atom_site_type_symbol
_atom_site_label
_atom_site_fract_x
_atom_site_fract_y
_atom_site_fract_z
Si Si1 0.083222 0.791463 0.336893
Si Si2 0.585435 0.904572 0.209765
Si Si3 0.587828 0.053674 0.500000
Si Si4 0.218202 0.857882 0.664974
Si Si5 0.736856 0.054483 0.152914
Si Si6 0.155546 0.693010 0.338340
O O1 0.074447 0.783073 0.500000
O O2 0.133952 0.838427 0.305857
O O3 0.122249 0.742885 0.277654
O O4 0.000000 0.799038 0.269904
O O5 0.500000 0.922401 0.177001
O O6 0.610947 0.914066 0.368778
O O7 0.647956 0.934331 0.125230
O O8 0.590739 0.847816 0.175054
O O9 0.500000 0.044444 0.500000
O O10 0.626792 0.000000 0.500000
O O11 0.235398 0.860802 0.500000
O O12 0.224324 0.910632 0.734494
O O13 0.274592 0.820811 0.740324
O O14 0.747043 0.000000 0.208245
O O15 0.774964 0.060809 0.000000
O O16 0.181985 0.697257 0.500000
#
# Coordination Sequence:
#
# PCOD8288386 Si02
#       6
#    16  16   8  16  16  16
#     4   9  18  34  56  81 107 136 174 217 261 310
#     4  10  19  30  47  71 101 137 177 217 254 296
#     4   9  18  30  42  60  92 134 171 211 262 296
#     4  10  20  34  56  81 105 137 173 215 263 310
#     4  10  22  37  53  74 101 136 176 220 266 314
#     4  10  20  33  52  77 108 146 177 208 254 307
#
# _framework density 18.730889000000001
#
# number of rings (size 3 to 8) (size 9 to 14) (size 15 to 20)
#    0.000    2.273    0.000    3.818    5.091    3.636 
#    0.000    1.818    0.000    4.909    0.000    3.818 
#    0.000    0.000    0.000    0.000    0.000    0.000 
#
# Total GULP energy -545275.430567 kJ/mol
# GULP energy per Si atom -12392.623422 kJ/mol
# Density = 1.868826 g / cm^3
# Si number density = 18.730889 Si / 1000 Ang^3
#
#
#
# Elastic Constant Matrix: (Units=GPa)
#
#
# Indices 1 2 3 4 5 6 
#
# 1 94.9575 60.8610 37.2857 0.0002 0.0000 0.0000
# 2 60.8610 135.1444 46.6943 0.0000 0.0000 0.0000
# 3 37.2857 46.6943 98.0960 -0.0007 -0.0002 0.0003
# 4 0.0002 0.0000 -0.0007 -3.4616 0.0006 -0.0005
# 5 0.0000 0.0000 -0.0002 0.0006 15.4892 0.0000
# 6 0.0000 0.0000 0.0003 -0.0005 0.0000 7.8996
#
#
#
# Elastic Compliance Matrix: (Units=1/GPa)
#
#
# Indices 1 2 3 4 5 6 
#
# 1 0.015546 -0.005936 -0.003084 0.000002 0.000000 0.000000
# 2 -0.005936 0.011122 -0.003038 0.000000 0.000000 0.000000
# 3 -0.003084 -0.003038 0.012812 -0.000003 0.000000 0.000000
# 4 0.000002 0.000000 -0.000003 -0.288885 0.000012 -0.000017
# 5 0.000000 0.000000 0.000000 0.000012 0.064561 0.000000
# 6 0.000000 0.000000 0.000000 -0.000017 0.000000 0.126589
#
#
# Mechanical properties :
#
#
# Convention : Reuss Voigt Hill
#
# Bulk Modulus (GPa) = 65.07895 68.65333 66.86614
# Shear Modulus (GPa) = -172.31107 16.20924 -78.05092
#
# Velocity S-wave (km/s) = -9.60170 2.94492 -6.46220
# Velocity P-wave (km/s) = 9.38637 6.94949 4.46142
#
# Compressibility (1/GPa) = 0.01536595
#
# Stress axis : x y z
#
# Youngs Moduli (GPa) = 64.32469 89.90960 78.04970
#
# Poissons Ratio (x) = 0.53367 0.24067
# Poissons Ratio (y) = 0.38181 0.23713
# Poissons Ratio (z) = 0.19835 0.27316
#
# Static dielectric constant tensor:
#      x y z
#    x 3.345690 0.000000 0.000000 
#    y 0.000000 3.450710 0.000000 
#    z 0.000000 0.000000 3.554250 
# 
# 
# High freq. dielectric constant tensor:
#      x y z
#    x 1.697490 0.000000 0.000000 
#    y 0.000000 1.725920 0.000000 
#    z 0.000000 0.000000 1.724110 
# 
# From -- ./inp_files/10957.got.cif
#   From: 2010.06.25/outbox.cif.g09.slc.cpg/sg71_6_cif.got.tgz:10957.got - 2010.06.28 04:59:45.
