data_PCOD8288658
_publ_section_title
;
Structure prediction by ZEFSAII (Michael W. Deem and Ramdas Pophale) SiO2 
 PCOD8288658
Probable space group: I M M M
;
_chemical_formula_sum "Si O2"
_cell_formula_units_Z 64
_cell_length_a 26.239756
_cell_length_b 9.149623
_cell_length_c 14.797880
_cell_angle_alpha 90.000000
_cell_angle_beta 90.000000
_cell_angle_gamma 90.000000
_cell_volume 3552.732372
_symmetry_space_group_name_H-M "I M M M"
_symmetry_group_IT_number 71
_symmetry_cell_setting 'orthorhombic'
loop_
_space_group_symop_operation_xyz
x,y,z
-x,-y,z
x,-y,-z
-x,y,-z
-x,-y,-z
x,y,-z
-x,y,z
x,-y,z
1/2+x,1/2+y,1/2+z
1/2-x,1/2-y,1/2+z
1/2+x,1/2-y,1/2-z
1/2-x,1/2+y,1/2-z
1/2-x,1/2-y,1/2-z
1/2+x,1/2+y,1/2-z
1/2-x,1/2+y,1/2+z
1/2+x,1/2-y,1/2+z
loop_
_atom_site_type_symbol
_atom_site_label
_atom_site_fract_x
_atom_site_fract_y
_atom_site_fract_z
Si Si1 0.634733 0.327208 0.353037
Si Si2 0.671952 0.826432 0.000000
Si Si3 0.556021 0.673188 0.500000
Si Si4 0.785833 0.826619 0.000000
Si Si5 0.000000 0.673565 0.602148
Si Si6 0.108356 0.673347 0.671566
O O1 0.635015 0.500000 0.336061
O O2 0.585391 0.276783 0.410070
O O3 0.684636 0.276495 0.409253
O O4 0.633448 0.244943 0.258759
O O5 0.642006 0.771119 0.087761
O O6 0.729055 0.759775 0.000000
O O7 0.674218 0.000000 0.000000
O O8 0.552863 0.500000 0.500000
O O9 0.500000 0.745179 0.500000
O O10 0.784533 0.000000 0.000000
O O11 0.050186 0.727306 0.655853
O O12 0.000000 0.500000 0.595036
O O13 0.000000 0.737471 0.500000
O O14 0.110469 0.500000 0.681955
#
# Coordination Sequence:
#
# PCOD8288658 Si02
#       6
#    16   8   8   8   8  16
#     4   9  18  32  50  71  96 125 157 198 241 280
#     4   9  17  31  52  72  92 127 169 196 226 285
#     4   8  15  29  47  65  88 124 164 190 220 280
#     4   8  16  33  52  70  95 127 162 198 234 279
#     4   9  16  30  49  68  95 128 162 197 231 276
#     4  10  19  31  50  74  97 125 161 198 236 282
#
# _framework density 18.014303999999999
#
# number of rings (size 3 to 8) (size 9 to 14) (size 15 to 20)
#    0.000    3.000    1.250    1.500    1.750    1.000 
#    0.000    3.125    0.000    3.000    0.000    0.000 
#    0.000    0.000    0.000    0.000    0.000    0.000 
#
# Total GULP energy -396666.814663 kJ/mol
# GULP energy per Si atom -12395.837958 kJ/mol
# Density = 1.797330 g / cm^3
# Si number density = 18.014304 Si / 1000 Ang^3
#
#
#
# Elastic Constant Matrix: (Units=GPa)
#
#
# Indices 1 2 3 4 5 6 
#
# 1 178.5971 22.1700 85.4041 0.0000 0.0000 0.0000
# 2 22.1700 20.3689 32.5180 0.0000 0.0000 0.0000
# 3 85.4041 32.5180 173.0621 0.0000 0.0000 0.0000
# 4 0.0000 0.0000 0.0000 30.0661 0.0000 0.0000
# 5 0.0000 0.0000 0.0000 0.0000 16.4501 0.0000
# 6 0.0000 0.0000 0.0000 0.0000 0.0000 11.8170
#
#
#
# Elastic Compliance Matrix: (Units=1/GPa)
#
#
# Indices 1 2 3 4 5 6 
#
# 1 0.007473 -0.003209 -0.003085 0.000000 0.000000 0.000000
# 2 -0.003209 0.071510 -0.011853 0.000000 0.000000 0.000000
# 3 -0.003085 -0.011853 0.009528 0.000000 0.000000 0.000000
# 4 0.000000 0.000000 0.000000 0.033260 0.000000 0.000000
# 5 0.000000 0.000000 0.000000 0.000000 0.060790 0.000000
# 6 0.000000 0.000000 0.000000 0.000000 0.000000 0.084624
#
#
# Mechanical properties :
#
#
# Convention : Reuss Voigt Hill
#
# Bulk Modulus (GPa) = 19.15078 72.46803 45.80941
# Shear Modulus (GPa) = 15.58199 27.12902 21.35550
#
# Velocity S-wave (km/s) = 2.94424 3.88489 3.44681
# Velocity P-wave (km/s) = 4.71297 7.77423 6.42848
#
# Compressibility (1/GPa) = 0.05221719
#
# Stress axis : x y z
#
# Youngs Moduli (GPa) = 133.82205 13.98406 104.95689
#
# Poissons Ratio (x) = 0.04487 0.32376
# Poissons Ratio (y) = 0.42940 1.24406
# Poissons Ratio (z) = 0.41280 0.16575
#
# Static dielectric constant tensor:
#      x y z
#    x 3.907730 0.000000 0.000000 
#    y 0.000000 2.718970 0.000000 
#    z 0.000000 0.000000 3.325250 
# 
# 
# High freq. dielectric constant tensor:
#      x y z
#    x 1.710840 0.000000 0.000000 
#    y 0.000000 1.637080 0.000000 
#    z 0.000000 0.000000 1.704790 
# 
# From -- ./inp_files/19815.got.cif
#   From: 2010.06.25/outbox.cif.g09.slc.cpg/sg71_10_cif.got.tgz:19815.got - 2010.06.28 04:59:45.
