data_PCOD8288812
_publ_section_title
;
Structure prediction by ZEFSAII (Michael W. Deem and Ramdas Pophale) SiO2 
 PCOD8288812
Probable space group: I M M M
;
_chemical_formula_sum "Si O2"
_cell_formula_units_Z 96
_cell_length_a 27.551304
_cell_length_b 17.338567
_cell_length_c 10.909205
_cell_angle_alpha 90.000000
_cell_angle_beta 90.000000
_cell_angle_gamma 90.000000
_cell_volume 5211.328650
_symmetry_space_group_name_H-M "I M M M"
_symmetry_group_IT_number 71
_symmetry_cell_setting 'orthorhombic'
loop_
_space_group_symop_operation_xyz
x,y,z
-x,-y,z
x,-y,-z
-x,y,-z
-x,-y,-z
x,y,-z
-x,y,z
x,-y,z
1/2+x,1/2+y,1/2+z
1/2-x,1/2-y,1/2+z
1/2+x,1/2-y,1/2-z
1/2-x,1/2+y,1/2-z
1/2-x,1/2-y,1/2-z
1/2+x,1/2+y,1/2-z
1/2-x,1/2+y,1/2+z
1/2+x,1/2-y,1/2+z
loop_
_atom_site_type_symbol
_atom_site_label
_atom_site_fract_x
_atom_site_fract_y
_atom_site_fract_z
Si Si1 0.735019 0.811570 0.355676
Si Si2 0.500000 0.583074 0.860394
Si Si3 0.913096 0.836562 0.759867
Si Si4 0.852893 0.415422 0.143094
Si Si5 0.054335 0.909748 0.000000
Si Si6 0.055538 0.322022 0.857827
Si Si7 0.173873 0.086942 0.360436
O O1 0.733589 0.779833 0.500000
O O2 0.750000 0.750000 0.250000
O O3 0.683429 0.847664 0.312301
O O4 0.771498 0.883340 0.349932
O O5 0.500000 0.500000 0.788540
O O6 0.452297 0.630664 0.832893
O O7 0.500000 0.562918 0.000000
O O8 0.915589 0.881948 0.885511
O O9 0.924031 0.746866 0.775421
O O10 0.859415 0.851480 0.710060
O O11 0.843352 0.500000 0.204024
O O12 0.909094 0.393682 0.170268
O O13 0.843928 0.423462 0.000000
O O14 0.000000 0.872679 0.000000
O O15 0.050171 0.000000 0.000000
O O16 0.000000 0.343372 0.822514
O O17 0.058591 0.297060 0.000000
O O18 0.156280 0.084879 0.500000
O O19 0.170486 0.000000 0.305414
#
# Coordination Sequence:
#
# PCOD8288812 Si02
#       7
#    16   8  16  16   8  16  16
#     4  10  20  37  60  86 115 144 181 227 277 332
#     4  11  22  33  47  67  96 136 184 234 271 312
#     4  12  20  33  49  71 106 140 182 223 270 330
#     4   9  18  33  56  82 109 144 184 223 271 327
#     4  11  20  30  46  68  99 145 185 219 271 335
#     4  10  19  32  49  76 110 142 174 221 277 330
#     4  10  21  36  54  76 106 146 188 228 268 315
#
# _framework density 18.421406999999999
#
# number of rings (size 3 to 8) (size 9 to 14) (size 15 to 20)
#    0.000    1.667    2.500    3.500    0.000    3.667 
#    1.500    1.667    0.000    1.500    0.000    0.000 
#    0.000    0.667    0.000    0.000    0.000    0.000 
#
# Total GULP energy -594875.833168 kJ/mol
# GULP energy per Si atom -12393.246524 kJ/mol
# Density = 1.837948 g / cm^3
# Si number density = 18.421407 Si / 1000 Ang^3
#
#
#
# Elastic Constant Matrix: (Units=GPa)
#
#
# Indices 1 2 3 4 5 6 
#
# 1 117.1867 40.0586 25.1760 0.0000 0.0000 0.0000
# 2 40.0586 103.6229 31.5639 0.0000 0.0000 0.0000
# 3 25.1760 31.5639 61.7503 0.0000 0.0000 0.0000
# 4 0.0000 0.0000 0.0000 20.6956 0.0000 0.0000
# 5 0.0000 0.0000 0.0000 0.0000 20.2799 0.0000
# 6 0.0000 0.0000 0.0000 0.0000 0.0000 28.3700
#
#
#
# Elastic Compliance Matrix: (Units=1/GPa)
#
#
# Indices 1 2 3 4 5 6 
#
# 1 0.010155 -0.003156 -0.002527 0.000000 0.000000 0.000000
# 2 -0.003156 0.012411 -0.005057 0.000000 0.000000 0.000000
# 3 -0.002527 -0.005057 0.019810 0.000000 0.000000 0.000000
# 4 0.000000 0.000000 0.000000 0.048319 0.000000 0.000000
# 5 0.000000 0.000000 0.000000 0.000000 0.049310 0.000000
# 6 0.000000 0.000000 0.000000 0.000000 0.000000 0.035248
#
#
# Mechanical properties :
#
#
# Convention : Reuss Voigt Hill
#
# Bulk Modulus (GPa) = 47.85824 52.90632 50.38228
# Shear Modulus (GPa) = 24.54602 26.25319 25.39961
#
# Velocity S-wave (km/s) = 3.65427 3.77921 3.71726
# Velocity P-wave (km/s) = 6.62125 6.91560 6.77003
#
# Compressibility (1/GPa) = 0.02089504
#
# Stress axis : x y z
#
# Youngs Moduli (GPa) = 98.47226 80.57471 50.48075
#
# Poissons Ratio (x) = 0.25430 0.12757
# Poissons Ratio (y) = 0.31078 0.25529
# Poissons Ratio (z) = 0.24885 0.40748
#
# Static dielectric constant tensor:
#      x y z
#    x 3.581510 0.000000 0.000000 
#    y 0.000000 3.411810 0.000000 
#    z 0.000000 0.000000 3.220190 
# 
# 
# High freq. dielectric constant tensor:
#      x y z
#    x 1.727410 0.000000 0.000000 
#    y 0.000000 1.711950 0.000000 
#    z 0.000000 0.000000 1.680940 
# 
# From -- ./inp_files/28844.got.cif
#   From: 2010.06.25/outbox.cif.g09.slc.cpg/sg71_15_cif.got.tgz:28844.got - 2010.06.28 04:59:45.
