data_PCOD8288637
_publ_section_title
;
Structure prediction by ZEFSAII (Michael W. Deem and Ramdas Pophale) SiO2 
 PCOD8288637
Probable space group: I M M M
;
_chemical_formula_sum "Si O2"
_cell_formula_units_Z 104
_cell_length_a 9.463623
_cell_length_b 29.830893
_cell_length_c 20.302422
_cell_angle_alpha 90.000000
_cell_angle_beta 90.000000
_cell_angle_gamma 90.000000
_cell_volume 5731.542750
_symmetry_space_group_name_H-M "I M M M"
_symmetry_group_IT_number 71
_symmetry_cell_setting 'orthorhombic'
loop_
_space_group_symop_operation_xyz
x,y,z
-x,-y,z
x,-y,-z
-x,y,-z
-x,-y,-z
x,y,-z
-x,y,z
x,-y,z
1/2+x,1/2+y,1/2+z
1/2-x,1/2-y,1/2+z
1/2+x,1/2-y,1/2-z
1/2-x,1/2+y,1/2-z
1/2-x,1/2-y,1/2-z
1/2+x,1/2+y,1/2-z
1/2-x,1/2+y,1/2+z
1/2+x,1/2-y,1/2+z
loop_
_atom_site_type_symbol
_atom_site_label
_atom_site_fract_x
_atom_site_fract_y
_atom_site_fract_z
Si Si1 0.832408 0.790885 0.784077
Si Si2 0.656521 0.446337 0.500000
Si Si3 0.665150 0.051264 0.735552
Si Si4 0.157752 0.673948 0.925930
Si Si5 0.665291 0.630916 0.815808
Si Si6 0.654948 0.052596 0.116050
Si Si7 0.662434 0.720668 0.571072
O O1 0.750000 0.750000 0.750000
O O2 0.798553 0.836405 0.745081
O O3 0.776384 0.798928 0.859725
O O4 0.000000 0.779524 0.783228
O O5 0.652026 0.500000 0.500000
O O6 0.500000 0.426075 0.500000
O O7 0.734531 0.426746 0.564402
O O8 0.500000 0.061016 0.724883
O O9 0.758887 0.083197 0.690871
O O10 0.709400 0.061608 0.810625
O O11 0.700032 0.000000 0.717047
O O12 0.278817 0.651672 0.883036
O O13 0.182322 0.726549 0.923910
O O14 0.000000 0.662626 0.899048
O O15 0.173420 0.655651 0.000000
O O16 0.500000 0.622577 0.822377
O O17 0.500000 0.074217 0.104800
O O18 0.641794 0.000000 0.103498
O O19 0.731659 0.704471 0.500000
O O20 0.500000 0.707088 0.567351
#
# Coordination Sequence:
#
# PCOD8288637 Si02
#       7
#    16   8  16  16  16  16  16
#     4  10  19  31  49  76 108 140 175 212 254 307
#     4   9  15  21  35  63  93 117 143 185 247 309
#     4   9  19  36  56  74  93 128 179 226 266 313
#     4   9  17  31  53  78 102 136 181 218 248 296
#     4  11  22  32  49  80 113 141 167 210 274 325
#     4   8  14  26  44  64  84 111 152 200 246 293
#     4   8  14  27  49  73  98 135 180 217 246 286
#
# _framework density 18.145202000000001
#
# number of rings (size 3 to 8) (size 9 to 14) (size 15 to 20)
#    0.000    2.846    1.538    2.538    0.000    2.769 
#    0.000    1.538    1.692    0.923    0.000    3.231 
#    0.000    0.000    0.000    0.000    0.000    0.000 
#
# Total GULP energy -644328.565726 kJ/mol
# GULP energy per Si atom -12390.933956 kJ/mol
# Density = 1.810390 g / cm^3
# Si number density = 18.145202 Si / 1000 Ang^3
#
#
#
# Elastic Constant Matrix: (Units=GPa)
#
#
# Indices 1 2 3 4 5 6 
#
# 1 65.3924 29.2573 35.3015 0.0000 0.0000 0.0000
# 2 29.2573 47.9581 31.6675 0.0000 0.0000 0.0000
# 3 35.3015 31.6675 112.6137 -0.0003 -0.0002 0.0000
# 4 0.0000 0.0000 -0.0003 34.5735 0.0000 0.0000
# 5 0.0000 0.0000 -0.0002 0.0000 24.3388 0.0000
# 6 0.0000 0.0000 0.0000 0.0000 0.0000 19.0357
#
#
#
# Elastic Compliance Matrix: (Units=1/GPa)
#
#
# Indices 1 2 3 4 5 6 
#
# 1 0.022342 -0.011059 -0.003894 0.000000 0.000000 0.000000
# 2 -0.011059 0.031080 -0.005273 0.000000 0.000000 0.000000
# 3 -0.003894 -0.005273 0.011583 0.000000 0.000000 0.000000
# 4 0.000000 0.000000 0.000000 0.028924 0.000000 0.000000
# 5 0.000000 0.000000 0.000000 0.000000 0.041087 0.000000
# 6 0.000000 0.000000 0.000000 0.000000 0.000000 0.052533
#
#
# Mechanical properties :
#
#
# Convention : Reuss Voigt Hill
#
# Bulk Modulus (GPa) = 40.72694 46.49075 43.60884
# Shear Modulus (GPa) = 21.16978 24.23879 22.70428
#
# Velocity S-wave (km/s) = 3.41939 3.65886 3.54115
# Velocity P-wave (km/s) = 6.17117 6.59748 6.38788
#
# Compressibility (1/GPa) = 0.02455377
#
# Stress axis : x y z
#
# Youngs Moduli (GPa) = 44.75821 32.17492 86.33039
#
# Poissons Ratio (x) = 0.35582 0.33616
# Poissons Ratio (y) = 0.49498 0.45524
# Poissons Ratio (z) = 0.17428 0.16966
#
# Static dielectric constant tensor:
#      x y z
#    x 3.328150 0.000000 0.000000 
#    y 0.000000 2.952360 0.000000 
#    z 0.000000 0.000000 3.656830 
# 
# 
# High freq. dielectric constant tensor:
#      x y z
#    x 1.686400 0.000000 0.000000 
#    y 0.000000 1.665830 0.000000 
#    z 0.000000 0.000000 1.709850 
# 
# From -- ./inp_files/50893.got.cif
#   From: 2010.06.25/outbox.cif.g09.slc.cpg/sg71_26_cif.got.tgz:50893.got - 2010.06.28 04:59:45.
