data_PCOD8288684
_publ_section_title
;
Structure prediction by ZEFSAII (Michael W. Deem and Ramdas Pophale) SiO2 
 PCOD8288684
Probable space group: I M M M
;
_chemical_formula_sum "Si O2"
_cell_formula_units_Z 104
_cell_length_a 20.351124
_cell_length_b 9.343128
_cell_length_c 28.678931
_cell_angle_alpha 90.000000
_cell_angle_beta 90.000000
_cell_angle_gamma 90.000000
_cell_volume 5453.102465
_symmetry_space_group_name_H-M "I M M M"
_symmetry_group_IT_number 71
_symmetry_cell_setting 'orthorhombic'
loop_
_space_group_symop_operation_xyz
x,y,z
-x,-y,z
x,-y,-z
-x,y,-z
-x,-y,-z
x,y,-z
-x,y,z
x,-y,z
1/2+x,1/2+y,1/2+z
1/2-x,1/2-y,1/2+z
1/2+x,1/2-y,1/2-z
1/2-x,1/2+y,1/2-z
1/2-x,1/2-y,1/2-z
1/2+x,1/2+y,1/2-z
1/2-x,1/2+y,1/2+z
1/2+x,1/2-y,1/2+z
loop_
_atom_site_type_symbol
_atom_site_label
_atom_site_fract_x
_atom_site_fract_y
_atom_site_fract_z
Si Si1 0.874373 0.836423 0.816509
Si Si2 0.000000 0.158358 0.944263
Si Si3 0.769780 0.662688 0.650804
Si Si4 0.872758 0.832732 0.291859
Si Si5 0.383002 0.156443 0.553398
Si Si6 0.000000 0.662827 0.708138
Si Si7 0.755722 0.160773 0.050831
Si Si8 0.000000 0.338629 0.181006
O O1 0.807995 0.801898 0.845049
O O2 0.860127 0.803417 0.762380
O O3 0.933646 0.739703 0.836399
O O4 0.896334 0.000000 0.822565
O O5 0.063013 0.240694 0.923235
O O6 0.000000 0.000000 0.922785
O O7 0.000000 0.149110 0.000000
O O8 0.783150 0.500000 0.668389
O O9 0.809375 0.775596 0.681038
O O10 0.791235 0.678685 0.596036
O O11 0.936037 0.746312 0.310510
O O12 0.882689 0.000000 0.302563
O O13 0.403796 0.137736 0.500000
O O14 0.311993 0.224209 0.557031
O O15 0.382713 0.000000 0.577701
O O16 0.000000 0.500000 0.688943
O O17 0.000000 0.665104 0.763459
O O18 0.785951 0.000000 0.051881
O O19 0.720241 0.184726 0.000000
O O20 0.000000 0.500000 0.161721
#
# Coordination Sequence:
#
# PCOD8288684 Si02
#       8
#    16   8  16  16  16   8  16   8
#     4   9  18  32  49  71 102 137 169 203 245 294
#     4   9  15  23  38  59  80 103 136 181 234 291
#     4  10  20  33  50  73 100 132 169 207 250 297
#     4  10  19  31  50  77 107 135 163 198 241 291
#     4   9  16  26  41  60  81 105 137 183 238 289
#     4   9  17  31  51  74 103 137 168 196 232 287
#     4   9  18  33  50  66  87 119 161 206 248 292
#     4   9  17  29  48  72  98 133 173 209 245 288
#
# _framework density 19.071712999999999
#
# number of rings (size 3 to 8) (size 9 to 14) (size 15 to 20)
#    0.000    2.692    0.000    2.077    0.000    6.462 
#    0.000    0.769    0.000    1.846    0.000    0.538 
#    0.000    4.308    0.000    0.000    0.000    0.000 
#
# Total GULP energy -644520.706979 kJ/mol
# GULP energy per Si atom -12394.628980 kJ/mol
# Density = 1.902831 g / cm^3
# Si number density = 19.071713 Si / 1000 Ang^3
#
#
#
# Elastic Constant Matrix: (Units=GPa)
#
#
# Indices 1 2 3 4 5 6 
#
# 1 64.3402 36.8176 23.0066 0.0000 0.0000 0.0000
# 2 36.8176 130.8355 34.8949 0.0000 0.0000 0.0000
# 3 23.0066 34.8949 75.3516 0.0000 0.0000 0.0000
# 4 0.0000 0.0000 0.0000 15.2012 0.0000 0.0000
# 5 0.0000 0.0000 0.0000 0.0000 -0.4768 0.0000
# 6 0.0000 0.0000 0.0000 0.0000 0.0000 36.1932
#
#
#
# Elastic Compliance Matrix: (Units=1/GPa)
#
#
# Indices 1 2 3 4 5 6 
#
# 1 0.019476 -0.004443 -0.003889 0.000000 0.000000 0.000000
# 2 -0.004443 0.009734 -0.003151 0.000000 0.000000 0.000000
# 3 -0.003889 -0.003151 0.015918 0.000000 0.000000 0.000000
# 4 0.000000 0.000000 0.000000 0.065784 0.000000 0.000000
# 5 0.000000 0.000000 0.000000 0.000000 -2.097316 0.000000
# 6 0.000000 0.000000 0.000000 0.000000 0.000000 0.027630
#
#
# Mechanical properties :
#
#
# Convention : Reuss Voigt Hill
#
# Bulk Modulus (GPa) = 45.12435 51.10728 48.11582
# Shear Modulus (GPa) = -2.59279 21.90405 9.65563
#
# Velocity S-wave (km/s) = -1.16724 3.39264 2.25251
# Velocity P-wave (km/s) = 4.67922 6.49633 5.66116
#
# Compressibility (1/GPa) = 0.02216098
#
# Stress axis : x y z
#
# Youngs Moduli (GPa) = 51.34656 102.73285 62.82330
#
# Poissons Ratio (x) = 0.45648 0.24430
# Poissons Ratio (y) = 0.22815 0.19796
# Poissons Ratio (z) = 0.19967 0.32372
#
# Static dielectric constant tensor:
#      x y z
#    x 3.147830 0.000000 0.000000 
#    y 0.000000 3.681740 0.000000 
#    z 0.000000 0.000000 3.449290 
# 
# 
# High freq. dielectric constant tensor:
#      x y z
#    x 1.700530 0.000000 0.000000 
#    y 0.000000 1.753900 0.000000 
#    z 0.000000 0.000000 1.730750 
# 
# From -- ./inp_files/70815.got.cif
#   From: 2010.06.25/outbox.cif.g09.slc.cpg/sg71_36_cif.got.tgz:70815.got - 2010.06.28 04:59:45.
