data_PCOD8288782
_publ_section_title
;
Structure prediction by ZEFSAII (Michael W. Deem and Ramdas Pophale) SiO2 
 PCOD8288782
Probable space group: I M M M
;
_chemical_formula_sum "Si O2"
_cell_formula_units_Z 80
_cell_length_a 13.502802
_cell_length_b 12.669791
_cell_length_c 27.847820
_cell_angle_alpha 90.000000
_cell_angle_beta 90.000000
_cell_angle_gamma 90.000000
_cell_volume 4764.140418
_symmetry_space_group_name_H-M "I M M M"
_symmetry_group_IT_number 71
_symmetry_cell_setting 'orthorhombic'
loop_
_space_group_symop_operation_xyz
x,y,z
-x,-y,z
x,-y,-z
-x,y,-z
-x,-y,-z
x,y,-z
-x,y,z
x,-y,z
1/2+x,1/2+y,1/2+z
1/2-x,1/2-y,1/2+z
1/2+x,1/2-y,1/2-z
1/2-x,1/2+y,1/2-z
1/2-x,1/2-y,1/2-z
1/2+x,1/2+y,1/2-z
1/2-x,1/2+y,1/2+z
1/2+x,1/2-y,1/2+z
loop_
_atom_site_type_symbol
_atom_site_label
_atom_site_fract_x
_atom_site_fract_y
_atom_site_fract_z
Si Si1 0.386640 0.500000 0.710171
Si Si2 0.115878 0.785541 0.632989
Si Si3 0.385932 0.880514 0.633724
Si Si4 0.771776 0.878340 0.445308
Si Si5 0.388215 0.500000 0.823141
Si Si6 0.777073 0.784921 0.196268
O O1 0.500000 0.500000 0.691700
O O2 0.383047 0.500000 0.766897
O O3 0.331542 0.396315 0.692022
O O4 0.144258 0.798977 0.576927
O O5 0.160593 0.894387 0.656035
O O6 0.178216 0.699537 0.663005
O O7 0.000000 0.763649 0.640500
O O8 0.500000 0.858418 0.622538
O O9 0.329867 0.860585 0.583439
O O10 0.350615 0.802891 0.675517
O O11 0.368674 0.000000 0.652234
O O12 0.754339 0.843661 0.500000
O O13 0.808235 0.000000 0.442424
O O14 0.500000 0.500000 0.842484
O O15 0.750000 0.750000 0.250000
#
# Coordination Sequence:
#
# PCOD8288782 Si02
#       6
#     8  16  16  16   8  16
#     4  11  22  36  53  74 100 138 181 218 253 301
#     4  10  19  32  48  70 103 139 171 205 252 304
#     4   9  19  34  51  73 103 137 172 214 264 310
#     4   9  17  28  46  74 104 135 170 206 251 312
#     4   9  16  28  47  69  96 134 168 196 247 303
#     4  11  22  32  53  73 103 135 178 213 255 298
#
# _framework density 16.792117000000001
#
# number of rings (size 3 to 8) (size 9 to 14) (size 15 to 20)
#    0.000    2.200    3.000    0.600    2.800    1.600 
#    0.000    3.500    0.000    0.000    0.000   11.200 
#    0.000   25.600    0.000    0.000    0.000    0.000 
#
# Total GULP energy -495826.298269 kJ/mol
# GULP energy per Si atom -12395.657457 kJ/mol
# Density = 1.675390 g / cm^3
# Si number density = 16.792117 Si / 1000 Ang^3
#
#
#
# Elastic Constant Matrix: (Units=GPa)
#
#
# Indices 1 2 3 4 5 6 
#
# 1 114.4721 55.0890 49.2673 0.0000 0.0000 0.0000
# 2 55.0890 84.9751 43.7836 0.0000 0.0000 0.0000
# 3 49.2673 43.7836 113.8298 0.0000 0.0000 0.0000
# 4 0.0000 0.0000 0.0000 14.4021 0.0000 0.0000
# 5 0.0000 0.0000 0.0000 0.0000 19.0805 0.0000
# 6 0.0000 0.0000 0.0000 0.0000 0.0000 27.5336
#
#
#
# Elastic Compliance Matrix: (Units=1/GPa)
#
#
# Indices 1 2 3 4 5 6 
#
# 1 0.013517 -0.007170 -0.003093 0.000000 0.000000 0.000000
# 2 -0.007170 0.018480 -0.004005 0.000000 0.000000 0.000000
# 3 -0.003093 -0.004005 0.011664 0.000000 0.000000 0.000000
# 4 0.000000 0.000000 0.000000 0.069434 0.000000 0.000000
# 5 0.000000 0.000000 0.000000 0.000000 0.052410 0.000000
# 6 0.000000 0.000000 0.000000 0.000000 0.000000 0.036319
#
#
# Mechanical properties :
#
#
# Convention : Reuss Voigt Hill
#
# Bulk Modulus (GPa) = 66.10931 67.72852 66.91891
# Shear Modulus (GPa) = 21.24037 23.21237 22.22637
#
# Velocity S-wave (km/s) = 3.56040 3.72201 3.64211
# Velocity P-wave (km/s) = 7.50711 7.67413 7.59108
#
# Compressibility (1/GPa) = 0.01512646
#
# Stress axis : x y z
#
# Youngs Moduli (GPa) = 73.98025 54.11343 85.73319
#
# Poissons Ratio (x) = 0.38797 0.26515
# Poissons Ratio (y) = 0.53041 0.34336
# Poissons Ratio (z) = 0.22880 0.21672
#
# Static dielectric constant tensor:
#      x y z
#    x 3.305910 0.000000 0.000000 
#    y 0.000000 2.983730 0.000000 
#    z 0.000000 0.000000 3.138450 
# 
# 
# High freq. dielectric constant tensor:
#      x y z
#    x 1.661150 0.000000 0.000000 
#    y 0.000000 1.613710 0.000000 
#    z 0.000000 0.000000 1.639510 
# 
# From -- ./inp_files/28538.got.cif
#   From: 2010.06.25/outbox.cif.g09.slc.cpg/sg71_15_cif.got.tgz:28538.got - 2010.06.28 04:59:45.
