data_PCOD8288296
_publ_section_title
;
Structure prediction by ZEFSAII (Michael W. Deem and Ramdas Pophale) SiO2 
 PCOD8288296
Probable space group: I M M M
;
_chemical_formula_sum "Si O2"
_cell_formula_units_Z 96
_cell_length_a 17.638664
_cell_length_b 13.672464
_cell_length_c 24.317860
_cell_angle_alpha 90.000000
_cell_angle_beta 90.000000
_cell_angle_gamma 90.000000
_cell_volume 5864.592354
_symmetry_space_group_name_H-M "I M M M"
_symmetry_group_IT_number 71
_symmetry_cell_setting 'orthorhombic'
loop_
_space_group_symop_operation_xyz
x,y,z
-x,-y,z
x,-y,-z
-x,y,-z
-x,-y,-z
x,y,-z
-x,y,z
x,-y,z
1/2+x,1/2+y,1/2+z
1/2-x,1/2-y,1/2+z
1/2+x,1/2-y,1/2-z
1/2-x,1/2+y,1/2-z
1/2-x,1/2-y,1/2-z
1/2+x,1/2+y,1/2-z
1/2-x,1/2+y,1/2+z
1/2+x,1/2-y,1/2+z
loop_
_atom_site_type_symbol
_atom_site_label
_atom_site_fract_x
_atom_site_fract_y
_atom_site_fract_z
Si Si1 0.176827 0.110101 0.823830
Si Si2 0.304502 0.388911 0.558748
Si Si3 0.586963 0.288863 0.231107
Si Si4 0.648135 0.208367 0.939549
Si Si5 0.411066 0.388373 0.881622
Si Si6 0.643233 0.889222 0.170038
O O1 0.145272 0.129421 0.886406
O O2 0.138154 0.186249 0.783428
O O3 0.266866 0.127088 0.825198
O O4 0.156945 0.000000 0.804750
O O5 0.349640 0.379780 0.500000
O O6 0.270579 0.500000 0.564052
O O7 0.237454 0.310543 0.557370
O O8 0.500000 0.304741 0.247647
O O9 0.610592 0.358404 0.180537
O O10 0.601453 0.176191 0.215531
O O11 0.634568 0.322171 0.924908
O O12 0.613015 0.141434 0.890891
O O13 0.612033 0.185736 0.000000
O O14 0.500000 0.372320 0.891477
O O15 0.386688 0.500000 0.891328
O O16 0.619389 0.000000 0.181598
#
# Coordination Sequence:
#
# PCOD8288296 Si02
#       6
#    16  16  16  16  16  16
#     4   9  16  27  46  68  88 114 146 176 208 252
#     4   8  14  26  45  67  88 109 134 168 211 255
#     4  10  19  30  45  64  88 117 147 179 215 258
#     4   9  16  26  42  62  81 105 140 178 215 255
#     4   9  18  30  40  53  79 114 147 178 212 249
#     4   9  18  31  46  65  88 113 142 180 222 258
#
# _framework density 16.369425
#
# number of rings (size 3 to 8) (size 9 to 14) (size 15 to 20)
#    0.000    3.000    0.000    2.500    0.000    3.000 
#    0.000    0.833    0.000    2.000    0.000   11.667 
#    0.000    0.000    0.000    1.500    0.000    0.000 
#
# Total GULP energy -594745.426437 kJ/mol
# GULP energy per Si atom -12390.529717 kJ/mol
# Density = 1.633217 g / cm^3
# Si number density = 16.369425 Si / 1000 Ang^3
#
#
#
# Elastic Constant Matrix: (Units=GPa)
#
#
# Indices 1 2 3 4 5 6 
#
# 1 26.5547 26.2331 30.6610 0.0000 0.0000 0.0000
# 2 26.2331 109.2898 55.7833 0.0000 0.0000 0.0000
# 3 30.6610 55.7833 129.4192 0.0000 0.0000 0.0000
# 4 0.0000 0.0000 0.0000 19.5242 0.0000 0.0000
# 5 0.0000 0.0000 0.0000 0.0000 12.6322 0.0000
# 6 0.0000 0.0000 0.0000 0.0000 0.0000 13.2202
#
#
#
# Elastic Compliance Matrix: (Units=1/GPa)
#
#
# Indices 1 2 3 4 5 6 
#
# 1 0.057794 -0.008825 -0.009888 0.000000 0.000000 0.000000
# 2 -0.008825 0.013078 -0.003546 0.000000 0.000000 0.000000
# 3 -0.009888 -0.003546 0.011598 0.000000 0.000000 0.000000
# 4 0.000000 0.000000 0.000000 0.051218 0.000000 0.000000
# 5 0.000000 0.000000 0.000000 0.000000 0.079163 0.000000
# 6 0.000000 0.000000 0.000000 0.000000 0.000000 0.075642
#
#
# Mechanical properties :
#
#
# Convention : Reuss Voigt Hill
#
# Bulk Modulus (GPa) = 26.35000 54.51317 40.43158
# Shear Modulus (GPa) = 14.46494 19.24773 16.85633
#
# Velocity S-wave (km/s) = 2.97586 3.43276 3.21245
# Velocity P-wave (km/s) = 5.28580 7.00614 6.20587
#
# Compressibility (1/GPa) = 0.03795067
#
# Stress axis : x y z
#
# Youngs Moduli (GPa) = 17.30292 76.46159 86.22164
#
# Poissons Ratio (x) = 0.67480 0.85257
# Poissons Ratio (y) = 0.15270 0.30577
# Poissons Ratio (z) = 0.17109 0.27116
#
# Static dielectric constant tensor:
#      x y z
#    x 2.647150 0.000000 0.000000 
#    y 0.000000 3.081080 0.000000 
#    z 0.000000 0.000000 3.374730 
# 
# 
# High freq. dielectric constant tensor:
#      x y z
#    x 1.579230 0.000000 0.000000 
#    y 0.000000 1.624450 0.000000 
#    z 0.000000 0.000000 1.641790 
# 
# From -- ./inp_files/24220.got.cif
#   From: 2010.06.25/outbox.cif.g09.slc.cpg/sg71_13_cif.got.tgz:24220.got - 2010.06.28 04:59:45.
