data_PCOD8288894
_publ_section_title
;
Structure prediction by ZEFSAII (Michael W. Deem and Ramdas Pophale) SiO2 
 PCOD8288894
Probable space group: I M M M
;
_chemical_formula_sum "Si O2"
_cell_formula_units_Z 72
_cell_length_a 8.650741
_cell_length_b 15.637211
_cell_length_c 27.056423
_cell_angle_alpha 90.000000
_cell_angle_beta 90.000000
_cell_angle_gamma 90.000000
_cell_volume 3660.016017
_symmetry_space_group_name_H-M "I M M M"
_symmetry_group_IT_number 71
_symmetry_cell_setting 'orthorhombic'
loop_
_space_group_symop_operation_xyz
x,y,z
-x,-y,z
x,-y,-z
-x,y,-z
-x,-y,-z
x,y,-z
-x,y,z
x,-y,z
1/2+x,1/2+y,1/2+z
1/2-x,1/2-y,1/2+z
1/2+x,1/2-y,1/2-z
1/2-x,1/2+y,1/2-z
1/2-x,1/2-y,1/2-z
1/2+x,1/2+y,1/2-z
1/2-x,1/2+y,1/2+z
1/2+x,1/2-y,1/2+z
loop_
_atom_site_type_symbol
_atom_site_label
_atom_site_fract_x
_atom_site_fract_y
_atom_site_fract_z
Si Si1 0.816076 0.000000 0.224327
Si Si2 0.184464 0.000000 0.887201
Si Si3 0.816176 0.165569 0.944494
Si Si4 0.816543 0.667062 0.113443
Si Si5 0.317241 0.669538 0.221814
Si Si6 0.683473 0.000000 0.555453
O O1 0.751095 0.000000 0.168538
O O2 0.753010 0.916306 0.252312
O O3 0.000000 0.000000 0.223723
O O4 0.248620 0.916300 0.915064
O O5 0.000000 0.000000 0.887151
O O6 0.760075 0.251152 0.917433
O O7 0.000000 0.162802 0.946180
O O8 0.748855 0.164456 0.000000
O O9 0.734728 0.669805 0.165678
O O10 0.758194 0.583591 0.084273
O O11 0.000000 0.666928 0.121170
O O12 0.500000 0.673366 0.225193
O O13 0.250000 0.750000 0.250000
O O14 0.500000 0.000000 0.552411
O O15 0.752703 0.000000 0.500000
#
# Coordination Sequence:
#
# PCOD8288894 Si02
#       6
#     8   8  16  16  16   8
#     4   9  19  34  52  75 104 137 170 212 263 311
#     4   9  15  25  42  66  96 125 158 201 248 295
#     4   9  16  26  44  71 100 129 162 202 247 296
#     4  10  19  32  51  75 104 136 172 214 260 309
#     4  11  22  37  56  78 106 139 177 219 266 319
#     4   9  17  30  51  79 108 139 178 223 267 313
#
# _framework density 19.672044
#
# number of rings (size 3 to 8) (size 9 to 14) (size 15 to 20)
#    0.000    2.333    0.000    3.667    0.000    7.556 
#    0.000    1.667    0.000    3.333    0.000    0.000 
#    0.000    3.556    0.000    0.000    0.000    0.000 
#
# Total GULP energy -446448.408852 kJ/mol
# GULP energy per Si atom -12401.344690 kJ/mol
# Density = 1.962727 g / cm^3
# Si number density = 19.672044 Si / 1000 Ang^3
#
#
#
# Elastic Constant Matrix: (Units=GPa)
#
#
# Indices 1 2 3 4 5 6 
#
# 1 24.6751 23.8607 23.2955 0.0000 0.0000 0.0000
# 2 23.8607 218.6432 111.8352 0.0000 0.0000 0.0000
# 3 23.2955 111.8352 205.4206 0.0000 0.0000 0.0000
# 4 0.0000 0.0000 0.0000 46.8912 0.0000 0.0000
# 5 0.0000 0.0000 0.0000 0.0000 27.2786 0.0000
# 6 0.0000 0.0000 0.0000 0.0000 0.0000 12.2643
#
#
#
# Elastic Compliance Matrix: (Units=1/GPa)
#
#
# Indices 1 2 3 4 5 6 
#
# 1 0.047078 -0.003336 -0.003523 0.000000 0.000000 0.000000
# 2 -0.003336 0.006575 -0.003201 0.000000 0.000000 0.000000
# 3 -0.003523 -0.003201 0.007010 0.000000 0.000000 0.000000
# 4 0.000000 0.000000 0.000000 0.021326 0.000000 0.000000
# 5 0.000000 0.000000 0.000000 0.000000 0.036659 0.000000
# 6 0.000000 0.000000 0.000000 0.000000 0.000000 0.081538
#
#
# Mechanical properties :
#
#
# Convention : Reuss Voigt Hill
#
# Bulk Modulus (GPa) = 24.66463 85.19132 54.92797
# Shear Modulus (GPa) = 21.38390 36.60332 28.99361
#
# Velocity S-wave (km/s) = 3.30058 4.31824 3.84324
# Velocity P-wave (km/s) = 5.20482 8.26212 6.90481
#
# Compressibility (1/GPa) = 0.04054388
#
# Stress axis : x y z
#
# Youngs Moduli (GPa) = 21.24129 152.08688 142.64420
#
# Poissons Ratio (x) = 0.50733 0.50250
# Poissons Ratio (y) = 0.07086 0.45666
# Poissons Ratio (z) = 0.07483 0.48689
#
# Static dielectric constant tensor:
#      x y z
#    x 2.969430 0.000000 0.000000 
#    y 0.000000 4.118280 0.000000 
#    z 0.000000 0.000000 3.707610 
# 
# 
# High freq. dielectric constant tensor:
#      x y z
#    x 1.702600 0.000000 0.000000 
#    y 0.000000 1.789740 0.000000 
#    z 0.000000 0.000000 1.788490 
# 
# From -- ./inp_files/6187.got.cif
#   From: 2010.06.25/outbox.cif.g09.slc.cpg/sg71_4_cif.got.tgz:6187.got - 2010.06.28 04:59:45.
