data_PCOD8288101
_publ_section_title
;
Structure prediction by ZEFSAII (Michael W. Deem and Ramdas Pophale) SiO2 
 PCOD8288101
Probable space group: I M M M
;
_chemical_formula_sum "Si O2"
_cell_formula_units_Z 80
_cell_length_a 22.217145
_cell_length_b 29.239052
_cell_length_c 9.162370
_cell_angle_alpha 90.000000
_cell_angle_beta 90.000000
_cell_angle_gamma 90.000000
_cell_volume 5951.951214
_symmetry_space_group_name_H-M "I M M M"
_symmetry_group_IT_number 71
_symmetry_cell_setting 'orthorhombic'
loop_
_space_group_symop_operation_xyz
x,y,z
-x,-y,z
x,-y,-z
-x,y,-z
-x,-y,-z
x,y,-z
-x,y,z
x,-y,z
1/2+x,1/2+y,1/2+z
1/2-x,1/2-y,1/2+z
1/2+x,1/2-y,1/2-z
1/2-x,1/2+y,1/2-z
1/2-x,1/2-y,1/2-z
1/2+x,1/2+y,1/2-z
1/2-x,1/2+y,1/2+z
1/2+x,1/2-y,1/2+z
loop_
_atom_site_type_symbol
_atom_site_label
_atom_site_fract_x
_atom_site_fract_y
_atom_site_fract_z
Si Si1 0.873432 0.366766 0.172656
Si Si2 0.069950 0.282964 0.667898
Si Si3 0.163040 0.771585 0.837493
Si Si4 0.743377 0.818437 0.661256
Si Si5 0.930452 0.447507 0.332357
O O1 0.916688 0.330508 0.251345
O O2 0.803326 0.357629 0.213194
O O3 0.889346 0.417326 0.226599
O O4 0.883610 0.361970 0.000000
O O5 0.090270 0.287698 0.500000
O O6 0.105104 0.240486 0.740193
O O7 0.000000 0.271690 0.681523
O O8 0.199659 0.814414 0.769006
O O9 0.206495 0.728394 0.842931
O O10 0.142000 0.785317 0.000000
O O11 0.768341 0.829554 0.500000
O O12 0.918530 0.433879 0.500000
O O13 0.912815 0.500000 0.305004
O O14 0.000000 0.439252 0.293165
#
# Coordination Sequence:
#
# PCOD8288101 Si02
#       5
#    16  16  16  16  16
#     4  10  19  28  40  57  73  91 119 156 191 219
#     4  10  19  28  38  52  72  99 125 149 182 221
#     4   9  16  25  38  54  70  90 117 149 181 211
#     4   8  15  26  37  51  71  92 114 143 181 221
#     4   9  18  31  43  54  71  96 123 151 187 229
#
# _framework density 13.44097
#
# number of rings (size 3 to 8) (size 9 to 14) (size 15 to 20)
#    0.000    2.800    0.000    4.200    0.000   10.400 
#    0.000    1.000    0.000    0.000    0.000    0.000 
#    0.000    0.000    0.000    0.000    0.000    1.000 
#
# Total GULP energy -495885.339685 kJ/mol
# GULP energy per Si atom -12397.133492 kJ/mol
# Density = 1.341038 g / cm^3
# Si number density = 13.440970 Si / 1000 Ang^3
#
#
#
# Elastic Constant Matrix: (Units=GPa)
#
#
# Indices 1 2 3 4 5 6 
#
# 1 61.1975 39.6625 49.2245 0.0000 0.0000 0.0000
# 2 39.6625 52.4578 38.2714 0.0000 0.0000 0.0000
# 3 49.2245 38.2714 100.0301 0.0000 0.0000 0.0000
# 4 0.0000 0.0000 0.0000 19.9698 0.0000 0.0000
# 5 0.0000 0.0000 0.0000 0.0000 22.5995 0.0000
# 6 0.0000 0.0000 0.0000 0.0000 0.0000 23.3866
#
#
#
# Elastic Compliance Matrix: (Units=1/GPa)
#
#
# Indices 1 2 3 4 5 6 
#
# 1 0.039214 -0.021600 -0.011033 0.000000 0.000000 0.000000
# 2 -0.021600 0.038342 -0.004040 0.000000 0.000000 0.000000
# 3 -0.011033 -0.004040 0.016972 0.000000 0.000000 0.000000
# 4 0.000000 0.000000 0.000000 0.050075 0.000000 0.000000
# 5 0.000000 0.000000 0.000000 0.000000 0.044249 0.000000
# 6 0.000000 0.000000 0.000000 0.000000 0.000000 0.042759
#
#
# Mechanical properties :
#
#
# Convention : Reuss Voigt Hill
#
# Bulk Modulus (GPa) = 47.21061 52.00026 49.60543
# Shear Modulus (GPa) = 16.02469 18.95966 17.49218
#
# Velocity S-wave (km/s) = 3.45661 3.75985 3.61142
# Velocity P-wave (km/s) = 7.15063 7.59082 7.37401
#
# Compressibility (1/GPa) = 0.02118168
#
# Stress axis : x y z
#
# Youngs Moduli (GPa) = 25.50116 26.08118 58.91995
#
# Poissons Ratio (x) = 0.56334 0.65007
# Poissons Ratio (y) = 0.55082 0.23806
# Poissons Ratio (z) = 0.28136 0.10538
#
# Static dielectric constant tensor:
#      x y z
#    x 2.632210 0.000000 0.000000 
#    y 0.000000 2.438770 0.000000 
#    z 0.000000 0.000000 2.889370 
# 
# 
# High freq. dielectric constant tensor:
#      x y z
#    x 1.492790 0.000000 0.000000 
#    y 0.000000 1.466090 0.000000 
#    z 0.000000 0.000000 1.529350 
# 
# From -- ./inp_files/11235.got.cif
#   From: 2010.06.25/outbox.cif.g09.slc.cpg/sg71_6_cif.got.tgz:11235.got - 2010.06.28 04:59:45.
