data_PCOD8288131
_publ_section_title
;
Structure prediction by ZEFSAII (Michael W. Deem and Ramdas Pophale) SiO2 
 PCOD8288131
Probable space group: I M M M
;
_chemical_formula_sum "Si O2"
_cell_formula_units_Z 112
_cell_length_a 14.992772
_cell_length_b 14.334227
_cell_length_c 29.874242
_cell_angle_alpha 90.000000
_cell_angle_beta 90.000000
_cell_angle_gamma 90.000000
_cell_volume 6420.267290
_symmetry_space_group_name_H-M "I M M M"
_symmetry_group_IT_number 71
_symmetry_cell_setting 'orthorhombic'
loop_
_space_group_symop_operation_xyz
x,y,z
-x,-y,z
x,-y,-z
-x,y,-z
-x,-y,-z
x,y,-z
-x,y,z
x,-y,z
1/2+x,1/2+y,1/2+z
1/2-x,1/2-y,1/2+z
1/2+x,1/2-y,1/2-z
1/2-x,1/2+y,1/2-z
1/2-x,1/2-y,1/2-z
1/2+x,1/2+y,1/2-z
1/2-x,1/2+y,1/2+z
1/2+x,1/2-y,1/2+z
loop_
_atom_site_type_symbol
_atom_site_label
_atom_site_fract_x
_atom_site_fract_y
_atom_site_fract_z
Si Si1 0.398099 0.897365 0.259871
Si Si2 0.821992 0.603934 0.670128
Si Si3 0.900781 0.719330 0.156973
Si Si4 0.787778 0.785089 0.622859
Si Si5 0.127991 0.103273 0.794754
Si Si6 0.602231 0.393050 0.052263
Si Si7 0.599990 0.608570 0.194376
O O1 0.500000 0.907243 0.272303
O O2 0.390936 0.860830 0.208440
O O3 0.360385 0.829481 0.298248
O O4 0.351779 0.000000 0.263139
O O5 0.845806 0.500000 0.651299
O O6 0.815838 0.676070 0.628792
O O7 0.732784 0.600650 0.698965
O O8 0.821017 0.705276 0.120615
O O9 0.914533 0.828257 0.168491
O O10 0.000000 0.683210 0.140693
O O11 0.829649 0.824493 0.577325
O O12 0.827121 0.839420 0.664981
O O13 0.106219 0.142811 0.745530
O O14 0.086218 0.000000 0.801117
O O15 0.500000 0.366930 0.063930
O O16 0.620526 0.500000 0.066761
O O17 0.620159 0.380328 0.000000
O O18 0.500000 0.628282 0.176075
O O19 0.623050 0.500000 0.191741
#
# Coordination Sequence:
#
# PCOD8288131 Si02
#       7
#    16  16  16  16  16  16  16
#     4   9  17  28  39  53  84 131 170 197 228 266
#     4   9  18  30  42  61  90 125 167 203 228 263
#     4  10  20  31  43  63  91 125 167 203 228 263
#     4  11  20  30  49  71  92 121 153 192 239 277
#     4   9  17  29  43  59  87 127 164 201 243 277
#     4   9  19  37  60  83 102 117 136 169 222 289
#     4  10  19  28  42  68  96 120 153 199 246 285
#
# _framework density 17.444756000000002
#
# number of rings (size 3 to 8) (size 9 to 14) (size 15 to 20)
#    0.000    2.429    0.000    3.429    0.000    8.857 
#    0.000    0.000    0.000    0.857    0.000    2.000 
#    0.000    0.000    0.000    7.143    0.000    0.000 
#
# Total GULP energy -693847.047393 kJ/mol
# GULP energy per Si atom -12390.125846 kJ/mol
# Density = 1.740505 g / cm^3
# Si number density = 17.444756 Si / 1000 Ang^3
#
#
#
# Elastic Constant Matrix: (Units=GPa)
#
#
# Indices 1 2 3 4 5 6 
#
# 1 88.1025 33.2793 35.2120 0.0000 0.0000 0.0000
# 2 33.2793 68.4683 33.3527 0.0000 0.0000 0.0000
# 3 35.2120 33.3527 59.3890 0.0000 0.0000 0.0000
# 4 0.0000 0.0000 0.0000 22.9204 0.0000 0.0000
# 5 0.0000 0.0000 0.0000 0.0000 20.3057 0.0000
# 6 0.0000 0.0000 0.0000 0.0000 0.0000 18.1036
#
#
#
# Elastic Compliance Matrix: (Units=1/GPa)
#
#
# Indices 1 2 3 4 5 6 
#
# 1 0.015734 -0.004272 -0.006929 0.000000 0.000000 0.000000
# 2 -0.004272 0.021265 -0.009410 0.000000 0.000000 0.000000
# 3 -0.006929 -0.009410 0.026231 0.000000 0.000000 0.000000
# 4 0.000000 0.000000 0.000000 0.043629 0.000000 0.000000
# 5 0.000000 0.000000 0.000000 0.000000 0.049247 0.000000
# 6 0.000000 0.000000 0.000000 0.000000 0.000000 0.055238
#
#
# Mechanical properties :
#
#
# Convention : Reuss Voigt Hill
#
# Bulk Modulus (GPa) = 45.43815 46.62753 46.03284
# Shear Modulus (GPa) = 19.23799 19.87366 19.55582
#
# Velocity S-wave (km/s) = 3.32444 3.37892 3.35179
# Velocity P-wave (km/s) = 6.39056 6.48147 6.43618
#
# Compressibility (1/GPa) = 0.02200794
#
# Stress axis : x y z
#
# Youngs Moduli (GPa) = 63.55857 47.02472 38.12259
#
# Poissons Ratio (x) = 0.20088 0.26417
# Poissons Ratio (y) = 0.27151 0.35873
# Poissons Ratio (z) = 0.44042 0.44249
#
# Static dielectric constant tensor:
#      x y z
#    x 3.342350 0.000000 0.000000 
#    y 0.000000 3.628930 0.000000 
#    z 0.000000 0.000000 2.709520 
# 
# 
# High freq. dielectric constant tensor:
#      x y z
#    x 1.683370 0.000000 0.000000 
#    y 0.000000 1.682720 0.000000 
#    z 0.000000 0.000000 1.603240 
# 
# From -- ./inp_files/35153.got.cif
#   From: 2010.06.25/outbox.cif.g09.slc.cpg/sg71_18_cif.got.tgz:35153.got - 2010.06.28 04:59:45.
