data_PCOD8288651
_publ_section_title
;
Structure prediction by ZEFSAII (Michael W. Deem and Ramdas Pophale) SiO2 
 PCOD8288651
Probable space group: I M M M
;
_chemical_formula_sum "Si O2"
_cell_formula_units_Z 72
_cell_length_a 16.449481
_cell_length_b 28.203274
_cell_length_c 8.864763
_cell_angle_alpha 90.000000
_cell_angle_beta 90.000000
_cell_angle_gamma 90.000000
_cell_volume 4112.622582
_symmetry_space_group_name_H-M "I M M M"
_symmetry_group_IT_number 71
_symmetry_cell_setting 'orthorhombic'
loop_
_space_group_symop_operation_xyz
x,y,z
-x,-y,z
x,-y,-z
-x,y,-z
-x,-y,-z
x,y,-z
-x,y,z
x,-y,z
1/2+x,1/2+y,1/2+z
1/2-x,1/2-y,1/2+z
1/2+x,1/2-y,1/2-z
1/2-x,1/2+y,1/2-z
1/2-x,1/2-y,1/2-z
1/2+x,1/2+y,1/2-z
1/2-x,1/2+y,1/2+z
1/2+x,1/2-y,1/2+z
loop_
_atom_site_type_symbol
_atom_site_label
_atom_site_fract_x
_atom_site_fract_y
_atom_site_fract_z
Si Si1 0.678615 0.720849 0.676180
Si Si2 0.500000 0.556183 0.169432
Si Si3 0.411754 0.810849 0.676539
Si Si4 0.251411 0.136858 0.679211
Si Si5 0.334574 0.445087 0.322897
O O1 0.694420 0.712559 0.500000
O O2 0.750000 0.750000 0.750000
O O3 0.599882 0.754098 0.704153
O O4 0.677133 0.669922 0.759259
O O5 0.500000 0.500000 0.164884
O O6 0.579856 0.573610 0.257261
O O7 0.500000 0.577184 0.000000
O O8 0.412868 0.820885 0.500000
O O9 0.500000 0.824945 0.746935
O O10 0.338008 0.842979 0.742326
O O11 0.248658 0.135957 0.500000
O O12 0.238184 0.084277 0.744867
O O13 0.334811 0.436040 0.500000
O O14 0.319558 0.500000 0.283549
#
# Coordination Sequence:
#
# PCOD8288651 Si02
#       5
#    16   8  16  16  16
#     4   9  16  28  47  68  94 126 160 201 246 295
#     4   9  17  31  51  73  97 123 155 199 245 287
#     4   8  15  29  49  72  96 126 165 206 248 293
#     4  10  19  31  50  73  99 130 165 208 253 297
#     4  10  20  34  52  73  99 132 168 203 243 297
#
# _framework density 17.507076000000001
#
# number of rings (size 3 to 8) (size 9 to 14) (size 15 to 20)
#    0.000    2.778    0.000    3.667    0.000    2.667 
#    2.000    0.000    0.000   24.000    0.000    4.667 
#    0.000    0.000    0.000    0.000    0.000    0.000 
#
# Total GULP energy -446027.447436 kJ/mol
# GULP energy per Si atom -12389.651318 kJ/mol
# Density = 1.746723 g / cm^3
# Si number density = 17.507076 Si / 1000 Ang^3
#
#
#
# Elastic Constant Matrix: (Units=GPa)
#
#
# Indices 1 2 3 4 5 6 
#
# 1 109.1130 56.9990 35.8830 -0.0030 -0.0042 -0.0012
# 2 56.9990 93.7126 43.3214 -0.0027 -0.0015 -0.0010
# 3 35.8830 43.3214 84.0589 0.0231 0.0080 -0.0098
# 4 -0.0030 -0.0027 0.0231 31.4268 0.0036 -0.0026
# 5 -0.0042 -0.0015 0.0080 0.0036 19.7569 -0.0025
# 6 -0.0012 -0.0010 -0.0098 -0.0026 -0.0025 21.7222
#
#
#
# Elastic Compliance Matrix: (Units=1/GPa)
#
#
# Indices 1 2 3 4 5 6 
#
# 1 0.013694 -0.007387 -0.002039 0.000002 0.000003 -0.000001
# 2 -0.007387 0.017993 -0.006120 0.000005 0.000002 -0.000002
# 3 -0.002039 -0.006120 0.015921 -0.000012 -0.000007 0.000007
# 4 0.000002 0.000005 -0.000012 0.031820 -0.000006 0.000004
# 5 0.000003 0.000002 -0.000007 -0.000006 0.050615 0.000006
# 6 -0.000001 -0.000002 0.000007 0.000004 0.000006 0.046036
#
#
# Mechanical properties :
#
#
# Convention : Reuss Voigt Hill
#
# Bulk Modulus (GPa) = 60.54348 62.14345 61.34346
# Shear Modulus (GPa) = 23.51012 24.62658 24.06835
#
# Velocity S-wave (km/s) = 3.66853 3.75462 3.71182
# Velocity P-wave (km/s) = 7.25269 7.37357 7.31338
#
# Compressibility (1/GPa) = 0.01651706
#
# Stress axis : x y z
#
# Youngs Moduli (GPa) = 73.02498 55.57808 62.81135
#
# Poissons Ratio (x) = 0.41053 0.12806
# Poissons Ratio (y) = 0.53940 0.38439
# Poissons Ratio (z) = 0.14889 0.34012
#
# Static dielectric constant tensor:
#      x y z
#    x 3.504790 0.000000 0.000000 
#    y 0.000000 3.433640 0.000000 
#    z 0.000000 0.000000 3.282680 
# 
# 
# High freq. dielectric constant tensor:
#      x y z
#    x 1.657190 0.000000 0.000000 
#    y 0.000000 1.664090 0.000000 
#    z 0.000000 0.000000 1.673180 
# 
# From -- ./inp_files/6474.got.cif
#   From: 2010.06.25/outbox.cif.g09.slc.cpg/sg71_4_cif.got.tgz:6474.got - 2010.06.28 04:59:45.
