data_PCOD8288638
_publ_section_title
;
Structure prediction by ZEFSAII (Michael W. Deem and Ramdas Pophale) SiO2 
 PCOD8288638
Probable space group: I M M M
;
_chemical_formula_sum "Si O2"
_cell_formula_units_Z 64
_cell_length_a 7.677922
_cell_length_b 25.951370
_cell_length_c 17.770206
_cell_angle_alpha 90.000000
_cell_angle_beta 90.000000
_cell_angle_gamma 90.000000
_cell_volume 3540.759653
_symmetry_space_group_name_H-M "I M M M"
_symmetry_group_IT_number 71
_symmetry_cell_setting 'orthorhombic'
loop_
_space_group_symop_operation_xyz
x,y,z
-x,-y,z
x,-y,-z
-x,y,-z
-x,-y,-z
x,y,-z
-x,y,z
x,-y,z
1/2+x,1/2+y,1/2+z
1/2-x,1/2-y,1/2+z
1/2+x,1/2-y,1/2-z
1/2-x,1/2+y,1/2-z
1/2-x,1/2-y,1/2-z
1/2+x,1/2+y,1/2-z
1/2-x,1/2+y,1/2+z
1/2+x,1/2-y,1/2+z
loop_
_atom_site_type_symbol
_atom_site_label
_atom_site_fract_x
_atom_site_fract_y
_atom_site_fract_z
Si Si1 0.307544 0.818312 0.134928
Si Si2 0.800294 0.369398 0.789068
Si Si3 0.000000 0.114822 0.917746
Si Si4 0.500000 0.439666 0.263039
Si Si5 0.703197 0.209079 0.585572
O O1 0.500000 0.838884 0.113751
O O2 0.270547 0.827646 0.223123
O O3 0.303363 0.757753 0.119047
O O4 0.169382 0.849031 0.085312
O O5 0.673252 0.417600 0.776296
O O6 0.748663 0.341687 0.866900
O O7 0.000000 0.389377 0.790814
O O8 0.000000 0.072288 0.852333
O O9 0.000000 0.087681 0.000000
O O10 0.500000 0.500000 0.250629
O O11 0.761356 0.198695 0.500000
O O12 0.500000 0.221309 0.591948
#
# Coordination Sequence:
#
# PCOD8288638 Si02
#       5
#    16  16   8   8  16
#     4  10  19  31  50  75 108 147 176 196 240 306
#     4   9  20  36  53  75 103 136 172 216 258 305
#     4  10  20  35  52  77 113 138 165 211 254 304
#     4  10  22  39  59  78  94 129 183 225 264 308
#     4  10  19  31  49  76 110 142 172 206 250 305
#
# _framework density 18.075218
#
# number of rings (size 3 to 8) (size 9 to 14) (size 15 to 20)
#    0.000    2.250    1.250    1.500    1.750    2.750 
#    0.000    0.000    0.000    1.500    0.000   10.500 
#    0.000    0.000    0.000    0.000    0.000    0.000 
#
# Total GULP energy -396813.524215 kJ/mol
# GULP energy per Si atom -12400.422632 kJ/mol
# Density = 1.803408 g / cm^3
# Si number density = 18.075218 Si / 1000 Ang^3
#
#
#
# Elastic Constant Matrix: (Units=GPa)
#
#
# Indices 1 2 3 4 5 6 
#
# 1 104.8788 52.7623 46.0179 0.0001 0.0000 0.0000
# 2 52.7623 114.8937 64.0603 0.0000 0.0000 0.0000
# 3 46.0179 64.0603 114.3705 0.0006 0.0000 0.0000
# 4 0.0001 0.0000 0.0006 11.5707 0.0000 0.0000
# 5 0.0000 0.0000 0.0000 0.0000 4.8177 0.0000
# 6 0.0000 0.0000 0.0000 0.0000 0.0000 21.1390
#
#
#
# Elastic Compliance Matrix: (Units=1/GPa)
#
#
# Indices 1 2 3 4 5 6 
#
# 1 0.012963 -0.004427 -0.002736 0.000000 0.000000 0.000000
# 2 -0.004427 0.014168 -0.006154 0.000000 0.000000 0.000000
# 3 -0.002736 -0.006154 0.013291 -0.000001 0.000000 0.000000
# 4 0.000000 0.000000 -0.000001 0.086425 0.000000 0.000000
# 5 0.000000 0.000000 0.000000 0.000000 0.207568 0.000000
# 6 0.000000 0.000000 0.000000 0.000000 0.000000 0.047306
#
#
# Mechanical properties :
#
#
# Convention : Reuss Voigt Hill
#
# Bulk Modulus (GPa) = 72.53144 73.31378 72.92261
# Shear Modulus (GPa) = 12.10793 18.92563 15.51678
#
# Velocity S-wave (km/s) = 2.59098 3.23932 2.93312
# Velocity P-wave (km/s) = 7.01182 7.39185 7.20434
#
# Compressibility (1/GPa) = 0.01378712
#
# Stress axis : x y z
#
# Youngs Moduli (GPa) = 77.14556 70.57969 75.23628
#
# Poissons Ratio (x) = 0.31248 0.20583
# Poissons Ratio (y) = 0.34155 0.46304
# Poissons Ratio (z) = 0.21105 0.43438
#
# Static dielectric constant tensor:
#      x y z
#    x 3.576900 0.000000 0.000000 
#    y 0.000000 2.845530 0.000000 
#    z 0.000000 0.000000 3.463630 
# 
# 
# High freq. dielectric constant tensor:
#      x y z
#    x 1.716120 0.000000 0.000000 
#    y 0.000000 1.651510 0.000000 
#    z 0.000000 0.000000 1.704110 
# 
# From -- ./inp_files/5870.got.cif
#   From: 2010.06.25/outbox.cif.g09.slc.cpg/sg71_3_cif.got.tgz:5870.got - 2010.06.28 04:59:45.
