data_PCOD8288185
_publ_section_title
;
Structure prediction by ZEFSAII (Michael W. Deem and Ramdas Pophale) SiO2 
 PCOD8288185
Probable space group: I M M M
;
_chemical_formula_sum "Si O2"
_cell_formula_units_Z 104
_cell_length_a 8.919471
_cell_length_b 32.787905
_cell_length_c 24.250453
_cell_angle_alpha 90.000000
_cell_angle_beta 90.000000
_cell_angle_gamma 90.000000
_cell_volume 7092.063599
_symmetry_space_group_name_H-M "I M M M"
_symmetry_group_IT_number 71
_symmetry_cell_setting 'orthorhombic'
loop_
_space_group_symop_operation_xyz
x,y,z
-x,-y,z
x,-y,-z
-x,y,-z
-x,-y,-z
x,y,-z
-x,y,z
x,-y,z
1/2+x,1/2+y,1/2+z
1/2-x,1/2-y,1/2+z
1/2+x,1/2-y,1/2-z
1/2-x,1/2+y,1/2-z
1/2-x,1/2-y,1/2-z
1/2+x,1/2+y,1/2-z
1/2-x,1/2+y,1/2+z
1/2+x,1/2-y,1/2+z
loop_
_atom_site_type_symbol
_atom_site_label
_atom_site_fract_x
_atom_site_fract_y
_atom_site_fract_z
Si Si1 0.825225 0.882217 0.835030
Si Si2 0.325244 0.764794 0.668208
Si Si3 0.169492 0.828828 0.060764
Si Si4 0.675780 0.188765 0.223334
Si Si5 0.667716 0.548283 0.500000
Si Si6 0.324141 0.047116 0.887797
Si Si7 0.674892 0.255621 0.061256
O O1 0.790226 0.862078 0.893983
O O2 0.750680 0.855137 0.786938
O O3 0.748596 0.926752 0.837882
O O4 0.000000 0.886974 0.822256
O O5 0.500000 0.755597 0.665066
O O6 0.288687 0.799145 0.713504
O O7 0.245624 0.722174 0.682547
O O8 0.264063 0.780348 0.608888
O O9 0.284013 0.791743 0.066093
O O10 0.000000 0.812177 0.069632
O O11 0.185267 0.849175 0.000000
O O12 0.500000 0.186466 0.211676
O O13 0.657487 0.500000 0.500000
O O14 0.500000 0.567425 0.500000
O O15 0.754713 0.562447 0.445476
O O16 0.500000 0.054893 0.890216
O O17 0.286108 0.000000 0.876005
O O18 0.500000 0.261099 0.071973
O O19 0.718696 0.272003 0.000000
#
# Coordination Sequence:
#
# PCOD8288185 Si02
#       7
#    16  16  16  16   8  16  16
#     4  11  21  31  47  66  83 105 139 176 217 263
#     4  10  19  31  46  63  84 112 143 174 211 251
#     4   9  18  30  41  56  80 106 135 173 215 257
#     4  10  20  32  46  63  84 110 141 176 213 254
#     4   9  17  31  49  65  81 103 135 173 215 265
#     4  10  21  35  48  62  82 107 136 173 217 263
#     4  10  19  29  43  63  85 110 140 174 213 254
#
# _framework density 14.664279000000001
#
# number of rings (size 3 to 8) (size 9 to 14) (size 15 to 20)
#    0.000    2.077    1.538    2.538    1.077    5.231 
#    0.000    0.000    0.000    0.000    0.000    0.000 
#    0.000    0.000    0.000    0.000    0.000    0.769 
#
# Total GULP energy -644754.644605 kJ/mol
# GULP energy per Si atom -12399.127781 kJ/mol
# Density = 1.463090 g / cm^3
# Si number density = 14.664279 Si / 1000 Ang^3
#
#
#
# Elastic Constant Matrix: (Units=GPa)
#
#
# Indices 1 2 3 4 5 6 
#
# 1 90.5797 39.3879 45.0360 0.0000 0.0000 0.0000
# 2 39.3879 61.7261 35.2762 0.0000 0.0000 0.0000
# 3 45.0360 35.2762 87.2269 0.0000 0.0000 0.0000
# 4 0.0000 0.0000 0.0000 23.4111 0.0000 0.0000
# 5 0.0000 0.0000 0.0000 0.0000 24.2012 0.0000
# 6 0.0000 0.0000 0.0000 0.0000 0.0000 20.7600
#
#
#
# Elastic Compliance Matrix: (Units=1/GPa)
#
#
# Indices 1 2 3 4 5 6 
#
# 1 0.017277 -0.007708 -0.005803 0.000000 0.000000 0.000000
# 2 -0.007708 0.024510 -0.005932 0.000000 0.000000 0.000000
# 3 -0.005803 -0.005932 0.016860 0.000000 0.000000 0.000000
# 4 0.000000 0.000000 0.000000 0.042715 0.000000 0.000000
# 5 0.000000 0.000000 0.000000 0.000000 0.041320 0.000000
# 6 0.000000 0.000000 0.000000 0.000000 0.000000 0.048170
#
#
# Mechanical properties :
#
#
# Convention : Reuss Voigt Hill
#
# Bulk Modulus (GPa) = 50.60920 53.21477 51.91199
# Shear Modulus (GPa) = 21.15737 21.66330 21.41033
#
# Velocity S-wave (km/s) = 3.80252 3.84771 3.82518
# Velocity P-wave (km/s) = 7.33932 7.49048 7.41529
#
# Compressibility (1/GPa) = 0.01975925
#
# Stress axis : x y z
#
# Youngs Moduli (GPa) = 57.88009 40.80037 59.31349
#
# Poissons Ratio (x) = 0.31450 0.34419
# Poissons Ratio (y) = 0.44616 0.35186
# Poissons Ratio (z) = 0.33587 0.24204
#
# Static dielectric constant tensor:
#      x y z
#    x 2.966830 0.000000 0.000000 
#    y 0.000000 2.599130 0.000000 
#    z 0.000000 0.000000 2.968410 
# 
# 
# High freq. dielectric constant tensor:
#      x y z
#    x 1.579910 0.000000 0.000000 
#    y 0.000000 1.518340 0.000000 
#    z 0.000000 0.000000 1.543550 
# 
# From -- ./inp_files/58215.got.cif
#   From: 2010.06.25/outbox.cif.g09.slc.cpg/sg71_30_cif.got.tgz:58215.got - 2010.06.28 04:59:45.
