data_PCOD8288333
_publ_section_title
;
Structure prediction by ZEFSAII (Michael W. Deem and Ramdas Pophale) SiO2 
 PCOD8288333
Probable space group: I M M M
;
_chemical_formula_sum "Si O2"
_cell_formula_units_Z 120
_cell_length_a 25.296012
_cell_length_b 14.392300
_cell_length_c 21.802418
_cell_angle_alpha 90.000000
_cell_angle_beta 90.000000
_cell_angle_gamma 90.000000
_cell_volume 7937.558214
_symmetry_space_group_name_H-M "I M M M"
_symmetry_group_IT_number 71
_symmetry_cell_setting 'orthorhombic'
loop_
_space_group_symop_operation_xyz
x,y,z
-x,-y,z
x,-y,-z
-x,y,-z
-x,-y,-z
x,y,-z
-x,y,z
x,-y,z
1/2+x,1/2+y,1/2+z
1/2-x,1/2-y,1/2+z
1/2+x,1/2-y,1/2-z
1/2-x,1/2+y,1/2-z
1/2-x,1/2-y,1/2-z
1/2+x,1/2+y,1/2-z
1/2-x,1/2+y,1/2+z
1/2+x,1/2-y,1/2+z
loop_
_atom_site_type_symbol
_atom_site_label
_atom_site_fract_x
_atom_site_fract_y
_atom_site_fract_z
Si Si1 0.119853 0.110074 0.380396
Si Si2 0.312663 0.895915 0.267013
Si Si3 0.259894 0.606242 0.882173
Si Si4 0.939976 0.889075 0.500000
Si Si5 0.561643 0.391904 0.758177
Si Si6 0.137007 0.222817 0.814841
Si Si7 0.195571 0.235076 0.930836
Si Si8 0.732253 0.606951 0.665328
O O1 0.180284 0.144108 0.380187
O O2 0.089859 0.150359 0.439986
O O3 0.090476 0.145052 0.319303
O O4 0.117145 0.000000 0.381758
O O5 0.264778 0.881470 0.314833
O O6 0.358903 0.821510 0.279313
O O7 0.288202 0.881362 0.199459
O O8 0.336427 0.000000 0.273239
O O9 0.257994 0.500000 0.904895
O O10 0.226202 0.666737 0.930185
O O11 0.000000 0.851971 0.500000
O O12 0.939362 0.000000 0.500000
O O13 0.500000 0.373905 0.765949
O O14 0.573609 0.500000 0.744928
O O15 0.582648 0.329214 0.701626
O O16 0.142116 0.240053 0.888756
O O17 0.186086 0.156554 0.794379
O O18 0.234552 0.156491 0.901563
O O19 0.179772 0.209039 0.000000
O O20 0.716933 0.500000 0.656916
#
# Coordination Sequence:
#
# PCOD8288333 Si02
#       8
#    16  16  16   8  16  16  16  16
#     4   9  17  26  39  60  87 120 150 179 218 261
#     4   9  16  28  44  66  89 111 143 180 220 270
#     4   9  17  27  43  65  93 119 145 179 220 266
#     4   9  16  26  36  50  80 122 159 181 208 257
#     4  10  19  30  46  68  89 111 148 195 232 264
#     4   9  18  29  47  63  86 115 146 183 229 271
#     4   9  20  30  41  63  90 121 155 184 216 268
#     4   9  17  27  43  63  86 117 147 178 215 263
#
# _framework density 15.117998999999999
#
# number of rings (size 3 to 8) (size 9 to 14) (size 15 to 20)
#    0.800    2.067    0.000    2.000    2.800    4.267 
#    0.000    0.000    0.000    0.800    0.000    0.933 
#    0.000    0.000    0.000    6.667    0.000    7.600 
#
# Total GULP energy -743527.363948 kJ/mol
# GULP energy per Si atom -12392.122732 kJ/mol
# Density = 1.508359 g / cm^3
# Si number density = 15.117999 Si / 1000 Ang^3
#
#
#
# Elastic Constant Matrix: (Units=GPa)
#
#
# Indices 1 2 3 4 5 6 
#
# 1 53.8930 17.7652 25.5614 0.0000 0.0000 0.0000
# 2 17.7652 69.4656 25.8502 0.0000 0.0000 0.0000
# 3 25.5614 25.8502 85.8033 0.0000 0.0000 0.0000
# 4 0.0000 0.0000 0.0000 12.6335 0.0000 0.0000
# 5 0.0000 0.0000 0.0000 0.0000 13.6907 0.0000
# 6 0.0000 0.0000 0.0000 0.0000 0.0000 19.3286
#
#
#
# Elastic Compliance Matrix: (Units=1/GPa)
#
#
# Indices 1 2 3 4 5 6 
#
# 1 0.022404 -0.003656 -0.005573 0.000000 0.000000 0.000000
# 2 -0.003656 0.016810 -0.003975 0.000000 0.000000 0.000000
# 3 -0.005573 -0.003975 0.014512 0.000000 0.000000 0.000000
# 4 0.000000 0.000000 0.000000 0.079155 0.000000 0.000000
# 5 0.000000 0.000000 0.000000 0.000000 0.073042 0.000000
# 6 0.000000 0.000000 0.000000 0.000000 0.000000 0.051737
#
#
# Mechanical properties :
#
#
# Convention : Reuss Voigt Hill
#
# Bulk Modulus (GPa) = 36.60568 38.61285 37.60926
# Shear Modulus (GPa) = 17.05475 18.46289 17.75882
#
# Velocity S-wave (km/s) = 3.36238 3.49843 3.43108
# Velocity P-wave (km/s) = 6.27216 6.47419 6.37398
#
# Compressibility (1/GPa) = 0.02731817
#
# Stress axis : x y z
#
# Youngs Moduli (GPa) = 44.63578 59.48893 68.90660
#
# Poissons Ratio (x) = 0.21747 0.38400
# Poissons Ratio (y) = 0.16318 0.27392
# Poissons Ratio (z) = 0.24875 0.23649
#
# Static dielectric constant tensor:
#      x y z
#    x 2.616140 0.000000 0.000000 
#    y 0.000000 2.862200 0.000000 
#    z 0.000000 0.000000 2.816500 
# 
# 
# High freq. dielectric constant tensor:
#      x y z
#    x 1.541370 0.000000 0.000000 
#    y 0.000000 1.563570 0.000000 
#    z 0.000000 0.000000 1.569610 
# 
# From -- ./inp_files/61784.got.cif
#   From: 2010.06.25/outbox.cif.g09.slc.cpg/sg71_31_cif.got.tgz:61784.got - 2010.06.28 04:59:45.
