data_PCOD8288204
_publ_section_title
;
Structure prediction by ZEFSAII (Michael W. Deem and Ramdas Pophale) SiO2 
 PCOD8288204
Probable space group: I M M M
;
_chemical_formula_sum "Si O2"
_cell_formula_units_Z 80
_cell_length_a 9.038267
_cell_length_b 23.446227
_cell_length_c 24.114352
_cell_angle_alpha 90.000000
_cell_angle_beta 90.000000
_cell_angle_gamma 90.000000
_cell_volume 5110.150940
_symmetry_space_group_name_H-M "I M M M"
_symmetry_group_IT_number 71
_symmetry_cell_setting 'orthorhombic'
loop_
_space_group_symop_operation_xyz
x,y,z
-x,-y,z
x,-y,-z
-x,y,-z
-x,-y,-z
x,y,-z
-x,y,z
x,-y,z
1/2+x,1/2+y,1/2+z
1/2-x,1/2-y,1/2+z
1/2+x,1/2-y,1/2-z
1/2-x,1/2+y,1/2-z
1/2-x,1/2-y,1/2-z
1/2+x,1/2+y,1/2-z
1/2-x,1/2+y,1/2+z
1/2+x,1/2-y,1/2+z
loop_
_atom_site_type_symbol
_atom_site_label
_atom_site_fract_x
_atom_site_fract_y
_atom_site_fract_z
Si Si1 0.672749 0.165709 0.775347
Si Si2 0.326926 0.248130 0.937958
Si Si3 0.327893 0.769590 0.333327
Si Si4 0.172356 0.935131 0.170180
Si Si5 0.668531 0.630354 0.438461
O O1 0.500000 0.169021 0.789264
O O2 0.703548 0.180548 0.710934
O O3 0.756521 0.210177 0.814359
O O4 0.734688 0.102793 0.786695
O O5 0.500000 0.252178 0.927124
O O6 0.243689 0.287379 0.892407
O O7 0.277393 0.183099 0.929720
O O8 0.286179 0.269514 0.000000
O O9 0.500000 0.758370 0.341177
O O10 0.206802 0.917677 0.106685
O O11 0.000000 0.927696 0.183912
O O12 0.224038 0.000000 0.178115
O O13 0.690973 0.603888 0.500000
O O14 0.500000 0.652226 0.431089
#
# Coordination Sequence:
#
# PCOD8288204 Si02
#       5
#    16  16  16  16  16
#     4  10  20  32  47  67  89 117 153 191 233 274
#     4  10  19  29  44  68  95 120 148 184 227 273
#     4  10  19  31  48  68  90 117 151 188 228 279
#     4  10  20  32  46  65  90 121 158 196 232 272
#     4   9  17  29  44  61  85 119 157 194 229 264
#
# _framework density 15.655115
#
# number of rings (size 3 to 8) (size 9 to 14) (size 15 to 20)
#    0.000    2.200    2.000    1.800    0.000    4.400 
#    0.000    2.000    0.000    0.000    0.000    4.200 
#    0.000    0.800    0.000    8.800    0.000    6.400 
#
# Total GULP energy -495957.000605 kJ/mol
# GULP energy per Si atom -12398.925015 kJ/mol
# Density = 1.561948 g / cm^3
# Si number density = 15.655115 Si / 1000 Ang^3
#
#
#
# Elastic Constant Matrix: (Units=GPa)
#
#
# Indices 1 2 3 4 5 6 
#
# 1 83.0943 32.6235 66.6641 0.0000 0.0000 0.0000
# 2 32.6235 65.5486 55.2632 0.0000 0.0000 0.0000
# 3 66.6641 55.2632 132.4271 0.0000 0.0000 0.0000
# 4 0.0000 0.0000 0.0000 21.8387 0.0000 0.0000
# 5 0.0000 0.0000 0.0000 0.0000 27.5266 0.0000
# 6 0.0000 0.0000 0.0000 0.0000 0.0000 20.2972
#
#
#
# Elastic Compliance Matrix: (Units=1/GPa)
#
#
# Indices 1 2 3 4 5 6 
#
# 1 0.020411 -0.002308 -0.009312 0.000000 0.000000 0.000000
# 2 -0.002308 0.023798 -0.008769 0.000000 0.000000 0.000000
# 3 -0.009312 -0.008769 0.015899 0.000000 0.000000 0.000000
# 4 0.000000 0.000000 0.000000 0.045790 0.000000 0.000000
# 5 0.000000 0.000000 0.000000 0.000000 0.036328 0.000000
# 6 0.000000 0.000000 0.000000 0.000000 0.000000 0.049268
#
#
# Mechanical properties :
#
#
# Convention : Reuss Voigt Hill
#
# Bulk Modulus (GPa) = 51.73489 65.57462 58.65475
# Shear Modulus (GPa) = 20.94543 22.36713 21.65628
#
# Velocity S-wave (km/s) = 3.66174 3.78397 3.72336
# Velocity P-wave (km/s) = 7.14116 7.81468 7.48550
#
# Compressibility (1/GPa) = 0.01932932
#
# Stress axis : x y z
#
# Youngs Moduli (GPa) = 48.99227 42.02084 62.89895
#
# Poissons Ratio (x) = 0.09698 0.58572
# Poissons Ratio (y) = 0.11307 0.55158
# Poissons Ratio (z) = 0.45622 0.36849
#
# Static dielectric constant tensor:
#      x y z
#    x 3.059830 0.000000 0.000000 
#    y 0.000000 2.636380 0.000000 
#    z 0.000000 0.000000 3.337720 
# 
# 
# High freq. dielectric constant tensor:
#      x y z
#    x 1.612430 0.000000 0.000000 
#    y 0.000000 1.547000 0.000000 
#    z 0.000000 0.000000 1.610590 
# 
# From -- ./inp_files/63043.got.cif
#   From: 2010.06.25/outbox.cif.g09.slc.cpg/sg71_32_cif.got.tgz:63043.got - 2010.06.28 04:59:45.
