data_PCOD8288242
_publ_section_title
;
Structure prediction by ZEFSAII (Michael W. Deem and Ramdas Pophale) SiO2 
 PCOD8288242
Probable space group: I M M M
;
_chemical_formula_sum "Si O2"
_cell_formula_units_Z 80
_cell_length_a 18.466557
_cell_length_b 7.639094
_cell_length_c 29.754285
_cell_angle_alpha 90.000000
_cell_angle_beta 90.000000
_cell_angle_gamma 90.000000
_cell_volume 4197.370478
_symmetry_space_group_name_H-M "I M M M"
_symmetry_group_IT_number 71
_symmetry_cell_setting 'orthorhombic'
loop_
_space_group_symop_operation_xyz
x,y,z
-x,-y,z
x,-y,-z
-x,y,-z
-x,-y,-z
x,y,-z
-x,y,z
x,-y,z
1/2+x,1/2+y,1/2+z
1/2-x,1/2-y,1/2+z
1/2+x,1/2-y,1/2-z
1/2-x,1/2+y,1/2-z
1/2-x,1/2-y,1/2-z
1/2+x,1/2+y,1/2-z
1/2-x,1/2+y,1/2+z
1/2+x,1/2-y,1/2+z
loop_
_atom_site_type_symbol
_atom_site_label
_atom_site_fract_x
_atom_site_fract_y
_atom_site_fract_z
Si Si1 0.085208 0.298401 0.910790
Si Si2 0.841460 0.698764 0.000000
Si Si3 0.586616 0.500000 0.243721
Si Si4 0.414389 0.500000 0.344164
Si Si5 0.913746 0.694156 0.319190
Si Si6 0.419582 0.207384 0.081473
Si Si7 0.323322 0.208326 0.000000
O O1 0.106955 0.500000 0.900189
O O2 0.125076 0.218901 0.954741
O O3 0.000000 0.281218 0.919093
O O4 0.111062 0.176523 0.869518
O O5 0.755678 0.711163 0.000000
O O6 0.867853 0.500000 0.000000
O O7 0.500000 0.500000 0.243834
O O8 0.618949 0.500000 0.294038
O O9 0.616161 0.328099 0.218027
O O10 0.500000 0.500000 0.340239
O O11 0.882773 0.500000 0.308565
O O12 0.889777 0.758323 0.369017
O O13 0.000000 0.687353 0.318645
O O14 0.500000 0.286730 0.073421
O O15 0.424880 0.000000 0.077672
O O16 0.365020 0.280487 0.043910
O O17 0.317862 0.000000 0.000000
#
# Coordination Sequence:
#
# PCOD8288242 Si02
#       7
#    16   8   8   8  16  16   8
#     4   9  18  33  52  72  97 131 163 194 239 292
#     4  10  21  35  48  68 101 127 159 198 239 292
#     4   9  16  26  41  69 101 123 152 196 244 288
#     4   9  18  29  46  75 103 124 155 198 241 290
#     4   8  14  25  42  63  91 127 161 194 236 282
#     4   8  14  27  46  68  97 132 168 202 238 285
#     4  10  19  29  47  73  98 125 166 202 246 288
#
# _framework density 19.059552
#
# number of rings (size 3 to 8) (size 9 to 14) (size 15 to 20)
#    0.000    3.200    0.000    1.800    1.400    3.200 
#    1.800    5.500    0.000    0.600    0.000    1.400 
#    0.000    0.000    0.000    0.000    0.000    0.000 
#
# Total GULP energy -495764.714511 kJ/mol
# GULP energy per Si atom -12394.117863 kJ/mol
# Density = 1.901617 g / cm^3
# Si number density = 19.059552 Si / 1000 Ang^3
#
#
#
# Elastic Constant Matrix: (Units=GPa)
#
#
# Indices 1 2 3 4 5 6 
#
# 1 45.5982 16.9639 41.6028 0.0000 0.0000 0.0000
# 2 16.9639 91.2809 74.0604 0.0000 0.0000 0.0000
# 3 41.6028 74.0604 197.4862 0.0000 0.0000 0.0000
# 4 0.0000 0.0000 0.0000 18.9866 0.0000 0.0000
# 5 0.0000 0.0000 0.0000 0.0000 4.2944 0.0000
# 6 0.0000 0.0000 0.0000 0.0000 0.0000 13.3956
#
#
#
# Elastic Compliance Matrix: (Units=1/GPa)
#
#
# Indices 1 2 3 4 5 6 
#
# 1 0.027170 -0.000583 -0.005505 0.000000 0.000000 0.000000
# 2 -0.000583 0.015759 -0.005787 0.000000 0.000000 0.000000
# 3 -0.005505 -0.005787 0.008394 0.000000 0.000000 0.000000
# 4 0.000000 0.000000 0.000000 0.052669 0.000000 0.000000
# 5 0.000000 0.000000 0.000000 0.000000 0.232864 0.000000
# 6 0.000000 0.000000 0.000000 0.000000 0.000000 0.074651
#
#
# Mechanical properties :
#
#
# Convention : Reuss Voigt Hill
#
# Bulk Modulus (GPa) = 36.26777 66.62439 51.44608
# Shear Modulus (GPa) = 11.24992 20.78452 16.01722
#
# Velocity S-wave (km/s) = 2.43214 3.30586 2.90207
# Velocity P-wave (km/s) = 5.19202 7.04297 6.18710
#
# Compressibility (1/GPa) = 0.02757269
#
# Stress axis : x y z
#
# Youngs Moduli (GPa) = 36.80486 63.45677 119.13845
#
# Poissons Ratio (x) = 0.03698 0.65588
# Poissons Ratio (y) = 0.02145 0.68945
# Poissons Ratio (z) = 0.20262 0.36722
#
# Static dielectric constant tensor:
#      x y z
#    x 2.988670 0.000000 0.000000 
#    y 0.000000 3.525980 0.000000 
#    z 0.000000 0.000000 3.852110 
# 
# 
# High freq. dielectric constant tensor:
#      x y z
#    x 1.680470 0.000000 0.000000 
#    y 0.000000 1.736170 0.000000 
#    z 0.000000 0.000000 1.747120 
# 
# From -- ./inp_files/66314.got.cif
#   From: 2010.06.25/outbox.cif.g09.slc.cpg/sg71_34_cif.got.tgz:66314.got - 2010.06.28 04:59:45.
