data_PCOD8288807
_publ_section_title
;
Structure prediction by ZEFSAII (Michael W. Deem and Ramdas Pophale) SiO2 
 PCOD8288807
Probable space group: I M M M
;
_chemical_formula_sum "Si O2"
_cell_formula_units_Z 104
_cell_length_a 24.622881
_cell_length_b 8.978398
_cell_length_c 23.900222
_cell_angle_alpha 90.000000
_cell_angle_beta 90.000000
_cell_angle_gamma 90.000000
_cell_volume 5283.718288
_symmetry_space_group_name_H-M "I M M M"
_symmetry_group_IT_number 71
_symmetry_cell_setting 'orthorhombic'
loop_
_space_group_symop_operation_xyz
x,y,z
-x,-y,z
x,-y,-z
-x,y,-z
-x,-y,-z
x,y,-z
-x,y,z
x,-y,z
1/2+x,1/2+y,1/2+z
1/2-x,1/2-y,1/2+z
1/2+x,1/2-y,1/2-z
1/2-x,1/2+y,1/2-z
1/2-x,1/2-y,1/2-z
1/2+x,1/2+y,1/2-z
1/2-x,1/2+y,1/2+z
1/2+x,1/2-y,1/2+z
loop_
_atom_site_type_symbol
_atom_site_label
_atom_site_fract_x
_atom_site_fract_y
_atom_site_fract_z
Si Si1 0.240019 0.171179 0.063969
Si Si2 0.404673 0.162680 0.282630
Si Si3 0.625190 0.676402 0.391862
Si Si4 0.561503 0.322618 0.500000
Si Si5 0.797675 0.336616 0.723586
Si Si6 0.160842 0.824259 0.617633
Si Si7 0.061583 0.673349 0.338180
O O1 0.188950 0.226382 0.102366
O O2 0.295842 0.262678 0.072847
O O3 0.253381 0.000000 0.077227
O O4 0.221571 0.191505 0.000000
O O5 0.407200 0.266344 0.337154
O O6 0.341422 0.139986 0.271409
O O7 0.432411 0.232620 0.226340
O O8 0.430955 0.000000 0.295769
O O9 0.623274 0.500000 0.389892
O O10 0.592266 0.738349 0.445140
O O11 0.562379 0.500000 0.500000
O O12 0.500000 0.261789 0.500000
O O13 0.780548 0.500000 0.699398
O O14 0.750000 0.250000 0.750000
O O15 0.818528 0.224255 0.677501
O O16 0.099499 0.756303 0.615773
O O17 0.156840 0.000000 0.610469
O O18 0.079246 0.500000 0.337226
O O19 0.000000 0.696144 0.358375
#
# Coordination Sequence:
#
# PCOD8288807 Si02
#       7
#    16  16  16   8  16  16  16
#     4  10  20  36  57  78 105 144 192 238 279 331
#     4   9  19  32  48  74 105 135 170 215 265 317
#     4  10  19  33  53  77 104 140 186 230 274 322
#     4   9  18  34  53  73 101 137 180 229 276 317
#     4  10  19  32  49  72 105 141 177 216 267 327
#     4  11  22  34  52  81 113 142 177 224 282 343
#     4   9  19  38  60  79 106 147 188 224 270 332
#
# _framework density 19.683108000000001
#
# number of rings (size 3 to 8) (size 9 to 14) (size 15 to 20)
#    0.000    2.231    0.769    3.692    0.000    7.385 
#    0.000    0.385    0.000    0.923    0.000    3.231 
#    0.000    0.000    0.000    0.000    0.000    0.000 
#
# Total GULP energy -644235.768799 kJ/mol
# GULP energy per Si atom -12389.149400 kJ/mol
# Density = 1.963831 g / cm^3
# Si number density = 19.683108 Si / 1000 Ang^3
#
#
#
# Elastic Constant Matrix: (Units=GPa)
#
#
# Indices 1 2 3 4 5 6 
#
# 1 106.9397 37.7870 7.8789 0.0000 0.0000 0.0000
# 2 37.7870 72.7550 13.5143 0.0000 0.0000 0.0000
# 3 7.8789 13.5143 46.8574 0.0000 0.0000 0.0000
# 4 0.0000 0.0000 0.0000 25.8955 0.0000 0.0000
# 5 0.0000 0.0000 0.0000 0.0000 26.9174 0.0000
# 6 0.0000 0.0000 0.0000 0.0000 0.0000 19.9346
#
#
#
# Elastic Compliance Matrix: (Units=1/GPa)
#
#
# Indices 1 2 3 4 5 6 
#
# 1 0.011455 -0.005908 -0.000222 0.000000 0.000000 0.000000
# 2 -0.005908 0.017570 -0.004074 0.000000 0.000000 0.000000
# 3 -0.000222 -0.004074 0.022554 0.000000 0.000000 0.000000
# 4 0.000000 0.000000 0.000000 0.038617 0.000000 0.000000
# 5 0.000000 0.000000 0.000000 0.000000 0.037151 0.000000
# 6 0.000000 0.000000 0.000000 0.000000 0.000000 0.050164
#
#
# Mechanical properties :
#
#
# Convention : Reuss Voigt Hill
#
# Bulk Modulus (GPa) = 32.08190 38.32359 35.20275
# Shear Modulus (GPa) = 24.00279 25.70762 24.85521
#
# Velocity S-wave (km/s) = 3.49587 3.61789 3.55740
# Velocity P-wave (km/s) = 5.71221 6.07986 5.89890
#
# Compressibility (1/GPa) = 0.03117022
#
# Stress axis : x y z
#
# Youngs Moduli (GPa) = 87.29741 56.91495 44.33861
#
# Poissons Ratio (x) = 0.33627 0.00985
# Poissons Ratio (y) = 0.51577 0.18064
# Poissons Ratio (z) = 0.01939 0.23187
#
# Static dielectric constant tensor:
#      x y z
#    x 3.600600 0.000000 0.000000 
#    y 0.000000 3.447000 0.000000 
#    z 0.000000 0.000000 3.435110 
# 
# 
# High freq. dielectric constant tensor:
#      x y z
#    x 1.771500 0.000000 0.000000 
#    y 0.000000 1.745370 0.000000 
#    z 0.000000 0.000000 1.747490 
# 
# From -- ./inp_files/61946.got.cif
#   From: 2010.06.25/outbox.cif.g09.slc.cpg/sg71_31_cif.got.tgz:61946.got - 2010.06.28 04:59:45.
