data_PCOD8288252
_publ_section_title
;
Structure prediction by ZEFSAII (Michael W. Deem and Ramdas Pophale) SiO2 
 PCOD8288252
Probable space group: I M M M
;
_chemical_formula_sum "Si O2"
_cell_formula_units_Z 104
_cell_length_a 35.922188
_cell_length_b 9.039932
_cell_length_c 28.039916
_cell_angle_alpha 90.000000
_cell_angle_beta 90.000000
_cell_angle_gamma 90.000000
_cell_volume 9105.517919
_symmetry_space_group_name_H-M "I M M M"
_symmetry_group_IT_number 71
_symmetry_cell_setting 'orthorhombic'
loop_
_space_group_symop_operation_xyz
x,y,z
-x,-y,z
x,-y,-z
-x,y,-z
-x,-y,-z
x,y,-z
-x,y,z
x,-y,z
1/2+x,1/2+y,1/2+z
1/2-x,1/2-y,1/2+z
1/2+x,1/2-y,1/2-z
1/2-x,1/2+y,1/2-z
1/2-x,1/2-y,1/2-z
1/2+x,1/2+y,1/2-z
1/2-x,1/2+y,1/2+z
1/2+x,1/2-y,1/2+z
loop_
_atom_site_type_symbol
_atom_site_label
_atom_site_fract_x
_atom_site_fract_y
_atom_site_fract_z
Si Si1 0.285839 0.173386 0.945849
Si Si2 0.742535 0.663680 0.641658
Si Si3 0.925468 0.672807 0.443959
Si Si4 0.715910 0.827659 0.724706
Si Si5 0.500000 0.333066 0.056543
Si Si6 0.855139 0.824993 0.601446
Si Si7 0.175733 0.664132 0.686276
O O1 0.250331 0.218027 0.912754
O O2 0.322121 0.265815 0.931850
O O3 0.295415 0.000000 0.938408
O O4 0.274808 0.209365 0.000000
O O5 0.725182 0.500000 0.641633
O O6 0.713091 0.766337 0.670370
O O7 0.782506 0.664930 0.666666
O O8 0.919446 0.699112 0.500000
O O9 0.925781 0.500000 0.431523
O O10 0.893167 0.753842 0.415652
O O11 0.963855 0.744521 0.425660
O O12 0.750000 0.750000 0.750000
O O13 0.678819 0.796265 0.756916
O O14 0.724408 0.000000 0.722212
O O15 0.500000 0.500000 0.077437
O O16 0.500000 0.338684 0.000000
O O17 0.848966 0.780913 0.657004
O O18 0.857407 0.000000 0.596965
O O19 0.158460 0.500000 0.679765
#
# Coordination Sequence:
#
# PCOD8288252 Si02
#       7
#    16  16  16  16   8  16  16
#     4   9  17  28  37  44  59  83 105 123 148 185
#     4   8  14  23  34  46  58  74  97 122 146 174
#     4  10  19  30  42  52  64  84 104 119 143 183
#     4   9  15  22  33  46  59  75  94 117 144 174
#     4   9  17  29  43  57  69  77  93 125 153 171
#     4  11  20  26  35  51  66  79  98 125 154 180
#     4   8  15  26  35  44  60  80  98 115 141 180
#
# _framework density 11.421645
#
# number of rings (size 3 to 8) (size 9 to 14) (size 15 to 20)
#    0.000    2.846    0.000    4.846    0.000   10.154 
#    0.000    0.000    0.000    0.000    0.000    0.000 
#    0.000    0.000    0.000    0.000    0.000    0.000 
#
# Total GULP energy -644294.268369 kJ/mol
# GULP energy per Si atom -12390.274392 kJ/mol
# Density = 1.139565 g / cm^3
# Si number density = 11.421645 Si / 1000 Ang^3
#
#
#
# Elastic Constant Matrix: (Units=GPa)
#
#
# Indices 1 2 3 4 5 6 
#
# 1 32.5251 31.5227 39.2831 0.0000 0.0000 0.0000
# 2 31.5227 81.5500 43.3542 0.0000 0.0000 0.0000
# 3 39.2831 43.3542 81.9959 0.0000 0.0000 0.0000
# 4 0.0000 0.0000 0.0000 16.7696 0.0000 0.0000
# 5 0.0000 0.0000 0.0000 0.0000 12.1004 0.0000
# 6 0.0000 0.0000 0.0000 0.0000 0.0000 15.2925
#
#
#
# Elastic Compliance Matrix: (Units=1/GPa)
#
#
# Indices 1 2 3 4 5 6 
#
# 1 0.085229 -0.015631 -0.032567 0.000000 0.000000 0.000000
# 2 -0.015631 0.019924 -0.003046 0.000000 0.000000 0.000000
# 3 -0.032567 -0.003046 0.029409 0.000000 0.000000 0.000000
# 4 0.000000 0.000000 0.000000 0.059632 0.000000 0.000000
# 5 0.000000 0.000000 0.000000 0.000000 0.082642 0.000000
# 6 0.000000 0.000000 0.000000 0.000000 0.000000 0.065392
#
#
# Mechanical properties :
#
#
# Convention : Reuss Voigt Hill
#
# Bulk Modulus (GPa) = 31.17886 47.15456 39.16671
# Shear Modulus (GPa) = 10.97926 14.29326 12.63626
#
# Velocity S-wave (km/s) = 3.10380 3.54138 3.32978
# Velocity P-wave (km/s) = 6.34051 7.62212 7.01066
#
# Compressibility (1/GPa) = 0.03207302
#
# Stress axis : x y z
#
# Youngs Moduli (GPa) = 11.73316 50.19139 34.00371
#
# Poissons Ratio (x) = 0.78454 1.10740
# Poissons Ratio (y) = 0.18340 0.10357
# Poissons Ratio (z) = 0.38211 0.15287
#
# Static dielectric constant tensor:
#      x y z
#    x 2.199910 0.000000 0.000000 
#    y 0.000000 2.670850 0.000000 
#    z 0.000000 0.000000 3.807900 
# 
# 
# High freq. dielectric constant tensor:
#      x y z
#    x 1.378820 0.000000 0.000000 
#    y 0.000000 1.444920 0.000000 
#    z 0.000000 0.000000 1.419810 
# 
# From -- ./inp_files/71148.got.cif
#   From: 2010.06.25/outbox.cif.g09.slc.cpg/sg71_36_cif.got.tgz:71148.got - 2010.06.28 04:59:45.
