data_PCOD8288309
_publ_section_title
;
Structure prediction by ZEFSAII (Michael W. Deem and Ramdas Pophale) SiO2 
 PCOD8288309
Probable space group: I M M M
;
_chemical_formula_sum "Si O2"
_cell_formula_units_Z 104
_cell_length_a 26.517798
_cell_length_b 24.027637
_cell_length_c 9.432179
_cell_angle_alpha 90.000000
_cell_angle_beta 90.000000
_cell_angle_gamma 90.000000
_cell_volume 6009.807402
_symmetry_space_group_name_H-M "I M M M"
_symmetry_group_IT_number 71
_symmetry_cell_setting 'orthorhombic'
loop_
_space_group_symop_operation_xyz
x,y,z
-x,-y,z
x,-y,-z
-x,y,-z
-x,-y,-z
x,y,-z
-x,y,z
x,-y,z
1/2+x,1/2+y,1/2+z
1/2-x,1/2-y,1/2+z
1/2+x,1/2-y,1/2-z
1/2-x,1/2+y,1/2-z
1/2-x,1/2-y,1/2-z
1/2+x,1/2+y,1/2-z
1/2-x,1/2+y,1/2+z
1/2+x,1/2-y,1/2+z
loop_
_atom_site_type_symbol
_atom_site_label
_atom_site_fract_x
_atom_site_fract_y
_atom_site_fract_z
Si Si1 0.500000 0.933716 0.340084
Si Si2 0.216419 0.135938 0.334289
Si Si3 0.182848 0.353707 0.665936
Si Si4 0.854375 0.763859 0.666778
Si Si5 0.443418 0.338439 0.830537
Si Si6 0.875998 0.061857 0.667980
Si Si7 0.593872 0.935876 0.837548
O O1 0.500000 0.910851 0.500000
O O2 0.450603 0.911361 0.259845
O O3 0.500000 0.000000 0.335146
O O4 0.229660 0.133193 0.500000
O O5 0.266631 0.129225 0.244885
O O6 0.190905 0.194611 0.294477
O O7 0.178609 0.086310 0.289990
O O8 0.194775 0.347052 0.500000
O O9 0.159146 0.296626 0.729698
O O10 0.144307 0.402965 0.697459
O O11 0.860605 0.758897 0.500000
O O12 0.907667 0.788108 0.726199
O O13 0.500000 0.331090 0.769725
O O14 0.420292 0.397273 0.776200
O O15 0.443809 0.338328 0.000000
O O16 0.879578 0.058887 0.500000
O O17 0.882511 0.000000 0.734092
O O18 0.604968 0.000000 0.802853
O O19 0.577028 0.927725 0.000000
#
# Coordination Sequence:
#
# PCOD8288309 Si02
#       7
#     8  16  16  16  16  16  16
#     4   9  17  31  51  69  85 111 145 177 210 257
#     4   9  17  29  45  62  87 120 147 179 223 260
#     4  10  19  30  45  66  88 113 150 187 219 261
#     4   8  15  28  42  60  86 114 147 184 220 261
#     4   8  13  22  37  58  86 117 144 177 220 260
#     4   8  14  24  38  59  87 117 147 176 213 264
#     4   9  18  32  47  64  89 117 143 178 225 266
#
# _framework density 17.305046999999998
#
# number of rings (size 3 to 8) (size 9 to 14) (size 15 to 20)
#    0.000    3.308    0.000    2.538    0.000    2.462 
#    1.385    1.538    0.000    0.000    0.000    0.000 
#    0.000    6.000    0.000    5.538    0.000    6.154 
#
# Total GULP energy -644509.587830 kJ/mol
# GULP energy per Si atom -12394.415151 kJ/mol
# Density = 1.726566 g / cm^3
# Si number density = 17.305047 Si / 1000 Ang^3
#
#
#
# Elastic Constant Matrix: (Units=GPa)
#
#
# Indices 1 2 3 4 5 6 
#
# 1 147.6284 40.7996 44.6969 0.0000 0.0000 0.0000
# 2 40.7996 61.9486 16.1975 0.0000 0.0000 0.0000
# 3 44.6969 16.1975 38.3463 0.0000 0.0000 0.0000
# 4 0.0000 0.0000 0.0000 10.2975 0.0000 0.0000
# 5 0.0000 0.0000 0.0000 0.0000 24.4899 0.0000
# 6 0.0000 0.0000 0.0000 0.0000 0.0000 15.2824
#
#
#
# Elastic Compliance Matrix: (Units=1/GPa)
#
#
# Indices 1 2 3 4 5 6 
#
# 1 0.011519 -0.004582 -0.011492 0.000000 0.000000 0.000000
# 2 -0.004582 0.019969 -0.003094 0.000000 0.000000 0.000000
# 3 -0.011492 -0.003094 0.040780 0.000000 0.000000 0.000000
# 4 0.000000 0.000000 0.000000 0.097111 0.000000 0.000000
# 5 0.000000 0.000000 0.000000 0.000000 0.040833 0.000000
# 6 0.000000 0.000000 0.000000 0.000000 0.000000 0.065435
#
#
# Mechanical properties :
#
#
# Convention : Reuss Voigt Hill
#
# Bulk Modulus (GPa) = 29.47003 50.14571 39.80787
# Shear Modulus (GPa) = 15.37069 19.76257 17.56663
#
# Velocity S-wave (km/s) = 2.98354 3.38303 3.18955
# Velocity P-wave (km/s) = 5.37916 6.65585 6.05127
#
# Compressibility (1/GPa) = 0.03393278
#
# Stress axis : x y z
#
# Youngs Moduli (GPa) = 86.81026 50.07722 24.52186
#
# Poissons Ratio (x) = 0.22945 0.28180
# Poissons Ratio (y) = 0.39776 0.07587
# Poissons Ratio (z) = 0.99760 0.15495
#
# Static dielectric constant tensor:
#      x y z
#    x 3.340280 0.000000 0.000000 
#    y 0.000000 3.637930 0.000000 
#    z 0.000000 0.000000 2.757280 
# 
# 
# High freq. dielectric constant tensor:
#      x y z
#    x 1.674880 0.000000 0.000000 
#    y 0.000000 1.667030 0.000000 
#    z 0.000000 0.000000 1.612570 
# 
# From -- ./inp_files/13281.got.cif
#   From: 2010.06.25/outbox.cif.g09.slc.cpg/sg71_7_cif.got.tgz:13281.got - 2010.06.28 04:59:45.
