data_PCOD8288254
_publ_section_title
;
Structure prediction by ZEFSAII (Michael W. Deem and Ramdas Pophale) SiO2 
 PCOD8288254
Probable space group: I M M M
;
_chemical_formula_sum "Si O2"
_cell_formula_units_Z 88
_cell_length_a 8.959167
_cell_length_b 23.174342
_cell_length_c 33.484299
_cell_angle_alpha 90.000000
_cell_angle_beta 90.000000
_cell_angle_gamma 90.000000
_cell_volume 6952.103918
_symmetry_space_group_name_H-M "I M M M"
_symmetry_group_IT_number 71
_symmetry_cell_setting 'orthorhombic'
loop_
_space_group_symop_operation_xyz
x,y,z
-x,-y,z
x,-y,-z
-x,y,-z
-x,-y,-z
x,y,-z
-x,y,z
x,-y,z
1/2+x,1/2+y,1/2+z
1/2-x,1/2-y,1/2+z
1/2+x,1/2-y,1/2-z
1/2-x,1/2+y,1/2-z
1/2-x,1/2-y,1/2-z
1/2+x,1/2+y,1/2-z
1/2-x,1/2+y,1/2+z
1/2+x,1/2-y,1/2+z
loop_
_atom_site_type_symbol
_atom_site_label
_atom_site_fract_x
_atom_site_fract_y
_atom_site_fract_z
Si Si1 0.176997 0.876554 0.343823
Si Si2 0.331703 0.568413 0.000000
Si Si3 0.834308 0.729256 0.190411
Si Si4 0.174730 0.565414 0.769901
Si Si5 0.325698 0.067787 0.419503
Si Si6 0.334963 0.171781 0.776632
O O1 0.230403 0.810910 0.336884
O O2 0.233882 0.919337 0.309408
O O3 0.240811 0.897750 0.385476
O O4 0.000000 0.878053 0.344678
O O5 0.242371 0.589919 0.038791
O O6 0.337472 0.500000 0.000000
O O7 0.500000 0.593738 0.000000
O O8 0.770830 0.794710 0.192246
O O9 0.839194 0.704433 0.234676
O O10 0.000000 0.731561 0.171858
O O11 0.208896 0.500000 0.757199
O O12 0.222456 0.606620 0.732748
O O13 0.000000 0.575260 0.779842
O O14 0.500000 0.082695 0.418492
O O15 0.297990 0.000000 0.413241
O O16 0.500000 0.170211 0.795582
#
# Coordination Sequence:
#
# PCOD8288254 Si02
#       6
#    16   8  16  16  16  16
#     4  11  20  27  37  53  71  89 112 145 180 210
#     4   9  17  29  43  57  71  87 111 141 170 203
#     4   9  16  26  38  50  65  86 111 138 171 209
#     4   9  17  28  39  51  69  92 115 140 174 214
#     4  10  19  30  42  54  70  92 115 139 172 213
#     4   8  14  24  37  51  66  85 110 139 169 203
#
# _framework density 12.658039
#
# number of rings (size 3 to 8) (size 9 to 14) (size 15 to 20)
#    0.000    2.636    0.000    4.636    0.000    9.091 
#    0.000    0.000    0.000    0.000    0.000    0.000 
#    0.000    0.000    0.000    0.000    0.000    0.000 
#
# Total GULP energy -545429.022608 kJ/mol
# GULP energy per Si atom -12396.114150 kJ/mol
# Density = 1.262923 g / cm^3
# Si number density = 12.658039 Si / 1000 Ang^3
#
#
#
# Elastic Constant Matrix: (Units=GPa)
#
#
# Indices 1 2 3 4 5 6 
#
# 1 95.2829 44.5436 37.0494 0.0000 0.0000 0.0000
# 2 44.5436 88.9817 40.6318 0.0000 0.0000 0.0000
# 3 37.0494 40.6318 44.4316 0.0000 0.0000 0.0000
# 4 0.0000 0.0000 0.0000 13.5599 0.0000 0.0000
# 5 0.0000 0.0000 0.0000 0.0000 19.2050 0.0000
# 6 0.0000 0.0000 0.0000 0.0000 0.0000 18.2649
#
#
#
# Elastic Compliance Matrix: (Units=1/GPa)
#
#
# Indices 1 2 3 4 5 6 
#
# 1 0.016078 -0.003308 -0.010382 0.000000 0.000000 0.000000
# 2 -0.003308 0.019976 -0.015510 0.000000 0.000000 0.000000
# 3 -0.010382 -0.015510 0.045347 0.000000 0.000000 0.000000
# 4 0.000000 0.000000 0.000000 0.073747 0.000000 0.000000
# 5 0.000000 0.000000 0.000000 0.000000 0.052070 0.000000
# 6 0.000000 0.000000 0.000000 0.000000 0.000000 0.054750
#
#
# Mechanical properties :
#
#
# Convention : Reuss Voigt Hill
#
# Bulk Modulus (GPa) = 43.47363 52.57178 48.02270
# Shear Modulus (GPa) = 15.24230 17.30406 16.27318
#
# Velocity S-wave (km/s) = 3.47386 3.70136 3.58942
# Velocity P-wave (km/s) = 7.10701 7.73882 7.42963
#
# Compressibility (1/GPa) = 0.02300245
#
# Stress axis : x y z
#
# Youngs Moduli (GPa) = 62.19539 50.05899 22.05231
#
# Poissons Ratio (x) = 0.16560 0.22894
# Poissons Ratio (y) = 0.20575 0.34202
# Poissons Ratio (z) = 0.64570 0.77640
#
# Static dielectric constant tensor:
#      x y z
#    x 2.770910 0.000000 0.000000 
#    y 0.000000 2.668520 0.000000 
#    z 0.000000 0.000000 2.341230 
# 
# 
# High freq. dielectric constant tensor:
#      x y z
#    x 1.496840 0.000000 0.000000 
#    y 0.000000 1.461730 0.000000 
#    z 0.000000 0.000000 1.435850 
# 
# From -- ./inp_files/13503.got.cif
#   From: 2010.06.25/outbox.cif.g09.slc.cpg/sg71_7_cif.got.tgz:13503.got - 2010.06.28 04:59:45.
