data_PCOD8288582
_publ_section_title
;
Structure prediction by ZEFSAII (Michael W. Deem and Ramdas Pophale) SiO2 
 PCOD8288582
Probable space group: I M M M
;
_chemical_formula_sum "Si O2"
_cell_formula_units_Z 96
_cell_length_a 25.123936
_cell_length_b 8.915715
_cell_length_c 25.345935
_cell_angle_alpha 90.000000
_cell_angle_beta 90.000000
_cell_angle_gamma 90.000000
_cell_volume 5677.435024
_symmetry_space_group_name_H-M "I M M M"
_symmetry_group_IT_number 71
_symmetry_cell_setting 'orthorhombic'
loop_
_space_group_symop_operation_xyz
x,y,z
-x,-y,z
x,-y,-z
-x,y,-z
-x,-y,-z
x,y,-z
-x,y,z
x,-y,z
1/2+x,1/2+y,1/2+z
1/2-x,1/2-y,1/2+z
1/2+x,1/2-y,1/2-z
1/2-x,1/2+y,1/2-z
1/2-x,1/2-y,1/2-z
1/2+x,1/2+y,1/2-z
1/2-x,1/2+y,1/2+z
1/2+x,1/2-y,1/2+z
loop_
_atom_site_type_symbol
_atom_site_label
_atom_site_fract_x
_atom_site_fract_y
_atom_site_fract_z
Si Si1 0.937281 0.825942 0.393537
Si Si2 0.436755 0.331524 0.500000
Si Si3 0.360436 0.821611 0.187248
Si Si4 0.563216 0.830586 0.000000
Si Si5 0.256018 0.325015 0.806164
Si Si6 0.560921 0.177464 0.394286
Si Si7 0.860704 0.674271 0.193155
O O1 0.909837 0.741271 0.345259
O O2 0.916079 0.755659 0.448248
O O3 0.000000 0.801309 0.387051
O O4 0.921921 0.000000 0.393055
O O5 0.414485 0.500000 0.500000
O O6 0.500000 0.327664 0.500000
O O7 0.415903 0.247663 0.552045
O O8 0.304657 0.756684 0.163389
O O9 0.366110 0.760456 0.247458
O O10 0.359215 0.000000 0.183617
O O11 0.500000 0.831323 0.000000
O O12 0.585742 0.000000 0.000000
O O13 0.269262 0.500000 0.800556
O O14 0.250000 0.250000 0.750000
O O15 0.197976 0.300040 0.832855
O O16 0.500000 0.225025 0.384195
O O17 0.595398 0.244985 0.345882
O O18 0.566911 0.000000 0.399315
O O19 0.872794 0.500000 0.198643
#
# Coordination Sequence:
#
# PCOD8288582 Si02
#       7
#    16   8  16   8  16  16  16
#     4  10  20  33  49  71  99 129 159 192 233 282
#     4   9  17  29  43  62  89 118 149 185 225 269
#     4  10  19  31  48  71  97 125 158 195 237 281
#     4   9  17  31  51  72  93 122 161 199 233 273
#     4   9  16  29  47  66  91 123 160 198 235 278
#     4   9  16  28  47  68  89 117 153 188 223 268
#     4   8  16  29  46  69  94 121 155 194 233 275
#
# _framework density 16.909044000000002
#
# number of rings (size 3 to 8) (size 9 to 14) (size 15 to 20)
#    0.000    2.833    0.000    3.000    0.000    3.667 
#    0.000    6.667    0.000    3.000    0.000    4.667 
#    0.000    0.000    0.000    0.000    0.000    0.000 
#
# Total GULP energy -594896.816074 kJ/mol
# GULP energy per Si atom -12393.683668 kJ/mol
# Density = 1.687056 g / cm^3
# Si number density = 16.909044 Si / 1000 Ang^3
#
#
#
# Elastic Constant Matrix: (Units=GPa)
#
#
# Indices 1 2 3 4 5 6 
#
# 1 78.2046 41.5141 56.5462 0.0000 0.0000 0.0000
# 2 41.5141 88.6115 42.0767 0.0000 0.0000 0.0000
# 3 56.5462 42.0767 109.0093 0.0000 0.0000 0.0000
# 4 0.0000 0.0000 0.0000 22.7829 0.0000 0.0000
# 5 0.0000 0.0000 0.0000 0.0000 5.8658 0.0000
# 6 0.0000 0.0000 0.0000 0.0000 0.0000 24.6025
#
#
#
# Elastic Compliance Matrix: (Units=1/GPa)
#
#
# Indices 1 2 3 4 5 6 
#
# 1 0.022980 -0.006251 -0.009507 0.000000 0.000000 0.000000
# 2 -0.006251 0.015518 -0.002747 0.000000 0.000000 0.000000
# 3 -0.009507 -0.002747 0.015166 0.000000 0.000000 0.000000
# 4 0.000000 0.000000 0.000000 0.043893 0.000000 0.000000
# 5 0.000000 0.000000 0.000000 0.000000 0.170480 0.000000
# 6 0.000000 0.000000 0.000000 0.000000 0.000000 0.040646
#
#
# Mechanical properties :
#
#
# Convention : Reuss Voigt Hill
#
# Bulk Modulus (GPa) = 60.05266 61.78883 60.92075
# Shear Modulus (GPa) = 14.23506 19.69612 16.96559
#
# Velocity S-wave (km/s) = 2.90463 3.41666 3.17100
# Velocity P-wave (km/s) = 6.84408 7.22399 7.03660
#
# Compressibility (1/GPa) = 0.01665205
#
# Stress axis : x y z
#
# Youngs Moduli (GPa) = 43.51654 64.43930 65.93871
#
# Poissons Ratio (x) = 0.40284 0.62690
# Poissons Ratio (y) = 0.27204 0.18115
# Poissons Ratio (z) = 0.41372 0.17703
#
# Static dielectric constant tensor:
#      x y z
#    x 3.380640 0.000000 0.000000 
#    y 0.000000 3.212690 0.000000 
#    z 0.000000 0.000000 3.213620 
# 
# 
# High freq. dielectric constant tensor:
#      x y z
#    x 1.638090 0.000000 0.000000 
#    y 0.000000 1.651520 0.000000 
#    z 0.000000 0.000000 1.634070 
# 
# From -- ./inp_files/61880.got.cif
#   From: 2010.06.25/outbox.cif.g09.slc.cpg/sg71_31_cif.got.tgz:61880.got - 2010.06.28 04:59:45.
