data_PCOD8288816
_publ_section_title
;
Structure prediction by ZEFSAII (Michael W. Deem and Ramdas Pophale) SiO2 
 PCOD8288816
Probable space group: I M M M
;
_chemical_formula_sum "Si O2"
_cell_formula_units_Z 128
_cell_length_a 16.460652
_cell_length_b 24.041736
_cell_length_c 18.066776
_cell_angle_alpha 90.000000
_cell_angle_beta 90.000000
_cell_angle_gamma 90.000000
_cell_volume 7149.793807
_symmetry_space_group_name_H-M "I M M M"
_symmetry_group_IT_number 71
_symmetry_cell_setting 'orthorhombic'
loop_
_space_group_symop_operation_xyz
x,y,z
-x,-y,z
x,-y,-z
-x,y,-z
-x,-y,-z
x,y,-z
-x,y,z
x,-y,z
1/2+x,1/2+y,1/2+z
1/2-x,1/2-y,1/2+z
1/2+x,1/2-y,1/2-z
1/2-x,1/2+y,1/2-z
1/2-x,1/2-y,1/2-z
1/2+x,1/2+y,1/2-z
1/2-x,1/2+y,1/2+z
1/2+x,1/2-y,1/2+z
loop_
_atom_site_type_symbol
_atom_site_label
_atom_site_fract_x
_atom_site_fract_y
_atom_site_fract_z
Si Si1 0.592206 0.646276 0.414125
Si Si2 0.177780 0.562153 0.783300
Si Si3 0.593566 0.173132 0.708933
Si Si4 0.907354 0.130839 0.327687
Si Si5 0.792186 0.062519 0.582708
Si Si6 0.159295 0.063893 0.801881
Si Si7 0.178542 0.245894 0.691700
Si Si8 0.184795 0.259592 0.086650
O O1 0.593883 0.632473 0.500000
O O2 0.500000 0.647115 0.383587
O O3 0.644669 0.598179 0.376291
O O4 0.631110 0.705644 0.396979
O O5 0.140510 0.500000 0.775763
O O6 0.108125 0.607996 0.773763
O O7 0.215821 0.570961 0.864228
O O8 0.247256 0.571338 0.721859
O O9 0.500000 0.182703 0.689290
O O10 0.615374 0.205878 0.785154
O O11 0.647292 0.191640 0.637809
O O12 0.863263 0.106377 0.400007
O O13 0.900090 0.086236 0.261999
O O14 0.866222 0.187431 0.300820
O O15 0.000000 0.142298 0.348531
O O16 0.760944 0.073486 0.500000
O O17 0.827201 0.000000 0.592442
O O18 0.137468 0.000000 0.816779
O O19 0.250000 0.250000 0.750000
O O20 0.221054 0.252201 0.610784
O O21 0.182932 0.276448 0.000000
#
# Coordination Sequence:
#
# PCOD8288816 Si02
#       8
#    16  16  16  16  16  16  16  16
#     4  10  20  32  47  71 102 129 155 195 246 294
#     4   9  19  35  53  73  96 126 166 205 241 287
#     4  11  21  33  53  78 104 131 161 204 255 304
#     4  11  21  31  46  70  98 125 158 203 250 289
#     4   9  18  33  51  69  94 132 172 204 235 279
#     4  10  19  32  50  69  94 130 168 201 234 284
#     4  10  20  34  52  72  96 130 169 205 244 294
#     4  10  20  35  55  75  98 132 172 207 241 291
#
# _framework density 17.902614
#
# number of rings (size 3 to 8) (size 9 to 14) (size 15 to 20)
#    0.000    2.000    0.000    7.500    0.000    5.250 
#    0.000    1.250    0.000    1.125    0.000    2.625 
#    0.000    0.000    0.000   10.750    0.000    0.000 
#
# Total GULP energy -793493.951344 kJ/mol
# GULP energy per Si atom -12398.342990 kJ/mol
# Density = 1.786187 g / cm^3
# Si number density = 17.902614 Si / 1000 Ang^3
#
#
#
# Elastic Constant Matrix: (Units=GPa)
#
#
# Indices 1 2 3 4 5 6 
#
# 1 58.9333 31.8219 20.4462 0.0000 0.0000 0.0000
# 2 31.8219 120.5022 35.5217 -0.0001 0.0000 0.0000
# 3 20.4462 35.5217 50.4339 0.0000 0.0000 0.0000
# 4 0.0000 -0.0001 0.0000 26.9661 0.0000 0.0000
# 5 0.0000 0.0000 0.0000 0.0000 14.1342 0.0000
# 6 0.0000 0.0000 0.0000 0.0000 0.0000 16.3074
#
#
#
# Elastic Compliance Matrix: (Units=1/GPa)
#
#
# Indices 1 2 3 4 5 6 
#
# 1 0.021068 -0.003844 -0.005834 0.000000 0.000000 0.000000
# 2 -0.003844 0.011174 -0.006312 0.000000 0.000000 0.000000
# 3 -0.005834 -0.006312 0.026639 0.000000 0.000000 0.000000
# 4 0.000000 0.000000 0.000000 0.037084 0.000000 0.000000
# 5 0.000000 0.000000 0.000000 0.000000 0.070750 0.000000
# 6 0.000000 0.000000 0.000000 0.000000 0.000000 0.061322
#
#
# Mechanical properties :
#
#
# Convention : Reuss Voigt Hill
#
# Bulk Modulus (GPa) = 37.17244 45.04989 41.11117
# Shear Modulus (GPa) = 18.58853 20.95350 19.77102
#
# Velocity S-wave (km/s) = 3.22578 3.42485 3.32680
# Velocity P-wave (km/s) = 5.88923 6.39202 6.14577
#
# Compressibility (1/GPa) = 0.02690165
#
# Stress axis : x y z
#
# Youngs Moduli (GPa) = 47.46568 89.49069 37.53943
#
# Poissons Ratio (x) = 0.34399 0.21899
# Poissons Ratio (y) = 0.18245 0.23695
# Poissons Ratio (z) = 0.27690 0.56487
#
# Static dielectric constant tensor:
#      x y z
#    x 3.267650 0.000000 0.000000 
#    y 0.000000 3.473180 0.000000 
#    z 0.000000 0.000000 3.393350 
# 
# 
# High freq. dielectric constant tensor:
#      x y z
#    x 1.673020 0.000000 0.000000 
#    y 0.000000 1.704840 0.000000 
#    z 0.000000 0.000000 1.680440 
# 
# From -- ./inp_files/46667.got.cif
#   From: 2010.06.25/outbox.cif.g09.slc.cpg/sg71_24_cif.got.tgz:46667.got - 2010.06.28 04:59:45.
