data_PCOD8288888
_publ_section_title
;
Structure prediction by ZEFSAII (Michael W. Deem and Ramdas Pophale) SiO2 
 PCOD8288888
Probable space group: I M M M
;
_chemical_formula_sum "Si O2"
_cell_formula_units_Z 104
_cell_length_a 9.846582
_cell_length_b 28.730229
_cell_length_c 20.352345
_cell_angle_alpha 90.000000
_cell_angle_beta 90.000000
_cell_angle_gamma 90.000000
_cell_volume 5757.567597
_symmetry_space_group_name_H-M "I M M M"
_symmetry_group_IT_number 71
_symmetry_cell_setting 'orthorhombic'
loop_
_space_group_symop_operation_xyz
x,y,z
-x,-y,z
x,-y,-z
-x,y,-z
-x,-y,-z
x,y,-z
-x,y,z
x,-y,z
1/2+x,1/2+y,1/2+z
1/2-x,1/2-y,1/2+z
1/2+x,1/2-y,1/2-z
1/2-x,1/2+y,1/2-z
1/2-x,1/2-y,1/2-z
1/2+x,1/2+y,1/2-z
1/2-x,1/2+y,1/2+z
1/2+x,1/2-y,1/2+z
loop_
_atom_site_type_symbol
_atom_site_label
_atom_site_fract_x
_atom_site_fract_y
_atom_site_fract_z
Si Si1 0.154484 0.447083 0.382305
Si Si2 0.157291 0.790083 0.828150
Si Si3 0.338893 0.446800 0.000000
Si Si4 0.654119 0.630659 0.426423
Si Si5 0.154449 0.205156 0.677065
Si Si6 0.842506 0.104257 0.631149
Si Si7 0.653146 0.946836 0.270527
O O1 0.178922 0.500000 0.404640
O O2 0.254737 0.415164 0.423558
O O3 0.186376 0.441481 0.305709
O O4 0.000000 0.432317 0.397354
O O5 0.208784 0.830984 0.875580
O O6 0.183649 0.806492 0.753520
O O7 0.243767 0.744778 0.847280
O O8 0.000000 0.778138 0.840862
O O9 0.286947 0.418439 0.936322
O O10 0.281968 0.500000 0.000000
O O11 0.500000 0.447964 0.000000
O O12 0.662551 0.651245 0.500000
O O13 0.500000 0.616797 0.408300
O O14 0.178626 0.159886 0.631717
O O15 0.000000 0.223056 0.669168
O O16 0.760045 0.084134 0.691563
O O17 0.000000 0.091614 0.641858
O O18 0.500000 0.929778 0.285607
O O19 0.669864 0.000000 0.293070
#
# Coordination Sequence:
#
# PCOD8288888 Si02
#       7
#    16  16   8  16  16  16  16
#     4   9  19  35  53  75 104 136 170 210 255 303
#     4   9  18  34  53  73 100 132 164 204 257 310
#     4   9  18  32  49  71 103 141 175 209 254 307
#     4  10  21  36  53  75 104 137 172 209 250 297
#     4   9  18  32  52  77 100 124 163 214 259 298
#     4  10  19  32  51  75 102 134 174 215 256 308
#     4   9  18  32  50  74 103 132 166 212 261 304
#
# _framework density 18.063182999999999
#
# number of rings (size 3 to 8) (size 9 to 14) (size 15 to 20)
#    0.000    2.692    0.000    2.308    0.000    4.923 
#    1.385    6.538    0.000    1.385    0.000    0.000 
#    0.000    0.000    0.000    0.000    0.000    0.000 
#
# Total GULP energy -644826.656952 kJ/mol
# GULP energy per Si atom -12400.512634 kJ/mol
# Density = 1.802207 g / cm^3
# Si number density = 18.063183 Si / 1000 Ang^3
#
#
#
# Elastic Constant Matrix: (Units=GPa)
#
#
# Indices 1 2 3 4 5 6 
#
# 1 64.3021 49.7665 32.0605 0.0000 0.0000 0.0000
# 2 49.7665 105.3555 48.4755 -0.0001 0.0000 0.0000
# 3 32.0605 48.4755 63.1487 -0.0010 0.0002 -0.0001
# 4 0.0000 -0.0001 -0.0010 28.0494 0.0001 0.0000
# 5 0.0000 0.0000 0.0002 0.0001 20.1668 -0.0001
# 6 0.0000 0.0000 -0.0001 0.0000 -0.0001 35.1936
#
#
#
# Elastic Compliance Matrix: (Units=1/GPa)
#
#
# Indices 1 2 3 4 5 6 
#
# 1 0.025814 -0.009529 -0.005791 0.000000 0.000000 0.000000
# 2 -0.009529 0.018193 -0.009127 0.000000 0.000000 0.000000
# 3 -0.005791 -0.009127 0.025782 0.000001 0.000000 0.000000
# 4 0.000000 0.000000 0.000001 0.035651 0.000000 0.000000
# 5 0.000000 0.000000 0.000000 0.000000 0.049586 0.000000
# 6 0.000000 0.000000 0.000000 0.000000 0.000000 0.028414
#
#
# Mechanical properties :
#
#
# Convention : Reuss Voigt Hill
#
# Bulk Modulus (GPa) = 47.86055 54.82346 51.34201
# Shear Modulus (GPa) = 20.89428 23.51556 22.20492
#
# Velocity S-wave (km/s) = 3.40477 3.61203 3.50993
# Velocity P-wave (km/s) = 6.48153 6.91466 6.70160
#
# Compressibility (1/GPa) = 0.02089404
#
# Stress axis : x y z
#
# Youngs Moduli (GPa) = 38.73876 54.96721 38.78668
#
# Poissons Ratio (x) = 0.52380 0.22460
# Poissons Ratio (y) = 0.36915 0.35402
# Poissons Ratio (z) = 0.22432 0.50171
#
# Static dielectric constant tensor:
#      x y z
#    x 3.247840 0.000000 0.000000 
#    y 0.000000 3.306440 0.000000 
#    z 0.000000 0.000000 3.284610 
# 
# 
# High freq. dielectric constant tensor:
#      x y z
#    x 1.692020 0.000000 0.000000 
#    y 0.000000 1.695750 0.000000 
#    z 0.000000 0.000000 1.693010 
# 
# From -- ./inp_files/16942.got.cif
#   From: 2010.06.25/outbox.cif.g09.slc.cpg/sg71_9_cif.got.tgz:16942.got - 2010.06.28 04:59:45.
