data_PCOD8288885
_publ_section_title
;
Structure prediction by ZEFSAII (Michael W. Deem and Ramdas Pophale) SiO2 
 PCOD8288885
Probable space group: I M M M
;
_chemical_formula_sum "Si O2"
_cell_formula_units_Z 104
_cell_length_a 9.422962
_cell_length_b 29.043784
_cell_length_c 20.557010
_cell_angle_alpha 90.000000
_cell_angle_beta 90.000000
_cell_angle_gamma 90.000000
_cell_volume 5626.011106
_symmetry_space_group_name_H-M "I M M M"
_symmetry_group_IT_number 71
_symmetry_cell_setting 'orthorhombic'
loop_
_space_group_symop_operation_xyz
x,y,z
-x,-y,z
x,-y,-z
-x,y,-z
-x,-y,-z
x,y,-z
-x,y,z
x,-y,z
1/2+x,1/2+y,1/2+z
1/2-x,1/2-y,1/2+z
1/2+x,1/2-y,1/2-z
1/2-x,1/2+y,1/2-z
1/2-x,1/2-y,1/2-z
1/2+x,1/2+y,1/2-z
1/2-x,1/2+y,1/2+z
1/2+x,1/2-y,1/2+z
loop_
_atom_site_type_symbol
_atom_site_label
_atom_site_fract_x
_atom_site_fract_y
_atom_site_fract_z
Si Si1 0.167529 0.450547 0.381115
Si Si2 0.165280 0.792204 0.829242
Si Si3 0.331282 0.446981 0.000000
Si Si4 0.835512 0.645846 0.427201
Si Si5 0.162497 0.202362 0.679817
Si Si6 0.834828 0.103848 0.629150
Si Si7 0.660191 0.947198 0.264295
O O1 0.228412 0.500000 0.407107
O O2 0.210034 0.408092 0.427017
O O3 0.222911 0.441260 0.308116
O O4 0.000000 0.455408 0.376655
O O5 0.236613 0.828171 0.877201
O O6 0.192409 0.809306 0.755576
O O7 0.233853 0.742602 0.843107
O O8 0.000000 0.788794 0.845639
O O9 0.274701 0.418625 0.937378
O O10 0.274194 0.500000 0.000000
O O11 0.500000 0.447488 0.000000
O O12 0.811336 0.664781 0.500000
O O13 0.000000 0.651514 0.406382
O O14 0.192636 0.158700 0.633249
O O15 0.000000 0.219042 0.671888
O O16 0.759556 0.081757 0.689900
O O17 0.000000 0.092823 0.635626
O O18 0.500000 0.927915 0.269171
O O19 0.664490 0.000000 0.286423
#
# Coordination Sequence:
#
# PCOD8288885 Si02
#       7
#    16  16   8  16  16  16  16
#     4   8  15  29  49  74 103 133 168 211 254 297
#     4  10  20  35  55  77 103 135 167 209 263 314
#     4   9  18  32  49  71 101 135 167 201 248 303
#     4  10  20  33  51  76 104 137 174 210 250 298
#     4   9  19  35  55  79 103 127 166 216 263 310
#     4  10  19  32  51  74  99 130 168 210 253 303
#     4   9  17  29  47  72 101 132 166 207 255 301
#
# _framework density 18.485565999999999
#
# number of rings (size 3 to 8) (size 9 to 14) (size 15 to 20)
#    0.000    2.692    0.000    2.769    0.000    2.769 
#    1.385    1.923    0.000    2.769    0.000    1.077 
#    0.000    0.000    0.000    0.000    0.000    0.000 
#
# Total GULP energy -644577.023828 kJ/mol
# GULP energy per Si atom -12395.711997 kJ/mol
# Density = 1.844349 g / cm^3
# Si number density = 18.485566 Si / 1000 Ang^3
#
#
#
# Elastic Constant Matrix: (Units=GPa)
#
#
# Indices 1 2 3 4 5 6 
#
# 1 59.0635 47.9218 32.7191 0.0000 0.0000 0.0000
# 2 47.9218 110.6454 53.1407 -0.0001 0.0000 0.0000
# 3 32.7191 53.1407 65.8300 -0.0006 0.0000 0.0000
# 4 0.0000 -0.0001 -0.0006 13.5717 0.0000 0.0000
# 5 0.0000 0.0000 0.0000 0.0000 19.8151 0.0000
# 6 0.0000 0.0000 0.0000 0.0000 0.0000 23.4310
#
#
#
# Elastic Compliance Matrix: (Units=1/GPa)
#
#
# Indices 1 2 3 4 5 6 
#
# 1 0.027799 -0.008826 -0.006692 0.000000 0.000000 0.000000
# 2 -0.008826 0.017563 -0.009791 0.000000 0.000000 0.000000
# 3 -0.006692 -0.009791 0.026420 0.000001 0.000000 0.000000
# 4 0.000000 0.000000 0.000001 0.073683 0.000000 0.000000
# 5 0.000000 0.000000 0.000000 0.000000 0.050466 0.000000
# 6 0.000000 0.000000 0.000000 0.000000 0.000000 0.042678
#
#
# Mechanical properties :
#
#
# Convention : Reuss Voigt Hill
#
# Bulk Modulus (GPa) = 47.24878 55.90022 51.57450
# Shear Modulus (GPa) = 16.87578 18.14739 17.51158
#
# Velocity S-wave (km/s) = 3.02473 3.13662 3.08118
# Velocity P-wave (km/s) = 6.14931 6.58964 6.37328
#
# Compressibility (1/GPa) = 0.02116457
#
# Stress axis : x y z
#
# Youngs Moduli (GPa) = 35.97219 56.93844 37.84983
#
# Poissons Ratio (x) = 0.50255 0.25329
# Poissons Ratio (y) = 0.31749 0.37057
# Poissons Ratio (z) = 0.24073 0.55746
#
# Static dielectric constant tensor:
#      x y z
#    x 3.148280 0.000000 0.000000 
#    y 0.000000 3.611380 0.000000 
#    z 0.000000 0.000000 3.392620 
# 
# 
# High freq. dielectric constant tensor:
#      x y z
#    x 1.687100 0.000000 0.000000 
#    y 0.000000 1.724900 0.000000 
#    z 0.000000 0.000000 1.709500 
# 
# From -- ./inp_files/51159.got.cif
#   From: 2010.06.25/outbox.cif.g09.slc.cpg/sg71_26_cif.got.tgz:51159.got - 2010.06.28 04:59:45.
