data_PCOD8288527
_publ_section_title
;
Structure prediction by ZEFSAII (Michael W. Deem and Ramdas Pophale) SiO2 
 PCOD8288527
Probable space group: I M M M
;
_chemical_formula_sum "Si O2"
_cell_formula_units_Z 112
_cell_length_a 15.507555
_cell_length_b 28.406615
_cell_length_c 12.954125
_cell_angle_alpha 90.000000
_cell_angle_beta 90.000000
_cell_angle_gamma 90.000000
_cell_volume 5706.514154
_symmetry_space_group_name_H-M "I M M M"
_symmetry_group_IT_number 71
_symmetry_cell_setting 'orthorhombic'
loop_
_space_group_symop_operation_xyz
x,y,z
-x,-y,z
x,-y,-z
-x,y,-z
-x,-y,-z
x,y,-z
-x,y,z
x,-y,z
1/2+x,1/2+y,1/2+z
1/2-x,1/2-y,1/2+z
1/2+x,1/2-y,1/2-z
1/2-x,1/2+y,1/2-z
1/2-x,1/2-y,1/2-z
1/2+x,1/2+y,1/2-z
1/2-x,1/2+y,1/2+z
1/2+x,1/2-y,1/2+z
loop_
_atom_site_type_symbol
_atom_site_label
_atom_site_fract_x
_atom_site_fract_y
_atom_site_fract_z
Si Si1 0.699715 0.863785 0.242757
Si Si2 0.906686 0.946504 0.707184
Si Si3 0.406460 0.274979 0.378806
Si Si4 0.858963 0.120542 0.119139
Si Si5 0.598698 0.207212 0.117568
Si Si6 0.726061 0.945654 0.381843
Si Si7 0.756894 0.217487 0.620775
O O1 0.757389 0.879149 0.145461
O O2 0.618273 0.835953 0.195798
O O3 0.671172 0.910367 0.307935
O O4 0.758504 0.831621 0.318681
O O5 0.907059 0.917858 0.813150
O O6 0.827822 0.933109 0.631565
O O7 0.000000 0.938287 0.651681
O O8 0.896245 0.000000 0.741661
O O9 0.401852 0.268033 0.500000
O O10 0.500000 0.256252 0.337419
O O11 0.399523 0.329467 0.351544
O O12 0.325522 0.246274 0.333049
O O13 0.871908 0.107829 0.000000
O O14 0.500000 0.222434 0.131741
O O15 0.656698 0.252822 0.143421
O O16 0.617599 0.190833 0.000000
O O17 0.699949 0.936525 0.500000
O O18 0.706669 0.000000 0.351522
O O19 0.747322 0.206513 0.500000
#
# Coordination Sequence:
#
# PCOD8288527 Si02
#       7
#    16  16  16  16  16  16  16
#     4  11  20  34  56  81 104 140 185 231 269 322
#     4   9  18  31  48  74 105 137 179 224 263 313
#     4   9  17  29  46  69 100 138 174 208 255 317
#     4  10  19  31  47  68 101 143 184 221 263 312
#     4  10  21  37  56  79 111 150 186 224 276 332
#     4   9  19  36  57  80 107 142 181 222 276 333
#     4  10  20  35  52  77 110 143 182 228 273 320
#
# _framework density 19.626691999999998
#
# number of rings (size 3 to 8) (size 9 to 14) (size 15 to 20)
#    0.000    2.286    1.429    1.714    0.000    2.000 
#    0.000    5.000    0.000    6.429    0.000    2.000 
#    0.000    0.000    0.000    0.000    0.000    0.000 
#
# Total GULP energy -694074.593454 kJ/mol
# GULP energy per Si atom -12394.189169 kJ/mol
# Density = 1.958202 g / cm^3
# Si number density = 19.626692 Si / 1000 Ang^3
#
#
#
# Elastic Constant Matrix: (Units=GPa)
#
#
# Indices 1 2 3 4 5 6 
#
# 1 88.2088 24.1690 6.4439 -0.0001 0.0000 0.0002
# 2 24.1690 88.8895 40.0563 -0.0004 0.0000 0.0000
# 3 6.4439 40.0563 77.8223 -0.0028 0.0000 0.0003
# 4 -0.0001 -0.0004 -0.0028 32.0454 0.0000 0.0002
# 5 0.0000 0.0000 0.0000 0.0000 9.6233 0.0001
# 6 0.0002 0.0000 0.0003 0.0002 0.0001 -75.7066
#
#
#
# Elastic Compliance Matrix: (Units=1/GPa)
#
#
# Indices 1 2 3 4 5 6 
#
# 1 0.012299 -0.003757 0.000915 0.000000 0.000000 0.000000
# 2 -0.003757 0.015795 -0.007819 0.000000 0.000000 0.000000
# 3 0.000915 -0.007819 0.016798 0.000001 0.000000 0.000000
# 4 0.000000 0.000000 0.000001 0.031206 0.000000 0.000000
# 5 0.000000 0.000000 0.000000 0.000000 0.103915 0.000000
# 6 0.000000 0.000000 0.000000 0.000000 0.000000 -0.013209
#
#
# Mechanical properties :
#
#
# Convention : Reuss Voigt Hill
#
# Bulk Modulus (GPa) = 42.42307 44.02875 43.22591
# Shear Modulus (GPa) = 25.51262 5.47585 15.49423
#
# Velocity S-wave (km/s) = 3.60932 1.67214 2.81276
# Velocity P-wave (km/s) = 6.24752 5.11956 5.71145
#
# Compressibility (1/GPa) = 0.02357208
#
# Stress axis : x y z
#
# Youngs Moduli (GPa) = 81.30633 63.31259 59.52949
#
# Poissons Ratio (x) = 0.23783 -0.05448
# Poissons Ratio (y) = 0.30543 0.46544
# Poissons Ratio (z) = -0.07441 0.49502
#
# Static dielectric constant tensor:
#      x y z
#    x 3.577590 0.000000 0.000000 
#    y 0.000000 3.532770 0.000000 
#    z 0.000000 0.000000 3.642910 
# 
# 
# High freq. dielectric constant tensor:
#      x y z
#    x 1.742940 0.000000 0.000000 
#    y 0.000000 1.751720 0.000000 
#    z 0.000000 0.000000 1.773000 
# 
# From -- ./inp_files/35140.got.cif
#   From: 2010.06.25/outbox.cif.g09.slc.cpg/sg71_18_cif.got.tgz:35140.got - 2010.06.28 04:59:45.
