data_PCOD8288462
_publ_section_title
;
Structure prediction by ZEFSAII (Michael W. Deem and Ramdas Pophale) SiO2 
 PCOD8288462
Probable space group: I M M M
;
_chemical_formula_sum "Si O2"
_cell_formula_units_Z 104
_cell_length_a 22.519431
_cell_length_b 26.358362
_cell_length_c 9.195629
_cell_angle_alpha 90.000000
_cell_angle_beta 90.000000
_cell_angle_gamma 90.000000
_cell_volume 5458.298374
_symmetry_space_group_name_H-M "I M M M"
_symmetry_group_IT_number 71
_symmetry_cell_setting 'orthorhombic'
loop_
_space_group_symop_operation_xyz
x,y,z
-x,-y,z
x,-y,-z
-x,y,-z
-x,-y,-z
x,y,-z
-x,y,z
x,-y,z
1/2+x,1/2+y,1/2+z
1/2-x,1/2-y,1/2+z
1/2+x,1/2-y,1/2-z
1/2-x,1/2+y,1/2-z
1/2-x,1/2-y,1/2-z
1/2+x,1/2+y,1/2-z
1/2-x,1/2+y,1/2+z
1/2+x,1/2-y,1/2+z
loop_
_atom_site_type_symbol
_atom_site_label
_atom_site_fract_x
_atom_site_fract_y
_atom_site_fract_z
Si Si1 0.603502 0.307249 0.162933
Si Si2 0.570134 0.500000 0.165329
Si Si3 0.068299 0.705334 0.168741
Si Si4 0.254181 0.058117 0.168344
Si Si5 0.124694 0.905554 0.827112
Si Si6 0.335292 0.875335 0.330196
Si Si7 0.240652 0.202041 0.656884
O O1 0.583123 0.254996 0.237355
O O2 0.590593 0.355400 0.265633
O O3 0.672970 0.310765 0.142932
O O4 0.574558 0.311311 0.000000
O O5 0.500000 0.500000 0.161679
O O6 0.591718 0.451419 0.251808
O O7 0.595390 0.500000 0.000000
O O8 0.106168 0.655953 0.220849
O O9 0.000000 0.690508 0.191635
O O10 0.082544 0.717429 0.000000
O O11 0.195238 0.090960 0.210884
O O12 0.317053 0.073091 0.247346
O O13 0.239910 0.000000 0.209580
O O14 0.267655 0.064408 0.000000
O O15 0.115226 0.907396 0.000000
O O16 0.339417 0.887701 0.500000
O O17 0.278269 0.843422 0.277661
O O18 0.269054 0.213996 0.500000
O O19 0.250000 0.250000 0.750000
#
# Coordination Sequence:
#
# PCOD8288462 Si02
#       7
#    16   8  16  16  16  16  16
#     4  11  22  35  54  84 117 148 186 232 282 332
#     4  11  25  43  61  81 109 149 196 243 286 329
#     4  10  22  40  59  80 112 154 196 235 278 338
#     4  10  21  37  57  86 118 145 181 232 290 346
#     4  11  22  38  60  85 115 152 193 235 284 339
#     4  10  20  35  56  84 113 145 186 231 287 346
#     4  10  19  30  49  79 111 141 177 220 271 327
#
# _framework density 19.053557000000001
#
# number of rings (size 3 to 8) (size 9 to 14) (size 15 to 20)
#    0.000    1.615    3.846    1.154    0.000    4.308 
#    0.000    0.000    0.000    0.462    0.000    3.231 
#    0.000    0.000    0.000    0.000    0.000    0.000 
#
# Total GULP energy -644245.031631 kJ/mol
# GULP energy per Si atom -12389.327531 kJ/mol
# Density = 1.901019 g / cm^3
# Si number density = 19.053557 Si / 1000 Ang^3
#
#
#
# Elastic Constant Matrix: (Units=GPa)
#
#
# Indices 1 2 3 4 5 6 
#
# 1 87.1868 24.1640 32.7366 0.0000 0.0000 0.0000
# 2 24.1640 64.7014 41.8867 0.0000 0.0000 0.0000
# 3 32.7366 41.8867 91.8198 0.0000 0.0000 0.0000
# 4 0.0000 0.0000 0.0000 42.7949 0.0000 0.0000
# 5 0.0000 0.0000 0.0000 0.0000 22.0112 0.0000
# 6 0.0000 0.0000 0.0000 0.0000 0.0000 13.4478
#
#
#
# Elastic Compliance Matrix: (Units=1/GPa)
#
#
# Indices 1 2 3 4 5 6 
#
# 1 0.013578 -0.002749 -0.003587 0.000000 0.000000 0.000000
# 2 -0.002749 0.022490 -0.009279 0.000000 0.000000 0.000000
# 3 -0.003587 -0.009279 0.016403 0.000000 0.000000 0.000000
# 4 0.000000 0.000000 0.000000 0.023367 0.000000 0.000000
# 5 0.000000 0.000000 0.000000 0.000000 0.045431 0.000000
# 6 0.000000 0.000000 0.000000 0.000000 0.000000 0.074362
#
#
# Mechanical properties :
#
#
# Convention : Reuss Voigt Hill
#
# Bulk Modulus (GPa) = 47.08054 49.03140 48.05597
# Shear Modulus (GPa) = 21.37285 25.31217 23.34251
#
# Velocity S-wave (km/s) = 3.35285 3.64878 3.50394
# Velocity P-wave (km/s) = 6.30492 6.59854 6.45340
#
# Compressibility (1/GPa) = 0.02124020
#
# Stress axis : x y z
#
# Youngs Moduli (GPa) = 73.64660 44.46519 60.96493
#
# Poissons Ratio (x) = 0.12223 0.21869
# Poissons Ratio (y) = 0.20244 0.56571
# Poissons Ratio (z) = 0.26418 0.41261
#
# Static dielectric constant tensor:
#      x y z
#    x 3.443590 0.000000 0.000000 
#    y 0.000000 3.905030 0.000000 
#    z 0.000000 0.000000 3.704540 
# 
# 
# High freq. dielectric constant tensor:
#      x y z
#    x 1.727370 0.000000 0.000000 
#    y 0.000000 1.735890 0.000000 
#    z 0.000000 0.000000 1.745900 
# 
# From -- ./inp_files/13306.got.cif
#   From: 2010.06.25/outbox.cif.g09.slc.cpg/sg71_7_cif.got.tgz:13306.got - 2010.06.28 04:59:45.
