data_PCOD8288696
_publ_section_title
;
Structure prediction by ZEFSAII (Michael W. Deem and Ramdas Pophale) SiO2 
 PCOD8288696
Probable space group: I M M M
;
_chemical_formula_sum "Si O2"
_cell_formula_units_Z 104
_cell_length_a 18.418610
_cell_length_b 11.697392
_cell_length_c 26.472025
_cell_angle_alpha 90.000000
_cell_angle_beta 90.000000
_cell_angle_gamma 90.000000
_cell_volume 5703.389878
_symmetry_space_group_name_H-M "I M M M"
_symmetry_group_IT_number 71
_symmetry_cell_setting 'orthorhombic'
loop_
_space_group_symop_operation_xyz
x,y,z
-x,-y,z
x,-y,-z
-x,y,-z
-x,-y,-z
x,y,-z
-x,y,z
x,-y,z
1/2+x,1/2+y,1/2+z
1/2-x,1/2-y,1/2+z
1/2+x,1/2-y,1/2-z
1/2-x,1/2+y,1/2-z
1/2-x,1/2-y,1/2-z
1/2+x,1/2+y,1/2-z
1/2-x,1/2+y,1/2+z
1/2+x,1/2-y,1/2+z
loop_
_atom_site_type_symbol
_atom_site_label
_atom_site_fract_x
_atom_site_fract_y
_atom_site_fract_z
Si Si1 0.419212 0.632873 0.633066
Si Si2 0.133033 0.766397 0.765740
Si Si3 0.291811 0.367298 0.557807
Si Si4 0.581342 0.500000 0.059080
Si Si5 0.672117 0.291462 0.101834
Si Si6 0.262959 0.376753 0.197239
Si Si7 0.917029 0.628945 0.675050
O O1 0.500000 0.658657 0.611192
O O2 0.407674 0.500000 0.642454
O O3 0.415497 0.691131 0.688080
O O4 0.358248 0.675508 0.593497
O O5 0.206652 0.719420 0.789127
O O6 0.160872 0.866003 0.728055
O O7 0.089787 0.673871 0.732584
O O8 0.317912 0.355443 0.500000
O O9 0.271522 0.500000 0.569628
O O10 0.221970 0.285628 0.565037
O O11 0.500000 0.500000 0.083424
O O12 0.621603 0.381805 0.073007
O O13 0.574077 0.500000 0.000000
O O14 0.722507 0.367170 0.137803
O O15 0.626474 0.203766 0.135389
O O16 0.228931 0.500000 0.208840
O O17 0.886333 0.500000 0.673477
O O18 0.000000 0.632251 0.658302
#
# Coordination Sequence:
#
# PCOD8288696 Si02
#       7
#    16  16  16   8  16  16  16
#     4  10  20  34  53  79 112 147 183 228 284 339
#     4  10  19  32  51  76 111 146 181 225 264 327
#     4  10  21  37  58  83 108 139 185 237 285 331
#     4  11  24  40  60  86 115 145 181 231 283 331
#     4  11  20  37  58  80 107 144 181 225 271 327
#     4  10  19  31  50  79 105 138 182 222 266 317
#     4  10  21  35  53  79 111 148 184 220 269 327
#
# _framework density 18.234769
#
# number of rings (size 3 to 8) (size 9 to 14) (size 15 to 20)
#    0.000    1.769    2.308    2.769    0.000    0.308 
#    0.000    1.538    0.000    0.000    0.000    6.462 
#    0.000    3.077    0.000    0.000    0.000    0.000 
#
# Total GULP energy -644490.273193 kJ/mol
# GULP energy per Si atom -12394.043715 kJ/mol
# Density = 1.819327 g / cm^3
# Si number density = 18.234769 Si / 1000 Ang^3
#
#
#
# Elastic Constant Matrix: (Units=GPa)
#
#
# Indices 1 2 3 4 5 6 
#
# 1 91.6210 41.3270 33.7298 0.0000 0.0000 0.0000
# 2 41.3270 92.9511 33.8529 0.0000 0.0000 0.0000
# 3 33.7298 33.8529 90.9423 0.0000 0.0000 0.0000
# 4 0.0000 0.0000 0.0000 25.3954 0.0000 0.0000
# 5 0.0000 0.0000 0.0000 0.0000 26.8652 0.0000
# 6 0.0000 0.0000 0.0000 0.0000 0.0000 22.9520
#
#
#
# Elastic Compliance Matrix: (Units=1/GPa)
#
#
# Indices 1 2 3 4 5 6 
#
# 1 0.014533 -0.005204 -0.003453 0.000000 0.000000 0.000000
# 2 -0.005204 0.014309 -0.003396 0.000000 0.000000 0.000000
# 3 -0.003453 -0.003396 0.013541 0.000000 0.000000 0.000000
# 4 0.000000 0.000000 0.000000 0.039377 0.000000 0.000000
# 5 0.000000 0.000000 0.000000 0.000000 0.037223 0.000000
# 6 0.000000 0.000000 0.000000 0.000000 0.000000 0.043569
#
#
# Mechanical properties :
#
#
# Convention : Reuss Voigt Hill
#
# Bulk Modulus (GPa) = 54.71557 54.81486 54.76522
# Shear Modulus (GPa) = 25.94017 26.14950 26.04483
#
# Velocity S-wave (km/s) = 3.77578 3.79099 3.78339
# Velocity P-wave (km/s) = 7.00572 7.02054 7.01313
#
# Compressibility (1/GPa) = 0.01827633
#
# Stress axis : x y z
#
# Youngs Moduli (GPa) = 68.80857 69.88588 73.84986
#
# Poissons Ratio (x) = 0.36368 0.25501
# Poissons Ratio (y) = 0.35808 0.25082
# Poissons Ratio (z) = 0.23760 0.23736
#
# Static dielectric constant tensor:
#      x y z
#    x 3.377090 0.000000 0.000000 
#    y 0.000000 3.374570 0.000000 
#    z 0.000000 0.000000 3.391580 
# 
# 
# High freq. dielectric constant tensor:
#      x y z
#    x 1.704090 0.000000 0.000000 
#    y 0.000000 1.704750 0.000000 
#    z 0.000000 0.000000 1.705270 
# 
# From -- ./inp_files/66029.got.cif
#   From: 2010.06.25/outbox.cif.g09.slc.cpg/sg71_34_cif.got.tgz:66029.got - 2010.06.28 04:59:45.
