data_PCOD8288597
_publ_section_title
;
Structure prediction by ZEFSAII (Michael W. Deem and Ramdas Pophale) SiO2 
 PCOD8288597
Probable space group: I M M M
;
_chemical_formula_sum "Si O2"
_cell_formula_units_Z 72
_cell_length_a 16.481066
_cell_length_b 9.890671
_cell_length_c 24.052462
_cell_angle_alpha 90.000000
_cell_angle_beta 90.000000
_cell_angle_gamma 90.000000
_cell_volume 3920.763005
_symmetry_space_group_name_H-M "I M M M"
_symmetry_group_IT_number 71
_symmetry_cell_setting 'orthorhombic'
loop_
_space_group_symop_operation_xyz
x,y,z
-x,-y,z
x,-y,-z
-x,y,-z
-x,-y,-z
x,y,-z
-x,y,z
x,-y,z
1/2+x,1/2+y,1/2+z
1/2-x,1/2-y,1/2+z
1/2+x,1/2-y,1/2-z
1/2-x,1/2+y,1/2-z
1/2-x,1/2-y,1/2-z
1/2+x,1/2+y,1/2-z
1/2-x,1/2+y,1/2+z
1/2+x,1/2-y,1/2+z
loop_
_atom_site_type_symbol
_atom_site_label
_atom_site_fract_x
_atom_site_fract_y
_atom_site_fract_z
Si Si1 0.801097 0.220545 0.625300
Si Si2 0.725895 0.000000 0.694914
Si Si3 0.595602 0.500000 0.935098
Si Si4 0.091308 0.000000 0.860721
Si Si5 0.586581 0.000000 0.393221
Si Si6 0.724966 0.000000 0.822821
Si Si7 0.640338 0.734319 0.562127
O O1 0.775426 0.134904 0.679568
O O2 0.872918 0.138148 0.594539
O O3 0.818761 0.371684 0.647775
O O4 0.732295 0.237178 0.579330
O O5 0.645939 0.000000 0.658362
O O6 0.700715 0.000000 0.758700
O O7 0.500000 0.500000 0.928366
O O8 0.621548 0.500000 0.000000
O O9 0.174897 0.000000 0.823853
O O10 0.093985 0.868326 0.898272
O O11 0.000000 0.000000 0.830834
O O12 0.593746 0.874351 0.434455
O O13 0.500000 0.000000 0.363734
O O14 0.639063 0.675969 0.500000
#
# Coordination Sequence:
#
# PCOD8288597 Si02
#       7
#    16   8   8   8   8   8  16
#     4   9  19  34  54  79 104 132 177 219 255 321
#     4   9  18  34  54  73 100 143 181 213 260 315
#     4  10  20  37  59  79 104 136 170 221 285 336
#     4  10  21  33  46  72 106 135 168 206 246 296
#     4  10  20  31  45  70  98 126 170 215 247 289
#     4  10  19  35  56  76 103 141 178 220 265 306
#     4  10  19  31  49  71 100 137 166 196 243 301
#
# _framework density 18.363772000000001
#
# number of rings (size 3 to 8) (size 9 to 14) (size 15 to 20)
#    0.000    2.333    0.000    3.333    0.000    2.667 
#    0.000    5.556    0.000    1.333    0.000    0.000 
#    0.000    0.000    0.000    0.000    0.000    0.000 
#
# Total GULP energy -445995.354248 kJ/mol
# GULP energy per Si atom -12388.759840 kJ/mol
# Density = 1.832198 g / cm^3
# Si number density = 18.363772 Si / 1000 Ang^3
#
#
#
# Elastic Constant Matrix: (Units=GPa)
#
#
# Indices 1 2 3 4 5 6 
#
# 1 68.6937 19.4448 21.9443 0.0000 0.0000 0.0000
# 2 19.4448 126.9648 29.8334 0.0000 0.0000 0.0000
# 3 21.9443 29.8334 95.3946 0.0000 0.0000 0.0000
# 4 0.0000 0.0000 0.0000 -91.1444 0.0000 0.0000
# 5 0.0000 0.0000 0.0000 0.0000 11.2005 0.0000
# 6 0.0000 0.0000 0.0000 0.0000 0.0000 24.1365
#
#
#
# Elastic Compliance Matrix: (Units=1/GPa)
#
#
# Indices 1 2 3 4 5 6 
#
# 1 0.016051 -0.001717 -0.003155 0.000000 0.000000 0.000000
# 2 -0.001717 0.008685 -0.002321 0.000000 0.000000 0.000000
# 3 -0.003155 -0.002321 0.011935 0.000000 0.000000 0.000000
# 4 0.000000 0.000000 0.000000 -0.010972 0.000000 0.000000
# 5 0.000000 0.000000 0.000000 0.000000 0.089281 0.000000
# 6 0.000000 0.000000 0.000000 0.000000 0.000000 0.041431
#
#
# Mechanical properties :
#
#
# Convention : Reuss Voigt Hill
#
# Bulk Modulus (GPa) = 44.87585 48.16647 46.52116
# Shear Modulus (GPa) = 28.05430 3.49390 15.77410
#
# Velocity S-wave (km/s) = 3.91282 1.38085 2.93401
# Velocity P-wave (km/s) = 6.70103 5.36920 6.07174
#
# Compressibility (1/GPa) = 0.02228370
#
# Stress axis : x y z
#
# Youngs Moduli (GPa) = 62.29992 115.14745 83.79053
#
# Poissons Ratio (x) = 0.19769 0.26440
# Poissons Ratio (y) = 0.10696 0.19448
# Poissons Ratio (z) = 0.19659 0.26726
#
# Static dielectric constant tensor:
#      x y z
#    x 3.262070 0.000000 0.000000 
#    y 0.000000 3.711320 0.000000 
#    z 0.000000 0.000000 3.146790 
# 
# 
# High freq. dielectric constant tensor:
#      x y z
#    x 1.691230 0.000000 0.000000 
#    y 0.000000 1.731640 0.000000 
#    z 0.000000 0.000000 1.698130 
# 
# From -- ./inp_files/60417.got.cif
#   From: 2010.06.25/outbox.cif.g09.slc.cpg/sg71_31_cif.got.tgz:60417.got - 2010.06.28 04:59:45.
