data_PCOD8288476
_publ_section_title
;
Structure prediction by ZEFSAII (Michael W. Deem and Ramdas Pophale) SiO2 
 PCOD8288476
Probable space group: I M M M
;
_chemical_formula_sum "Si O2"
_cell_formula_units_Z 96
_cell_length_a 23.823478
_cell_length_b 23.985236
_cell_length_c 9.371404
_cell_angle_alpha 90.000000
_cell_angle_beta 90.000000
_cell_angle_gamma 90.000000
_cell_volume 5354.930286
_symmetry_space_group_name_H-M "I M M M"
_symmetry_group_IT_number 71
_symmetry_cell_setting 'orthorhombic'
loop_
_space_group_symop_operation_xyz
x,y,z
-x,-y,z
x,-y,-z
-x,y,-z
-x,-y,-z
x,y,-z
-x,y,z
x,-y,z
1/2+x,1/2+y,1/2+z
1/2-x,1/2-y,1/2+z
1/2+x,1/2-y,1/2-z
1/2-x,1/2+y,1/2-z
1/2-x,1/2-y,1/2-z
1/2+x,1/2+y,1/2-z
1/2-x,1/2+y,1/2+z
1/2+x,1/2-y,1/2+z
loop_
_atom_site_type_symbol
_atom_site_label
_atom_site_fract_x
_atom_site_fract_y
_atom_site_fract_z
Si Si1 0.065341 0.345048 0.337566
Si Si2 0.562597 0.437298 0.330498
Si Si3 0.877482 0.563755 0.164537
Si Si4 0.230168 0.364656 0.837745
Si Si5 0.660644 0.642637 0.331550
Si Si6 0.145987 0.270152 0.833469
O O1 0.087109 0.347916 0.500000
O O2 0.078162 0.403649 0.261432
O O3 0.094864 0.294263 0.256908
O O4 0.000000 0.332861 0.331201
O O5 0.562832 0.435321 0.500000
O O6 0.500000 0.420902 0.275443
O O7 0.577705 0.500000 0.278681
O O8 0.608487 0.393649 0.270871
O O9 0.878266 0.500000 0.212836
O O10 0.815276 0.587299 0.188930
O O11 0.895285 0.571176 0.000000
O O12 0.282112 0.379252 0.737105
O O13 0.202780 0.304582 0.799576
O O14 0.251599 0.364671 0.000000
O O15 0.666180 0.635877 0.500000
O O16 0.652907 0.706582 0.286215
O O17 0.130682 0.276155 0.000000
#
# Coordination Sequence:
#
# PCOD8288476 Si02
#       6
#    16  16  16  16  16  16
#     4  10  21  35  51  74 103 132 164 207 258 304
#     4   8  15  29  47  68  97 127 153 191 243 289
#     4   9  19  36  55  74  99 134 174 209 242 289
#     4   9  18  32  48  69 100 133 160 195 247 296
#     4  10  19  30  50  78  98 122 167 210 241 286
#     4   9  19  34  50  70  98 132 169 205 243 292
#
# _framework density 17.927403999999999
#
# number of rings (size 3 to 8) (size 9 to 14) (size 15 to 20)
#    0.000    2.833    0.000    2.500    0.000    6.667 
#    0.000    3.333    0.000    0.500    0.000    1.167 
#    0.000    0.000    0.000    0.000    0.000    0.000 
#
# Total GULP energy -595170.351012 kJ/mol
# GULP energy per Si atom -12399.382313 kJ/mol
# Density = 1.788660 g / cm^3
# Si number density = 17.927404 Si / 1000 Ang^3
#
#
#
# Elastic Constant Matrix: (Units=GPa)
#
#
# Indices 1 2 3 4 5 6 
#
# 1 94.5127 21.7033 33.8399 0.0000 0.0000 0.0000
# 2 21.7033 45.2446 13.4619 0.0000 0.0000 0.0000
# 3 33.8399 13.4619 50.1252 0.0000 0.0000 0.0000
# 4 0.0000 0.0000 0.0000 11.8750 0.0000 0.0000
# 5 0.0000 0.0000 0.0000 0.0000 29.8776 0.0000
# 6 0.0000 0.0000 0.0000 0.0000 0.0000 21.3872
#
#
#
# Elastic Compliance Matrix: (Units=1/GPa)
#
#
# Indices 1 2 3 4 5 6 
#
# 1 0.014740 -0.004467 -0.008751 0.000000 0.000000 0.000000
# 2 -0.004467 0.025375 -0.003799 0.000000 0.000000 0.000000
# 3 -0.008751 -0.003799 0.026878 0.000000 0.000000 0.000000
# 4 0.000000 0.000000 0.000000 0.084210 0.000000 0.000000
# 5 0.000000 0.000000 0.000000 0.000000 0.033470 0.000000
# 6 0.000000 0.000000 0.000000 0.000000 0.000000 0.046757
#
#
# Mechanical properties :
#
#
# Convention : Reuss Voigt Hill
#
# Bulk Modulus (GPa) = 30.34109 36.43251 33.38680
# Shear Modulus (GPa) = 18.08639 20.68647 19.38643
#
# Velocity S-wave (km/s) = 3.17971 3.40060 3.29201
# Velocity P-wave (km/s) = 5.51742 5.98207 5.75444
#
# Compressibility (1/GPa) = 0.03295860
#
# Stress axis : x y z
#
# Youngs Moduli (GPa) = 67.84440 39.40867 37.20451
#
# Poissons Ratio (x) = 0.17602 0.32559
# Poissons Ratio (y) = 0.30303 0.14136
# Poissons Ratio (z) = 0.59372 0.14973
#
# Static dielectric constant tensor:
#      x y z
#    x 3.276940 0.000000 0.000000 
#    y 0.000000 3.477080 0.000000 
#    z 0.000000 0.000000 3.151830 
# 
# 
# High freq. dielectric constant tensor:
#      x y z
#    x 1.692240 0.000000 0.000000 
#    y 0.000000 1.696620 0.000000 
#    z 0.000000 0.000000 1.673570 
# 
# From -- ./inp_files/12822.got.cif
#   From: 2010.06.25/outbox.cif.g09.slc.cpg/sg71_7_cif.got.tgz:12822.got - 2010.06.28 04:59:45.
