data_PCOD8288715
_publ_section_title
;
Structure prediction by ZEFSAII (Michael W. Deem and Ramdas Pophale) SiO2 
 PCOD8288715
Probable space group: I M M M
;
_chemical_formula_sum "Si O2"
_cell_formula_units_Z 88
_cell_length_a 9.877677
_cell_length_b 26.229307
_cell_length_c 19.093989
_cell_angle_alpha 90.000000
_cell_angle_beta 90.000000
_cell_angle_gamma 90.000000
_cell_volume 4946.958932
_symmetry_space_group_name_H-M "I M M M"
_symmetry_group_IT_number 71
_symmetry_cell_setting 'orthorhombic'
loop_
_space_group_symop_operation_xyz
x,y,z
-x,-y,z
x,-y,-z
-x,y,-z
-x,-y,-z
x,y,-z
-x,y,z
x,-y,z
1/2+x,1/2+y,1/2+z
1/2-x,1/2-y,1/2+z
1/2+x,1/2-y,1/2-z
1/2-x,1/2+y,1/2-z
1/2-x,1/2-y,1/2-z
1/2+x,1/2+y,1/2-z
1/2-x,1/2+y,1/2+z
1/2+x,1/2-y,1/2+z
loop_
_atom_site_type_symbol
_atom_site_label
_atom_site_fract_x
_atom_site_fract_y
_atom_site_fract_z
Si Si1 0.000000 0.555646 0.916649
Si Si2 0.843006 0.300649 0.181363
Si Si3 0.500000 0.557314 0.083552
Si Si4 0.343347 0.405377 0.418410
Si Si5 0.843356 0.500000 0.582849
Si Si6 0.845249 0.817252 0.191703
Si Si7 0.748311 0.880282 0.582472
O O1 0.871322 0.584991 0.889013
O O2 0.000000 0.500000 0.882685
O O3 0.000000 0.552225 0.000000
O O4 0.825403 0.240923 0.167910
O O5 0.761763 0.325294 0.246250
O O6 0.772947 0.324217 0.112767
O O7 0.000000 0.315526 0.190144
O O8 0.500000 0.500000 0.114808
O O9 0.623943 0.589814 0.112448
O O10 0.500000 0.553570 0.000000
O O11 0.317729 0.391865 0.500000
O O12 0.500000 0.422841 0.407881
O O13 0.241230 0.450023 0.392639
O O14 0.311716 0.354959 0.372631
O O15 0.848354 0.500000 0.500000
O O16 0.000000 0.500000 0.611832
O O17 0.000000 0.825783 0.217921
O O18 0.754557 0.874257 0.500000
#
# Coordination Sequence:
#
# PCOD8288715 Si02
#       7
#     8  16   8  16   8  16  16
#     4   9  16  28  48  73 100 130 165 205 254 304
#     4  10  20  35  53  75 103 137 172 210 257 309
#     4   9  18  32  50  73 102 136 173 211 256 304
#     4   9  17  32  55  81 104 131 170 212 251 300
#     4   9  17  29  51  81 111 137 160 197 256 313
#     4   9  20  36  55  75 100 138 173 206 253 306
#     4  10  19  31  51  77 102 132 170 217 259 293
#
# _framework density 17.788706999999999
#
# number of rings (size 3 to 8) (size 9 to 14) (size 15 to 20)
#    0.000    2.636    0.909    0.818    1.273    4.727 
#    0.000    1.818    4.000    0.000    0.000    0.000 
#    0.000    0.000    0.000    0.000    0.000    0.000 
#
# Total GULP energy -545264.524651 kJ/mol
# GULP energy per Si atom -12392.375560 kJ/mol
# Density = 1.774822 g / cm^3
# Si number density = 17.788707 Si / 1000 Ang^3
#
#
#
# Elastic Constant Matrix: (Units=GPa)
#
#
# Indices 1 2 3 4 5 6 
#
# 1 144.3908 70.0603 43.7219 0.0000 0.0000 0.0000
# 2 70.0603 115.0479 54.2626 0.0000 0.0000 0.0000
# 3 43.7219 54.2626 51.8515 -0.0001 -0.0001 0.0000
# 4 0.0000 0.0000 -0.0001 20.0566 0.0000 0.0000
# 5 0.0000 0.0000 -0.0001 0.0000 26.2324 0.0000
# 6 0.0000 0.0000 0.0000 0.0000 0.0000 29.9875
#
#
#
# Elastic Compliance Matrix: (Units=1/GPa)
#
#
# Indices 1 2 3 4 5 6 
#
# 1 0.010269 -0.004284 -0.004176 0.000000 0.000000 0.000000
# 2 -0.004284 0.018951 -0.016220 0.000000 0.000000 0.000000
# 3 -0.004176 -0.016220 0.039781 0.000000 0.000000 0.000000
# 4 0.000000 0.000000 0.000000 0.049859 0.000000 0.000000
# 5 0.000000 0.000000 0.000000 0.000000 0.038121 0.000000
# 6 0.000000 0.000000 0.000000 0.000000 0.000000 0.033347
#
#
# Mechanical properties :
#
#
# Convention : Reuss Voigt Hill
#
# Bulk Modulus (GPa) = 50.91204 71.93108 61.42156
# Shear Modulus (GPa) = 20.30590 24.80498 22.55544
#
# Velocity S-wave (km/s) = 3.38228 3.73825 3.56471
# Velocity P-wave (km/s) = 6.62840 7.69135 7.17957
#
# Compressibility (1/GPa) = 0.01964172
#
# Stress axis : x y z
#
# Youngs Moduli (GPa) = 97.38447 52.76785 25.13757
#
# Poissons Ratio (x) = 0.22605 0.10497
# Poissons Ratio (y) = 0.41717 0.40773
# Poissons Ratio (z) = 0.40664 0.85590
#
# Static dielectric constant tensor:
#      x y z
#    x 3.600640 0.000000 0.000000 
#    y 0.000000 3.414740 0.000000 
#    z 0.000000 0.000000 2.937930 
# 
# 
# High freq. dielectric constant tensor:
#      x y z
#    x 1.702580 0.000000 0.000000 
#    y 0.000000 1.694900 0.000000 
#    z 0.000000 0.000000 1.650190 
# 
# From -- ./inp_files/50594.got.cif
#   From: 2010.06.25/outbox.cif.g09.slc.cpg/sg71_26_cif.got.tgz:50594.got - 2010.06.28 04:59:45.
