data_PCOD8288477
_publ_section_title
;
Structure prediction by ZEFSAII (Michael W. Deem and Ramdas Pophale) SiO2 
 PCOD8288477
Probable space group: I M M M
;
_chemical_formula_sum "Si O2"
_cell_formula_units_Z 104
_cell_length_a 17.865272
_cell_length_b 28.015822
_cell_length_c 11.950977
_cell_angle_alpha 90.000000
_cell_angle_beta 90.000000
_cell_angle_gamma 90.000000
_cell_volume 5981.586849
_symmetry_space_group_name_H-M "I M M M"
_symmetry_group_IT_number 71
_symmetry_cell_setting 'orthorhombic'
loop_
_space_group_symop_operation_xyz
x,y,z
-x,-y,z
x,-y,-z
-x,y,-z
-x,-y,-z
x,y,-z
-x,y,z
x,-y,z
1/2+x,1/2+y,1/2+z
1/2-x,1/2-y,1/2+z
1/2+x,1/2-y,1/2-z
1/2-x,1/2+y,1/2-z
1/2-x,1/2-y,1/2-z
1/2+x,1/2+y,1/2-z
1/2-x,1/2+y,1/2+z
1/2+x,1/2-y,1/2+z
loop_
_atom_site_type_symbol
_atom_site_label
_atom_site_fract_x
_atom_site_fract_y
_atom_site_fract_z
Si Si1 0.334827 0.701727 0.781761
Si Si2 0.719497 0.943688 0.630459
Si Si3 0.581947 0.404780 0.000000
Si Si4 0.672447 0.787934 0.631968
Si Si5 0.416310 0.708721 0.000000
Si Si6 0.000000 0.943879 0.126146
Si Si7 0.582272 0.879495 0.631410
Si Si8 0.138622 0.906776 0.732550
O O1 0.351112 0.735777 0.676203
O O2 0.247668 0.695223 0.806836
O O3 0.367865 0.650055 0.752142
O O4 0.374367 0.726348 0.888719
O O5 0.739657 0.927858 0.500000
O O6 0.641058 0.920012 0.668103
O O7 0.776328 0.926598 0.730682
O O8 0.710024 0.000000 0.636021
O O9 0.584505 0.348022 0.000000
O O10 0.619230 0.425643 0.109447
O O11 0.500000 0.425562 0.000000
O O12 0.686039 0.785202 0.500000
O O13 0.610262 0.826631 0.665553
O O14 0.500000 0.729511 0.000000
O O15 0.078214 0.927608 0.181684
O O16 0.000000 0.000000 0.127791
O O17 0.000000 0.923850 0.000000
O O18 0.573365 0.881482 0.500000
O O19 0.500000 0.888293 0.686492
#
# Coordination Sequence:
#
# PCOD8288477 Si02
#       8
#    16  16   8  16   8   8  16  16
#     4  10  20  31  54  79 102 140 179 220 264 316
#     4  10  19  30  50  79 106 134 173 220 267 319
#     4   9  16  28  50  80 102 128 166 219 276 316
#     4  10  19  34  52  76 108 143 180 216 262 320
#     4   9  18  30  48  74 104 135 172 215 271 321
#     4  11  26  43  55  73 109 152 183 219 274 326
#     4   9  18  32  49  72 107 145 173 209 263 320
#     4  11  19  35  56  77 106 138 180 227 267 317
#
# _framework density 17.386690999999999
#
# number of rings (size 3 to 8) (size 9 to 14) (size 15 to 20)
#    0.000    2.077    3.846    0.462    1.077    1.538 
#    0.000    1.923    0.000    0.000    0.000    0.000 
#    0.000    0.000    0.000    3.231    0.000    0.154 
#
# Total GULP energy -644297.749783 kJ/mol
# GULP energy per Si atom -12390.341342 kJ/mol
# Density = 1.734712 g / cm^3
# Si number density = 17.386691 Si / 1000 Ang^3
#
#
#
# Elastic Constant Matrix: (Units=GPa)
#
#
# Indices 1 2 3 4 5 6 
#
# 1 128.1371 38.2259 31.7381 0.0000 0.0000 0.0000
# 2 38.2259 80.4439 35.4895 0.0000 -0.0001 0.0000
# 3 31.7381 35.4895 63.1123 0.0010 0.0000 -0.0004
# 4 0.0000 0.0000 0.0010 17.8246 0.0000 -0.0001
# 5 0.0000 -0.0001 0.0000 0.0000 17.4636 -0.0001
# 6 0.0000 0.0000 -0.0004 -0.0001 -0.0001 21.5165
#
#
#
# Elastic Compliance Matrix: (Units=1/GPa)
#
#
# Indices 1 2 3 4 5 6 
#
# 1 0.009496 -0.003199 -0.002976 0.000000 0.000000 0.000000
# 2 -0.003199 0.017610 -0.008294 0.000001 0.000000 0.000000
# 3 -0.002976 -0.008294 0.022005 -0.000001 0.000000 0.000000
# 4 0.000000 0.000001 -0.000001 0.056102 0.000000 0.000000
# 5 0.000000 0.000000 0.000000 0.000000 0.057262 0.000000
# 6 0.000000 0.000000 0.000000 0.000000 0.000000 0.046476
#
#
# Mechanical properties :
#
#
# Convention : Reuss Voigt Hill
#
# Bulk Modulus (GPa) = 49.57198 53.62227 51.59713
# Shear Modulus (GPa) = 20.44035 22.44358 21.44196
#
# Velocity S-wave (km/s) = 3.43247 3.59674 3.51556
# Velocity P-wave (km/s) = 6.65451 6.93950 6.79850
#
# Compressibility (1/GPa) = 0.02017269
#
# Stress axis : x y z
#
# Youngs Moduli (GPa) = 105.31067 56.78512 45.44360
#
# Poissons Ratio (x) = 0.18167 0.13525
# Poissons Ratio (y) = 0.33691 0.37690
# Poissons Ratio (z) = 0.31343 0.47097
#
# Static dielectric constant tensor:
#      x y z
#    x 3.631360 0.000000 0.000000 
#    y 0.000000 3.115780 0.000000 
#    z 0.000000 0.000000 3.041190 
# 
# 
# High freq. dielectric constant tensor:
#      x y z
#    x 1.685030 0.000000 0.000000 
#    y 0.000000 1.663420 0.000000 
#    z 0.000000 0.000000 1.631330 
# 
# From -- ./inp_files/24832.got.cif
#   From: 2010.06.25/outbox.cif.g09.slc.cpg/sg71_13_cif.got.tgz:24832.got - 2010.06.28 04:59:45.
