data_PCOD8288322
_publ_section_title
;
Structure prediction by ZEFSAII (Michael W. Deem and Ramdas Pophale) SiO2 
 PCOD8288322
Probable space group: I M M M
;
_chemical_formula_sum "Si O2"
_cell_formula_units_Z 96
_cell_length_a 22.566002
_cell_length_b 27.197254
_cell_length_c 9.473924
_cell_angle_alpha 90.000000
_cell_angle_beta 90.000000
_cell_angle_gamma 90.000000
_cell_volume 5814.462528
_symmetry_space_group_name_H-M "I M M M"
_symmetry_group_IT_number 71
_symmetry_cell_setting 'orthorhombic'
loop_
_space_group_symop_operation_xyz
x,y,z
-x,-y,z
x,-y,-z
-x,y,-z
-x,-y,-z
x,y,-z
-x,y,z
x,-y,z
1/2+x,1/2+y,1/2+z
1/2-x,1/2-y,1/2+z
1/2+x,1/2-y,1/2-z
1/2-x,1/2+y,1/2-z
1/2-x,1/2-y,1/2-z
1/2+x,1/2+y,1/2-z
1/2-x,1/2+y,1/2+z
1/2+x,1/2-y,1/2+z
loop_
_atom_site_type_symbol
_atom_site_label
_atom_site_fract_x
_atom_site_fract_y
_atom_site_fract_z
Si Si1 0.800765 0.142467 0.341199
Si Si2 0.817178 0.696392 0.842248
Si Si3 0.627290 0.113795 0.163747
Si Si4 0.500000 0.853747 0.160218
Si Si5 0.379211 0.295677 0.339015
Si Si6 0.717249 0.055894 0.335268
Si Si7 0.500000 0.245914 0.332554
O O1 0.823925 0.136154 0.500000
O O2 0.752607 0.186107 0.329742
O O3 0.857637 0.156594 0.247448
O O4 0.771252 0.091342 0.287913
O O5 0.852143 0.666068 0.724663
O O6 0.829841 0.753584 0.818479
O O7 0.839236 0.680918 0.000000
O O8 0.556608 0.111135 0.185393
O O9 0.658248 0.069234 0.247771
O O10 0.645410 0.110447 0.000000
O O11 0.500000 0.807507 0.263641
O O12 0.500000 0.833173 0.000000
O O13 0.384871 0.312529 0.500000
O O14 0.442459 0.276391 0.282959
O O15 0.703137 0.064621 0.500000
O O16 0.735676 0.000000 0.303557
O O17 0.500000 0.237462 0.500000
#
# Coordination Sequence:
#
# PCOD8288322 Si02
#       7
#    16  16  16   8  16  16   8
#     4   9  18  30  47  71  95 120 151 192 243 291
#     4   9  17  30  46  66  94 129 164 193 229 277
#     4  10  19  30  47  71  97 126 162 201 241 280
#     4  10  20  32  45  67  98 132 167 200 236 274
#     4  10  19  30  45  68  97 129 163 195 229 273
#     4   9  19  37  56  72  92 119 155 200 248 295
#     4  10  20  32  48  67  94 135 174 200 222 263
#
# _framework density 16.510553999999999
#
# number of rings (size 3 to 8) (size 9 to 14) (size 15 to 20)
#    0.000    2.500    1.667    2.000    0.000    5.000 
#    0.000    0.417    0.000    2.500    0.000    0.583 
#    0.000    4.667    0.000    0.000    0.000    0.000 
#
# Total GULP energy -595063.342922 kJ/mol
# GULP energy per Si atom -12397.152978 kJ/mol
# Density = 1.647298 g / cm^3
# Si number density = 16.510554 Si / 1000 Ang^3
#
#
#
# Elastic Constant Matrix: (Units=GPa)
#
#
# Indices 1 2 3 4 5 6 
#
# 1 66.8691 49.1789 32.3770 0.0000 0.0000 0.0000
# 2 49.1789 89.9320 40.5396 0.0000 0.0000 0.0000
# 3 32.3770 40.5396 63.1440 0.0000 0.0000 0.0000
# 4 0.0000 0.0000 0.0000 22.9350 0.0000 0.0000
# 5 0.0000 0.0000 0.0000 0.0000 24.9661 0.0000
# 6 0.0000 0.0000 0.0000 0.0000 0.0000 16.5083
#
#
#
# Elastic Compliance Matrix: (Units=1/GPa)
#
#
# Indices 1 2 3 4 5 6 
#
# 1 0.026558 -0.011799 -0.006042 0.000000 0.000000 0.000000
# 2 -0.011799 0.020891 -0.007362 0.000000 0.000000 0.000000
# 3 -0.006042 -0.007362 0.023661 0.000000 0.000000 0.000000
# 4 0.000000 0.000000 0.000000 0.043602 0.000000 0.000000
# 5 0.000000 0.000000 0.000000 0.000000 0.040054 0.000000
# 6 0.000000 0.000000 0.000000 0.000000 0.000000 0.060576
#
#
# Mechanical properties :
#
#
# Convention : Reuss Voigt Hill
#
# Bulk Modulus (GPa) = 48.30237 51.57069 49.93653
# Shear Modulus (GPa) = 18.33854 19.40517 18.87186
#
# Velocity S-wave (km/s) = 3.33636 3.43201 3.38452
# Velocity P-wave (km/s) = 6.64535 6.85622 6.75161
#
# Compressibility (1/GPa) = 0.02070292
#
# Stress axis : x y z
#
# Youngs Moduli (GPa) = 37.65343 47.86828 42.26278
#
# Poissons Ratio (x) = 0.56482 0.25536
# Poissons Ratio (y) = 0.44429 0.31114
# Poissons Ratio (z) = 0.22751 0.35241
#
# Static dielectric constant tensor:
#      x y z
#    x 3.049490 0.000000 0.000000 
#    y 0.000000 2.875400 0.000000 
#    z 0.000000 0.000000 3.155470 
# 
# 
# High freq. dielectric constant tensor:
#      x y z
#    x 1.621330 0.000000 0.000000 
#    y 0.000000 1.605200 0.000000 
#    z 0.000000 0.000000 1.640500 
# 
# From -- ./inp_files/13176.got.cif
#   From: 2010.06.25/outbox.cif.g09.slc.cpg/sg71_7_cif.got.tgz:13176.got - 2010.06.28 04:59:45.
