data_PCOD8288895
_publ_section_title
;
Structure prediction by ZEFSAII (Michael W. Deem and Ramdas Pophale) SiO2 
 PCOD8288895
Probable space group: I M M M
;
_chemical_formula_sum "Si O2"
_cell_formula_units_Z 104
_cell_length_a 21.781535
_cell_length_b 27.568787
_cell_length_c 9.475051
_cell_angle_alpha 90.000000
_cell_angle_beta 90.000000
_cell_angle_gamma 90.000000
_cell_volume 5689.678103
_symmetry_space_group_name_H-M "I M M M"
_symmetry_group_IT_number 71
_symmetry_cell_setting 'orthorhombic'
loop_
_space_group_symop_operation_xyz
x,y,z
-x,-y,z
x,-y,-z
-x,y,-z
-x,-y,-z
x,y,-z
-x,y,z
x,-y,z
1/2+x,1/2+y,1/2+z
1/2-x,1/2-y,1/2+z
1/2+x,1/2-y,1/2-z
1/2-x,1/2+y,1/2-z
1/2-x,1/2-y,1/2-z
1/2+x,1/2+y,1/2-z
1/2-x,1/2+y,1/2+z
1/2+x,1/2-y,1/2+z
loop_
_atom_site_type_symbol
_atom_site_label
_atom_site_fract_x
_atom_site_fract_y
_atom_site_fract_z
Si Si1 0.108875 0.945505 0.154755
Si Si2 0.570571 0.133347 0.833625
Si Si3 0.666588 0.211601 0.163536
Si Si4 0.214834 0.081226 0.659027
Si Si5 0.500000 0.558062 0.841581
Si Si6 0.853511 0.556562 0.835757
Si Si7 0.783114 0.810312 0.341876
O O1 0.175250 0.948118 0.228550
O O2 0.059301 0.920823 0.258760
O O3 0.086726 0.000000 0.129402
O O4 0.111906 0.919609 0.000000
O O5 0.500000 0.140109 0.789005
O O6 0.605863 0.182812 0.785430
O O7 0.597607 0.086479 0.755065
O O8 0.577017 0.124227 0.000000
O O9 0.726044 0.190568 0.238297
O O10 0.664668 0.269810 0.195635
O O11 0.675740 0.201075 0.000000
O O12 0.205418 0.060623 0.500000
O O13 0.285870 0.076372 0.701228
O O14 0.189159 0.136134 0.668423
O O15 0.500000 0.500000 0.850615
O O16 0.500000 0.579661 0.000000
O O17 0.858559 0.500000 0.795258
O O18 0.868200 0.564753 0.000000
O O19 0.758286 0.800369 0.500000
#
# Coordination Sequence:
#
# PCOD8288895 Si02
#       7
#    16  16  16  16   8  16  16
#     4  10  20  32  48  72 101 134 172 212 255 305
#     4  10  21  36  54  76 104 140 179 218 265 323
#     4   9  17  31  52  77 102 126 160 206 258 311
#     4  10  19  32  51  75 105 136 170 212 262 317
#     4   9  17  31  51  71  93 127 171 213 251 297
#     4  10  21  36  53  75 105 140 179 227 275 315
#     4   9  17  30  52  78 102 127 160 206 256 310
#
# _framework density 18.278714000000001
#
# number of rings (size 3 to 8) (size 9 to 14) (size 15 to 20)
#    0.000    2.385    1.538    1.154    0.000    4.615 
#    0.000    1.538    1.692    0.000    0.000    0.000 
#    0.000    0.000    0.000    0.000    0.000    0.000 
#
# Total GULP energy -644450.702632 kJ/mol
# GULP energy per Si atom -12393.282743 kJ/mol
# Density = 1.823711 g / cm^3
# Si number density = 18.278714 Si / 1000 Ang^3
#
#
#
# Elastic Constant Matrix: (Units=GPa)
#
#
# Indices 1 2 3 4 5 6 
#
# 1 115.9047 48.7399 55.4195 0.0000 0.0000 0.0000
# 2 48.7399 95.9311 28.1244 0.0000 0.0000 0.0000
# 3 55.4195 28.1244 83.1010 0.0000 0.0000 0.0000
# 4 0.0000 0.0000 0.0000 22.2255 0.0000 0.0000
# 5 0.0000 0.0000 0.0000 0.0000 29.1950 0.0000
# 6 0.0000 0.0000 0.0000 0.0000 0.0000 26.1813
#
#
#
# Elastic Compliance Matrix: (Units=1/GPa)
#
#
# Indices 1 2 3 4 5 6 
#
# 1 0.014590 -0.005062 -0.008016 0.000000 0.000000 0.000000
# 2 -0.005062 0.013329 -0.001135 0.000000 0.000000 0.000000
# 3 -0.008016 -0.001135 0.017764 0.000000 0.000000 0.000000
# 4 0.000000 0.000000 0.000000 0.044993 0.000000 0.000000
# 5 0.000000 0.000000 0.000000 0.000000 0.034252 0.000000
# 6 0.000000 0.000000 0.000000 0.000000 0.000000 0.038195
#
#
# Mechanical properties :
#
#
# Convention : Reuss Voigt Hill
#
# Bulk Modulus (GPa) = 57.95476 62.16716 60.06096
# Shear Modulus (GPa) = 25.34180 26.36389 25.85284
#
# Velocity S-wave (km/s) = 3.72749 3.80192 3.76489
# Velocity P-wave (km/s) = 7.09229 7.30461 7.19923
#
# Compressibility (1/GPa) = 0.01725484
#
# Stress axis : x y z
#
# Youngs Moduli (GPa) = 68.54177 75.02477 56.29438
#
# Poissons Ratio (x) = 0.37980 0.45128
# Poissons Ratio (y) = 0.34699 0.06389
# Poissons Ratio (z) = 0.54946 0.08515
#
# Static dielectric constant tensor:
#      x y z
#    x 3.223620 0.000000 0.000000 
#    y 0.000000 3.394300 0.000000 
#    z 0.000000 0.000000 3.506260 
# 
# 
# High freq. dielectric constant tensor:
#      x y z
#    x 1.690180 0.000000 0.000000 
#    y 0.000000 1.693960 0.000000 
#    z 0.000000 0.000000 1.713960 
# 
# From -- ./inp_files/11536.got.cif
#   From: 2010.06.25/outbox.cif.g09.slc.cpg/sg71_6_cif.got.tgz:11536.got - 2010.06.28 04:59:45.
