data_PCOD8289411
_publ_section_title
;
Structure prediction by ZEFSAII (Michael W. Deem and Ramdas Pophale) SiO2 
 PCOD8289411
Probable space group: I M M M
;
_chemical_formula_sum "Si O2"
_cell_formula_units_Z 96
_cell_length_a 17.438955
_cell_length_b 24.225115
_cell_length_c 12.262735
_cell_angle_alpha 90.000000
_cell_angle_beta 90.000000
_cell_angle_gamma 90.000000
_cell_volume 5180.523494
_symmetry_space_group_name_H-M "I M M M"
_symmetry_group_IT_number 71
_symmetry_cell_setting 'orthorhombic'
loop_
_space_group_symop_operation_xyz
x,y,z
-x,-y,z
x,-y,-z
-x,y,-z
-x,-y,-z
x,y,-z
-x,y,z
x,-y,z
1/2+x,1/2+y,1/2+z
1/2-x,1/2-y,1/2+z
1/2+x,1/2-y,1/2-z
1/2-x,1/2+y,1/2-z
1/2-x,1/2-y,1/2-z
1/2+x,1/2+y,1/2-z
1/2-x,1/2+y,1/2+z
1/2+x,1/2-y,1/2+z
loop_
_atom_site_type_symbol
_atom_site_label
_atom_site_fract_x
_atom_site_fract_y
_atom_site_fract_z
Si Si1 0.808304 0.342885 0.875578
Si Si2 0.129195 0.823360 0.622271
Si Si3 0.214949 0.439334 0.268860
Si Si4 0.588971 0.349091 0.500000
Si Si5 0.862989 0.058474 0.376540
Si Si6 0.913770 0.240197 0.823699
Si Si7 0.778974 0.935758 0.000000
O O1 0.719830 0.327966 0.854816
O O2 0.834342 0.392987 0.795336
O O3 0.857751 0.289923 0.847585
O O4 0.822810 0.360952 0.000000
O O5 0.112628 0.803261 0.500000
O O6 0.090421 0.884464 0.643790
O O7 0.091262 0.777594 0.697993
O O8 0.174302 0.500000 0.265906
O O9 0.295854 0.444771 0.209837
O O10 0.228397 0.420626 0.393919
O O11 0.500000 0.367423 0.500000
O O12 0.609873 0.312696 0.394656
O O13 0.641012 0.403149 0.500000
O O14 0.828706 0.063134 0.500000
O O15 0.910521 0.000000 0.366434
O O16 0.000000 0.259167 0.852090
O O17 0.801638 0.000000 0.000000
#
# Coordination Sequence:
#
# PCOD8289411 Si02
#       7
#    16  16  16   8  16  16   8
#     4  10  19  34  55  78 102 130 172 219 265 309
#     4   9  18  31  50  76 101 132 173 217 262 307
#     4   9  17  30  50  77 105 131 160 205 264 314
#     4  10  20  33  50  70  97 145 189 213 252 302
#     4   8  13  24  45  72 100 127 161 209 260 303
#     4  11  22  36  51  70 104 143 176 216 261 311
#     4  10  20  33  50  76 111 139 167 215 262 310
#
# _framework density 18.530946
#
# number of rings (size 3 to 8) (size 9 to 14) (size 15 to 20)
#    0.000    2.500    0.833    4.000    0.000    1.500 
#    1.500    0.000    0.000    2.000    0.000    3.500 
#    0.000    2.000    0.000    3.667    0.000    0.000 
#
# Total GULP energy -594704.990108 kJ/mol
# GULP energy per Si atom -12389.687294 kJ/mol
# Density = 1.848877 g / cm^3
# Si number density = 18.530946 Si / 1000 Ang^3
#
#
#
# Elastic Constant Matrix: (Units=GPa)
#
#
# Indices 1 2 3 4 5 6 
#
# 1 35.1802 44.4125 20.1453 0.0000 0.0000 0.0000
# 2 44.4125 115.2423 51.9671 0.0000 0.0000 0.0000
# 3 20.1453 51.9671 124.2582 0.0000 0.0000 0.0000
# 4 0.0000 0.0000 0.0000 31.2999 0.0000 0.0000
# 5 0.0000 0.0000 0.0000 0.0000 9.3820 0.0000
# 6 0.0000 0.0000 0.0000 0.0000 0.0000 -28.5139
#
#
#
# Elastic Compliance Matrix: (Units=1/GPa)
#
#
# Indices 1 2 3 4 5 6 
#
# 1 0.055358 -0.021305 -0.000065 0.000000 0.000000 0.000000
# 2 -0.021305 0.018894 -0.004448 0.000000 0.000000 0.000000
# 3 -0.000065 -0.004448 0.009918 0.000000 0.000000 0.000000
# 4 0.000000 0.000000 0.000000 0.031949 0.000000 0.000000
# 5 0.000000 0.000000 0.000000 0.000000 0.106587 0.000000
# 6 0.000000 0.000000 0.000000 0.000000 0.000000 -0.035071
#
#
# Mechanical properties :
#
#
# Convention : Reuss Voigt Hill
#
# Bulk Modulus (GPa) = 30.73571 56.41451 43.57511
# Shear Modulus (GPa) = 19.99077 12.97731 16.48404
#
# Velocity S-wave (km/s) = 3.28804 2.64920 2.98575
# Velocity P-wave (km/s) = 5.57109 6.31404 5.95417
#
# Compressibility (1/GPa) = 0.03253544
#
# Stress axis : x y z
#
# Youngs Moduli (GPa) = 18.06414 52.92816 100.82354
#
# Poissons Ratio (x) = 1.12763 0.00654
# Poissons Ratio (y) = 0.38486 0.44842
# Poissons Ratio (z) = 0.00117 0.23540
#
# Static dielectric constant tensor:
#      x y z
#    x 2.862940 0.000000 0.000000 
#    y 0.000000 3.799730 0.000000 
#    z 0.000000 0.000000 3.775330 
# 
# 
# High freq. dielectric constant tensor:
#      x y z
#    x 1.651710 0.000000 0.000000 
#    y 0.000000 1.728080 0.000000 
#    z 0.000000 0.000000 1.738430 
# 
# From -- ./inp_files/26170.got.cif
#   From: 2010.06.25/outbox.cif.g09.slc.cpg/sg71_14_cif.got.tgz:26170.got - 2010.06.28 04:59:45.
