data_PCOD8289025
_publ_section_title
;
Structure prediction by ZEFSAII (Michael W. Deem and Ramdas Pophale) SiO2 
 PCOD8289025
Probable space group: I M M M
;
_chemical_formula_sum "Si O2"
_cell_formula_units_Z 104
_cell_length_a 20.731516
_cell_length_b 25.232182
_cell_length_c 10.476901
_cell_angle_alpha 90.000000
_cell_angle_beta 90.000000
_cell_angle_gamma 90.000000
_cell_volume 5480.481422
_symmetry_space_group_name_H-M "I M M M"
_symmetry_group_IT_number 71
_symmetry_cell_setting 'orthorhombic'
loop_
_space_group_symop_operation_xyz
x,y,z
-x,-y,z
x,-y,-z
-x,y,-z
-x,-y,-z
x,y,-z
-x,y,z
x,-y,z
1/2+x,1/2+y,1/2+z
1/2-x,1/2-y,1/2+z
1/2+x,1/2-y,1/2-z
1/2-x,1/2+y,1/2-z
1/2-x,1/2-y,1/2-z
1/2+x,1/2+y,1/2-z
1/2-x,1/2+y,1/2+z
1/2+x,1/2-y,1/2+z
loop_
_atom_site_type_symbol
_atom_site_label
_atom_site_fract_x
_atom_site_fract_y
_atom_site_fract_z
Si Si1 0.500000 0.558969 0.651618
Si Si2 0.245214 0.886396 0.854992
Si Si3 0.928011 0.251490 0.275986
Si Si4 0.293282 0.774291 0.138509
Si Si5 0.898975 0.857344 0.148507
Si Si6 0.320569 0.060732 0.353207
Si Si7 0.570085 0.139438 0.649375
O O1 0.500000 0.500000 0.712838
O O2 0.500000 0.553715 0.500000
O O3 0.563057 0.590918 0.699860
O O4 0.295207 0.837720 0.844822
O O5 0.175608 0.863529 0.817633
O O6 0.262375 0.929954 0.747383
O O7 0.245366 0.910401 0.000000
O O8 0.866912 0.252921 0.370809
O O9 0.928514 0.195445 0.207020
O O10 0.912857 0.299617 0.179165
O O11 0.000000 0.258597 0.339230
O O12 0.250000 0.750000 0.250000
O O13 0.261618 0.760456 0.000000
O O14 0.911067 0.851872 0.000000
O O15 0.300362 0.075186 0.500000
O O16 0.378383 0.097087 0.299609
O O17 0.342533 0.000000 0.346299
O O18 0.567573 0.133044 0.500000
O O19 0.500000 0.125087 0.708806
#
# Coordination Sequence:
#
# PCOD8289025 Si02
#       7
#     8  16  16  16  16  16  16
#     4   9  18  32  50  76 113 153 190 236 289 332
#     4  10  21  37  56  82 114 149 192 237 286 341
#     4  11  20  33  55  84 118 152 188 236 291 352
#     4  11  23  38  58  86 119 156 194 237 293 355
#     4  10  19  32  53  83 115 148 191 238 283 340
#     4  10  21  37  57  81 110 146 191 241 290 342
#     4   9  18  31  51  81 112 146 186 231 287 341
#
# _framework density 18.976436
#
# number of rings (size 3 to 8) (size 9 to 14) (size 15 to 20)
#    0.000    1.923    3.846    0.462    0.000    3.385 
#    0.000    3.077    0.000    0.462    0.000    1.077 
#    0.000    2.462    0.000    0.000    0.000    0.000 
#
# Total GULP energy -644306.571335 kJ/mol
# GULP energy per Si atom -12390.510987 kJ/mol
# Density = 1.893324 g / cm^3
# Si number density = 18.976436 Si / 1000 Ang^3
#
#
#
# Elastic Constant Matrix: (Units=GPa)
#
#
# Indices 1 2 3 4 5 6 
#
# 1 98.7736 42.8807 39.0500 0.0000 0.0000 0.0000
# 2 42.8807 121.0652 33.7055 0.0000 0.0000 0.0000
# 3 39.0500 33.7055 76.5703 0.0000 0.0000 0.0000
# 4 0.0000 0.0000 0.0000 24.2928 0.0000 0.0000
# 5 0.0000 0.0000 0.0000 0.0000 17.9450 0.0000
# 6 0.0000 0.0000 0.0000 0.0000 0.0000 28.3037
#
#
#
# Elastic Compliance Matrix: (Units=1/GPa)
#
#
# Indices 1 2 3 4 5 6 
#
# 1 0.013766 -0.003329 -0.005555 0.000000 0.000000 0.000000
# 2 -0.003329 0.010219 -0.002800 0.000000 0.000000 0.000000
# 3 -0.005555 -0.002800 0.017125 0.000000 0.000000 0.000000
# 4 0.000000 0.000000 0.000000 0.041164 0.000000 0.000000
# 5 0.000000 0.000000 0.000000 0.000000 0.055726 0.000000
# 6 0.000000 0.000000 0.000000 0.000000 0.000000 0.035331
#
#
# Mechanical properties :
#
#
# Convention : Reuss Voigt Hill
#
# Bulk Modulus (GPa) = 56.36624 58.63130 57.49877
# Shear Modulus (GPa) = 24.67749 26.15982 25.41866
#
# Velocity S-wave (km/s) = 3.61006 3.71690 3.66387
# Velocity P-wave (km/s) = 6.86618 7.02741 6.94726
#
# Compressibility (1/GPa) = 0.01774112
#
# Stress axis : x y z
#
# Youngs Moduli (GPa) = 72.64508 97.85835 58.39248
#
# Poissons Ratio (x) = 0.32579 0.32436
# Poissons Ratio (y) = 0.24185 0.16352
# Poissons Ratio (z) = 0.40353 0.27404
#
# Static dielectric constant tensor:
#      x y z
#    x 3.803100 0.000000 0.000000 
#    y 0.000000 3.446740 0.000000 
#    z 0.000000 0.000000 3.214910 
# 
# 
# High freq. dielectric constant tensor:
#      x y z
#    x 1.746430 0.000000 0.000000 
#    y 0.000000 1.732390 0.000000 
#    z 0.000000 0.000000 1.704890 
# 
# From -- ./inp_files/11101.got.cif
#   From: 2010.06.25/outbox.cif.g09.slc.cpg/sg71_6_cif.got.tgz:11101.got - 2010.06.28 04:59:45.
