data_PCOD8289370
_publ_section_title
;
Structure prediction by ZEFSAII (Michael W. Deem and Ramdas Pophale) SiO2 
 PCOD8289370
Probable space group: I M M M
;
_chemical_formula_sum "Si O2"
_cell_formula_units_Z 104
_cell_length_a 33.048241
_cell_length_b 9.202727
_cell_length_c 19.003939
_cell_angle_alpha 90.000000
_cell_angle_beta 90.000000
_cell_angle_gamma 90.000000
_cell_volume 5779.742839
_symmetry_space_group_name_H-M "I M M M"
_symmetry_group_IT_number 71
_symmetry_cell_setting 'orthorhombic'
loop_
_space_group_symop_operation_xyz
x,y,z
-x,-y,z
x,-y,-z
-x,y,-z
-x,-y,-z
x,y,-z
-x,y,z
x,-y,z
1/2+x,1/2+y,1/2+z
1/2-x,1/2-y,1/2+z
1/2+x,1/2-y,1/2-z
1/2-x,1/2+y,1/2-z
1/2-x,1/2-y,1/2-z
1/2+x,1/2+y,1/2-z
1/2-x,1/2+y,1/2+z
1/2+x,1/2-y,1/2+z
loop_
_atom_site_type_symbol
_atom_site_label
_atom_site_fract_x
_atom_site_fract_y
_atom_site_fract_z
Si Si1 0.045170 0.328133 0.691392
Si Si2 0.267238 0.336158 0.583767
Si Si3 0.809949 0.836190 0.583701
Si Si4 0.610244 0.829599 0.918969
Si Si5 0.000000 0.836282 0.082946
Si Si6 0.071293 0.329603 0.155337
Si Si7 0.653687 0.168510 0.580975
O O1 0.041755 0.500000 0.688352
O O2 0.072198 0.272678 0.626313
O O3 0.066274 0.279919 0.763969
O O4 0.000000 0.260282 0.686048
O O5 0.265382 0.335399 0.500000
O O6 0.265888 0.500000 0.613164
O O7 0.228944 0.248178 0.614563
O O8 0.308404 0.260253 0.609299
O O9 0.807916 0.837146 0.500000
O O10 0.850264 0.753971 0.608637
O O11 0.810178 0.000000 0.613482
O O12 0.618297 0.000000 0.907807
O O13 0.600587 0.793644 0.000000
O O14 0.960168 0.755047 0.107923
O O15 0.000000 0.000000 0.112786
O O16 0.000000 0.836103 0.000000
O O17 0.062693 0.500000 0.145869
O O18 0.116024 0.288397 0.129675
O O19 0.643244 0.206429 0.500000
O O20 0.665035 0.000000 0.588403
#
# Coordination Sequence:
#
# PCOD8289370 Si02
#       7
#    16  16  16  16   8  16  16
#     4   9  17  31  52  75  98 127 166 208 248 295
#     4   9  16  26  43  68  98 130 160 194 241 292
#     4   9  16  27  45  69  98 129 161 200 243 289
#     4   9  17  29  48  75 103 129 160 201 249 299
#     4  11  23  35  49  73 102 129 162 210 259 295
#     4  10  19  34  54  72  95 131 172 209 245 295
#     4   9  17  28  44  69  97 125 161 202 242 285
#
# _framework density 17.993880000000001
#
# number of rings (size 3 to 8) (size 9 to 14) (size 15 to 20)
#    0.000    2.692    0.769    1.615    0.000    5.846 
#    0.000    3.846    0.000    0.923    0.000    2.154 
#    0.000    0.000    0.000    0.000    0.000    0.000 
#
# Total GULP energy -644778.960355 kJ/mol
# GULP energy per Si atom -12399.595391 kJ/mol
# Density = 1.795292 g / cm^3
# Si number density = 17.993880 Si / 1000 Ang^3
#
#
#
# Elastic Constant Matrix: (Units=GPa)
#
#
# Indices 1 2 3 4 5 6 
#
# 1 185.1430 71.8988 66.9866 0.0000 0.0000 0.0000
# 2 71.8988 83.7958 32.0296 0.0000 0.0000 0.0000
# 3 66.9866 32.0296 64.7414 0.0000 0.0000 0.0000
# 4 0.0000 0.0000 0.0000 9.8667 0.0000 0.0000
# 5 0.0000 0.0000 0.0000 0.0000 -10.9875 0.0000
# 6 0.0000 0.0000 0.0000 0.0000 0.0000 19.9832
#
#
#
# Elastic Compliance Matrix: (Units=1/GPa)
#
#
# Indices 1 2 3 4 5 6 
#
# 1 0.010669 -0.006086 -0.008029 0.000000 0.000000 0.000000
# 2 -0.006086 0.018188 -0.002701 0.000000 0.000000 0.000000
# 3 -0.008029 -0.002701 0.025090 0.000000 0.000000 0.000000
# 4 0.000000 0.000000 0.000000 0.101351 0.000000 0.000000
# 5 0.000000 0.000000 0.000000 0.000000 -0.091013 0.000000
# 6 0.000000 0.000000 0.000000 0.000000 0.000000 0.050042
#
#
# Mechanical properties :
#
#
# Convention : Reuss Voigt Hill
#
# Bulk Modulus (GPa) = 49.22343 75.05670 62.14007
# Shear Modulus (GPa) = 32.31424 14.62351 23.46887
#
# Velocity S-wave (km/s) = 4.24234 2.85387 3.61539
# Velocity P-wave (km/s) = 7.17019 7.25688 7.21367
#
# Compressibility (1/GPa) = 0.02031553
#
# Stress axis : x y z
#
# Youngs Moduli (GPa) = 93.72559 54.98098 39.85723
#
# Poissons Ratio (x) = 0.33460 0.32000
# Poissons Ratio (y) = 0.57040 0.10767
# Poissons Ratio (z) = 0.75249 0.14852
#
# Static dielectric constant tensor:
#      x y z
#    x 3.592320 0.000000 0.000000 
#    y 0.000000 3.298580 0.000000 
#    z 0.000000 0.000000 3.057840 
# 
# 
# High freq. dielectric constant tensor:
#      x y z
#    x 1.710480 0.000000 0.000000 
#    y 0.000000 1.683100 0.000000 
#    z 0.000000 0.000000 1.658750 
# 
# From -- ./inp_files/56719.got.cif
#   From: 2010.06.25/outbox.cif.g09.slc.cpg/sg71_29_cif.got.tgz:56719.got - 2010.06.28 04:59:45.
