data_PCOD8289160
_publ_section_title
;
Structure prediction by ZEFSAII (Michael W. Deem and Ramdas Pophale) SiO2 
 PCOD8289160
Probable space group: I M M M
;
_chemical_formula_sum "Si O2"
_cell_formula_units_Z 80
_cell_length_a 21.285141
_cell_length_b 10.269353
_cell_length_c 21.298939
_cell_angle_alpha 90.000000
_cell_angle_beta 90.000000
_cell_angle_gamma 90.000000
_cell_volume 4655.620628
_symmetry_space_group_name_H-M "I M M M"
_symmetry_group_IT_number 71
_symmetry_cell_setting 'orthorhombic'
loop_
_space_group_symop_operation_xyz
x,y,z
-x,-y,z
x,-y,-z
-x,y,-z
-x,-y,-z
x,y,-z
-x,y,z
x,-y,z
1/2+x,1/2+y,1/2+z
1/2-x,1/2-y,1/2+z
1/2+x,1/2-y,1/2-z
1/2-x,1/2+y,1/2-z
1/2-x,1/2-y,1/2-z
1/2+x,1/2+y,1/2-z
1/2-x,1/2+y,1/2+z
1/2+x,1/2-y,1/2+z
loop_
_atom_site_type_symbol
_atom_site_label
_atom_site_fract_x
_atom_site_fract_y
_atom_site_fract_z
Si Si1 0.738632 0.000000 0.153772
Si Si2 0.657753 0.000000 0.277801
Si Si3 0.861540 0.000000 0.233492
Si Si4 0.780974 0.000000 0.357609
Si Si5 0.928658 0.265139 0.756913
Si Si6 0.303967 0.235766 0.928919
Si Si7 0.569455 0.848292 0.116773
O O1 0.686773 0.000000 0.208260
O O2 0.731338 0.128521 0.112293
O O3 0.807835 0.000000 0.181492
O O4 0.711321 0.000000 0.329888
O O5 0.615381 0.126963 0.288670
O O6 0.904870 0.875484 0.222187
O O7 0.832267 0.000000 0.302777
O O8 0.789568 0.124247 0.401069
O O9 0.925019 0.273052 0.682041
O O10 0.000000 0.286238 0.780214
O O11 0.378933 0.209236 0.930190
O O12 0.279073 0.228772 0.000000
O O13 0.500000 0.827854 0.087330
O O14 0.582554 0.000000 0.129620
#
# Coordination Sequence:
#
# PCOD8289160 Si02
#       7
#     8   8   8   8  16  16  16
#     4  11  21  36  54  78 101 140 186 216 271 304
#     4  11  19  36  58  75 106 139 179 220 259 328
#     4  11  21  34  54  77 110 137 171 220 267 334
#     4  11  23  36  52  78 107 144 178 212 275 312
#     4  11  19  32  53  81 110 137 172 215 266 313
#     4  12  22  37  53  75 108 142 188 224 254 303
#     4  10  19  33  52  75 105 142 190 225 249 291
#
# _framework density 17.183530000000001
#
# number of rings (size 3 to 8) (size 9 to 14) (size 15 to 20)
#    0.000    1.000    6.000    2.400    0.000    3.600 
#    0.000    1.500    0.000    1.200    0.000    0.000 
#    0.000   56.000    0.000    0.000    0.000    0.000 
#
# Total GULP energy -496113.201591 kJ/mol
# GULP energy per Si atom -12402.830040 kJ/mol
# Density = 1.714442 g / cm^3
# Si number density = 17.183530 Si / 1000 Ang^3
#
#
#
# Elastic Constant Matrix: (Units=GPa)
#
#
# Indices 1 2 3 4 5 6 
#
# 1 103.1497 46.8390 40.6543 0.0000 0.0000 0.0000
# 2 46.8390 144.2272 43.9747 0.0000 0.0000 0.0000
# 3 40.6543 43.9747 80.3573 0.0000 0.0000 0.0000
# 4 0.0000 0.0000 0.0000 -20.9145 0.0000 0.0000
# 5 0.0000 0.0000 0.0000 0.0000 18.0309 0.0000
# 6 0.0000 0.0000 0.0000 0.0000 0.0000 66.9153
#
#
#
# Elastic Compliance Matrix: (Units=1/GPa)
#
#
# Indices 1 2 3 4 5 6 
#
# 1 0.012895 -0.002639 -0.005080 0.000000 0.000000 0.000000
# 2 -0.002639 0.008862 -0.003515 0.000000 0.000000 0.000000
# 3 -0.005080 -0.003515 0.016938 0.000000 0.000000 0.000000
# 4 0.000000 0.000000 0.000000 -0.047814 0.000000 0.000000
# 5 0.000000 0.000000 0.000000 0.000000 0.055460 0.000000
# 6 0.000000 0.000000 0.000000 0.000000 0.000000 0.014944
#
#
# Mechanical properties :
#
#
# Convention : Reuss Voigt Hill
#
# Bulk Modulus (GPa) = 61.62080 65.63002 63.62541
# Shear Modulus (GPa) = 56.07793 25.89077 40.98435
#
# Velocity S-wave (km/s) = 5.71888 3.88586 4.88904
# Velocity P-wave (km/s) = 8.91884 7.64262 8.30528
#
# Compressibility (1/GPa) = 0.01622829
#
# Stress axis : x y z
#
# Youngs Moduli (GPa) = 77.54935 112.83970 59.04008
#
# Poissons Ratio (x) = 0.29778 0.29990
# Poissons Ratio (y) = 0.20465 0.20750
# Poissons Ratio (z) = 0.39393 0.39659
#
# Static dielectric constant tensor:
#      x y z
#    x 3.573220 0.000000 0.000000 
#    y 0.000000 3.217980 0.000000 
#    z 0.000000 0.000000 2.885010 
# 
# 
# High freq. dielectric constant tensor:
#      x y z
#    x 1.669460 0.000000 0.000000 
#    y 0.000000 1.678670 0.000000 
#    z 0.000000 0.000000 1.625740 
# 
# From -- ./inp_files/50457.got.cif
#   From: 2010.06.25/outbox.cif.g09.slc.cpg/sg71_26_cif.got.tgz:50457.got - 2010.06.28 04:59:45.
