data_PCOD8289782
_publ_section_title
;
Structure prediction by ZEFSAII (Michael W. Deem and Ramdas Pophale) SiO2 
 PCOD8289782
Probable space group: I M M M
;
_chemical_formula_sum "Si O2"
_cell_formula_units_Z 80
_cell_length_a 19.043812
_cell_length_b 8.785961
_cell_length_c 32.862546
_cell_angle_alpha 90.000000
_cell_angle_beta 90.000000
_cell_angle_gamma 90.000000
_cell_volume 5498.501700
_symmetry_space_group_name_H-M "I M M M"
_symmetry_group_IT_number 71
_symmetry_cell_setting 'orthorhombic'
loop_
_space_group_symop_operation_xyz
x,y,z
-x,-y,z
x,-y,-z
-x,y,-z
-x,-y,-z
x,y,-z
-x,y,z
x,-y,z
1/2+x,1/2+y,1/2+z
1/2-x,1/2-y,1/2+z
1/2+x,1/2-y,1/2-z
1/2-x,1/2+y,1/2-z
1/2-x,1/2-y,1/2-z
1/2+x,1/2+y,1/2-z
1/2-x,1/2+y,1/2+z
1/2+x,1/2-y,1/2+z
loop_
_atom_site_type_symbol
_atom_site_label
_atom_site_fract_x
_atom_site_fract_y
_atom_site_fract_z
Si Si1 0.355450 0.820778 0.731414
Si Si2 0.919768 0.677624 0.546316
Si Si3 0.500000 0.319374 0.257272
Si Si4 0.360967 0.679800 0.121842
Si Si5 0.000000 0.180334 0.665669
Si Si6 0.727928 0.820729 0.188665
O O1 0.430249 0.744823 0.721505
O O2 0.328580 0.774292 0.776576
O O3 0.301757 0.758597 0.697912
O O4 0.362150 0.000000 0.726794
O O5 0.897726 0.711934 0.500000
O O6 0.913225 0.500000 0.556025
O O7 0.865732 0.770318 0.574762
O O8 0.000000 0.732236 0.553595
O O9 0.500000 0.500000 0.259927
O O10 0.500000 0.256600 0.211263
O O11 0.351624 0.500000 0.125308
O O12 0.431666 0.742325 0.142868
O O13 0.296574 0.760277 0.144752
O O14 0.000000 0.000000 0.665536
O O15 0.739428 0.000000 0.187376
#
# Coordination Sequence:
#
# PCOD8289782 Si02
#       6
#    16  16   8  16   8  16
#     4  10  20  32  45  63  85 111 145 183 220 260
#     4   9  18  31  44  60  84 113 145 182 222 262
#     4  11  19  31  47  62  86 115 145 182 222 264
#     4  11  19  30  45  63  85 112 146 186 224 260
#     4   9  18  27  38  60  85 110 144 182 218 255
#     4  10  20  32  45  62  84 113 145 180 223 264
#
# _framework density 14.549417999999999
#
# number of rings (size 3 to 8) (size 9 to 14) (size 15 to 20)
#    0.000    2.000    3.000    2.700    0.000    2.000 
#    0.000    1.000    0.000    0.000    0.000    0.000 
#    0.000    0.000    0.000    0.900    0.000   16.600 
#
# Total GULP energy -496073.425890 kJ/mol
# GULP energy per Si atom -12401.835647 kJ/mol
# Density = 1.451630 g / cm^3
# Si number density = 14.549418 Si / 1000 Ang^3
#
#
#
# Elastic Constant Matrix: (Units=GPa)
#
#
# Indices 1 2 3 4 5 6 
#
# 1 95.7405 37.9219 37.9658 0.0000 0.0000 0.0000
# 2 37.9219 63.7641 26.9245 0.0000 0.0000 0.0000
# 3 37.9658 26.9245 74.8403 0.0000 0.0000 0.0000
# 4 0.0000 0.0000 0.0000 23.2249 0.0000 0.0000
# 5 0.0000 0.0000 0.0000 0.0000 21.3844 0.0000
# 6 0.0000 0.0000 0.0000 0.0000 0.0000 24.6012
#
#
#
# Elastic Compliance Matrix: (Units=1/GPa)
#
#
# Indices 1 2 3 4 5 6 
#
# 1 0.015245 -0.006840 -0.005273 0.000000 0.000000 0.000000
# 2 -0.006840 0.021561 -0.004287 0.000000 0.000000 0.000000
# 3 -0.005273 -0.004287 0.017579 0.000000 0.000000 0.000000
# 4 0.000000 0.000000 0.000000 0.043057 0.000000 0.000000
# 5 0.000000 0.000000 0.000000 0.000000 0.046763 0.000000
# 6 0.000000 0.000000 0.000000 0.000000 0.000000 0.040648
#
#
# Mechanical properties :
#
#
# Convention : Reuss Voigt Hill
#
# Bulk Modulus (GPa) = 46.32794 48.88548 47.60671
# Shear Modulus (GPa) = 22.23719 22.61094 22.42407
#
# Velocity S-wave (km/s) = 3.91370 3.94646 3.93012
# Velocity P-wave (km/s) = 7.23420 7.37825 7.30658
#
# Compressibility (1/GPa) = 0.02158525
#
# Stress axis : x y z
#
# Youngs Moduli (GPa) = 65.59436 46.38031 56.88635
#
# Poissons Ratio (x) = 0.31725 0.29996
# Poissons Ratio (y) = 0.44867 0.24386
# Poissons Ratio (z) = 0.34588 0.19882
#
# Static dielectric constant tensor:
#      x y z
#    x 2.690670 0.000000 0.000000 
#    y 0.000000 2.756100 0.000000 
#    z 0.000000 0.000000 2.697460 
# 
# 
# High freq. dielectric constant tensor:
#      x y z
#    x 1.531090 0.000000 0.000000 
#    y 0.000000 1.565620 0.000000 
#    z 0.000000 0.000000 1.529710 
# 
# From -- ./inp_files/8663.got.cif
#   From: 2010.06.25/outbox.cif.g09.slc.cpg/sg71_5_cif.got.tgz:8663.got - 2010.06.28 04:59:45.
