data_PCOD8289633
_publ_section_title
;
Structure prediction by ZEFSAII (Michael W. Deem and Ramdas Pophale) SiO2 
 PCOD8289633
Probable space group: I M M M
;
_chemical_formula_sum "Si O2"
_cell_formula_units_Z 120
_cell_length_a 25.038817
_cell_length_b 18.749354
_cell_length_c 12.752432
_cell_angle_alpha 90.000000
_cell_angle_beta 90.000000
_cell_angle_gamma 90.000000
_cell_volume 5986.777688
_symmetry_space_group_name_H-M "I M M M"
_symmetry_group_IT_number 71
_symmetry_cell_setting 'orthorhombic'
loop_
_space_group_symop_operation_xyz
x,y,z
-x,-y,z
x,-y,-z
-x,y,-z
-x,-y,-z
x,y,-z
-x,y,z
x,-y,z
1/2+x,1/2+y,1/2+z
1/2-x,1/2-y,1/2+z
1/2+x,1/2-y,1/2-z
1/2-x,1/2+y,1/2-z
1/2-x,1/2-y,1/2-z
1/2+x,1/2+y,1/2-z
1/2-x,1/2+y,1/2+z
1/2+x,1/2-y,1/2+z
loop_
_atom_site_type_symbol
_atom_site_label
_atom_site_fract_x
_atom_site_fract_y
_atom_site_fract_z
Si Si1 0.000000 0.419524 0.113596
Si Si2 0.411988 0.848261 0.737392
Si Si3 0.819848 0.289989 0.880114
Si Si4 0.940584 0.919984 0.123628
Si Si5 0.558389 0.726353 0.880753
Si Si6 0.647138 0.659368 0.250905
Si Si7 0.750535 0.918060 0.705473
Si Si8 0.326620 0.919317 0.884601
O O1 0.948805 0.406684 0.185200
O O2 0.000000 0.500000 0.082092
O O3 0.000000 0.377872 0.000000
O O4 0.380255 0.815436 0.638840
O O5 0.447123 0.791432 0.799732
O O6 0.371341 0.878681 0.821435
O O7 0.814898 0.222716 0.798992
O O8 0.779470 0.356647 0.861442
O O9 0.812358 0.264496 0.000000
O O10 0.893922 0.868452 0.162193
O O11 0.000000 0.893295 0.158816
O O12 0.931357 0.000000 0.167222
O O13 0.937426 0.920552 0.000000
O O14 0.500000 0.686823 0.874434
O O15 0.610074 0.680476 0.847954
O O16 0.568115 0.752359 0.000000
O O17 0.686428 0.598139 0.208230
O O18 0.729633 0.914084 0.824812
O O19 0.741627 0.000000 0.661863
O O20 0.346028 0.000000 0.894920
O O21 0.319270 0.884976 0.000000
#
# Coordination Sequence:
#
# PCOD8289633 Si02
#       8
#     8  16  16  16  16  16  16  16
#     4  11  22  34  53  83 117 151 189 236 286 339
#     4  10  19  36  56  78 110 147 189 232 281 339
#     4  10  22  38  57  82 113 150 191 238 294 355
#     4   9  18  33  55  86 123 159 192 232 293 361
#     4  10  21  37  57  80 110 150 192 234 286 341
#     4  11  21  36  59  87 116 148 194 249 298 347
#     4  10  22  39  58  83 114 151 196 242 295 357
#     4   9  18  33  53  78 109 146 187 234 287 340
#
# _framework density 20.044172
#
# number of rings (size 3 to 8) (size 9 to 14) (size 15 to 20)
#    0.000    2.067    0.667    3.200    0.000    2.400 
#    0.000    1.333    0.000    2.800    0.000    4.667 
#    0.000    0.000    0.000    0.000    0.000    0.000 
#
# Total GULP energy -743323.984060 kJ/mol
# GULP energy per Si atom -12388.733068 kJ/mol
# Density = 1.999855 g / cm^3
# Si number density = 20.044172 Si / 1000 Ang^3
#
#
#
# Elastic Constant Matrix: (Units=GPa)
#
#
# Indices 1 2 3 4 5 6 
#
# 1 107.6037 39.4265 34.6327 0.0000 0.0000 0.0000
# 2 39.4265 77.5384 17.8229 0.0000 0.0000 0.0000
# 3 34.6327 17.8229 91.2590 0.0000 0.0000 0.0000
# 4 0.0000 0.0000 0.0000 20.0008 0.0000 0.0000
# 5 0.0000 0.0000 0.0000 0.0000 17.7717 0.0000
# 6 0.0000 0.0000 0.0000 0.0000 0.0000 20.5714
#
#
#
# Elastic Compliance Matrix: (Units=1/GPa)
#
#
# Indices 1 2 3 4 5 6 
#
# 1 0.012491 -0.005509 -0.003665 0.000000 0.000000 0.000000
# 2 -0.005509 0.015933 -0.001021 0.000000 0.000000 0.000000
# 3 -0.003665 -0.001021 0.012548 0.000000 0.000000 0.000000
# 4 0.000000 0.000000 0.000000 0.049998 0.000000 0.000000
# 5 0.000000 0.000000 0.000000 0.000000 0.056269 0.000000
# 6 0.000000 0.000000 0.000000 0.000000 0.000000 0.048611
#
#
# Mechanical properties :
#
#
# Convention : Reuss Voigt Hill
#
# Bulk Modulus (GPa) = 48.58443 51.12947 49.85695
# Shear Modulus (GPa) = 22.41139 23.97005 23.19072
#
# Velocity S-wave (km/s) = 3.34743 3.46187 3.40513
# Velocity P-wave (km/s) = 6.26352 6.44540 6.35511
#
# Compressibility (1/GPa) = 0.02058272
#
# Stress axis : x y z
#
# Youngs Moduli (GPa) = 80.05494 62.76344 79.69462
#
# Poissons Ratio (x) = 0.34578 0.29204
# Poissons Ratio (y) = 0.44104 0.08136
# Poissons Ratio (z) = 0.29336 0.06408
#
# Static dielectric constant tensor:
#      x y z
#    x 3.686210 0.000000 0.000000 
#    y 0.000000 3.694900 0.000000 
#    z 0.000000 0.000000 3.565680 
# 
# 
# High freq. dielectric constant tensor:
#      x y z
#    x 1.787560 0.000000 0.000000 
#    y 0.000000 1.770790 0.000000 
#    z 0.000000 0.000000 1.776280 
# 
# From -- ./inp_files/27715.got.cif
#   From: 2010.06.25/outbox.cif.g09.slc.cpg/sg71_14_cif.got.tgz:27715.got - 2010.06.28 04:59:45.
