data_PCOD8289559
_publ_section_title
;
Structure prediction by ZEFSAII (Michael W. Deem and Ramdas Pophale) SiO2 
 PCOD8289559
Probable space group: I M M M
;
_chemical_formula_sum "Si O2"
_cell_formula_units_Z 72
_cell_length_a 17.910044
_cell_length_b 13.309936
_cell_length_c 14.457715
_cell_angle_alpha 90.000000
_cell_angle_beta 90.000000
_cell_angle_gamma 90.000000
_cell_volume 3446.452358
_symmetry_space_group_name_H-M "I M M M"
_symmetry_group_IT_number 71
_symmetry_cell_setting 'orthorhombic'
loop_
_space_group_symop_operation_xyz
x,y,z
-x,-y,z
x,-y,-z
-x,y,-z
-x,-y,-z
x,y,-z
-x,y,z
x,-y,z
1/2+x,1/2+y,1/2+z
1/2-x,1/2-y,1/2+z
1/2+x,1/2-y,1/2-z
1/2-x,1/2+y,1/2-z
1/2-x,1/2-y,1/2-z
1/2+x,1/2+y,1/2-z
1/2-x,1/2+y,1/2+z
1/2+x,1/2-y,1/2+z
loop_
_atom_site_type_symbol
_atom_site_label
_atom_site_fract_x
_atom_site_fract_y
_atom_site_fract_z
Si Si1 0.214427 0.803830 0.106381
Si Si2 0.418043 0.119397 0.000000
Si Si3 0.187208 0.885218 0.394601
Si Si4 0.087185 0.198773 0.765445
Si Si5 0.149137 0.386019 0.688848
O O1 0.240488 0.687300 0.119468
O O2 0.129910 0.827400 0.138959
O O3 0.261902 0.870079 0.181152
O O4 0.222189 0.839638 0.000000
O O5 0.374951 0.157871 0.911039
O O6 0.500000 0.167207 0.000000
O O7 0.421982 0.000000 0.000000
O O8 0.156845 0.873705 0.500000
O O9 0.120521 0.858159 0.323883
O O10 0.214078 0.000000 0.376742
O O11 0.103224 0.318496 0.760030
O O12 0.000000 0.173700 0.775207
O O13 0.126532 0.500000 0.708731
#
# Coordination Sequence:
#
# PCOD8289559 Si02
#       5
#    16   8  16  16  16
#     4  10  21  38  58  80 107 145 194 234 268 319
#     4   9  16  26  46  78 110 136 158 195 266 338
#     4   9  19  38  62  84 107 140 184 232 278 327
#     4  11  24  36  52  83 116 148 185 225 273 330
#     4  10  19  35  57  81 110 141 176 224 279 335
#
# _framework density 20.891048000000001
#
# number of rings (size 3 to 8) (size 9 to 14) (size 15 to 20)
#    0.000    2.111    1.111    3.333    1.556    6.222 
#    0.000    1.111    0.000    0.000    0.000    7.778 
#    0.000    0.000    0.000    0.000    0.000    0.000 
#
# Total GULP energy -446105.150661 kJ/mol
# GULP energy per Si atom -12391.809741 kJ/mol
# Density = 2.084350 g / cm^3
# Si number density = 20.891048 Si / 1000 Ang^3
#
#
#
# Elastic Constant Matrix: (Units=GPa)
#
#
# Indices 1 2 3 4 5 6 
#
# 1 126.9338 -6.5937 21.4543 0.0000 0.0000 0.0000
# 2 -6.5937 57.5439 2.5113 0.0000 0.0000 0.0000
# 3 21.4543 2.5113 44.2861 0.0000 0.0000 0.0000
# 4 0.0000 0.0000 0.0000 19.6590 0.0000 0.0000
# 5 0.0000 0.0000 0.0000 0.0000 22.0879 0.0000
# 6 0.0000 0.0000 0.0000 0.0000 0.0000 11.1806
#
#
#
# Elastic Compliance Matrix: (Units=1/GPa)
#
#
# Indices 1 2 3 4 5 6 
#
# 1 0.008660 0.001178 -0.004262 0.000000 0.000000 0.000000
# 2 0.001178 0.017581 -0.001568 0.000000 0.000000 0.000000
# 3 -0.004262 -0.001568 0.024734 0.000000 0.000000 0.000000
# 4 0.000000 0.000000 0.000000 0.050867 0.000000 0.000000
# 5 0.000000 0.000000 0.000000 0.000000 0.045274 0.000000
# 6 0.000000 0.000000 0.000000 0.000000 0.000000 0.089441
#
#
# Mechanical properties :
#
#
# Convention : Reuss Voigt Hill
#
# Bulk Modulus (GPa) = 23.99680 29.27862 26.63771
# Shear Modulus (GPa) = 19.24922 24.67828 21.96375
#
# Velocity S-wave (km/s) = 3.03877 3.44071 3.24597
# Velocity P-wave (km/s) = 4.88095 5.46168 5.17946
#
# Compressibility (1/GPa) = 0.04167223
#
# Stress axis : x y z
#
# Youngs Moduli (GPa) = 115.47759 56.87810 40.43011
#
# Poissons Ratio (x) = -0.06702 0.17231
# Poissons Ratio (y) = -0.13606 0.06339
# Poissons Ratio (z) = 0.49216 0.08917
#
# Static dielectric constant tensor:
#      x y z
#    x 3.577630 0.000000 0.000000 
#    y 0.000000 3.718010 0.000000 
#    z 0.000000 0.000000 3.881950 
# 
# 
# High freq. dielectric constant tensor:
#      x y z
#    x 1.792270 0.000000 0.000000 
#    y 0.000000 1.811590 0.000000 
#    z 0.000000 0.000000 1.815770 
# 
# From -- ./inp_files/34072.got.cif
#   From: 2010.06.25/outbox.cif.g09.slc.cpg/sg71_18_cif.got.tgz:34072.got - 2010.06.28 04:59:45.
