data_PCOD8289537
_publ_section_title
;
Structure prediction by ZEFSAII (Michael W. Deem and Ramdas Pophale) SiO2 
 PCOD8289537
Probable space group: I M M M
;
_chemical_formula_sum "Si O2"
_cell_formula_units_Z 96
_cell_length_a 9.095582
_cell_length_b 23.503773
_cell_length_c 25.372735
_cell_angle_alpha 90.000000
_cell_angle_beta 90.000000
_cell_angle_gamma 90.000000
_cell_volume 5424.195838
_symmetry_space_group_name_H-M "I M M M"
_symmetry_group_IT_number 71
_symmetry_cell_setting 'orthorhombic'
loop_
_space_group_symop_operation_xyz
x,y,z
-x,-y,z
x,-y,-z
-x,y,-z
-x,-y,-z
x,y,-z
-x,y,z
x,-y,z
1/2+x,1/2+y,1/2+z
1/2-x,1/2-y,1/2+z
1/2+x,1/2-y,1/2-z
1/2-x,1/2+y,1/2-z
1/2-x,1/2-y,1/2-z
1/2+x,1/2+y,1/2-z
1/2-x,1/2+y,1/2+z
1/2+x,1/2-y,1/2+z
loop_
_atom_site_type_symbol
_atom_site_label
_atom_site_fract_x
_atom_site_fract_y
_atom_site_fract_z
Si Si1 0.173753 0.888234 0.345556
Si Si2 0.830756 0.684767 0.439043
Si Si3 0.824440 0.500000 0.808906
Si Si4 0.325337 0.311727 0.058347
Si Si5 0.327702 0.309709 0.747466
Si Si6 0.327773 0.618847 0.648245
Si Si7 0.172468 0.000000 0.803745
O O1 0.265474 0.945684 0.340625
O O2 0.228292 0.857642 0.399130
O O3 0.215434 0.847174 0.297646
O O4 0.000000 0.901914 0.346262
O O5 0.808545 0.669473 0.500000
O O6 0.767699 0.748270 0.427331
O O7 0.745801 0.637493 0.405955
O O8 0.000000 0.681739 0.422603
O O9 0.763875 0.500000 0.749791
O O10 0.000000 0.500000 0.807978
O O11 0.500000 0.308359 0.057844
O O12 0.268385 0.329602 0.000000
O O13 0.500000 0.299061 0.745590
O O14 0.250000 0.250000 0.750000
O O15 0.270238 0.341919 0.695755
O O16 0.500000 0.625305 0.641317
O O17 0.284749 0.554131 0.661186
O O18 0.000000 0.000000 0.787998
#
# Coordination Sequence:
#
# PCOD8289537 Si02
#       7
#    16  16   8  16  16  16   8
#     4  10  19  35  56  75 104 143 177 215 265 317
#     4   9  18  34  56  81 110 141 172 213 265 315
#     4  12  24  36  53  78 105 137 180 226 266 315
#     4   8  15  30  55  83 105 134 179 220 256 306
#     4  10  20  32  50  77 106 138 172 213 267 321
#     4  10  20  34  54  77 102 136 179 220 260 312
#     4  10  20  40  59  72 101 143 184 220 260 313
#
# _framework density 17.698474999999998
#
# number of rings (size 3 to 8) (size 9 to 14) (size 15 to 20)
#    0.000    2.333    1.667    2.750    0.000    3.667 
#    0.000    1.667    0.000    6.500    0.000    0.000 
#    0.000    0.000    0.000    0.000    0.000    0.000 
#
# Total GULP energy -595196.757390 kJ/mol
# GULP energy per Si atom -12399.932446 kJ/mol
# Density = 1.765819 g / cm^3
# Si number density = 17.698475 Si / 1000 Ang^3
#
#
#
# Elastic Constant Matrix: (Units=GPa)
#
#
# Indices 1 2 3 4 5 6 
#
# 1 42.7648 50.9195 39.2331 0.0000 0.0000 0.0000
# 2 50.9195 158.5155 78.2548 0.0000 0.0000 0.0000
# 3 39.2331 78.2548 118.4949 0.0000 0.0000 0.0000
# 4 0.0000 0.0000 0.0000 24.7531 0.0000 0.0000
# 5 0.0000 0.0000 0.0000 0.0000 24.3418 0.0000
# 6 0.0000 0.0000 0.0000 0.0000 0.0000 30.5054
#
#
#
# Elastic Compliance Matrix: (Units=1/GPa)
#
#
# Indices 1 2 3 4 5 6 
#
# 1 0.041806 -0.009787 -0.007379 0.000000 0.000000 0.000000
# 2 -0.009787 0.011651 -0.004454 0.000000 0.000000 0.000000
# 3 -0.007379 -0.004454 0.013824 0.000000 0.000000 0.000000
# 4 0.000000 0.000000 0.000000 0.040399 0.000000 0.000000
# 5 0.000000 0.000000 0.000000 0.000000 0.041082 0.000000
# 6 0.000000 0.000000 0.000000 0.000000 0.000000 0.032781
#
#
# Mechanical properties :
#
#
# Convention : Reuss Voigt Hill
#
# Bulk Modulus (GPa) = 41.59402 72.95446 57.27424
# Shear Modulus (GPa) = 21.47815 26.01126 23.74470
#
# Velocity S-wave (km/s) = 3.48740 3.83781 3.66679
# Velocity P-wave (km/s) = 6.30622 7.80696 7.09637
#
# Compressibility (1/GPa) = 0.02404192
#
# Stress axis : x y z
#
# Youngs Moduli (GPa) = 23.92026 85.82842 72.33909
#
# Poissons Ratio (x) = 0.83996 0.53376
# Poissons Ratio (y) = 0.23410 0.32221
# Poissons Ratio (z) = 0.17650 0.38230
#
# Static dielectric constant tensor:
#      x y z
#    x 3.004510 0.000000 0.000000 
#    y 0.000000 3.401850 0.000000 
#    z 0.000000 0.000000 3.453330 
# 
# 
# High freq. dielectric constant tensor:
#      x y z
#    x 1.657500 0.000000 0.000000 
#    y 0.000000 1.689790 0.000000 
#    z 0.000000 0.000000 1.689270 
# 
# From -- ./inp_files/12898.got.cif
#   From: 2010.06.25/outbox.cif.g09.slc.cpg/sg71_7_cif.got.tgz:12898.got - 2010.06.28 04:59:45.
