data_PCOD8289641
_publ_section_title
;
Structure prediction by ZEFSAII (Michael W. Deem and Ramdas Pophale) SiO2 
 PCOD8289641
Probable space group: I M M M
;
_chemical_formula_sum "Si O2"
_cell_formula_units_Z 84
_cell_length_a 13.295694
_cell_length_b 30.070039
_cell_length_c 11.848013
_cell_angle_alpha 90.000000
_cell_angle_beta 90.000000
_cell_angle_gamma 90.000000
_cell_volume 4736.859733
_symmetry_space_group_name_H-M "I M M M"
_symmetry_group_IT_number 71
_symmetry_cell_setting 'orthorhombic'
loop_
_space_group_symop_operation_xyz
x,y,z
-x,-y,z
x,-y,-z
-x,y,-z
-x,-y,-z
x,y,-z
-x,y,z
x,-y,z
1/2+x,1/2+y,1/2+z
1/2-x,1/2-y,1/2+z
1/2+x,1/2-y,1/2-z
1/2-x,1/2+y,1/2-z
1/2-x,1/2-y,1/2-z
1/2+x,1/2+y,1/2-z
1/2-x,1/2+y,1/2+z
1/2+x,1/2-y,1/2+z
loop_
_atom_site_type_symbol
_atom_site_label
_atom_site_fract_x
_atom_site_fract_y
_atom_site_fract_z
Si Si1 0.297044 0.169323 0.500000
Si Si2 0.500000 0.293574 0.313245
Si Si3 0.115171 0.550088 0.751512
Si Si4 0.885989 0.422882 0.000000
Si Si5 0.210253 0.200924 0.270430
Si Si6 0.722525 0.385826 0.635857
Si Si7 0.000000 0.721239 0.000000
Si Si8 0.500000 0.610652 0.622094
O O1 0.306164 0.116609 0.500000
O O2 0.236752 0.184014 0.392300
O O3 0.405610 0.190071 0.500000
O O4 0.591736 0.294441 0.228449
O O5 0.500000 0.249722 0.387517
O O6 0.500000 0.336125 0.395166
O O7 0.132012 0.500000 0.706923
O O8 0.133457 0.549023 0.886477
O O9 0.193280 0.581909 0.687452
O O10 0.000000 0.565567 0.725382
O O11 0.000000 0.404556 0.000000
O O12 0.250000 0.250000 0.250000
O O13 0.246210 0.164660 0.176753
O O14 0.727372 0.386665 0.500000
O O15 0.609058 0.401447 0.679276
O O16 0.500000 0.587517 0.500000
#
# Coordination Sequence:
#
# PCOD8289641 Si02
#       8
#     8   8  16   8  16  16   4   8
#     4  12  22  34  58  85 115 150 192 239 284 337
#     4  10  20  35  52  78 109 149 194 232 276 333
#     4  10  21  38  62  87 114 150 190 235 293 353
#     4  10  19  36  57  87 116 144 189 241 284 335
#     4  11  23  36  56  83 115 150 193 236 284 332
#     4  10  21  37  58  84 116 148 192 239 285 341
#     4  12  20  32  58  82 107 152 197 240 272 334
#     4   8  16  32  56  77 102 146 188 231 268 324
#
# _framework density 17.733267000000001
#
# number of rings (size 3 to 8) (size 9 to 14) (size 15 to 20)
#    0.000    1.714    4.762    0.286    2.667    2.286 
#    1.714    1.429    0.000    2.286    0.000    1.333 
#    0.000    0.000    0.000    0.000    0.000    0.000 
#
# Total GULP energy -520336.349305 kJ/mol
# GULP energy per Si atom -12388.960698 kJ/mol
# Density = 1.769291 g / cm^3
# Si number density = 17.733267 Si / 1000 Ang^3
#
#
#
# Elastic Constant Matrix: (Units=GPa)
#
#
# Indices 1 2 3 4 5 6 
#
# 1 142.2989 65.4386 57.4372 0.0001 0.0003 -0.0001
# 2 65.4386 103.2220 33.5508 -0.0003 0.0017 0.0001
# 3 57.4372 33.5508 99.7421 -0.0056 0.0231 0.0007
# 4 0.0001 -0.0003 -0.0056 26.8015 0.0124 0.0005
# 5 0.0003 0.0017 0.0231 0.0124 50.8336 -0.0012
# 6 -0.0001 0.0001 0.0007 0.0005 -0.0012 31.4299
#
#
#
# Elastic Compliance Matrix: (Units=1/GPa)
#
#
# Indices 1 2 3 4 5 6 
#
# 1 0.011616 -0.005827 -0.004729 -0.000001 0.000002 0.000000
# 2 -0.005827 0.013800 -0.001287 0.000000 0.000000 0.000000
# 3 -0.004729 -0.001287 0.013182 0.000003 -0.000006 0.000000
# 4 -0.000001 0.000000 0.000003 0.037311 -0.000009 -0.000001
# 5 0.000002 0.000000 -0.000006 -0.000009 0.019672 0.000001
# 6 0.000000 0.000000 0.000000 -0.000001 0.000001 0.031817
#
#
# Mechanical properties :
#
#
# Convention : Reuss Voigt Hill
#
# Bulk Modulus (GPa) = 67.05640 73.12403 70.09022
# Shear Modulus (GPa) = 32.04017 34.40207 33.22112
#
# Velocity S-wave (km/s) = 4.25524 4.40929 4.33295
# Velocity P-wave (km/s) = 7.87647 8.20046 8.04009
#
# Compressibility (1/GPa) = 0.01491282
#
# Stress axis : x y z
#
# Youngs Moduli (GPa) = 86.08890 72.46354 75.86166
#
# Poissons Ratio (x) = 0.42224 0.35876
# Poissons Ratio (y) = 0.50163 0.09760
# Poissons Ratio (z) = 0.40712 0.09323
#
# Static dielectric constant tensor:
#      x y z
#    x 3.515870 0.000000 0.000000 
#    y 0.000000 3.254260 0.000000 
#    z 0.000000 0.000000 3.197140 
# 
# 
# High freq. dielectric constant tensor:
#      x y z
#    x 1.694400 0.000000 0.000000 
#    y 0.000000 1.680190 0.000000 
#    z 0.000000 0.000000 1.676550 
# 
# From -- ./inp_files/20337.got.cif
#   From: 2010.06.25/outbox.cif.g09.slc.cpg/sg71_11_cif.got.tgz:20337.got - 2010.06.28 04:59:45.
