data_PCOD8289723
_publ_section_title
;
Structure prediction by ZEFSAII (Michael W. Deem and Ramdas Pophale) SiO2 
 PCOD8289723
Probable space group: I M M M
;
_chemical_formula_sum "Si O2"
_cell_formula_units_Z 112
_cell_length_a 29.058947
_cell_length_b 18.117691
_cell_length_c 13.259341
_cell_angle_alpha 90.000000
_cell_angle_beta 90.000000
_cell_angle_gamma 90.000000
_cell_volume 6980.791408
_symmetry_space_group_name_H-M "I M M M"
_symmetry_group_IT_number 71
_symmetry_cell_setting 'orthorhombic'
loop_
_space_group_symop_operation_xyz
x,y,z
-x,-y,z
x,-y,-z
-x,y,-z
-x,-y,-z
x,y,-z
-x,y,z
x,-y,z
1/2+x,1/2+y,1/2+z
1/2-x,1/2-y,1/2+z
1/2+x,1/2-y,1/2-z
1/2-x,1/2+y,1/2-z
1/2-x,1/2-y,1/2-z
1/2+x,1/2+y,1/2-z
1/2-x,1/2+y,1/2+z
1/2+x,1/2-y,1/2+z
loop_
_atom_site_type_symbol
_atom_site_label
_atom_site_fract_x
_atom_site_fract_y
_atom_site_fract_z
Si Si1 0.128971 0.413110 0.792153
Si Si2 0.552671 0.185485 0.614716
Si Si3 0.596979 0.416009 0.881781
Si Si4 0.187650 0.167067 0.381466
Si Si5 0.133959 0.693824 0.615239
Si Si6 0.274459 0.917375 0.619203
Si Si7 0.947863 0.220349 0.302930
O O1 0.122304 0.500000 0.783186
O O2 0.085252 0.381631 0.851870
O O3 0.133850 0.380380 0.680136
O O4 0.174820 0.390196 0.852155
O O5 0.563769 0.209218 0.500000
O O6 0.500000 0.157921 0.624765
O O7 0.561759 0.255996 0.686755
O O8 0.588932 0.500000 0.849347
O O9 0.649169 0.393740 0.855053
O O10 0.562051 0.366549 0.816037
O O11 0.586949 0.403984 0.000000
O O12 0.192550 0.174948 0.500000
O O13 0.172303 0.248143 0.341645
O O14 0.236036 0.138521 0.334692
O O15 0.143614 0.671470 0.500000
O O16 0.084458 0.733694 0.621511
O O17 0.269763 0.918686 0.500000
O O18 0.265906 0.000000 0.662124
O O19 0.000000 0.238008 0.333646
#
# Coordination Sequence:
#
# PCOD8289723 Si02
#       7
#    16  16  16  16  16  16  16
#     4  10  20  31  44  66  90 109 137 177 220 264
#     4   9  18  33  51  66  82 109 141 174 217 266
#     4   9  16  25  40  65  95 123 149 177 210 249
#     4   8  14  26  43  62  85 114 147 177 206 246
#     4   9  18  31  45  61  84 117 151 177 205 248
#     4   9  16  26  42  64  89 112 133 169 220 260
#     4   9  17  29  45  65  88 113 144 180 213 250
#
# _framework density 16.044025999999999
#
# number of rings (size 3 to 8) (size 9 to 14) (size 15 to 20)
#    0.000    3.000    0.000    2.143    0.000    5.143 
#    0.000    1.429    0.000    0.429    0.000    6.000 
#    0.000    4.571    0.000    0.000    0.000    0.000 
#
# Total GULP energy -694111.844534 kJ/mol
# GULP energy per Si atom -12394.854367 kJ/mol
# Density = 1.600751 g / cm^3
# Si number density = 16.044026 Si / 1000 Ang^3
#
#
#
# Elastic Constant Matrix: (Units=GPa)
#
#
# Indices 1 2 3 4 5 6 
#
# 1 95.1167 44.4738 27.8807 0.0000 0.0000 0.0000
# 2 44.4738 92.1065 37.8554 0.0000 0.0000 0.0000
# 3 27.8807 37.8554 57.1339 0.0000 0.0000 0.0000
# 4 0.0000 0.0000 0.0000 18.6262 0.0000 0.0000
# 5 0.0000 0.0000 0.0000 0.0000 18.3650 0.0000
# 6 0.0000 0.0000 0.0000 0.0000 0.0000 21.6081
#
#
#
# Elastic Compliance Matrix: (Units=1/GPa)
#
#
# Indices 1 2 3 4 5 6 
#
# 1 0.014001 -0.005431 -0.003234 0.000000 0.000000 0.000000
# 2 -0.005431 0.017027 -0.008631 0.000000 0.000000 0.000000
# 3 -0.003234 -0.008631 0.024799 0.000000 0.000000 0.000000
# 4 0.000000 0.000000 0.000000 0.053688 0.000000 0.000000
# 5 0.000000 0.000000 0.000000 0.000000 0.054451 0.000000
# 6 0.000000 0.000000 0.000000 0.000000 0.000000 0.046279
#
#
# Mechanical properties :
#
#
# Convention : Reuss Voigt Hill
#
# Bulk Modulus (GPa) = 47.09194 51.64187 49.36691
# Shear Modulus (GPa) = 19.84792 20.66301 20.25547
#
# Velocity S-wave (km/s) = 3.52105 3.59262 3.55701
# Velocity P-wave (km/s) = 6.77833 7.03326 6.90697
#
# Compressibility (1/GPa) = 0.02123506
#
# Stress axis : x y z
#
# Youngs Moduli (GPa) = 71.42473 58.73063 40.32344
#
# Poissons Ratio (x) = 0.31898 0.13039
# Poissons Ratio (y) = 0.38793 0.34804
# Poissons Ratio (z) = 0.23096 0.50691
#
# Static dielectric constant tensor:
#      x y z
#    x 3.253350 0.000000 0.000000 
#    y 0.000000 3.047880 0.000000 
#    z 0.000000 0.000000 2.842810 
# 
# 
# High freq. dielectric constant tensor:
#      x y z
#    x 1.625380 0.000000 0.000000 
#    y 0.000000 1.607810 0.000000 
#    z 0.000000 0.000000 1.587320 
# 
# From -- ./inp_files/29120.got.cif
#   From: 2010.06.25/outbox.cif.g09.slc.cpg/sg71_15_cif.got.tgz:29120.got - 2010.06.28 04:59:45.
