data_PCOD8289300
_publ_section_title
;
Structure prediction by ZEFSAII (Michael W. Deem and Ramdas Pophale) SiO2 
 PCOD8289300
Probable space group: I M M M
;
_chemical_formula_sum "Si O2"
_cell_formula_units_Z 72
_cell_length_a 9.034101
_cell_length_b 16.308251
_cell_length_c 24.498606
_cell_angle_alpha 90.000000
_cell_angle_beta 90.000000
_cell_angle_gamma 90.000000
_cell_volume 3609.389095
_symmetry_space_group_name_H-M "I M M M"
_symmetry_group_IT_number 71
_symmetry_cell_setting 'orthorhombic'
loop_
_space_group_symop_operation_xyz
x,y,z
-x,-y,z
x,-y,-z
-x,y,-z
-x,-y,-z
x,y,-z
-x,y,z
x,-y,z
1/2+x,1/2+y,1/2+z
1/2-x,1/2-y,1/2+z
1/2+x,1/2-y,1/2-z
1/2-x,1/2+y,1/2-z
1/2-x,1/2-y,1/2-z
1/2+x,1/2+y,1/2-z
1/2-x,1/2+y,1/2+z
1/2+x,1/2-y,1/2+z
loop_
_atom_site_type_symbol
_atom_site_label
_atom_site_fract_x
_atom_site_fract_y
_atom_site_fract_z
Si Si1 0.826153 0.831774 0.274102
Si Si2 0.668366 0.327695 0.561816
Si Si3 0.168204 0.403327 0.000000
Si Si4 0.171814 0.820641 0.600755
Si Si5 0.675196 0.500000 0.402371
Si Si6 0.823919 0.000000 0.219898
O O1 0.750000 0.750000 0.250000
O O2 0.792469 0.848009 0.337853
O O3 0.764514 0.915399 0.246614
O O4 0.000000 0.820108 0.263662
O O5 0.676328 0.295740 0.500000
O O6 0.500000 0.322141 0.584082
O O7 0.775231 0.273197 0.598409
O O8 0.730020 0.420064 0.565331
O O9 0.243096 0.373880 0.055934
O O10 0.176700 0.500000 0.000000
O O11 0.000000 0.370902 0.000000
O O12 0.000000 0.827278 0.586846
O O13 0.500000 0.500000 0.400921
O O14 0.738149 0.500000 0.341347
O O15 0.000000 0.000000 0.223666
#
# Coordination Sequence:
#
# PCOD8289300 Si02
#       6
#    16  16   8  16   8   8
#     4  10  22  39  61  88 119 157 200 244 294 351
#     4  10  19  33  55  83 116 152 194 239 285 342
#     4  11  25  43  63  88 115 150 197 245 296 355
#     4  11  23  38  60  88 120 156 194 239 297 355
#     4   9  17  30  54  84 111 149 195 240 283 332
#     4   9  18  35  57  81 111 150 195 237 287 350
#
# _framework density 19.947973999999999
#
# number of rings (size 3 to 8) (size 9 to 14) (size 15 to 20)
#    0.000    1.889    1.111    2.667    1.556    5.778 
#    0.000    1.111    0.000    5.333    0.000    0.000 
#    0.000    0.000    0.000    0.000    0.000    0.000 
#
# Total GULP energy -446301.564461 kJ/mol
# GULP energy per Si atom -12397.265679 kJ/mol
# Density = 1.990257 g / cm^3
# Si number density = 19.947974 Si / 1000 Ang^3
#
#
#
# Elastic Constant Matrix: (Units=GPa)
#
#
# Indices 1 2 3 4 5 6 
#
# 1 72.6382 33.1050 44.0986 0.0000 0.0000 0.0000
# 2 33.1050 115.7465 33.3075 0.0000 0.0000 0.0000
# 3 44.0986 33.3075 97.0837 0.0000 0.0000 0.0000
# 4 0.0000 0.0000 0.0000 34.9262 0.0000 0.0000
# 5 0.0000 0.0000 0.0000 0.0000 26.0360 0.0000
# 6 0.0000 0.0000 0.0000 0.0000 0.0000 22.5640
#
#
#
# Elastic Compliance Matrix: (Units=1/GPa)
#
#
# Indices 1 2 3 4 5 6 
#
# 1 0.020198 -0.003480 -0.007981 0.000000 0.000000 0.000000
# 2 -0.003480 0.010186 -0.001914 0.000000 0.000000 0.000000
# 3 -0.007981 -0.001914 0.014582 0.000000 0.000000 0.000000
# 4 0.000000 0.000000 0.000000 0.028632 0.000000 0.000000
# 5 0.000000 0.000000 0.000000 0.000000 0.038408 0.000000
# 6 0.000000 0.000000 0.000000 0.000000 0.000000 0.044318
#
#
# Mechanical properties :
#
#
# Convention : Reuss Voigt Hill
#
# Bulk Modulus (GPa) = 54.89511 56.27673 55.58592
# Shear Modulus (GPa) = 26.43469 28.36908 27.40189
#
# Velocity S-wave (km/s) = 3.64425 3.77524 3.71032
# Velocity P-wave (km/s) = 6.72951 6.87577 6.80303
#
# Compressibility (1/GPa) = 0.01821656
#
# Stress axis : x y z
#
# Youngs Moduli (GPa) = 49.50975 98.17720 68.57799
#
# Poissons Ratio (x) = 0.34169 0.54729
# Poissons Ratio (y) = 0.17231 0.13123
# Poissons Ratio (z) = 0.39512 0.18787
#
# Static dielectric constant tensor:
#      x y z
#    x 3.398000 0.000000 0.000000 
#    y 0.000000 3.887580 0.000000 
#    z 0.000000 0.000000 3.706280 
# 
# 
# High freq. dielectric constant tensor:
#      x y z
#    x 1.745230 0.000000 0.000000 
#    y 0.000000 1.796700 0.000000 
#    z 0.000000 0.000000 1.789590 
# 
# From -- ./inp_files/62890.got.cif
#   From: 2010.06.25/outbox.cif.g09.slc.cpg/sg71_32_cif.got.tgz:62890.got - 2010.06.28 04:59:45.
