data_PCOD8289176
_publ_section_title
;
Structure prediction by ZEFSAII (Michael W. Deem and Ramdas Pophale) SiO2 
 PCOD8289176
Probable space group: I M M M
;
_chemical_formula_sum "Si O2"
_cell_formula_units_Z 128
_cell_length_a 22.823756
_cell_length_b 22.686332
_cell_length_c 13.001562
_cell_angle_alpha 90.000000
_cell_angle_beta 90.000000
_cell_angle_gamma 90.000000
_cell_volume 6732.043763
_symmetry_space_group_name_H-M "I M M M"
_symmetry_group_IT_number 71
_symmetry_cell_setting 'orthorhombic'
loop_
_space_group_symop_operation_xyz
x,y,z
-x,-y,z
x,-y,-z
-x,y,-z
-x,-y,-z
x,y,-z
-x,y,z
x,-y,z
1/2+x,1/2+y,1/2+z
1/2-x,1/2-y,1/2+z
1/2+x,1/2-y,1/2-z
1/2-x,1/2+y,1/2-z
1/2-x,1/2-y,1/2-z
1/2+x,1/2+y,1/2-z
1/2-x,1/2+y,1/2+z
1/2+x,1/2-y,1/2+z
loop_
_atom_site_type_symbol
_atom_site_label
_atom_site_fract_x
_atom_site_fract_y
_atom_site_fract_z
Si Si1 0.812366 0.177818 0.191626
Si Si2 0.434710 0.671628 0.247535
Si Si3 0.931903 0.565754 0.886857
Si Si4 0.350809 0.136224 0.245455
Si Si5 0.064622 0.714920 0.381282
Si Si6 0.756496 0.568191 0.378999
Si Si7 0.569409 0.564955 0.113260
Si Si8 0.759607 0.294549 0.880640
O O1 0.882459 0.187811 0.172429
O O2 0.795881 0.111759 0.155773
O O3 0.774809 0.224833 0.125596
O O4 0.797951 0.189665 0.313052
O O5 0.500000 0.665145 0.299603
O O6 0.439085 0.718566 0.157376
O O7 0.410169 0.611174 0.198421
O O8 0.906004 0.500000 0.882115
O O9 0.903496 0.604409 0.800407
O O10 0.000000 0.564672 0.863250
O O11 0.919601 0.592591 0.000000
O O12 0.381092 0.183178 0.171787
O O13 0.314915 0.088841 0.179512
O O14 0.312407 0.168268 0.331717
O O15 0.080253 0.716315 0.500000
O O16 0.000000 0.685435 0.362419
O O17 0.767405 0.573615 0.500000
O O18 0.741939 0.500000 0.349494
O O19 0.500000 0.567426 0.105858
O O20 0.590633 0.500000 0.148072
O O21 0.595532 0.579381 0.000000
O O22 0.749416 0.311799 0.000000
#
# Coordination Sequence:
#
# PCOD8289176 Si02
#       8
#    16  16  16  16  16  16  16  16
#     4  10  21  38  56  82 106 144 180 227 276 329
#     4  10  19  33  52  78 111 141 178 221 272 331
#     4   9  18  32  51  77 110 150 189 223 268 328
#     4  11  19  34  55  81 110 142 187 234 277 328
#     4  10  20  32  49  77 115 154 187 226 277 334
#     4  10  22  39  60  82 106 141 187 239 287 331
#     4   8  14  25  42  66  97 134 173 209 251 309
#     4  10  21  36  55  80 107 141 184 227 277 326
#
# _framework density 19.013544
#
# number of rings (size 3 to 8) (size 9 to 14) (size 15 to 20)
#    0.000    2.250    1.250    3.000    0.000    3.000 
#    0.000    0.000    0.000    5.625    0.000    6.125 
#    0.000    0.000    0.000    0.000    0.000    0.000 
#
# Total GULP energy -793128.078177 kJ/mol
# GULP energy per Si atom -12392.626222 kJ/mol
# Density = 1.897027 g / cm^3
# Si number density = 19.013544 Si / 1000 Ang^3
#
#
#
# Elastic Constant Matrix: (Units=GPa)
#
#
# Indices 1 2 3 4 5 6 
#
# 1 74.5162 27.2365 20.8755 0.0000 0.0000 0.0000
# 2 27.2365 98.2522 28.4367 0.0000 0.0000 0.0000
# 3 20.8755 28.4367 74.4709 0.0000 0.0000 0.0000
# 4 0.0000 0.0000 0.0000 22.2190 0.0000 0.0000
# 5 0.0000 0.0000 0.0000 0.0000 22.0115 0.0000
# 6 0.0000 0.0000 0.0000 0.0000 0.0000 22.9269
#
#
#
# Elastic Compliance Matrix: (Units=1/GPa)
#
#
# Indices 1 2 3 4 5 6 
#
# 1 0.015524 -0.003422 -0.003045 0.000000 0.000000 0.000000
# 2 -0.003422 0.012197 -0.003698 0.000000 0.000000 0.000000
# 3 -0.003045 -0.003698 0.015694 0.000000 0.000000 0.000000
# 4 0.000000 0.000000 0.000000 0.045006 0.000000 0.000000
# 5 0.000000 0.000000 0.000000 0.000000 0.045431 0.000000
# 6 0.000000 0.000000 0.000000 0.000000 0.000000 0.043617
#
#
# Mechanical properties :
#
#
# Convention : Reuss Voigt Hill
#
# Bulk Modulus (GPa) = 43.31964 44.48186 43.90075
# Shear Modulus (GPa) = 24.33171 24.81086 24.57128
#
# Velocity S-wave (km/s) = 3.58118 3.61627 3.59876
# Velocity P-wave (km/s) = 6.31924 6.39391 6.35669
#
# Compressibility (1/GPa) = 0.02308422
#
# Stress axis : x y z
#
# Youngs Moduli (GPa) = 64.41760 81.98841 63.71983
#
# Poissons Ratio (x) = 0.28057 0.19402
# Poissons Ratio (y) = 0.22044 0.23564
# Poissons Ratio (z) = 0.19614 0.30320
#
# Static dielectric constant tensor:
#      x y z
#    x 3.457920 0.000000 0.000000 
#    y 0.000000 3.708040 0.000000 
#    z 0.000000 0.000000 3.304550 
# 
# 
# High freq. dielectric constant tensor:
#      x y z
#    x 1.736190 0.000000 0.000000 
#    y 0.000000 1.742780 0.000000 
#    z 0.000000 0.000000 1.718150 
# 
# From -- ./inp_files/27866.got.cif
#   From: 2010.06.25/outbox.cif.g09.slc.cpg/sg71_14_cif.got.tgz:27866.got - 2010.06.28 04:59:45.
