data_PCOD8289120
_publ_section_title
;
Structure prediction by ZEFSAII (Michael W. Deem and Ramdas Pophale) SiO2 
 PCOD8289120
Probable space group: I M M M
;
_chemical_formula_sum "Si O2"
_cell_formula_units_Z 104
_cell_length_a 31.974179
_cell_length_b 9.823692
_cell_length_c 18.837735
_cell_angle_alpha 90.000000
_cell_angle_beta 90.000000
_cell_angle_gamma 90.000000
_cell_volume 5917.017078
_symmetry_space_group_name_H-M "I M M M"
_symmetry_group_IT_number 71
_symmetry_cell_setting 'orthorhombic'
loop_
_space_group_symop_operation_xyz
x,y,z
-x,-y,z
x,-y,-z
-x,y,-z
-x,-y,-z
x,y,-z
-x,y,z
x,-y,z
1/2+x,1/2+y,1/2+z
1/2-x,1/2-y,1/2+z
1/2+x,1/2-y,1/2-z
1/2-x,1/2+y,1/2-z
1/2-x,1/2-y,1/2-z
1/2+x,1/2+y,1/2-z
1/2-x,1/2+y,1/2+z
1/2+x,1/2-y,1/2+z
loop_
_atom_site_type_symbol
_atom_site_label
_atom_site_fract_x
_atom_site_fract_y
_atom_site_fract_z
Si Si1 0.048127 0.345788 0.689727
Si Si2 0.256493 0.350165 0.584001
Si Si3 0.813032 0.849522 0.584286
Si Si4 0.593273 0.659007 0.917952
Si Si5 0.000000 0.661660 0.079714
Si Si6 0.082431 0.341244 0.158163
Si Si7 0.648958 0.340748 0.417832
O O1 0.054608 0.500000 0.662788
O O2 0.060491 0.244398 0.627236
O O3 0.076711 0.318338 0.758201
O O4 0.000000 0.321237 0.711035
O O5 0.251014 0.356287 0.500000
O O6 0.248302 0.500000 0.616051
O O7 0.222116 0.249001 0.617805
O O8 0.303371 0.302265 0.601974
O O9 0.808973 0.856019 0.500000
O O10 0.859539 0.798159 0.604024
O O11 0.805494 0.000000 0.615954
O O12 0.586274 0.500000 0.902978
O O13 0.584944 0.692545 0.000000
O O14 0.958633 0.715499 0.118511
O O15 0.000000 0.500000 0.082099
O O16 0.000000 0.718843 0.000000
O O17 0.090378 0.500000 0.140278
O O18 0.121216 0.252146 0.132758
O O19 0.639610 0.306337 0.500000
O O20 0.640501 0.500000 0.403255
#
# Coordination Sequence:
#
# PCOD8289120 Si02
#       7
#    16  16  16  16   8  16  16
#     4  10  21  37  54  73 100 131 165 208 254 299
#     4   8  14  25  42  66  98 133 163 194 239 292
#     4   8  14  26  45  70  99 126 155 197 243 286
#     4   9  19  35  54  78 105 130 160 201 248 299
#     4   9  16  28  49  73  94 121 160 206 251 289
#     4  10  19  33  51  71  96 129 170 211 249 296
#     4   9  18  31  46  70 105 137 166 206 251 292
#
# _framework density 17.576423999999999
#
# number of rings (size 3 to 8) (size 9 to 14) (size 15 to 20)
#    0.000    3.000    0.769    2.308    0.000    3.692 
#    0.000    5.000    0.000    2.308    0.000    0.000 
#    0.000    0.000    0.000    0.000    0.000    0.000 
#
# Total GULP energy -644637.671101 kJ/mol
# GULP energy per Si atom -12396.878290 kJ/mol
# Density = 1.753642 g / cm^3
# Si number density = 17.576424 Si / 1000 Ang^3
#
#
#
# Elastic Constant Matrix: (Units=GPa)
#
#
# Indices 1 2 3 4 5 6 
#
# 1 81.0210 52.4248 33.0549 0.0000 0.0000 0.0000
# 2 52.4248 75.8967 40.8047 0.0000 0.0000 0.0000
# 3 33.0549 40.8047 59.8347 0.0000 0.0000 0.0000
# 4 0.0000 0.0000 0.0000 22.3701 0.0000 0.0000
# 5 0.0000 0.0000 0.0000 0.0000 10.6057 0.0000
# 6 0.0000 0.0000 0.0000 0.0000 0.0000 34.8371
#
#
#
# Elastic Compliance Matrix: (Units=1/GPa)
#
#
# Indices 1 2 3 4 5 6 
#
# 1 0.022633 -0.014070 -0.002908 0.000000 0.000000 0.000000
# 2 -0.014070 0.029550 -0.012379 0.000000 0.000000 0.000000
# 3 -0.002908 -0.012379 0.026761 0.000000 0.000000 0.000000
# 4 0.000000 0.000000 0.000000 0.044703 0.000000 0.000000
# 5 0.000000 0.000000 0.000000 0.000000 0.094289 0.000000
# 6 0.000000 0.000000 0.000000 0.000000 0.000000 0.028705
#
#
# Mechanical properties :
#
#
# Convention : Reuss Voigt Hill
#
# Bulk Modulus (GPa) = 49.43197 52.14683 50.78940
# Shear Modulus (GPa) = 16.02059 19.59376 17.80718
#
# Velocity S-wave (km/s) = 3.02235 3.34245 3.18642
# Velocity P-wave (km/s) = 6.35331 6.68049 6.51895
#
# Compressibility (1/GPa) = 0.02022982
#
# Stress axis : x y z
#
# Youngs Moduli (GPa) = 44.18344 33.84119 37.36748
#
# Poissons Ratio (x) = 0.47614 0.10867
# Poissons Ratio (y) = 0.62166 0.46257
# Poissons Ratio (z) = 0.12849 0.41892
#
# Static dielectric constant tensor:
#      x y z
#    x 3.350610 0.000000 0.000000 
#    y 0.000000 3.337760 0.000000 
#    z 0.000000 0.000000 2.901530 
# 
# 
# High freq. dielectric constant tensor:
#      x y z
#    x 1.685920 0.000000 0.000000 
#    y 0.000000 1.671090 0.000000 
#    z 0.000000 0.000000 1.644680 
# 
# From -- ./inp_files/56722.got.cif
#   From: 2010.06.25/outbox.cif.g09.slc.cpg/sg71_29_cif.got.tgz:56722.got - 2010.06.28 04:59:45.
