data_PCOD8289995
_publ_section_title
;
Structure prediction by ZEFSAII (Michael W. Deem and Ramdas Pophale) SiO2 
 PCOD8289995
Probable space group: I M M M
;
_chemical_formula_sum "Si O2"
_cell_formula_units_Z 96
_cell_length_a 12.548687
_cell_length_b 14.821746
_cell_length_c 29.742787
_cell_angle_alpha 90.000000
_cell_angle_beta 90.000000
_cell_angle_gamma 90.000000
_cell_volume 5531.963607
_symmetry_space_group_name_H-M "I M M M"
_symmetry_group_IT_number 71
_symmetry_cell_setting 'orthorhombic'
loop_
_space_group_symop_operation_xyz
x,y,z
-x,-y,z
x,-y,-z
-x,y,-z
-x,-y,-z
x,y,-z
-x,y,z
x,-y,z
1/2+x,1/2+y,1/2+z
1/2-x,1/2-y,1/2+z
1/2+x,1/2-y,1/2-z
1/2-x,1/2+y,1/2-z
1/2-x,1/2-y,1/2-z
1/2+x,1/2+y,1/2-z
1/2-x,1/2+y,1/2+z
1/2+x,1/2-y,1/2+z
loop_
_atom_site_type_symbol
_atom_site_label
_atom_site_fract_x
_atom_site_fract_y
_atom_site_fract_z
Si Si1 0.000000 0.893285 0.899191
Si Si2 0.214011 0.895802 0.052842
Si Si3 0.381869 0.098286 0.810053
Si Si4 0.000000 0.106886 0.797537
Si Si5 0.289333 0.649854 0.245630
Si Si6 0.376946 0.398547 0.151163
Si Si7 0.624075 0.217260 0.893210
O O1 0.893924 0.859088 0.924224
O O2 0.000000 0.856303 0.848478
O O3 0.000000 0.000000 0.900273
O O4 0.309093 0.828716 0.067128
O O5 0.238919 0.000000 0.066585
O O6 0.198840 0.887974 0.000000
O O7 0.500000 0.125003 0.792629
O O8 0.302307 0.089808 0.768182
O O9 0.342260 0.171066 0.846204
O O10 0.384314 0.000000 0.833608
O O11 0.897632 0.143861 0.772833
O O12 0.000000 0.000000 0.796216
O O13 0.250000 0.750000 0.250000
O O14 0.304015 0.617733 0.194625
O O15 0.500000 0.387515 0.166106
O O16 0.355842 0.500000 0.132432
O O17 0.351006 0.324516 0.112382
O O18 0.500000 0.200311 0.904023
#
# Coordination Sequence:
#
# PCOD8289995 Si02
#       7
#     8  16  16   8  16  16  16
#     4   9  19  34  53  78 108 142 178 213 255 310
#     4  10  20  35  56  82 112 142 171 211 267 327
#     4  10  20  33  48  69 102 140 173 211 264 318
#     4  11  22  35  54  79 108 147 190 230 267 311
#     4  12  22  32  51  74 105 140 186 232 265 306
#     4  10  20  36  55  74 101 140 185 228 272 313
#     4  10  20  34  52  77 104 135 173 216 263 320
#
# _framework density 17.353693
#
# number of rings (size 3 to 8) (size 9 to 14) (size 15 to 20)
#    0.000    1.667    2.500    3.250    1.167    3.667 
#    0.000    0.833    0.000    0.500    0.000    2.333 
#    0.000    1.333    0.000    0.000    0.000    0.000 
#
# Total GULP energy -595091.346118 kJ/mol
# GULP energy per Si atom -12397.736377 kJ/mol
# Density = 1.731420 g / cm^3
# Si number density = 17.353693 Si / 1000 Ang^3
#
#
#
# Elastic Constant Matrix: (Units=GPa)
#
#
# Indices 1 2 3 4 5 6 
#
# 1 91.1754 31.5808 38.0432 0.0000 0.0000 0.0000
# 2 31.5808 110.6692 26.5883 0.0000 0.0000 0.0000
# 3 38.0432 26.5883 62.1629 0.0000 0.0000 0.0000
# 4 0.0000 0.0000 0.0000 23.5656 0.0000 0.0000
# 5 0.0000 0.0000 0.0000 0.0000 17.2628 0.0000
# 6 0.0000 0.0000 0.0000 0.0000 0.0000 29.3939
#
#
#
# Elastic Compliance Matrix: (Units=1/GPa)
#
#
# Indices 1 2 3 4 5 6 
#
# 1 0.015259 -0.002353 -0.008332 0.000000 0.000000 0.000000
# 2 -0.002353 0.010434 -0.003023 0.000000 0.000000 0.000000
# 3 -0.008332 -0.003023 0.022479 0.000000 0.000000 0.000000
# 4 0.000000 0.000000 0.000000 0.042435 0.000000 0.000000
# 5 0.000000 0.000000 0.000000 0.000000 0.057928 0.000000
# 6 0.000000 0.000000 0.000000 0.000000 0.000000 0.034021
#
#
# Mechanical properties :
#
#
# Convention : Reuss Voigt Hill
#
# Bulk Modulus (GPa) = 48.17808 50.71467 49.44638
# Shear Modulus (GPa) = 23.05316 25.23081 24.14199
#
# Velocity S-wave (km/s) = 3.64872 3.81716 3.73389
# Velocity P-wave (km/s) = 6.75082 6.97963 6.86618
#
# Compressibility (1/GPa) = 0.02075633
#
# Stress axis : x y z
#
# Youngs Moduli (GPa) = 65.53310 95.84483 44.48581
#
# Poissons Ratio (x) = 0.22549 0.37067
# Poissons Ratio (y) = 0.15417 0.13447
# Poissons Ratio (z) = 0.54605 0.28973
#
# Static dielectric constant tensor:
#      x y z
#    x 3.445960 0.000000 0.000000 
#    y 0.000000 3.361850 0.000000 
#    z 0.000000 0.000000 3.041790 
# 
# 
# High freq. dielectric constant tensor:
#      x y z
#    x 1.675800 0.000000 0.000000 
#    y 0.000000 1.666210 0.000000 
#    z 0.000000 0.000000 1.640780 
# 
# From -- ./inp_files/33193.got.cif
#   From: 2010.06.25/outbox.cif.g09.slc.cpg/sg71_17_cif.got.tgz:33193.got - 2010.06.28 04:59:45.
