data_PCOD8289006
_publ_section_title
;
Structure prediction by ZEFSAII (Michael W. Deem and Ramdas Pophale) SiO2 
 PCOD8289006
Probable space group: I M M M
;
_chemical_formula_sum "Si O2"
_cell_formula_units_Z 112
_cell_length_a 24.820777
_cell_length_b 14.950687
_cell_length_c 14.411146
_cell_angle_alpha 90.000000
_cell_angle_beta 90.000000
_cell_angle_gamma 90.000000
_cell_volume 5347.798563
_symmetry_space_group_name_H-M "I M M M"
_symmetry_group_IT_number 71
_symmetry_cell_setting 'orthorhombic'
loop_
_space_group_symop_operation_xyz
x,y,z
-x,-y,z
x,-y,-z
-x,y,-z
-x,-y,-z
x,y,-z
-x,y,z
x,-y,z
1/2+x,1/2+y,1/2+z
1/2-x,1/2-y,1/2+z
1/2+x,1/2-y,1/2-z
1/2-x,1/2+y,1/2-z
1/2-x,1/2-y,1/2-z
1/2+x,1/2+y,1/2-z
1/2-x,1/2+y,1/2+z
1/2+x,1/2-y,1/2+z
loop_
_atom_site_type_symbol
_atom_site_label
_atom_site_fract_x
_atom_site_fract_y
_atom_site_fract_z
Si Si1 0.603954 0.213505 0.609494
Si Si2 0.560746 0.102327 0.231338
Si Si3 0.939179 0.098176 0.890235
Si Si4 0.792592 0.175985 0.723773
Si Si5 0.794904 0.599513 0.106022
Si Si6 0.852394 0.696254 0.607686
Si Si7 0.762066 0.103839 0.900171
O O1 0.591991 0.197815 0.500000
O O2 0.563292 0.154756 0.670794
O O3 0.598004 0.317666 0.639885
O O4 0.663311 0.176991 0.638445
O O5 0.500000 0.109593 0.193710
O O6 0.598634 0.141459 0.150771
O O7 0.577403 0.000000 0.249323
O O8 0.000000 0.113552 0.852594
O O9 0.917691 0.000000 0.854504
O O10 0.940681 0.095325 0.000000
O O11 0.750000 0.250000 0.750000
O O12 0.761235 0.104981 0.659763
O O13 0.844903 0.212597 0.668645
O O14 0.806575 0.128728 0.822358
O O15 0.819741 0.500000 0.121432
O O16 0.780497 0.616627 0.000000
O O17 0.864814 0.718011 0.500000
O O18 0.796818 0.643289 0.619338
O O19 0.753031 0.000000 0.904091
O O20 0.784454 0.139023 0.000000
#
# Coordination Sequence:
#
# PCOD8289006 Si02
#       7
#    16  16  16  16  16  16  16
#     4  10  19  32  53  82 120 163 199 237 291 354
#     4  11  24  39  57  84 114 147 194 247 298 355
#     4   8  14  26  46  71  98 136 191 246 289 331
#     4  10  19  32  53  79 109 146 188 236 282 334
#     4  10  20  33  52  80 114 154 198 239 283 341
#     4  10  21  38  59  81 108 148 196 244 296 346
#     4   9  17  30  52  83 117 151 184 222 277 347
#
# _framework density 20.943197000000001
#
# number of rings (size 3 to 8) (size 9 to 14) (size 15 to 20)
#    0.000    2.286    0.000    4.286    0.000    3.429 
#    0.000    2.143    0.000   12.000    0.000   26.000 
#    0.000    0.000    0.000   10.000    0.000    0.286 
#
# Total GULP energy -693865.112822 kJ/mol
# GULP energy per Si atom -12390.448443 kJ/mol
# Density = 2.089553 g / cm^3
# Si number density = 20.943197 Si / 1000 Ang^3
#
#
#
# Elastic Constant Matrix: (Units=GPa)
#
#
# Indices 1 2 3 4 5 6 
#
# 1 66.0509 46.4626 53.2058 0.0000 0.0000 0.0000
# 2 46.4626 129.7710 64.0632 0.0000 0.0000 0.0000
# 3 53.2058 64.0632 125.2961 0.0000 0.0000 0.0000
# 4 0.0000 0.0000 0.0000 30.3970 0.0000 0.0000
# 5 0.0000 0.0000 0.0000 0.0000 15.0983 0.0000
# 6 0.0000 0.0000 0.0000 0.0000 0.0000 34.1957
#
#
#
# Elastic Compliance Matrix: (Units=1/GPa)
#
#
# Indices 1 2 3 4 5 6 
#
# 1 0.025231 -0.005009 -0.008153 0.000000 0.000000 0.000000
# 2 -0.005009 0.011302 -0.003652 0.000000 0.000000 0.000000
# 3 -0.008153 -0.003652 0.013310 0.000000 0.000000 0.000000
# 4 0.000000 0.000000 0.000000 0.032898 0.000000 0.000000
# 5 0.000000 0.000000 0.000000 0.000000 0.066233 0.000000
# 6 0.000000 0.000000 0.000000 0.000000 0.000000 0.029243
#
#
# Mechanical properties :
#
#
# Convention : Reuss Voigt Hill
#
# Bulk Modulus (GPa) = 61.66747 72.06460 66.86604
# Shear Modulus (GPa) = 23.01509 26.43063 24.72286
#
# Velocity S-wave (km/s) = 3.31861 3.55634 3.43953
# Velocity P-wave (km/s) = 6.64780 7.16573 6.91162
#
# Compressibility (1/GPa) = 0.01621600
#
# Stress axis : x y z
#
# Youngs Moduli (GPa) = 39.63446 88.48101 75.12953
#
# Poissons Ratio (x) = 0.44316 0.61254
# Poissons Ratio (y) = 0.19851 0.27435
# Poissons Ratio (z) = 0.32314 0.32311
#
# Static dielectric constant tensor:
#      x y z
#    x 3.585080 0.000000 0.000000 
#    y 0.000000 4.232030 0.000000 
#    z 0.000000 0.000000 5.738810 
# 
# 
# High freq. dielectric constant tensor:
#      x y z
#    x 1.791320 0.000000 0.000000 
#    y 0.000000 1.828330 0.000000 
#    z 0.000000 0.000000 1.814960 
# 
# From -- ./inp_files/39280.got.cif
#   From: 2010.06.25/outbox.cif.g09.slc.cpg/sg71_20_cif.got.tgz:39280.got - 2010.06.28 04:59:45.
