data_PCOD8289586
_publ_section_title
;
Structure prediction by ZEFSAII (Michael W. Deem and Ramdas Pophale) SiO2 
 PCOD8289586
Probable space group: I M M M
;
_chemical_formula_sum "Si O2"
_cell_formula_units_Z 80
_cell_length_a 25.845616
_cell_length_b 18.157058
_cell_length_c 9.024103
_cell_angle_alpha 90.000000
_cell_angle_beta 90.000000
_cell_angle_gamma 90.000000
_cell_volume 4234.834203
_symmetry_space_group_name_H-M "I M M M"
_symmetry_group_IT_number 71
_symmetry_cell_setting 'orthorhombic'
loop_
_space_group_symop_operation_xyz
x,y,z
-x,-y,z
x,-y,-z
-x,y,-z
-x,-y,-z
x,y,-z
-x,y,z
x,-y,z
1/2+x,1/2+y,1/2+z
1/2-x,1/2-y,1/2+z
1/2+x,1/2-y,1/2-z
1/2-x,1/2+y,1/2-z
1/2-x,1/2-y,1/2-z
1/2+x,1/2+y,1/2-z
1/2-x,1/2+y,1/2+z
1/2+x,1/2-y,1/2+z
loop_
_atom_site_type_symbol
_atom_site_label
_atom_site_fract_x
_atom_site_fract_y
_atom_site_fract_z
Si Si1 0.000000 0.165392 0.324417
Si Si2 0.500000 0.176405 0.323651
Si Si3 0.406182 0.413257 0.328801
Si Si4 0.302122 0.666228 0.326860
Si Si5 0.402359 0.917380 0.323675
Si Si6 0.801451 0.665009 0.825662
O O1 0.000000 0.245191 0.252651
O O2 0.050270 0.121237 0.273645
O O3 0.000000 0.172490 0.500000
O O4 0.500000 0.187426 0.500000
O O5 0.550002 0.131749 0.267852
O O6 0.417150 0.392215 0.500000
O O7 0.405735 0.500000 0.305529
O O8 0.351151 0.381453 0.276453
O O9 0.292129 0.658688 0.500000
O O10 0.251343 0.634978 0.245922
O O11 0.312058 0.750604 0.280095
O O12 0.402176 0.918461 0.500000
O O13 0.349069 0.882760 0.263241
O O14 0.408248 0.000000 0.260748
O O15 0.796189 0.656068 0.000000
#
# Coordination Sequence:
#
# PCOD8289586 Si02
#       6
#     8   8  16  16  16  16
#     4  12  25  38  55  80 109 138 171 214 264 318
#     4  10  19  35  59  80 103 139 181 220 258 308
#     4  10  21  38  59  80 104 137 177 219 262 311
#     4   9  18  33  52  75 103 137 179 219 254 301
#     4   9  17  30  52  82 109 135 175 224 267 308
#     4   9  17  30  49  74 106 141 175 215 261 307
#
# _framework density 18.890941000000002
#
# number of rings (size 3 to 8) (size 9 to 14) (size 15 to 20)
#    0.000    2.400    0.000    2.700    0.000    7.600 
#    0.000    5.000    0.000    2.400    0.000    0.000 
#    0.000    0.000    0.000    0.000    0.000    0.000 
#
# Total GULP energy -496080.410472 kJ/mol
# GULP energy per Si atom -12402.010262 kJ/mol
# Density = 1.884794 g / cm^3
# Si number density = 18.890941 Si / 1000 Ang^3
#
#
#
# Elastic Constant Matrix: (Units=GPa)
#
#
# Indices 1 2 3 4 5 6 
#
# 1 182.6221 84.3679 47.4481 0.0000 0.0000 0.0000
# 2 84.3679 117.3656 35.8722 0.0000 0.0000 0.0000
# 3 47.4481 35.8722 42.8444 0.0000 0.0000 0.0000
# 4 0.0000 0.0000 0.0000 13.0386 0.0000 0.0000
# 5 0.0000 0.0000 0.0000 0.0000 31.4802 0.0000
# 6 0.0000 0.0000 0.0000 0.0000 0.0000 8.1290
#
#
#
# Elastic Compliance Matrix: (Units=1/GPa)
#
#
# Indices 1 2 3 4 5 6 
#
# 1 0.009323 -0.004766 -0.006335 0.000000 0.000000 0.000000
# 2 -0.004766 0.013887 -0.006349 0.000000 0.000000 0.000000
# 3 -0.006335 -0.006349 0.035672 0.000000 0.000000 0.000000
# 4 0.000000 0.000000 0.000000 0.076695 0.000000 0.000000
# 5 0.000000 0.000000 0.000000 0.000000 0.031766 0.000000
# 6 0.000000 0.000000 0.000000 0.000000 0.000000 0.123016
#
#
# Mechanical properties :
#
#
# Convention : Reuss Voigt Hill
#
# Bulk Modulus (GPa) = 41.69736 75.35650 58.52693
# Shear Modulus (GPa) = 15.00360 22.20583 18.60471
#
# Velocity S-wave (km/s) = 2.82125 3.43224 3.14163
# Velocity P-wave (km/s) = 5.72129 7.46217 6.64895
#
# Compressibility (1/GPa) = 0.02398234
#
# Stress axis : x y z
#
# Youngs Moduli (GPa) = 107.25629 72.01049 28.03342
#
# Poissons Ratio (x) = 0.34319 0.17759
# Poissons Ratio (y) = 0.51117 0.17798
# Poissons Ratio (z) = 0.67946 0.45719
#
# Static dielectric constant tensor:
#      x y z
#    x 3.735320 0.000000 0.000000 
#    y 0.000000 3.576330 0.000000 
#    z 0.000000 0.000000 3.143750 
# 
# 
# High freq. dielectric constant tensor:
#      x y z
#    x 1.752160 0.000000 0.000000 
#    y 0.000000 1.739880 0.000000 
#    z 0.000000 0.000000 1.697090 
# 
# From -- ./inp_files/14586.got.cif
#   From: 2010.06.25/outbox.cif.g09.slc.cpg/sg71_8_cif.got.tgz:14586.got - 2010.06.28 04:59:45.
