data_PCOD8289367
_publ_section_title
;
Structure prediction by ZEFSAII (Michael W. Deem and Ramdas Pophale) SiO2 
 PCOD8289367
Probable space group: I M M M
;
_chemical_formula_sum "Si O2"
_cell_formula_units_Z 88
_cell_length_a 20.119653
_cell_length_b 24.672259
_cell_length_c 9.758519
_cell_angle_alpha 90.000000
_cell_angle_beta 90.000000
_cell_angle_gamma 90.000000
_cell_volume 4844.102384
_symmetry_space_group_name_H-M "I M M M"
_symmetry_group_IT_number 71
_symmetry_cell_setting 'orthorhombic'
loop_
_space_group_symop_operation_xyz
x,y,z
-x,-y,z
x,-y,-z
-x,y,-z
-x,-y,-z
x,y,-z
-x,y,z
x,-y,z
1/2+x,1/2+y,1/2+z
1/2-x,1/2-y,1/2+z
1/2+x,1/2-y,1/2-z
1/2-x,1/2+y,1/2-z
1/2-x,1/2-y,1/2-z
1/2+x,1/2+y,1/2-z
1/2-x,1/2+y,1/2+z
1/2+x,1/2-y,1/2+z
loop_
_atom_site_type_symbol
_atom_site_label
_atom_site_fract_x
_atom_site_fract_y
_atom_site_fract_z
Si Si1 0.621285 0.856738 0.847828
Si Si2 0.000000 0.834873 0.665413
Si Si3 0.000000 0.712744 0.662053
Si Si4 0.924714 0.561671 0.848410
Si Si5 0.881834 0.118517 0.838724
Si Si6 0.424262 0.500000 0.341251
Si Si7 0.761630 0.198582 0.847247
O O1 0.566401 0.816405 0.782691
O O2 0.625696 0.909409 0.753708
O O3 0.692143 0.830602 0.850682
O O4 0.599087 0.874185 0.000000
O O5 0.064079 0.860619 0.733144
O O6 0.000000 0.842191 0.500000
O O7 0.000000 0.773289 0.716494
O O8 0.000000 0.714298 0.500000
O O9 0.902627 0.500000 0.852771
O O10 0.000000 0.567840 0.793998
O O11 0.918637 0.586954 0.000000
O O12 0.815376 0.152947 0.800600
O O13 0.879785 0.053628 0.805174
O O14 0.899876 0.127219 0.000000
O O15 0.500000 0.500000 0.273594
O O16 0.438411 0.500000 0.500000
O O17 0.750000 0.250000 0.750000
O O18 0.780002 0.219725 0.000000
#
# Coordination Sequence:
#
# PCOD8289367 Si02
#       7
#    16   8   8  16  16   8  16
#     4  10  19  34  53  77 106 139 181 227 274 324
#     4  11  21  34  56  84 111 142 179 228 283 336
#     4   9  18  31  49  73 107 141 173 218 275 328
#     4   9  18  33  52  75 104 137 174 217 268 325
#     4  10  20  37  58  82 111 148 190 230 280 343
#     4   9  16  32  60  84 108 143 183 234 287 336
#     4  10  22  38  57  82 114 149 189 233 280 340
#
# _framework density 18.166419000000001
#
# number of rings (size 3 to 8) (size 9 to 14) (size 15 to 20)
#    0.000    2.273    1.818    1.909    0.000    3.273 
#    1.636    3.636    0.000    0.000    0.000    0.000 
#    0.000    0.000    0.000    0.000    0.000    0.000 
#
# Total GULP energy -545102.366379 kJ/mol
# GULP energy per Si atom -12388.690145 kJ/mol
# Density = 1.812507 g / cm^3
# Si number density = 18.166419 Si / 1000 Ang^3
#
#
#
# Elastic Constant Matrix: (Units=GPa)
#
#
# Indices 1 2 3 4 5 6 
#
# 1 97.3966 52.4163 34.9955 0.0000 0.0000 0.0000
# 2 52.4163 126.9415 59.1375 0.0000 0.0000 0.0000
# 3 34.9955 59.1375 82.0075 0.0000 0.0000 0.0000
# 4 0.0000 0.0000 0.0000 33.4544 0.0000 0.0000
# 5 0.0000 0.0000 0.0000 0.0000 38.4156 0.0000
# 6 0.0000 0.0000 0.0000 0.0000 0.0000 27.2473
#
#
#
# Elastic Compliance Matrix: (Units=1/GPa)
#
#
# Indices 1 2 3 4 5 6 
#
# 1 0.013569 -0.004375 -0.002635 0.000000 0.000000 0.000000
# 2 -0.004375 0.013274 -0.007705 0.000000 0.000000 0.000000
# 3 -0.002635 -0.007705 0.018875 0.000000 0.000000 0.000000
# 4 0.000000 0.000000 0.000000 0.029891 0.000000 0.000000
# 5 0.000000 0.000000 0.000000 0.000000 0.026031 0.000000
# 6 0.000000 0.000000 0.000000 0.000000 0.000000 0.036701
#
#
# Mechanical properties :
#
#
# Convention : Reuss Voigt Hill
#
# Bulk Modulus (GPa) = 61.40028 66.60489 64.00259
# Shear Modulus (GPa) = 28.86837 30.47655 29.67246
#
# Velocity S-wave (km/s) = 3.99068 4.10033 4.04588
# Velocity P-wave (km/s) = 7.42336 7.69157 7.55866
#
# Compressibility (1/GPa) = 0.01628657
#
# Stress axis : x y z
#
# Youngs Moduli (GPa) = 73.69888 75.33735 52.98078
#
# Poissons Ratio (x) = 0.32961 0.13962
# Poissons Ratio (y) = 0.32244 0.40821
# Poissons Ratio (z) = 0.19422 0.58047
#
# Static dielectric constant tensor:
#      x y z
#    x 3.655790 0.000000 0.000000 
#    y 0.000000 3.670080 0.000000 
#    z 0.000000 0.000000 3.542400 
# 
# 
# High freq. dielectric constant tensor:
#      x y z
#    x 1.695490 0.000000 0.000000 
#    y 0.000000 1.710150 0.000000 
#    z 0.000000 0.000000 1.689820 
# 
# From -- ./inp_files/10521.got.cif
#   From: 2010.06.25/outbox.cif.g09.slc.cpg/sg71_6_cif.got.tgz:10521.got - 2010.06.28 04:59:45.
