data_PCOD8289517
_publ_section_title
;
Structure prediction by ZEFSAII (Michael W. Deem and Ramdas Pophale) SiO2 
 PCOD8289517
Probable space group: I M M M
;
_chemical_formula_sum "Si O2"
_cell_formula_units_Z 88
_cell_length_a 19.431515
_cell_length_b 7.921852
_cell_length_c 28.569224
_cell_angle_alpha 90.000000
_cell_angle_beta 90.000000
_cell_angle_gamma 90.000000
_cell_volume 4397.763099
_symmetry_space_group_name_H-M "I M M M"
_symmetry_group_IT_number 71
_symmetry_cell_setting 'orthorhombic'
loop_
_space_group_symop_operation_xyz
x,y,z
-x,-y,z
x,-y,-z
-x,y,-z
-x,-y,-z
x,y,-z
-x,y,z
x,-y,z
1/2+x,1/2+y,1/2+z
1/2-x,1/2-y,1/2+z
1/2+x,1/2-y,1/2-z
1/2-x,1/2+y,1/2-z
1/2-x,1/2-y,1/2-z
1/2+x,1/2+y,1/2-z
1/2-x,1/2+y,1/2+z
1/2+x,1/2-y,1/2+z
loop_
_atom_site_type_symbol
_atom_site_label
_atom_site_fract_x
_atom_site_fract_y
_atom_site_fract_z
Si Si1 0.807566 0.194556 0.051740
Si Si2 0.344280 0.307165 0.293105
Si Si3 0.923198 0.692310 0.120803
Si Si4 0.663188 0.196867 0.907237
Si Si5 0.575787 0.500000 0.054703
Si Si6 0.808386 0.799569 0.691782
O O1 0.874662 0.216464 0.083540
O O2 0.739587 0.261656 0.078212
O O3 0.796001 0.000000 0.043460
O O4 0.815848 0.280543 0.000000
O O5 0.365889 0.500000 0.299841
O O6 0.394706 0.201326 0.326191
O O7 0.265870 0.285866 0.308455
O O8 0.350853 0.251086 0.238753
O O9 0.926075 0.500000 0.105407
O O10 0.000000 0.771622 0.118719
O O11 0.611430 0.324232 0.931802
O O12 0.651541 0.220742 0.851830
O O13 0.649224 0.000000 0.920907
O O14 0.500000 0.500000 0.077780
O O15 0.570039 0.500000 0.000000
O O16 0.799920 0.000000 0.687461
#
# Coordination Sequence:
#
# PCOD8289517 Si02
#       6
#    16  16  16  16   8  16
#     4  10  22  39  60  88 118 154 207 261 307 362
#     4  10  20  34  56  87 119 158 204 254 308 367
#     4  11  24  39  55  81 121 164 206 256 312 371
#     4  11  22  40  67  98 129 162 206 261 314 369
#     4  11  26  46  68  96 129 165 205 249 313 393
#     4  10  19  34  59  91 124 156 201 257 307 364
#
# _framework density 20.010173000000002
#
# number of rings (size 3 to 8) (size 9 to 14) (size 15 to 20)
#    0.000    1.545    2.727    2.182    1.273    5.818 
#    0.000    3.636    0.000    0.000    0.000    0.000 
#    0.000    0.000    0.000    0.000    0.000    0.000 
#
# Total GULP energy -545449.770421 kJ/mol
# GULP energy per Si atom -12396.585691 kJ/mol
# Density = 1.996463 g / cm^3
# Si number density = 20.010173 Si / 1000 Ang^3
#
#
#
# Elastic Constant Matrix: (Units=GPa)
#
#
# Indices 1 2 3 4 5 6 
#
# 1 116.4606 30.1298 58.5741 0.0000 0.0000 0.0000
# 2 30.1298 60.6357 25.4882 0.0000 0.0000 0.0000
# 3 58.5741 25.4882 135.3259 0.0000 0.0000 0.0000
# 4 0.0000 0.0000 0.0000 23.0799 0.0000 0.0000
# 5 0.0000 0.0000 0.0000 0.0000 23.7864 0.0000
# 6 0.0000 0.0000 0.0000 0.0000 0.0000 16.5014
#
#
#
# Elastic Compliance Matrix: (Units=1/GPa)
#
#
# Indices 1 2 3 4 5 6 
#
# 1 0.011824 -0.004044 -0.004356 0.000000 0.000000 0.000000
# 2 -0.004044 0.019293 -0.001883 0.000000 0.000000 0.000000
# 3 -0.004356 -0.001883 0.009630 0.000000 0.000000 0.000000
# 4 0.000000 0.000000 0.000000 0.043328 0.000000 0.000000
# 5 0.000000 0.000000 0.000000 0.000000 0.042041 0.000000
# 6 0.000000 0.000000 0.000000 0.000000 0.000000 0.060601
#
#
# Mechanical properties :
#
#
# Convention : Reuss Voigt Hill
#
# Bulk Modulus (GPa) = 49.55512 60.08961 54.82237
# Shear Modulus (GPa) = 23.36346 25.88891 24.62618
#
# Velocity S-wave (km/s) = 3.42069 3.60083 3.51192
# Velocity P-wave (km/s) = 6.35769 6.88351 6.62582
#
# Compressibility (1/GPa) = 0.02017955
#
# Stress axis : x y z
#
# Youngs Moduli (GPa) = 84.57554 51.83193 103.84477
#
# Poissons Ratio (x) = 0.20961 0.45235
# Poissons Ratio (y) = 0.34203 0.19558
# Poissons Ratio (z) = 0.36842 0.09762
#
# Static dielectric constant tensor:
#      x y z
#    x 3.644660 0.000000 0.000000 
#    y 0.000000 3.768380 0.000000 
#    z 0.000000 0.000000 4.049750 
# 
# 
# High freq. dielectric constant tensor:
#      x y z
#    x 1.752160 0.000000 0.000000 
#    y 0.000000 1.783510 0.000000 
#    z 0.000000 0.000000 1.797450 
# 
# From -- ./inp_files/16711.got.cif
#   From: 2010.06.25/outbox.cif.g09.slc.cpg/sg71_9_cif.got.tgz:16711.got - 2010.06.28 04:59:45.
