data_PCOD8289088
_publ_section_title
;
Structure prediction by ZEFSAII (Michael W. Deem and Ramdas Pophale) SiO2 
 PCOD8289088
Probable space group: I M M M
;
_chemical_formula_sum "Si O2"
_cell_formula_units_Z 88
_cell_length_a 19.909209
_cell_length_b 20.529146
_cell_length_c 11.564769
_cell_angle_alpha 90.000000
_cell_angle_beta 90.000000
_cell_angle_gamma 90.000000
_cell_volume 4726.741495
_symmetry_space_group_name_H-M "I M M M"
_symmetry_group_IT_number 71
_symmetry_cell_setting 'orthorhombic'
loop_
_space_group_symop_operation_xyz
x,y,z
-x,-y,z
x,-y,-z
-x,y,-z
-x,-y,-z
x,y,-z
-x,y,z
x,-y,z
1/2+x,1/2+y,1/2+z
1/2-x,1/2-y,1/2+z
1/2+x,1/2-y,1/2-z
1/2-x,1/2+y,1/2-z
1/2-x,1/2-y,1/2-z
1/2+x,1/2+y,1/2-z
1/2-x,1/2+y,1/2+z
1/2+x,1/2-y,1/2+z
loop_
_atom_site_type_symbol
_atom_site_label
_atom_site_fract_x
_atom_site_fract_y
_atom_site_fract_z
Si Si1 0.379863 0.424965 0.253280
Si Si2 0.312786 0.924669 0.000000
Si Si3 0.000000 0.146273 0.632018
Si Si4 0.618559 0.117539 0.769725
Si Si5 0.426624 0.000000 0.623907
Si Si6 0.737161 0.924502 0.634193
Si Si7 0.335284 0.577205 0.500000
Si Si8 0.500000 0.800068 0.864120
O O1 0.402763 0.500000 0.244762
O O2 0.433551 0.380435 0.191226
O O3 0.308177 0.415140 0.194295
O O4 0.375669 0.400925 0.386071
O O5 0.356486 0.906081 0.108092
O O6 0.239300 0.890536 0.000000
O O7 0.298063 0.000000 0.000000
O O8 0.000000 0.223193 0.642649
O O9 0.000000 0.122919 0.500000
O O10 0.578985 0.062890 0.702553
O O11 0.685259 0.128425 0.689215
O O12 0.567266 0.176847 0.795050
O O13 0.500000 0.000000 0.574821
O O14 0.383476 0.000000 0.500000
O O15 0.746657 0.909463 0.500000
O O16 0.710868 0.000000 0.656404
O O17 0.327819 0.500000 0.500000
O O18 0.500000 0.822903 0.000000
#
# Coordination Sequence:
#
# PCOD8289088 Si02
#       8
#    16   8   8  16   8  16   8   8
#     4  10  20  37  66  95 118 144 183 237 297 360
#     4  11  18  29  57  91 119 147 183 245 291 330
#     4  11  25  45  62  81 114 153 194 243 294 347
#     4  12  20  34  56  83 118 155 197 237 285 342
#     4  11  22  33  51  83 123 161 197 244 295 339
#     4  10  19  32  56  92 126 151 181 233 298 354
#     4   9  18  33  57  97 127 143 171 225 304 355
#     4  11  26  42  57  78 112 161 207 246 285 331
#
# _framework density 18.617476
#
# number of rings (size 3 to 8) (size 9 to 14) (size 15 to 20)
#    0.000    1.364    5.455    1.364    0.000    1.818 
#    0.000    3.636    8.000    0.000    0.000    0.000 
#    0.000    0.000    0.000    0.000    0.000    0.000 
#
# Total GULP energy -545139.175382 kJ/mol
# GULP energy per Si atom -12389.526713 kJ/mol
# Density = 1.857510 g / cm^3
# Si number density = 18.617476 Si / 1000 Ang^3
#
#
#
# Elastic Constant Matrix: (Units=GPa)
#
#
# Indices 1 2 3 4 5 6 
#
# 1 113.0097 44.8956 61.6877 0.0000 0.0000 0.0000
# 2 44.8956 57.3817 43.7876 0.0000 0.0000 0.0000
# 3 61.6877 43.7876 171.0331 0.0000 0.0000 0.0000
# 4 0.0000 0.0000 0.0000 21.0578 0.0000 0.0000
# 5 0.0000 0.0000 0.0000 0.0000 43.2000 0.0000
# 6 0.0000 0.0000 0.0000 0.0000 0.0000 31.8912
#
#
#
# Elastic Compliance Matrix: (Units=1/GPa)
#
#
# Indices 1 2 3 4 5 6 
#
# 1 0.013809 -0.008704 -0.002752 0.000000 0.000000 0.000000
# 2 -0.008704 0.027145 -0.003810 0.000000 0.000000 0.000000
# 3 -0.002752 -0.003810 0.007815 0.000000 0.000000 0.000000
# 4 0.000000 0.000000 0.000000 0.047488 0.000000 0.000000
# 5 0.000000 0.000000 0.000000 0.000000 0.023148 0.000000
# 6 0.000000 0.000000 0.000000 0.000000 0.000000 0.031357
#
#
# Mechanical properties :
#
#
# Convention : Reuss Voigt Hill
#
# Bulk Modulus (GPa) = 54.83704 71.35183 63.09443
# Shear Modulus (GPa) = 26.68470 31.96670 29.32570
#
# Velocity S-wave (km/s) = 3.79002 4.14820 3.97315
# Velocity P-wave (km/s) = 6.97645 7.83274 7.41696
#
# Compressibility (1/GPa) = 0.01823585
#
# Stress axis : x y z
#
# Youngs Moduli (GPa) = 72.41659 36.83950 127.95960
#
# Poissons Ratio (x) = 0.32065 0.35217
# Poissons Ratio (y) = 0.63032 0.48756
# Poissons Ratio (z) = 0.19930 0.14037
#
# Static dielectric constant tensor:
#      x y z
#    x 3.840310 0.000000 0.000000 
#    y 0.000000 2.967580 0.000000 
#    z 0.000000 0.000000 3.893710 
# 
# 
# High freq. dielectric constant tensor:
#      x y z
#    x 1.744160 0.000000 0.000000 
#    y 0.000000 1.660490 0.000000 
#    z 0.000000 0.000000 1.752200 
# 
# From -- ./inp_files/25736.got.cif
#   From: 2010.06.25/outbox.cif.g09.slc.cpg/sg71_13_cif.got.tgz:25736.got - 2010.06.28 04:59:45.
