data_PCOD8289523
_publ_section_title
;
Structure prediction by ZEFSAII (Michael W. Deem and Ramdas Pophale) SiO2 
 PCOD8289523
Probable space group: I M M M
;
_chemical_formula_sum "Si O2"
_cell_formula_units_Z 76
_cell_length_a 11.645087
_cell_length_b 27.797438
_cell_length_c 11.179705
_cell_angle_alpha 90.000000
_cell_angle_beta 90.000000
_cell_angle_gamma 90.000000
_cell_volume 3618.910575
_symmetry_space_group_name_H-M "I M M M"
_symmetry_group_IT_number 71
_symmetry_cell_setting 'orthorhombic'
loop_
_space_group_symop_operation_xyz
x,y,z
-x,-y,z
x,-y,-z
-x,y,-z
-x,-y,-z
x,y,-z
-x,y,z
x,-y,z
1/2+x,1/2+y,1/2+z
1/2-x,1/2-y,1/2+z
1/2+x,1/2-y,1/2-z
1/2-x,1/2+y,1/2-z
1/2-x,1/2-y,1/2-z
1/2+x,1/2+y,1/2-z
1/2-x,1/2+y,1/2+z
1/2+x,1/2-y,1/2+z
loop_
_atom_site_type_symbol
_atom_site_label
_atom_site_fract_x
_atom_site_fract_y
_atom_site_fract_z
Si Si1 0.134504 0.616607 0.804381
Si Si2 0.000000 0.167519 0.673839
Si Si3 0.759896 0.213656 0.361896
Si Si4 0.261006 0.446434 0.359328
Si Si5 0.500000 0.403283 0.640436
Si Si6 0.749960 0.946951 0.500000
Si Si7 0.500000 0.418397 0.000000
O O1 0.173743 0.670872 0.827784
O O2 0.167650 0.594958 0.674951
O O3 0.000000 0.613786 0.829075
O O4 0.206035 0.580861 0.885729
O O5 0.109203 0.197499 0.633529
O O6 0.000000 0.115190 0.615594
O O7 0.000000 0.152579 0.813496
O O8 0.731094 0.232198 0.500000
O O9 0.750000 0.250000 0.250000
O O10 0.259071 0.449016 0.500000
O O11 0.232485 0.500000 0.307215
O O12 0.387596 0.431567 0.313650
O O13 0.500000 0.398451 0.500000
O O14 0.887320 0.951110 0.500000
O O15 0.696884 0.000000 0.500000
#
# Coordination Sequence:
#
# PCOD8289523 Si02
#       7
#    16   8  16  16   8   8   4
#     4  12  25  44  65  92 136 179 227 278 338 415
#     4  12  20  44  73  94 134 176 212 294 358 408
#     4  12  27  48  74 102 133 178 232 295 361 424
#     4  10  21  38  62  95 135 179 227 279 339 406
#     4  10  19  34  64  98 134 172 222 283 346 409
#     4  12  24  40  69 103 136 178 224 275 339 412
#     4  12  19  42  72  96 142 168 222 272 355 406
#
# _framework density 21.000795
#
# number of rings (size 3 to 8) (size 9 to 14) (size 15 to 20)
#    0.000    0.632    6.316    1.421    1.474    5.474 
#    0.000    4.211    0.000    0.000    0.000    0.000 
#    0.000    0.000    0.000    0.000    0.000    0.000 
#
# Total GULP energy -470908.757595 kJ/mol
# GULP energy per Si atom -12392.335726 kJ/mol
# Density = 2.095300 g / cm^3
# Si number density = 21.000795 Si / 1000 Ang^3
#
#
#
# Elastic Constant Matrix: (Units=GPa)
#
#
# Indices 1 2 3 4 5 6 
#
# 1 137.3631 32.8015 31.8652 0.0001 -0.0001 0.0001
# 2 32.8015 114.7644 62.3450 -0.0001 -0.0001 0.0000
# 3 31.8652 62.3450 93.7040 -0.0040 0.0008 -0.0001
# 4 0.0001 -0.0001 -0.0040 36.4023 0.0002 0.0002
# 5 -0.0001 -0.0001 0.0008 0.0002 30.1100 -0.0002
# 6 0.0001 0.0000 -0.0001 0.0002 -0.0002 -9.3559
#
#
#
# Elastic Compliance Matrix: (Units=1/GPa)
#
#
# Indices 1 2 3 4 5 6 
#
# 1 0.008020 -0.001269 -0.001883 0.000000 0.000000 0.000000
# 2 -0.001269 0.013847 -0.008781 -0.000001 0.000000 0.000000
# 3 -0.001883 -0.008781 0.017154 0.000002 0.000000 0.000000
# 4 0.000000 -0.000001 0.000002 0.027471 0.000000 0.000000
# 5 0.000000 0.000000 0.000000 0.000000 0.033212 -0.000001
# 6 0.000000 0.000000 0.000000 0.000000 -0.000001 -0.106884
#
#
# Mechanical properties :
#
#
# Convention : Reuss Voigt Hill
#
# Bulk Modulus (GPa) = 65.98605 66.65055 66.31830
# Shear Modulus (GPa) = 230.02602 26.01925 128.02264
#
# Velocity S-wave (km/s) = 10.47711 3.52371 7.81621
# Velocity P-wave (km/s) = 13.33599 6.95424 10.63509
#
# Compressibility (1/GPa) = 0.01515472
#
# Stress axis : x y z
#
# Youngs Moduli (GPa) = 124.69077 72.22018 58.29400
#
# Poissons Ratio (x) = 0.09168 0.10974
# Poissons Ratio (y) = 0.15829 0.51188
# Poissons Ratio (z) = 0.23474 0.63416
#
# Static dielectric constant tensor:
#      x y z
#    x 3.854310 0.000000 0.000000 
#    y 0.000000 3.874430 0.000000 
#    z 0.000000 0.000000 4.179680 
# 
# 
# High freq. dielectric constant tensor:
#      x y z
#    x 1.821800 0.000000 0.000000 
#    y 0.000000 1.812190 0.000000 
#    z 0.000000 0.000000 1.842290 
# 
# From -- ./inp_files/20220.got.cif
#   From: 2010.06.25/outbox.cif.g09.slc.cpg/sg71_11_cif.got.tgz:20220.got - 2010.06.28 04:59:45.
