data_PCOD8289241
_publ_section_title
;
Structure prediction by ZEFSAII (Michael W. Deem and Ramdas Pophale) SiO2 
 PCOD8289241
Probable space group: I M M M
;
_chemical_formula_sum "Si O2"
_cell_formula_units_Z 120
_cell_length_a 14.912999
_cell_length_b 22.724796
_cell_length_c 19.079024
_cell_angle_alpha 90.000000
_cell_angle_beta 90.000000
_cell_angle_gamma 90.000000
_cell_volume 6465.783168
_symmetry_space_group_name_H-M "I M M M"
_symmetry_group_IT_number 71
_symmetry_cell_setting 'orthorhombic'
loop_
_space_group_symop_operation_xyz
x,y,z
-x,-y,z
x,-y,-z
-x,y,-z
-x,-y,-z
x,y,-z
-x,y,z
x,-y,z
1/2+x,1/2+y,1/2+z
1/2-x,1/2-y,1/2+z
1/2+x,1/2-y,1/2-z
1/2-x,1/2+y,1/2-z
1/2-x,1/2-y,1/2-z
1/2+x,1/2+y,1/2-z
1/2-x,1/2+y,1/2+z
1/2+x,1/2-y,1/2+z
loop_
_atom_site_type_symbol
_atom_site_label
_atom_site_fract_x
_atom_site_fract_y
_atom_site_fract_z
Si Si1 0.299390 0.140031 0.818279
Si Si2 0.000000 0.932723 0.082853
Si Si3 0.101407 0.069032 0.418974
Si Si4 0.901179 0.722133 0.865949
Si Si5 0.100093 0.247828 0.709343
Si Si6 0.146111 0.839373 0.921045
Si Si7 0.400948 0.931123 0.076592
Si Si8 0.265206 0.649821 0.165667
O O1 0.381077 0.185600 0.813701
O O2 0.225525 0.169414 0.866972
O O3 0.335003 0.083343 0.859421
O O4 0.262108 0.123259 0.741440
O O5 0.085619 0.894167 0.106745
O O6 0.000000 0.000000 0.114606
O O7 0.000000 0.937451 0.000000
O O8 0.112471 0.086397 0.500000
O O9 0.180406 0.100518 0.376167
O O10 0.000000 0.086595 0.394046
O O11 0.115172 0.000000 0.408002
O O12 0.886843 0.755605 0.792368
O O13 0.900988 0.775062 0.922589
O O14 0.824274 0.671987 0.875954
O O15 0.000000 0.691533 0.869002
O O16 0.170424 0.205412 0.672877
O O17 0.000000 0.229934 0.686140
O O18 0.177921 0.853500 0.000000
O O19 0.500000 0.904974 0.090762
O O20 0.406477 0.000000 0.073055
O O21 0.366527 0.907766 0.000000
#
# Coordination Sequence:
#
# PCOD8289241 Si02
#       8
#    16   8  16  16  16  16  16  16
#     4  11  20  34  51  80 113 142 181 229 281 336
#     4   9  20  36  50  68  98 144 196 236 270 307
#     4   9  20  41  65  86 111 143 177 222 289 359
#     4  10  19  34  53  76 110 149 186 221 272 331
#     4  10  19  33  54  78 109 145 178 226 287 336
#     4  11  20  32  52  72 103 149 187 227 269 318
#     4   9  19  36  55  75 106 151 196 234 274 323
#     4  11  20  35  58  85 113 141 184 233 282 339
#
# _framework density 18.559235999999999
#
# number of rings (size 3 to 8) (size 9 to 14) (size 15 to 20)
#    0.000    1.933    3.333    2.800    0.000    2.133 
#    1.200    1.333    0.000    2.800    0.000    0.933 
#    0.000    0.000    0.000    0.000    0.000    0.000 
#
# Total GULP energy -743493.733797 kJ/mol
# GULP energy per Si atom -12391.562230 kJ/mol
# Density = 1.851699 g / cm^3
# Si number density = 18.559236 Si / 1000 Ang^3
#
#
#
# Elastic Constant Matrix: (Units=GPa)
#
#
# Indices 1 2 3 4 5 6 
#
# 1 126.0734 48.2365 45.2249 0.0000 0.0000 0.0000
# 2 48.2365 69.6348 42.4028 0.0000 0.0000 0.0000
# 3 45.2249 42.4028 76.4700 -0.0001 0.0000 0.0000
# 4 0.0000 0.0000 -0.0001 26.7973 0.0000 0.0000
# 5 0.0000 0.0000 0.0000 0.0000 25.9624 0.0000
# 6 0.0000 0.0000 0.0000 0.0000 0.0000 33.9210
#
#
#
# Elastic Compliance Matrix: (Units=1/GPa)
#
#
# Indices 1 2 3 4 5 6 
#
# 1 0.011403 -0.005726 -0.003569 0.000000 0.000000 0.000000
# 2 -0.005726 0.024556 -0.010230 0.000000 0.000000 0.000000
# 3 -0.003569 -0.010230 0.020860 0.000000 0.000000 0.000000
# 4 0.000000 0.000000 0.000000 0.037317 0.000000 0.000000
# 5 0.000000 0.000000 0.000000 0.000000 0.038517 0.000000
# 6 0.000000 0.000000 0.000000 0.000000 0.000000 0.029480
#
#
# Mechanical properties :
#
#
# Convention : Reuss Voigt Hill
#
# Bulk Modulus (GPa) = 56.27483 60.43406 58.35445
# Shear Modulus (GPa) = 24.14208 26.42375 25.28292
#
# Velocity S-wave (km/s) = 3.61059 3.77736 3.69491
# Velocity P-wave (km/s) = 6.91154 7.18735 7.05080
#
# Compressibility (1/GPa) = 0.01776993
#
# Stress axis : x y z
#
# Youngs Moduli (GPa) = 87.69831 40.72253 47.93765
#
# Poissons Ratio (x) = 0.23316 0.17108
# Poissons Ratio (y) = 0.50212 0.49042
# Poissons Ratio (z) = 0.31298 0.41661
#
# Static dielectric constant tensor:
#      x y z
#    x 3.635320 0.000000 0.000000 
#    y 0.000000 3.190580 0.000000 
#    z 0.000000 0.000000 3.349770 
# 
# 
# High freq. dielectric constant tensor:
#      x y z
#    x 1.732860 0.000000 0.000000 
#    y 0.000000 1.696960 0.000000 
#    z 0.000000 0.000000 1.706080 
# 
# From -- ./inp_files/53429.got.cif
#   From: 2010.06.25/outbox.cif.g09.slc.cpg/sg71_27_cif.got.tgz:53429.got - 2010.06.28 04:59:45.
