data_PCOD8289082
_publ_section_title
;
Structure prediction by ZEFSAII (Michael W. Deem and Ramdas Pophale) SiO2 
 PCOD8289082
Probable space group: I M M M
;
_chemical_formula_sum "Si O2"
_cell_formula_units_Z 104
_cell_length_a 19.484363
_cell_length_b 9.116143
_cell_length_c 31.853917
_cell_angle_alpha 90.000000
_cell_angle_beta 90.000000
_cell_angle_gamma 90.000000
_cell_volume 5657.964070
_symmetry_space_group_name_H-M "I M M M"
_symmetry_group_IT_number 71
_symmetry_cell_setting 'orthorhombic'
loop_
_space_group_symop_operation_xyz
x,y,z
-x,-y,z
x,-y,-z
-x,y,-z
-x,-y,-z
x,y,-z
-x,y,z
x,-y,z
1/2+x,1/2+y,1/2+z
1/2-x,1/2-y,1/2+z
1/2+x,1/2-y,1/2-z
1/2-x,1/2+y,1/2-z
1/2-x,1/2-y,1/2-z
1/2+x,1/2+y,1/2-z
1/2-x,1/2+y,1/2+z
1/2+x,1/2-y,1/2+z
loop_
_atom_site_type_symbol
_atom_site_label
_atom_site_fract_x
_atom_site_fract_y
_atom_site_fract_z
Si Si1 0.576010 0.826011 0.453219
Si Si2 0.420417 0.173802 0.000000
Si Si3 0.350381 0.168245 0.768210
Si Si4 0.201963 0.168688 0.192204
Si Si5 0.197786 0.328671 0.104399
Si Si6 0.578901 0.666312 0.161132
Si Si7 0.651851 0.670503 0.923077
O O1 0.588445 0.762948 0.500000
O O2 0.500000 0.778875 0.437280
O O3 0.634205 0.764705 0.422325
O O4 0.581595 0.000000 0.454846
O O5 0.382840 0.234933 0.040880
O O6 0.500000 0.222933 0.000000
O O7 0.413680 0.000000 0.000000
O O8 0.278492 0.189375 0.791295
O O9 0.350691 0.251925 0.723803
O O10 0.408496 0.234860 0.798132
O O11 0.367879 0.000000 0.759291
O O12 0.197954 0.240724 0.147134
O O13 0.180462 0.000000 0.189132
O O14 0.189882 0.500000 0.115154
O O15 0.266585 0.301678 0.077382
O O16 0.500000 0.676566 0.148213
O O17 0.600943 0.500000 0.172028
O O18 0.622341 0.723957 0.121597
O O19 0.634343 0.500000 0.930958
#
# Coordination Sequence:
#
# PCOD8289082 Si02
#       7
#    16   8  16  16  16  16  16
#     4   8  15  29  51  80 111 140 172 214 265 317
#     4  11  25  41  55  75 108 149 188 230 281 331
#     4  10  20  34  54  78 105 139 181 224 267 317
#     4  10  20  34  54  78 108 141 176 221 274 323
#     4  10  19  32  56  85 111 140 181 227 270 324
#     4  10  20  35  55  79 109 144 180 222 275 329
#     4  10  21  36  57  82 109 142 185 231 274 328
#
# _framework density 18.381170000000001
#
# number of rings (size 3 to 8) (size 9 to 14) (size 15 to 20)
#    0.000    2.231    1.538    2.077    1.077    4.000 
#    0.000    0.769    0.000    3.231    0.000    1.077 
#    0.000    0.000    0.000    0.000    0.000    0.000 
#
# Total GULP energy -644867.557866 kJ/mol
# GULP energy per Si atom -12401.299190 kJ/mol
# Density = 1.833933 g / cm^3
# Si number density = 18.381170 Si / 1000 Ang^3
#
#
#
# Elastic Constant Matrix: (Units=GPa)
#
#
# Indices 1 2 3 4 5 6 
#
# 1 90.7266 45.5688 47.7509 0.0000 0.0000 0.0000
# 2 45.5688 82.2952 65.1926 0.0000 0.0000 0.0000
# 3 47.7509 65.1926 109.5834 0.0000 0.0000 0.0000
# 4 0.0000 0.0000 0.0000 33.5578 0.0000 0.0000
# 5 0.0000 0.0000 0.0000 0.0000 23.0281 0.0000
# 6 0.0000 0.0000 0.0000 0.0000 0.0000 20.5120
#
#
#
# Elastic Compliance Matrix: (Units=1/GPa)
#
#
# Indices 1 2 3 4 5 6 
#
# 1 0.015835 -0.006246 -0.003185 0.000000 0.000000 0.000000
# 2 -0.006246 0.025446 -0.012417 0.000000 0.000000 0.000000
# 3 -0.003185 -0.012417 0.017900 0.000000 0.000000 0.000000
# 4 0.000000 0.000000 0.000000 0.029799 0.000000 0.000000
# 5 0.000000 0.000000 0.000000 0.000000 0.043425 0.000000
# 6 0.000000 0.000000 0.000000 0.000000 0.000000 0.048752
#
#
# Mechanical properties :
#
#
# Convention : Reuss Voigt Hill
#
# Bulk Modulus (GPa) = 64.56816 66.62554 65.59685
# Shear Modulus (GPa) = 21.73787 23.69244 22.71516
#
# Velocity S-wave (km/s) = 3.44265 3.59409 3.51919
# Velocity P-wave (km/s) = 7.14185 7.31769 7.23031
#
# Compressibility (1/GPa) = 0.01548751
#
# Stress axis : x y z
#
# Youngs Moduli (GPa) = 63.15064 39.29919 55.86612
#
# Poissons Ratio (x) = 0.24544 0.17791
# Poissons Ratio (y) = 0.39441 0.69367
# Poissons Ratio (z) = 0.20111 0.48796
#
# Static dielectric constant tensor:
#      x y z
#    x 3.468120 0.000000 0.000000 
#    y 0.000000 3.238720 0.000000 
#    z 0.000000 0.000000 3.455430 
# 
# 
# High freq. dielectric constant tensor:
#      x y z
#    x 1.707800 0.000000 0.000000 
#    y 0.000000 1.695310 0.000000 
#    z 0.000000 0.000000 1.717070 
# 
# From -- ./inp_files/70710.got.cif
#   From: 2010.06.25/outbox.cif.g09.slc.cpg/sg71_36_cif.got.tgz:70710.got - 2010.06.28 04:59:45.
