data_PCOD8289854
_publ_section_title
;
Structure prediction by ZEFSAII (Michael W. Deem and Ramdas Pophale) SiO2 
 PCOD8289854
Probable space group: I M M M
;
_chemical_formula_sum "Si O2"
_cell_formula_units_Z 96
_cell_length_a 12.787328
_cell_length_b 30.568287
_cell_length_c 13.856491
_cell_angle_alpha 90.000000
_cell_angle_beta 90.000000
_cell_angle_gamma 90.000000
_cell_volume 5416.318211
_symmetry_space_group_name_H-M "I M M M"
_symmetry_group_IT_number 71
_symmetry_cell_setting 'orthorhombic'
loop_
_space_group_symop_operation_xyz
x,y,z
-x,-y,z
x,-y,-z
-x,y,-z
-x,-y,-z
x,y,-z
-x,y,z
x,-y,z
1/2+x,1/2+y,1/2+z
1/2-x,1/2-y,1/2+z
1/2+x,1/2-y,1/2-z
1/2-x,1/2+y,1/2-z
1/2-x,1/2-y,1/2-z
1/2+x,1/2+y,1/2-z
1/2-x,1/2+y,1/2+z
1/2+x,1/2-y,1/2+z
loop_
_atom_site_type_symbol
_atom_site_label
_atom_site_fract_x
_atom_site_fract_y
_atom_site_fract_z
Si Si1 0.205439 0.949101 0.387700
Si Si2 0.304770 0.246147 0.115081
Si Si3 0.883299 0.696945 0.885479
Si Si4 0.120351 0.394781 0.206108
Si Si5 0.500000 0.300893 0.115067
Si Si6 0.121159 0.653598 0.392303
Si Si7 0.000000 0.899585 0.614695
O O1 0.224445 0.938861 0.500000
O O2 0.307421 0.934160 0.328930
O O3 0.103640 0.924047 0.347298
O O4 0.187500 0.000000 0.369201
O O5 0.195522 0.265951 0.155272
O O6 0.398085 0.276238 0.155285
O O7 0.316916 0.195911 0.148702
O O8 0.307657 0.246929 0.000000
O O9 0.848481 0.649231 0.850348
O O10 0.000000 0.707980 0.847729
O O11 0.878746 0.696319 0.000000
O O12 0.139683 0.386942 0.320483
O O13 0.000000 0.407612 0.185778
O O14 0.500000 0.350361 0.155374
O O15 0.500000 0.301983 0.000000
O O16 0.158358 0.640070 0.500000
O O17 0.000000 0.667458 0.393787
O O18 0.000000 0.901179 0.500000
#
# Coordination Sequence:
#
# PCOD8289854 Si02
#       7
#    16  16  16  16   8  16   8
#     4  10  20  34  53  76 102 130 159 193 237 294
#     4   9  15  25  43  65  89 123 164 201 235 274
#     4   9  17  28  41  60  92 131 162 190 231 287
#     4  10  20  32  48  70  96 128 164 201 245 294
#     4   9  14  21  40  69  94 117 155 201 232 262
#     4   9  17  31  49  68  92 124 166 210 251 288
#     4   9  17  30  49  74 103 134 162 189 230 280
#
# _framework density 17.724218
#
# number of rings (size 3 to 8) (size 9 to 14) (size 15 to 20)
#    0.000    2.667    0.833    1.750    0.000    5.667 
#    0.000    0.833    1.833    0.500    0.000    2.333 
#    0.000    1.333    0.000    0.000    0.000    0.000 
#
# Total GULP energy -595157.115759 kJ/mol
# GULP energy per Si atom -12399.106578 kJ/mol
# Density = 1.768388 g / cm^3
# Si number density = 17.724218 Si / 1000 Ang^3
#
#
#
# Elastic Constant Matrix: (Units=GPa)
#
#
# Indices 1 2 3 4 5 6 
#
# 1 87.5140 33.2641 23.6114 -0.0002 -0.0002 0.0001
# 2 33.2641 58.5866 24.0365 -0.0004 -0.0002 0.0001
# 3 23.6114 24.0365 30.7638 -0.0020 0.0005 0.0006
# 4 -0.0002 -0.0004 -0.0020 20.5183 0.0002 0.0003
# 5 -0.0002 -0.0002 0.0005 0.0002 15.4733 0.0000
# 6 0.0001 0.0001 0.0006 0.0003 0.0000 24.8531
#
#
#
# Elastic Compliance Matrix: (Units=1/GPa)
#
#
# Indices 1 2 3 4 5 6 
#
# 1 0.015655 -0.005827 -0.007463 -0.000001 0.000000 0.000000
# 2 -0.005827 0.027290 -0.016850 -0.000001 0.000001 0.000000
# 3 -0.007463 -0.016850 0.051399 0.000005 -0.000002 -0.000001
# 4 -0.000001 -0.000001 0.000005 0.048737 -0.000001 -0.000001
# 5 0.000000 0.000001 -0.000002 -0.000001 0.064627 0.000000
# 6 0.000000 0.000000 -0.000001 -0.000001 0.000000 0.040236
#
#
# Mechanical properties :
#
#
# Convention : Reuss Voigt Hill
#
# Bulk Modulus (GPa) = 29.35612 37.63206 33.49409
# Shear Modulus (GPa) = 15.64555 18.56578 17.10566
#
# Velocity S-wave (km/s) = 2.97429 3.23999 3.10998
# Velocity P-wave (km/s) = 5.32859 5.93926 5.64219
#
# Compressibility (1/GPa) = 0.03406445
#
# Stress axis : x y z
#
# Youngs Moduli (GPa) = 63.87755 36.64298 19.45561
#
# Poissons Ratio (x) = 0.21351 0.14519
# Poissons Ratio (y) = 0.37220 0.32784
# Poissons Ratio (z) = 0.47670 0.61745
#
# Static dielectric constant tensor:
#      x y z
#    x 3.469620 0.000000 0.000000 
#    y 0.000000 3.072900 0.000000 
#    z 0.000000 0.000000 3.146770 
# 
# 
# High freq. dielectric constant tensor:
#      x y z
#    x 1.687810 0.000000 0.000000 
#    y 0.000000 1.661700 0.000000 
#    z 0.000000 0.000000 1.663880 
# 
# From -- ./inp_files/33192.got.cif
#   From: 2010.06.25/outbox.cif.g09.slc.cpg/sg71_17_cif.got.tgz:33192.got - 2010.06.28 04:59:45.
