data_PCOD8289978
_publ_section_title
;
Structure prediction by ZEFSAII (Michael W. Deem and Ramdas Pophale) SiO2 
 PCOD8289978
Probable space group: I M M M
;
_chemical_formula_sum "Si O2"
_cell_formula_units_Z 80
_cell_length_a 8.442432
_cell_length_b 19.822653
_cell_length_c 25.313088
_cell_angle_alpha 90.000000
_cell_angle_beta 90.000000
_cell_angle_gamma 90.000000
_cell_volume 4236.180715
_symmetry_space_group_name_H-M "I M M M"
_symmetry_group_IT_number 71
_symmetry_cell_setting 'orthorhombic'
loop_
_space_group_symop_operation_xyz
x,y,z
-x,-y,z
x,-y,-z
-x,y,-z
-x,-y,-z
x,y,-z
-x,y,z
x,-y,z
1/2+x,1/2+y,1/2+z
1/2-x,1/2-y,1/2+z
1/2+x,1/2-y,1/2-z
1/2-x,1/2+y,1/2-z
1/2-x,1/2-y,1/2-z
1/2+x,1/2+y,1/2-z
1/2-x,1/2+y,1/2+z
1/2+x,1/2-y,1/2+z
loop_
_atom_site_type_symbol
_atom_site_label
_atom_site_fract_x
_atom_site_fract_y
_atom_site_fract_z
Si Si1 0.315583 0.500000 0.723484
Si Si2 0.676278 0.619465 0.557569
Si Si3 0.315397 0.245852 0.329991
Si Si4 0.681705 0.740992 0.058391
Si Si5 0.678858 0.000000 0.115375
Si Si6 0.313409 0.141888 0.759389
O O1 0.500000 0.500000 0.706636
O O2 0.184509 0.500000 0.677718
O O3 0.277465 0.571082 0.752323
O O4 0.675411 0.584853 0.500000
O O5 0.500000 0.647485 0.571534
O O6 0.803488 0.678613 0.558457
O O7 0.725158 0.565221 0.599575
O O8 0.500000 0.258739 0.326166
O O9 0.273627 0.217397 0.388890
O O10 0.260073 0.188240 0.289644
O O11 0.234472 0.317816 0.313667
O O12 0.500000 0.719582 0.064059
O O13 0.745489 0.714584 0.000000
O O14 0.500000 0.000000 0.093507
O O15 0.500000 0.128373 0.760885
#
# Coordination Sequence:
#
# PCOD8289978 Si02
#       6
#     8  16  16  16   8  16
#     4  12  24  37  53  74 101 132 170 212 255 305
#     4  10  20  33  47  64  90 125 166 209 249 291
#     4  10  20  35  56  80 106 138 174 213 258 308
#     4  10  20  33  50  73 101 132 166 206 251 299
#     4  12  23  33  46  63  90 127 165 206 249 296
#     4  10  21  37  56  78 106 138 173 214 260 310
#
# _framework density 18.884934999999999
#
# number of rings (size 3 to 8) (size 9 to 14) (size 15 to 20)
#    0.000    1.600    0.000    5.700    0.000    6.000 
#    0.000    0.000    0.000    0.000    0.000    0.700 
#    0.000    5.600    0.000    0.000    0.000    0.000 
#
# Total GULP energy -495543.583120 kJ/mol
# GULP energy per Si atom -12388.589578 kJ/mol
# Density = 1.884195 g / cm^3
# Si number density = 18.884935 Si / 1000 Ang^3
#
#
#
# Elastic Constant Matrix: (Units=GPa)
#
#
# Indices 1 2 3 4 5 6 
#
# 1 70.4122 21.5109 15.7968 0.0000 0.0000 0.0000
# 2 21.5109 80.7305 28.3607 0.0000 0.0000 0.0000
# 3 15.7968 28.3607 107.5176 0.0000 0.0000 0.0000
# 4 0.0000 0.0000 0.0000 23.0279 0.0000 0.0000
# 5 0.0000 0.0000 0.0000 0.0000 28.5519 0.0000
# 6 0.0000 0.0000 0.0000 0.0000 0.0000 24.5032
#
#
#
# Elastic Compliance Matrix: (Units=1/GPa)
#
#
# Indices 1 2 3 4 5 6 
#
# 1 0.015629 -0.003701 -0.001320 0.000000 0.000000 0.000000
# 2 -0.003701 0.014528 -0.003289 0.000000 0.000000 0.000000
# 3 -0.001320 -0.003289 0.010362 0.000000 0.000000 0.000000
# 4 0.000000 0.000000 0.000000 0.043426 0.000000 0.000000
# 5 0.000000 0.000000 0.000000 0.000000 0.035024 0.000000
# 6 0.000000 0.000000 0.000000 0.000000 0.000000 0.040811
#
#
# Mechanical properties :
#
#
# Convention : Reuss Voigt Hill
#
# Bulk Modulus (GPa) = 41.83967 43.33303 42.58635
# Shear Modulus (GPa) = 27.12012 28.08273 27.60142
#
# Velocity S-wave (km/s) = 3.79366 3.86040 3.82718
# Velocity P-wave (km/s) = 6.43369 6.54721 6.49070
#
# Compressibility (1/GPa) = 0.02390076
#
# Stress axis : x y z
#
# Youngs Moduli (GPa) = 63.98460 68.83176 96.50468
#
# Poissons Ratio (x) = 0.25472 0.12739
# Poissons Ratio (y) = 0.23678 0.31736
# Poissons Ratio (z) = 0.08447 0.22635
#
# Static dielectric constant tensor:
#      x y z
#    x 3.442170 0.000000 0.000000 
#    y 0.000000 3.288640 0.000000 
#    z 0.000000 0.000000 3.823730 
# 
# 
# High freq. dielectric constant tensor:
#      x y z
#    x 1.744860 0.000000 0.000000 
#    y 0.000000 1.692180 0.000000 
#    z 0.000000 0.000000 1.736680 
# 
# From -- ./inp_files/57465.got.cif
#   From: 2010.06.25/outbox.cif.g09.slc.cpg/sg71_29_cif.got.tgz:57465.got - 2010.06.28 04:59:45.
