data_PCOD8289938
_publ_section_title
;
Structure prediction by ZEFSAII (Michael W. Deem and Ramdas Pophale) SiO2 
 PCOD8289938
Probable space group: I M M M
;
_chemical_formula_sum "Si O2"
_cell_formula_units_Z 80
_cell_length_a 27.073316
_cell_length_b 8.092371
_cell_length_c 19.621241
_cell_angle_alpha 90.000000
_cell_angle_beta 90.000000
_cell_angle_gamma 90.000000
_cell_volume 4298.765052
_symmetry_space_group_name_H-M "I M M M"
_symmetry_group_IT_number 71
_symmetry_cell_setting 'orthorhombic'
loop_
_space_group_symop_operation_xyz
x,y,z
-x,-y,z
x,-y,-z
-x,y,-z
-x,-y,-z
x,y,-z
-x,y,z
x,-y,z
1/2+x,1/2+y,1/2+z
1/2-x,1/2-y,1/2+z
1/2+x,1/2-y,1/2-z
1/2-x,1/2+y,1/2-z
1/2-x,1/2-y,1/2-z
1/2+x,1/2+y,1/2-z
1/2-x,1/2+y,1/2+z
1/2+x,1/2-y,1/2+z
loop_
_atom_site_type_symbol
_atom_site_label
_atom_site_fract_x
_atom_site_fract_y
_atom_site_fract_z
Si Si1 0.701991 0.309764 0.680276
Si Si2 0.383646 0.313833 0.579741
Si Si3 0.687860 0.810496 0.823219
Si Si4 0.605661 0.693325 0.924566
Si Si5 0.054852 0.500000 0.918968
Si Si6 0.500000 0.680683 0.919181
O O1 0.706728 0.500000 0.702084
O O2 0.669360 0.284846 0.613464
O O3 0.676081 0.215236 0.743231
O O4 0.756723 0.239726 0.663742
O O5 0.375026 0.294560 0.500000
O O6 0.404007 0.500000 0.596877
O O7 0.419802 0.169865 0.607063
O O8 0.648746 0.719148 0.870388
O O9 0.684232 0.000000 0.843551
O O10 0.596295 0.500000 0.931670
O O11 0.552359 0.771178 0.899301
O O12 0.620271 0.763784 0.000000
O O13 0.000000 0.500000 0.888367
O O14 0.053777 0.500000 0.000000
O O15 0.500000 0.500000 0.884158
O O16 0.500000 0.663871 0.000000
#
# Coordination Sequence:
#
# PCOD8289938 Si02
#       6
#    16  16  16  16   8   8
#     4   9  19  35  52  70  98 135 170 205 250 309
#     4   9  18  33  54  78 103 136 174 213 259 308
#     4  10  20  32  50  74 100 132 166 207 258 305
#     4   9  17  31  51  74  99 130 170 210 247 294
#     4   9  18  32  52  80 108 134 167 210 262 312
#     4   7  12  26  49  71  93 127 166 203 242 285
#
# _framework density 18.609995999999999
#
# number of rings (size 3 to 8) (size 9 to 14) (size 15 to 20)
#    0.000    3.000    0.000    1.800    1.400    2.400 
#    0.000    4.500    2.200    1.800    0.000    0.000 
#    0.000    0.000    0.000    0.000    0.000    0.000 
#
# Total GULP energy -495535.729018 kJ/mol
# GULP energy per Si atom -12388.393225 kJ/mol
# Density = 1.856764 g / cm^3
# Si number density = 18.609996 Si / 1000 Ang^3
#
#
#
# Elastic Constant Matrix: (Units=GPa)
#
#
# Indices 1 2 3 4 5 6 
#
# 1 147.6659 44.3775 64.3650 0.0000 0.0000 0.0000
# 2 44.3775 70.1988 22.1400 0.0000 0.0000 0.0000
# 3 64.3650 22.1400 60.1410 0.0000 0.0000 0.0000
# 4 0.0000 0.0000 0.0000 18.4016 0.0000 0.0000
# 5 0.0000 0.0000 0.0000 0.0000 15.7933 0.0000
# 6 0.0000 0.0000 0.0000 0.0000 0.0000 24.1121
#
#
#
# Elastic Compliance Matrix: (Units=1/GPa)
#
#
# Indices 1 2 3 4 5 6 
#
# 1 0.013911 -0.004637 -0.013181 0.000000 0.000000 0.000000
# 2 -0.004637 0.017662 -0.001539 0.000000 0.000000 0.000000
# 3 -0.013181 -0.001539 0.031301 0.000000 0.000000 0.000000
# 4 0.000000 0.000000 0.000000 0.054343 0.000000 0.000000
# 5 0.000000 0.000000 0.000000 0.000000 0.063318 0.000000
# 6 0.000000 0.000000 0.000000 0.000000 0.000000 0.041473
#
#
# Mechanical properties :
#
#
# Convention : Reuss Voigt Hill
#
# Bulk Modulus (GPa) = 41.39168 59.97450 50.68309
# Shear Modulus (GPa) = 18.60287 21.46961 20.03624
#
# Velocity S-wave (km/s) = 3.16510 3.40024 3.28478
# Velocity P-wave (km/s) = 5.97052 6.90743 6.45599
#
# Compressibility (1/GPa) = 0.02415944
#
# Stress axis : x y z
#
# Youngs Moduli (GPa) = 71.88615 56.61844 31.94788
#
# Poissons Ratio (x) = 0.26253 0.42110
# Poissons Ratio (y) = 0.33333 0.04918
# Poissons Ratio (z) = 0.94752 0.08716
#
# Static dielectric constant tensor:
#      x y z
#    x 3.672950 0.000000 0.000000 
#    y 0.000000 3.421320 0.000000 
#    z 0.000000 0.000000 3.110350 
# 
# 
# High freq. dielectric constant tensor:
#      x y z
#    x 1.726180 0.000000 0.000000 
#    y 0.000000 1.713030 0.000000 
#    z 0.000000 0.000000 1.691310 
# 
# From -- ./inp_files/14754.got.cif
#   From: 2010.06.25/outbox.cif.g09.slc.cpg/sg71_8_cif.got.tgz:14754.got - 2010.06.28 04:59:45.
