data_PCOD8289284
_publ_section_title
;
Structure prediction by ZEFSAII (Michael W. Deem and Ramdas Pophale) SiO2 
 PCOD8289284
Probable space group: I M M M
;
_chemical_formula_sum "Si O2"
_cell_formula_units_Z 88
_cell_length_a 18.040252
_cell_length_b 28.906687
_cell_length_c 8.947557
_cell_angle_alpha 90.000000
_cell_angle_beta 90.000000
_cell_angle_gamma 90.000000
_cell_volume 4666.007081
_symmetry_space_group_name_H-M "I M M M"
_symmetry_group_IT_number 71
_symmetry_cell_setting 'orthorhombic'
loop_
_space_group_symop_operation_xyz
x,y,z
-x,-y,z
x,-y,-z
-x,y,-z
-x,-y,-z
x,y,-z
-x,y,z
x,-y,z
1/2+x,1/2+y,1/2+z
1/2-x,1/2-y,1/2+z
1/2+x,1/2-y,1/2-z
1/2-x,1/2+y,1/2-z
1/2-x,1/2-y,1/2-z
1/2+x,1/2+y,1/2-z
1/2-x,1/2+y,1/2+z
1/2+x,1/2-y,1/2+z
loop_
_atom_site_type_symbol
_atom_site_label
_atom_site_fract_x
_atom_site_fract_y
_atom_site_fract_z
Si Si1 0.171401 0.696783 0.171114
Si Si2 0.214193 0.946572 0.323422
Si Si3 0.646613 0.102800 0.822856
Si Si4 0.155548 0.789165 0.328347
Si Si5 0.082404 0.117392 0.322342
Si Si6 0.000000 0.448360 0.322513
O O1 0.139428 0.655290 0.268865
O O2 0.135961 0.744423 0.230296
O O3 0.259369 0.696808 0.190210
O O4 0.147930 0.689963 0.000000
O O5 0.223604 0.940106 0.500000
O O6 0.283356 0.922968 0.245476
O O7 0.139020 0.921909 0.265295
O O8 0.209494 0.000000 0.276862
O O9 0.573199 0.077246 0.764159
O O10 0.653813 0.101719 0.000000
O O11 0.136829 0.777762 0.500000
O O12 0.107433 0.831924 0.266126
O O13 0.082592 0.117629 0.500000
O O14 0.000000 0.106523 0.260305
O O15 0.000000 0.500000 0.256037
O O16 0.000000 0.449502 0.500000
#
# Coordination Sequence:
#
# PCOD8289284 Si02
#       6
#    16  16  16  16  16   8
#     4  10  19  33  55  81 111 140 175 224 273 323
#     4  10  20  35  56  83 113 142 178 226 276 323
#     4  11  21  36  59  82 107 141 183 225 271 328
#     4   9  17  32  53  78 108 142 182 222 263 316
#     4   9  17  32  54  80 111 147 186 227 266 312
#     4   9  20  38  57  79 107 139 181 231 272 317
#
# _framework density 18.859808000000001
#
# number of rings (size 3 to 8) (size 9 to 14) (size 15 to 20)
#    0.000    2.273    1.818    1.636    0.000    2.182 
#    1.636    3.636    0.000    4.909    0.000    1.273 
#    0.000    0.000    0.000    0.000    0.000    0.000 
#
# Total GULP energy -545640.667641 kJ/mol
# GULP energy per Si atom -12400.924265 kJ/mol
# Density = 1.881688 g / cm^3
# Si number density = 18.859808 Si / 1000 Ang^3
#
#
#
# Elastic Constant Matrix: (Units=GPa)
#
#
# Indices 1 2 3 4 5 6 
#
# 1 107.3554 62.9295 16.5332 -0.0002 0.0010 0.0003
# 2 62.9295 150.5328 26.3614 -0.0003 0.0001 -0.0002
# 3 16.5332 26.3614 27.2067 -0.0059 0.0007 -0.0008
# 4 -0.0002 -0.0003 -0.0059 29.4249 -0.0003 -0.0004
# 5 0.0010 0.0001 0.0007 -0.0003 18.8035 0.0002
# 6 0.0003 -0.0002 -0.0008 -0.0004 0.0002 20.5923
#
#
#
# Elastic Compliance Matrix: (Units=1/GPa)
#
#
# Indices 1 2 3 4 5 6 
#
# 1 0.012547 -0.004709 -0.003062 -0.000001 -0.000001 0.000000
# 2 -0.004709 0.009768 -0.006603 -0.000001 0.000000 0.000000
# 3 -0.003062 -0.006603 0.045014 0.000009 -0.000002 0.000002
# 4 -0.000001 -0.000001 0.000009 0.033985 0.000001 0.000001
# 5 -0.000001 0.000000 -0.000002 0.000001 0.053182 0.000000
# 6 0.000000 0.000000 0.000002 0.000001 0.000000 0.048562
#
#
# Mechanical properties :
#
#
# Convention : Reuss Voigt Hill
#
# Bulk Modulus (GPa) = 25.91927 55.19369 40.55648
# Shear Modulus (GPa) = 20.43613 25.71552 23.07583
#
# Velocity S-wave (km/s) = 3.29535 3.69658 3.50172
# Velocity P-wave (km/s) = 5.31527 6.89553 6.15632
#
# Compressibility (1/GPa) = 0.03858134
#
# Stress axis : x y z
#
# Youngs Moduli (GPa) = 79.70268 102.37630 22.21525
#
# Poissons Ratio (x) = 0.48207 0.06802
# Poissons Ratio (y) = 0.37531 0.14669
# Poissons Ratio (z) = 0.24404 0.67598
#
# Static dielectric constant tensor:
#      x y z
#    x 3.538090 0.000000 0.000000 
#    y 0.000000 3.697930 0.000000 
#    z 0.000000 0.000000 3.217440 
# 
# 
# High freq. dielectric constant tensor:
#      x y z
#    x 1.726140 0.000000 0.000000 
#    y 0.000000 1.749430 0.000000 
#    z 0.000000 0.000000 1.704170 
# 
# From -- ./inp_files/8738.got.cif
#   From: 2010.06.25/outbox.cif.g09.slc.cpg/sg71_5_cif.got.tgz:8738.got - 2010.06.28 04:59:45.
