data_PCOD8289066
_publ_section_title
;
Structure prediction by ZEFSAII (Michael W. Deem and Ramdas Pophale) SiO2 
 PCOD8289066
Probable space group: I M M M
;
_chemical_formula_sum "Si O2"
_cell_formula_units_Z 104
_cell_length_a 27.552626
_cell_length_b 21.675359
_cell_length_c 9.136214
_cell_angle_alpha 90.000000
_cell_angle_beta 90.000000
_cell_angle_gamma 90.000000
_cell_volume 5456.266319
_symmetry_space_group_name_H-M "I M M M"
_symmetry_group_IT_number 71
_symmetry_cell_setting 'orthorhombic'
loop_
_space_group_symop_operation_xyz
x,y,z
-x,-y,z
x,-y,-z
-x,y,-z
-x,-y,-z
x,y,-z
-x,y,z
x,-y,z
1/2+x,1/2+y,1/2+z
1/2-x,1/2-y,1/2+z
1/2+x,1/2-y,1/2-z
1/2-x,1/2+y,1/2-z
1/2-x,1/2-y,1/2-z
1/2+x,1/2+y,1/2-z
1/2-x,1/2+y,1/2+z
1/2+x,1/2-y,1/2+z
loop_
_atom_site_type_symbol
_atom_site_label
_atom_site_fract_x
_atom_site_fract_y
_atom_site_fract_z
Si Si1 0.558210 0.500000 0.336437
Si Si2 0.137323 0.571276 0.670877
Si Si3 0.054720 0.113965 0.339959
Si Si4 0.275447 0.157579 0.835244
Si Si5 0.810938 0.203126 0.335208
Si Si6 0.944063 0.357173 0.172831
Si Si7 0.908608 0.222603 0.173094
O O1 0.500000 0.500000 0.342887
O O2 0.579561 0.500000 0.500000
O O3 0.580016 0.440222 0.253478
O O4 0.129040 0.583573 0.500000
O O5 0.148720 0.500000 0.704587
O O6 0.182754 0.612237 0.727444
O O7 0.087711 0.589676 0.752279
O O8 0.080022 0.121506 0.500000
O O9 0.053342 0.177498 0.249782
O O10 0.000000 0.093207 0.365790
O O11 0.229046 0.155528 0.728505
O O12 0.293609 0.227078 0.836655
O O13 0.260920 0.137096 0.000000
O O14 0.823763 0.181896 0.500000
O O15 0.856654 0.200053 0.229081
O O16 0.921844 0.291674 0.222223
O O17 0.000000 0.362460 0.224712
O O18 0.940467 0.365461 0.000000
O O19 0.911841 0.215599 0.000000
#
# Coordination Sequence:
#
# PCOD8289066 Si02
#       7
#     8  16  16  16  16  16  16
#     4   9  17  31  51  73  99 135 179 221 261 315
#     4  10  21  38  60  84 111 147 191 237 286 344
#     4  10  20  33  51  76 106 141 181 226 275 326
#     4   9  18  34  55  81 110 137 172 219 274 332
#     4  10  19  32  55  83 109 137 173 218 273 334
#     4  10  22  38  55  79 114 153 193 240 289 337
#     4  11  21  34  54  80 112 147 186 230 282 339
#
# _framework density 19.060654
#
# number of rings (size 3 to 8) (size 9 to 14) (size 15 to 20)
#    0.000    2.077    1.538    2.077    0.000    5.231 
#    0.000    1.538    1.692    0.000    0.000    0.000 
#    0.000    0.000    0.000    0.000    0.000    0.000 
#
# Total GULP energy -644684.025291 kJ/mol
# GULP energy per Si atom -12397.769717 kJ/mol
# Density = 1.901727 g / cm^3
# Si number density = 19.060654 Si / 1000 Ang^3
#
#
#
# Elastic Constant Matrix: (Units=GPa)
#
#
# Indices 1 2 3 4 5 6 
#
# 1 104.1815 38.4720 31.5889 0.0000 0.0000 0.0000
# 2 38.4720 84.7977 37.9298 0.0000 0.0000 0.0000
# 3 31.5889 37.9298 94.0174 0.0000 0.0000 0.0000
# 4 0.0000 0.0000 0.0000 29.6053 0.0000 0.0000
# 5 0.0000 0.0000 0.0000 0.0000 29.7355 0.0000
# 6 0.0000 0.0000 0.0000 0.0000 0.0000 26.1820
#
#
#
# Elastic Compliance Matrix: (Units=1/GPa)
#
#
# Indices 1 2 3 4 5 6 
#
# 1 0.011899 -0.004405 -0.002221 0.000000 0.000000 0.000000
# 2 -0.004405 0.016020 -0.004983 0.000000 0.000000 0.000000
# 3 -0.002221 -0.004983 0.013393 0.000000 0.000000 0.000000
# 4 0.000000 0.000000 0.000000 0.033778 0.000000 0.000000
# 5 0.000000 0.000000 0.000000 0.000000 0.033630 0.000000
# 6 0.000000 0.000000 0.000000 0.000000 0.000000 0.038194
#
#
# Mechanical properties :
#
#
# Convention : Reuss Voigt Hill
#
# Bulk Modulus (GPa) = 55.26654 55.44199 55.35427
# Shear Modulus (GPa) = 28.38293 28.77162 28.57727
#
# Velocity S-wave (km/s) = 3.86305 3.88941 3.87626
# Velocity P-wave (km/s) = 6.99683 7.02284 7.00985
#
# Compressibility (1/GPa) = 0.01809413
#
# Stress axis : x y z
#
# Youngs Moduli (GPa) = 84.04320 62.42128 74.66703
#
# Poissons Ratio (x) = 0.27497 0.16581
# Poissons Ratio (y) = 0.37021 0.37207
# Poissons Ratio (z) = 0.18664 0.31105
#
# Static dielectric constant tensor:
#      x y z
#    x 3.424310 0.000000 0.000000 
#    y 0.000000 3.423690 0.000000 
#    z 0.000000 0.000000 3.663790 
# 
# 
# High freq. dielectric constant tensor:
#      x y z
#    x 1.724570 0.000000 0.000000 
#    y 0.000000 1.729180 0.000000 
#    z 0.000000 0.000000 1.748310 
# 
# From -- ./inp_files/11084.got.cif
#   From: 2010.06.25/outbox.cif.g09.slc.cpg/sg71_6_cif.got.tgz:11084.got - 2010.06.28 04:59:45.
