data_PCOD8289812
_publ_section_title
;
Structure prediction by ZEFSAII (Michael W. Deem and Ramdas Pophale) SiO2 
 PCOD8289812
Probable space group: I M M M
;
_chemical_formula_sum "Si O2"
_cell_formula_units_Z 88
_cell_length_a 11.882136
_cell_length_b 34.207039
_cell_length_c 13.476591
_cell_angle_alpha 90.000000
_cell_angle_beta 90.000000
_cell_angle_gamma 90.000000
_cell_volume 5477.596658
_symmetry_space_group_name_H-M "I M M M"
_symmetry_group_IT_number 71
_symmetry_cell_setting 'orthorhombic'
loop_
_space_group_symop_operation_xyz
x,y,z
-x,-y,z
x,-y,-z
-x,y,-z
-x,-y,-z
x,y,-z
-x,y,z
x,-y,z
1/2+x,1/2+y,1/2+z
1/2-x,1/2-y,1/2+z
1/2+x,1/2-y,1/2-z
1/2-x,1/2+y,1/2-z
1/2-x,1/2-y,1/2-z
1/2+x,1/2+y,1/2-z
1/2-x,1/2+y,1/2+z
1/2+x,1/2-y,1/2+z
loop_
_atom_site_type_symbol
_atom_site_label
_atom_site_fract_x
_atom_site_fract_y
_atom_site_fract_z
Si Si1 0.500000 0.738023 0.881957
Si Si2 0.132771 0.000000 0.108209
Si Si3 0.130727 0.084727 0.882639
Si Si4 0.767141 0.654627 0.296541
Si Si5 0.000000 0.327121 0.618183
Si Si6 0.768312 0.200051 0.614919
Si Si7 0.375092 0.275520 0.615629
O O1 0.500000 0.782477 0.843552
O O2 0.611825 0.716004 0.844229
O O3 0.500000 0.738821 0.000000
O O4 0.165657 0.041330 0.159541
O O5 0.000000 0.000000 0.093439
O O6 0.189905 0.000000 0.000000
O O7 0.202502 0.115019 0.820095
O O8 0.000000 0.093481 0.862572
O O9 0.156085 0.088181 0.000000
O O10 0.766399 0.661678 0.177574
O O11 0.707891 0.691982 0.344101
O O12 0.892158 0.650493 0.338899
O O13 0.000000 0.329844 0.500000
O O14 0.774912 0.187960 0.500000
O O15 0.675245 0.232900 0.634997
O O16 0.386070 0.283781 0.500000
O O17 0.500000 0.277386 0.665123
#
# Coordination Sequence:
#
# PCOD8289812 Si02
#       7
#     8   8  16  16   8  16  16
#     4   9  18  34  48  59  86 126 163 195 230 277
#     4   7  12  26  48  71  96 122 141 169 223 287
#     4   9  17  30  49  74  99 119 145 183 229 283
#     4  12  22  30  49  67  92 123 158 195 238 274
#     4  11  22  34  47  66  93 124 158 192 236 287
#     4  10  22  35  46  63  89 126 167 201 233 270
#     4  10  20  32  47  67  90 117 156 205 245 276
#
# _framework density 16.065439999999999
#
# number of rings (size 3 to 8) (size 9 to 14) (size 15 to 20)
#    0.000    2.091    1.818    3.818    3.818    1.455 
#    0.000    0.000    0.000    0.545    0.000    3.182 
#    0.000    2.182    0.000    1.636    0.000    0.182 
#
# Total GULP energy -545446.794502 kJ/mol
# GULP energy per Si atom -12396.518057 kJ/mol
# Density = 1.602887 g / cm^3
# Si number density = 16.065440 Si / 1000 Ang^3
#
#
#
# Elastic Constant Matrix: (Units=GPa)
#
#
# Indices 1 2 3 4 5 6 
#
# 1 94.9900 31.2401 39.5648 -0.0012 -0.0002 0.0004
# 2 31.2401 102.0542 53.3862 -0.0011 0.0001 0.0006
# 3 39.5648 53.3862 48.7543 -0.0045 0.0012 0.0001
# 4 -0.0012 -0.0011 -0.0045 16.4552 0.0007 0.0004
# 5 -0.0002 0.0001 0.0012 0.0007 21.7545 0.0001
# 6 0.0004 0.0006 0.0001 0.0004 0.0001 32.5434
#
#
#
# Elastic Compliance Matrix: (Units=1/GPa)
#
#
# Indices 1 2 3 4 5 6 
#
# 1 0.016797 0.004656 -0.018729 -0.000004 0.000001 0.000000
# 2 0.004656 0.024228 -0.030308 -0.000006 0.000002 0.000000
# 3 -0.018729 -0.030308 0.068898 0.000016 -0.000004 0.000001
# 4 -0.000004 -0.000006 0.000016 0.060771 -0.000002 -0.000001
# 5 0.000001 0.000002 -0.000004 -0.000002 0.045968 0.000000
# 6 0.000000 0.000000 0.000001 -0.000001 0.000000 0.030728
#
#
# Mechanical properties :
#
#
# Convention : Reuss Voigt Hill
#
# Bulk Modulus (GPa) = 47.25965 54.90898 51.08432
# Shear Modulus (GPa) = 14.56848 22.25777 18.41313
#
# Velocity S-wave (km/s) = 3.01461 3.72619 3.38913
# Velocity P-wave (km/s) = 6.44965 7.26397 6.86889
#
# Compressibility (1/GPa) = 0.02115970
#
# Stress axis : x y z
#
# Youngs Moduli (GPa) = 59.53340 41.27418 14.51429
#
# Poissons Ratio (x) = -0.19216 0.27184
# Poissons Ratio (y) = -0.27717 0.43990
# Poissons Ratio (z) = 1.11502 1.25094
#
# Static dielectric constant tensor:
#      x y z
#    x 3.147020 0.000000 0.000000 
#    y 0.000000 3.026790 0.000000 
#    z 0.000000 0.000000 3.081560 
# 
# 
# High freq. dielectric constant tensor:
#      x y z
#    x 1.619950 0.000000 0.000000 
#    y 0.000000 1.584130 0.000000 
#    z 0.000000 0.000000 1.607000 
# 
# From -- ./inp_files/29933.got.cif
#   From: 2010.06.25/outbox.cif.g09.slc.cpg/sg71_15_cif.got.tgz:29933.got - 2010.06.28 04:59:45.
