data_PCOD8289107
_publ_section_title
;
Structure prediction by ZEFSAII (Michael W. Deem and Ramdas Pophale) SiO2 
 PCOD8289107
Probable space group: I M M M
;
_chemical_formula_sum "Si O2"
_cell_formula_units_Z 80
_cell_length_a 30.844378
_cell_length_b 8.919670
_cell_length_c 18.406118
_cell_angle_alpha 90.000000
_cell_angle_beta 90.000000
_cell_angle_gamma 90.000000
_cell_volume 5063.921980
_symmetry_space_group_name_H-M "I M M M"
_symmetry_group_IT_number 71
_symmetry_cell_setting 'orthorhombic'
loop_
_space_group_symop_operation_xyz
x,y,z
-x,-y,z
x,-y,-z
-x,y,-z
-x,-y,-z
x,y,-z
-x,y,z
x,-y,z
1/2+x,1/2+y,1/2+z
1/2-x,1/2-y,1/2+z
1/2+x,1/2-y,1/2-z
1/2-x,1/2+y,1/2-z
1/2-x,1/2-y,1/2-z
1/2+x,1/2+y,1/2-z
1/2-x,1/2+y,1/2+z
1/2+x,1/2-y,1/2+z
loop_
_atom_site_type_symbol
_atom_site_label
_atom_site_fract_x
_atom_site_fract_y
_atom_site_fract_z
Si Si1 0.715671 0.675473 0.415429
Si Si2 0.212174 0.828985 0.675737
Si Si3 0.049772 0.673257 0.582392
Si Si4 0.666875 0.823177 0.298321
Si Si5 0.116304 0.167650 0.314010
O O1 0.712329 0.710520 0.500000
O O2 0.716673 0.500000 0.398762
O O3 0.759300 0.750693 0.385366
O O4 0.673419 0.750079 0.377644
O O5 0.209513 0.732968 0.751743
O O6 0.162690 0.831408 0.644313
O O7 0.228104 0.000000 0.690727
O O8 0.057669 0.727969 0.500000
O O9 0.062230 0.500000 0.589514
O O10 0.079231 0.766314 0.636147
O O11 0.000000 0.699711 0.604369
O O12 0.622564 0.763339 0.260779
O O13 0.665358 0.000000 0.304138
O O14 0.102625 0.000000 0.292089
#
# Coordination Sequence:
#
# PCOD8289107 Si02
#       5
#    16  16  16  16  16
#     4  11  22  33  46  66  92 121 154 192 234 276
#     4   9  19  33  48  66  90 120 155 194 231 272
#     4   9  18  32  49  70  97 126 154 187 228 272
#     4  10  19  33  51  66  87 119 155 193 232 274
#     4   9  19  32  48  68  90 120 156 193 229 271
#
# _framework density 15.798031999999999
#
# number of rings (size 3 to 8) (size 9 to 14) (size 15 to 20)
#    1.200    1.200    0.000    4.200    0.000    3.200 
#    0.000    5.000    0.000    0.000    0.000    0.000 
#    0.000    0.800    0.000    8.400    0.000    3.600 
#
# Total GULP energy -495688.072611 kJ/mol
# GULP energy per Si atom -12392.201815 kJ/mol
# Density = 1.576207 g / cm^3
# Si number density = 15.798032 Si / 1000 Ang^3
#
#
#
# Elastic Constant Matrix: (Units=GPa)
#
#
# Indices 1 2 3 4 5 6 
#
# 1 37.3809 36.6744 36.4733 0.0000 0.0000 0.0000
# 2 36.6744 138.3838 70.9950 0.0000 0.0000 0.0000
# 3 36.4733 70.9950 94.5543 0.0000 0.0000 0.0000
# 4 0.0000 0.0000 0.0000 27.9743 0.0000 0.0000
# 5 0.0000 0.0000 0.0000 0.0000 27.4892 0.0000
# 6 0.0000 0.0000 0.0000 0.0000 0.0000 26.2069
#
#
#
# Elastic Compliance Matrix: (Units=1/GPa)
#
#
# Indices 1 2 3 4 5 6 
#
# 1 0.044848 -0.004896 -0.013623 0.000000 0.000000 0.000000
# 2 -0.004896 0.012289 -0.007338 0.000000 0.000000 0.000000
# 3 -0.013623 -0.007338 0.021341 0.000000 0.000000 0.000000
# 4 0.000000 0.000000 0.000000 0.035747 0.000000 0.000000
# 5 0.000000 0.000000 0.000000 0.000000 0.036378 0.000000
# 6 0.000000 0.000000 0.000000 0.000000 0.000000 0.038158
#
#
# Mechanical properties :
#
#
# Convention : Reuss Voigt Hill
#
# Bulk Modulus (GPa) = 37.36659 62.06716 49.71687
# Shear Modulus (GPa) = 20.04846 24.74585 22.39716
#
# Velocity S-wave (km/s) = 3.56623 3.96206 3.76934
# Velocity P-wave (km/s) = 6.37663 7.76555 7.10511
#
# Compressibility (1/GPa) = 0.02676188
#
# Stress axis : x y z
#
# Youngs Moduli (GPa) = 22.29752 81.37686 46.85919
#
# Poissons Ratio (x) = 0.39846 0.63837
# Poissons Ratio (y) = 0.10918 0.34385
# Poissons Ratio (z) = 0.30376 0.59714
#
# Static dielectric constant tensor:
#      x y z
#    x 2.775820 0.000000 0.000000 
#    y 0.000000 3.083300 0.000000 
#    z 0.000000 0.000000 2.864250 
# 
# 
# High freq. dielectric constant tensor:
#      x y z
#    x 1.577430 0.000000 0.000000 
#    y 0.000000 1.625900 0.000000 
#    z 0.000000 0.000000 1.586240 
# 
# From -- ./inp_files/56519.got.cif
#   From: 2010.06.25/outbox.cif.g09.slc.cpg/sg71_29_cif.got.tgz:56519.got - 2010.06.28 04:59:45.
