data_PCOD8289566
_publ_section_title
;
Structure prediction by ZEFSAII (Michael W. Deem and Ramdas Pophale) SiO2 
 PCOD8289566
Probable space group: I M M M
;
_chemical_formula_sum "Si O2"
_cell_formula_units_Z 120
_cell_length_a 11.517409
_cell_length_b 24.498524
_cell_length_c 22.822107
_cell_angle_alpha 90.000000
_cell_angle_beta 90.000000
_cell_angle_gamma 90.000000
_cell_volume 6439.474775
_symmetry_space_group_name_H-M "I M M M"
_symmetry_group_IT_number 71
_symmetry_cell_setting 'orthorhombic'
loop_
_space_group_symop_operation_xyz
x,y,z
-x,-y,z
x,-y,-z
-x,y,-z
-x,-y,-z
x,y,-z
-x,y,z
x,-y,z
1/2+x,1/2+y,1/2+z
1/2-x,1/2-y,1/2+z
1/2+x,1/2-y,1/2-z
1/2-x,1/2+y,1/2-z
1/2-x,1/2-y,1/2-z
1/2+x,1/2+y,1/2-z
1/2-x,1/2+y,1/2+z
1/2+x,1/2-y,1/2+z
loop_
_atom_site_type_symbol
_atom_site_label
_atom_site_fract_x
_atom_site_fract_y
_atom_site_fract_z
Si Si1 0.863260 0.560103 0.564200
Si Si2 0.630086 0.836845 0.372752
Si Si3 0.133723 0.061053 0.236050
Si Si4 0.245979 0.357101 0.348984
Si Si5 0.500000 0.435574 0.934941
Si Si6 0.277669 0.437545 0.135671
Si Si7 0.865551 0.711681 0.253073
Si Si8 0.361895 0.270390 0.566673
O O1 0.814991 0.577233 0.500000
O O2 0.814710 0.500000 0.580450
O O3 0.827096 0.602418 0.612330
O O4 0.000000 0.558009 0.561881
O O5 0.500000 0.840428 0.394929
O O6 0.680327 0.896236 0.386743
O O7 0.639896 0.825622 0.303890
O O8 0.688929 0.787359 0.409549
O O9 0.165584 0.107950 0.190232
O O10 0.207193 0.068499 0.294932
O O11 0.000000 0.067784 0.253216
O O12 0.156532 0.000000 0.210315
O O13 0.151619 0.325110 0.310294
O O14 0.318316 0.317508 0.390561
O O15 0.500000 0.500000 0.939936
O O16 0.610168 0.416235 0.898484
O O17 0.500000 0.409285 0.000000
O O18 0.244918 0.500000 0.119263
O O19 0.750000 0.750000 0.250000
O O20 0.000000 0.737753 0.256212
O O21 0.318710 0.279767 0.500000
O O22 0.500000 0.270942 0.570344
#
# Coordination Sequence:
#
# PCOD8289566 Si02
#       8
#    16  16  16  16   8  16  16  16
#     4   9  19  36  56  79 111 151 190 228 277 340
#     4  10  21  39  57  81 114 151 189 234 291 353
#     4  10  20  33  51  81 120 157 189 230 286 347
#     4  12  20  34  58  86 111 147 193 244 290 342
#     4   9  18  34  58  84 112 148 191 237 280 336
#     4  10  19  35  57  84 116 151 189 233 286 350
#     4  11  23  39  58  85 118 153 196 243 295 358
#     4  10  22  39  58  80 109 149 196 243 293 351
#
# _framework density 18.635061
#
# number of rings (size 3 to 8) (size 9 to 14) (size 15 to 20)
#    0.000    1.800    3.333    2.000    0.000    1.333 
#    1.200    0.000    0.000    0.000    0.000    9.333 
#    0.000    0.000    0.000    0.000    0.000    0.000 
#
# Total GULP energy -743487.397134 kJ/mol
# GULP energy per Si atom -12391.456619 kJ/mol
# Density = 1.859265 g / cm^3
# Si number density = 18.635061 Si / 1000 Ang^3
#
#
#
# Elastic Constant Matrix: (Units=GPa)
#
#
# Indices 1 2 3 4 5 6 
#
# 1 70.3147 43.8873 23.5592 0.0000 0.0000 0.0000
# 2 43.8873 113.8423 54.0047 0.0000 0.0000 0.0000
# 3 23.5592 54.0047 108.1346 0.0000 0.0000 0.0000
# 4 0.0000 0.0000 0.0000 12.0428 0.0000 0.0000
# 5 0.0000 0.0000 0.0000 0.0000 23.5241 0.0000
# 6 0.0000 0.0000 0.0000 0.0000 0.0000 26.8907
#
#
#
# Elastic Compliance Matrix: (Units=1/GPa)
#
#
# Indices 1 2 3 4 5 6 
#
# 1 0.018760 -0.006937 -0.000623 0.000000 0.000000 0.000000
# 2 -0.006937 0.014076 -0.005519 0.000000 0.000000 0.000000
# 3 -0.000623 -0.005519 0.012140 0.000000 0.000000 0.000000
# 4 0.000000 0.000000 0.000000 0.083037 0.000000 0.000000
# 5 0.000000 0.000000 0.000000 0.000000 0.042510 0.000000
# 6 0.000000 0.000000 0.000000 0.000000 0.000000 0.037188
#
#
# Mechanical properties :
#
#
# Convention : Reuss Voigt Hill
#
# Bulk Modulus (GPa) = 53.13689 59.46599 56.30144
# Shear Modulus (GPa) = 20.82118 23.88086 22.35102
#
# Velocity S-wave (km/s) = 3.34625 3.58369 3.46700
# Velocity P-wave (km/s) = 6.59592 7.00742 6.80478
#
# Compressibility (1/GPa) = 0.01881932
#
# Stress axis : x y z
#
# Youngs Moduli (GPa) = 53.30472 71.04195 82.37517
#
# Poissons Ratio (x) = 0.49280 0.05131
# Poissons Ratio (y) = 0.36976 0.45460
# Poissons Ratio (z) = 0.03320 0.39206
#
# Static dielectric constant tensor:
#      x y z
#    x 3.398920 0.000000 0.000000 
#    y 0.000000 3.555760 0.000000 
#    z 0.000000 0.000000 3.836020 
# 
# 
# High freq. dielectric constant tensor:
#      x y z
#    x 1.708800 0.000000 0.000000 
#    y 0.000000 1.723050 0.000000 
#    z 0.000000 0.000000 1.731070 
# 
# From -- ./inp_files/55834.got.cif
#   From: 2010.06.25/outbox.cif.g09.slc.cpg/sg71_28_cif.got.tgz:55834.got - 2010.06.28 04:59:45.
