data_PCOD8289449
_publ_section_title
;
Structure prediction by ZEFSAII (Michael W. Deem and Ramdas Pophale) SiO2 
 PCOD8289449
Probable space group: I M M M
;
_chemical_formula_sum "Si O2"
_cell_formula_units_Z 96
_cell_length_a 23.896349
_cell_length_b 9.520574
_cell_length_c 23.058836
_cell_angle_alpha 90.000000
_cell_angle_beta 90.000000
_cell_angle_gamma 90.000000
_cell_volume 5246.045656
_symmetry_space_group_name_H-M "I M M M"
_symmetry_group_IT_number 71
_symmetry_cell_setting 'orthorhombic'
loop_
_space_group_symop_operation_xyz
x,y,z
-x,-y,z
x,-y,-z
-x,y,-z
-x,-y,-z
x,y,-z
-x,y,z
x,-y,z
1/2+x,1/2+y,1/2+z
1/2-x,1/2-y,1/2+z
1/2+x,1/2-y,1/2-z
1/2-x,1/2+y,1/2-z
1/2-x,1/2-y,1/2-z
1/2+x,1/2+y,1/2-z
1/2-x,1/2+y,1/2+z
1/2+x,1/2-y,1/2+z
loop_
_atom_site_type_symbol
_atom_site_label
_atom_site_fract_x
_atom_site_fract_y
_atom_site_fract_z
Si Si1 0.387938 0.833186 0.000000
Si Si2 0.676842 0.160319 0.814876
Si Si3 0.759460 0.334317 0.500000
Si Si4 0.500000 0.835703 0.709776
Si Si5 0.710887 0.338720 0.377172
Si Si6 0.624850 0.834964 0.689621
Si Si7 0.895737 0.842531 0.394322
Si Si8 0.500000 0.647785 0.186969
O O1 0.323380 0.784848 0.000000
O O2 0.416500 0.759518 0.945288
O O3 0.397809 0.000000 0.000000
O O4 0.743706 0.173044 0.824645
O O5 0.653493 0.202955 0.751567
O O6 0.655468 0.268919 0.862248
O O7 0.657935 0.000000 0.829231
O O8 0.759022 0.500000 0.500000
O O9 0.731055 0.280515 0.440204
O O10 0.559475 0.785303 0.682742
O O11 0.500000 0.785806 0.775337
O O12 0.500000 0.000000 0.712139
O O13 0.692115 0.500000 0.383532
O O14 0.657243 0.247010 0.360390
O O15 0.630299 0.000000 0.678315
O O16 0.945974 0.852019 0.351171
O O17 0.878475 0.000000 0.415321
O O18 0.500000 0.500000 0.223345
#
# Coordination Sequence:
#
# PCOD8289449 Si02
#       8
#     8  16   8   8  16  16  16   8
#     4  11  21  38  58  75 105 147 190 232 274 324
#     4  10  19  34  56  81 110 146 182 219 271 329
#     4   9  18  35  58  79 104 140 181 222 266 323
#     4  10  20  36  59  80 107 144 184 225 266 325
#     4  10  20  35  56  82 111 144 179 221 273 326
#     4  10  21  35  54  84 114 142 180 225 270 324
#     4  11  22  35  53  79 109 143 187 235 277 319
#     4  10  22  37  53  76 110 147 184 231 279 319
#
# _framework density 18.299496999999999
#
# number of rings (size 3 to 8) (size 9 to 14) (size 15 to 20)
#    0.000    1.833    3.333    1.250    0.000    3.000 
#    0.000    2.083    0.000    0.500    0.000    3.500 
#    0.000    0.000    0.000    0.000    0.000    0.000 
#
# Total GULP energy -594735.052619 kJ/mol
# GULP energy per Si atom -12390.313596 kJ/mol
# Density = 1.825785 g / cm^3
# Si number density = 18.299497 Si / 1000 Ang^3
#
#
#
# Elastic Constant Matrix: (Units=GPa)
#
#
# Indices 1 2 3 4 5 6 
#
# 1 86.8947 18.0853 15.2911 0.0000 0.0000 0.0000
# 2 18.0853 44.6400 6.8634 0.0000 0.0000 0.0000
# 3 15.2911 6.8634 41.7587 0.0000 0.0000 0.0000
# 4 0.0000 0.0000 0.0000 32.0569 0.0000 0.0000
# 5 0.0000 0.0000 0.0000 0.0000 9.9698 0.0000
# 6 0.0000 0.0000 0.0000 0.0000 0.0000 27.1157
#
#
#
# Elastic Compliance Matrix: (Units=1/GPa)
#
#
# Indices 1 2 3 4 5 6 
#
# 1 0.013206 -0.004726 -0.004059 0.000000 0.000000 0.000000
# 2 -0.004726 0.024674 -0.002325 0.000000 0.000000 0.000000
# 3 -0.004059 -0.002325 0.025816 0.000000 0.000000 0.000000
# 4 0.000000 0.000000 0.000000 0.031195 0.000000 0.000000
# 5 0.000000 0.000000 0.000000 0.000000 0.100303 0.000000
# 6 0.000000 0.000000 0.000000 0.000000 0.000000 0.036879
#
#
# Mechanical properties :
#
#
# Convention : Reuss Voigt Hill
#
# Bulk Modulus (GPa) = 24.11064 28.19699 26.15382
# Shear Modulus (GPa) = 18.64857 22.69870 20.67364
#
# Velocity S-wave (km/s) = 3.19576 3.52575 3.36480
# Velocity P-wave (km/s) = 5.17893 5.65832 5.42393
#
# Compressibility (1/GPa) = 0.04147546
#
# Stress axis : x y z
#
# Youngs Moduli (GPa) = 75.72253 40.52913 38.73637
#
# Poissons Ratio (x) = 0.19155 0.15723
# Poissons Ratio (y) = 0.35788 0.09005
# Poissons Ratio (z) = 0.30736 0.09422
#
# Static dielectric constant tensor:
#      x y z
#    x 3.469180 0.000000 0.000000 
#    y 0.000000 3.642360 0.000000 
#    z 0.000000 0.000000 3.330850 
# 
# 
# High freq. dielectric constant tensor:
#      x y z
#    x 1.703500 0.000000 0.000000 
#    y 0.000000 1.710680 0.000000 
#    z 0.000000 0.000000 1.687990 
# 
# From -- ./inp_files/57831.got.cif
#   From: 2010.06.25/outbox.cif.g09.slc.cpg/sg71_29_cif.got.tgz:57831.got - 2010.06.28 04:59:45.
