data_PCOD8289759
_publ_section_title
;
Structure prediction by ZEFSAII (Michael W. Deem and Ramdas Pophale) SiO2 
 PCOD8289759
Probable space group: I M M M
;
_chemical_formula_sum "Si O2"
_cell_formula_units_Z 88
_cell_length_a 13.689816
_cell_length_b 29.463282
_cell_length_c 12.361482
_cell_angle_alpha 90.000000
_cell_angle_beta 90.000000
_cell_angle_gamma 90.000000
_cell_volume 4985.965560
_symmetry_space_group_name_H-M "I M M M"
_symmetry_group_IT_number 71
_symmetry_cell_setting 'orthorhombic'
loop_
_space_group_symop_operation_xyz
x,y,z
-x,-y,z
x,-y,-z
-x,y,-z
-x,-y,-z
x,y,-z
-x,y,z
x,-y,z
1/2+x,1/2+y,1/2+z
1/2-x,1/2-y,1/2+z
1/2+x,1/2-y,1/2-z
1/2-x,1/2+y,1/2-z
1/2-x,1/2-y,1/2-z
1/2+x,1/2+y,1/2-z
1/2-x,1/2+y,1/2+z
1/2+x,1/2-y,1/2+z
loop_
_atom_site_type_symbol
_atom_site_label
_atom_site_fract_x
_atom_site_fract_y
_atom_site_fract_z
Si Si1 0.000000 0.946365 0.622234
Si Si2 0.110494 0.192477 0.127805
Si Si3 0.682955 0.447279 0.264922
Si Si4 0.613949 0.205485 0.377407
Si Si5 0.385796 0.879726 0.000000
Si Si6 0.212022 0.639762 0.286685
Si Si7 0.284055 0.449821 0.500000
O O1 0.095903 0.930670 0.687314
O O2 0.000000 0.925913 0.500000
O O3 0.000000 0.000000 0.616156
O O4 0.137503 0.243743 0.164276
O O5 0.179534 0.156948 0.186637
O O6 0.000000 0.181195 0.162570
O O7 0.123079 0.187651 0.000000
O O8 0.712465 0.500000 0.240932
O O9 0.775569 0.413148 0.249034
O O10 0.651303 0.441216 0.391900
O O11 0.649641 0.200610 0.500000
O O12 0.500000 0.195570 0.367738
O O13 0.670900 0.167951 0.311546
O O14 0.359278 0.852488 0.890040
O O15 0.500000 0.892296 0.000000
O O16 0.317195 0.923224 0.000000
O O17 0.242998 0.500000 0.500000
#
# Coordination Sequence:
#
# PCOD8289759 Si02
#       7
#     8  16  16  16   8  16   8
#     4   9  18  33  49  67  97 136 173 209 257 309
#     4   9  18  33  52  76 105 133 169 208 251 312
#     4   9  19  32  48  72 101 134 171 214 260 304
#     4   9  19  35  54  75  99 133 172 211 255 306
#     4  10  20  31  46  76 104 128 166 208 255 303
#     4  11  19  32  54  76 101 135 170 214 251 308
#     4   8  16  32  48  68  98 130 168 209 254 304
#
# _framework density 17.649540999999999
#
# number of rings (size 3 to 8) (size 9 to 14) (size 15 to 20)
#    0.000    2.636    0.909    2.182    1.273    1.273 
#    0.000    1.818    0.000    1.636    0.000    1.273 
#    0.000    0.000    0.000    0.000    0.000    0.000 
#
# Total GULP energy -545236.422114 kJ/mol
# GULP energy per Si atom -12391.736866 kJ/mol
# Density = 1.760937 g / cm^3
# Si number density = 17.649541 Si / 1000 Ang^3
#
#
#
# Elastic Constant Matrix: (Units=GPa)
#
#
# Indices 1 2 3 4 5 6 
#
# 1 74.8870 32.6753 50.6911 -0.0002 -0.0002 0.0000
# 2 32.6753 77.6605 29.6589 -0.0008 -0.0003 0.0000
# 3 50.6911 29.6589 80.2720 -0.0048 -0.0003 0.0000
# 4 -0.0002 -0.0008 -0.0048 23.6920 -0.0004 0.0001
# 5 -0.0002 -0.0003 -0.0003 -0.0004 25.5621 -0.0001
# 6 0.0000 0.0000 0.0000 0.0001 -0.0001 19.8940
#
#
#
# Elastic Compliance Matrix: (Units=1/GPa)
#
#
# Indices 1 2 3 4 5 6 
#
# 1 0.025025 -0.005232 -0.013870 -0.000003 0.000000 0.000000
# 2 -0.005232 0.016086 -0.002639 0.000000 0.000000 0.000000
# 3 -0.013870 -0.002639 0.022192 0.000004 0.000000 0.000000
# 4 -0.000003 0.000000 0.000004 0.042208 0.000001 0.000000
# 5 0.000000 0.000000 0.000000 0.000001 0.039120 0.000000
# 6 0.000000 0.000000 0.000000 0.000000 0.000000 0.050266
#
#
# Mechanical properties :
#
#
# Convention : Reuss Voigt Hill
#
# Bulk Modulus (GPa) = 50.45499 50.98555 50.72027
# Shear Modulus (GPa) = 20.40926 21.81590 21.11258
#
# Velocity S-wave (km/s) = 3.40422 3.51958 3.46238
# Velocity P-wave (km/s) = 6.64085 6.74293 6.69208
#
# Compressibility (1/GPa) = 0.01981965
#
# Stress axis : x y z
#
# Youngs Moduli (GPa) = 39.96016 62.16603 45.06221
#
# Poissons Ratio (x) = 0.32526 0.62501
# Poissons Ratio (y) = 0.20908 0.11894
# Poissons Ratio (z) = 0.55424 0.16408
#
# Static dielectric constant tensor:
#      x y z
#    x 3.101240 0.000000 0.000000 
#    y 0.000000 3.355380 0.000000 
#    z 0.000000 0.000000 3.422090 
# 
# 
# High freq. dielectric constant tensor:
#      x y z
#    x 1.660030 0.000000 0.000000 
#    y 0.000000 1.684490 0.000000 
#    z 0.000000 0.000000 1.676680 
# 
# From -- ./inp_files/20312.got.cif
#   From: 2010.06.25/outbox.cif.g09.slc.cpg/sg71_11_cif.got.tgz:20312.got - 2010.06.28 04:59:45.
