data_PCOD8289986
_publ_section_title
;
Structure prediction by ZEFSAII (Michael W. Deem and Ramdas Pophale) SiO2 
 PCOD8289986
Probable space group: I M M M
;
_chemical_formula_sum "Si O2"
_cell_formula_units_Z 72
_cell_length_a 35.934789
_cell_length_b 14.370718
_cell_length_c 7.992844
_cell_angle_alpha 90.000000
_cell_angle_beta 90.000000
_cell_angle_gamma 90.000000
_cell_volume 4127.574332
_symmetry_space_group_name_H-M "I M M M"
_symmetry_group_IT_number 71
_symmetry_cell_setting 'orthorhombic'
loop_
_space_group_symop_operation_xyz
x,y,z
-x,-y,z
x,-y,-z
-x,y,-z
-x,-y,-z
x,y,-z
-x,y,z
x,-y,z
1/2+x,1/2+y,1/2+z
1/2-x,1/2-y,1/2+z
1/2+x,1/2-y,1/2-z
1/2-x,1/2+y,1/2-z
1/2-x,1/2-y,1/2-z
1/2+x,1/2+y,1/2-z
1/2-x,1/2+y,1/2+z
1/2+x,1/2-y,1/2+z
loop_
_atom_site_type_symbol
_atom_site_label
_atom_site_fract_x
_atom_site_fract_y
_atom_site_fract_z
Si Si1 0.725039 0.605998 0.692634
Si Si2 0.590356 0.607732 0.312363
Si Si3 0.693932 0.104934 0.303670
Si Si4 0.541525 0.389690 0.000000
Si Si5 0.342240 0.718354 0.811324
O O1 0.714212 0.618000 0.500000
O O2 0.720143 0.500000 0.753534
O O3 0.767560 0.636844 0.719077
O O4 0.697903 0.670027 0.799911
O O5 0.573332 0.620067 0.500000
O O6 0.600425 0.500000 0.278989
O O7 0.561857 0.644245 0.170313
O O8 0.628204 0.666498 0.305536
O O9 0.699386 0.112664 0.500000
O O10 0.661394 0.173823 0.242945
O O11 0.683027 0.000000 0.249316
O O12 0.539347 0.500000 0.000000
O O13 0.500000 0.346909 0.000000
O O14 0.356941 0.712728 0.000000
#
# Coordination Sequence:
#
# PCOD8289986 Si02
#       5
#    16  16  16   8  16
#     4  10  20  33  48  67  92 125 167 212 258 306
#     4  10  20  34  52  77 108 138 171 208 245 292
#     4  10  21  36  50  65  89 124 169 218 263 307
#     4   9  18  34  54  78 109 141 171 201 242 300
#     4  12  22  32  49  70  97 131 167 211 259 304
#
# _framework density 17.443659
#
# number of rings (size 3 to 8) (size 9 to 14) (size 15 to 20)
#    0.000    1.667    1.111    4.667    0.000    5.778 
#    0.000    2.222    0.000    0.000    0.000    0.000 
#    0.000    1.778    0.000    4.667    0.000    0.222 
#
# Total GULP energy -446470.830383 kJ/mol
# GULP energy per Si atom -12401.967511 kJ/mol
# Density = 1.740396 g / cm^3
# Si number density = 17.443659 Si / 1000 Ang^3
#
#
#
# Elastic Constant Matrix: (Units=GPa)
#
#
# Indices 1 2 3 4 5 6 
#
# 1 78.5396 45.4941 33.8099 0.0000 0.0000 0.0000
# 2 45.4941 68.1283 29.2510 0.0000 0.0000 0.0000
# 3 33.8099 29.2510 103.3773 0.0000 0.0000 0.0000
# 4 0.0000 0.0000 0.0000 21.5827 0.0000 0.0000
# 5 0.0000 0.0000 0.0000 0.0000 22.0054 0.0000
# 6 0.0000 0.0000 0.0000 0.0000 0.0000 13.4431
#
#
#
# Elastic Compliance Matrix: (Units=1/GPa)
#
#
# Indices 1 2 3 4 5 6 
#
# 1 0.021779 -0.013073 -0.003424 0.000000 0.000000 0.000000
# 2 -0.013073 0.024556 -0.002672 0.000000 0.000000 0.000000
# 3 -0.003424 -0.002672 0.011549 0.000000 0.000000 0.000000
# 4 0.000000 0.000000 0.000000 0.046333 0.000000 0.000000
# 5 0.000000 0.000000 0.000000 0.000000 0.045443 0.000000
# 6 0.000000 0.000000 0.000000 0.000000 0.000000 0.074388
#
#
# Mechanical properties :
#
#
# Convention : Reuss Voigt Hill
#
# Bulk Modulus (GPa) = 51.16457 51.90613 51.53535
# Shear Modulus (GPa) = 18.59409 20.83892 19.71651
#
# Velocity S-wave (km/s) = 3.26843 3.46011 3.36564
# Velocity P-wave (km/s) = 6.60595 6.76640 6.68666
#
# Compressibility (1/GPa) = 0.01954477
#
# Stress axis : x y z
#
# Youngs Moduli (GPa) = 45.91554 40.72375 86.58603
#
# Poissons Ratio (x) = 0.53240 0.29645
# Poissons Ratio (y) = 0.60028 0.23139
# Poissons Ratio (z) = 0.15720 0.10883
#
# Static dielectric constant tensor:
#      x y z
#    x 2.996870 0.000000 0.000000 
#    y 0.000000 3.316780 0.000000 
#    z 0.000000 0.000000 3.382500 
# 
# 
# High freq. dielectric constant tensor:
#      x y z
#    x 1.632130 0.000000 0.000000 
#    y 0.000000 1.656760 0.000000 
#    z 0.000000 0.000000 1.693920 
# 
# From -- ./inp_files/16366.got.cif
#   From: 2010.06.25/outbox.cif.g09.slc.cpg/sg71_9_cif.got.tgz:16366.got - 2010.06.28 04:59:45.
