data_PCOD8289304
_publ_section_title
;
Structure prediction by ZEFSAII (Michael W. Deem and Ramdas Pophale) SiO2 
 PCOD8289304
Probable space group: I M M M
;
_chemical_formula_sum "Si O2"
_cell_formula_units_Z 56
_cell_length_a 8.433202
_cell_length_b 33.107725
_cell_length_c 10.242836
_cell_angle_alpha 90.000000
_cell_angle_beta 90.000000
_cell_angle_gamma 90.000000
_cell_volume 2859.842142
_symmetry_space_group_name_H-M "I M M M"
_symmetry_group_IT_number 71
_symmetry_cell_setting 'orthorhombic'
loop_
_space_group_symop_operation_xyz
x,y,z
-x,-y,z
x,-y,-z
-x,y,-z
-x,-y,-z
x,y,-z
-x,y,z
x,-y,z
1/2+x,1/2+y,1/2+z
1/2-x,1/2-y,1/2+z
1/2+x,1/2-y,1/2-z
1/2-x,1/2+y,1/2-z
1/2-x,1/2-y,1/2-z
1/2+x,1/2+y,1/2-z
1/2-x,1/2+y,1/2+z
1/2+x,1/2-y,1/2+z
loop_
_atom_site_type_symbol
_atom_site_label
_atom_site_fract_x
_atom_site_fract_y
_atom_site_fract_z
Si Si1 0.316581 0.835173 0.764498
Si Si2 0.678912 0.000000 0.155173
Si Si3 0.318087 0.286354 0.500000
Si Si4 0.683886 0.416213 0.347495
Si Si5 0.815261 0.800250 0.500000
O O1 0.500000 0.826261 0.792315
O O2 0.211269 0.813026 0.872488
O O3 0.284275 0.882985 0.769646
O O4 0.270008 0.818880 0.624242
O O5 0.768018 0.960184 0.207425
O O6 0.500000 0.000000 0.208091
O O7 0.683825 0.000000 0.000000
O O8 0.500000 0.271903 0.500000
O O9 0.203788 0.247903 0.500000
O O10 0.725546 0.412650 0.500000
O O11 0.500000 0.408824 0.320756
O O12 0.000000 0.811327 0.500000
#
# Coordination Sequence:
#
# PCOD8289304 Si02
#       5
#    16   8   8  16   8
#     4  12  24  40  62  89 120 156 198 245 295 350
#     4   9  17  29  49  80 117 152 191 240 292 341
#     4  12  24  42  64  89 118 153 198 246 296 350
#     4  10  19  33  55  84 118 154 195 240 291 346
#     4  12  26  44  62  85 118 157 198 244 298 354
#
# _framework density 19.581500999999999
#
# number of rings (size 3 to 8) (size 9 to 14) (size 15 to 20)
#    0.000    1.000    1.429    7.286    0.000    2.857 
#    0.000    0.000    0.000    0.857    0.000    6.000 
#    0.000    0.000    0.000    0.000    0.000    0.000 
#
# Total GULP energy -347386.464401 kJ/mol
# GULP energy per Si atom -12406.659443 kJ/mol
# Density = 1.953693 g / cm^3
# Si number density = 19.581501 Si / 1000 Ang^3
#
#
#
# Elastic Constant Matrix: (Units=GPa)
#
#
# Indices 1 2 3 4 5 6 
#
# 1 100.1910 21.2856 18.7933 -0.0083 -0.0015 -0.0007
# 2 21.2856 135.8050 38.4448 0.0108 0.0007 0.0006
# 3 18.7933 38.4448 93.3220 0.0268 0.0030 0.0015
# 4 -0.0083 0.0108 0.0268 -11.0090 0.0068 0.0032
# 5 -0.0015 0.0007 0.0030 0.0068 26.1547 0.0014
# 6 -0.0007 0.0006 0.0015 0.0032 0.0014 40.1044
#
#
#
# Elastic Compliance Matrix: (Units=1/GPa)
#
#
# Indices 1 2 3 4 5 6 
#
# 1 0.010540 -0.001190 -0.001632 -0.000013 0.000001 0.000000
# 2 -0.001190 0.008470 -0.003250 0.000001 0.000000 0.000000
# 3 -0.001632 -0.003250 0.012383 0.000028 -0.000001 0.000000
# 4 -0.000013 0.000001 0.000028 -0.090834 0.000024 0.000007
# 5 0.000001 0.000000 -0.000001 0.000024 0.038234 -0.000001
# 6 0.000000 0.000000 0.000000 0.000007 -0.000001 0.024935
#
#
# Mechanical properties :
#
#
# Convention : Reuss Voigt Hill
#
# Bulk Modulus (GPa) = 51.95044 54.04058 52.99551
# Shear Modulus (GPa) = 224.34059 27.76965 126.05512
#
# Velocity S-wave (km/s) = 10.71524 3.76993 8.03208
# Velocity P-wave (km/s) = 13.40434 6.82697 10.63682
#
# Compressibility (1/GPa) = 0.01924912
#
# Stress axis : x y z
#
# Youngs Moduli (GPa) = 94.87741 118.06469 80.75572
#
# Poissons Ratio (x) = 0.14048 0.13182
# Poissons Ratio (y) = 0.11289 0.26243
# Poissons Ratio (z) = 0.15487 0.38367
#
# Static dielectric constant tensor:
#      x y z
#    x 3.646230 0.000000 0.000000 
#    y 0.000000 3.825380 -0.000010 
#    z 0.000000 -0.000010 3.364040 
# 
# 
# High freq. dielectric constant tensor:
#      x y z
#    x 1.780790 0.000000 0.000000 
#    y 0.000000 1.780870 0.000000 
#    z 0.000000 0.000000 1.724980 
# 
# From -- ./inp_files/18432.got.cif
#   From: 2010.06.25/outbox.cif.g09.slc.cpg/sg71_10_cif.got.tgz:18432.got - 2010.06.28 04:59:45.
