data_PCOD8289881
_publ_section_title
;
Structure prediction by ZEFSAII (Michael W. Deem and Ramdas Pophale) SiO2 
 PCOD8289881
Probable space group: I M M M
;
_chemical_formula_sum "Si O2"
_cell_formula_units_Z 104
_cell_length_a 9.170509
_cell_length_b 24.114371
_cell_length_c 27.940580
_cell_angle_alpha 90.000000
_cell_angle_beta 90.000000
_cell_angle_gamma 90.000000
_cell_volume 6178.809374
_symmetry_space_group_name_H-M "I M M M"
_symmetry_group_IT_number 71
_symmetry_cell_setting 'orthorhombic'
loop_
_space_group_symop_operation_xyz
x,y,z
-x,-y,z
x,-y,-z
-x,y,-z
-x,-y,-z
x,y,-z
-x,y,z
x,-y,z
1/2+x,1/2+y,1/2+z
1/2-x,1/2-y,1/2+z
1/2+x,1/2-y,1/2-z
1/2-x,1/2+y,1/2-z
1/2-x,1/2-y,1/2-z
1/2+x,1/2+y,1/2-z
1/2-x,1/2+y,1/2+z
1/2+x,1/2-y,1/2+z
loop_
_atom_site_type_symbol
_atom_site_label
_atom_site_fract_x
_atom_site_fract_y
_atom_site_fract_z
Si Si1 0.832552 0.358019 0.056488
Si Si2 0.661155 0.065834 0.281350
Si Si3 0.831608 0.565718 0.500000
Si Si4 0.671984 0.736425 0.552682
Si Si5 0.669898 0.435594 0.127183
Si Si6 0.672840 0.379630 0.410838
Si Si7 0.829962 0.435441 0.674755
O O1 0.774831 0.296498 0.071896
O O2 0.737154 0.403779 0.082602
O O3 0.000000 0.366697 0.071554
O O4 0.812612 0.365848 0.000000
O O5 0.500000 0.089182 0.292690
O O6 0.768952 0.087903 0.322399
O O7 0.710560 0.085031 0.228391
O O8 0.656772 0.000000 0.280753
O O9 0.820407 0.500000 0.500000
O O10 0.752089 0.587641 0.547057
O O11 0.000000 0.585007 0.500000
O O12 0.738986 0.724366 0.500000
O O13 0.500000 0.740910 0.547026
O O14 0.715249 0.685675 0.587115
O O15 0.500000 0.424980 0.127610
O O16 0.709876 0.500000 0.120989
O O17 0.500000 0.388690 0.416053
O O18 0.727579 0.400715 0.360007
O O19 0.794145 0.500000 0.667742
O O20 0.000000 0.424352 0.663749
#
# Coordination Sequence:
#
# PCOD8289881 Si02
#       7
#    16  16   8  16  16  16  16
#     4   9  18  33  54  74  94 127 167 200 230 278
#     4   8  15  30  51  70  91 126 168 200 229 280
#     4  11  23  35  45  63  97 135 166 201 246 293
#     4   8  15  31  51  69  91 121 161 206 245 279
#     4  10  20  32  48  74 107 133 151 187 244 290
#     4  11  20  31  50  72  95 125 162 206 250 295
#     4   9  18  32  48  69  99 130 160 200 247 290
#
# _framework density 16.831721999999999
#
# number of rings (size 3 to 8) (size 9 to 14) (size 15 to 20)
#    0.000    2.692    0.769    3.462    0.000    4.923 
#    0.000    4.615    0.000    0.923    0.000    0.000 
#    0.000    0.000    0.000    0.000    0.000    0.000 
#
# Total GULP energy -644552.586205 kJ/mol
# GULP energy per Si atom -12395.242042 kJ/mol
# Density = 1.679341 g / cm^3
# Si number density = 16.831722 Si / 1000 Ang^3
#
#
#
# Elastic Constant Matrix: (Units=GPa)
#
#
# Indices 1 2 3 4 5 6 
#
# 1 81.2143 56.2864 55.5026 0.0000 0.0000 0.0000
# 2 56.2864 81.6903 58.7031 0.0000 0.0000 0.0000
# 3 55.5026 58.7031 101.0759 0.0000 0.0000 0.0000
# 4 0.0000 0.0000 0.0000 5.8367 0.0000 0.0000
# 5 0.0000 0.0000 0.0000 0.0000 26.9377 0.0000
# 6 0.0000 0.0000 0.0000 0.0000 0.0000 15.6510
#
#
#
# Elastic Compliance Matrix: (Units=1/GPa)
#
#
# Indices 1 2 3 4 5 6 
#
# 1 0.025918 -0.013097 -0.006626 0.000000 0.000000 0.000000
# 2 -0.013097 0.027628 -0.008854 0.000000 0.000000 0.000000
# 3 -0.006626 -0.008854 0.018674 0.000000 0.000000 0.000000
# 4 0.000000 0.000000 0.000000 0.171329 0.000000 0.000000
# 5 0.000000 0.000000 0.000000 0.000000 0.037123 0.000000
# 6 0.000000 0.000000 0.000000 0.000000 0.000000 0.063894
#
#
# Mechanical properties :
#
#
# Convention : Reuss Voigt Hill
#
# Bulk Modulus (GPa) = 66.37062 67.21831 66.79447
# Shear Modulus (GPa) = 12.29284 15.91766 14.10525
#
# Velocity S-wave (km/s) = 2.70541 3.07855 2.89799
# Velocity P-wave (km/s) = 7.01972 7.25664 7.13916
#
# Compressibility (1/GPa) = 0.01506691
#
# Stress axis : x y z
#
# Youngs Moduli (GPa) = 38.58322 36.19517 53.54998
#
# Poissons Ratio (x) = 0.47404 0.35480
# Poissons Ratio (y) = 0.50532 0.47414
# Poissons Ratio (z) = 0.25564 0.32048
#
# Static dielectric constant tensor:
#      x y z
#    x 3.091310 0.000000 0.000000 
#    y 0.000000 3.166890 0.000000 
#    z 0.000000 0.000000 3.279990 
# 
# 
# High freq. dielectric constant tensor:
#      x y z
#    x 1.639910 0.000000 0.000000 
#    y 0.000000 1.631150 0.000000 
#    z 0.000000 0.000000 1.647490 
# 
# From -- ./inp_files/63525.got.cif
#   From: 2010.06.25/outbox.cif.g09.slc.cpg/sg71_32_cif.got.tgz:63525.got - 2010.06.28 04:59:45.
