data_PCOD8289908
_publ_section_title
;
Structure prediction by ZEFSAII (Michael W. Deem and Ramdas Pophale) SiO2 
 PCOD8289908
Probable space group: I M M M
;
_chemical_formula_sum "Si O2"
_cell_formula_units_Z 88
_cell_length_a 14.947119
_cell_length_b 10.248258
_cell_length_c 29.058576
_cell_angle_alpha 90.000000
_cell_angle_beta 90.000000
_cell_angle_gamma 90.000000
_cell_volume 4451.248809
_symmetry_space_group_name_H-M "I M M M"
_symmetry_group_IT_number 71
_symmetry_cell_setting 'orthorhombic'
loop_
_space_group_symop_operation_xyz
x,y,z
-x,-y,z
x,-y,-z
-x,y,-z
-x,-y,-z
x,y,-z
-x,y,z
x,-y,z
1/2+x,1/2+y,1/2+z
1/2-x,1/2-y,1/2+z
1/2+x,1/2-y,1/2-z
1/2-x,1/2+y,1/2-z
1/2-x,1/2-y,1/2-z
1/2+x,1/2+y,1/2-z
1/2-x,1/2+y,1/2+z
1/2+x,1/2-y,1/2+z
loop_
_atom_site_type_symbol
_atom_site_label
_atom_site_fract_x
_atom_site_fract_y
_atom_site_fract_z
Si Si1 0.104982 0.353661 0.302411
Si Si2 0.727623 0.646951 0.450003
Si Si3 0.606699 0.353387 0.729725
Si Si4 0.400276 0.344855 0.372552
Si Si5 0.104605 0.000000 0.448684
Si Si6 0.603713 0.230292 0.905140
O O1 0.146930 0.500000 0.297867
O O2 0.147000 0.253704 0.265127
O O3 0.125675 0.294421 0.352132
O O4 0.000000 0.364244 0.294402
O O5 0.716799 0.716703 0.500000
O O6 0.693601 0.500000 0.454971
O O7 0.666158 0.716546 0.411037
O O8 0.832015 0.640448 0.435694
O O9 0.500000 0.356780 0.732772
O O10 0.642681 0.500000 0.741074
O O11 0.635715 0.308291 0.678419
O O12 0.500000 0.288001 0.380789
O O13 0.403031 0.500000 0.375651
O O14 0.132689 0.876550 0.418327
O O15 0.149292 0.000000 0.500000
O O16 0.000000 0.000000 0.456212
O O17 0.500000 0.198967 0.916659
#
# Coordination Sequence:
#
# PCOD8289908 Si02
#       6
#    16  16  16  16   8  16
#     4   9  17  28  45  72 106 139 167 203 254 305
#     4  10  20  32  49  74 102 133 168 207 256 310
#     4   8  14  26  48  73  98 131 170 210 251 299
#     4   8  15  30  51  75 101 130 166 210 257 302
#     4   9  18  32  50  70  91 127 179 223 253 285
#     4  10  20  33  50  71 101 136 172 211 252 300
#
# _framework density 19.769732999999999
#
# number of rings (size 3 to 8) (size 9 to 14) (size 15 to 20)
#    0.000    3.000    0.000    2.182    1.273    2.545 
#    0.000    3.636    2.000    0.000    0.000    0.000 
#    0.000    2.182    0.000    0.000    0.000    0.000 
#
# Total GULP energy -545172.729851 kJ/mol
# GULP energy per Si atom -12390.289315 kJ/mol
# Density = 1.972474 g / cm^3
# Si number density = 19.769733 Si / 1000 Ang^3
#
#
#
# Elastic Constant Matrix: (Units=GPa)
#
#
# Indices 1 2 3 4 5 6 
#
# 1 43.1031 21.8414 48.9377 0.0000 0.0000 0.0000
# 2 21.8414 91.1399 73.6372 0.0000 0.0000 0.0000
# 3 48.9377 73.6372 191.6097 0.0000 0.0000 0.0000
# 4 0.0000 0.0000 0.0000 5.7729 0.0000 0.0000
# 5 0.0000 0.0000 0.0000 0.0000 18.8195 0.0000
# 6 0.0000 0.0000 0.0000 0.0000 0.0000 8.1335
#
#
#
# Elastic Compliance Matrix: (Units=1/GPa)
#
#
# Indices 1 2 3 4 5 6 
#
# 1 0.032832 -0.001585 -0.007776 0.000000 0.000000 0.000000
# 2 -0.001585 0.015990 -0.005740 0.000000 0.000000 0.000000
# 3 -0.007776 -0.005740 0.009411 0.000000 0.000000 0.000000
# 4 0.000000 0.000000 0.000000 0.173222 0.000000 0.000000
# 5 0.000000 0.000000 0.000000 0.000000 0.053136 0.000000
# 6 0.000000 0.000000 0.000000 0.000000 0.000000 0.122949
#
#
# Mechanical properties :
#
#
# Convention : Reuss Voigt Hill
#
# Bulk Modulus (GPa) = 35.67630 68.29839 51.98735
# Shear Modulus (GPa) = 11.18352 18.64095 14.91224
#
# Velocity S-wave (km/s) = 2.38100 3.07400 2.74942
# Velocity P-wave (km/s) = 5.06399 6.87177 6.03595
#
# Compressibility (1/GPa) = 0.02802981
#
# Stress axis : x y z
#
# Youngs Moduli (GPa) = 30.45778 62.53972 106.25858
#
# Poissons Ratio (x) = 0.09914 0.82629
# Poissons Ratio (y) = 0.04828 0.60994
# Poissons Ratio (z) = 0.23685 0.35899
#
# Static dielectric constant tensor:
#      x y z
#    x 3.377550 0.000000 0.000000 
#    y 0.000000 3.664840 0.000000 
#    z 0.000000 0.000000 4.020950 
# 
# 
# High freq. dielectric constant tensor:
#      x y z
#    x 1.743350 0.000000 0.000000 
#    y 0.000000 1.733240 0.000000 
#    z 0.000000 0.000000 1.783010 
# 
# From -- ./inp_files/69818.got.cif
#   From: 2010.06.25/outbox.cif.g09.slc.cpg/sg71_35_cif.got.tgz:69818.got - 2010.06.28 04:59:45.
