data_PCOD8289638
_publ_section_title
;
Structure prediction by ZEFSAII (Michael W. Deem and Ramdas Pophale) SiO2 
 PCOD8289638
Probable space group: I M M M
;
_chemical_formula_sum "Si O2"
_cell_formula_units_Z 104
_cell_length_a 27.074766
_cell_length_b 27.099369
_cell_length_c 7.749544
_cell_angle_alpha 90.000000
_cell_angle_beta 90.000000
_cell_angle_gamma 90.000000
_cell_volume 5685.910755
_symmetry_space_group_name_H-M "I M M M"
_symmetry_group_IT_number 71
_symmetry_cell_setting 'orthorhombic'
loop_
_space_group_symop_operation_xyz
x,y,z
-x,-y,z
x,-y,-z
-x,y,-z
-x,-y,-z
x,y,-z
-x,y,z
x,-y,z
1/2+x,1/2+y,1/2+z
1/2-x,1/2-y,1/2+z
1/2+x,1/2-y,1/2-z
1/2-x,1/2+y,1/2-z
1/2-x,1/2-y,1/2-z
1/2+x,1/2+y,1/2-z
1/2-x,1/2+y,1/2+z
1/2+x,1/2-y,1/2+z
loop_
_atom_site_type_symbol
_atom_site_label
_atom_site_fract_x
_atom_site_fract_y
_atom_site_fract_z
Si Si1 0.228154 0.302462 0.201577
Si Si2 0.444397 0.381179 0.000000
Si Si3 0.095381 0.180681 0.196600
Si Si4 0.443433 0.881305 0.809963
Si Si5 0.306714 0.621429 0.692455
Si Si6 0.383546 0.791996 0.702267
Si Si7 0.344776 0.558894 0.000000
Si Si8 0.558975 0.054399 0.500000
O O1 0.250000 0.250000 0.250000
O O2 0.255531 0.348924 0.288435
O O3 0.171969 0.301595 0.265910
O O4 0.232414 0.310601 0.000000
O O5 0.440084 0.347930 0.171842
O O6 0.500000 0.404264 0.000000
O O7 0.402114 0.423346 0.000000
O O8 0.150999 0.161921 0.217303
O O9 0.097126 0.237734 0.248207
O O10 0.076225 0.172868 0.000000
O O11 0.500000 0.871696 0.762467
O O12 0.417570 0.828727 0.807895
O O13 0.420264 0.918440 0.670010
O O14 0.437637 0.905040 0.000000
O O15 0.308508 0.597983 0.500000
O O16 0.315182 0.578075 0.831588
O O17 0.388416 0.802131 0.500000
O O18 0.344441 0.500000 0.000000
O O19 0.500000 0.051790 0.500000
O O20 0.581973 0.000000 0.500000
#
# Coordination Sequence:
#
# PCOD8289638 Si02
#       8
#    16   8  16  16  16  16   8   8
#     4  11  20  31  53  85 117 151 186 229 279 335
#     4  10  22  37  56  83 113 149 200 247 292 344
#     4   9  19  34  51  76 112 152 186 224 275 342
#     4  10  21  35  52  77 107 141 184 229 271 325
#     4  10  19  36  57  83 115 145 185 234 289 344
#     4  10  20  33  51  77 114 154 189 219 269 337
#     4  10  22  41  63  84 113 153 197 250 300 344
#     4   9  18  36  59  77  98 130 173 229 279 311
#
# _framework density 18.290825999999999
#
# number of rings (size 3 to 8) (size 9 to 14) (size 15 to 20)
#    0.000    2.077    3.077    0.462    1.077    2.923 
#    0.000    3.077    0.000    1.846    0.000    6.462 
#    0.000    0.000    0.000    0.000    0.000    0.000 
#
# Total GULP energy -644720.281548 kJ/mol
# GULP energy per Si atom -12398.466953 kJ/mol
# Density = 1.824920 g / cm^3
# Si number density = 18.290826 Si / 1000 Ang^3
#
#
#
# Elastic Constant Matrix: (Units=GPa)
#
#
# Indices 1 2 3 4 5 6 
#
# 1 59.2337 33.3145 30.4287 0.0000 0.0000 0.0000
# 2 33.3145 128.1769 60.7949 0.0000 0.0000 0.0000
# 3 30.4287 60.7949 117.6782 0.0000 0.0000 0.0000
# 4 0.0000 0.0000 0.0000 19.4508 0.0000 0.0000
# 5 0.0000 0.0000 0.0000 0.0000 20.9197 0.0000
# 6 0.0000 0.0000 0.0000 0.0000 0.0000 16.9862
#
#
#
# Elastic Compliance Matrix: (Units=1/GPa)
#
#
# Indices 1 2 3 4 5 6 
#
# 1 0.020761 -0.003775 -0.003418 0.000000 0.000000 0.000000
# 2 -0.003775 0.011020 -0.004717 0.000000 0.000000 0.000000
# 3 -0.003418 -0.004717 0.011819 0.000000 0.000000 0.000000
# 4 0.000000 0.000000 0.000000 0.051412 0.000000 0.000000
# 5 0.000000 0.000000 0.000000 0.000000 0.047802 0.000000
# 6 0.000000 0.000000 0.000000 0.000000 0.000000 0.058871
#
#
# Mechanical properties :
#
#
# Convention : Reuss Voigt Hill
#
# Bulk Modulus (GPa) = 50.55692 61.57389 56.06541
# Shear Modulus (GPa) = 21.54255 23.50805 22.52530
#
# Velocity S-wave (km/s) = 3.43560 3.58891 3.51309
# Velocity P-wave (km/s) = 6.59078 7.13517 6.86837
#
# Compressibility (1/GPa) = 0.01977969
#
# Stress axis : x y z
#
# Youngs Moduli (GPa) = 48.16658 90.74244 84.61234
#
# Poissons Ratio (x) = 0.34253 0.28922
# Poissons Ratio (y) = 0.18182 0.39913
# Poissons Ratio (z) = 0.16464 0.42805
#
# Static dielectric constant tensor:
#      x y z
#    x 3.505880 0.000000 0.000000 
#    y 0.000000 3.152060 0.000000 
#    z 0.000000 0.000000 3.636030 
# 
# 
# High freq. dielectric constant tensor:
#      x y z
#    x 1.691960 0.000000 0.000000 
#    y 0.000000 1.683210 0.000000 
#    z 0.000000 0.000000 1.726920 
# 
# From -- ./inp_files/15361.got.cif
#   From: 2010.06.25/outbox.cif.g09.slc.cpg/sg71_8_cif.got.tgz:15361.got - 2010.06.28 04:59:45.
