data_PCOD8289005
_publ_section_title
;
Structure prediction by ZEFSAII (Michael W. Deem and Ramdas Pophale) SiO2 
 PCOD8289005
Probable space group: I M M M
;
_chemical_formula_sum "Si O2"
_cell_formula_units_Z 104
_cell_length_a 22.769273
_cell_length_b 9.380411
_cell_length_c 26.626294
_cell_angle_alpha 90.000000
_cell_angle_beta 90.000000
_cell_angle_gamma 90.000000
_cell_volume 5686.980703
_symmetry_space_group_name_H-M "I M M M"
_symmetry_group_IT_number 71
_symmetry_cell_setting 'orthorhombic'
loop_
_space_group_symop_operation_xyz
x,y,z
-x,-y,z
x,-y,-z
-x,y,-z
-x,-y,-z
x,y,-z
-x,y,z
x,-y,z
1/2+x,1/2+y,1/2+z
1/2-x,1/2-y,1/2+z
1/2+x,1/2-y,1/2-z
1/2-x,1/2+y,1/2-z
1/2-x,1/2-y,1/2-z
1/2+x,1/2+y,1/2-z
1/2-x,1/2+y,1/2+z
1/2+x,1/2-y,1/2+z
loop_
_atom_site_type_symbol
_atom_site_label
_atom_site_fract_x
_atom_site_fract_y
_atom_site_fract_z
Si Si1 0.771926 0.340397 0.942989
Si Si2 0.615010 0.833217 0.787261
Si Si3 0.500000 0.845758 0.659729
Si Si4 0.680550 0.338269 0.294780
Si Si5 0.500000 0.327770 0.241035
Si Si6 0.287400 0.163166 0.861460
Si Si7 0.114655 0.747987 0.110924
Si Si8 0.936883 0.000000 0.942712
O O1 0.747532 0.500000 0.945040
O O2 0.723616 0.249795 0.912462
O O3 0.833655 0.345854 0.913149
O O4 0.778652 0.280534 0.000000
O O5 0.661136 0.776639 0.746272
O O6 0.556713 0.737000 0.786915
O O7 0.645942 0.816174 0.841780
O O8 0.601064 0.000000 0.776162
O O9 0.500000 0.720299 0.700863
O O10 0.442760 0.843207 0.624351
O O11 0.500000 0.000000 0.687311
O O12 0.681330 0.500000 0.272906
O O13 0.743880 0.290181 0.316136
O O14 0.633980 0.333108 0.339690
O O15 0.500000 0.500000 0.238009
O O16 0.273779 0.000000 0.874835
O O17 0.100272 0.861555 0.068732
O O18 0.000000 0.000000 0.913156
O O19 0.951783 0.000000 0.000000
#
# Coordination Sequence:
#
# PCOD8289005 Si02
#       8
#    16  16   8  16   8  16  16   8
#     4  10  22  39  58  82 110 142 184 235 286 335
#     4  11  22  37  56  82 115 146 185 226 273 333
#     4  12  24  36  54  75 106 151 195 240 288 330
#     4  10  19  32  53  79 109 145 182 225 274 327
#     4  12  26  38  56  80 114 154 191 230 274 331
#     4   9  21  38  57  82 111 146 183 226 276 334
#     4  11  21  35  54  74 108 143 190 236 283 331
#     4  11  22  34  50  74 100 140 194 247 294 334
#
# _framework density 18.287383999999999
#
# number of rings (size 3 to 8) (size 9 to 14) (size 15 to 20)
#    0.000    1.462    3.077    2.538    2.154    4.000 
#    0.000    0.000    0.000    1.846    0.000    0.538 
#    0.000    4.308    0.000    0.000    0.000    0.000 
#
# Total GULP energy -644619.724286 kJ/mol
# GULP energy per Si atom -12396.533159 kJ/mol
# Density = 1.824576 g / cm^3
# Si number density = 18.287384 Si / 1000 Ang^3
#
#
#
# Elastic Constant Matrix: (Units=GPa)
#
#
# Indices 1 2 3 4 5 6 
#
# 1 79.7192 44.2387 49.1783 0.0000 0.0000 0.0000
# 2 44.2387 114.8828 38.6930 0.0000 0.0000 0.0000
# 3 49.1783 38.6930 84.0428 0.0000 0.0000 0.0000
# 4 0.0000 0.0000 0.0000 407.5040 0.0000 0.0000
# 5 0.0000 0.0000 0.0000 0.0000 22.1244 0.0000
# 6 0.0000 0.0000 0.0000 0.0000 0.0000 27.8859
#
#
#
# Elastic Compliance Matrix: (Units=1/GPa)
#
#
# Indices 1 2 3 4 5 6 
#
# 1 0.021675 -0.004822 -0.010463 0.000000 0.000000 0.000000
# 2 -0.004822 0.011375 -0.002415 0.000000 0.000000 0.000000
# 3 -0.010463 -0.002415 0.019133 0.000000 0.000000 0.000000
# 4 0.000000 0.000000 0.000000 0.002454 0.000000 0.000000
# 5 0.000000 0.000000 0.000000 0.000000 0.045199 0.000000
# 6 0.000000 0.000000 0.000000 0.000000 0.000000 0.035860
#
#
# Mechanical properties :
#
#
# Convention : Reuss Voigt Hill
#
# Bulk Modulus (GPa) = 59.58832 60.31834 59.95333
# Shear Modulus (GPa) = 28.29805 101.27186 64.78496
#
# Velocity S-wave (km/s) = 3.93798 7.44971 5.95843
# Velocity P-wave (km/s) = 7.30288 10.34663 8.95502
#
# Compressibility (1/GPa) = 0.01678181
#
# Stress axis : x y z
#
# Youngs Moduli (GPa) = 46.13685 87.91246 52.26571
#
# Poissons Ratio (x) = 0.42396 0.54685
# Poissons Ratio (y) = 0.22249 0.12623
# Poissons Ratio (z) = 0.48272 0.21232
#
# Static dielectric constant tensor:
#      x y z
#    x 3.444080 0.000000 0.000000 
#    y 0.000000 3.294240 0.000000 
#    z 0.000000 0.000000 3.175210 
# 
# 
# High freq. dielectric constant tensor:
#      x y z
#    x 1.701390 0.000000 0.000000 
#    y 0.000000 1.715470 0.000000 
#    z 0.000000 0.000000 1.682370 
# 
# From -- ./inp_files/66888.got.cif
#   From: 2010.06.25/outbox.cif.g09.slc.cpg/sg71_34_cif.got.tgz:66888.got - 2010.06.28 04:59:45.
