data_PCOD8289460
_publ_section_title
;
Structure prediction by ZEFSAII (Michael W. Deem and Ramdas Pophale) SiO2 
 PCOD8289460
Probable space group: I M M M
;
_chemical_formula_sum "Si O2"
_cell_formula_units_Z 80
_cell_length_a 16.256096
_cell_length_b 14.938716
_cell_length_c 17.231017
_cell_angle_alpha 90.000000
_cell_angle_beta 90.000000
_cell_angle_gamma 90.000000
_cell_volume 4184.469794
_symmetry_space_group_name_H-M "I M M M"
_symmetry_group_IT_number 71
_symmetry_cell_setting 'orthorhombic'
loop_
_space_group_symop_operation_xyz
x,y,z
-x,-y,z
x,-y,-z
-x,y,-z
-x,-y,-z
x,y,-z
-x,y,z
x,-y,z
1/2+x,1/2+y,1/2+z
1/2-x,1/2-y,1/2+z
1/2+x,1/2-y,1/2-z
1/2-x,1/2+y,1/2-z
1/2-x,1/2-y,1/2-z
1/2+x,1/2+y,1/2-z
1/2-x,1/2+y,1/2+z
1/2+x,1/2-y,1/2+z
loop_
_atom_site_type_symbol
_atom_site_label
_atom_site_fract_x
_atom_site_fract_y
_atom_site_fract_z
Si Si1 0.409111 0.731782 0.319890
Si Si2 0.091381 0.500000 0.091300
Si Si3 0.205174 0.335868 0.089529
Si Si4 0.500000 0.896624 0.084599
Si Si5 0.623046 0.103134 0.784066
Si Si6 0.199532 0.102944 0.271991
O O1 0.500000 0.707193 0.351055
O O2 0.345508 0.744743 0.392089
O O3 0.415256 0.824852 0.273778
O O4 0.378223 0.651066 0.266069
O O5 0.143463 0.414362 0.116924
O O6 0.000000 0.500000 0.128615
O O7 0.081755 0.500000 0.000000
O O8 0.284174 0.347762 0.145110
O O9 0.232385 0.340082 0.000000
O O10 0.583530 0.873899 0.132135
O O11 0.500000 0.000000 0.067005
O O12 0.500000 0.846822 0.000000
O O13 0.721960 0.113963 0.785399
O O14 0.600255 0.000000 0.758301
O O15 0.176459 0.000000 0.286345
#
# Coordination Sequence:
#
# PCOD8289460 Si02
#       6
#    16   8  16   8  16  16
#     4  11  22  35  55  79 112 150 193 234 279 337
#     4   9  16  26  44  78 117 141 163 202 274 356
#     4  10  19  34  56  84 114 143 177 232 296 349
#     4   9  16  28  50  78 108 140 170 207 270 342
#     4   9  17  32  52  77 108 138 171 223 285 340
#     4  10  21  38  56  77 109 152 200 237 273 329
#
# _framework density 19.118313000000001
#
# number of rings (size 3 to 8) (size 9 to 14) (size 15 to 20)
#    0.000    2.200    2.000    3.000    1.400    1.600 
#    0.000    4.000    0.000    1.800    0.000    2.800 
#    0.000    0.000    0.000    0.000    0.000    0.000 
#
# Total GULP energy -495666.788999 kJ/mol
# GULP energy per Si atom -12391.669725 kJ/mol
# Density = 1.907480 g / cm^3
# Si number density = 19.118313 Si / 1000 Ang^3
#
#
#
# Elastic Constant Matrix: (Units=GPa)
#
#
# Indices 1 2 3 4 5 6 
#
# 1 46.4620 30.0305 12.7269 0.0000 0.0000 0.0000
# 2 30.0305 56.3352 28.2515 0.0000 0.0000 0.0000
# 3 12.7269 28.2515 90.2816 0.0000 0.0000 0.0000
# 4 0.0000 0.0000 0.0000 20.9081 0.0000 0.0000
# 5 0.0000 0.0000 0.0000 0.0000 41.2090 0.0000
# 6 0.0000 0.0000 0.0000 0.0000 0.0000 14.8448
#
#
#
# Elastic Compliance Matrix: (Units=1/GPa)
#
#
# Indices 1 2 3 4 5 6 
#
# 1 0.032914 -0.018051 0.001009 0.000000 0.000000 0.000000
# 2 -0.018051 0.030955 -0.007142 0.000000 0.000000 0.000000
# 3 0.001009 -0.007142 0.013169 0.000000 0.000000 0.000000
# 4 0.000000 0.000000 0.000000 0.047828 0.000000 0.000000
# 5 0.000000 0.000000 0.000000 0.000000 0.024267 0.000000
# 6 0.000000 0.000000 0.000000 0.000000 0.000000 0.067364
#
#
# Mechanical properties :
#
#
# Convention : Reuss Voigt Hill
#
# Bulk Modulus (GPa) = 34.88044 37.23298 36.05671
# Shear Modulus (GPa) = 18.22007 23.53035 20.87521
#
# Velocity S-wave (km/s) = 3.09045 3.51205 3.30797
# Velocity P-wave (km/s) = 5.56943 5.99694 5.78714
#
# Compressibility (1/GPa) = 0.02866936
#
# Stress axis : x y z
#
# Youngs Moduli (GPa) = 30.38213 32.30476 75.93501
#
# Poissons Ratio (x) = 0.58315 -0.07661
# Poissons Ratio (y) = 0.54844 0.54233
# Poissons Ratio (z) = -0.03065 0.23072
#
# Static dielectric constant tensor:
#      x y z
#    x 3.301790 0.000000 0.000000 
#    y 0.000000 3.347280 0.000000 
#    z 0.000000 0.000000 3.566730 
# 
# 
# High freq. dielectric constant tensor:
#      x y z
#    x 1.723460 0.000000 0.000000 
#    y 0.000000 1.723460 0.000000 
#    z 0.000000 0.000000 1.733810 
# 
# From -- ./inp_files/45820.got.cif
#   From: 2010.06.25/outbox.cif.g09.slc.cpg/sg71_23_cif.got.tgz:45820.got - 2010.06.28 04:59:45.
