data_PCOD8289448
_publ_section_title
;
Structure prediction by ZEFSAII (Michael W. Deem and Ramdas Pophale) SiO2 
 PCOD8289448
Probable space group: I M M M
;
_chemical_formula_sum "Si O2"
_cell_formula_units_Z 72
_cell_length_a 8.485160
_cell_length_b 16.191586
_cell_length_c 27.226484
_cell_angle_alpha 90.000000
_cell_angle_beta 90.000000
_cell_angle_gamma 90.000000
_cell_volume 3740.597571
_symmetry_space_group_name_H-M "I M M M"
_symmetry_group_IT_number 71
_symmetry_cell_setting 'orthorhombic'
loop_
_space_group_symop_operation_xyz
x,y,z
-x,-y,z
x,-y,-z
-x,y,-z
-x,-y,-z
x,y,-z
-x,y,z
x,-y,z
1/2+x,1/2+y,1/2+z
1/2-x,1/2-y,1/2+z
1/2+x,1/2-y,1/2-z
1/2-x,1/2+y,1/2-z
1/2-x,1/2-y,1/2-z
1/2+x,1/2+y,1/2-z
1/2-x,1/2+y,1/2+z
1/2+x,1/2-y,1/2+z
loop_
_atom_site_type_symbol
_atom_site_label
_atom_site_fract_x
_atom_site_fract_y
_atom_site_fract_z
Si Si1 0.681640 0.906597 0.854425
Si Si2 0.313869 0.669439 0.895812
Si Si3 0.315920 0.671427 0.555782
Si Si4 0.686845 0.500000 0.055868
Si Si5 0.817149 0.246957 0.195937
O O1 0.500000 0.884687 0.844204
O O2 0.718417 0.894016 0.911944
O O3 0.791666 0.845747 0.823533
O O4 0.719941 0.000000 0.838810
O O5 0.500000 0.678958 0.902110
O O6 0.227864 0.735264 0.930266
O O7 0.254301 0.579874 0.913820
O O8 0.268450 0.685710 0.838920
O O9 0.268573 0.654544 0.500000
O O10 0.500000 0.658054 0.565171
O O11 0.500000 0.500000 0.053132
O O12 0.754904 0.500000 0.000000
O O13 0.750000 0.250000 0.250000
O O14 0.000000 0.268556 0.196489
#
# Coordination Sequence:
#
# PCOD8289448 Si02
#       5
#    16  16  16   8  16
#     4  10  21  37  57  82 110 139 177 224 272 323
#     4  10  19  34  56  81 110 145 187 232 277 329
#     4  10  20  33  51  77 110 148 186 223 268 322
#     4   9  18  32  53  83 117 151 187 229 276 329
#     4  11  22  39  61  82 108 143 182 226 279 332
#
# _framework density 19.248259999999998
#
# number of rings (size 3 to 8) (size 9 to 14) (size 15 to 20)
#    0.000    1.889    0.000    7.333    0.000    4.889 
#    2.000    4.444    0.000    4.000    0.000    0.000 
#    0.000    0.000    0.000    0.000    0.000    0.000 
#
# Total GULP energy -446429.564751 kJ/mol
# GULP energy per Si atom -12400.821243 kJ/mol
# Density = 1.920445 g / cm^3
# Si number density = 19.248260 Si / 1000 Ang^3
#
#
#
# Elastic Constant Matrix: (Units=GPa)
#
#
# Indices 1 2 3 4 5 6 
#
# 1 26.6242 0.4307 16.8077 0.0000 0.0000 0.0000
# 2 0.4307 91.9170 42.2325 0.0000 0.0000 0.0000
# 3 16.8077 42.2325 131.3288 0.0000 0.0000 0.0000
# 4 0.0000 0.0000 0.0000 16.8122 0.0000 0.0000
# 5 0.0000 0.0000 0.0000 0.0000 33.1357 0.0000
# 6 0.0000 0.0000 0.0000 0.0000 0.0000 20.7645
#
#
#
# Elastic Compliance Matrix: (Units=1/GPa)
#
#
# Indices 1 2 3 4 5 6 
#
# 1 0.041395 0.002629 -0.006143 0.000000 0.000000 0.000000
# 2 0.002629 0.012932 -0.004495 0.000000 0.000000 0.000000
# 3 -0.006143 -0.004495 0.009846 0.000000 0.000000 0.000000
# 4 0.000000 0.000000 0.000000 0.059481 0.000000 0.000000
# 5 0.000000 0.000000 0.000000 0.000000 0.030179 0.000000
# 6 0.000000 0.000000 0.000000 0.000000 0.000000 0.048159
#
#
# Mechanical properties :
#
#
# Convention : Reuss Voigt Hill
#
# Bulk Modulus (GPa) = 20.76643 40.97906 30.87275
# Shear Modulus (GPa) = 21.36168 26.83575 24.09872
#
# Velocity S-wave (km/s) = 3.33498 3.73794 3.54219
# Velocity P-wave (km/s) = 5.06375 6.32183 5.72744
#
# Compressibility (1/GPa) = 0.04815464
#
# Stress axis : x y z
#
# Youngs Moduli (GPa) = 24.15722 77.32493 101.56157
#
# Poissons Ratio (x) = -0.20326 0.62391
# Poissons Ratio (y) = -0.06350 0.45654
# Poissons Ratio (z) = 0.14840 0.34759
#
# Static dielectric constant tensor:
#      x y z
#    x 3.519390 0.000000 0.000000 
#    y 0.000000 3.551590 0.000000 
#    z 0.000000 0.000000 3.636350 
# 
# 
# High freq. dielectric constant tensor:
#      x y z
#    x 1.752070 0.000000 0.000000 
#    y 0.000000 1.744220 0.000000 
#    z 0.000000 0.000000 1.750590 
# 
# From -- ./inp_files/62855.got.cif
#   From: 2010.06.25/outbox.cif.g09.slc.cpg/sg71_32_cif.got.tgz:62855.got - 2010.06.28 04:59:45.
