data_PCOD8289007
_publ_section_title
;
Structure prediction by ZEFSAII (Michael W. Deem and Ramdas Pophale) SiO2 
 PCOD8289007
Probable space group: I M M M
;
_chemical_formula_sum "Si O2"
_cell_formula_units_Z 104
_cell_length_a 24.707470
_cell_length_b 9.378991
_cell_length_c 23.694418
_cell_angle_alpha 90.000000
_cell_angle_beta 90.000000
_cell_angle_gamma 90.000000
_cell_volume 5490.734465
_symmetry_space_group_name_H-M "I M M M"
_symmetry_group_IT_number 71
_symmetry_cell_setting 'orthorhombic'
loop_
_space_group_symop_operation_xyz
x,y,z
-x,-y,z
x,-y,-z
-x,y,-z
-x,-y,-z
x,y,-z
-x,y,z
x,-y,z
1/2+x,1/2+y,1/2+z
1/2-x,1/2-y,1/2+z
1/2+x,1/2-y,1/2-z
1/2-x,1/2+y,1/2-z
1/2-x,1/2-y,1/2-z
1/2+x,1/2+y,1/2-z
1/2-x,1/2+y,1/2+z
1/2+x,1/2-y,1/2+z
loop_
_atom_site_type_symbol
_atom_site_label
_atom_site_fract_x
_atom_site_fract_y
_atom_site_fract_z
Si Si1 0.438576 0.831295 0.563186
Si Si2 0.708219 0.839984 0.938043
Si Si3 0.637430 0.331564 0.220965
Si Si4 0.500000 0.340937 0.934120
Si Si5 0.094085 0.337094 0.382441
Si Si6 0.244757 0.157756 0.660302
Si Si7 0.129268 0.662230 0.828646
O O1 0.422519 0.773375 0.500000
O O2 0.500000 0.780399 0.578180
O O3 0.395769 0.780560 0.611658
O O4 0.437099 0.000000 0.560694
O O5 0.646034 0.836562 0.921675
O O6 0.744057 0.755387 0.894262
O O7 0.730524 0.000000 0.937720
O O8 0.715145 0.771667 0.000000
O O9 0.626294 0.500000 0.219362
O O10 0.602964 0.248983 0.174743
O O11 0.701733 0.296735 0.209423
O O12 0.612963 0.271251 0.279467
O O13 0.500000 0.500000 0.906265
O O14 0.449083 0.248680 0.917333
O O15 0.500000 0.361211 0.000000
O O16 0.076187 0.500000 0.368957
O O17 0.306291 0.163188 0.678855
O O18 0.227704 0.000000 0.640882
O O19 0.108363 0.500000 0.818136
#
# Coordination Sequence:
#
# PCOD8289007 Si02
#       7
#    16  16  16   8  16  16  16
#     4   8  15  30  52  77 104 132 164 210 265 315
#     4   9  18  32  50  73 102 136 174 217 265 316
#     4  10  20  35  52  73 106 142 174 213 269 325
#     4  11  23  37  55  81 111 141 176 221 272 319
#     4  10  20  36  56  76 101 138 183 226 264 310
#     4   9  19  32  48  73 104 138 175 216 262 316
#     4  10  19  32  53  80 104 132 176 220 259 315
#
# _framework density 18.940999999999999
#
# number of rings (size 3 to 8) (size 9 to 14) (size 15 to 20)
#    0.000    2.538    0.000    2.538    0.000    4.000 
#    1.385    1.538    0.000    0.462    0.000    1.077 
#    0.000    0.000    0.000    0.000    0.000    0.000 
#
# Total GULP energy -644253.602961 kJ/mol
# GULP energy per Si atom -12389.492365 kJ/mol
# Density = 1.889789 g / cm^3
# Si number density = 18.941000 Si / 1000 Ang^3
#
#
#
# Elastic Constant Matrix: (Units=GPa)
#
#
# Indices 1 2 3 4 5 6 
#
# 1 43.1645 20.1043 22.6100 0.0000 0.0000 0.0000
# 2 20.1043 93.6390 48.2109 0.0000 0.0000 0.0000
# 3 22.6100 48.2109 122.8965 0.0000 0.0000 0.0000
# 4 0.0000 0.0000 0.0000 27.3434 0.0000 0.0000
# 5 0.0000 0.0000 0.0000 0.0000 40.5943 0.0000
# 6 0.0000 0.0000 0.0000 0.0000 0.0000 21.7153
#
#
#
# Elastic Compliance Matrix: (Units=1/GPa)
#
#
# Indices 1 2 3 4 5 6 
#
# 1 0.026798 -0.004029 -0.003350 0.000000 0.000000 0.000000
# 2 -0.004029 0.013988 -0.004746 0.000000 0.000000 0.000000
# 3 -0.003350 -0.004746 0.010615 0.000000 0.000000 0.000000
# 4 0.000000 0.000000 0.000000 0.036572 0.000000 0.000000
# 5 0.000000 0.000000 0.000000 0.000000 0.024634 0.000000
# 6 0.000000 0.000000 0.000000 0.000000 0.000000 0.046050
#
#
# Mechanical properties :
#
#
# Convention : Reuss Voigt Hill
#
# Bulk Modulus (GPa) = 36.83005 49.06117 42.94561
# Shear Modulus (GPa) = 26.04740 29.18225 27.61482
#
# Velocity S-wave (km/s) = 3.71237 3.92942 3.82244
# Velocity P-wave (km/s) = 6.15325 6.82243 6.49646
#
# Compressibility (1/GPa) = 0.02715174
#
# Stress axis : x y z
#
# Youngs Moduli (GPa) = 37.31572 71.49040 94.20612
#
# Poissons Ratio (x) = 0.28803 0.31557
# Poissons Ratio (y) = 0.15034 0.44711
# Poissons Ratio (z) = 0.12500 0.33930
#
# Static dielectric constant tensor:
#      x y z
#    x 55.520270 0.000000 0.000000 
#    y 0.000000 3.595370 0.000000 
#    z 0.000000 0.000000 3.590950 
# 
# 
# High freq. dielectric constant tensor:
#      x y z
#    x 1.719250 0.000000 0.000000 
#    y 0.000000 1.725560 0.000000 
#    z 0.000000 0.000000 1.739990 
# 
# From -- ./inp_files/61957.got.cif
#   From: 2010.06.25/outbox.cif.g09.slc.cpg/sg71_31_cif.got.tgz:61957.got - 2010.06.28 04:59:45.
