data_PCOD8289418
_publ_section_title
;
Structure prediction by ZEFSAII (Michael W. Deem and Ramdas Pophale) SiO2 
 PCOD8289418
Probable space group: I M M M
;
_chemical_formula_sum "Si O2"
_cell_formula_units_Z 104
_cell_length_a 18.444189
_cell_length_b 15.112180
_cell_length_c 20.966320
_cell_angle_alpha 90.000000
_cell_angle_beta 90.000000
_cell_angle_gamma 90.000000
_cell_volume 5843.982296
_symmetry_space_group_name_H-M "I M M M"
_symmetry_group_IT_number 71
_symmetry_cell_setting 'orthorhombic'
loop_
_space_group_symop_operation_xyz
x,y,z
-x,-y,z
x,-y,-z
-x,y,-z
-x,-y,-z
x,y,-z
-x,y,z
x,-y,z
1/2+x,1/2+y,1/2+z
1/2-x,1/2-y,1/2+z
1/2+x,1/2-y,1/2-z
1/2-x,1/2+y,1/2-z
1/2-x,1/2-y,1/2-z
1/2+x,1/2+y,1/2-z
1/2-x,1/2+y,1/2+z
1/2+x,1/2-y,1/2+z
loop_
_atom_site_type_symbol
_atom_site_label
_atom_site_fract_x
_atom_site_fract_y
_atom_site_fract_z
Si Si1 0.803775 0.752812 0.928276
Si Si2 0.083086 0.745997 0.819420
Si Si3 0.919123 0.601630 0.281257
Si Si4 0.580521 0.396073 0.000000
Si Si5 0.697157 0.603459 0.101740
Si Si6 0.717506 0.098537 0.856152
Si Si7 0.198882 0.163337 0.745504
O O1 0.876335 0.746790 0.886833
O O2 0.764002 0.658629 0.926185
O O3 0.750281 0.830670 0.904791
O O4 0.827523 0.774881 0.000000
O O5 0.092202 0.650791 0.785970
O O6 0.118517 0.816928 0.771568
O O7 0.000000 0.772003 0.831339
O O8 0.905092 0.500000 0.264576
O O9 0.863241 0.631987 0.336444
O O10 0.000000 0.619101 0.308007
O O11 0.624631 0.367837 0.063575
O O12 0.570472 0.500000 0.000000
O O13 0.500000 0.351645 0.000000
O O14 0.713946 0.500000 0.091369
O O15 0.688310 0.625408 0.175690
O O16 0.764507 0.091030 0.791298
O O17 0.715468 0.000000 0.887031
O O18 0.250000 0.250000 0.750000
#
# Coordination Sequence:
#
# PCOD8289418 Si02
#       7
#    16  16  16   8  16  16  16
#     4  11  22  37  55  75 107 139 189 233 260 316
#     4  10  20  34  52  78 110 142 175 220 275 322
#     4   9  16  28  50  80 112 140 166 206 265 328
#     4   9  20  36  52  78 114 148 186 223 260 318
#     4  11  20  34  58  82 109 146 181 217 271 320
#     4  10  19  34  55  79 106 139 178 224 271 314
#     4  11  18  33  54  82 109 134 174 225 264 317
#
# _framework density 17.796084
#
# number of rings (size 3 to 8) (size 9 to 14) (size 15 to 20)
#    0.000    1.769    5.385    0.462    0.000    3.077 
#    0.000    0.769    0.000   11.077    0.000    9.692 
#    0.000    0.000    0.000    0.000    0.000    0.000 
#
# Total GULP energy -644601.790971 kJ/mol
# GULP energy per Si atom -12396.188288 kJ/mol
# Density = 1.775558 g / cm^3
# Si number density = 17.796084 Si / 1000 Ang^3
#
#
#
# Elastic Constant Matrix: (Units=GPa)
#
#
# Indices 1 2 3 4 5 6 
#
# 1 133.5476 41.2679 40.7650 0.0000 0.0000 0.0000
# 2 41.2679 70.5688 27.2451 0.0000 0.0000 0.0000
# 3 40.7650 27.2451 91.0059 0.0000 0.0000 0.0000
# 4 0.0000 0.0000 0.0000 19.4479 0.0000 0.0000
# 5 0.0000 0.0000 0.0000 0.0000 21.8738 0.0000
# 6 0.0000 0.0000 0.0000 0.0000 0.0000 21.2251
#
#
#
# Elastic Compliance Matrix: (Units=1/GPa)
#
#
# Indices 1 2 3 4 5 6 
#
# 1 0.009828 -0.004577 -0.003032 0.000000 0.000000 0.000000
# 2 -0.004577 0.018154 -0.003385 0.000000 0.000000 0.000000
# 3 -0.003032 -0.003385 0.013360 0.000000 0.000000 0.000000
# 4 0.000000 0.000000 0.000000 0.051419 0.000000 0.000000
# 5 0.000000 0.000000 0.000000 0.000000 0.045717 0.000000
# 6 0.000000 0.000000 0.000000 0.000000 0.000000 0.047114
#
#
# Mechanical properties :
#
#
# Convention : Reuss Voigt Hill
#
# Bulk Modulus (GPa) = 51.66793 57.07538 54.37166
# Shear Modulus (GPa) = 23.36125 24.89899 24.13012
#
# Velocity S-wave (km/s) = 3.62708 3.74455 3.68628
# Velocity P-wave (km/s) = 6.82915 7.13001 6.98120
#
# Compressibility (1/GPa) = 0.01935437
#
# Stress axis : x y z
#
# Youngs Moduli (GPa) = 101.75314 55.08532 74.85130
#
# Poissons Ratio (x) = 0.25210 0.22696
# Poissons Ratio (y) = 0.46567 0.25336
# Poissons Ratio (z) = 0.30853 0.18645
#
# Static dielectric constant tensor:
#      x y z
#    x 3.505460 0.000000 0.000000 
#    y 0.000000 3.259850 0.000000 
#    z 0.000000 0.000000 3.332440 
# 
# 
# High freq. dielectric constant tensor:
#      x y z
#    x 1.689260 0.000000 0.000000 
#    y 0.000000 1.682380 0.000000 
#    z 0.000000 0.000000 1.676540 
# 
# From -- ./inp_files/36676.got.cif
#   From: 2010.06.25/outbox.cif.g09.slc.cpg/sg71_19_cif.got.tgz:36676.got - 2010.06.28 04:59:45.
