data_PCOD8289552
_publ_section_title
;
Structure prediction by ZEFSAII (Michael W. Deem and Ramdas Pophale) SiO2 
 PCOD8289552
Probable space group: I M M M
;
_chemical_formula_sum "Si O2"
_cell_formula_units_Z 120
_cell_length_a 27.838030
_cell_length_b 26.633534
_cell_length_c 8.797570
_cell_angle_alpha 90.000000
_cell_angle_beta 90.000000
_cell_angle_gamma 90.000000
_cell_volume 6522.739380
_symmetry_space_group_name_H-M "I M M M"
_symmetry_group_IT_number 71
_symmetry_cell_setting 'orthorhombic'
loop_
_space_group_symop_operation_xyz
x,y,z
-x,-y,z
x,-y,-z
-x,y,-z
-x,-y,-z
x,y,-z
-x,y,z
x,-y,z
1/2+x,1/2+y,1/2+z
1/2-x,1/2-y,1/2+z
1/2+x,1/2-y,1/2-z
1/2-x,1/2+y,1/2-z
1/2-x,1/2-y,1/2-z
1/2+x,1/2+y,1/2-z
1/2-x,1/2+y,1/2+z
1/2+x,1/2-y,1/2+z
loop_
_atom_site_type_symbol
_atom_site_label
_atom_site_fract_x
_atom_site_fract_y
_atom_site_fract_z
Si Si1 0.312569 0.942216 0.823128
Si Si2 0.358364 0.851477 0.678729
Si Si3 0.611156 0.408542 0.179186
Si Si4 0.609075 0.701951 0.821294
Si Si5 0.284933 0.558201 0.171423
Si Si6 0.054682 0.000000 0.179275
Si Si7 0.054718 0.701258 0.321356
Si Si8 0.699219 0.763726 0.180597
O O1 0.349720 0.909024 0.726895
O O2 0.258002 0.926568 0.783371
O O3 0.321498 0.000000 0.776920
O O4 0.321418 0.933057 0.000000
O O5 0.353404 0.844797 0.500000
O O6 0.412077 0.837220 0.730055
O O7 0.318117 0.817886 0.761188
O O8 0.595986 0.353337 0.241782
O O9 0.667361 0.412518 0.220333
O O10 0.579963 0.449883 0.262782
O O11 0.602898 0.415727 0.000000
O O12 0.567635 0.741413 0.775206
O O13 0.660506 0.722429 0.762370
O O14 0.613163 0.696411 0.000000
O O15 0.297939 0.500000 0.183785
O O16 0.269232 0.572455 0.000000
O O17 0.000000 0.000000 0.237914
O O18 0.057496 0.000000 0.000000
O O19 0.064004 0.693438 0.500000
O O20 0.000000 0.690547 0.275852
O O21 0.750000 0.750000 0.250000
O O22 0.702999 0.765723 0.000000
#
# Coordination Sequence:
#
# PCOD8289552 Si02
#       8
#    16  16  16  16  16   8  16  16
#     4  10  21  36  55  82 114 149 188 227 271 327
#     4  11  22  36  56  82 114 151 189 229 273 325
#     4  10  19  35  57  79 102 136 181 229 276 331
#     4   8  17  32  53  81 109 136 175 225 274 324
#     4   9  17  30  49  75 107 141 178 221 269 321
#     4  11  25  41  53  71 103 141 181 233 292 337
#     4   9  18  36  60  83 110 143 180 228 284 337
#     4  10  20  35  53  79 114 150 186 226 277 337
#
# _framework density 18.397178
#
# number of rings (size 3 to 8) (size 9 to 14) (size 15 to 20)
#    0.000    2.333    0.667    3.000    1.867    2.667 
#    0.000    4.667    0.000    0.400    0.000    2.800 
#    0.000    0.000    0.000    0.000    0.000    0.000 
#
# Total GULP energy -743969.901775 kJ/mol
# GULP energy per Si atom -12399.498363 kJ/mol
# Density = 1.835531 g / cm^3
# Si number density = 18.397178 Si / 1000 Ang^3
#
#
#
# Elastic Constant Matrix: (Units=GPa)
#
#
# Indices 1 2 3 4 5 6 
#
# 1 101.7336 53.4005 43.1007 0.0000 0.0000 0.0000
# 2 53.4005 111.3092 37.8130 0.0000 0.0000 0.0000
# 3 43.1007 37.8130 71.9058 0.0000 0.0000 0.0000
# 4 0.0000 0.0000 0.0000 19.2363 0.0000 0.0000
# 5 0.0000 0.0000 0.0000 0.0000 29.7789 0.0000
# 6 0.0000 0.0000 0.0000 0.0000 0.0000 18.9966
#
#
#
# Elastic Compliance Matrix: (Units=1/GPa)
#
#
# Indices 1 2 3 4 5 6 
#
# 1 0.015252 -0.005127 -0.006446 0.000000 0.000000 0.000000
# 2 -0.005127 0.012662 -0.003585 0.000000 0.000000 0.000000
# 3 -0.006446 -0.003585 0.019656 0.000000 0.000000 0.000000
# 4 0.000000 0.000000 0.000000 0.051985 0.000000 0.000000
# 5 0.000000 0.000000 0.000000 0.000000 0.033581 0.000000
# 6 0.000000 0.000000 0.000000 0.000000 0.000000 0.052641
#
#
# Mechanical properties :
#
#
# Convention : Reuss Voigt Hill
#
# Bulk Modulus (GPa) = 57.96005 61.50856 59.73430
# Shear Modulus (GPa) = 22.53842 23.64466 23.09154
#
# Velocity S-wave (km/s) = 3.50394 3.58890 3.54668
# Velocity P-wave (km/s) = 6.92412 7.11898 7.02223
#
# Compressibility (1/GPa) = 0.01725326
#
# Stress axis : x y z
#
# Youngs Moduli (GPa) = 65.56621 78.97834 50.87528
#
# Poissons Ratio (x) = 0.40495 0.32793
# Poissons Ratio (y) = 0.33618 0.18239
# Poissons Ratio (z) = 0.42262 0.28314
#
# Static dielectric constant tensor:
#      x y z
#    x 3.337310 0.000000 0.000000 
#    y 0.000000 3.571630 0.000000 
#    z 0.000000 0.000000 3.241360 
# 
# 
# High freq. dielectric constant tensor:
#      x y z
#    x 1.704050 0.000000 0.000000 
#    y 0.000000 1.715550 0.000000 
#    z 0.000000 0.000000 1.700580 
# 
# From -- ./inp_files/15662.got.cif
#   From: 2010.06.25/outbox.cif.g09.slc.cpg/sg71_8_cif.got.tgz:15662.got - 2010.06.28 04:59:45.
