data_PCOD8289656
_publ_section_title
;
Structure prediction by ZEFSAII (Michael W. Deem and Ramdas Pophale) SiO2 
 PCOD8289656
Probable space group: I M M M
;
_chemical_formula_sum "Si O2"
_cell_formula_units_Z 104
_cell_length_a 17.612857
_cell_length_b 19.190723
_cell_length_c 16.078537
_cell_angle_alpha 90.000000
_cell_angle_beta 90.000000
_cell_angle_gamma 90.000000
_cell_volume 5434.601137
_symmetry_space_group_name_H-M "I M M M"
_symmetry_group_IT_number 71
_symmetry_cell_setting 'orthorhombic'
loop_
_space_group_symop_operation_xyz
x,y,z
-x,-y,z
x,-y,-z
-x,y,-z
-x,-y,-z
x,y,-z
-x,y,z
x,-y,z
1/2+x,1/2+y,1/2+z
1/2-x,1/2-y,1/2+z
1/2+x,1/2-y,1/2-z
1/2-x,1/2+y,1/2-z
1/2-x,1/2-y,1/2-z
1/2+x,1/2+y,1/2-z
1/2-x,1/2+y,1/2+z
1/2+x,1/2-y,1/2+z
loop_
_atom_site_type_symbol
_atom_site_label
_atom_site_fract_x
_atom_site_fract_y
_atom_site_fract_z
Si Si1 0.673013 0.579691 0.241230
Si Si2 0.410690 0.189504 0.870654
Si Si3 0.584019 0.218013 0.405179
Si Si4 0.586330 0.617649 0.593944
Si Si5 0.301929 0.184367 0.273462
Si Si6 0.090466 0.421620 0.500000
Si Si7 0.089014 0.156304 0.408533
O O1 0.682664 0.500000 0.216225
O O2 0.636161 0.583727 0.333004
O O3 0.755748 0.614069 0.241662
O O4 0.625645 0.616127 0.168164
O O5 0.500000 0.186591 0.865024
O O6 0.377693 0.184075 0.779944
O O7 0.384840 0.262956 0.910384
O O8 0.379981 0.122850 0.921603
O O9 0.588776 0.194721 0.500000
O O10 0.500000 0.194981 0.370457
O O11 0.590680 0.300332 0.394503
O O12 0.659907 0.185537 0.364321
O O13 0.614984 0.597227 0.500000
O O14 0.500000 0.591294 0.604471
O O15 0.250000 0.250000 0.250000
O O16 0.125182 0.500000 0.500000
O O17 0.000000 0.425921 0.500000
O O18 0.110926 0.125237 0.500000
O O19 0.000000 0.150627 0.393755
#
# Coordination Sequence:
#
# PCOD8289656 Si02
#       7
#    16  16  16  16  16   8  16
#     4  12  26  40  53  82 126 160 196 247 303 354
#     4  10  19  36  62  87 114 151 197 241 282 345
#     4   9  18  36  64  93 115 143 195 255 296 339
#     4   9  18  36  62  88 116 154 199 242 291 356
#     4  12  22  37  58  87 116 157 197 237 293 355
#     4   9  18  34  58  90 121 147 182 234 292 341
#     4  10  20  37  62  88 113 151 202 244 284 348
#
# _framework density 19.136638000000001
#
# number of rings (size 3 to 8) (size 9 to 14) (size 15 to 20)
#    0.000    1.769    3.846    1.846    0.000    5.538 
#    2.769    1.538    0.000    1.385    0.000    1.077 
#    0.000    0.000    0.000    0.000    0.000    0.000 
#
# Total GULP energy -644339.071663 kJ/mol
# GULP energy per Si atom -12391.135994 kJ/mol
# Density = 1.909308 g / cm^3
# Si number density = 19.136638 Si / 1000 Ang^3
#
#
#
# Elastic Constant Matrix: (Units=GPa)
#
#
# Indices 1 2 3 4 5 6 
#
# 1 68.0129 40.6178 47.4002 0.0000 0.0000 0.0000
# 2 40.6178 113.7750 44.9758 0.0000 0.0000 0.0000
# 3 47.4002 44.9758 116.9521 0.0000 0.0000 0.0000
# 4 0.0000 0.0000 0.0000 21.3568 0.0000 0.0000
# 5 0.0000 0.0000 0.0000 0.0000 27.3663 0.0000
# 6 0.0000 0.0000 0.0000 0.0000 0.0000 18.8643
#
#
#
# Elastic Compliance Matrix: (Units=1/GPa)
#
#
# Indices 1 2 3 4 5 6 
#
# 1 0.022933 -0.005322 -0.007248 0.000000 0.000000 0.000000
# 2 -0.005322 0.011600 -0.002304 0.000000 0.000000 0.000000
# 3 -0.007248 -0.002304 0.012374 0.000000 0.000000 0.000000
# 4 0.000000 0.000000 0.000000 0.046824 0.000000 0.000000
# 5 0.000000 0.000000 0.000000 0.000000 0.036541 0.000000
# 6 0.000000 0.000000 0.000000 0.000000 0.000000 0.053010
#
#
# Mechanical properties :
#
#
# Convention : Reuss Voigt Hill
#
# Bulk Modulus (GPa) = 58.27795 62.74752 60.51273
# Shear Modulus (GPa) = 22.85727 24.56723 23.71225
#
# Velocity S-wave (km/s) = 3.45979 3.58687 3.52391
# Velocity P-wave (km/s) = 6.81762 7.07210 6.94603
#
# Compressibility (1/GPa) = 0.01715915
#
# Stress axis : x y z
#
# Youngs Moduli (GPa) = 43.60610 86.20712 80.81390
#
# Poissons Ratio (x) = 0.45878 0.58573
# Poissons Ratio (y) = 0.23206 0.18620
# Poissons Ratio (z) = 0.31605 0.19863
#
# Static dielectric constant tensor:
#      x y z
#    x 3.501200 0.000000 0.000000 
#    y 0.000000 3.408200 0.000000 
#    z 0.000000 0.000000 3.516170 
# 
# 
# High freq. dielectric constant tensor:
#      x y z
#    x 1.735070 0.000000 0.000000 
#    y 0.000000 1.717240 0.000000 
#    z 0.000000 0.000000 1.757670 
# 
# From -- ./inp_files/36685.got.cif
#   From: 2010.06.25/outbox.cif.g09.slc.cpg/sg71_19_cif.got.tgz:36685.got - 2010.06.28 04:59:45.
