data_PCOD8289522
_publ_section_title
;
Structure prediction by ZEFSAII (Michael W. Deem and Ramdas Pophale) SiO2 
 PCOD8289522
Probable space group: I M M M
;
_chemical_formula_sum "Si O2"
_cell_formula_units_Z 56
_cell_length_a 15.163599
_cell_length_b 19.709759
_cell_length_c 8.584450
_cell_angle_alpha 90.000000
_cell_angle_beta 90.000000
_cell_angle_gamma 90.000000
_cell_volume 2565.642142
_symmetry_space_group_name_H-M "I M M M"
_symmetry_group_IT_number 71
_symmetry_cell_setting 'orthorhombic'
loop_
_space_group_symop_operation_xyz
x,y,z
-x,-y,z
x,-y,-z
-x,y,-z
-x,-y,-z
x,y,-z
-x,y,z
x,-y,z
1/2+x,1/2+y,1/2+z
1/2-x,1/2-y,1/2+z
1/2+x,1/2-y,1/2-z
1/2-x,1/2+y,1/2-z
1/2-x,1/2-y,1/2-z
1/2+x,1/2+y,1/2-z
1/2-x,1/2+y,1/2+z
1/2+x,1/2-y,1/2+z
loop_
_atom_site_type_symbol
_atom_site_label
_atom_site_fract_x
_atom_site_fract_y
_atom_site_fract_z
Si Si1 0.500000 0.274692 0.817154
Si Si2 0.500000 0.127867 0.319263
Si Si3 0.174410 0.422698 0.319376
Si Si4 0.904854 0.000000 0.683944
Si Si5 0.167507 0.858227 0.683898
O O1 0.500000 0.196274 0.781409
O O2 0.408757 0.308039 0.750274
O O3 0.500000 0.290132 0.000000
O O4 0.500000 0.147209 0.500000
O O5 0.584888 0.083656 0.277767
O O6 0.153395 0.412420 0.500000
O O7 0.210313 0.500000 0.286954
O O8 0.236730 0.358147 0.267034
O O9 0.856890 0.933206 0.739111
O O10 0.914480 0.000000 0.500000
O O11 0.000000 0.000000 0.763684
O O12 0.179897 0.848354 0.500000
#
# Coordination Sequence:
#
# PCOD8289522 Si02
#       5
#     8   8  16   8  16
#     4  10  22  40  63  93 129 168 204 245 300 357
#     4  12  27  45  65  86 115 162 213 259 304 360
#     4  11  24  42  65  93 124 157 197 254 316 364
#     4   9  14  26  53  90 125 156 195 243 292 348
#     4  10  19  34  62  95 126 161 202 246 296 360
#
# _framework density 21.826893999999999
#
# number of rings (size 3 to 8) (size 9 to 14) (size 15 to 20)
#    0.000    1.571    2.857    2.571    0.000    5.714 
#    0.000    0.000    0.000    2.571    0.000    0.000 
#    0.000    0.000    0.000    0.000    0.000    0.000 
#
# Total GULP energy -346875.970876 kJ/mol
# GULP energy per Si atom -12388.427531 kJ/mol
# Density = 2.177722 g / cm^3
# Si number density = 21.826894 Si / 1000 Ang^3
#
#
#
# Elastic Constant Matrix: (Units=GPa)
#
#
# Indices 1 2 3 4 5 6 
#
# 1 121.5427 11.7017 31.5276 0.0000 0.0000 0.0000
# 2 11.7017 69.8685 11.4818 0.0000 0.0000 0.0000
# 3 31.5276 11.4818 49.3757 0.0000 0.0000 0.0000
# 4 0.0000 0.0000 0.0000 23.9909 0.0000 0.0000
# 5 0.0000 0.0000 0.0000 0.0000 18.9967 0.0000
# 6 0.0000 0.0000 0.0000 0.0000 0.0000 21.0692
#
#
#
# Elastic Compliance Matrix: (Units=1/GPa)
#
#
# Indices 1 2 3 4 5 6 
#
# 1 0.009889 -0.000643 -0.006165 0.000000 0.000000 0.000000
# 2 -0.000643 0.014923 -0.003060 0.000000 0.000000 0.000000
# 3 -0.006165 -0.003060 0.024901 0.000000 0.000000 0.000000
# 4 0.000000 0.000000 0.000000 0.041682 0.000000 0.000000
# 5 0.000000 0.000000 0.000000 0.000000 0.052641 0.000000
# 6 0.000000 0.000000 0.000000 0.000000 0.000000 0.047463
#
#
# Mechanical properties :
#
#
# Convention : Reuss Voigt Hill
#
# Bulk Modulus (GPa) = 33.35803 38.91212 36.13507
# Shear Modulus (GPa) = 22.60142 25.21641 23.90891
#
# Velocity S-wave (km/s) = 3.22139 3.40264 3.31325
# Velocity P-wave (km/s) = 5.39932 5.77093 5.58821
#
# Compressibility (1/GPa) = 0.02997779
#
# Stress axis : x y z
#
# Youngs Moduli (GPa) = 101.12723 67.01022 40.15974
#
# Poissons Ratio (x) = 0.04309 0.24757
# Poissons Ratio (y) = 0.06504 0.12287
# Poissons Ratio (z) = 0.62340 0.20502
#
# Static dielectric constant tensor:
#      x y z
#    x 4.449820 0.000000 0.000000 
#    y 0.000000 3.599150 0.000000 
#    z 0.000000 0.000000 3.485720 
# 
# 
# High freq. dielectric constant tensor:
#      x y z
#    x 1.880830 0.000000 0.000000 
#    y 0.000000 1.848860 0.000000 
#    z 0.000000 0.000000 1.825430 
# 
# From -- ./inp_files/5106.got.cif
#   From: 2010.06.25/outbox.cif.g09.slc.cpg/sg71_3_cif.got.tgz:5106.got - 2010.06.28 04:59:45.
