data_PCOD8289018
_publ_section_title
;
Structure prediction by ZEFSAII (Michael W. Deem and Ramdas Pophale) SiO2 
 PCOD8289018
Probable space group: I M M M
;
_chemical_formula_sum "Si O2"
_cell_formula_units_Z 88
_cell_length_a 25.562539
_cell_length_b 8.932798
_cell_length_c 20.678988
_cell_angle_alpha 90.000000
_cell_angle_beta 90.000000
_cell_angle_gamma 90.000000
_cell_volume 4721.943458
_symmetry_space_group_name_H-M "I M M M"
_symmetry_group_IT_number 71
_symmetry_cell_setting 'orthorhombic'
loop_
_space_group_symop_operation_xyz
x,y,z
-x,-y,z
x,-y,-z
-x,y,-z
-x,-y,-z
x,y,-z
-x,y,z
x,-y,z
1/2+x,1/2+y,1/2+z
1/2-x,1/2-y,1/2+z
1/2+x,1/2-y,1/2-z
1/2-x,1/2+y,1/2-z
1/2-x,1/2-y,1/2-z
1/2+x,1/2+y,1/2-z
1/2-x,1/2+y,1/2+z
1/2+x,1/2-y,1/2+z
loop_
_atom_site_type_symbol
_atom_site_label
_atom_site_fract_x
_atom_site_fract_y
_atom_site_fract_z
Si Si1 0.500000 0.678147 0.133879
Si Si2 0.000000 0.678000 0.226702
Si Si3 0.891667 0.177713 0.427019
Si Si4 0.938509 0.332138 0.000000
Si Si5 0.192831 0.170150 0.816712
Si Si6 0.701621 0.671708 0.834475
Si Si7 0.592391 0.177054 0.364416
O O1 0.500000 0.500000 0.137964
O O2 0.500000 0.743143 0.204980
O O3 0.551822 0.737157 0.096866
O O4 0.050927 0.736303 0.188114
O O5 0.000000 0.500000 0.236106
O O6 0.881404 0.236851 0.500000
O O7 0.845553 0.234458 0.379229
O O8 0.892476 0.000000 0.426005
O O9 0.919130 0.250086 0.065216
O O10 0.915536 0.500000 0.000000
O O11 0.000000 0.335975 0.000000
O O12 0.248153 0.224299 0.845075
O O13 0.186080 0.184341 0.740079
O O14 0.150449 0.278944 0.846482
O O15 0.184234 0.000000 0.839082
O O16 0.715071 0.500000 0.852550
O O17 0.586128 0.000000 0.368240
#
# Coordination Sequence:
#
# PCOD8289018 Si02
#       7
#     8   8  16   8  16  16  16
#     4  10  19  32  53  81 109 135 164 204 256 308
#     4  10  20  32  51  79 108 135 168 210 252 299
#     4   9  17  31  53  79 104 132 171 215 252 293
#     4   9  16  32  55  75  99 133 175 214 249 294
#     4  10  20  34  53  77 105 135 168 213 264 308
#     4   9  18  34  54  75 101 136 177 214 251 299
#     4  10  19  33  54  78 102 133 173 214 253 301
#
# _framework density 18.636393999999999
#
# number of rings (size 3 to 8) (size 9 to 14) (size 15 to 20)
#    0.000    2.455    0.909    1.909    0.000    4.000 
#    1.636    1.364    0.000    2.727    0.000    0.000 
#    0.000    0.000    0.000    0.000    0.000    0.000 
#
# Total GULP energy -545478.396388 kJ/mol
# GULP energy per Si atom -12397.236282 kJ/mol
# Density = 1.859398 g / cm^3
# Si number density = 18.636394 Si / 1000 Ang^3
#
#
#
# Elastic Constant Matrix: (Units=GPa)
#
#
# Indices 1 2 3 4 5 6 
#
# 1 133.9381 13.9873 73.0351 0.0000 0.0000 0.0000
# 2 13.9873 17.1323 17.7850 0.0000 0.0000 0.0000
# 3 73.0351 17.7850 124.6581 0.0000 0.0000 0.0000
# 4 0.0000 0.0000 0.0000 13.0597 0.0000 0.0000
# 5 0.0000 0.0000 0.0000 0.0000 13.0657 0.0000
# 6 0.0000 0.0000 0.0000 0.0000 0.0000 17.8626
#
#
#
# Elastic Compliance Matrix: (Units=1/GPa)
#
#
# Indices 1 2 3 4 5 6 
#
# 1 0.011077 -0.002708 -0.006104 0.000000 0.000000 0.000000
# 2 -0.002708 0.069179 -0.008283 0.000000 0.000000 0.000000
# 3 -0.006104 -0.008283 0.012780 0.000000 0.000000 0.000000
# 4 0.000000 0.000000 0.000000 0.076571 0.000000 0.000000
# 5 0.000000 0.000000 0.000000 0.000000 0.076536 0.000000
# 6 0.000000 0.000000 0.000000 0.000000 0.000000 0.055983
#
#
# Mechanical properties :
#
#
# Convention : Reuss Voigt Hill
#
# Bulk Modulus (GPa) = 16.99341 53.92703 35.46022
# Shear Modulus (GPa) = 14.04769 20.19235 17.12002
#
# Velocity S-wave (km/s) = 2.74848 3.29521 3.03418
# Velocity P-wave (km/s) = 4.38296 6.59372 5.59855
#
# Compressibility (1/GPa) = 0.05884635
#
# Stress axis : x y z
#
# Youngs Moduli (GPa) = 90.27602 14.45533 78.24879
#
# Poissons Ratio (x) = 0.03914 0.47760
# Poissons Ratio (y) = 0.24443 0.64817
# Poissons Ratio (z) = 0.55101 0.11974
#
# Static dielectric constant tensor:
#      x y z
#    x 3.489260 0.000000 0.000000 
#    y 0.000000 3.076080 0.000000 
#    z 0.000000 0.000000 4.339470 
# 
# 
# High freq. dielectric constant tensor:
#      x y z
#    x 1.732510 0.000000 0.000000 
#    y 0.000000 1.683660 0.000000 
#    z 0.000000 0.000000 1.729530 
# 
# From -- ./inp_files/55629.got.cif
#   From: 2010.06.25/outbox.cif.g09.slc.cpg/sg71_28_cif.got.tgz:55629.got - 2010.06.28 04:59:45.
