data_PCOD8289273
_publ_section_title
;
Structure prediction by ZEFSAII (Michael W. Deem and Ramdas Pophale) SiO2 
 PCOD8289273
Probable space group: I M M M
;
_chemical_formula_sum "Si O2"
_cell_formula_units_Z 104
_cell_length_a 29.642705
_cell_length_b 9.259391
_cell_length_c 20.642501
_cell_angle_alpha 90.000000
_cell_angle_beta 90.000000
_cell_angle_gamma 90.000000
_cell_volume 5665.817349
_symmetry_space_group_name_H-M "I M M M"
_symmetry_group_IT_number 71
_symmetry_cell_setting 'orthorhombic'
loop_
_space_group_symop_operation_xyz
x,y,z
-x,-y,z
x,-y,-z
-x,y,-z
-x,-y,-z
x,y,-z
-x,y,z
x,-y,z
1/2+x,1/2+y,1/2+z
1/2-x,1/2-y,1/2+z
1/2+x,1/2-y,1/2-z
1/2-x,1/2+y,1/2-z
1/2-x,1/2-y,1/2-z
1/2+x,1/2+y,1/2-z
1/2-x,1/2+y,1/2+z
1/2+x,1/2-y,1/2+z
loop_
_atom_site_type_symbol
_atom_site_label
_atom_site_fract_x
_atom_site_fract_y
_atom_site_fract_z
Si Si1 0.364419 0.164770 0.288737
Si Si2 0.715598 0.171251 0.927871
Si Si3 0.873922 0.334937 0.637873
Si Si4 0.051462 0.668018 0.873884
Si Si5 0.448669 0.333822 0.072479
Si Si6 0.446588 0.661899 0.500000
Si Si7 0.224084 0.172354 0.808785
O O1 0.362677 0.184499 0.212442
O O2 0.414300 0.204595 0.315341
O O3 0.327131 0.273550 0.316673
O O4 0.352183 0.000000 0.307825
O O5 0.667101 0.230715 0.904221
O O6 0.753209 0.219665 0.876545
O O7 0.713220 0.000000 0.929367
O O8 0.726433 0.232309 0.000000
O O9 0.882329 0.500000 0.619528
O O10 0.919379 0.250827 0.623904
O O11 0.052615 0.500000 0.892036
O O12 0.069755 0.755036 0.935987
O O13 0.000000 0.713063 0.854443
O O14 0.500000 0.311509 0.093660
O O15 0.435025 0.500000 0.074840
O O16 0.440762 0.273423 0.000000
O O17 0.426282 0.500000 0.500000
O O18 0.500000 0.657570 0.500000
O O19 0.250000 0.250000 0.750000
O O20 0.225896 0.000000 0.797686
#
# Coordination Sequence:
#
# PCOD8289273 Si02
#       7
#    16  16  16  16  16   8  16
#     4  10  21  37  56  82 112 140 180 226 271 325
#     4   9  18  34  56  81 108 138 176 223 272 319
#     4  10  19  33  55  80 105 137 180 227 268 316
#     4   9  18  34  56  79 108 147 184 221 272 331
#     4   9  19  35  51  71 106 146 179 217 267 319
#     4   9  17  31  53  79 107 139 181 231 273 319
#     4  11  21  37  60  82 111 149 185 223 274 331
#
# _framework density 18.355692999999999
#
# number of rings (size 3 to 8) (size 9 to 14) (size 15 to 20)
#    0.000    2.385    1.538    1.615    0.000    4.000 
#    1.385    2.308    0.000    4.154    0.000    0.000 
#    0.000    0.000    0.000    0.000    0.000    0.000 
#
# Total GULP energy -644697.779686 kJ/mol
# GULP energy per Si atom -12398.034225 kJ/mol
# Density = 1.831391 g / cm^3
# Si number density = 18.355693 Si / 1000 Ang^3
#
#
#
# Elastic Constant Matrix: (Units=GPa)
#
#
# Indices 1 2 3 4 5 6 
#
# 1 110.9019 49.1541 56.6205 0.0000 0.0000 0.0000
# 2 49.1541 61.0656 36.8033 0.0000 0.0000 0.0000
# 3 56.6205 36.8033 100.5146 0.0000 0.0000 0.0000
# 4 0.0000 0.0000 0.0000 16.1683 0.0000 0.0000
# 5 0.0000 0.0000 0.0000 0.0000 35.0104 0.0000
# 6 0.0000 0.0000 0.0000 0.0000 0.0000 32.7190
#
#
#
# Elastic Compliance Matrix: (Units=1/GPa)
#
#
# Indices 1 2 3 4 5 6 
#
# 1 0.016121 -0.009628 -0.005556 0.000000 0.000000 0.000000
# 2 -0.009628 0.026763 -0.004376 0.000000 0.000000 0.000000
# 3 -0.005556 -0.004376 0.014681 0.000000 0.000000 0.000000
# 4 0.000000 0.000000 0.000000 0.061850 0.000000 0.000000
# 5 0.000000 0.000000 0.000000 0.000000 0.028563 0.000000
# 6 0.000000 0.000000 0.000000 0.000000 0.000000 0.030563
#
#
# Mechanical properties :
#
#
# Convention : Reuss Voigt Hill
#
# Bulk Modulus (GPa) = 54.21365 61.95977 58.08671
# Shear Modulus (GPa) = 22.34068 25.43980 23.89024
#
# Velocity S-wave (km/s) = 3.49248 3.72685 3.61157
# Velocity P-wave (km/s) = 6.77218 7.23516 7.00750
#
# Compressibility (1/GPa) = 0.01844554
#
# Stress axis : x y z
#
# Youngs Moduli (GPa) = 62.03213 37.36513 68.11753
#
# Poissons Ratio (x) = 0.35975 0.37844
# Poissons Ratio (y) = 0.59724 0.29807
# Poissons Ratio (z) = 0.34463 0.16350
#
# Static dielectric constant tensor:
#      x y z
#    x 3.378900 0.000000 0.000000 
#    y 0.000000 3.285250 0.000000 
#    z 0.000000 0.000000 3.443820 
# 
# 
# High freq. dielectric constant tensor:
#      x y z
#    x 1.710910 0.000000 0.000000 
#    y 0.000000 1.694390 0.000000 
#    z 0.000000 0.000000 1.712270 
# 
# From -- ./inp_files/51168.got.cif
#   From: 2010.06.25/outbox.cif.g09.slc.cpg/sg71_26_cif.got.tgz:51168.got - 2010.06.28 04:59:45.
