data_PCOD8289659
_publ_section_title
;
Structure prediction by ZEFSAII (Michael W. Deem and Ramdas Pophale) SiO2 
 PCOD8289659
Probable space group: I M M M
;
_chemical_formula_sum "Si O2"
_cell_formula_units_Z 104
_cell_length_a 22.162033
_cell_length_b 8.390745
_cell_length_c 27.487682
_cell_angle_alpha 90.000000
_cell_angle_beta 90.000000
_cell_angle_gamma 90.000000
_cell_volume 5111.498503
_symmetry_space_group_name_H-M "I M M M"
_symmetry_group_IT_number 71
_symmetry_cell_setting 'orthorhombic'
loop_
_space_group_symop_operation_xyz
x,y,z
-x,-y,z
x,-y,-z
-x,y,-z
-x,-y,-z
x,y,-z
-x,y,z
x,-y,z
1/2+x,1/2+y,1/2+z
1/2-x,1/2-y,1/2+z
1/2+x,1/2-y,1/2-z
1/2-x,1/2+y,1/2-z
1/2-x,1/2-y,1/2-z
1/2+x,1/2+y,1/2-z
1/2-x,1/2+y,1/2+z
1/2+x,1/2-y,1/2+z
loop_
_atom_site_type_symbol
_atom_site_label
_atom_site_fract_x
_atom_site_fract_y
_atom_site_fract_z
Si Si1 0.500000 0.814175 0.679568
Si Si2 0.794815 0.188865 0.053730
Si Si3 0.621269 0.315538 0.182876
Si Si4 0.569234 0.188974 0.000000
Si Si5 0.876766 0.814716 0.140130
Si Si6 0.000000 0.309588 0.709266
Si Si7 0.338396 0.189346 0.082622
Si Si8 0.688406 0.183265 0.269791
O O1 0.558983 0.766892 0.649198
O O2 0.500000 0.744011 0.734678
O O3 0.500000 0.000000 0.686215
O O4 0.843541 0.257515 0.092284
O O5 0.726247 0.247046 0.062313
O O6 0.794835 0.000000 0.058166
O O7 0.815029 0.245214 0.000000
O O8 0.631354 0.500000 0.196458
O O9 0.552404 0.267935 0.177233
O O10 0.656566 0.276407 0.133951
O O11 0.640782 0.201368 0.226918
O O12 0.607123 0.246286 0.952729
O O13 0.500000 0.257573 0.000000
O O14 0.566325 0.000000 0.000000
O O15 0.831199 0.786876 0.184318
O O16 0.889618 0.000000 0.133835
O O17 0.000000 0.500000 0.706215
O O18 0.340573 0.000000 0.089638
O O19 0.750000 0.250000 0.250000
O O20 0.693628 0.000000 0.285660
#
# Coordination Sequence:
#
# PCOD8289659 Si02
#       8
#     8  16  16   8  16   8  16  16
#     4  11  23  41  64  88 121 164 207 252 315 387
#     4   9  18  36  62  92 121 156 206 259 309 364
#     4  12  25  39  58  88 124 158 197 247 303 364
#     4   9  18  32  55  89 119 158 214 261 301 364
#     4  11  22  37  63  93 122 159 206 260 317 377
#     4  11  23  41  63  85 114 162 209 250 301 370
#     4  10  19  36  62  88 122 164 211 258 306 365
#     4  12  24  40  60  87 123 161 202 247 301 362
#
# _framework density 20.346284000000001
#
# number of rings (size 3 to 8) (size 9 to 14) (size 15 to 20)
#    0.000    1.308    2.308    4.615    1.077    1.846 
#    0.000    1.538    0.000    6.462    0.000    0.000 
#    0.000    0.000    0.000    0.000    0.000    0.000 
#
# Total GULP energy -644751.858653 kJ/mol
# GULP energy per Si atom -12399.074205 kJ/mol
# Density = 2.029998 g / cm^3
# Si number density = 20.346284 Si / 1000 Ang^3
#
#
#
# Elastic Constant Matrix: (Units=GPa)
#
#
# Indices 1 2 3 4 5 6 
#
# 1 113.3038 13.2042 42.6458 0.0000 0.0000 0.0000
# 2 13.2042 48.8978 9.5237 0.0000 0.0000 0.0000
# 3 42.6458 9.5237 134.3927 0.0000 0.0000 0.0000
# 4 0.0000 0.0000 0.0000 23.9880 0.0000 0.0000
# 5 0.0000 0.0000 0.0000 0.0000 34.8575 0.0000
# 6 0.0000 0.0000 0.0000 0.0000 0.0000 26.2078
#
#
#
# Elastic Compliance Matrix: (Units=1/GPa)
#
#
# Indices 1 2 3 4 5 6 
#
# 1 0.010244 -0.002163 -0.003097 0.000000 0.000000 0.000000
# 2 -0.002163 0.021194 -0.000816 0.000000 0.000000 0.000000
# 3 -0.003097 -0.000816 0.008482 0.000000 0.000000 0.000000
# 4 0.000000 0.000000 0.000000 0.041688 0.000000 0.000000
# 5 0.000000 0.000000 0.000000 0.000000 0.028688 0.000000
# 6 0.000000 0.000000 0.000000 0.000000 0.000000 0.038157
#
#
# Mechanical properties :
#
#
# Convention : Reuss Voigt Hill
#
# Bulk Modulus (GPa) = 36.01343 47.48243 41.74793
# Shear Modulus (GPa) = 29.43628 32.42537 30.93083
#
# Velocity S-wave (km/s) = 3.80776 3.99642 3.90323
# Velocity P-wave (km/s) = 6.08857 6.68453 6.39350
#
# Compressibility (1/GPa) = 0.02776742
#
# Stress axis : x y z
#
# Youngs Moduli (GPa) = 97.62140 47.18379 117.90356
#
# Poissons Ratio (x) = 0.10205 0.36518
# Poissons Ratio (y) = 0.21115 0.09615
# Poissons Ratio (z) = 0.30236 0.03848
#
# Static dielectric constant tensor:
#      x y z
#    x 3.847150 0.000000 0.000000 
#    y 0.000000 3.419310 0.000000 
#    z 0.000000 0.000000 3.879820 
# 
# 
# High freq. dielectric constant tensor:
#      x y z
#    x 1.807640 0.000000 0.000000 
#    y 0.000000 1.771860 0.000000 
#    z 0.000000 0.000000 1.796360 
# 
# From -- ./inp_files/56312.got.cif
#   From: 2010.06.25/outbox.cif.g09.slc.cpg/sg71_29_cif.got.tgz:56312.got - 2010.06.28 04:59:45.
