data_PCOD8289185
_publ_section_title
;
Structure prediction by ZEFSAII (Michael W. Deem and Ramdas Pophale) SiO2 
 PCOD8289185
Probable space group: I M M M
;
_chemical_formula_sum "Si O2"
_cell_formula_units_Z 120
_cell_length_a 24.318251
_cell_length_b 9.603372
_cell_length_c 29.545510
_cell_angle_alpha 90.000000
_cell_angle_beta 90.000000
_cell_angle_gamma 90.000000
_cell_volume 6899.975995
_symmetry_space_group_name_H-M "I M M M"
_symmetry_group_IT_number 71
_symmetry_cell_setting 'orthorhombic'
loop_
_space_group_symop_operation_xyz
x,y,z
-x,-y,z
x,-y,-z
-x,y,-z
-x,-y,-z
x,y,-z
-x,y,z
x,-y,z
1/2+x,1/2+y,1/2+z
1/2-x,1/2-y,1/2+z
1/2+x,1/2-y,1/2-z
1/2-x,1/2+y,1/2-z
1/2-x,1/2-y,1/2-z
1/2+x,1/2+y,1/2-z
1/2-x,1/2+y,1/2+z
1/2+x,1/2-y,1/2+z
loop_
_atom_site_type_symbol
_atom_site_label
_atom_site_fract_x
_atom_site_fract_y
_atom_site_fract_z
Si Si1 0.562786 0.840634 0.748460
Si Si2 0.561575 0.665287 0.000000
Si Si3 0.746532 0.658035 0.294630
Si Si4 0.363537 0.664142 0.081747
Si Si5 0.758897 0.662517 0.947517
Si Si6 0.365853 0.158984 0.167871
Si Si7 0.561349 0.659436 0.661784
Si Si8 0.826253 0.161293 0.877780
O O1 0.500000 0.822359 0.763823
O O2 0.600888 0.785874 0.788811
O O3 0.576491 0.751835 0.704622
O O4 0.576779 0.000000 0.736589
O O5 0.594106 0.717128 0.043943
O O6 0.559971 0.500000 0.000000
O O7 0.500000 0.727883 0.000000
O O8 0.737000 0.500000 0.278413
O O9 0.750000 0.750000 0.250000
O O10 0.801593 0.673041 0.323347
O O11 0.698400 0.706852 0.328859
O O12 0.367735 0.500000 0.090115
O O13 0.302370 0.706688 0.066602
O O14 0.381985 0.742961 0.126621
O O15 0.768471 0.500000 0.938273
O O16 0.802916 0.747695 0.918518
O O17 0.768024 0.698850 0.000000
O O18 0.382369 0.000000 0.156679
O O19 0.500000 0.696006 0.642924
O O20 0.563689 0.500000 0.677990
O O21 0.607666 0.685820 0.623541
O O22 0.811457 0.000000 0.886985
#
# Coordination Sequence:
#
# PCOD8289185 Si02
#       8
#    16   8  16  16  16  16  16  16
#     4   9  18  32  49  69  97 137 178 209 243 292
#     4   9  18  34  55  77 101 129 166 213 260 302
#     4  10  20  31  45  69 101 134 167 205 248 296
#     4  10  19  33  53  74  97 129 168 209 254 301
#     4  10  20  35  55  78 103 131 167 212 258 307
#     4  10  20  33  47  68 101 135 166 206 254 297
#     4   9  18  33  53  76 103 133 166 208 249 289
#     4  10  20  34  52  77 105 132 168 207 251 310
#
# _framework density 17.391366000000001
#
# number of rings (size 3 to 8) (size 9 to 14) (size 15 to 20)
#    0.000    2.333    2.000    0.800    0.000    2.933 
#    0.000    0.333    0.000    0.800    0.000    2.800 
#    0.000    0.000    0.000    0.000    0.000    0.000 
#
# Total GULP energy -744016.333504 kJ/mol
# GULP energy per Si atom -12400.272225 kJ/mol
# Density = 1.735178 g / cm^3
# Si number density = 17.391366 Si / 1000 Ang^3
#
#
#
# Elastic Constant Matrix: (Units=GPa)
#
#
# Indices 1 2 3 4 5 6 
#
# 1 111.5679 36.0735 49.8387 0.0000 0.0000 0.0000
# 2 36.0735 54.0952 48.6664 0.0000 0.0000 0.0000
# 3 49.8387 48.6664 93.5614 0.0000 0.0000 0.0000
# 4 0.0000 0.0000 0.0000 35.3160 0.0000 0.0000
# 5 0.0000 0.0000 0.0000 0.0000 27.4330 0.0000
# 6 0.0000 0.0000 0.0000 0.0000 0.0000 20.9892
#
#
#
# Elastic Compliance Matrix: (Units=1/GPa)
#
#
# Indices 1 2 3 4 5 6 
#
# 1 0.012279 -0.004330 -0.004288 0.000000 0.000000 0.000000
# 2 -0.004330 0.036272 -0.016560 0.000000 0.000000 0.000000
# 3 -0.004288 -0.016560 0.021587 0.000000 0.000000 0.000000
# 4 0.000000 0.000000 0.000000 0.028316 0.000000 0.000000
# 5 0.000000 0.000000 0.000000 0.000000 0.036452 0.000000
# 6 0.000000 0.000000 0.000000 0.000000 0.000000 0.047643
#
#
# Mechanical properties :
#
#
# Convention : Reuss Voigt Hill
#
# Bulk Modulus (GPa) = 50.55765 58.70907 54.63336
# Shear Modulus (GPa) = 20.87678 25.05737 22.96707
#
# Velocity S-wave (km/s) = 3.46845 3.79990 3.63795
# Velocity P-wave (km/s) = 6.72115 7.28582 7.00917
#
# Compressibility (1/GPa) = 0.01977940
#
# Stress axis : x y z
#
# Youngs Moduli (GPa) = 81.44032 27.56945 46.32510
#
# Poissons Ratio (x) = 0.11938 0.19866
# Poissons Ratio (y) = 0.35265 0.76717
# Poissons Ratio (z) = 0.34925 0.45656
#
# Static dielectric constant tensor:
#      x y z
#    x 3.448390 0.000000 0.000000 
#    y 0.000000 3.162090 0.000000 
#    z 0.000000 0.000000 3.050640 
# 
# 
# High freq. dielectric constant tensor:
#      x y z
#    x 1.679770 0.000000 0.000000 
#    y 0.000000 1.662640 0.000000 
#    z 0.000000 0.000000 1.657090 
# 
# From -- ./inp_files/15601.got.cif
#   From: 2010.06.25/outbox.cif.g09.slc.cpg/sg71_8_cif.got.tgz:15601.got - 2010.06.28 04:59:45.
