data_PCOD8289192
_publ_section_title
;
Structure prediction by ZEFSAII (Michael W. Deem and Ramdas Pophale) SiO2 
 PCOD8289192
Probable space group: I M M M
;
_chemical_formula_sum "Si O2"
_cell_formula_units_Z 104
_cell_length_a 28.978094
_cell_length_b 20.660445
_cell_length_c 8.483215
_cell_angle_alpha 90.000000
_cell_angle_beta 90.000000
_cell_angle_gamma 90.000000
_cell_volume 5078.903512
_symmetry_space_group_name_H-M "I M M M"
_symmetry_group_IT_number 71
_symmetry_cell_setting 'orthorhombic'
loop_
_space_group_symop_operation_xyz
x,y,z
-x,-y,z
x,-y,-z
-x,y,-z
-x,-y,-z
x,y,-z
-x,y,z
x,-y,z
1/2+x,1/2+y,1/2+z
1/2-x,1/2-y,1/2+z
1/2+x,1/2-y,1/2-z
1/2-x,1/2+y,1/2-z
1/2-x,1/2-y,1/2-z
1/2+x,1/2+y,1/2-z
1/2-x,1/2+y,1/2+z
1/2+x,1/2-y,1/2+z
loop_
_atom_site_type_symbol
_atom_site_label
_atom_site_fract_x
_atom_site_fract_y
_atom_site_fract_z
Si Si1 0.449930 0.775403 0.676628
Si Si2 0.181375 0.866150 0.184469
Si Si3 0.213613 0.500000 0.823404
Si Si4 0.448605 0.622858 0.328591
Si Si5 0.784452 0.366179 0.686387
Si Si6 0.323358 0.500000 0.177196
Si Si7 0.356565 0.238107 0.816590
Si Si8 0.552645 0.424294 0.000000
O O1 0.441962 0.802170 0.500000
O O2 0.500000 0.801440 0.740569
O O3 0.452310 0.698978 0.675155
O O4 0.406342 0.795339 0.784387
O O5 0.232835 0.855390 0.256906
O O6 0.147369 0.807858 0.232040
O O7 0.159187 0.934292 0.239471
O O8 0.186515 0.868426 0.000000
O O9 0.195091 0.564465 0.738317
O O10 0.268504 0.500000 0.817223
O O11 0.194547 0.500000 0.000000
O O12 0.424709 0.602812 0.500000
O O13 0.500000 0.592242 0.329286
O O14 0.423399 0.599962 0.165002
O O15 0.784361 0.364256 0.500000
O O16 0.817200 0.309354 0.752587
O O17 0.343136 0.500000 0.000000
O O18 0.349850 0.249736 0.000000
O O19 0.555989 0.500000 0.000000
O O20 0.500000 0.398168 0.000000
#
# Coordination Sequence:
#
# PCOD8289192 Si02
#       8
#    16  16   8  16  16   8  16   8
#     4   9  19  36  55  73  95 128 170 216 267 321
#     4  10  19  33  53  75 107 149 184 218 263 315
#     4   9  17  29  51  79 106 143 182 215 253 306
#     4   8  15  28  45  63  85 114 149 193 247 305
#     4   9  19  34  51  77 113 148 179 212 258 316
#     4   9  17  31  51  75 104 139 184 227 263 311
#     4  11  22  33  51  81 110 138 176 223 272 316
#     4   9  16  24  40  66  88 110 146 191 247 311
#
# _framework density 20.476859999999999
#
# number of rings (size 3 to 8) (size 9 to 14) (size 15 to 20)
#    0.000    2.692    0.000    2.769    1.077    4.308 
#    0.000    1.538    1.692    0.000    0.000    0.538 
#    0.000    4.308    0.000    0.000    0.000    0.000 
#
# Total GULP energy -644255.000022 kJ/mol
# GULP energy per Si atom -12389.519231 kJ/mol
# Density = 2.043025 g / cm^3
# Si number density = 20.476860 Si / 1000 Ang^3
#
#
#
# Elastic Constant Matrix: (Units=GPa)
#
#
# Indices 1 2 3 4 5 6 
#
# 1 91.4827 20.7741 5.0513 0.0000 0.0000 0.0000
# 2 20.7741 66.1360 8.4585 0.0000 0.0000 0.0000
# 3 5.0513 8.4585 93.7354 0.0000 0.0000 0.0000
# 4 0.0000 0.0000 0.0000 23.7773 0.0000 0.0000
# 5 0.0000 0.0000 0.0000 0.0000 19.7786 0.0000
# 6 0.0000 0.0000 0.0000 0.0000 0.0000 -5.4473
#
#
#
# Elastic Compliance Matrix: (Units=1/GPa)
#
#
# Indices 1 2 3 4 5 6 
#
# 1 0.011779 -0.003661 -0.000304 0.000000 0.000000 0.000000
# 2 -0.003661 0.016435 -0.001286 0.000000 0.000000 0.000000
# 3 -0.000304 -0.001286 0.010801 0.000000 0.000000 0.000000
# 4 0.000000 0.000000 0.000000 0.042057 0.000000 0.000000
# 5 0.000000 0.000000 0.000000 0.000000 0.050560 0.000000
# 6 0.000000 0.000000 0.000000 0.000000 0.000000 -0.183576
#
#
# Mechanical properties :
#
#
# Convention : Reuss Voigt Hill
#
# Bulk Modulus (GPa) = 35.07256 35.54688 35.30972
# Shear Modulus (GPa) = -156.55500 22.09306 -67.23097
#
# Velocity S-wave (km/s) = -8.75332 3.28827 -5.73620
# Velocity P-wave (km/s) = 9.21931 5.64040 5.15662
#
# Compressibility (1/GPa) = 0.02851232
#
# Stress axis : x y z
#
# Youngs Moduli (GPa) = 84.89541 60.84654 92.58613
#
# Poissons Ratio (x) = 0.22276 0.02818
# Poissons Ratio (y) = 0.31081 0.11904
# Poissons Ratio (z) = 0.02584 0.07823
#
# Static dielectric constant tensor:
#      x y z
#    x 4.045920 0.000000 0.000000 
#    y 0.000000 3.500620 0.000000 
#    z 0.000000 0.000000 4.007280 
# 
# 
# High freq. dielectric constant tensor:
#      x y z
#    x 1.791330 0.000000 0.000000 
#    y 0.000000 1.757920 0.000000 
#    z 0.000000 0.000000 1.806260 
# 
# From -- ./inp_files/17073.got.cif
#   From: 2010.06.25/outbox.cif.g09.slc.cpg/sg71_9_cif.got.tgz:17073.got - 2010.06.28 04:59:45.
