data_PCOD8289776
_publ_section_title
;
Structure prediction by ZEFSAII (Michael W. Deem and Ramdas Pophale) SiO2 
 PCOD8289776
Probable space group: I M M M
;
_chemical_formula_sum "Si O2"
_cell_formula_units_Z 64
_cell_length_a 24.243102
_cell_length_b 15.716259
_cell_length_c 8.997384
_cell_angle_alpha 90.000000
_cell_angle_beta 90.000000
_cell_angle_gamma 90.000000
_cell_volume 3428.101106
_symmetry_space_group_name_H-M "I M M M"
_symmetry_group_IT_number 71
_symmetry_cell_setting 'orthorhombic'
loop_
_space_group_symop_operation_xyz
x,y,z
-x,-y,z
x,-y,-z
-x,y,-z
-x,-y,-z
x,y,-z
-x,y,z
x,-y,z
1/2+x,1/2+y,1/2+z
1/2-x,1/2-y,1/2+z
1/2+x,1/2-y,1/2-z
1/2-x,1/2+y,1/2-z
1/2-x,1/2-y,1/2-z
1/2+x,1/2+y,1/2-z
1/2-x,1/2+y,1/2+z
1/2+x,1/2-y,1/2+z
loop_
_atom_site_type_symbol
_atom_site_label
_atom_site_fract_x
_atom_site_fract_y
_atom_site_fract_z
Si Si1 0.500000 0.362969 0.675530
Si Si2 0.000000 0.682758 0.323323
Si Si3 0.773940 0.333826 0.676036
Si Si4 0.889297 0.404634 0.323475
Si Si5 0.209435 0.000000 0.823023
Si Si6 0.586658 0.500000 0.324326
O O1 0.500000 0.344634 0.500000
O O2 0.500000 0.277827 0.767196
O O3 0.554080 0.415565 0.725338
O O4 0.945707 0.635628 0.260612
O O5 0.000000 0.682668 0.500000
O O6 0.768739 0.324350 0.500000
O O7 0.750000 0.250000 0.750000
O O8 0.837464 0.346876 0.726198
O O9 0.740126 0.415616 0.734233
O O10 0.891290 0.409411 0.500000
O O11 0.882796 0.500000 0.259014
O O12 0.147744 0.000000 0.754883
O O13 0.209002 0.000000 0.000000
O O14 0.590230 0.500000 0.500000
#
# Coordination Sequence:
#
# PCOD8289776 Si02
#       6
#     8   8  16  16   8   8
#     4   9  18  33  51  72  98 128 165 208 245 288
#     4  10  20  31  51  77 100 126 164 209 250 290
#     4  10  20  34  54  78 104 133 169 211 253 301
#     4   9  17  33  53  73  98 132 171 205 240 293
#     4   9  17  32  54  75  98 135 174 204 245 306
#     4   8  16  31  50  70  95 130 170 202 235 289
#
# _framework density 18.669229000000001
#
# number of rings (size 3 to 8) (size 9 to 14) (size 15 to 20)
#    0.000    2.750    1.250    1.125    3.500    1.500 
#    0.000    1.875    0.000    4.500    0.000    0.000 
#    0.000    0.000    0.000    0.000    0.000    0.000 
#
# Total GULP energy -396708.197211 kJ/mol
# GULP energy per Si atom -12397.131163 kJ/mol
# Density = 1.862674 g / cm^3
# Si number density = 18.669229 Si / 1000 Ang^3
#
#
#
# Elastic Constant Matrix: (Units=GPa)
#
#
# Indices 1 2 3 4 5 6 
#
# 1 202.0019 97.6968 21.2136 0.0000 0.0000 0.0000
# 2 97.6968 174.6167 22.3501 0.0000 0.0000 0.0000
# 3 21.2136 22.3501 12.0705 0.0000 0.0000 0.0000
# 4 0.0000 0.0000 0.0000 31.0519 0.0000 0.0000
# 5 0.0000 0.0000 0.0000 0.0000 13.2105 0.0000
# 6 0.0000 0.0000 0.0000 0.0000 0.0000 18.8094
#
#
#
# Elastic Compliance Matrix: (Units=1/GPa)
#
#
# Indices 1 2 3 4 5 6 
#
# 1 0.007189 -0.003152 -0.006798 0.000000 0.000000 0.000000
# 2 -0.003152 0.008888 -0.010917 0.000000 0.000000 0.000000
# 3 -0.006798 -0.010917 0.115007 0.000000 0.000000 0.000000
# 4 0.000000 0.000000 0.000000 0.032204 0.000000 0.000000
# 5 0.000000 0.000000 0.000000 0.000000 0.075697 0.000000
# 6 0.000000 0.000000 0.000000 0.000000 0.000000 0.053165
#
#
# Mechanical properties :
#
#
# Convention : Reuss Voigt Hill
#
# Bulk Modulus (GPa) = 11.19192 74.57889 42.88540
# Shear Modulus (GPa) = 13.74884 29.10962 21.42923
#
# Velocity S-wave (km/s) = 2.71669 3.95299 3.39165
# Velocity P-wave (km/s) = 3.98101 7.80186 6.19344
#
# Compressibility (1/GPa) = 0.08935019
#
# Stress axis : x y z
#
# Youngs Moduli (GPa) = 139.10613 112.51540 8.69510
#
# Poissons Ratio (x) = 0.35465 0.05911
# Poissons Ratio (y) = 0.43846 0.09493
# Poissons Ratio (z) = 0.94561 1.22834
#
# Static dielectric constant tensor:
#      x y z
#    x 4.071610 0.000000 0.000000 
#    y 0.000000 3.469910 0.000000 
#    z 0.000000 0.000000 2.811560 
# 
# 
# High freq. dielectric constant tensor:
#      x y z
#    x 1.746230 0.000000 0.000000 
#    y 0.000000 1.735290 0.000000 
#    z 0.000000 0.000000 1.660630 
# 
# From -- ./inp_files/5948.got.cif
#   From: 2010.06.25/outbox.cif.g09.slc.cpg/sg71_3_cif.got.tgz:5948.got - 2010.06.28 04:59:45.
