data_PCOD8289238
_publ_section_title
;
Structure prediction by ZEFSAII (Michael W. Deem and Ramdas Pophale) SiO2 
 PCOD8289238
Probable space group: I M M M
;
_chemical_formula_sum "Si O2"
_cell_formula_units_Z 104
_cell_length_a 9.360639
_cell_length_b 27.524021
_cell_length_c 22.638340
_cell_angle_alpha 90.000000
_cell_angle_beta 90.000000
_cell_angle_gamma 90.000000
_cell_volume 5832.596802
_symmetry_space_group_name_H-M "I M M M"
_symmetry_group_IT_number 71
_symmetry_cell_setting 'orthorhombic'
loop_
_space_group_symop_operation_xyz
x,y,z
-x,-y,z
x,-y,-z
-x,y,-z
-x,-y,-z
x,y,-z
-x,y,z
x,-y,z
1/2+x,1/2+y,1/2+z
1/2-x,1/2-y,1/2+z
1/2+x,1/2-y,1/2-z
1/2-x,1/2+y,1/2-z
1/2-x,1/2-y,1/2-z
1/2+x,1/2+y,1/2-z
1/2-x,1/2+y,1/2+z
1/2+x,1/2-y,1/2+z
loop_
_atom_site_type_symbol
_atom_site_label
_atom_site_fract_x
_atom_site_fract_y
_atom_site_fract_z
Si Si1 0.663786 0.945012 0.234268
Si Si2 0.169570 0.555781 0.500000
Si Si3 0.842423 0.442614 0.934198
Si Si4 0.660949 0.708674 0.189934
Si Si5 0.668282 0.700062 0.325878
Si Si6 0.165188 0.388074 0.382859
Si Si7 0.661575 0.602500 0.834870
O O1 0.500000 0.941260 0.254359
O O2 0.683339 0.928656 0.167129
O O3 0.754030 0.910444 0.275942
O O4 0.719303 0.000000 0.240085
O O5 0.230597 0.500000 0.500000
O O6 0.221762 0.586289 0.557245
O O7 0.000000 0.552234 0.500000
O O8 0.839725 0.500000 0.932433
O O9 0.721023 0.423589 0.891911
O O10 0.000000 0.424353 0.914315
O O11 0.808987 0.423780 0.000000
O O12 0.500000 0.730118 0.190210
O O13 0.704662 0.693270 0.256689
O O14 0.766413 0.747050 0.158786
O O15 0.671252 0.659784 0.152024
O O16 0.500000 0.699203 0.338972
O O17 0.741716 0.659200 0.366493
O O18 0.000000 0.371800 0.389074
O O19 0.500000 0.585512 0.824881
#
# Coordination Sequence:
#
# PCOD8289238 Si02
#       7
#    16   8  16  16  16  16  16
#     4  10  20  32  48  74 107 141 176 213 257 313
#     4   9  18  34  57  83 109 143 191 237 272 317
#     4   9  19  36  55  74 101 139 178 212 248 299
#     4   9  19  34  51  76 108 137 170 210 259 315
#     4  10  19  33  54  78 105 136 171 213 261 317
#     4  10  19  33  55  79 106 141 181 225 272 317
#     4  11  21  33  51  78 108 136 168 214 266 311
#
# _framework density 17.830822999999999
#
# number of rings (size 3 to 8) (size 9 to 14) (size 15 to 20)
#    0.000    2.231    1.538    2.308    0.000    6.462 
#    0.000    1.154    1.692    1.846    0.000    0.000 
#    0.000    0.000    0.000    0.000    0.000    0.000 
#
# Total GULP energy -644699.357561 kJ/mol
# GULP energy per Si atom -12398.064568 kJ/mol
# Density = 1.779024 g / cm^3
# Si number density = 17.830823 Si / 1000 Ang^3
#
#
#
# Elastic Constant Matrix: (Units=GPa)
#
#
# Indices 1 2 3 4 5 6 
#
# 1 89.9898 54.6843 42.7118 0.0000 0.0000 0.0000
# 2 54.6843 96.8103 43.0781 0.0000 -0.0001 0.0000
# 3 42.7118 43.0781 87.4092 0.0001 -0.0004 0.0000
# 4 0.0000 0.0000 0.0001 20.1792 -0.0001 0.0000
# 5 0.0000 -0.0001 -0.0004 -0.0001 -102.4103 0.0000
# 6 0.0000 0.0000 0.0000 0.0000 0.0000 29.5155
#
#
#
# Elastic Compliance Matrix: (Units=1/GPa)
#
#
# Indices 1 2 3 4 5 6 
#
# 1 0.018467 -0.008218 -0.004974 0.000000 0.000000 0.000000
# 2 -0.008218 0.016888 -0.004307 0.000000 0.000000 0.000000
# 3 -0.004974 -0.004307 0.015994 0.000000 0.000000 0.000000
# 4 0.000000 0.000000 0.000000 0.049556 0.000000 0.000000
# 5 0.000000 0.000000 0.000000 0.000000 -0.009765 0.000000
# 6 0.000000 0.000000 0.000000 0.000000 0.000000 0.033880
#
#
# Mechanical properties :
#
#
# Convention : Reuss Voigt Hill
#
# Bulk Modulus (GPa) = 61.15975 61.68420 61.42197
# Shear Modulus (GPa) = 30.21721 -1.62743 14.29489
#
# Velocity S-wave (km/s) = 4.12109 -0.95639 2.83449
# Velocity P-wave (km/s) = 7.55109 5.78357 6.72565
#
# Compressibility (1/GPa) = 0.01635062
#
# Stress axis : x y z
#
# Youngs Moduli (GPa) = 54.15107 59.21295 62.52532
#
# Poissons Ratio (x) = 0.48662 0.31097
# Poissons Ratio (y) = 0.44502 0.26932
# Poissons Ratio (z) = 0.26932 0.25505
#
# Static dielectric constant tensor:
#      x y z
#    x 3.362030 0.000000 0.000000 
#    y 0.000000 3.338210 0.000000 
#    z 0.000000 0.000000 3.238510 
# 
# 
# High freq. dielectric constant tensor:
#      x y z
#    x 1.683960 0.000000 0.000000 
#    y 0.000000 1.692330 0.000000 
#    z 0.000000 0.000000 1.672360 
# 
# From -- ./inp_files/57991.got.cif
#   From: 2010.06.25/outbox.cif.g09.slc.cpg/sg71_29_cif.got.tgz:57991.got - 2010.06.28 04:59:45.
