data_PCOD8289174
_publ_section_title
;
Structure prediction by ZEFSAII (Michael W. Deem and Ramdas Pophale) SiO2 
 PCOD8289174
Probable space group: I M M M
;
_chemical_formula_sum "Si O2"
_cell_formula_units_Z 112
_cell_length_a 14.906690
_cell_length_b 27.123697
_cell_length_c 13.924359
_cell_angle_alpha 90.000000
_cell_angle_beta 90.000000
_cell_angle_gamma 90.000000
_cell_volume 5629.960087
_symmetry_space_group_name_H-M "I M M M"
_symmetry_group_IT_number 71
_symmetry_cell_setting 'orthorhombic'
loop_
_space_group_symop_operation_xyz
x,y,z
-x,-y,z
x,-y,-z
-x,y,-z
-x,-y,-z
x,y,-z
-x,y,z
x,-y,z
1/2+x,1/2+y,1/2+z
1/2-x,1/2-y,1/2+z
1/2+x,1/2-y,1/2-z
1/2-x,1/2+y,1/2-z
1/2-x,1/2-y,1/2-z
1/2+x,1/2+y,1/2-z
1/2-x,1/2+y,1/2+z
1/2+x,1/2-y,1/2+z
loop_
_atom_site_type_symbol
_atom_site_label
_atom_site_fract_x
_atom_site_fract_y
_atom_site_fract_z
Si Si1 0.600991 0.868168 0.105865
Si Si2 0.595211 0.809993 0.386598
Si Si3 0.646564 0.762006 0.891476
Si Si4 0.349593 0.706957 0.392065
Si Si5 0.733575 0.888077 0.614096
Si Si6 0.396552 0.659464 0.207816
Si Si7 0.895277 0.443753 0.237433
O O1 0.500000 0.884815 0.090218
O O2 0.603942 0.812762 0.150584
O O3 0.642604 0.908560 0.177370
O O4 0.649858 0.868446 0.000000
O O5 0.606687 0.812257 0.500000
O O6 0.500000 0.834281 0.354746
O O7 0.590901 0.752933 0.355894
O O8 0.678115 0.840878 0.344910
O O9 0.751690 0.769938 0.886824
O O10 0.617249 0.714204 0.833546
O O11 0.612675 0.753752 0.000000
O O12 0.372963 0.689065 0.500000
O O13 0.368761 0.661528 0.320528
O O14 0.742349 0.891275 0.500000
O O15 0.833956 0.881773 0.656842
O O16 0.674644 0.934952 0.649396
O O17 0.500000 0.642938 0.195506
O O18 0.885920 0.500000 0.271099
O O19 0.000000 0.432672 0.209453
#
# Coordination Sequence:
#
# PCOD8289174 Si02
#       7
#    16  16  16  16  16  16  16
#     4   9  18  32  52  81 117 155 190 225 274 339
#     4   9  17  30  48  71 101 139 181 223 270 324
#     4  10  19  33  52  77 113 155 196 235 273 321
#     4  10  20  34  50  73 108 148 192 238 280 325
#     4  11  23  39  56  78 110 147 189 237 288 341
#     4  12  24  35  54  82 115 158 199 235 275 329
#     4  10  22  39  61  89 115 142 185 242 301 356
#
# _framework density 19.893568999999999
#
# number of rings (size 3 to 8) (size 9 to 14) (size 15 to 20)
#    0.000    1.857    1.429    3.000    2.000    4.000 
#    0.000    2.143    0.000    0.429    0.000    1.000 
#    0.000    0.000    0.000    8.000    0.000    0.143 
#
# Total GULP energy -693885.537479 kJ/mol
# GULP energy per Si atom -12390.813169 kJ/mol
# Density = 1.984829 g / cm^3
# Si number density = 19.893569 Si / 1000 Ang^3
#
#
#
# Elastic Constant Matrix: (Units=GPa)
#
#
# Indices 1 2 3 4 5 6 
#
# 1 96.8566 21.1083 17.5841 0.0000 0.0000 0.0000
# 2 21.1083 69.3964 36.8004 0.0002 0.0000 0.0000
# 3 17.5841 36.8004 68.7204 0.0000 0.0000 -0.0001
# 4 0.0000 0.0002 0.0000 20.7368 0.0000 0.0000
# 5 0.0000 0.0000 0.0000 0.0000 18.0502 0.0000
# 6 0.0000 0.0000 -0.0001 0.0000 0.0000 10.6882
#
#
#
# Elastic Compliance Matrix: (Units=1/GPa)
#
#
# Indices 1 2 3 4 5 6 
#
# 1 0.011160 -0.002626 -0.001449 0.000000 0.000000 0.000000
# 2 -0.002626 0.020743 -0.010436 0.000000 0.000000 0.000000
# 3 -0.001449 -0.010436 0.020511 0.000000 0.000000 0.000000
# 4 0.000000 0.000000 0.000000 0.048224 0.000000 0.000000
# 5 0.000000 0.000000 0.000000 0.000000 0.055401 0.000000
# 6 0.000000 0.000000 0.000000 0.000000 0.000000 0.093561
#
#
# Mechanical properties :
#
#
# Convention : Reuss Voigt Hill
#
# Bulk Modulus (GPa) = 42.75103 42.88433 42.81768
# Shear Modulus (GPa) = 17.45691 20.52707 18.99199
#
# Velocity S-wave (km/s) = 2.96550 3.21572 3.09314
# Velocity P-wave (km/s) = 5.76733 5.94907 5.85891
#
# Compressibility (1/GPa) = 0.02339125
#
# Stress axis : x y z
#
# Youngs Moduli (GPa) = 89.60614 48.20939 48.75381
#
# Poissons Ratio (x) = 0.12659 0.07066
# Poissons Ratio (y) = 0.23530 0.50880
# Poissons Ratio (z) = 0.12988 0.50312
#
# Static dielectric constant tensor:
#      x y z
#    x 3.714440 0.000000 0.000000 
#    y 0.000000 3.284250 0.000000 
#    z 0.000000 0.000000 3.989880 
# 
# 
# High freq. dielectric constant tensor:
#      x y z
#    x 1.769660 0.000000 0.000000 
#    y 0.000000 1.718300 0.000000 
#    z 0.000000 0.000000 1.787970 
# 
# From -- ./inp_files/35083.got.cif
#   From: 2010.06.25/outbox.cif.g09.slc.cpg/sg71_18_cif.got.tgz:35083.got - 2010.06.28 04:59:45.
