data_PCOD8289029
_publ_section_title
;
Structure prediction by ZEFSAII (Michael W. Deem and Ramdas Pophale) SiO2 
 PCOD8289029
Probable space group: I M M M
;
_chemical_formula_sum "Si O2"
_cell_formula_units_Z 64
_cell_length_a 17.811193
_cell_length_b 9.352560
_cell_length_c 22.691521
_cell_angle_alpha 90.000000
_cell_angle_beta 90.000000
_cell_angle_gamma 90.000000
_cell_volume 3779.959268
_symmetry_space_group_name_H-M "I M M M"
_symmetry_group_IT_number 71
_symmetry_cell_setting 'orthorhombic'
loop_
_space_group_symop_operation_xyz
x,y,z
-x,-y,z
x,-y,-z
-x,y,-z
-x,-y,-z
x,y,-z
-x,y,z
x,-y,z
1/2+x,1/2+y,1/2+z
1/2-x,1/2-y,1/2+z
1/2+x,1/2-y,1/2-z
1/2-x,1/2+y,1/2-z
1/2-x,1/2-y,1/2-z
1/2+x,1/2+y,1/2-z
1/2-x,1/2+y,1/2+z
1/2+x,1/2-y,1/2+z
loop_
_atom_site_type_symbol
_atom_site_label
_atom_site_fract_x
_atom_site_fract_y
_atom_site_fract_z
Si Si1 0.000000 0.659555 0.756818
Si Si2 0.644020 0.666330 0.931770
Si Si3 0.291272 0.666633 0.568244
Si Si4 0.083033 0.339851 0.869695
Si Si5 0.000000 0.169206 0.639573
O O1 0.073731 0.679198 0.798663
O O2 0.000000 0.775052 0.705810
O O3 0.000000 0.500000 0.729420
O O4 0.659807 0.500000 0.920041
O O5 0.716324 0.753936 0.910439
O O6 0.573546 0.724043 0.894620
O O7 0.625921 0.695324 0.000000
O O8 0.307211 0.699871 0.500000
O O9 0.280812 0.500000 0.580392
O O10 0.361274 0.721715 0.605667
O O11 0.113043 0.500000 0.883916
O O12 0.000000 0.320000 0.898831
O O13 0.000000 0.000000 0.641370
#
# Coordination Sequence:
#
# PCOD8289029 Si02
#       5
#     8  16  16  16   8
#     4   8  18  35  52  72  98 129 165 206 245 288
#     4   9  18  33  52  74 102 132 162 199 242 293
#     4  10  20  32  48  75 106 131 160 201 248 293
#     4   8  17  34  53  71  96 131 169 203 238 289
#     4  10  19  32  54  79  97 124 167 207 247 292
#
# _framework density 16.931398999999999
#
# number of rings (size 3 to 8) (size 9 to 14) (size 15 to 20)
#    0.750    2.250    0.000    1.125    0.000    6.000 
#    0.000    3.750    0.000    3.750    0.000    0.000 
#    0.000    0.000    0.000    0.000    0.000    0.000 
#
# Total GULP energy -396633.625790 kJ/mol
# GULP energy per Si atom -12394.800806 kJ/mol
# Density = 1.689286 g / cm^3
# Si number density = 16.931399 Si / 1000 Ang^3
#
#
#
# Elastic Constant Matrix: (Units=GPa)
#
#
# Indices 1 2 3 4 5 6 
#
# 1 116.9110 54.4269 52.6759 0.0000 0.0000 0.0000
# 2 54.4269 64.3768 34.9464 0.0000 0.0000 0.0000
# 3 52.6759 34.9464 64.8698 0.0000 0.0000 0.0000
# 4 0.0000 0.0000 0.0000 29.8483 0.0000 0.0000
# 5 0.0000 0.0000 0.0000 0.0000 -38.8440 0.0000
# 6 0.0000 0.0000 0.0000 0.0000 0.0000 22.1208
#
#
#
# Elastic Compliance Matrix: (Units=1/GPa)
#
#
# Indices 1 2 3 4 5 6 
#
# 1 0.016881 -0.009654 -0.008507 0.000000 0.000000 0.000000
# 2 -0.009654 0.027474 -0.006962 0.000000 0.000000 0.000000
# 3 -0.008507 -0.006962 0.026074 0.000000 0.000000 0.000000
# 4 0.000000 0.000000 0.000000 0.033503 0.000000 0.000000
# 5 0.000000 0.000000 0.000000 0.000000 -0.025744 0.000000
# 6 0.000000 0.000000 0.000000 0.000000 0.000000 0.045206
#
#
# Mechanical properties :
#
#
# Convention : Reuss Voigt Hill
#
# Bulk Modulus (GPa) = 49.54442 58.91731 54.23087
# Shear Modulus (GPa) = 27.72137 9.56561 18.64349
#
# Velocity S-wave (km/s) = 4.05072 2.37947 3.32191
# Velocity P-wave (km/s) = 7.15564 6.51325 6.84198
#
# Compressibility (1/GPa) = 0.02018391
#
# Stress axis : x y z
#
# Youngs Moduli (GPa) = 59.23967 36.39756 38.35282
#
# Poissons Ratio (x) = 0.35137 0.32626
# Poissons Ratio (y) = 0.57188 0.26701
# Poissons Ratio (z) = 0.50394 0.25339
#
# Static dielectric constant tensor:
#      x y z
#    x 3.134520 0.000000 0.000000 
#    y 0.000000 3.047680 0.000000 
#    z 0.000000 0.000000 2.935250 
# 
# 
# High freq. dielectric constant tensor:
#      x y z
#    x 1.648810 0.000000 0.000000 
#    y 0.000000 1.652560 0.000000 
#    z 0.000000 0.000000 1.634070 
# 
# From -- ./inp_files/65106.got.cif
#   From: 2010.06.25/outbox.cif.g09.slc.cpg/sg71_33_cif.got.tgz:65106.got - 2010.06.28 04:59:45.
