data_PCOD8289395
_publ_section_title
;
Structure prediction by ZEFSAII (Michael W. Deem and Ramdas Pophale) SiO2 
 PCOD8289395
Probable space group: I M M M
;
_chemical_formula_sum "Si O2"
_cell_formula_units_Z 72
_cell_length_a 19.780071
_cell_length_b 12.835642
_cell_length_c 14.222456
_cell_angle_alpha 90.000000
_cell_angle_beta 90.000000
_cell_angle_gamma 90.000000
_cell_volume 3610.938075
_symmetry_space_group_name_H-M "I M M M"
_symmetry_group_IT_number 71
_symmetry_cell_setting 'orthorhombic'
loop_
_space_group_symop_operation_xyz
x,y,z
-x,-y,z
x,-y,-z
-x,y,-z
-x,-y,-z
x,y,-z
-x,y,z
x,-y,z
1/2+x,1/2+y,1/2+z
1/2-x,1/2-y,1/2+z
1/2+x,1/2-y,1/2-z
1/2-x,1/2+y,1/2-z
1/2-x,1/2-y,1/2-z
1/2+x,1/2+y,1/2-z
1/2-x,1/2+y,1/2+z
1/2+x,1/2-y,1/2+z
loop_
_atom_site_type_symbol
_atom_site_label
_atom_site_fract_x
_atom_site_fract_y
_atom_site_fract_z
Si Si1 0.920959 0.116805 0.200031
Si Si2 0.340159 0.230061 0.830668
Si Si3 0.920082 0.376214 0.500000
Si Si4 0.775156 0.382990 0.162788
Si Si5 0.381384 0.886816 0.500000
Si Si6 0.925855 0.832107 0.000000
O O1 0.889598 0.199403 0.269471
O O2 0.000000 0.141891 0.194425
O O3 0.906759 0.000000 0.236553
O O4 0.888380 0.129537 0.095024
O O5 0.283579 0.306256 0.874653
O O6 0.301717 0.145734 0.766632
O O7 0.384271 0.172089 0.908809
O O8 0.909639 0.500000 0.500000
O O9 0.000000 0.348241 0.500000
O O10 0.745728 0.500000 0.166989
O O11 0.836756 0.375508 0.092288
O O12 0.434547 0.793466 0.500000
O O13 0.418078 0.000000 0.500000
O O14 0.000000 0.883048 0.000000
#
# Coordination Sequence:
#
# PCOD8289395 Si02
#       6
#    16  16   8  16   8   8
#     4  10  20  35  57  85 117 151 189 235 289 349
#     4  11  21  38  62  83 119 152 199 242 291 346
#     4  11  25  44  64  87 117 159 209 256 299 347
#     4  10  21  36  59  87 117 152 186 235 295 352
#     4  10  19  35  54  80 116 144 179 226 285 350
#     4  10  19  34  54  81 116 149 182 227 286 346
#
# _framework density 19.939416000000001
#
# number of rings (size 3 to 8) (size 9 to 14) (size 15 to 20)
#    0.000    1.667    2.222    3.000    0.000    1.556 
#    0.000    1.667    0.000    4.000    0.000    0.000 
#    0.000    0.000    0.000    0.000    0.000    0.000 
#
# Total GULP energy -446249.384720 kJ/mol
# GULP energy per Si atom -12395.816242 kJ/mol
# Density = 1.989403 g / cm^3
# Si number density = 19.939416 Si / 1000 Ang^3
#
#
#
# Elastic Constant Matrix: (Units=GPa)
#
#
# Indices 1 2 3 4 5 6 
#
# 1 65.3637 32.8892 28.6987 0.0000 0.0000 0.0000
# 2 32.8892 116.5396 36.0501 0.0000 0.0000 0.0000
# 3 28.6987 36.0501 100.3790 0.0000 0.0000 0.0000
# 4 0.0000 0.0000 0.0000 47.3734 0.0000 0.0000
# 5 0.0000 0.0000 0.0000 0.0000 26.5033 0.0000
# 6 0.0000 0.0000 0.0000 0.0000 0.0000 33.8485
#
#
#
# Elastic Compliance Matrix: (Units=1/GPa)
#
#
# Indices 1 2 3 4 5 6 
#
# 1 0.019144 -0.004173 -0.003975 0.000000 0.000000 0.000000
# 2 -0.004173 0.010563 -0.002600 0.000000 0.000000 0.000000
# 3 -0.003975 -0.002600 0.012032 0.000000 0.000000 0.000000
# 4 0.000000 0.000000 0.000000 0.021109 0.000000 0.000000
# 5 0.000000 0.000000 0.000000 0.000000 0.037731 0.000000
# 6 0.000000 0.000000 0.000000 0.000000 0.000000 0.029543
#
#
# Mechanical properties :
#
#
# Convention : Reuss Voigt Hill
#
# Bulk Modulus (GPa) = 49.39988 53.06203 51.23096
# Shear Modulus (GPa) = 31.57224 33.85465 32.71344
#
# Velocity S-wave (km/s) = 3.98352 4.12500 4.05488
# Velocity P-wave (km/s) = 6.78135 7.02545 6.90448
#
# Compressibility (1/GPa) = 0.02024296
#
# Stress axis : x y z
#
# Youngs Moduli (GPa) = 52.23586 94.67064 83.10826
#
# Poissons Ratio (x) = 0.39508 0.33032
# Poissons Ratio (y) = 0.21799 0.21612
# Poissons Ratio (z) = 0.20761 0.24618
#
# Static dielectric constant tensor:
#      x y z
#    x 3.495350 0.000000 0.000000 
#    y 0.000000 3.903640 0.000000 
#    z 0.000000 0.000000 3.672070 
# 
# 
# High freq. dielectric constant tensor:
#      x y z
#    x 1.764390 0.000000 0.000000 
#    y 0.000000 1.795880 0.000000 
#    z 0.000000 0.000000 1.778120 
# 
# From -- ./inp_files/36096.got.cif
#   From: 2010.06.25/outbox.cif.g09.slc.cpg/sg71_19_cif.got.tgz:36096.got - 2010.06.28 04:59:45.
