data_PCOD8289015
_publ_section_title
;
Structure prediction by ZEFSAII (Michael W. Deem and Ramdas Pophale) SiO2 
 PCOD8289015
Probable space group: I M M M
;
_chemical_formula_sum "Si O2"
_cell_formula_units_Z 112
_cell_length_a 13.714271
_cell_length_b 23.490864
_cell_length_c 17.434717
_cell_angle_alpha 90.000000
_cell_angle_beta 90.000000
_cell_angle_gamma 90.000000
_cell_volume 5616.769735
_symmetry_space_group_name_H-M "I M M M"
_symmetry_group_IT_number 71
_symmetry_cell_setting 'orthorhombic'
loop_
_space_group_symop_operation_xyz
x,y,z
-x,-y,z
x,-y,-z
-x,y,-z
-x,-y,-z
x,y,-z
-x,y,z
x,-y,z
1/2+x,1/2+y,1/2+z
1/2-x,1/2-y,1/2+z
1/2+x,1/2-y,1/2-z
1/2-x,1/2+y,1/2-z
1/2-x,1/2-y,1/2-z
1/2+x,1/2+y,1/2-z
1/2-x,1/2+y,1/2+z
1/2+x,1/2-y,1/2+z
loop_
_atom_site_type_symbol
_atom_site_label
_atom_site_fract_x
_atom_site_fract_y
_atom_site_fract_z
Si Si1 0.795962 0.935851 0.911959
Si Si2 0.888671 0.832080 0.341826
Si Si3 0.212190 0.065534 0.411208
Si Si4 0.109293 0.435156 0.807212
Si Si5 0.888384 0.830419 0.837292
Si Si6 0.210850 0.726865 0.590170
Si Si7 0.111570 0.618857 0.352673
O O1 0.862852 0.894954 0.860904
O O2 0.681792 0.920037 0.904438
O O3 0.813306 0.000000 0.883050
O O4 0.826988 0.929059 0.000000
O O5 0.867580 0.896595 0.367623
O O6 0.868130 0.824290 0.252407
O O7 0.817336 0.790996 0.389218
O O8 0.000000 0.817610 0.362092
O O9 0.215784 0.081994 0.500000
O O10 0.318830 0.078530 0.376899
O O11 0.181952 0.000000 0.399059
O O12 0.122110 0.500000 0.777984
O O13 0.132553 0.393595 0.736540
O O14 0.000000 0.424792 0.838007
O O15 0.821139 0.785684 0.882636
O O16 0.000000 0.816972 0.858143
O O17 0.204042 0.716432 0.500000
O O18 0.135263 0.685021 0.633053
O O19 0.000000 0.605165 0.374584
#
# Coordination Sequence:
#
# PCOD8289015 Si02
#       7
#    16  16  16  16  16  16  16
#     4  10  21  35  53  82 119 155 190 232 282 333
#     4  11  24  41  61  84 112 147 185 227 277 334
#     4  10  21  37  58  83 111 145 186 234 284 333
#     4   9  18  33  54  80 111 148 187 229 278 329
#     4  10  22  40  62  86 112 147 190 233 276 326
#     4  11  23  39  60  84 113 147 182 227 281 334
#     4  10  19  32  53  80 111 150 192 231 275 330
#
# _framework density 19.940287000000001
#
# number of rings (size 3 to 8) (size 9 to 14) (size 15 to 20)
#    0.000    1.857    0.000    5.143    0.000    7.429 
#    0.000    7.143    0.000    1.714    0.000    0.000 
#    0.000    0.000    0.000    0.000    0.000    0.000 
#
# Total GULP energy -694589.602472 kJ/mol
# GULP energy per Si atom -12403.385758 kJ/mol
# Density = 1.989490 g / cm^3
# Si number density = 19.940287 Si / 1000 Ang^3
#
#
#
# Elastic Constant Matrix: (Units=GPa)
#
#
# Indices 1 2 3 4 5 6 
#
# 1 106.6109 44.2476 45.6007 0.0000 0.0000 0.0000
# 2 44.2476 94.3300 31.2862 0.0000 0.0000 0.0000
# 3 45.6007 31.2862 75.6863 0.0002 0.0000 0.0000
# 4 0.0000 0.0000 0.0002 35.4795 0.0000 0.0000
# 5 0.0000 0.0000 0.0000 0.0000 19.2250 0.0000
# 6 0.0000 0.0000 0.0000 0.0000 0.0000 22.4425
#
#
#
# Elastic Compliance Matrix: (Units=1/GPa)
#
#
# Indices 1 2 3 4 5 6 
#
# 1 0.014043 -0.004382 -0.006649 0.000000 0.000000 0.000000
# 2 -0.004382 0.013653 -0.003004 0.000000 0.000000 0.000000
# 3 -0.006649 -0.003004 0.018460 0.000000 0.000000 0.000000
# 4 0.000000 0.000000 0.000000 0.028185 0.000000 0.000000
# 5 0.000000 0.000000 0.000000 0.000000 0.052016 0.000000
# 6 0.000000 0.000000 0.000000 0.000000 0.000000 0.044558
#
#
# Mechanical properties :
#
#
# Convention : Reuss Voigt Hill
#
# Bulk Modulus (GPa) = 55.29081 57.65513 56.47297
# Shear Modulus (GPa) = 24.38875 25.79559 25.09217
#
# Velocity S-wave (km/s) = 3.50106 3.60063 3.55119
# Velocity P-wave (km/s) = 6.64317 6.80167 6.72288
#
# Compressibility (1/GPa) = 0.01808619
#
# Stress axis : x y z
#
# Youngs Moduli (GPa) = 71.21195 73.24631 54.17042
#
# Poissons Ratio (x) = 0.32094 0.36020
# Poissons Ratio (y) = 0.31202 0.16271
# Poissons Ratio (z) = 0.47352 0.22000
#
# Static dielectric constant tensor:
#      x y z
#    x 3.641620 0.000000 0.000000 
#    y 0.000000 3.606460 0.000000 
#    z 0.000000 0.000000 3.571760 
# 
# 
# High freq. dielectric constant tensor:
#      x y z
#    x 1.777910 0.000000 0.000000 
#    y 0.000000 1.776370 0.000000 
#    z 0.000000 0.000000 1.780150 
# 
# From -- ./inp_files/34863.got.cif
#   From: 2010.06.25/outbox.cif.g09.slc.cpg/sg71_18_cif.got.tgz:34863.got - 2010.06.28 04:59:45.
