data_PCOD8289364
_publ_section_title
;
Structure prediction by ZEFSAII (Michael W. Deem and Ramdas Pophale) SiO2 
 PCOD8289364
Probable space group: I M M M
;
_chemical_formula_sum "Si O2"
_cell_formula_units_Z 88
_cell_length_a 19.274795
_cell_length_b 8.694853
_cell_length_c 27.581426
_cell_angle_alpha 90.000000
_cell_angle_beta 90.000000
_cell_angle_gamma 90.000000
_cell_volume 4622.412807
_symmetry_space_group_name_H-M "I M M M"
_symmetry_group_IT_number 71
_symmetry_cell_setting 'orthorhombic'
loop_
_space_group_symop_operation_xyz
x,y,z
-x,-y,z
x,-y,-z
-x,y,-z
-x,-y,-z
x,y,-z
-x,y,z
x,-y,z
1/2+x,1/2+y,1/2+z
1/2-x,1/2-y,1/2+z
1/2+x,1/2-y,1/2-z
1/2-x,1/2+y,1/2-z
1/2-x,1/2-y,1/2-z
1/2+x,1/2+y,1/2-z
1/2-x,1/2+y,1/2+z
1/2+x,1/2-y,1/2+z
loop_
_atom_site_type_symbol
_atom_site_label
_atom_site_fract_x
_atom_site_fract_y
_atom_site_fract_z
Si Si1 0.419729 0.821787 0.186646
Si Si2 0.804323 0.316729 0.121861
Si Si3 0.849244 0.818691 0.594960
Si Si4 0.319033 0.818779 0.729583
Si Si5 0.579881 0.817753 0.000000
Si Si6 0.923789 0.682913 0.054183
O O1 0.500000 0.791840 0.195519
O O2 0.395418 0.720943 0.141450
O O3 0.382532 0.767079 0.236200
O O4 0.403734 0.000000 0.175169
O O5 0.804020 0.500000 0.120667
O O6 0.728789 0.256915 0.104937
O O7 0.826279 0.255818 0.174935
O O8 0.862851 0.245961 0.086754
O O9 0.880516 0.740240 0.547493
O O10 0.849881 0.000000 0.586431
O O11 0.250000 0.750000 0.750000
O O12 0.312230 0.000000 0.728682
O O13 0.500000 0.758236 0.000000
O O14 0.581048 0.000000 0.000000
O O15 0.918822 0.500000 0.054409
O O16 0.000000 0.733180 0.073636
O O17 0.913115 0.745947 0.000000
#
# Coordination Sequence:
#
# PCOD8289364 Si02
#       6
#    16  16  16  16   8  16
#     4  10  21  36  55  79 109 147 186 224 270 325
#     4   9  18  30  48  76 109 140 175 221 267 312
#     4  11  22  36  57  84 111 142 180 225 276 326
#     4  10  19  34  53  75 106 142 179 220 266 315
#     4  11  25  43  59  77 108 145 182 226 273 325
#     4   8  14  25  43  69 103 139 168 202 257 316
#
# _framework density 19.037676000000001
#
# number of rings (size 3 to 8) (size 9 to 14) (size 15 to 20)
#    0.000    2.273    1.818    1.909    1.273    4.000 
#    0.000    3.636    0.000    0.000    0.000    0.000 
#    0.000    3.636    0.000    0.000    0.000    0.000 
#
# Total GULP energy -545470.799661 kJ/mol
# GULP energy per Si atom -12397.063629 kJ/mol
# Density = 1.899435 g / cm^3
# Si number density = 19.037676 Si / 1000 Ang^3
#
#
#
# Elastic Constant Matrix: (Units=GPa)
#
#
# Indices 1 2 3 4 5 6 
#
# 1 162.5233 21.8603 99.6157 0.0000 0.0000 0.0000
# 2 21.8603 24.5267 25.1514 0.0000 0.0000 0.0000
# 3 99.6157 25.1514 168.8060 0.0000 0.0000 0.0000
# 4 0.0000 0.0000 0.0000 13.4085 0.0000 0.0000
# 5 0.0000 0.0000 0.0000 0.0000 43.7033 0.0000
# 6 0.0000 0.0000 0.0000 0.0000 0.0000 19.0500
#
#
#
# Elastic Compliance Matrix: (Units=1/GPa)
#
#
# Indices 1 2 3 4 5 6 
#
# 1 0.009865 -0.003332 -0.005325 0.000000 0.000000 0.000000
# 2 -0.003332 0.049250 -0.005372 0.000000 0.000000 0.000000
# 3 -0.005325 -0.005372 0.009867 0.000000 0.000000 0.000000
# 4 0.000000 0.000000 0.000000 0.074579 0.000000 0.000000
# 5 0.000000 0.000000 0.000000 0.000000 0.022882 0.000000
# 6 0.000000 0.000000 0.000000 0.000000 0.000000 0.052494
#
#
# Mechanical properties :
#
#
# Convention : Reuss Voigt Hill
#
# Bulk Modulus (GPa) = 24.43531 72.12343 48.27937
# Shear Modulus (GPa) = 19.18386 29.18093 24.18239
#
# Velocity S-wave (km/s) = 3.17784 3.91934 3.56791
# Velocity P-wave (km/s) = 5.13108 7.64516 6.51063
#
# Compressibility (1/GPa) = 0.04092439
#
# Stress axis : x y z
#
# Youngs Moduli (GPa) = 101.36794 20.30445 101.34975
#
# Poissons Ratio (x) = 0.06765 0.53970
# Poissons Ratio (y) = 0.33774 0.54444
# Poissons Ratio (z) = 0.53980 0.10907
#
# Static dielectric constant tensor:
#      x y z
#    x 4.124120 0.000000 0.000000 
#    y 0.000000 3.137620 0.000000 
#    z 0.000000 0.000000 3.796990 
# 
# 
# High freq. dielectric constant tensor:
#      x y z
#    x 1.754240 0.000000 0.000000 
#    y 0.000000 1.698600 0.000000 
#    z 0.000000 0.000000 1.753600 
# 
# From -- ./inp_files/12564.got.cif
#   From: 2010.06.25/outbox.cif.g09.slc.cpg/sg71_7_cif.got.tgz:12564.got - 2010.06.28 04:59:45.
