data_PCOD8289333
_publ_section_title
;
Structure prediction by ZEFSAII (Michael W. Deem and Ramdas Pophale) SiO2 
 PCOD8289333
Probable space group: I M M M
;
_chemical_formula_sum "Si O2"
_cell_formula_units_Z 80
_cell_length_a 23.071611
_cell_length_b 21.303053
_cell_length_c 7.914308
_cell_angle_alpha 90.000000
_cell_angle_beta 90.000000
_cell_angle_gamma 90.000000
_cell_volume 3889.848761
_symmetry_space_group_name_H-M "I M M M"
_symmetry_group_IT_number 71
_symmetry_cell_setting 'orthorhombic'
loop_
_space_group_symop_operation_xyz
x,y,z
-x,-y,z
x,-y,-z
-x,y,-z
-x,-y,-z
x,y,-z
-x,y,z
x,-y,z
1/2+x,1/2+y,1/2+z
1/2-x,1/2-y,1/2+z
1/2+x,1/2-y,1/2-z
1/2-x,1/2+y,1/2-z
1/2-x,1/2-y,1/2-z
1/2+x,1/2+y,1/2-z
1/2-x,1/2+y,1/2+z
1/2+x,1/2-y,1/2+z
loop_
_atom_site_type_symbol
_atom_site_label
_atom_site_fract_x
_atom_site_fract_y
_atom_site_fract_z
Si Si1 0.132415 0.380300 0.200204
Si Si2 0.565152 0.242525 0.195438
Si Si3 0.374866 0.630021 0.197795
Si Si4 0.061610 0.928295 0.000000
Si Si5 0.564028 0.000000 0.298870
Si Si6 0.753591 0.071099 0.697049
O O1 0.103492 0.318155 0.271523
O O2 0.095473 0.438408 0.269466
O O3 0.197475 0.392267 0.270360
O O4 0.131402 0.375446 0.000000
O O5 0.500000 0.240105 0.280348
O O6 0.604540 0.300902 0.257061
O O7 0.554506 0.250554 0.000000
O O8 0.406248 0.583371 0.323984
O O9 0.307007 0.617760 0.232682
O O10 0.389825 0.616161 0.000000
O O11 0.000000 0.891317 0.000000
O O12 0.047905 0.000000 0.000000
O O13 0.500000 0.000000 0.222788
O O14 0.563782 0.000000 0.500000
O O15 0.743862 0.061424 0.500000
O O16 0.761245 0.000000 0.774651
#
# Coordination Sequence:
#
# PCOD8289333 Si02
#       6
#    16  16  16   8   8  16
#     4  10  19  33  57  87 114 151 201 251 305 361
#     4  10  22  39  56  80 118 160 204 249 300 367
#     4  10  22  41  64  89 122 168 204 248 309 367
#     4  11  24  40  62  96 128 155 205 263 303 361
#     4   9  16  28  49  81 117 149 193 250 304 357
#     4   9  17  34  60  87 118 154 197 249 305 369
#
# _framework density 20.566351000000001
#
# number of rings (size 3 to 8) (size 9 to 14) (size 15 to 20)
#    0.000    2.200    1.000    1.800    1.400    4.400 
#    1.800    1.500    0.000    1.800    0.000    0.000 
#    0.000    0.000    0.000    0.000    0.000    0.000 
#
# Total GULP energy -495585.095991 kJ/mol
# GULP energy per Si atom -12389.627400 kJ/mol
# Density = 2.051954 g / cm^3
# Si number density = 20.566351 Si / 1000 Ang^3
#
#
#
# Elastic Constant Matrix: (Units=GPa)
#
#
# Indices 1 2 3 4 5 6 
#
# 1 205.2003 88.1103 26.8604 0.0000 0.0000 0.0000
# 2 88.1103 144.6076 11.7905 0.0000 0.0000 0.0000
# 3 26.8604 11.7905 38.3555 0.0000 0.0000 0.0000
# 4 0.0000 0.0000 0.0000 21.0192 0.0000 0.0000
# 5 0.0000 0.0000 0.0000 0.0000 18.6370 0.0000
# 6 0.0000 0.0000 0.0000 0.0000 0.0000 40.2614
#
#
#
# Elastic Compliance Matrix: (Units=1/GPa)
#
#
# Indices 1 2 3 4 5 6 
#
# 1 0.007084 -0.004012 -0.003728 0.000000 0.000000 0.000000
# 2 -0.004012 0.009366 -0.000069 0.000000 0.000000 0.000000
# 3 -0.003728 -0.000069 0.028704 0.000000 0.000000 0.000000
# 4 0.000000 0.000000 0.000000 0.047576 0.000000 0.000000
# 5 0.000000 0.000000 0.000000 0.000000 0.053657 0.000000
# 6 0.000000 0.000000 0.000000 0.000000 0.000000 0.024838
#
#
# Mechanical properties :
#
#
# Convention : Reuss Voigt Hill
#
# Bulk Modulus (GPa) = 33.85800 71.29843 52.57821
# Shear Modulus (GPa) = 25.42112 33.41033 29.41573
#
# Velocity S-wave (km/s) = 3.51957 4.03490 3.78601
# Velocity P-wave (km/s) = 5.74587 7.51332 6.68824
#
# Compressibility (1/GPa) = 0.02953512
#
# Stress axis : x y z
#
# Youngs Moduli (GPa) = 141.16074 106.77238 34.83887
#
# Poissons Ratio (x) = 0.42842 0.12987
# Poissons Ratio (y) = 0.56640 0.00241
# Poissons Ratio (z) = 0.52619 0.00738
#
# Static dielectric constant tensor:
#      x y z
#    x 4.136530 0.000000 0.000000 
#    y 0.000000 3.852750 0.000000 
#    z 0.000000 0.000000 3.441880 
# 
# 
# High freq. dielectric constant tensor:
#      x y z
#    x 1.822300 0.000000 0.000000 
#    y 0.000000 1.805500 0.000000 
#    z 0.000000 0.000000 1.775720 
# 
# From -- ./inp_files/12398.got.cif
#   From: 2010.06.25/outbox.cif.g09.slc.cpg/sg71_7_cif.got.tgz:12398.got - 2010.06.28 04:59:45.
