data_PCOD8289588
_publ_section_title
;
Structure prediction by ZEFSAII (Michael W. Deem and Ramdas Pophale) SiO2 
 PCOD8289588
Probable space group: I M M M
;
_chemical_formula_sum "Si O2"
_cell_formula_units_Z 104
_cell_length_a 20.261758
_cell_length_b 29.814222
_cell_length_c 9.000379
_cell_angle_alpha 90.000000
_cell_angle_beta 90.000000
_cell_angle_gamma 90.000000
_cell_volume 5437.025910
_symmetry_space_group_name_H-M "I M M M"
_symmetry_group_IT_number 71
_symmetry_cell_setting 'orthorhombic'
loop_
_space_group_symop_operation_xyz
x,y,z
-x,-y,z
x,-y,-z
-x,y,-z
-x,-y,-z
x,y,-z
-x,y,z
x,-y,z
1/2+x,1/2+y,1/2+z
1/2-x,1/2-y,1/2+z
1/2+x,1/2-y,1/2-z
1/2-x,1/2+y,1/2-z
1/2-x,1/2-y,1/2-z
1/2+x,1/2+y,1/2-z
1/2-x,1/2+y,1/2+z
1/2+x,1/2-y,1/2+z
loop_
_atom_site_type_symbol
_atom_site_label
_atom_site_fract_x
_atom_site_fract_y
_atom_site_fract_z
Si Si1 0.000000 0.269423 0.324772
Si Si2 0.713776 0.447501 0.323438
Si Si3 0.000000 0.168647 0.675505
Si Si4 0.654778 0.917912 0.324799
Si Si5 0.139202 0.129135 0.322979
Si Si6 0.891110 0.675312 0.834546
Si Si7 0.571832 0.000000 0.323512
Si Si8 0.757843 0.796120 0.333970
O O1 0.933314 0.294281 0.275195
O O2 0.000000 0.268503 0.500000
O O3 0.000000 0.219186 0.258194
O O4 0.710864 0.445076 0.500000
O O5 0.711582 0.500000 0.270936
O O6 0.777403 0.420660 0.264961
O O7 0.653237 0.418915 0.254519
O O8 0.934525 0.142662 0.728421
O O9 0.000000 0.172571 0.500000
O O10 0.672191 0.919433 0.500000
O O11 0.606237 0.876499 0.287233
O O12 0.611353 0.958027 0.264568
O O13 0.145609 0.123308 0.500000
O O14 0.189086 0.168634 0.266150
O O15 0.813414 0.682433 0.830075
O O16 0.919445 0.683344 0.000000
O O17 0.500000 0.000000 0.250260
O O18 0.566903 0.000000 0.500000
O O19 0.781437 0.784726 0.500000
O O20 0.750000 0.750000 0.250000
#
# Coordination Sequence:
#
# PCOD8289588 Si02
#       8
#     8  16   8  16  16  16   8  16
#     4  11  23  39  59  83 115 159 197 236 295 354
#     4  11  23  38  58  87 121 152 188 240 301 355
#     4   9  20  39  64  88 114 147 192 247 292 344
#     4  10  19  35  59  81 109 149 195 242 284 332
#     4  10  20  39  63  87 114 151 198 243 293 353
#     4  10  21  36  54  81 114 150 192 239 283 332
#     4   9  18  30  53  85 107 138 191 240 281 327
#     4  10  20  34  55  83 115 149 190 238 286 340
#
# _framework density 19.128105000000001
#
# number of rings (size 3 to 8) (size 9 to 14) (size 15 to 20)
#    0.000    1.923    2.308    1.615    1.077    4.000 
#    0.000    2.308    0.000    2.769    0.000    0.000 
#    0.000    0.000    0.000    0.000    0.000    0.000 
#
# Total GULP energy -644515.691737 kJ/mol
# GULP energy per Si atom -12394.532533 kJ/mol
# Density = 1.908457 g / cm^3
# Si number density = 19.128105 Si / 1000 Ang^3
#
#
#
# Elastic Constant Matrix: (Units=GPa)
#
#
# Indices 1 2 3 4 5 6 
#
# 1 118.9945 48.2428 27.0004 0.0000 0.0000 0.0000
# 2 48.2428 109.0759 38.0160 0.0000 0.0000 0.0000
# 3 27.0004 38.0160 53.1673 -0.0001 -0.0001 -0.0001
# 4 0.0000 0.0000 -0.0001 31.2696 0.0000 0.0000
# 5 0.0000 0.0000 -0.0001 0.0000 22.6085 0.0000
# 6 0.0000 0.0000 -0.0001 0.0000 0.0000 23.0163
#
#
#
# Elastic Compliance Matrix: (Units=1/GPa)
#
#
# Indices 1 2 3 4 5 6 
#
# 1 0.010520 -0.003717 -0.002685 0.000000 0.000000 0.000000
# 2 -0.003717 0.013524 -0.007783 0.000000 0.000000 0.000000
# 3 -0.002685 -0.007783 0.025737 0.000000 0.000000 0.000000
# 4 0.000000 0.000000 0.000000 0.031980 0.000000 0.000000
# 5 0.000000 0.000000 0.000000 0.000000 0.044231 0.000000
# 6 0.000000 0.000000 0.000000 0.000000 0.000000 0.043448
#
#
# Mechanical properties :
#
#
# Convention : Reuss Voigt Hill
#
# Bulk Modulus (GPa) = 46.70205 56.41737 51.55971
# Shear Modulus (GPa) = 24.39671 26.57744 25.48708
#
# Velocity S-wave (km/s) = 3.57520 3.73157 3.65422
# Velocity P-wave (km/s) = 6.44292 6.93719 6.69462
#
# Compressibility (1/GPa) = 0.02141234
#
# Stress axis : x y z
#
# Youngs Moduli (GPa) = 95.05793 73.94019 38.85515
#
# Poissons Ratio (x) = 0.27485 0.10431
# Poissons Ratio (y) = 0.35335 0.30239
# Poissons Ratio (z) = 0.25519 0.57545
#
# Static dielectric constant tensor:
#      x y z
#    x 3.510750 0.000000 0.000000 
#    y 0.000000 2.965360 0.000000 
#    z 0.000000 0.000000 3.204450 
# 
# 
# High freq. dielectric constant tensor:
#      x y z
#    x 1.746130 0.000000 0.000000 
#    y 0.000000 1.759120 0.000000 
#    z 0.000000 0.000000 1.714500 
# 
# From -- ./inp_files/11172.got.cif
#   From: 2010.06.25/outbox.cif.g09.slc.cpg/sg71_6_cif.got.tgz:11172.got - 2010.06.28 04:59:45.
