data_PCOD8289129
_publ_section_title
;
Structure prediction by ZEFSAII (Michael W. Deem and Ramdas Pophale) SiO2 
 PCOD8289129
Probable space group: I M M M
;
_chemical_formula_sum "Si O2"
_cell_formula_units_Z 72
_cell_length_a 9.292163
_cell_length_b 16.650723
_cell_length_c 24.994953
_cell_angle_alpha 90.000000
_cell_angle_beta 90.000000
_cell_angle_gamma 90.000000
_cell_volume 3867.249927
_symmetry_space_group_name_H-M "I M M M"
_symmetry_group_IT_number 71
_symmetry_cell_setting 'orthorhombic'
loop_
_space_group_symop_operation_xyz
x,y,z
-x,-y,z
x,-y,-z
-x,y,-z
-x,-y,-z
x,y,-z
-x,y,z
x,-y,z
1/2+x,1/2+y,1/2+z
1/2-x,1/2-y,1/2+z
1/2+x,1/2-y,1/2-z
1/2-x,1/2+y,1/2-z
1/2-x,1/2-y,1/2-z
1/2+x,1/2+y,1/2-z
1/2-x,1/2+y,1/2+z
1/2+x,1/2-y,1/2+z
loop_
_atom_site_type_symbol
_atom_site_label
_atom_site_fract_x
_atom_site_fract_y
_atom_site_fract_z
Si Si1 0.170144 0.687925 0.899951
Si Si2 0.327082 0.827074 0.278092
Si Si3 0.328065 0.089752 0.500000
Si Si4 0.838582 0.500000 0.388487
Si Si5 0.663222 0.358866 0.563119
Si Si6 0.838268 0.500000 0.737308
O O1 0.221470 0.669042 0.840033
O O2 0.224596 0.775553 0.915618
O O3 0.000000 0.683316 0.903063
O O4 0.234252 0.628842 0.945342
O O5 0.500000 0.817117 0.270722
O O6 0.250000 0.750000 0.250000
O O7 0.270162 0.914215 0.256280
O O8 0.500000 0.095777 0.500000
O O9 0.270988 0.000000 0.500000
O O10 0.763734 0.577408 0.410497
O O11 0.830079 0.500000 0.325541
O O12 0.000000 0.500000 0.409755
O O13 0.673674 0.363054 0.500000
O O14 0.500000 0.373675 0.582111
O O15 0.000000 0.500000 0.759839
#
# Coordination Sequence:
#
# PCOD8289129 Si02
#       6
#    16  16   8   8  16   8
#     4   9  17  30  50  76 105 134 165 204 252 307
#     4  10  20  35  55  78 105 139 176 213 257 308
#     4   9  16  26  46  79 109 128 156 205 257 303
#     4  11  22  34  49  70  99 134 175 214 245 288
#     4  10  19  33  51  73 103 134 163 202 254 301
#     4   9  20  36  52  74 106 139 169 210 263 306
#
# _framework density 18.617882000000002
#
# number of rings (size 3 to 8) (size 9 to 14) (size 15 to 20)
#    0.000    2.333    1.111    2.000    1.556    1.778 
#    0.000    1.667    0.000    0.000    0.000    0.000 
#    0.000    3.556    0.000    0.000    0.000    0.000 
#
# Total GULP energy -446088.358045 kJ/mol
# GULP energy per Si atom -12391.343279 kJ/mol
# Density = 1.857551 g / cm^3
# Si number density = 18.617882 Si / 1000 Ang^3
#
#
#
# Elastic Constant Matrix: (Units=GPa)
#
#
# Indices 1 2 3 4 5 6 
#
# 1 44.8283 48.6092 26.6105 0.0000 0.0000 0.0000
# 2 48.6092 192.8985 77.9732 0.0000 0.0000 0.0000
# 3 26.6105 77.9732 94.1811 0.0000 0.0000 0.0000
# 4 0.0000 0.0000 0.0000 66.4387 0.0000 0.0000
# 5 0.0000 0.0000 0.0000 0.0000 19.2402 0.0000
# 6 0.0000 0.0000 0.0000 0.0000 0.0000 19.1967
#
#
#
# Elastic Compliance Matrix: (Units=1/GPa)
#
#
# Indices 1 2 3 4 5 6 
#
# 1 0.031441 -0.006511 -0.003493 0.000000 0.000000 0.000000
# 2 -0.006511 0.009140 -0.005727 0.000000 0.000000 0.000000
# 3 -0.003493 -0.005727 0.016346 0.000000 0.000000 0.000000
# 4 0.000000 0.000000 0.000000 0.015051 0.000000 0.000000
# 5 0.000000 0.000000 0.000000 0.000000 0.051974 0.000000
# 6 0.000000 0.000000 0.000000 0.000000 0.000000 0.052092
#
#
# Mechanical properties :
#
#
# Convention : Reuss Voigt Hill
#
# Bulk Modulus (GPa) = 39.27017 70.92153 55.09585
# Shear Modulus (GPa) = 23.14852 32.88945 28.01898
#
# Velocity S-wave (km/s) = 3.52994 4.20760 3.88358
# Velocity P-wave (km/s) = 6.14430 7.86009 7.05456
#
# Compressibility (1/GPa) = 0.02546462
#
# Stress axis : x y z
#
# Youngs Moduli (GPa) = 31.80567 109.41046 61.17520
#
# Poissons Ratio (x) = 0.71237 0.21369
# Poissons Ratio (y) = 0.20709 0.35037
# Poissons Ratio (z) = 0.11110 0.62663
#
# Static dielectric constant tensor:
#      x y z
#    x 2.902460 0.000000 0.000000 
#    y 0.000000 3.438330 0.000000 
#    z 0.000000 0.000000 3.721240 
# 
# 
# High freq. dielectric constant tensor:
#      x y z
#    x 1.665480 0.000000 0.000000 
#    y 0.000000 1.743930 0.000000 
#    z 0.000000 0.000000 1.740890 
# 
# From -- ./inp_files/62877.got.cif
#   From: 2010.06.25/outbox.cif.g09.slc.cpg/sg71_32_cif.got.tgz:62877.got - 2010.06.28 04:59:45.
