data_PCOD8289906
_publ_section_title
;
Structure prediction by ZEFSAII (Michael W. Deem and Ramdas Pophale) SiO2 
 PCOD8289906
Probable space group: I M M M
;
_chemical_formula_sum "Si O2"
_cell_formula_units_Z 104
_cell_length_a 20.623750
_cell_length_b 8.808826
_cell_length_c 32.293634
_cell_angle_alpha 90.000000
_cell_angle_beta 90.000000
_cell_angle_gamma 90.000000
_cell_volume 5866.817597
_symmetry_space_group_name_H-M "I M M M"
_symmetry_group_IT_number 71
_symmetry_cell_setting 'orthorhombic'
loop_
_space_group_symop_operation_xyz
x,y,z
-x,-y,z
x,-y,-z
-x,y,-z
-x,-y,-z
x,y,-z
-x,y,z
x,-y,z
1/2+x,1/2+y,1/2+z
1/2-x,1/2-y,1/2+z
1/2+x,1/2-y,1/2-z
1/2-x,1/2+y,1/2-z
1/2-x,1/2-y,1/2-z
1/2+x,1/2+y,1/2-z
1/2-x,1/2+y,1/2+z
1/2+x,1/2-y,1/2+z
loop_
_atom_site_type_symbol
_atom_site_label
_atom_site_fract_x
_atom_site_fract_y
_atom_site_fract_z
Si Si1 0.817311 0.320413 0.635894
Si Si2 0.199763 0.677873 0.544953
Si Si3 0.183531 0.673647 0.157867
Si Si4 0.931021 0.321273 0.000000
Si Si5 0.426402 0.678613 0.714200
Si Si6 0.329769 0.826790 0.435947
Si Si7 0.573428 0.174683 0.800893
O O1 0.806938 0.500000 0.634335
O O2 0.829621 0.257148 0.588538
O O3 0.754210 0.251815 0.658685
O O4 0.880138 0.272632 0.661897
O O5 0.172743 0.742616 0.500000
O O6 0.188417 0.500000 0.544095
O O7 0.275304 0.714313 0.547476
O O8 0.192915 0.500000 0.171651
O O9 0.129822 0.748221 0.186915
O O10 0.155084 0.689019 0.112150
O O11 0.894343 0.271966 0.041443
O O12 0.940349 0.500000 0.000000
O O13 0.000000 0.237282 0.000000
O O14 0.500000 0.733820 0.702248
O O15 0.421389 0.500000 0.709151
O O16 0.411734 0.722204 0.761431
O O17 0.309998 0.000000 0.447377
O O18 0.500000 0.197635 0.816576
O O19 0.586474 0.000000 0.788648
#
# Coordination Sequence:
#
# PCOD8289906 Si02
#       7
#    16  16  16   8  16  16  16
#     4   9  18  32  50  74 102 130 162 202 248 293
#     4   9  16  27  46  69  94 125 156 189 233 287
#     4  10  20  32  49  74 100 128 165 207 246 289
#     4   9  16  26  41  61  85 115 152 193 236 276
#     4  10  21  36  53  72  96 130 167 202 247 299
#     4   9  17  29  45  64  88 120 157 198 238 277
#     4   9  18  34  55  75  96 126 164 204 245 293
#
# _framework density 17.726818000000002
#
# number of rings (size 3 to 8) (size 9 to 14) (size 15 to 20)
#    0.000    2.692    0.769    0.923    0.000    3.385 
#    0.000    1.538    0.000    1.385    0.000    3.231 
#    0.000    0.000    0.000   11.538    0.000   12.000 
#
# Total GULP energy -644233.681573 kJ/mol
# GULP energy per Si atom -12389.109261 kJ/mol
# Density = 1.768647 g / cm^3
# Si number density = 17.726818 Si / 1000 Ang^3
#
#
#
# Elastic Constant Matrix: (Units=GPa)
#
#
# Indices 1 2 3 4 5 6 
#
# 1 105.9821 26.7867 75.2519 0.0000 0.0000 0.0000
# 2 26.7867 36.8990 28.9530 0.0000 0.0000 0.0000
# 3 75.2519 28.9530 122.7473 0.0000 0.0000 0.0000
# 4 0.0000 0.0000 0.0000 19.0852 0.0000 0.0000
# 5 0.0000 0.0000 0.0000 0.0000 44.9651 0.0000
# 6 0.0000 0.0000 0.0000 0.0000 0.0000 19.5273
#
#
#
# Elastic Compliance Matrix: (Units=1/GPa)
#
#
# Indices 1 2 3 4 5 6 
#
# 1 0.017503 -0.005260 -0.009490 0.000000 0.000000 0.000000
# 2 -0.005260 0.034837 -0.004992 0.000000 0.000000 0.000000
# 3 -0.009490 -0.004992 0.015142 0.000000 0.000000 0.000000
# 4 0.000000 0.000000 0.000000 0.052397 0.000000 0.000000
# 5 0.000000 0.000000 0.000000 0.000000 0.022239 0.000000
# 6 0.000000 0.000000 0.000000 0.000000 0.000000 0.051210
#
#
# Mechanical properties :
#
#
# Convention : Reuss Voigt Hill
#
# Bulk Modulus (GPa) = 35.71725 58.62351 47.17038
# Shear Modulus (GPa) = 20.64869 25.69131 23.17000
#
# Velocity S-wave (km/s) = 3.41666 3.81109 3.61925
# Velocity P-wave (km/s) = 5.97973 7.24625 6.64324
#
# Compressibility (1/GPa) = 0.02799767
#
# Stress axis : x y z
#
# Youngs Moduli (GPa) = 57.13219 28.70524 66.04024
#
# Poissons Ratio (x) = 0.15099 0.62671
# Poissons Ratio (y) = 0.30052 0.32970
# Poissons Ratio (z) = 0.54218 0.14331
#
# Static dielectric constant tensor:
#      x y z
#    x 3.268680 0.000000 0.000000 
#    y 0.000000 3.211060 0.000000 
#    z 0.000000 0.000000 3.643500 
# 
# 
# High freq. dielectric constant tensor:
#      x y z
#    x 1.665870 0.000000 0.000000 
#    y 0.000000 1.672840 0.000000 
#    z 0.000000 0.000000 1.697160 
# 
# From -- ./inp_files/70778.got.cif
#   From: 2010.06.25/outbox.cif.g09.slc.cpg/sg71_36_cif.got.tgz:70778.got - 2010.06.28 04:59:45.
