data_PCOD8289392
_publ_section_title
;
Structure prediction by ZEFSAII (Michael W. Deem and Ramdas Pophale) SiO2 
 PCOD8289392
Probable space group: I M M M
;
_chemical_formula_sum "Si O2"
_cell_formula_units_Z 80
_cell_length_a 17.046122
_cell_length_b 26.630868
_cell_length_c 9.021082
_cell_angle_alpha 90.000000
_cell_angle_beta 90.000000
_cell_angle_gamma 90.000000
_cell_volume 4095.147462
_symmetry_space_group_name_H-M "I M M M"
_symmetry_group_IT_number 71
_symmetry_cell_setting 'orthorhombic'
loop_
_space_group_symop_operation_xyz
x,y,z
-x,-y,z
x,-y,-z
-x,y,-z
-x,-y,-z
x,y,-z
-x,y,z
x,-y,z
1/2+x,1/2+y,1/2+z
1/2-x,1/2-y,1/2+z
1/2+x,1/2-y,1/2-z
1/2-x,1/2+y,1/2-z
1/2-x,1/2-y,1/2-z
1/2+x,1/2+y,1/2-z
1/2-x,1/2+y,1/2+z
1/2+x,1/2-y,1/2+z
loop_
_atom_site_type_symbol
_atom_site_label
_atom_site_fract_x
_atom_site_fract_y
_atom_site_fract_z
Si Si1 0.649336 0.116564 0.325955
Si Si2 0.590119 0.500000 0.675256
Si Si3 0.500000 0.943119 0.677329
Si Si4 0.089079 0.824781 0.830530
Si Si5 0.677333 0.590759 0.173055
Si Si6 0.175954 0.726864 0.829724
O O1 0.635942 0.120902 0.500000
O O2 0.576966 0.085129 0.258233
O O3 0.730251 0.087605 0.290353
O O4 0.651499 0.173147 0.259140
O O5 0.500000 0.500000 0.727812
O O6 0.596301 0.500000 0.500000
O O7 0.632102 0.450957 0.735752
O O8 0.500000 0.943380 0.500000
O O9 0.500000 0.000000 0.737766
O O10 0.146193 0.854762 0.721208
O O11 0.103677 0.765318 0.812548
O O12 0.000000 0.836473 0.785733
O O13 0.105349 0.841507 0.000000
O O14 0.661472 0.582576 0.000000
O O15 0.250000 0.750000 0.750000
O O16 0.199905 0.718691 0.000000
#
# Coordination Sequence:
#
# PCOD8289392 Si02
#       6
#    16   8   8  16  16  16
#     4   9  19  33  52  82 117 148 185 234 287 339
#     4  11  25  43  61  82 111 146 188 231 277 339
#     4   9  18  32  54  82 114 148 186 239 296 341
#     4  10  21  35  54  81 115 154 195 233 277 338
#     4  11  22  37  59  86 115 146 185 234 287 338
#     4  10  19  34  54  79 113 150 188 232 281 336
#
# _framework density 19.535316000000002
#
# number of rings (size 3 to 8) (size 9 to 14) (size 15 to 20)
#    0.000    2.000    2.000    1.500    2.800    3.600 
#    0.000    0.000    0.000    0.000    0.000    6.300 
#    0.000    0.000    0.000    0.000    0.000    0.000 
#
# Total GULP energy -496016.128417 kJ/mol
# GULP energy per Si atom -12400.403210 kJ/mol
# Density = 1.949085 g / cm^3
# Si number density = 19.535316 Si / 1000 Ang^3
#
#
#
# Elastic Constant Matrix: (Units=GPa)
#
#
# Indices 1 2 3 4 5 6 
#
# 1 151.6820 73.6903 37.1791 0.0001 0.0000 0.0000
# 2 73.6903 150.9596 28.4919 0.0000 0.0000 0.0000
# 3 37.1791 28.4919 40.2990 -0.0014 -0.0002 0.0002
# 4 0.0001 0.0000 -0.0014 18.4797 -0.0001 0.0000
# 5 0.0000 0.0000 -0.0002 -0.0001 20.8813 0.0001
# 6 0.0000 0.0000 0.0002 0.0000 0.0001 36.2676
#
#
#
# Elastic Compliance Matrix: (Units=1/GPa)
#
#
# Indices 1 2 3 4 5 6 
#
# 1 0.009980 -0.003616 -0.006650 -0.000001 0.000000 0.000000
# 2 -0.003616 0.008955 -0.002995 0.000000 0.000000 0.000000
# 3 -0.006650 -0.002995 0.033067 0.000003 0.000000 0.000000
# 4 -0.000001 0.000000 0.000003 0.054114 0.000000 0.000000
# 5 0.000000 0.000000 0.000000 0.000000 0.047890 0.000000
# 6 0.000000 0.000000 0.000000 0.000000 0.000000 0.027573
#
#
# Mechanical properties :
#
#
# Convention : Reuss Voigt Hill
#
# Bulk Modulus (GPa) = 39.24809 69.07368 54.16088
# Shear Modulus (GPa) = 23.08469 28.69766 25.89118
#
# Velocity S-wave (km/s) = 3.44130 3.83693 3.64449
# Velocity P-wave (km/s) = 5.99371 7.42055 6.74496
#
# Compressibility (1/GPa) = 0.02547895
#
# Stress axis : x y z
#
# Youngs Moduli (GPa) = 100.20321 111.67136 30.24142
#
# Poissons Ratio (x) = 0.40385 0.20111
# Poissons Ratio (y) = 0.36237 0.09057
# Poissons Ratio (z) = 0.66638 0.33443
#
# Static dielectric constant tensor:
#      x y z
#    x 3.767500 0.000000 0.000000 
#    y 0.000000 3.937480 0.000000 
#    z 0.000000 0.000000 3.245630 
# 
# 
# High freq. dielectric constant tensor:
#      x y z
#    x 1.769650 0.000000 0.000000 
#    y 0.000000 1.775060 0.000000 
#    z 0.000000 0.000000 1.722210 
# 
# From -- ./inp_files/8391.got.cif
#   From: 2010.06.25/outbox.cif.g09.slc.cpg/sg71_5_cif.got.tgz:8391.got - 2010.06.28 04:59:45.
