data_PCOD8289457
_publ_section_title
;
Structure prediction by ZEFSAII (Michael W. Deem and Ramdas Pophale) SiO2 
 PCOD8289457
Probable space group: I M M M
;
_chemical_formula_sum "Si O2"
_cell_formula_units_Z 72
_cell_length_a 7.878253
_cell_length_b 22.158281
_cell_length_c 20.405742
_cell_angle_alpha 90.000000
_cell_angle_beta 90.000000
_cell_angle_gamma 90.000000
_cell_volume 3562.200665
_symmetry_space_group_name_H-M "I M M M"
_symmetry_group_IT_number 71
_symmetry_cell_setting 'orthorhombic'
loop_
_space_group_symop_operation_xyz
x,y,z
-x,-y,z
x,-y,-z
-x,y,-z
-x,-y,-z
x,y,-z
-x,y,z
x,-y,z
1/2+x,1/2+y,1/2+z
1/2-x,1/2-y,1/2+z
1/2+x,1/2-y,1/2-z
1/2-x,1/2+y,1/2-z
1/2-x,1/2-y,1/2-z
1/2+x,1/2+y,1/2-z
1/2-x,1/2+y,1/2+z
1/2+x,1/2-y,1/2+z
loop_
_atom_site_type_symbol
_atom_site_label
_atom_site_fract_x
_atom_site_fract_y
_atom_site_fract_z
Si Si1 0.689788 0.207781 0.612834
Si Si2 0.813257 0.643081 0.241924
Si Si3 0.805569 0.156073 0.116812
Si Si4 0.500000 0.432102 0.200908
Si Si5 0.500000 0.629594 0.070784
Si Si6 0.201744 0.930046 0.000000
O O1 0.500000 0.184799 0.594082
O O2 0.716177 0.199760 0.692156
O O3 0.707361 0.276508 0.588144
O O4 0.831254 0.169740 0.575916
O O5 0.806763 0.660316 0.318025
O O6 0.670620 0.593851 0.230882
O O7 0.000000 0.615423 0.228339
O O8 0.000000 0.140221 0.134876
O O9 0.734452 0.106526 0.064633
O O10 0.500000 0.500000 0.222158
O O11 0.500000 0.423958 0.122874
O O12 0.500000 0.598483 0.000000
O O13 0.000000 0.929306 0.000000
O O14 0.268653 0.000000 0.000000
#
# Coordination Sequence:
#
# PCOD8289457 Si02
#       6
#    16  16  16   8   8   8
#     4   9  20  35  56  86 120 148 181 238 292 350
#     4  10  20  36  58  88 115 143 188 241 294 339
#     4  10  19  34  56  83 113 155 194 232 290 338
#     4  10  22  41  60  81 116 152 189 235 285 347
#     4  10  22  37  58  90 115 147 190 232 288 346
#     4   9  20  36  53  77 111 154 203 238 269 329
#
# _framework density 20.212225
#
# number of rings (size 3 to 8) (size 9 to 14) (size 15 to 20)
#    0.000    2.333    1.111    0.667    3.111    2.000 
#    0.000    0.556    0.000    0.667    0.000    6.222 
#    0.000    0.000    0.000    0.000    0.000    0.000 
#
# Total GULP energy -446072.550737 kJ/mol
# GULP energy per Si atom -12390.904187 kJ/mol
# Density = 2.016622 g / cm^3
# Si number density = 20.212225 Si / 1000 Ang^3
#
#
#
# Elastic Constant Matrix: (Units=GPa)
#
#
# Indices 1 2 3 4 5 6 
#
# 1 105.4006 25.8094 10.6675 0.0000 0.0000 0.0000
# 2 25.8094 89.9795 6.9981 0.0000 0.0000 0.0000
# 3 10.6675 6.9981 83.9003 0.0000 0.0000 0.0000
# 4 0.0000 0.0000 0.0000 20.5360 0.0000 0.0000
# 5 0.0000 0.0000 0.0000 0.0000 -3.3424 0.0000
# 6 0.0000 0.0000 0.0000 0.0000 0.0000 -35.0827
#
#
#
# Elastic Compliance Matrix: (Units=1/GPa)
#
#
# Indices 1 2 3 4 5 6 
#
# 1 0.010299 -0.002871 -0.001070 0.000000 0.000000 0.000000
# 2 -0.002871 0.011986 -0.000635 0.000000 0.000000 0.000000
# 3 -0.001070 -0.000635 0.012108 0.000000 0.000000 0.000000
# 4 0.000000 0.000000 0.000000 0.048695 0.000000 0.000000
# 5 0.000000 0.000000 0.000000 0.000000 -0.299186 0.000000
# 6 0.000000 0.000000 0.000000 0.000000 0.000000 -0.028504
#
#
# Mechanical properties :
#
#
# Convention : Reuss Voigt Hill
#
# Bulk Modulus (GPa) = 39.61656 40.69229 40.15442
# Shear Modulus (GPa) = -22.02290 12.14254 -4.94018
#
# Velocity S-wave (km/s) = -3.30446 2.45368 -1.56508
# Velocity P-wave (km/s) = 2.25467 5.31071 4.07965
#
# Compressibility (1/GPa) = 0.02524197
#
# Stress axis : x y z
#
# Youngs Moduli (GPa) = 97.09775 83.42734 82.59070
#
# Poissons Ratio (x) = 0.23951 0.08837
# Poissons Ratio (y) = 0.27876 0.05243
# Poissons Ratio (z) = 0.10389 0.05296
#
# Static dielectric constant tensor:
#      x y z
#    x 3.747050 0.000000 0.000000 
#    y 0.000000 3.401650 0.000000 
#    z 0.000000 0.000000 3.704060 
# 
# 
# High freq. dielectric constant tensor:
#      x y z
#    x 1.792950 0.000000 0.000000 
#    y 0.000000 1.754950 0.000000 
#    z 0.000000 0.000000 1.791190 
# 
# From -- ./inp_files/50221.got.cif
#   From: 2010.06.25/outbox.cif.g09.slc.cpg/sg71_26_cif.got.tgz:50221.got - 2010.06.28 04:59:45.
