data_PCOD8289741
_publ_section_title
;
Structure prediction by ZEFSAII (Michael W. Deem and Ramdas Pophale) SiO2 
 PCOD8289741
Probable space group: I M M M
;
_chemical_formula_sum "Si O2"
_cell_formula_units_Z 96
_cell_length_a 9.537402
_cell_length_b 30.635742
_cell_length_c 19.146697
_cell_angle_alpha 90.000000
_cell_angle_beta 90.000000
_cell_angle_gamma 90.000000
_cell_volume 5594.385073
_symmetry_space_group_name_H-M "I M M M"
_symmetry_group_IT_number 71
_symmetry_cell_setting 'orthorhombic'
loop_
_space_group_symop_operation_xyz
x,y,z
-x,-y,z
x,-y,-z
-x,y,-z
-x,-y,-z
x,y,-z
-x,y,z
x,-y,z
1/2+x,1/2+y,1/2+z
1/2-x,1/2-y,1/2+z
1/2+x,1/2-y,1/2-z
1/2-x,1/2+y,1/2-z
1/2-x,1/2-y,1/2-z
1/2+x,1/2+y,1/2-z
1/2-x,1/2+y,1/2+z
1/2+x,1/2-y,1/2+z
loop_
_atom_site_type_symbol
_atom_site_label
_atom_site_fract_x
_atom_site_fract_y
_atom_site_fract_z
Si Si1 0.833933 0.048061 0.677615
Si Si2 0.164203 0.125136 0.418988
Si Si3 0.160222 0.618270 0.417054
Si Si4 0.160340 0.948993 0.164481
Si Si5 0.842442 0.198037 0.916963
Si Si6 0.342874 0.205548 0.417075
O O1 0.775127 0.083710 0.623387
O O2 0.792709 0.061403 0.756255
O O3 0.000000 0.045458 0.671660
O O4 0.771824 0.000000 0.659268
O O5 0.199588 0.117116 0.500000
O O6 0.238187 0.168538 0.388670
O O7 0.000000 0.131504 0.406533
O O8 0.170187 0.615992 0.500000
O O9 0.237163 0.575981 0.387411
O O10 0.235456 0.661923 0.387450
O O11 0.000000 0.619016 0.391506
O O12 0.000000 0.934040 0.151668
O O13 0.175770 0.000000 0.148642
O O14 0.796646 0.246301 0.890108
O O15 0.000000 0.187347 0.890708
O O16 0.839799 0.197511 0.000000
O O17 0.338326 0.205628 0.500000
O O18 0.500000 0.195018 0.390959
#
# Coordination Sequence:
#
# PCOD8289741 Si02
#       6
#    16  16  16  16  16  16
#     4   8  15  29  47  66  89 118 153 189 222 259
#     4   9  16  25  42  70  97 119 146 183 226 266
#     4  10  20  31  45  69  97 118 138 177 232 274
#     4   9  18  33  51  66  83 116 158 190 216 256
#     4   8  14  26  44  64  87 118 153 182 211 257
#     4   8  14  25  41  62  90 122 151 180 216 258
#
# _framework density 17.160063999999998
#
# number of rings (size 3 to 8) (size 9 to 14) (size 15 to 20)
#    0.000    3.333    0.000    2.500    0.000    2.667 
#    0.000    7.500    0.000    2.500    0.000    2.333 
#    0.000    0.000    0.000    0.000    0.000    0.000 
#
# Total GULP energy -594914.088550 kJ/mol
# GULP energy per Si atom -12394.043511 kJ/mol
# Density = 1.712101 g / cm^3
# Si number density = 17.160064 Si / 1000 Ang^3
#
#
#
# Elastic Constant Matrix: (Units=GPa)
#
#
# Indices 1 2 3 4 5 6 
#
# 1 86.2154 68.8524 29.2542 -0.0001 0.0000 0.0000
# 2 68.8524 129.3413 39.1142 -0.0002 0.0000 0.0000
# 3 29.2542 39.1142 29.3977 -0.0019 0.0001 0.0000
# 4 -0.0001 -0.0002 -0.0019 5.5280 0.0001 0.0000
# 5 0.0000 0.0000 0.0001 0.0001 11.7454 -0.0001
# 6 0.0000 0.0000 0.0000 0.0000 -0.0001 29.9269
#
#
#
# Elastic Compliance Matrix: (Units=1/GPa)
#
#
# Indices 1 2 3 4 5 6 
#
# 1 0.021970 -0.008507 -0.010545 -0.000004 0.000000 0.000000
# 2 -0.008507 0.016230 -0.013130 -0.000004 0.000000 0.000000
# 3 -0.010545 -0.013130 0.061979 0.000021 -0.000001 0.000000
# 4 -0.000004 -0.000004 0.000021 0.180899 -0.000001 0.000000
# 5 0.000000 0.000000 -0.000001 -0.000001 0.085140 0.000000
# 6 0.000000 0.000000 0.000000 0.000000 0.000000 0.033415
#
#
# Mechanical properties :
#
#
# Convention : Reuss Voigt Hill
#
# Bulk Modulus (GPa) = 27.91946 57.71068 42.81507
# Shear Modulus (GPa) = 10.50564 16.62228 13.56396
#
# Velocity S-wave (km/s) = 2.47698 3.11571 2.81452
# Velocity P-wave (km/s) = 4.94833 6.82989 5.96378
#
# Compressibility (1/GPa) = 0.03581731
#
# Stress axis : x y z
#
# Youngs Moduli (GPa) = 45.51584 61.61276 16.13444
#
# Poissons Ratio (x) = 0.52412 0.17014
# Poissons Ratio (y) = 0.38719 0.21184
# Poissons Ratio (z) = 0.47996 0.80896
#
# Static dielectric constant tensor:
#      x y z
#    x 3.133840 0.000000 0.000000 
#    y 0.000000 3.652660 0.000000 
#    z 0.000000 0.000000 2.880010 
# 
# 
# High freq. dielectric constant tensor:
#      x y z
#    x 1.643350 0.000000 0.000000 
#    y 0.000000 1.676580 0.000000 
#    z 0.000000 0.000000 1.619590 
# 
# From -- ./inp_files/50780.got.cif
#   From: 2010.06.25/outbox.cif.g09.slc.cpg/sg71_26_cif.got.tgz:50780.got - 2010.06.28 04:59:45.
