data_PCOD8289864
_publ_section_title
;
Structure prediction by ZEFSAII (Michael W. Deem and Ramdas Pophale) SiO2 
 PCOD8289864
Probable space group: I M M M
;
_chemical_formula_sum "Si O2"
_cell_formula_units_Z 88
_cell_length_a 23.940589
_cell_length_b 9.235847
_cell_length_c 22.107753
_cell_angle_alpha 90.000000
_cell_angle_beta 90.000000
_cell_angle_gamma 90.000000
_cell_volume 4888.281016
_symmetry_space_group_name_H-M "I M M M"
_symmetry_group_IT_number 71
_symmetry_cell_setting 'orthorhombic'
loop_
_space_group_symop_operation_xyz
x,y,z
-x,-y,z
x,-y,-z
-x,y,-z
-x,-y,-z
x,y,-z
-x,y,z
x,-y,z
1/2+x,1/2+y,1/2+z
1/2-x,1/2-y,1/2+z
1/2+x,1/2-y,1/2-z
1/2-x,1/2+y,1/2-z
1/2-x,1/2-y,1/2-z
1/2+x,1/2+y,1/2-z
1/2-x,1/2+y,1/2+z
1/2+x,1/2-y,1/2+z
loop_
_atom_site_type_symbol
_atom_site_label
_atom_site_fract_x
_atom_site_fract_y
_atom_site_fract_z
Si Si1 0.435483 0.166579 0.429777
Si Si2 0.873599 0.162429 0.707122
Si Si3 0.065922 0.660831 0.386124
Si Si4 0.849933 0.170100 0.153993
Si Si5 0.566651 0.337642 0.000000
Si Si6 0.251050 0.666251 0.187654
O O1 0.422746 0.196024 0.500000
O O2 0.500000 0.201718 0.415370
O O3 0.397441 0.272369 0.390440
O O4 0.422232 0.000000 0.413599
O O5 0.917776 0.271005 0.678072
O O6 0.866798 0.205653 0.777153
O O7 0.815989 0.172529 0.668181
O O8 0.897568 0.000000 0.703053
O O9 0.091326 0.500000 0.391233
O O10 0.090062 0.756677 0.440891
O O11 0.000000 0.653899 0.390018
O O12 0.790988 0.253006 0.140987
O O13 0.841206 0.000000 0.143251
O O14 0.590607 0.500000 0.000000
O O15 0.500000 0.338841 0.000000
O O16 0.231724 0.500000 0.196124
O O17 0.250000 0.750000 0.250000
#
# Coordination Sequence:
#
# PCOD8289864 Si02
#       6
#    16  16  16  16   8  16
#     4   9  19  36  56  77 103 138 178 218 264 319
#     4   9  19  33  49  73 103 134 168 207 254 305
#     4  10  20  32  48  72 100 130 166 207 249 294
#     4  10  20  33  52  78 105 135 171 212 258 309
#     4   9  17  31  51  69  89 125 165 197 236 289
#     4   9  17  31  51  74 100 131 168 207 250 303
#
# _framework density 18.002238999999999
#
# number of rings (size 3 to 8) (size 9 to 14) (size 15 to 20)
#    0.000    2.636    0.000    3.545    0.000    8.000 
#    0.000    4.545    2.000    0.000    0.000    0.000 
#    0.000    0.000    0.000    0.000    0.000    0.000 
#
# Total GULP energy -545411.412266 kJ/mol
# GULP energy per Si atom -12395.713915 kJ/mol
# Density = 1.796126 g / cm^3
# Si number density = 18.002239 Si / 1000 Ang^3
#
#
#
# Elastic Constant Matrix: (Units=GPa)
#
#
# Indices 1 2 3 4 5 6 
#
# 1 47.2726 36.1871 32.4443 0.0000 0.0000 0.0000
# 2 36.1871 133.6129 50.8648 0.0000 0.0000 0.0000
# 3 32.4443 50.8648 71.8745 0.0000 0.0000 0.0000
# 4 0.0000 0.0000 0.0000 30.3098 0.0000 0.0000
# 5 0.0000 0.0000 0.0000 0.0000 21.0065 0.0000
# 6 0.0000 0.0000 0.0000 0.0000 0.0000 31.9951
#
#
#
# Elastic Compliance Matrix: (Units=1/GPa)
#
#
# Indices 1 2 3 4 5 6 
#
# 1 0.032431 -0.004394 -0.011530 0.000000 0.000000 0.000000
# 2 -0.004394 0.010840 -0.005687 0.000000 0.000000 0.000000
# 3 -0.011530 -0.005687 0.023143 0.000000 0.000000 0.000000
# 4 0.000000 0.000000 0.000000 0.032993 0.000000 0.000000
# 5 0.000000 0.000000 0.000000 0.000000 0.047604 0.000000
# 6 0.000000 0.000000 0.000000 0.000000 0.000000 0.031255
#
#
# Mechanical properties :
#
#
# Convention : Reuss Voigt Hill
#
# Bulk Modulus (GPa) = 43.12146 54.63916 48.88031
# Shear Modulus (GPa) = 21.81339 25.54654 23.67996
#
# Velocity S-wave (km/s) = 3.48473 3.77115 3.63077
# Velocity P-wave (km/s) = 6.34007 7.02704 6.69238
#
# Compressibility (1/GPa) = 0.02319031
#
# Stress axis : x y z
#
# Youngs Moduli (GPa) = 30.83505 92.25460 43.21046
#
# Poissons Ratio (x) = 0.40539 0.49820
# Poissons Ratio (y) = 0.13550 0.24576
# Poissons Ratio (z) = 0.35551 0.52470
#
# Static dielectric constant tensor:
#      x y z
#    x 3.442140 0.000000 0.000000 
#    y 0.000000 3.544910 0.000000 
#    z 0.000000 0.000000 3.106150 
# 
# 
# High freq. dielectric constant tensor:
#      x y z
#    x 1.682160 0.000000 0.000000 
#    y 0.000000 1.713670 0.000000 
#    z 0.000000 0.000000 1.672500 
# 
# From -- ./inp_files/14886.got.cif
#   From: 2010.06.25/outbox.cif.g09.slc.cpg/sg71_8_cif.got.tgz:14886.got - 2010.06.28 04:59:45.
