data_PCOD8289378
_publ_section_title
;
Structure prediction by ZEFSAII (Michael W. Deem and Ramdas Pophale) SiO2 
 PCOD8289378
Probable space group: I M M M
;
_chemical_formula_sum "Si O2"
_cell_formula_units_Z 120
_cell_length_a 9.405748
_cell_length_b 24.704341
_cell_length_c 29.128364
_cell_angle_alpha 90.000000
_cell_angle_beta 90.000000
_cell_angle_gamma 90.000000
_cell_volume 6768.348392
_symmetry_space_group_name_H-M "I M M M"
_symmetry_group_IT_number 71
_symmetry_cell_setting 'orthorhombic'
loop_
_space_group_symop_operation_xyz
x,y,z
-x,-y,z
x,-y,-z
-x,y,-z
-x,-y,-z
x,y,-z
-x,y,z
x,-y,z
1/2+x,1/2+y,1/2+z
1/2-x,1/2-y,1/2+z
1/2+x,1/2-y,1/2-z
1/2-x,1/2+y,1/2-z
1/2-x,1/2-y,1/2-z
1/2+x,1/2+y,1/2-z
1/2-x,1/2+y,1/2+z
1/2+x,1/2-y,1/2+z
loop_
_atom_site_type_symbol
_atom_site_label
_atom_site_fract_x
_atom_site_fract_y
_atom_site_fract_z
Si Si1 0.835137 0.261172 0.553998
Si Si2 0.166040 0.437529 0.052481
Si Si3 0.166583 0.152209 0.605581
Si Si4 0.655840 0.936071 0.000000
Si Si5 0.343005 0.807062 0.789408
Si Si6 0.662866 0.329974 0.622744
Si Si7 0.156606 0.180588 0.291323
Si Si8 0.659687 0.440013 0.584183
O O1 0.805344 0.262254 0.500000
O O2 0.791722 0.202563 0.573475
O O3 0.736988 0.306388 0.577283
O O4 0.000000 0.273279 0.565501
O O5 0.200797 0.500000 0.063720
O O6 0.252003 0.400676 0.088033
O O7 0.000000 0.425916 0.059136
O O8 0.211020 0.424405 0.000000
O O9 0.212762 0.166283 0.657768
O O10 0.000000 0.140099 0.602760
O O11 0.738503 0.917308 0.044762
O O12 0.500000 0.908593 0.000000
O O13 0.643450 0.000000 0.000000
O O14 0.500000 0.832666 0.797399
O O15 0.244282 0.810459 0.833204
O O16 0.270698 0.839254 0.746632
O O17 0.361027 0.743782 0.781297
O O18 0.500000 0.309817 0.624244
O O19 0.670002 0.395595 0.624072
O O20 0.000000 0.153884 0.283865
O O21 0.500000 0.442569 0.564208
O O22 0.705087 0.500000 0.602071
#
# Coordination Sequence:
#
# PCOD8289378 Si02
#       8
#    16  16  16   8  16  16  16  16
#     4  10  21  36  51  72 107 145 173 207 261 313
#     4   9  19  35  53  76 109 147 185 225 266 306
#     4  10  19  34  55  79 107 139 175 215 259 313
#     4   9  17  29  47  71  93 117 159 209 250 291
#     4  10  19  34  54  76 104 135 168 209 261 313
#     4  11  22  34  52  75 101 133 175 217 255 309
#     4   9  18  33  53  77 106 134 167 209 256 311
#     4   9  19  35  51  67  93 130 168 209 255 298
#
# _framework density 17.729583999999999
#
# number of rings (size 3 to 8) (size 9 to 14) (size 15 to 20)
#    0.000    2.333    1.333    1.800    0.933    4.800 
#    0.000    0.667    0.000    0.800    0.000    1.867 
#    0.000    0.000    0.000    0.000    0.000    0.000 
#
# Total GULP energy -743704.565536 kJ/mol
# GULP energy per Si atom -12395.076092 kJ/mol
# Density = 1.768923 g / cm^3
# Si number density = 17.729584 Si / 1000 Ang^3
#
#
#
# Elastic Constant Matrix: (Units=GPa)
#
#
# Indices 1 2 3 4 5 6 
#
# 1 94.2041 32.6716 47.7813 0.0000 0.0000 0.0000
# 2 32.6716 62.6781 26.1206 0.0000 0.0000 0.0000
# 3 47.7813 26.1206 100.7571 0.0000 0.0000 0.0000
# 4 0.0000 0.0000 0.0000 21.3634 0.0000 0.0000
# 5 0.0000 0.0000 0.0000 0.0000 32.6619 0.0000
# 6 0.0000 0.0000 0.0000 0.0000 0.0000 23.3396
#
#
#
# Elastic Compliance Matrix: (Units=1/GPa)
#
#
# Indices 1 2 3 4 5 6 
#
# 1 0.015580 -0.005653 -0.005923 0.000000 0.000000 0.000000
# 2 -0.005653 0.019938 -0.002488 0.000000 0.000000 0.000000
# 3 -0.005923 -0.002488 0.013379 0.000000 0.000000 0.000000
# 4 0.000000 0.000000 0.000000 0.046809 0.000000 0.000000
# 5 0.000000 0.000000 0.000000 0.000000 0.030617 0.000000
# 6 0.000000 0.000000 0.000000 0.000000 0.000000 0.042846
#
#
# Mechanical properties :
#
#
# Convention : Reuss Voigt Hill
#
# Bulk Modulus (GPa) = 48.14885 52.30958 50.22921
# Shear Modulus (GPa) = 24.48358 25.54405 25.01382
#
# Velocity S-wave (km/s) = 3.72014 3.79985 3.76021
# Velocity P-wave (km/s) = 6.75788 6.98713 6.87346
#
# Compressibility (1/GPa) = 0.02076893
#
# Stress axis : x y z
#
# Youngs Moduli (GPa) = 64.18529 50.15539 74.74603
#
# Poissons Ratio (x) = 0.28352 0.44271
# Poissons Ratio (y) = 0.36283 0.18597
# Poissons Ratio (z) = 0.38016 0.12479
#
# Static dielectric constant tensor:
#      x y z
#    x 3.581680 0.000000 0.000000 
#    y 0.000000 3.115230 0.000000 
#    z 0.000000 0.000000 3.210630 
# 
# 
# High freq. dielectric constant tensor:
#      x y z
#    x 1.695220 0.000000 0.000000 
#    y 0.000000 1.661640 0.000000 
#    z 0.000000 0.000000 1.676590 
# 
# From -- ./inp_files/63846.got.cif
#   From: 2010.06.25/outbox.cif.g09.slc.cpg/sg71_32_cif.got.tgz:63846.got - 2010.06.28 04:59:45.
