data_PCOD8289164
_publ_section_title
;
Structure prediction by ZEFSAII (Michael W. Deem and Ramdas Pophale) SiO2 
 PCOD8289164
Probable space group: I M M M
;
_chemical_formula_sum "Si O2"
_cell_formula_units_Z 88
_cell_length_a 18.421068
_cell_length_b 9.332398
_cell_length_c 27.212224
_cell_angle_alpha 90.000000
_cell_angle_beta 90.000000
_cell_angle_gamma 90.000000
_cell_volume 4678.127939
_symmetry_space_group_name_H-M "I M M M"
_symmetry_group_IT_number 71
_symmetry_cell_setting 'orthorhombic'
loop_
_space_group_symop_operation_xyz
x,y,z
-x,-y,z
x,-y,-z
-x,y,-z
-x,-y,-z
x,y,-z
-x,y,z
x,-y,z
1/2+x,1/2+y,1/2+z
1/2-x,1/2-y,1/2+z
1/2+x,1/2-y,1/2-z
1/2-x,1/2+y,1/2-z
1/2-x,1/2-y,1/2-z
1/2+x,1/2+y,1/2-z
1/2-x,1/2+y,1/2+z
1/2+x,1/2-y,1/2+z
loop_
_atom_site_type_symbol
_atom_site_label
_atom_site_fract_x
_atom_site_fract_y
_atom_site_fract_z
Si Si1 0.849517 0.163099 0.081786
Si Si2 0.343708 0.333512 0.849521
Si Si3 0.582653 0.164450 0.232516
Si Si4 0.179084 0.665081 0.825204
Si Si5 0.316224 0.836983 0.944572
Si Si6 0.417099 0.844689 0.500000
O O1 0.856164 0.229529 0.135594
O O2 0.769949 0.174336 0.059066
O O3 0.876486 0.000000 0.084057
O O4 0.901768 0.253971 0.048115
O O5 0.361121 0.500000 0.854783
O O6 0.403620 0.261721 0.814963
O O7 0.265394 0.306478 0.824313
O O8 0.351451 0.266115 0.903935
O O9 0.500000 0.190225 0.251041
O O10 0.641080 0.206190 0.274096
O O11 0.594090 0.000000 0.216954
O O12 0.163075 0.500000 0.839235
O O13 0.341356 0.000000 0.934374
O O14 0.339238 0.790133 0.000000
O O15 0.500000 0.881584 0.500000
O O16 0.375452 0.000000 0.500000
#
# Coordination Sequence:
#
# PCOD8289164 Si02
#       6
#    16  16  16  16  16   8
#     4  10  19  33  52  76 103 132 173 222 268 311
#     4  10  20  33  53  82 111 140 176 222 271 316
#     4  10  21  37  56  76 104 144 184 222 267 323
#     4   9  19  35  54  79 108 140 179 220 266 320
#     4   9  17  32  54  79 107 137 170 211 262 317
#     4  11  23  35  47  65  97 143 184 219 264 317
#
# _framework density 18.810943000000002
#
# number of rings (size 3 to 8) (size 9 to 14) (size 15 to 20)
#    0.000    2.273    0.909    1.909    0.000    4.364 
#    0.000    1.818    0.000    0.545    0.000    3.818 
#    0.000    0.000    0.000    0.000    0.000    0.000 
#
# Total GULP energy -545565.348696 kJ/mol
# GULP energy per Si atom -12399.212470 kJ/mol
# Density = 1.876813 g / cm^3
# Si number density = 18.810943 Si / 1000 Ang^3
#
#
#
# Elastic Constant Matrix: (Units=GPa)
#
#
# Indices 1 2 3 4 5 6 
#
# 1 37.4074 26.0730 30.1294 0.0000 0.0000 0.0000
# 2 26.0730 121.5818 70.8240 0.0000 0.0000 0.0000
# 3 30.1294 70.8240 126.5995 0.0000 0.0000 0.0000
# 4 0.0000 0.0000 0.0000 12.6022 0.0000 0.0000
# 5 0.0000 0.0000 0.0000 0.0000 17.3958 0.0000
# 6 0.0000 0.0000 0.0000 0.0000 0.0000 21.8293
#
#
#
# Elastic Compliance Matrix: (Units=1/GPa)
#
#
# Indices 1 2 3 4 5 6 
#
# 1 0.034246 -0.003851 -0.005996 0.000000 0.000000 0.000000
# 2 -0.003851 0.012634 -0.006151 0.000000 0.000000 0.000000
# 3 -0.005996 -0.006151 0.012767 0.000000 0.000000 0.000000
# 4 0.000000 0.000000 0.000000 0.079351 0.000000 0.000000
# 5 0.000000 0.000000 0.000000 0.000000 0.057485 0.000000
# 6 0.000000 0.000000 0.000000 0.000000 0.000000 0.045810
#
#
# Mechanical properties :
#
#
# Convention : Reuss Voigt Hill
#
# Bulk Modulus (GPa) = 36.16556 59.96014 48.06285
# Shear Modulus (GPa) = 17.63622 20.93629 19.28625
#
# Velocity S-wave (km/s) = 3.06527 3.33976 3.20545
# Velocity P-wave (km/s) = 5.63874 6.84225 6.26944
#
# Compressibility (1/GPa) = 0.02765061
#
# Stress axis : x y z
#
# Youngs Moduli (GPa) = 29.20029 79.15056 78.32635
#
# Poissons Ratio (x) = 0.30485 0.46961
# Poissons Ratio (y) = 0.11246 0.48181
# Poissons Ratio (z) = 0.17507 0.48688
#
# Static dielectric constant tensor:
#      x y z
#    x 3.111190 0.000000 0.000000 
#    y 0.000000 3.556660 0.000000 
#    z 0.000000 0.000000 3.462810 
# 
# 
# High freq. dielectric constant tensor:
#      x y z
#    x 1.696630 0.000000 0.000000 
#    y 0.000000 1.740040 0.000000 
#    z 0.000000 0.000000 1.734520 
# 
# From -- ./inp_files/10448.got.cif
#   From: 2010.06.25/outbox.cif.g09.slc.cpg/sg71_6_cif.got.tgz:10448.got - 2010.06.28 04:59:45.
