data_PCOD8289317
_publ_section_title
;
Structure prediction by ZEFSAII (Michael W. Deem and Ramdas Pophale) SiO2 
 PCOD8289317
Probable space group: I M M M
;
_chemical_formula_sum "Si O2"
_cell_formula_units_Z 72
_cell_length_a 19.047963
_cell_length_b 9.008121
_cell_length_c 21.888336
_cell_angle_alpha 90.000000
_cell_angle_beta 90.000000
_cell_angle_gamma 90.000000
_cell_volume 3755.739802
_symmetry_space_group_name_H-M "I M M M"
_symmetry_group_IT_number 71
_symmetry_cell_setting 'orthorhombic'
loop_
_space_group_symop_operation_xyz
x,y,z
-x,-y,z
x,-y,-z
-x,y,-z
-x,-y,-z
x,y,-z
-x,y,z
x,-y,z
1/2+x,1/2+y,1/2+z
1/2-x,1/2-y,1/2+z
1/2+x,1/2-y,1/2-z
1/2-x,1/2+y,1/2-z
1/2-x,1/2-y,1/2-z
1/2+x,1/2+y,1/2-z
1/2-x,1/2+y,1/2+z
1/2+x,1/2-y,1/2+z
loop_
_atom_site_type_symbol
_atom_site_label
_atom_site_fract_x
_atom_site_fract_y
_atom_site_fract_z
Si Si1 0.919352 0.828349 0.766000
Si Si2 0.918653 0.327097 0.641658
Si Si3 0.166557 0.824655 0.884807
Si Si4 0.301429 0.325646 0.070361
Si Si5 0.921616 0.176451 0.000000
O O1 0.896420 0.731144 0.708277
O O2 0.870929 0.778963 0.822140
O O3 0.000000 0.798716 0.784546
O O4 0.907762 0.000000 0.749266
O O5 0.901354 0.500000 0.638402
O O6 0.875887 0.242511 0.589461
O O7 0.000000 0.293136 0.629118
O O8 0.241362 0.744749 0.887348
O O9 0.118485 0.765716 0.940152
O O10 0.178293 0.000000 0.889519
O O11 0.303499 0.500000 0.081222
O O12 0.287029 0.284737 0.000000
O O13 0.000000 0.243594 0.000000
O O14 0.925449 0.000000 0.000000
#
# Coordination Sequence:
#
# PCOD8289317 Si02
#       5
#    16  16  16  16   8
#     4   9  18  34  57  86 118 150 187 231 279 331
#     4  10  22  40  62  86 110 141 184 233 285 340
#     4  10  19  33  56  84 115 152 190 231 276 325
#     4  11  24  40  58  81 113 150 187 231 283 338
#     4   9  16  28  51  83 114 147 190 233 271 316
#
# _framework density 19.170658
#
# number of rings (size 3 to 8) (size 9 to 14) (size 15 to 20)
#    0.000    2.111    1.111    2.000    0.000    7.556 
#    0.000    2.222    0.000    2.667    0.000    0.000 
#    0.000    0.000    0.000    0.000    0.000    0.000 
#
# Total GULP energy -446572.530894 kJ/mol
# GULP energy per Si atom -12404.792525 kJ/mol
# Density = 1.912702 g / cm^3
# Si number density = 19.170658 Si / 1000 Ang^3
#
#
#
# Elastic Constant Matrix: (Units=GPa)
#
#
# Indices 1 2 3 4 5 6 
#
# 1 103.8240 45.0628 48.9404 0.0000 0.0000 0.0000
# 2 45.0628 67.9788 44.0270 0.0000 0.0000 0.0000
# 3 48.9404 44.0270 70.9593 0.0000 0.0000 0.0000
# 4 0.0000 0.0000 0.0000 27.0474 0.0000 0.0000
# 5 0.0000 0.0000 0.0000 0.0000 38.7980 0.0000
# 6 0.0000 0.0000 0.0000 0.0000 0.0000 26.7591
#
#
#
# Elastic Compliance Matrix: (Units=1/GPa)
#
#
# Indices 1 2 3 4 5 6 
#
# 1 0.015442 -0.005582 -0.007187 0.000000 0.000000 0.000000
# 2 -0.005582 0.026610 -0.012661 0.000000 0.000000 0.000000
# 3 -0.007187 -0.012661 0.026905 0.000000 0.000000 0.000000
# 4 0.000000 0.000000 0.000000 0.036972 0.000000 0.000000
# 5 0.000000 0.000000 0.000000 0.000000 0.025774 0.000000
# 6 0.000000 0.000000 0.000000 0.000000 0.000000 0.037370
#
#
# Mechanical properties :
#
#
# Convention : Reuss Voigt Hill
#
# Bulk Modulus (GPa) = 55.25439 57.64692 56.45065
# Shear Modulus (GPa) = 22.12708 25.50303 23.81506
#
# Velocity S-wave (km/s) = 3.40106 3.65131 3.52840
# Velocity P-wave (km/s) = 6.65642 6.92183 6.79042
#
# Compressibility (1/GPa) = 0.01809811
#
# Stress axis : x y z
#
# Youngs Moduli (GPa) = 64.75753 37.57917 37.16763
#
# Poissons Ratio (x) = 0.20975 0.26713
# Poissons Ratio (y) = 0.36146 0.47058
# Poissons Ratio (z) = 0.46543 0.47579
#
# Static dielectric constant tensor:
#      x y z
#    x 3.546750 0.000000 0.000000 
#    y 0.000000 3.323640 0.000000 
#    z 0.000000 0.000000 3.511130 
# 
# 
# High freq. dielectric constant tensor:
#      x y z
#    x 1.752560 0.000000 0.000000 
#    y 0.000000 1.731880 0.000000 
#    z 0.000000 0.000000 1.748450 
# 
# From -- ./inp_files/7981.got.cif
#   From: 2010.06.25/outbox.cif.g09.slc.cpg/sg71_4_cif.got.tgz:7981.got - 2010.06.28 04:59:45.
