data_PCOD8289765
_publ_section_title
;
Structure prediction by ZEFSAII (Michael W. Deem and Ramdas Pophale) SiO2 
 PCOD8289765
Probable space group: I M M M
;
_chemical_formula_sum "Si O2"
_cell_formula_units_Z 80
_cell_length_a 27.640751
_cell_length_b 17.013162
_cell_length_c 9.186825
_cell_angle_alpha 90.000000
_cell_angle_beta 90.000000
_cell_angle_gamma 90.000000
_cell_volume 4320.164856
_symmetry_space_group_name_H-M "I M M M"
_symmetry_group_IT_number 71
_symmetry_cell_setting 'orthorhombic'
loop_
_space_group_symop_operation_xyz
x,y,z
-x,-y,z
x,-y,-z
-x,y,-z
-x,-y,-z
x,y,-z
-x,y,z
x,-y,z
1/2+x,1/2+y,1/2+z
1/2-x,1/2-y,1/2+z
1/2+x,1/2-y,1/2-z
1/2-x,1/2+y,1/2-z
1/2-x,1/2-y,1/2-z
1/2+x,1/2+y,1/2-z
1/2-x,1/2+y,1/2+z
1/2+x,1/2-y,1/2+z
loop_
_atom_site_type_symbol
_atom_site_label
_atom_site_fract_x
_atom_site_fract_y
_atom_site_fract_z
Si Si1 0.286246 0.912816 0.327227
Si Si2 0.405354 0.322351 0.327072
Si Si3 0.445248 0.000000 0.673690
Si Si4 0.000000 0.911025 0.173416
Si Si5 0.179713 0.093115 0.666541
Si Si6 0.386014 0.850706 0.673097
O O1 0.287034 0.918969 0.500000
O O2 0.233510 0.879999 0.280866
O O3 0.330399 0.858606 0.270939
O O4 0.294228 0.000000 0.262317
O O5 0.403731 0.325993 0.500000
O O6 0.452766 0.366373 0.266233
O O7 0.357833 0.364549 0.270054
O O8 0.406996 0.232285 0.271268
O O9 0.418535 0.077898 0.734572
O O10 0.500000 0.000000 0.732478
O O11 0.444269 0.000000 0.500000
O O12 0.000000 0.000000 0.233616
O O13 0.000000 0.910789 0.000000
O O14 0.170203 0.118158 0.500000
O O15 0.174564 0.000000 0.683890
O O16 0.387099 0.853716 0.500000
#
# Coordination Sequence:
#
# PCOD8289765 Si02
#       6
#    16  16   8   8  16  16
#     4   8  13  25  44  64  89 124 158 187 227 284
#     4  10  20  31  47  72  98 122 155 198 239 280
#     4   9  16  24  40  66  99 133 159 192 237 276
#     4   9  18  32  47  62  90 130 157 179 229 293
#     4   9  18  32  50  69  91 123 163 197 229 278
#     4   9  16  26  42  67  97 126 157 192 234 283
#
# _framework density 18.517811999999999
#
# number of rings (size 3 to 8) (size 9 to 14) (size 15 to 20)
#    0.000    3.000    1.000    1.800    1.400    2.000 
#    0.000    0.500    0.000    1.800    0.000    0.700 
#    0.000    0.800    0.000    0.000    0.000    0.000 
#
# Total GULP energy -495758.297706 kJ/mol
# GULP energy per Si atom -12393.957443 kJ/mol
# Density = 1.847566 g / cm^3
# Si number density = 18.517812 Si / 1000 Ang^3
#
#
#
# Elastic Constant Matrix: (Units=GPa)
#
#
# Indices 1 2 3 4 5 6 
#
# 1 182.1261 96.0784 14.5695 0.0000 0.0000 0.0000
# 2 96.0784 134.3127 14.4773 0.0000 0.0000 0.0000
# 3 14.5695 14.4773 8.8601 0.0000 0.0000 0.0000
# 4 0.0000 0.0000 0.0000 12.1879 0.0000 0.0000
# 5 0.0000 0.0000 0.0000 0.0000 15.9024 0.0000
# 6 0.0000 0.0000 0.0000 0.0000 0.0000 31.8769
#
#
#
# Elastic Compliance Matrix: (Units=1/GPa)
#
#
# Indices 1 2 3 4 5 6 
#
# 1 0.009012 -0.005886 -0.005202 0.000000 0.000000 0.000000
# 2 -0.005886 0.012881 -0.011369 0.000000 0.000000 0.000000
# 3 -0.005202 -0.011369 0.139996 0.000000 0.000000 0.000000
# 4 0.000000 0.000000 0.000000 0.082049 0.000000 0.000000
# 5 0.000000 0.000000 0.000000 0.000000 0.062883 0.000000
# 6 0.000000 0.000000 0.000000 0.000000 0.000000 0.031371
#
#
# Mechanical properties :
#
#
# Convention : Reuss Voigt Hill
#
# Bulk Modulus (GPa) = 8.54876 63.94993 36.24935
# Shear Modulus (GPa) = 11.84564 25.33835 18.59200
#
# Velocity S-wave (km/s) = 2.53195 3.70310 3.17204
# Velocity P-wave (km/s) = 3.62963 7.27277 5.74750
#
# Compressibility (1/GPa) = 0.11697598
#
# Stress axis : x y z
#
# Youngs Moduli (GPa) = 110.96590 77.63355 7.14306
#
# Poissons Ratio (x) = 0.45693 0.03716
# Poissons Ratio (y) = 0.65312 0.08121
# Poissons Ratio (z) = 0.57721 0.88261
#
# Static dielectric constant tensor:
#      x y z
#    x 3.756810 0.000000 0.000000 
#    y 0.000000 3.585390 0.000000 
#    z 0.000000 0.000000 2.697400 
# 
# 
# High freq. dielectric constant tensor:
#      x y z
#    x 1.737860 0.000000 0.000000 
#    y 0.000000 1.721020 0.000000 
#    z 0.000000 0.000000 1.640010 
# 
# From -- ./inp_files/8389.got.cif
#   From: 2010.06.25/outbox.cif.g09.slc.cpg/sg71_5_cif.got.tgz:8389.got - 2010.06.28 04:59:45.
