data_PCOD8289988
_publ_section_title
;
Structure prediction by ZEFSAII (Michael W. Deem and Ramdas Pophale) SiO2 
 PCOD8289988
Probable space group: I M M M
;
_chemical_formula_sum "Si O2"
_cell_formula_units_Z 88
_cell_length_a 8.735541
_cell_length_b 19.380816
_cell_length_c 28.165989
_cell_angle_alpha 90.000000
_cell_angle_beta 90.000000
_cell_angle_gamma 90.000000
_cell_volume 4768.555813
_symmetry_space_group_name_H-M "I M M M"
_symmetry_group_IT_number 71
_symmetry_cell_setting 'orthorhombic'
loop_
_space_group_symop_operation_xyz
x,y,z
-x,-y,z
x,-y,-z
-x,y,-z
-x,-y,-z
x,y,-z
-x,y,z
x,-y,z
1/2+x,1/2+y,1/2+z
1/2-x,1/2-y,1/2+z
1/2+x,1/2-y,1/2-z
1/2-x,1/2+y,1/2-z
1/2-x,1/2-y,1/2-z
1/2+x,1/2+y,1/2-z
1/2-x,1/2+y,1/2+z
1/2+x,1/2-y,1/2+z
loop_
_atom_site_type_symbol
_atom_site_label
_atom_site_fract_x
_atom_site_fract_y
_atom_site_fract_z
Si Si1 0.818512 0.659735 0.587067
Si Si2 0.816950 0.577447 0.322290
Si Si3 0.175999 0.081389 0.000000
Si Si4 0.332936 0.918304 0.720684
Si Si5 0.316954 0.076992 0.618623
Si Si6 0.681492 0.799174 0.554235
O O1 0.759020 0.629359 0.637146
O O2 0.756230 0.610930 0.546160
O O3 0.755985 0.736652 0.582646
O O4 0.000000 0.660342 0.584061
O O5 0.758524 0.500000 0.334264
O O6 0.750107 0.602815 0.270547
O O7 0.000000 0.576980 0.319378
O O8 0.000000 0.105143 0.000000
O O9 0.194680 0.000000 0.000000
O O10 0.500000 0.882785 0.720060
O O11 0.249189 0.899508 0.670635
O O12 0.353032 0.000000 0.721912
O O13 0.500000 0.076341 0.622231
O O14 0.260818 0.130037 0.578500
O O15 0.258572 0.000000 0.605062
O O16 0.739100 0.798956 0.500000
O O17 0.500000 0.792127 0.556777
#
# Coordination Sequence:
#
# PCOD8289988 Si02
#       6
#    16  16   8  16  16  16
#     4  11  21  33  50  71  97 131 169 202 234 286
#     4   8  14  25  43  68  95 122 156 201 245 280
#     4  11  23  37  53  73  98 127 162 205 249 286
#     4   7  10  20  40  66  95 121 149 195 249 290
#     4   8  14  26  47  73  95 121 162 205 245 295
#     4  10  20  33  48  67  98 134 163 201 253 296
#
# _framework density 18.454225000000001
#
# number of rings (size 3 to 8) (size 9 to 14) (size 15 to 20)
#    0.000    3.000    0.909    3.545    0.000    1.818 
#    0.000    2.727    0.000    0.545    0.000    2.545 
#    0.000    8.727    0.000    0.000    0.000    0.000 
#
# Total GULP energy -545079.237894 kJ/mol
# GULP energy per Si atom -12388.164498 kJ/mol
# Density = 1.841222 g / cm^3
# Si number density = 18.454225 Si / 1000 Ang^3
#
#
#
# Elastic Constant Matrix: (Units=GPa)
#
#
# Indices 1 2 3 4 5 6 
#
# 1 18.4252 18.2419 19.3813 0.0000 0.0000 0.0000
# 2 18.2419 113.8008 78.1955 0.0000 0.0000 0.0000
# 3 19.3813 78.1955 140.9771 0.0000 0.0000 0.0000
# 4 0.0000 0.0000 0.0000 12.4661 0.0000 0.0000
# 5 0.0000 0.0000 0.0000 0.0000 4.1435 0.0000
# 6 0.0000 0.0000 0.0000 0.0000 0.0000 17.0584
#
#
#
# Elastic Compliance Matrix: (Units=1/GPa)
#
#
# Indices 1 2 3 4 5 6 
#
# 1 0.066828 -0.007109 -0.005244 0.000000 0.000000 0.000000
# 2 -0.007109 0.014955 -0.007318 0.000000 0.000000 0.000000
# 3 -0.005244 -0.007318 0.011873 0.000000 0.000000 0.000000
# 4 0.000000 0.000000 0.000000 0.080218 0.000000 0.000000
# 5 0.000000 0.000000 0.000000 0.000000 0.241340 0.000000
# 6 0.000000 0.000000 0.000000 0.000000 0.000000 0.058622
#
#
# Mechanical properties :
#
#
# Convention : Reuss Voigt Hill
#
# Bulk Modulus (GPa) = 18.41125 56.09339 37.25232
# Shear Modulus (GPa) = 9.41118 17.22589 13.31854
#
# Velocity S-wave (km/s) = 2.26071 3.05854 2.68937
# Velocity P-wave (km/s) = 4.10034 6.55247 5.46569
#
# Compressibility (1/GPa) = 0.05431462
#
# Stress axis : x y z
#
# Youngs Moduli (GPa) = 14.96374 66.86711 84.22269
#
# Poissons Ratio (x) = 0.47534 0.44170
# Poissons Ratio (y) = 0.10637 0.61632
# Poissons Ratio (z) = 0.07848 0.48932
#
# Static dielectric constant tensor:
#      x y z
#    x 2.884790 0.000000 0.000000 
#    y 0.000000 3.325660 0.000000 
#    z 0.000000 0.000000 4.008140 
# 
# 
# High freq. dielectric constant tensor:
#      x y z
#    x 1.656570 0.000000 0.000000 
#    y 0.000000 1.697460 0.000000 
#    z 0.000000 0.000000 1.739870 
# 
# From -- ./inp_files/68021.got.cif
#   From: 2010.06.25/outbox.cif.g09.slc.cpg/sg71_35_cif.got.tgz:68021.got - 2010.06.28 04:59:45.
