data_PCOD8289832
_publ_section_title
;
Structure prediction by ZEFSAII (Michael W. Deem and Ramdas Pophale) SiO2 
 PCOD8289832
Probable space group: I M M M
;
_chemical_formula_sum "Si O2"
_cell_formula_units_Z 104
_cell_length_a 26.897699
_cell_length_b 23.886619
_cell_length_c 9.114440
_cell_angle_alpha 90.000000
_cell_angle_beta 90.000000
_cell_angle_gamma 90.000000
_cell_volume 5855.982930
_symmetry_space_group_name_H-M "I M M M"
_symmetry_group_IT_number 71
_symmetry_cell_setting 'orthorhombic'
loop_
_space_group_symop_operation_xyz
x,y,z
-x,-y,z
x,-y,-z
-x,y,-z
-x,-y,-z
x,y,-z
-x,y,z
x,-y,z
1/2+x,1/2+y,1/2+z
1/2-x,1/2-y,1/2+z
1/2+x,1/2-y,1/2-z
1/2-x,1/2+y,1/2-z
1/2-x,1/2-y,1/2-z
1/2+x,1/2+y,1/2-z
1/2-x,1/2+y,1/2+z
1/2+x,1/2-y,1/2+z
loop_
_atom_site_type_symbol
_atom_site_label
_atom_site_fract_x
_atom_site_fract_y
_atom_site_fract_z
Si Si1 0.771213 0.803865 0.171298
Si Si2 0.000000 0.566482 0.666177
Si Si3 0.558447 0.331458 0.332189
Si Si4 0.440989 0.438602 0.164040
Si Si5 0.098965 0.434858 0.171723
Si Si6 0.171100 0.645195 0.332110
Si Si7 0.862237 0.229387 0.328756
O O1 0.750000 0.750000 0.250000
O O2 0.731133 0.854159 0.193039
O O3 0.824528 0.814264 0.247245
O O4 0.778323 0.791111 0.000000
O O5 0.049410 0.588236 0.748206
O O6 0.000000 0.500000 0.669259
O O7 0.000000 0.589625 0.500000
O O8 0.574354 0.324614 0.500000
O O9 0.500000 0.325087 0.309896
O O10 0.578141 0.391916 0.277015
O O11 0.583236 0.282843 0.235041
O O12 0.500000 0.439797 0.164489
O O13 0.420892 0.500000 0.212153
O O14 0.421975 0.424072 0.000000
O O15 0.107953 0.500000 0.207588
O O16 0.146839 0.401013 0.227568
O O17 0.091802 0.424761 0.000000
O O18 0.158618 0.629655 0.500000
O O19 0.149668 0.706280 0.293296
O O20 0.859690 0.216855 0.500000
#
# Coordination Sequence:
#
# PCOD8289832 Si02
#       7
#    16   8  16  16  16  16  16
#     4   9  17  31  52  76 100 124 157 201 244 292
#     4   9  17  31  51  71  95 131 171 209 250 299
#     4  10  20  32  47  70 101 135 168 203 247 299
#     4   8  14  26  45  67  90 120 159 199 237 279
#     4  10  20  33  51  76 104 134 170 213 259 306
#     4   9  19  34  52  76 100 128 166 205 251 304
#     4  10  20  34  52  74 100 133 171 209 252 302
#
# _framework density 17.759615
#
# number of rings (size 3 to 8) (size 9 to 14) (size 15 to 20)
#    0.000    2.692    0.000    3.462    0.000    6.769 
#    1.385    1.538    0.000    0.923    0.000    4.308 
#    0.000    0.000    0.000    0.000    0.000    0.000 
#
# Total GULP energy -644545.337964 kJ/mol
# GULP energy per Si atom -12395.102653 kJ/mol
# Density = 1.771919 g / cm^3
# Si number density = 17.759615 Si / 1000 Ang^3
#
#
#
# Elastic Constant Matrix: (Units=GPa)
#
#
# Indices 1 2 3 4 5 6 
#
# 1 70.8139 36.1408 53.9688 0.0000 0.0000 0.0000
# 2 36.1408 56.4605 45.9384 0.0000 0.0000 0.0000
# 3 53.9688 45.9384 122.7661 0.0000 0.0000 0.0000
# 4 0.0000 0.0000 0.0000 28.8019 0.0000 0.0000
# 5 0.0000 0.0000 0.0000 0.0000 33.6427 0.0000
# 6 0.0000 0.0000 0.0000 0.0000 0.0000 24.4319
#
#
#
# Elastic Compliance Matrix: (Units=1/GPa)
#
#
# Indices 1 2 3 4 5 6 
#
# 1 0.024622 -0.009998 -0.007083 0.000000 0.000000 0.000000
# 2 -0.009998 0.029524 -0.006653 0.000000 0.000000 0.000000
# 3 -0.007083 -0.006653 0.013749 0.000000 0.000000 0.000000
# 4 0.000000 0.000000 0.000000 0.034720 0.000000 0.000000
# 5 0.000000 0.000000 0.000000 0.000000 0.029724 0.000000
# 6 0.000000 0.000000 0.000000 0.000000 0.000000 0.040930
#
#
# Mechanical properties :
#
#
# Convention : Reuss Voigt Hill
#
# Bulk Modulus (GPa) = 48.95238 58.01515 53.48377
# Shear Modulus (GPa) = 21.97368 24.97480 23.47424
#
# Velocity S-wave (km/s) = 3.52132 3.75409 3.63957
# Velocity P-wave (km/s) = 6.64505 7.17835 6.91684
#
# Compressibility (1/GPa) = 0.02042802
#
# Stress axis : x y z
#
# Youngs Moduli (GPa) = 40.61392 33.87073 72.73465
#
# Poissons Ratio (x) = 0.33864 0.51517
# Poissons Ratio (y) = 0.40605 0.48387
# Poissons Ratio (z) = 0.28766 0.22533
#
# Static dielectric constant tensor:
#      x y z
#    x 3.246680 0.000000 0.000000 
#    y 0.000000 3.137460 0.000000 
#    z 0.000000 0.000000 3.475410 
# 
# 
# High freq. dielectric constant tensor:
#      x y z
#    x 1.675880 0.000000 0.000000 
#    y 0.000000 1.656650 0.000000 
#    z 0.000000 0.000000 1.699820 
# 
# From -- ./inp_files/15325.got.cif
#   From: 2010.06.25/outbox.cif.g09.slc.cpg/sg71_8_cif.got.tgz:15325.got - 2010.06.28 04:59:45.
