data_PCOD8289918
_publ_section_title
;
Structure prediction by ZEFSAII (Michael W. Deem and Ramdas Pophale) SiO2 
 PCOD8289918
Probable space group: I M M M
;
_chemical_formula_sum "Si O2"
_cell_formula_units_Z 104
_cell_length_a 8.916915
_cell_length_b 31.992987
_cell_length_c 20.555357
_cell_angle_alpha 90.000000
_cell_angle_beta 90.000000
_cell_angle_gamma 90.000000
_cell_volume 5864.006462
_symmetry_space_group_name_H-M "I M M M"
_symmetry_group_IT_number 71
_symmetry_cell_setting 'orthorhombic'
loop_
_space_group_symop_operation_xyz
x,y,z
-x,-y,z
x,-y,-z
-x,y,-z
-x,-y,-z
x,y,-z
-x,y,z
x,-y,z
1/2+x,1/2+y,1/2+z
1/2-x,1/2-y,1/2+z
1/2+x,1/2-y,1/2-z
1/2-x,1/2+y,1/2-z
1/2-x,1/2-y,1/2-z
1/2+x,1/2+y,1/2-z
1/2-x,1/2+y,1/2+z
1/2+x,1/2-y,1/2+z
loop_
_atom_site_type_symbol
_atom_site_label
_atom_site_fract_x
_atom_site_fract_y
_atom_site_fract_z
Si Si1 0.323506 0.000000 0.930840
Si Si2 0.170796 0.690332 0.074403
Si Si3 0.176329 0.954681 0.300301
Si Si4 0.171294 0.564628 0.329171
Si Si5 0.177038 0.137336 0.681184
Si Si6 0.671945 0.159203 0.814383
Si Si7 0.824700 0.212637 0.926548
O O1 0.275196 0.958063 0.894188
O O2 0.500000 0.000000 0.940265
O O3 0.240316 0.000000 0.000000
O O4 0.282381 0.663079 0.117455
O O5 0.210520 0.738708 0.083256
O O6 0.000000 0.681734 0.096102
O O7 0.194559 0.676676 0.000000
O O8 0.218547 0.952769 0.225175
O O9 0.238008 0.910724 0.330471
O O10 0.000000 0.955213 0.308447
O O11 0.237488 0.000000 0.328881
O O12 0.188907 0.613254 0.343575
O O13 0.000000 0.553414 0.309468
O O14 0.247465 0.160268 0.744161
O O15 0.000000 0.136893 0.691792
O O16 0.500000 0.172138 0.802903
O O17 0.740160 0.189430 0.868568
O O18 0.000000 0.203513 0.919540
O O19 0.772197 0.199283 0.000000
#
# Coordination Sequence:
#
# PCOD8289918 Si02
#       7
#     8  16  16  16  16  16  16
#     4   9  16  26  41  61  87 121 160 201 244 287
#     4   9  19  37  58  77 100 131 166 206 253 306
#     4   9  17  30  49  71  97 128 159 197 243 291
#     4   9  17  29  45  65  90 124 164 204 245 289
#     4  10  20  33  52  79 106 133 168 208 253 302
#     4  10  20  32  49  75 104 133 170 215 256 297
#     4   9  19  36  55  73  97 134 174 209 254 308
#
# _framework density 17.735315
#
# number of rings (size 3 to 8) (size 9 to 14) (size 15 to 20)
#    0.000    2.692    0.769    1.846    0.000    3.692 
#    0.000    3.077    0.000    1.385    0.000    3.231 
#    0.000    0.000    0.000    0.000    0.000    0.000 
#
# Total GULP energy -644248.618141 kJ/mol
# GULP energy per Si atom -12389.396503 kJ/mol
# Density = 1.769495 g / cm^3
# Si number density = 17.735315 Si / 1000 Ang^3
#
#
#
# Elastic Constant Matrix: (Units=GPa)
#
#
# Indices 1 2 3 4 5 6 
#
# 1 43.3699 35.2629 30.1880 0.0000 0.0000 0.0000
# 2 35.2629 95.6732 58.5727 0.0000 0.0000 0.0000
# 3 30.1880 58.5727 90.8848 -0.0003 0.0000 0.0000
# 4 0.0000 0.0000 -0.0003 30.8731 0.0000 0.0000
# 5 0.0000 0.0000 0.0000 0.0000 28.5647 0.0000
# 6 0.0000 0.0000 0.0000 0.0000 0.0000 20.3839
#
#
#
# Elastic Compliance Matrix: (Units=1/GPa)
#
#
# Indices 1 2 3 4 5 6 
#
# 1 0.034448 -0.009401 -0.005384 0.000000 0.000000 0.000000
# 2 -0.009401 0.019829 -0.009657 0.000000 0.000000 0.000000
# 3 -0.005384 -0.009657 0.019015 0.000000 0.000000 0.000000
# 4 0.000000 0.000000 0.000000 0.032391 0.000000 0.000000
# 5 0.000000 0.000000 0.000000 0.000000 0.035008 0.000000
# 6 0.000000 0.000000 0.000000 0.000000 0.000000 0.049058
#
#
# Mechanical properties :
#
#
# Convention : Reuss Voigt Hill
#
# Bulk Modulus (GPa) = 40.96747 53.10834 47.03790
# Shear Modulus (GPa) = 20.26189 23.02465 21.64327
#
# Velocity S-wave (km/s) = 3.38370 3.60701 3.49714
# Velocity P-wave (km/s) = 6.19801 6.88167 6.54877
#
# Compressibility (1/GPa) = 0.02440961
#
# Stress axis : x y z
#
# Youngs Moduli (GPa) = 29.02895 50.43054 52.59092
#
# Poissons Ratio (x) = 0.47409 0.28313
# Poissons Ratio (y) = 0.27290 0.50786
# Poissons Ratio (z) = 0.15628 0.48700
#
# Static dielectric constant tensor:
#      x y z
#    x 3.179300 0.000000 0.000000 
#    y 0.000000 3.651890 0.000000 
#    z 0.000000 0.000000 3.189870 
# 
# 
# High freq. dielectric constant tensor:
#      x y z
#    x 1.674890 0.000000 0.000000 
#    y 0.000000 1.696990 0.000000 
#    z 0.000000 0.000000 1.667270 
# 
# From -- ./inp_files/15314.got.cif
#   From: 2010.06.25/outbox.cif.g09.slc.cpg/sg71_8_cif.got.tgz:15314.got - 2010.06.28 04:59:45.
