data_PCOD8289371
_publ_section_title
;
Structure prediction by ZEFSAII (Michael W. Deem and Ramdas Pophale) SiO2 
 PCOD8289371
Probable space group: I M M M
;
_chemical_formula_sum "Si O2"
_cell_formula_units_Z 104
_cell_length_a 8.726078
_cell_length_b 30.021916
_cell_length_c 21.829613
_cell_angle_alpha 90.000000
_cell_angle_beta 90.000000
_cell_angle_gamma 90.000000
_cell_volume 5718.781883
_symmetry_space_group_name_H-M "I M M M"
_symmetry_group_IT_number 71
_symmetry_cell_setting 'orthorhombic'
loop_
_space_group_symop_operation_xyz
x,y,z
-x,-y,z
x,-y,-z
-x,y,-z
-x,-y,-z
x,y,-z
-x,y,z
x,-y,z
1/2+x,1/2+y,1/2+z
1/2-x,1/2-y,1/2+z
1/2+x,1/2-y,1/2-z
1/2-x,1/2+y,1/2-z
1/2-x,1/2-y,1/2-z
1/2+x,1/2+y,1/2-z
1/2-x,1/2+y,1/2+z
1/2+x,1/2-y,1/2+z
loop_
_atom_site_type_symbol
_atom_site_label
_atom_site_fract_x
_atom_site_fract_y
_atom_site_fract_z
Si Si1 0.824926 0.897221 0.398106
Si Si2 0.830546 0.448354 0.000000
Si Si3 0.170113 0.552558 0.566527
Si Si4 0.823372 0.051725 0.187890
Si Si5 0.175640 0.202670 0.566823
Si Si6 0.318074 0.285237 0.797037
Si Si7 0.322901 0.121377 0.723625
O O1 0.770096 0.936177 0.441622
O O2 0.808514 0.850406 0.432596
O O3 0.711767 0.900769 0.341126
O O4 0.000000 0.905085 0.377008
O O5 0.856119 0.500000 0.000000
O O6 0.000000 0.425227 0.000000
O O7 0.220818 0.571990 0.500000
O O8 0.162083 0.500000 0.561781
O O9 0.293537 0.566164 0.617582
O O10 0.000000 0.570717 0.583601
O O11 0.719430 0.084518 0.226795
O O12 0.000000 0.059249 0.203947
O O13 0.776156 0.000000 0.199239
O O14 0.248817 0.218520 0.500000
O O15 0.245544 0.221333 0.631959
O O16 0.000000 0.217435 0.565654
O O17 0.500000 0.281164 0.798163
O O18 0.250000 0.250000 0.750000
O O19 0.275414 0.333522 0.770423
O O20 0.500000 0.134066 0.730105
#
# Coordination Sequence:
#
# PCOD8289371 Si02
#       7
#    16   8  16  16  16  16  16
#     4  10  19  34  54  73  97 131 175 222 267 319
#     4  11  23  35  47  69 103 141 181 227 277 323
#     4   8  14  26  45  69  97 129 166 209 257 309
#     4  10  20  33  50  74 104 138 178 221 265 318
#     4   8  14  28  53  81 102 128 168 214 260 309
#     4  10  20  35  57  83 113 143 177 222 272 331
#     4  11  22  36  55  78 106 140 179 223 275 328
#
# _framework density 18.185692
#
# number of rings (size 3 to 8) (size 9 to 14) (size 15 to 20)
#    0.000    2.385    0.769    4.385    0.000    2.462 
#    0.000    1.538    0.000    0.923    0.000    2.154 
#    0.000    0.000    0.000    0.000    0.000    0.000 
#
# Total GULP energy -644200.587074 kJ/mol
# GULP energy per Si atom -12388.472828 kJ/mol
# Density = 1.814430 g / cm^3
# Si number density = 18.185692 Si / 1000 Ang^3
#
#
#
# Elastic Constant Matrix: (Units=GPa)
#
#
# Indices 1 2 3 4 5 6 
#
# 1 68.6937 21.6568 33.8035 0.0000 0.0000 0.0000
# 2 21.6568 58.4297 52.8519 0.0000 0.0000 0.0000
# 3 33.8035 52.8519 137.8949 -0.0001 0.0000 0.0000
# 4 0.0000 0.0000 -0.0001 25.3207 0.0000 0.0000
# 5 0.0000 0.0000 0.0000 0.0000 29.8178 0.0000
# 6 0.0000 0.0000 0.0000 0.0000 0.0000 24.5429
#
#
#
# Elastic Compliance Matrix: (Units=1/GPa)
#
#
# Indices 1 2 3 4 5 6 
#
# 1 0.017116 -0.003901 -0.002701 0.000000 0.000000 0.000000
# 2 -0.003901 0.027086 -0.009425 0.000000 0.000000 0.000000
# 3 -0.002701 -0.009425 0.011526 0.000000 0.000000 0.000000
# 4 0.000000 0.000000 0.000000 0.039493 0.000000 0.000000
# 5 0.000000 0.000000 0.000000 0.000000 0.033537 0.000000
# 6 0.000000 0.000000 0.000000 0.000000 0.000000 0.040745
#
#
# Mechanical properties :
#
#
# Convention : Reuss Voigt Hill
#
# Bulk Modulus (GPa) = 42.23936 53.51587 47.87761
# Shear Modulus (GPa) = 23.87216 26.38337 25.12776
#
# Velocity S-wave (km/s) = 3.62704 3.81304 3.72120
# Velocity P-wave (km/s) = 6.38887 6.99121 6.69681
#
# Compressibility (1/GPa) = 0.02367460
#
# Stress axis : x y z
#
# Youngs Moduli (GPa) = 58.42402 36.91963 86.75808
#
# Poissons Ratio (x) = 0.14403 0.23430
# Poissons Ratio (y) = 0.22793 0.81770
# Poissons Ratio (z) = 0.15778 0.34797
#
# Static dielectric constant tensor:
#      x y z
#    x 3.318040 0.000000 0.000000 
#    y 0.000000 2.988040 0.000000 
#    z 0.000000 0.000000 3.588120 
# 
# 
# High freq. dielectric constant tensor:
#      x y z
#    x 1.697160 0.000000 0.000000 
#    y 0.000000 1.658320 0.000000 
#    z 0.000000 0.000000 1.722640 
# 
# From -- ./inp_files/51152.got.cif
#   From: 2010.06.25/outbox.cif.g09.slc.cpg/sg71_26_cif.got.tgz:51152.got - 2010.06.28 04:59:45.
