data_PCOD8289256
_publ_section_title
;
Structure prediction by ZEFSAII (Michael W. Deem and Ramdas Pophale) SiO2 
 PCOD8289256
Probable space group: I M M M
;
_chemical_formula_sum "Si O2"
_cell_formula_units_Z 104
_cell_length_a 21.902799
_cell_length_b 26.623779
_cell_length_c 9.659245
_cell_angle_alpha 90.000000
_cell_angle_beta 90.000000
_cell_angle_gamma 90.000000
_cell_volume 5632.646538
_symmetry_space_group_name_H-M "I M M M"
_symmetry_group_IT_number 71
_symmetry_cell_setting 'orthorhombic'
loop_
_space_group_symop_operation_xyz
x,y,z
-x,-y,z
x,-y,-z
-x,y,-z
-x,-y,-z
x,y,-z
-x,y,z
x,-y,z
1/2+x,1/2+y,1/2+z
1/2-x,1/2-y,1/2+z
1/2+x,1/2-y,1/2-z
1/2-x,1/2+y,1/2-z
1/2-x,1/2-y,1/2-z
1/2+x,1/2+y,1/2-z
1/2-x,1/2+y,1/2+z
1/2+x,1/2-y,1/2+z
loop_
_atom_site_type_symbol
_atom_site_label
_atom_site_fract_x
_atom_site_fract_y
_atom_site_fract_z
Si Si1 0.000000 0.558177 0.848076
Si Si2 0.382677 0.792047 0.845246
Si Si3 0.320463 0.619821 0.154729
Si Si4 0.775549 0.707654 0.153412
Si Si5 0.398389 0.098294 0.846193
Si Si6 0.233792 0.558200 0.659615
Si Si7 0.067560 0.184854 0.335896
O O1 0.939071 0.571044 0.765818
O O2 0.000000 0.500000 0.873222
O O3 0.000000 0.584768 0.000000
O O4 0.335711 0.810388 0.729547
O O5 0.421213 0.843475 0.853684
O O6 0.418031 0.742583 0.791937
O O7 0.354719 0.780927 0.000000
O O8 0.272779 0.664126 0.142040
O O9 0.292484 0.576995 0.252650
O O10 0.382932 0.644172 0.219158
O O11 0.332475 0.597723 0.000000
O O12 0.750000 0.750000 0.250000
O O13 0.790983 0.728182 0.000000
O O14 0.327146 0.089953 0.804595
O O15 0.408033 0.074671 0.000000
O O16 0.251731 0.565681 0.500000
O O17 0.221967 0.500000 0.695479
O O18 0.067976 0.182496 0.500000
O O19 0.000000 0.171305 0.278007
#
# Coordination Sequence:
#
# PCOD8289256 Si02
#       7
#     8  16  16  16  16  16  16
#     4  11  25  41  55  73 105 151 195 235 280 323
#     4  10  19  33  54  81 109 141 180 218 266 323
#     4  10  20  34  54  81 109 141 182 227 277 327
#     4  11  20  31  50  78 111 143 177 217 264 317
#     4  10  21  36  58  83 108 141 187 233 272 326
#     4  10  21  37  58  83 109 139 177 228 287 338
#     4   9  18  33  54  79 110 146 183 220 261 321
#
# _framework density 18.463789999999999
#
# number of rings (size 3 to 8) (size 9 to 14) (size 15 to 20)
#    0.000    1.923    3.077    1.154    1.077    3.385 
#    0.000    0.000    0.000    1.846    0.000    3.231 
#    0.000    0.000    0.000    0.000    0.000    0.000 
#
# Total GULP energy -644251.073973 kJ/mol
# GULP energy per Si atom -12389.443730 kJ/mol
# Density = 1.842177 g / cm^3
# Si number density = 18.463790 Si / 1000 Ang^3
#
#
#
# Elastic Constant Matrix: (Units=GPa)
#
#
# Indices 1 2 3 4 5 6 
#
# 1 115.0685 33.2509 46.1499 0.0000 0.0000 0.0000
# 2 33.2509 76.8108 30.7262 0.0000 0.0000 0.0000
# 3 46.1499 30.7262 98.5369 0.0000 0.0000 0.0000
# 4 0.0000 0.0000 0.0000 25.5771 0.0000 0.0000
# 5 0.0000 0.0000 0.0000 0.0000 6.8589 0.0000
# 6 0.0000 0.0000 0.0000 0.0000 0.0000 22.1135
#
#
#
# Elastic Compliance Matrix: (Units=1/GPa)
#
#
# Indices 1 2 3 4 5 6 
#
# 1 0.011343 -0.003182 -0.004320 0.000000 0.000000 0.000000
# 2 -0.003182 0.015767 -0.003426 0.000000 0.000000 0.000000
# 3 -0.004320 -0.003426 0.013240 0.000000 0.000000 0.000000
# 4 0.000000 0.000000 0.000000 0.039097 0.000000 0.000000
# 5 0.000000 0.000000 0.000000 0.000000 0.145797 0.000000
# 6 0.000000 0.000000 0.000000 0.000000 0.000000 0.045221
#
#
# Mechanical properties :
#
#
# Convention : Reuss Voigt Hill
#
# Bulk Modulus (GPa) = 54.07407 56.74113 55.40760
# Shear Modulus (GPa) = 16.75117 22.92917 19.84017
#
# Velocity S-wave (km/s) = 3.01532 3.52781 3.28158
# Velocity P-wave (km/s) = 6.43995 6.88416 6.66576
#
# Compressibility (1/GPa) = 0.01849315
#
# Stress axis : x y z
#
# Youngs Moduli (GPa) = 88.16321 63.42335 75.52756
#
# Poissons Ratio (x) = 0.20181 0.32629
# Poissons Ratio (y) = 0.28054 0.25878
# Poissons Ratio (z) = 0.38087 0.21730
#
# Static dielectric constant tensor:
#      x y z
#    x 4.145440 0.000000 0.000000 
#    y 0.000000 3.341030 0.000000 
#    z 0.000000 0.000000 4.229690 
# 
# 
# High freq. dielectric constant tensor:
#      x y z
#    x 1.700850 0.000000 0.000000 
#    y 0.000000 1.704940 0.000000 
#    z 0.000000 0.000000 1.705150 
# 
# From -- ./inp_files/13337.got.cif
#   From: 2010.06.25/outbox.cif.g09.slc.cpg/sg71_7_cif.got.tgz:13337.got - 2010.06.28 04:59:45.
