data_PCOD8289494
_publ_section_title
;
Structure prediction by ZEFSAII (Michael W. Deem and Ramdas Pophale) SiO2 
 PCOD8289494
Probable space group: I M M M
;
_chemical_formula_sum "Si O2"
_cell_formula_units_Z 112
_cell_length_a 20.861639
_cell_length_b 15.404003
_cell_length_c 18.156340
_cell_angle_alpha 90.000000
_cell_angle_beta 90.000000
_cell_angle_gamma 90.000000
_cell_volume 5834.589784
_symmetry_space_group_name_H-M "I M M M"
_symmetry_group_IT_number 71
_symmetry_cell_setting 'orthorhombic'
loop_
_space_group_symop_operation_xyz
x,y,z
-x,-y,z
x,-y,-z
-x,y,-z
-x,-y,-z
x,y,-z
-x,y,z
x,-y,z
1/2+x,1/2+y,1/2+z
1/2-x,1/2-y,1/2+z
1/2+x,1/2-y,1/2-z
1/2-x,1/2+y,1/2-z
1/2-x,1/2-y,1/2-z
1/2+x,1/2+y,1/2-z
1/2-x,1/2+y,1/2+z
1/2+x,1/2-y,1/2+z
loop_
_atom_site_type_symbol
_atom_site_label
_atom_site_fract_x
_atom_site_fract_y
_atom_site_fract_z
Si Si1 0.571191 0.593401 0.602002
Si Si2 0.800884 0.095638 0.334931
Si Si3 0.069790 0.864518 0.269907
Si Si4 0.768379 0.741504 0.585735
Si Si5 0.375026 0.771522 0.579926
Si Si6 0.700066 0.099708 0.792728
Si Si7 0.927075 0.670389 0.228601
O O1 0.500000 0.600849 0.569588
O O2 0.601400 0.500000 0.579506
O O3 0.568498 0.598832 0.688847
O O4 0.611902 0.669892 0.567452
O O5 0.874060 0.084918 0.310039
O O6 0.806109 0.169448 0.397324
O O7 0.753539 0.124924 0.268298
O O8 0.779028 0.000000 0.364493
O O9 0.083346 0.761615 0.269020
O O10 0.000000 0.882285 0.307082
O O11 0.776712 0.715407 0.500000
O O12 0.697548 0.773112 0.606909
O O13 0.791074 0.661244 0.636196
O O14 0.384080 0.817838 0.500000
O O15 0.419497 0.818205 0.640085
O O16 0.627710 0.107136 0.760196
O O17 0.709782 0.000000 0.817619
O O18 0.000000 0.635194 0.242263
#
# Coordination Sequence:
#
# PCOD8289494 Si02
#       7
#    16  16  16  16  16  16  16
#     4   9  17  28  43  71 112 150 186 229 277 337
#     4  11  21  35  61  88 115 154 192 238 291 342
#     4   9  17  30  53  83 111 142 183 231 284 343
#     4  11  23  39  59  84 120 158 191 237 295 358
#     4  10  20  33  52  78 113 156 193 233 292 359
#     4  11  22  38  62  88 115 151 201 253 297 346
#     4  10  19  34  58  83 113 152 197 251 298 343
#
# _framework density 19.195865000000001
#
# number of rings (size 3 to 8) (size 9 to 14) (size 15 to 20)
#    0.000    1.857    2.857    3.857    0.000    4.857 
#    0.000    2.143    0.000    2.143    0.000    3.000 
#    0.000    0.000    0.000    0.000    0.000    0.000 
#
# Total GULP energy -693844.457860 kJ/mol
# GULP energy per Si atom -12390.079605 kJ/mol
# Density = 1.915217 g / cm^3
# Si number density = 19.195865 Si / 1000 Ang^3
#
#
#
# Elastic Constant Matrix: (Units=GPa)
#
#
# Indices 1 2 3 4 5 6 
#
# 1 101.7302 10.8627 28.0040 0.0000 0.0000 0.0000
# 2 10.8627 81.8346 34.2117 0.0000 0.0000 0.0000
# 3 28.0040 34.2117 66.4412 0.0000 0.0000 0.0000
# 4 0.0000 0.0000 0.0000 4.5789 0.0000 0.0000
# 5 0.0000 0.0000 0.0000 0.0000 46.4877 0.0000
# 6 0.0000 0.0000 0.0000 0.0000 0.0000 -8.1020
#
#
#
# Elastic Compliance Matrix: (Units=1/GPa)
#
#
# Indices 1 2 3 4 5 6 
#
# 1 0.011145 0.000617 -0.005015 0.000000 0.000000 0.000000
# 2 0.000617 0.015606 -0.008296 0.000000 0.000000 0.000000
# 3 -0.005015 -0.008296 0.021436 0.000000 0.000000 0.000000
# 4 0.000000 0.000000 0.000000 0.218393 0.000000 0.000000
# 5 0.000000 0.000000 0.000000 0.000000 0.021511 0.000000
# 6 0.000000 0.000000 0.000000 0.000000 0.000000 -0.123426
#
#
# Mechanical properties :
#
#
# Convention : Reuss Voigt Hill
#
# Bulk Modulus (GPa) = 43.86079 44.01808 43.93943
# Shear Modulus (GPa) = 25.29686 20.38810 22.84248
#
# Velocity S-wave (km/s) = 3.63413 3.26254 3.45333
# Velocity P-wave (km/s) = 6.36458 6.09697 6.23221
#
# Compressibility (1/GPa) = 0.02279941
#
# Stress axis : x y z
#
# Youngs Moduli (GPa) = 89.72990 64.07780 46.64952
#
# Poissons Ratio (x) = -0.03955 0.23395
# Poissons Ratio (y) = -0.05539 0.38700
# Poissons Ratio (z) = 0.45001 0.53159
#
# Static dielectric constant tensor:
#      x y z
#    x 2.925020 0.000000 0.000000 
#    y 0.000000 3.492780 0.000000 
#    z 0.000000 0.000000 3.533310 
# 
# 
# High freq. dielectric constant tensor:
#      x y z
#    x 1.748850 0.000000 0.000000 
#    y 0.000000 1.739960 0.000000 
#    z 0.000000 0.000000 1.716120 
# 
# From -- ./inp_files/47522.got.cif
#   From: 2010.06.25/outbox.cif.g09.slc.cpg/sg71_24_cif.got.tgz:47522.got - 2010.06.28 04:59:45.
