data_PCOD8289019
_publ_section_title
;
Structure prediction by ZEFSAII (Michael W. Deem and Ramdas Pophale) SiO2 
 PCOD8289019
Probable space group: I M M M
;
_chemical_formula_sum "Si O2"
_cell_formula_units_Z 96
_cell_length_a 24.243319
_cell_length_b 9.591493
_cell_length_c 22.138673
_cell_angle_alpha 90.000000
_cell_angle_beta 90.000000
_cell_angle_gamma 90.000000
_cell_volume 5147.897319
_symmetry_space_group_name_H-M "I M M M"
_symmetry_group_IT_number 71
_symmetry_cell_setting 'orthorhombic'
loop_
_space_group_symop_operation_xyz
x,y,z
-x,-y,z
x,-y,-z
-x,y,-z
-x,-y,-z
x,y,-z
-x,y,z
x,-y,z
1/2+x,1/2+y,1/2+z
1/2-x,1/2-y,1/2+z
1/2+x,1/2-y,1/2-z
1/2-x,1/2+y,1/2-z
1/2-x,1/2-y,1/2-z
1/2+x,1/2+y,1/2-z
1/2-x,1/2+y,1/2+z
1/2+x,1/2-y,1/2+z
loop_
_atom_site_type_symbol
_atom_site_label
_atom_site_fract_x
_atom_site_fract_y
_atom_site_fract_z
Si Si1 0.500000 0.165840 0.155733
Si Si2 0.000000 0.163000 0.220290
Si Si3 0.181499 0.661048 0.070654
Si Si4 0.886195 0.837872 0.160825
Si Si5 0.804406 0.158658 0.600643
Si Si6 0.801635 0.843606 0.738375
Si Si7 0.403259 0.841645 0.067026
O O1 0.500000 0.246158 0.218964
O O2 0.553282 0.212155 0.116764
O O3 0.500000 0.000000 0.167118
O O4 0.948562 0.200453 0.177712
O O5 0.000000 0.000000 0.239285
O O6 0.174876 0.500000 0.089403
O O7 0.134232 0.748849 0.103950
O O8 0.242247 0.714860 0.090075
O O9 0.172842 0.683626 0.000000
O O10 0.851418 0.795146 0.219615
O O11 0.879865 0.000000 0.144251
O O12 0.821814 0.169770 0.670143
O O13 0.847708 0.251278 0.564780
O O14 0.807929 0.000000 0.576695
O O15 0.750000 0.750000 0.750000
O O16 0.783199 0.000000 0.753645
O O17 0.386437 0.000000 0.082178
O O18 0.430023 0.832346 0.000000
#
# Coordination Sequence:
#
# PCOD8289019 Si02
#       7
#     8   8  16  16  16  16  16
#     4  10  21  38  58  81 109 146 189 231 277 326
#     4  10  22  41  62  84 112 143 179 230 281 332
#     4  10  21  37  57  81 111 147 184 225 275 330
#     4  10  21  37  58  84 112 143 181 224 277 331
#     4  10  20  35  55  81 113 148 184 226 277 329
#     4  10  19  32  53  81 110 140 176 220 271 324
#     4  10  21  36  54  78 111 151 192 232 271 318
#
# _framework density 18.648391
#
# number of rings (size 3 to 8) (size 9 to 14) (size 15 to 20)
#    0.000    2.000    1.667    1.750    0.000    6.333 
#    0.000    0.417    0.000    4.000    0.000    0.000 
#    0.000    0.000    0.000    0.000    0.000    0.000 
#
# Total GULP energy -595263.401445 kJ/mol
# GULP energy per Si atom -12401.320863 kJ/mol
# Density = 1.860595 g / cm^3
# Si number density = 18.648391 Si / 1000 Ang^3
#
#
#
# Elastic Constant Matrix: (Units=GPa)
#
#
# Indices 1 2 3 4 5 6 
#
# 1 143.5077 58.9234 56.8209 0.0000 0.0000 0.0000
# 2 58.9234 65.2000 43.9949 0.0000 0.0000 0.0000
# 3 56.8209 43.9949 103.8414 0.0000 0.0000 0.0000
# 4 0.0000 0.0000 0.0000 31.6859 0.0000 0.0000
# 5 0.0000 0.0000 0.0000 0.0000 27.7636 0.0000
# 6 0.0000 0.0000 0.0000 0.0000 0.0000 30.7988
#
#
#
# Elastic Compliance Matrix: (Units=1/GPa)
#
#
# Indices 1 2 3 4 5 6 
#
# 1 0.011583 -0.008670 -0.002665 0.000000 0.000000 0.000000
# 2 -0.008670 0.027967 -0.007105 0.000000 0.000000 0.000000
# 3 -0.002665 -0.007105 0.014098 0.000000 0.000000 0.000000
# 4 0.000000 0.000000 0.000000 0.031560 0.000000 0.000000
# 5 0.000000 0.000000 0.000000 0.000000 0.036018 0.000000
# 6 0.000000 0.000000 0.000000 0.000000 0.000000 0.032469
#
#
# Mechanical properties :
#
#
# Convention : Reuss Voigt Hill
#
# Bulk Modulus (GPa) = 59.63327 70.22527 64.92927
# Shear Modulus (GPa) = 25.48881 28.23697 26.86289
#
# Velocity S-wave (km/s) = 3.70105 3.89546 3.79950
# Velocity P-wave (km/s) = 7.09301 7.61395 7.35809
#
# Compressibility (1/GPa) = 0.01676916
#
# Stress axis : x y z
#
# Youngs Moduli (GPa) = 86.33119 35.75673 70.92993
#
# Poissons Ratio (x) = 0.31001 0.18903
# Poissons Ratio (y) = 0.74849 0.50393
# Poissons Ratio (z) = 0.23008 0.25404
#
# Static dielectric constant tensor:
#      x y z
#    x 3.338680 0.000000 0.000000 
#    y 0.000000 3.276880 0.000000 
#    z 0.000000 0.000000 3.386680 
# 
# 
# High freq. dielectric constant tensor:
#      x y z
#    x 1.720740 0.000000 0.000000 
#    y 0.000000 1.717250 0.000000 
#    z 0.000000 0.000000 1.728560 
# 
# From -- ./inp_files/61576.got.cif
#   From: 2010.06.25/outbox.cif.g09.slc.cpg/sg71_31_cif.got.tgz:61576.got - 2010.06.28 04:59:45.
