data_PCOD8289669
_publ_section_title
;
Structure prediction by ZEFSAII (Michael W. Deem and Ramdas Pophale) SiO2 
 PCOD8289669
Probable space group: I M M M
;
_chemical_formula_sum "Si O2"
_cell_formula_units_Z 96
_cell_length_a 21.288398
_cell_length_b 15.338526
_cell_length_c 16.257891
_cell_angle_alpha 90.000000
_cell_angle_beta 90.000000
_cell_angle_gamma 90.000000
_cell_volume 5308.732170
_symmetry_space_group_name_H-M "I M M M"
_symmetry_group_IT_number 71
_symmetry_cell_setting 'orthorhombic'
loop_
_space_group_symop_operation_xyz
x,y,z
-x,-y,z
x,-y,-z
-x,y,-z
-x,-y,-z
x,y,-z
-x,y,z
x,-y,z
1/2+x,1/2+y,1/2+z
1/2-x,1/2-y,1/2+z
1/2+x,1/2-y,1/2-z
1/2-x,1/2+y,1/2-z
1/2-x,1/2-y,1/2-z
1/2+x,1/2+y,1/2-z
1/2-x,1/2+y,1/2+z
1/2+x,1/2-y,1/2+z
loop_
_atom_site_type_symbol
_atom_site_label
_atom_site_fract_x
_atom_site_fract_y
_atom_site_fract_z
Si Si1 0.213794 0.402451 0.325227
Si Si2 0.572972 0.330948 0.326777
Si Si3 0.168986 0.096630 0.293495
Si Si4 0.074610 0.098166 0.000000
Si Si5 0.070274 0.500000 0.903816
Si Si6 0.764692 0.225896 0.404901
Si Si7 0.638413 0.842702 0.322347
O O1 0.206698 0.500000 0.363765
O O2 0.276189 0.395622 0.272292
O O3 0.218019 0.328146 0.394924
O O4 0.154600 0.384074 0.265923
O O5 0.500000 0.352683 0.322350
O O6 0.604553 0.387421 0.255025
O O7 0.600105 0.354807 0.417687
O O8 0.585096 0.229587 0.309994
O O9 0.179890 0.167520 0.364971
O O10 0.167591 0.000000 0.333077
O O11 0.000000 0.100299 0.000000
O O12 0.100620 0.000000 0.000000
O O13 0.110249 0.415896 0.880506
O O14 0.000000 0.500000 0.863630
O O15 0.062050 0.500000 0.000000
O O16 0.760502 0.202616 0.500000
O O17 0.699164 0.202644 0.362014
#
# Coordination Sequence:
#
# PCOD8289669 Si02
#       7
#    16  16  16   8   8  16  16
#     4  10  19  37  59  78 107 146 183 234 285 332
#     4  11  21  34  56  80 112 153 187 226 277 336
#     4  10  20  36  56  80 113 147 188 232 275 334
#     4   9  20  34  48  75 111 147 187 224 264 327
#     4  11  24  36  52  84 121 153 190 228 266 329
#     4  11  22  36  58  85 113 145 190 240 287 332
#     4  11  20  38  55  79 114 149 188 225 275 334
#
# _framework density 18.083413
#
# number of rings (size 3 to 8) (size 9 to 14) (size 15 to 20)
#    0.000    1.500    4.167    2.500    3.500    1.667 
#    0.000    0.000    0.000    0.500    0.000    1.167 
#    0.000    2.000    0.000    0.000    0.000    0.000 
#
# Total GULP energy -595173.357814 kJ/mol
# GULP energy per Si atom -12399.444954 kJ/mol
# Density = 1.804225 g / cm^3
# Si number density = 18.083413 Si / 1000 Ang^3
#
#
#
# Elastic Constant Matrix: (Units=GPa)
#
#
# Indices 1 2 3 4 5 6 
#
# 1 47.5180 25.0010 5.5027 0.0000 0.0000 0.0000
# 2 25.0010 142.3220 22.8910 0.0000 0.0000 0.0000
# 3 5.5027 22.8910 30.1939 0.0000 0.0000 0.0000
# 4 0.0000 0.0000 0.0000 23.5691 0.0000 0.0000
# 5 0.0000 0.0000 0.0000 0.0000 20.1167 0.0000
# 6 0.0000 0.0000 0.0000 0.0000 0.0000 19.2046
#
#
#
# Elastic Compliance Matrix: (Units=1/GPa)
#
#
# Indices 1 2 3 4 5 6 
#
# 1 0.023232 -0.003872 -0.001298 0.000000 0.000000 0.000000
# 2 -0.003872 0.008648 -0.005850 0.000000 0.000000 0.000000
# 3 -0.001298 -0.005850 0.037791 0.000000 0.000000 0.000000
# 4 0.000000 0.000000 0.000000 0.042429 0.000000 0.000000
# 5 0.000000 0.000000 0.000000 0.000000 0.049710 0.000000
# 6 0.000000 0.000000 0.000000 0.000000 0.000000 0.052071
#
#
# Mechanical properties :
#
#
# Convention : Reuss Voigt Hill
#
# Bulk Modulus (GPa) = 20.99548 36.31371 28.65460
# Shear Modulus (GPa) = 19.85715 23.68734 21.77225
#
# Velocity S-wave (km/s) = 3.31733 3.62317 3.47362
# Velocity P-wave (km/s) = 5.12918 6.13417 5.65405
#
# Compressibility (1/GPa) = 0.04762931
#
# Stress axis : x y z
#
# Youngs Moduli (GPa) = 43.04338 115.64033 26.46123
#
# Poissons Ratio (x) = 0.44779 0.03435
# Poissons Ratio (y) = 0.16668 0.15480
# Poissons Ratio (z) = 0.05588 0.67652
#
# Static dielectric constant tensor:
#      x y z
#    x 3.233420 0.000000 0.000000 
#    y 0.000000 4.263950 0.000000 
#    z 0.000000 0.000000 3.186570 
# 
# 
# High freq. dielectric constant tensor:
#      x y z
#    x 1.681050 0.000000 0.000000 
#    y 0.000000 1.723400 0.000000 
#    z 0.000000 0.000000 1.672360 
# 
# From -- ./inp_files/37859.got.cif
#   From: 2010.06.25/outbox.cif.g09.slc.cpg/sg71_19_cif.got.tgz:37859.got - 2010.06.28 04:59:45.
