data_PCOD8289845
_publ_section_title
;
Structure prediction by ZEFSAII (Michael W. Deem and Ramdas Pophale) SiO2 
 PCOD8289845
Probable space group: I M M M
;
_chemical_formula_sum "Si O2"
_cell_formula_units_Z 104
_cell_length_a 9.489316
_cell_length_b 26.656023
_cell_length_c 21.612592
_cell_angle_alpha 90.000000
_cell_angle_beta 90.000000
_cell_angle_gamma 90.000000
_cell_volume 5466.849506
_symmetry_space_group_name_H-M "I M M M"
_symmetry_group_IT_number 71
_symmetry_cell_setting 'orthorhombic'
loop_
_space_group_symop_operation_xyz
x,y,z
-x,-y,z
x,-y,-z
-x,y,-z
-x,-y,-z
x,y,-z
-x,y,z
x,-y,z
1/2+x,1/2+y,1/2+z
1/2-x,1/2-y,1/2+z
1/2+x,1/2-y,1/2-z
1/2-x,1/2+y,1/2-z
1/2-x,1/2-y,1/2-z
1/2+x,1/2+y,1/2-z
1/2-x,1/2+y,1/2+z
1/2+x,1/2-y,1/2+z
loop_
_atom_site_type_symbol
_atom_site_label
_atom_site_fract_x
_atom_site_fract_y
_atom_site_fract_z
Si Si1 0.841332 0.136058 0.251103
Si Si2 0.665835 0.202939 0.432234
Si Si3 0.657084 0.444004 0.355560
Si Si4 0.333787 0.703693 0.642883
Si Si5 0.157420 0.623501 0.427421
Si Si6 0.666166 0.896562 0.632004
Si Si7 0.667758 0.000000 0.570728
O O1 0.830447 0.090739 0.203740
O O2 0.797295 0.187590 0.214028
O O3 0.735257 0.121919 0.304876
O O4 0.000000 0.141437 0.277610
O O5 0.730840 0.216905 0.500000
O O6 0.500000 0.207954 0.436773
O O7 0.715422 0.239899 0.376165
O O8 0.707292 0.145600 0.418170
O O9 0.500000 0.440042 0.384136
O O10 0.691313 0.500000 0.333417
O O11 0.770862 0.428551 0.406933
O O12 0.500000 0.695221 0.632629
O O13 0.252570 0.668936 0.595205
O O14 0.149471 0.625208 0.500000
O O15 0.000000 0.627297 0.399057
O O16 0.500000 0.899228 0.643665
O O17 0.722402 0.950343 0.607047
O O18 0.500000 0.000000 0.568617
O O19 0.725537 0.000000 0.500000
#
# Coordination Sequence:
#
# PCOD8289845 Si02
#       7
#    16  16  16  16  16  16   8
#     4   9  19  34  51  74 104 135 170 213 262 311
#     4   9  17  31  54  81 104 131 175 226 265 304
#     4   9  19  35  53  71  94 132 180 223 260 306
#     4   9  18  34  55  75  98 135 181 220 257 307
#     4  10  20  32  47  72 105 136 167 210 269 324
#     4  10  20  33  53  81 107 136 175 216 263 318
#     4   9  18  34  55  79 109 141 174 217 264 311
#
# _framework density 19.023755000000001
#
# number of rings (size 3 to 8) (size 9 to 14) (size 15 to 20)
#    0.000    2.692    0.000    2.308    1.077    7.385 
#    0.000    2.308    0.000    3.231    0.000    0.000 
#    0.000    0.000    0.000    0.000    0.000    0.000 
#
# Total GULP energy -644339.365767 kJ/mol
# GULP energy per Si atom -12391.141649 kJ/mol
# Density = 1.898046 g / cm^3
# Si number density = 19.023755 Si / 1000 Ang^3
#
#
#
# Elastic Constant Matrix: (Units=GPa)
#
#
# Indices 1 2 3 4 5 6 
#
# 1 52.1308 23.6421 37.6114 0.0000 0.0000 0.0000
# 2 23.6421 140.6641 58.5986 0.0000 0.0000 0.0000
# 3 37.6114 58.5986 107.4946 -0.0001 0.0000 0.0001
# 4 0.0000 0.0000 -0.0001 17.3430 0.0000 0.0000
# 5 0.0000 0.0000 0.0000 0.0000 27.6190 0.0000
# 6 0.0000 0.0000 0.0001 0.0000 0.0000 -19.1527
#
#
#
# Elastic Compliance Matrix: (Units=1/GPa)
#
#
# Indices 1 2 3 4 5 6 
#
# 1 0.025720 -0.000743 -0.008594 0.000000 0.000000 0.000000
# 2 -0.000743 0.009219 -0.004766 0.000000 0.000000 0.000000
# 3 -0.008594 -0.004766 0.014908 0.000000 0.000000 0.000000
# 4 0.000000 0.000000 0.000000 0.057660 0.000000 0.000000
# 5 0.000000 0.000000 0.000000 0.000000 0.036207 0.000000
# 6 0.000000 0.000000 0.000000 0.000000 0.000000 -0.052212
#
#
# Mechanical properties :
#
#
# Convention : Reuss Voigt Hill
#
# Bulk Modulus (GPa) = 46.20757 59.99928 53.10343
# Shear Modulus (GPa) = 39.39424 17.19101 28.29263
#
# Velocity S-wave (km/s) = 4.55553 3.00936 3.86064
# Velocity P-wave (km/s) = 7.21198 6.60928 6.91720
#
# Compressibility (1/GPa) = 0.02164147
#
# Stress axis : x y z
#
# Youngs Moduli (GPa) = 38.88032 108.46737 67.07836
#
# Poissons Ratio (x) = 0.08055 0.57650
# Poissons Ratio (y) = 0.02887 0.31969
# Poissons Ratio (z) = 0.33415 0.51695
#
# Static dielectric constant tensor:
#      x y z
#    x 3.427940 0.000000 0.000000 
#    y 0.000000 3.930870 0.000000 
#    z 0.000000 0.000000 3.525560 
# 
# 
# High freq. dielectric constant tensor:
#      x y z
#    x 1.710750 0.000000 0.000000 
#    y 0.000000 1.749550 0.000000 
#    z 0.000000 0.000000 1.732910 
# 
# From -- ./inp_files/50904.got.cif
#   From: 2010.06.25/outbox.cif.g09.slc.cpg/sg71_26_cif.got.tgz:50904.got - 2010.06.28 04:59:45.
