data_PCOD8289623
_publ_section_title
;
Structure prediction by ZEFSAII (Michael W. Deem and Ramdas Pophale) SiO2 
 PCOD8289623
Probable space group: I M M M
;
_chemical_formula_sum "Si O2"
_cell_formula_units_Z 104
_cell_length_a 19.229583
_cell_length_b 20.180843
_cell_length_c 14.354328
_cell_angle_alpha 90.000000
_cell_angle_beta 90.000000
_cell_angle_gamma 90.000000
_cell_volume 5570.472519
_symmetry_space_group_name_H-M "I M M M"
_symmetry_group_IT_number 71
_symmetry_cell_setting 'orthorhombic'
loop_
_space_group_symop_operation_xyz
x,y,z
-x,-y,z
x,-y,-z
-x,y,-z
-x,-y,-z
x,y,-z
-x,y,z
x,-y,z
1/2+x,1/2+y,1/2+z
1/2-x,1/2-y,1/2+z
1/2+x,1/2-y,1/2-z
1/2-x,1/2+y,1/2-z
1/2-x,1/2-y,1/2-z
1/2+x,1/2+y,1/2-z
1/2-x,1/2+y,1/2+z
1/2+x,1/2-y,1/2+z
loop_
_atom_site_type_symbol
_atom_site_label
_atom_site_fract_x
_atom_site_fract_y
_atom_site_fract_z
Si Si1 0.921740 0.738542 0.221383
Si Si2 0.713549 0.575287 0.199367
Si Si3 0.419637 0.500000 0.599276
Si Si4 0.663297 0.787412 0.105182
Si Si5 0.422831 0.612087 0.737820
Si Si6 0.276627 0.926178 0.103471
Si Si7 0.709445 0.806230 0.609208
O O1 0.900299 0.734193 0.329886
O O2 0.922201 0.815253 0.194237
O O3 0.865284 0.702511 0.157478
O O4 0.000000 0.708922 0.207752
O O5 0.724500 0.500000 0.164747
O O6 0.634220 0.600427 0.180534
O O7 0.723630 0.581734 0.311098
O O8 0.764548 0.621761 0.141187
O O9 0.500000 0.500000 0.579140
O O10 0.379395 0.500000 0.500000
O O11 0.398170 0.564814 0.654890
O O12 0.667746 0.867090 0.113719
O O13 0.735636 0.751657 0.137562
O O14 0.645730 0.765165 0.000000
O O15 0.500000 0.593949 0.776053
O O16 0.311545 0.000000 0.110306
O O17 0.241370 0.918496 0.000000
O O18 0.696503 0.806273 0.500000
#
# Coordination Sequence:
#
# PCOD8289623 Si02
#       7
#    16  16   8  16  16  16  16
#     4  11  22  37  60  86 118 154 191 238 291 352
#     4  11  20  34  59  82 110 152 195 245 294 346
#     4   9  18  32  48  74 117 159 192 227 277 347
#     4  10  19  35  61  85 113 151 186 233 292 345
#     4  10  20  33  52  81 116 155 189 229 285 353
#     4   9  18  31  52  84 113 139 179 232 287 346
#     4  11  23  39  59  82 113 151 198 249 291 338
#
# _framework density 18.66987
#
# number of rings (size 3 to 8) (size 9 to 14) (size 15 to 20)
#    0.000    1.769    3.846    1.385    0.000    2.154 
#    0.000    1.538    0.000    2.308    0.000    4.308 
#    0.000    0.000    0.000    0.000    0.000    0.000 
#
# Total GULP energy -644307.078553 kJ/mol
# GULP energy per Si atom -12390.520741 kJ/mol
# Density = 1.862738 g / cm^3
# Si number density = 18.669870 Si / 1000 Ang^3
#
#
#
# Elastic Constant Matrix: (Units=GPa)
#
#
# Indices 1 2 3 4 5 6 
#
# 1 125.9248 48.1428 44.2727 0.0000 0.0000 0.0000
# 2 48.1428 106.7161 26.6888 0.0000 0.0000 0.0000
# 3 44.2727 26.6888 74.1725 0.0000 0.0000 0.0000
# 4 0.0000 0.0000 0.0000 14.8587 0.0000 0.0000
# 5 0.0000 0.0000 0.0000 0.0000 13.9716 0.0000
# 6 0.0000 0.0000 0.0000 0.0000 0.0000 25.3131
#
#
#
# Elastic Compliance Matrix: (Units=1/GPa)
#
#
# Indices 1 2 3 4 5 6 
#
# 1 0.011259 -0.003735 -0.005377 0.000000 0.000000 0.000000
# 2 -0.003735 0.011536 -0.001922 0.000000 0.000000 0.000000
# 3 -0.005377 -0.001922 0.017383 0.000000 0.000000 0.000000
# 4 0.000000 0.000000 0.000000 0.067301 0.000000 0.000000
# 5 0.000000 0.000000 0.000000 0.000000 0.071574 0.000000
# 6 0.000000 0.000000 0.000000 0.000000 0.000000 0.039505
#
#
# Mechanical properties :
#
#
# Convention : Reuss Voigt Hill
#
# Bulk Modulus (GPa) = 55.21213 60.55798 57.88505
# Shear Modulus (GPa) = 20.27067 23.34264 21.80665
#
# Velocity S-wave (km/s) = 3.29864 3.53977 3.42133
# Velocity P-wave (km/s) = 6.64417 7.01522 6.83221
#
# Compressibility (1/GPa) = 0.01811196
#
# Stress axis : x y z
#
# Youngs Moduli (GPa) = 88.81399 86.68420 57.52785
#
# Poissons Ratio (x) = 0.32375 0.30932
# Poissons Ratio (y) = 0.33170 0.11055
# Poissons Ratio (z) = 0.47753 0.16658
#
# Static dielectric constant tensor:
#      x y z
#    x 3.322490 0.000000 0.000000 
#    y 0.000000 3.597450 0.000000 
#    z 0.000000 0.000000 3.430710 
# 
# 
# High freq. dielectric constant tensor:
#      x y z
#    x 1.704540 0.000000 0.000000 
#    y 0.000000 1.732810 0.000000 
#    z 0.000000 0.000000 1.710690 
# 
# From -- ./inp_files/36688.got.cif
#   From: 2010.06.25/outbox.cif.g09.slc.cpg/sg71_19_cif.got.tgz:36688.got - 2010.06.28 04:59:45.
