data_PCOD8289426
_publ_section_title
;
Structure prediction by ZEFSAII (Michael W. Deem and Ramdas Pophale) SiO2 
 PCOD8289426
Probable space group: I M M M
;
_chemical_formula_sum "Si O2"
_cell_formula_units_Z 104
_cell_length_a 13.639002
_cell_length_b 24.656252
_cell_length_c 17.607059
_cell_angle_alpha 90.000000
_cell_angle_beta 90.000000
_cell_angle_gamma 90.000000
_cell_volume 5921.019246
_symmetry_space_group_name_H-M "I M M M"
_symmetry_group_IT_number 71
_symmetry_cell_setting 'orthorhombic'
loop_
_space_group_symop_operation_xyz
x,y,z
-x,-y,z
x,-y,-z
-x,y,-z
-x,-y,-z
x,y,-z
-x,y,z
x,-y,z
1/2+x,1/2+y,1/2+z
1/2-x,1/2-y,1/2+z
1/2+x,1/2-y,1/2-z
1/2-x,1/2+y,1/2-z
1/2-x,1/2-y,1/2-z
1/2+x,1/2+y,1/2-z
1/2-x,1/2+y,1/2+z
1/2+x,1/2-y,1/2+z
loop_
_atom_site_type_symbol
_atom_site_label
_atom_site_fract_x
_atom_site_fract_y
_atom_site_fract_z
Si Si1 0.615684 0.198853 0.000000
Si Si2 0.385036 0.867966 0.147623
Si Si3 0.763221 0.058809 0.086607
Si Si4 0.383878 0.500000 0.912219
Si Si5 0.114803 0.839147 0.085749
Si Si6 0.883488 0.117260 0.352097
Si Si7 0.616157 0.319290 0.000000
Si Si8 0.228702 0.810984 0.227761
O O1 0.648724 0.166705 0.074328
O O2 0.662081 0.258967 0.000000
O O3 0.500000 0.203898 0.000000
O O4 0.500000 0.874570 0.159708
O O5 0.332595 0.925763 0.136524
O O6 0.336422 0.837919 0.219114
O O7 0.855022 0.098333 0.099377
O O8 0.799205 0.000000 0.113970
O O9 0.728189 0.057805 0.000000
O O10 0.500000 0.500000 0.919190
O O11 0.350909 0.554067 0.864845
O O12 0.342754 0.500000 0.000000
O O13 0.170810 0.803984 0.148347
O O14 0.000000 0.833415 0.098104
O O15 0.144833 0.820546 0.000000
O O16 0.847462 0.148897 0.426435
O O17 0.832037 0.149132 0.283030
O O18 0.000000 0.121054 0.339190
O O19 0.500000 0.316506 0.000000
O O20 0.250000 0.750000 0.250000
#
# Coordination Sequence:
#
# PCOD8289426 Si02
#       8
#     8  16  16   8  16  16   8  16
#     4   9  16  28  48  72  95 132 178 222 272 326
#     4  10  20  34  50  70 102 141 181 227 278 323
#     4   9  17  30  50  76 102 130 175 227 266 313
#     4   9  16  32  58  86 118 148 177 222 282 352
#     4   9  19  37  57  77 109 150 186 221 270 329
#     4  10  19  34  55  84 116 148 181 224 288 346
#     4   9  16  27  50  80 107 134 173 216 272 347
#     4  11  23  36  52  81 113 146 186 238 280 334
#
# _framework density 17.564543
#
# number of rings (size 3 to 8) (size 9 to 14) (size 15 to 20)
#    0.000    2.385    1.538    1.385    1.077    3.077 
#    6.923    2.308    0.000    0.000    0.000    0.000 
#    0.000    0.615    0.000    0.000    0.000    0.000 
#
# Total GULP energy -644307.298665 kJ/mol
# GULP energy per Si atom -12390.524974 kJ/mol
# Density = 1.752457 g / cm^3
# Si number density = 17.564543 Si / 1000 Ang^3
#
#
#
# Elastic Constant Matrix: (Units=GPa)
#
#
# Indices 1 2 3 4 5 6 
#
# 1 51.3457 9.5026 34.9069 0.0000 0.0000 0.0000
# 2 9.5026 113.4907 41.3070 0.0000 0.0000 0.0000
# 3 34.9069 41.3070 88.0183 0.0000 0.0000 0.0000
# 4 0.0000 0.0000 0.0000 26.3097 0.0000 0.0000
# 5 0.0000 0.0000 0.0000 0.0000 20.4512 0.0000
# 6 0.0000 0.0000 0.0000 0.0000 0.0000 19.3098
#
#
#
# Elastic Compliance Matrix: (Units=1/GPa)
#
#
# Indices 1 2 3 4 5 6 
#
# 1 0.027028 0.001976 -0.011646 0.000000 0.000000 0.000000
# 2 0.001976 0.010771 -0.005838 0.000000 0.000000 0.000000
# 3 -0.011646 -0.005838 0.018720 0.000000 0.000000 0.000000
# 4 0.000000 0.000000 0.000000 0.038009 0.000000 0.000000
# 5 0.000000 0.000000 0.000000 0.000000 0.048897 0.000000
# 6 0.000000 0.000000 0.000000 0.000000 0.000000 0.051787
#
#
# Mechanical properties :
#
#
# Convention : Reuss Voigt Hill
#
# Bulk Modulus (GPa) = 39.21392 47.14307 43.17850
# Shear Modulus (GPa) = 21.30121 24.35671 22.82896
#
# Velocity S-wave (km/s) = 3.48622 3.72788 3.60907
# Velocity P-wave (km/s) = 6.21120 6.74000 6.48100
#
# Compressibility (1/GPa) = 0.02550115
#
# Stress axis : x y z
#
# Youngs Moduli (GPa) = 36.99921 92.84345 53.41928
#
# Poissons Ratio (x) = -0.18344 0.62212
# Poissons Ratio (y) = -0.07310 0.31188
# Poissons Ratio (z) = 0.43089 0.54205
#
# Static dielectric constant tensor:
#      x y z
#    x 3.040130 0.000000 0.000000 
#    y 0.000000 3.511570 0.000000 
#    z 0.000000 0.000000 1.636850 
# 
# 
# High freq. dielectric constant tensor:
#      x y z
#    x 1.655240 0.000000 0.000000 
#    y 0.000000 1.681730 0.000000 
#    z 0.000000 0.000000 1.673040 
# 
# From -- ./inp_files/45168.got.cif
#   From: 2010.06.25/outbox.cif.g09.slc.cpg/sg71_23_cif.got.tgz:45168.got - 2010.06.28 04:59:45.
