data_PCOD8289925
_publ_section_title
;
Structure prediction by ZEFSAII (Michael W. Deem and Ramdas Pophale) SiO2 
 PCOD8289925
Probable space group: I M M M
;
_chemical_formula_sum "Si O2"
_cell_formula_units_Z 80
_cell_length_a 25.127234
_cell_length_b 9.523863
_cell_length_c 19.101905
_cell_angle_alpha 90.000000
_cell_angle_beta 90.000000
_cell_angle_gamma 90.000000
_cell_volume 4571.245065
_symmetry_space_group_name_H-M "I M M M"
_symmetry_group_IT_number 71
_symmetry_cell_setting 'orthorhombic'
loop_
_space_group_symop_operation_xyz
x,y,z
-x,-y,z
x,-y,-z
-x,y,-z
-x,-y,-z
x,y,-z
-x,y,z
x,-y,z
1/2+x,1/2+y,1/2+z
1/2-x,1/2-y,1/2+z
1/2+x,1/2-y,1/2-z
1/2-x,1/2+y,1/2-z
1/2-x,1/2-y,1/2-z
1/2+x,1/2+y,1/2-z
1/2-x,1/2+y,1/2+z
1/2+x,1/2-y,1/2+z
loop_
_atom_site_type_symbol
_atom_site_label
_atom_site_fract_x
_atom_site_fract_y
_atom_site_fract_z
Si Si1 0.438692 0.338773 0.675941
Si Si2 0.854493 0.339599 0.416924
Si Si3 0.061826 0.160207 0.337052
Si Si4 0.638851 0.165437 0.579737
Si Si5 0.257313 0.655807 0.083183
O O1 0.500000 0.301963 0.661554
O O2 0.427203 0.500000 0.657016
O O3 0.424362 0.309401 0.756466
O O4 0.403368 0.240992 0.627999
O O5 0.858082 0.328384 0.500000
O O6 0.852730 0.500000 0.391612
O O7 0.906062 0.265627 0.385706
O O8 0.801152 0.264231 0.388027
O O9 0.000000 0.187584 0.351543
O O10 0.076614 0.000000 0.356320
O O11 0.630530 0.216049 0.500000
O O12 0.698328 0.204762 0.606349
O O13 0.629976 0.000000 0.585357
O O14 0.269945 0.500000 0.112962
O O15 0.258530 0.649540 0.000000
#
# Coordination Sequence:
#
# PCOD8289925 Si02
#       5
#    16  16  16  16  16
#     4   9  19  35  52  71  97 129 165 204 244 286
#     4  10  20  32  49  76 104 126 155 199 246 290
#     4   9  19  36  54  70  93 129 169 203 238 286
#     4   9  18  32  51  76 102 128 162 202 241 285
#     4   8  15  30  50  70  96 130 163 195 235 284
#
# _framework density 17.500702
#
# number of rings (size 3 to 8) (size 9 to 14) (size 15 to 20)
#    0.000    3.000    0.000    3.000    0.000    4.800 
#    0.000    9.000    0.000    0.000    0.000    0.000 
#    0.000    0.000    0.000    0.000    0.000    0.000 
#
# Total GULP energy -495925.512529 kJ/mol
# GULP energy per Si atom -12398.137813 kJ/mol
# Density = 1.746087 g / cm^3
# Si number density = 17.500702 Si / 1000 Ang^3
#
#
#
# Elastic Constant Matrix: (Units=GPa)
#
#
# Indices 1 2 3 4 5 6 
#
# 1 105.3763 70.1202 40.3104 0.0000 0.0000 0.0000
# 2 70.1202 103.7477 40.0623 0.0000 0.0000 0.0000
# 3 40.3104 40.0623 37.0825 0.0000 0.0000 0.0000
# 4 0.0000 0.0000 0.0000 30.5382 0.0000 0.0000
# 5 0.0000 0.0000 0.0000 0.0000 -15.4855 0.0000
# 6 0.0000 0.0000 0.0000 0.0000 0.0000 36.1635
#
#
#
# Elastic Compliance Matrix: (Units=1/GPa)
#
#
# Indices 1 2 3 4 5 6 
#
# 1 0.020048 -0.008810 -0.012275 0.000000 0.000000 0.000000
# 2 -0.008810 0.020409 -0.012473 0.000000 0.000000 0.000000
# 3 -0.012275 -0.012473 0.053786 0.000000 0.000000 0.000000
# 4 0.000000 0.000000 0.000000 0.032746 0.000000 0.000000
# 5 0.000000 0.000000 0.000000 0.000000 -0.064576 0.000000
# 6 0.000000 0.000000 0.000000 0.000000 0.000000 0.027652
#
#
# Mechanical properties :
#
#
# Convention : Reuss Voigt Hill
#
# Bulk Modulus (GPa) = 36.86315 60.79914 48.83114
# Shear Modulus (GPa) = 30.08010 16.62414 23.35212
#
# Velocity S-wave (km/s) = 4.15033 3.08541 3.65684
# Velocity P-wave (km/s) = 6.63902 6.89271 6.76705
#
# Compressibility (1/GPa) = 0.02712736
#
# Stress axis : x y z
#
# Youngs Moduli (GPa) = 49.88106 48.99719 18.59220
#
# Poissons Ratio (x) = 0.43164 0.22823
# Poissons Ratio (y) = 0.43943 0.23190
# Poissons Ratio (z) = 0.61231 0.61114
#
# Static dielectric constant tensor:
#      x y z
#    x 3.359150 0.000000 0.000000 
#    y 0.000000 3.292540 0.000000 
#    z 0.000000 0.000000 2.978840 
# 
# 
# High freq. dielectric constant tensor:
#      x y z
#    x 1.685820 0.000000 0.000000 
#    y 0.000000 1.677140 0.000000 
#    z 0.000000 0.000000 1.650500 
# 
# From -- ./inp_files/8315.got.cif
#   From: 2010.06.25/outbox.cif.g09.slc.cpg/sg71_5_cif.got.tgz:8315.got - 2010.06.28 04:59:45.
