data_PCOD8289764
_publ_section_title
;
Structure prediction by ZEFSAII (Michael W. Deem and Ramdas Pophale) SiO2 
 PCOD8289764
Probable space group: I M M M
;
_chemical_formula_sum "Si O2"
_cell_formula_units_Z 112
_cell_length_a 32.271336
_cell_length_b 15.525439
_cell_length_c 13.784917
_cell_angle_alpha 90.000000
_cell_angle_beta 90.000000
_cell_angle_gamma 90.000000
_cell_volume 6906.610902
_symmetry_space_group_name_H-M "I M M M"
_symmetry_group_IT_number 71
_symmetry_cell_setting 'orthorhombic'
loop_
_space_group_symop_operation_xyz
x,y,z
-x,-y,z
x,-y,-z
-x,y,-z
-x,-y,-z
x,y,-z
-x,y,z
x,-y,z
1/2+x,1/2+y,1/2+z
1/2-x,1/2-y,1/2+z
1/2+x,1/2-y,1/2-z
1/2-x,1/2+y,1/2-z
1/2-x,1/2-y,1/2-z
1/2+x,1/2+y,1/2-z
1/2-x,1/2+y,1/2+z
1/2+x,1/2-y,1/2+z
loop_
_atom_site_type_symbol
_atom_site_label
_atom_site_fract_x
_atom_site_fract_y
_atom_site_fract_z
Si Si1 0.312909 0.099107 0.894957
Si Si2 0.263756 0.343557 0.722766
Si Si3 0.451325 0.263132 0.887060
Si Si4 0.604805 0.601050 0.788623
Si Si5 0.313950 0.400709 0.895335
Si Si6 0.158600 0.900157 0.889317
Si Si7 0.403016 0.903543 0.115038
O O1 0.276070 0.110325 0.820234
O O2 0.357235 0.131011 0.852585
O O3 0.319840 0.000000 0.914820
O O4 0.302749 0.143290 0.000000
O O5 0.250000 0.250000 0.750000
O O6 0.275551 0.388282 0.823735
O O7 0.302127 0.345024 0.647707
O O8 0.500000 0.263697 0.871713
O O9 0.433754 0.340396 0.820189
O O10 0.435187 0.169679 0.849844
O O11 0.439524 0.278992 0.000000
O O12 0.594420 0.500000 0.806950
O O13 0.643684 0.636266 0.850927
O O14 0.617497 0.615880 0.675577
O O15 0.321373 0.500000 0.910943
O O16 0.305082 0.356408 0.000000
O O17 0.172070 0.000000 0.879885
O O18 0.148194 0.874781 0.000000
O O19 0.413503 0.000000 0.157657
O O20 0.404301 0.910350 0.000000
#
# Coordination Sequence:
#
# PCOD8289764 Si02
#       7
#    16  16  16  16  16  16  16
#     4   9  17  30  47  64  86 120 159 198 236 271
#     4  11  21  27  40  68  96 122 152 191 236 272
#     4  10  20  31  47  72 101 131 157 187 233 290
#     4   9  18  32  50  71  95 124 158 194 234 281
#     4   9  18  32  46  59  83 124 163 188 214 259
#     4   9  18  34  53  69  89 122 164 204 239 277
#     4   8  16  30  47  67  91 123 160 195 234 278
#
# _framework density 16.216346999999999
#
# number of rings (size 3 to 8) (size 9 to 14) (size 15 to 20)
#    0.000    2.714    0.000    3.857    4.000    3.714 
#    0.000    2.143    0.000    0.429    0.000    2.000 
#    0.000    0.571    0.000    1.286    0.000    0.143 
#
# Total GULP energy -693864.184597 kJ/mol
# GULP energy per Si atom -12390.431868 kJ/mol
# Density = 1.617944 g / cm^3
# Si number density = 16.216347 Si / 1000 Ang^3
#
#
#
# Elastic Constant Matrix: (Units=GPa)
#
#
# Indices 1 2 3 4 5 6 
#
# 1 101.4422 43.1551 46.8400 0.0000 0.0000 0.0000
# 2 43.1551 64.4100 27.2745 0.0000 0.0000 0.0000
# 3 46.8400 27.2745 105.9728 0.0000 0.0000 0.0000
# 4 0.0000 0.0000 0.0000 13.7831 0.0000 0.0000
# 5 0.0000 0.0000 0.0000 0.0000 21.0563 0.0000
# 6 0.0000 0.0000 0.0000 0.0000 0.0000 28.3364
#
#
#
# Elastic Compliance Matrix: (Units=1/GPa)
#
#
# Indices 1 2 3 4 5 6 
#
# 1 0.015653 -0.008482 -0.004735 0.000000 0.000000 0.000000
# 2 -0.008482 0.022021 -0.001918 0.000000 0.000000 0.000000
# 3 -0.004735 -0.001918 0.012023 0.000000 0.000000 0.000000
# 4 0.000000 0.000000 0.000000 0.072553 0.000000 0.000000
# 5 0.000000 0.000000 0.000000 0.000000 0.047492 0.000000
# 6 0.000000 0.000000 0.000000 0.000000 0.000000 0.035290
#
#
# Mechanical properties :
#
#
# Convention : Reuss Voigt Hill
#
# Bulk Modulus (GPa) = 51.48066 56.26269 53.87167
# Shear Modulus (GPa) = 20.68003 22.93885 21.80944
#
# Velocity S-wave (km/s) = 3.57495 3.76513 3.67127
# Velocity P-wave (km/s) = 6.98967 7.32612 7.15987
#
# Compressibility (1/GPa) = 0.01942477
#
# Stress axis : x y z
#
# Youngs Moduli (GPa) = 63.88595 45.41104 83.17238
#
# Poissons Ratio (x) = 0.38519 0.39386
# Poissons Ratio (y) = 0.54190 0.15956
# Poissons Ratio (z) = 0.30253 0.08712
#
# Static dielectric constant tensor:
#      x y z
#    x 2.876140 0.000000 0.000000 
#    y 0.000000 3.421410 0.000000 
#    z 0.000000 0.000000 3.083510 
# 
# 
# High freq. dielectric constant tensor:
#      x y z
#    x 1.609980 0.000000 0.000000 
#    y 0.000000 1.620140 0.000000 
#    z 0.000000 0.000000 1.600120 
# 
# From -- ./inp_files/41089.got.cif
#   From: 2010.06.25/outbox.cif.g09.slc.cpg/sg71_21_cif.got.tgz:41089.got - 2010.06.28 04:59:45.
