data_PCOD8289004
_publ_section_title
;
Structure prediction by ZEFSAII (Michael W. Deem and Ramdas Pophale) SiO2 
 PCOD8289004
Probable space group: I M M M
;
_chemical_formula_sum "Si O2"
_cell_formula_units_Z 112
_cell_length_a 25.456510
_cell_length_b 15.203645
_cell_length_c 14.623383
_cell_angle_alpha 90.000000
_cell_angle_beta 90.000000
_cell_angle_gamma 90.000000
_cell_volume 5659.713381
_symmetry_space_group_name_H-M "I M M M"
_symmetry_group_IT_number 71
_symmetry_cell_setting 'orthorhombic'
loop_
_space_group_symop_operation_xyz
x,y,z
-x,-y,z
x,-y,-z
-x,y,-z
-x,-y,-z
x,y,-z
-x,y,z
x,-y,z
1/2+x,1/2+y,1/2+z
1/2-x,1/2-y,1/2+z
1/2+x,1/2-y,1/2-z
1/2-x,1/2+y,1/2-z
1/2-x,1/2-y,1/2-z
1/2+x,1/2+y,1/2-z
1/2-x,1/2+y,1/2+z
1/2+x,1/2-y,1/2+z
loop_
_atom_site_type_symbol
_atom_site_label
_atom_site_fract_x
_atom_site_fract_y
_atom_site_fract_z
Si Si1 0.650965 0.640080 0.898800
Si Si2 0.059553 0.285361 0.214713
Si Si3 0.393122 0.828721 0.099742
Si Si4 0.245190 0.602882 0.788942
Si Si5 0.642695 0.102348 0.392841
Si Si6 0.059694 0.903770 0.725259
Si Si7 0.213504 0.400775 0.599016
O O1 0.643843 0.743489 0.901993
O O2 0.699055 0.621214 0.832405
O O3 0.598221 0.594377 0.861466
O O4 0.662422 0.601703 0.000000
O O5 0.065026 0.322613 0.318592
O O6 0.095954 0.338281 0.146061
O O7 0.073571 0.180322 0.210421
O O8 0.000000 0.301210 0.183373
O O9 0.349853 0.904458 0.116186
O O10 0.421543 0.839907 0.000000
O O11 0.236424 0.500000 0.777638
O O12 0.197335 0.637996 0.850938
O O13 0.241878 0.645884 0.686361
O O14 0.645722 0.117949 0.500000
O O15 0.631868 0.000000 0.369764
O O16 0.000000 0.891081 0.689309
O O17 0.064967 0.000000 0.775407
O O18 0.226143 0.354500 0.500000
O O19 0.233703 0.500000 0.592589
#
# Coordination Sequence:
#
# PCOD8289004 Si02
#       7
#    16  16  16  16  16  16  16
#     4  10  20  32  51  81 112 144 183 225 270 323
#     4  10  20  35  55  79 107 143 186 228 270 323
#     4   9  18  33  51  76 106 136 175 225 276 324
#     4  10  19  32  53  79 108 142 179 221 268 321
#     4  10  21  37  56  81 113 147 181 220 273 330
#     4   9  19  36  56  78 107 144 184 226 274 325
#     4   9  17  31  51  72 100 141 182 217 262 324
#
# _framework density 19.788988
#
# number of rings (size 3 to 8) (size 9 to 14) (size 15 to 20)
#    0.000    2.429    1.429    0.857    0.000    3.429 
#    0.000    4.286    0.000    0.429    0.000    5.000 
#    0.000    0.000    0.000    0.000    0.000    0.143 
#
# Total GULP energy -693794.459837 kJ/mol
# GULP energy per Si atom -12389.186783 kJ/mol
# Density = 1.974395 g / cm^3
# Si number density = 19.788988 Si / 1000 Ang^3
#
#
#
# Elastic Constant Matrix: (Units=GPa)
#
#
# Indices 1 2 3 4 5 6 
#
# 1 113.3252 33.4390 61.1451 0.0000 0.0000 0.0000
# 2 33.4390 55.1595 46.7009 0.0000 0.0000 0.0000
# 3 61.1451 46.7009 120.4803 0.0000 0.0000 0.0000
# 4 0.0000 0.0000 0.0000 18.6460 0.0000 0.0000
# 5 0.0000 0.0000 0.0000 0.0000 16.7100 0.0000
# 6 0.0000 0.0000 0.0000 0.0000 0.0000 14.4088
#
#
#
# Elastic Compliance Matrix: (Units=1/GPa)
#
#
# Indices 1 2 3 4 5 6 
#
# 1 0.012542 -0.003296 -0.005088 0.000000 0.000000 0.000000
# 2 -0.003296 0.027851 -0.009123 0.000000 0.000000 0.000000
# 3 -0.005088 -0.009123 0.014418 0.000000 0.000000 0.000000
# 4 0.000000 0.000000 0.000000 0.053631 0.000000 0.000000
# 5 0.000000 0.000000 0.000000 0.000000 0.059844 0.000000
# 6 0.000000 0.000000 0.000000 0.000000 0.000000 0.069402
#
#
# Mechanical properties :
#
#
# Convention : Reuss Voigt Hill
#
# Bulk Modulus (GPa) = 50.50869 63.50392 57.00630
# Shear Modulus (GPa) = 17.90181 19.79828 18.85005
#
# Velocity S-wave (km/s) = 3.01098 3.16645 3.08969
# Velocity P-wave (km/s) = 6.13735 6.74750 6.44964
#
# Compressibility (1/GPa) = 0.01979857
#
# Stress axis : x y z
#
# Youngs Moduli (GPa) = 79.73447 35.90487 69.35542
#
# Poissons Ratio (x) = 0.11833 0.35285
# Poissons Ratio (y) = 0.26278 0.63275
# Poissons Ratio (z) = 0.40565 0.32757
#
# Static dielectric constant tensor:
#      x y z
#    x 3.384460 0.000000 0.000000 
#    y 0.000000 3.735650 0.000000 
#    z 0.000000 0.000000 3.776860 
# 
# 
# High freq. dielectric constant tensor:
#      x y z
#    x 1.756430 0.000000 0.000000 
#    y 0.000000 1.768390 0.000000 
#    z 0.000000 0.000000 1.761510 
# 
# From -- ./inp_files/34900.got.cif
#   From: 2010.06.25/outbox.cif.g09.slc.cpg/sg71_18_cif.got.tgz:34900.got - 2010.06.28 04:59:45.
