data_PCOD8289013
_publ_section_title
;
Structure prediction by ZEFSAII (Michael W. Deem and Ramdas Pophale) SiO2 
 PCOD8289013
Probable space group: I M M M
;
_chemical_formula_sum "Si O2"
_cell_formula_units_Z 120
_cell_length_a 22.021882
_cell_length_b 13.130579
_cell_length_c 22.651396
_cell_angle_alpha 90.000000
_cell_angle_beta 90.000000
_cell_angle_gamma 90.000000
_cell_volume 6549.879057
_symmetry_space_group_name_H-M "I M M M"
_symmetry_group_IT_number 71
_symmetry_cell_setting 'orthorhombic'
loop_
_space_group_symop_operation_xyz
x,y,z
-x,-y,z
x,-y,-z
-x,y,-z
-x,-y,-z
x,y,-z
-x,y,z
x,-y,z
1/2+x,1/2+y,1/2+z
1/2-x,1/2-y,1/2+z
1/2+x,1/2-y,1/2-z
1/2-x,1/2+y,1/2-z
1/2-x,1/2-y,1/2-z
1/2+x,1/2+y,1/2-z
1/2-x,1/2+y,1/2+z
1/2+x,1/2-y,1/2+z
loop_
_atom_site_type_symbol
_atom_site_label
_atom_site_fract_x
_atom_site_fract_y
_atom_site_fract_z
Si Si1 0.000000 0.120972 0.434625
Si Si2 0.433044 0.236064 0.566240
Si Si3 0.653719 0.248715 0.760387
Si Si4 0.234283 0.886663 0.566927
Si Si5 0.068982 0.614603 0.820240
Si Si6 0.754891 0.882497 0.184752
Si Si7 0.614333 0.381136 0.861111
Si Si8 0.806428 0.188811 0.932973
O O1 0.939971 0.160073 0.401715
O O2 0.000000 0.168623 0.500000
O O3 0.000000 0.000000 0.438423
O O4 0.425743 0.191757 0.500000
O O5 0.500000 0.288333 0.573889
O O6 0.426875 0.142238 0.610774
O O7 0.379310 0.318773 0.577155
O O8 0.611194 0.188587 0.716379
O O9 0.690433 0.169622 0.801575
O O10 0.695614 0.323169 0.722595
O O11 0.611163 0.319076 0.800599
O O12 0.210070 0.882925 0.500000
O O13 0.178298 0.857490 0.608244
O O14 0.288485 0.807323 0.577410
O O15 0.258637 0.000000 0.582444
O O16 0.092577 0.500000 0.812349
O O17 0.000000 0.625500 0.797417
O O18 0.770810 0.878949 0.114770
O O19 0.752679 0.000000 0.204548
O O20 0.606195 0.500000 0.847333
O O21 0.789301 0.153712 0.000000
#
# Coordination Sequence:
#
# PCOD8289013 Si02
#       8
#     8  16  16  16  16  16  16  16
#     4   9  18  32  52  82 117 149 180 219 269 325
#     4   9  18  34  56  80 108 139 172 217 271 327
#     4  11  22  38  55  79 111 149 179 226 271 326
#     4   9  17  30  50  77 108 138 173 224 280 329
#     4  10  21  36  56  81 109 144 183 221 267 324
#     4  11  23  39  57  80 108 143 186 228 276 329
#     4  10  19  32  53  80 110 146 185 221 266 325
#     4  10  19  35  55  80 107 139 182 227 277 328
#
# _framework density 18.320948000000001
#
# number of rings (size 3 to 8) (size 9 to 14) (size 15 to 20)
#    0.000    2.067    2.667    1.200    0.933    2.667 
#    0.000    2.667    0.000    1.200    0.000    1.867 
#    0.000    1.067    0.000    0.000    0.000    0.000 
#
# Total GULP energy -743853.414608 kJ/mol
# GULP energy per Si atom -12397.556910 kJ/mol
# Density = 1.827925 g / cm^3
# Si number density = 18.320948 Si / 1000 Ang^3
#
#
#
# Elastic Constant Matrix: (Units=GPa)
#
#
# Indices 1 2 3 4 5 6 
#
# 1 84.4766 28.3669 42.3854 0.0000 0.0000 0.0000
# 2 28.3669 73.5366 38.1166 0.0000 0.0000 0.0000
# 3 42.3854 38.1166 106.1754 0.0000 0.0000 0.0000
# 4 0.0000 0.0000 0.0000 19.8763 0.0000 0.0000
# 5 0.0000 0.0000 0.0000 0.0000 21.4582 0.0000
# 6 0.0000 0.0000 0.0000 0.0000 0.0000 17.1159
#
#
#
# Elastic Compliance Matrix: (Units=1/GPa)
#
#
# Indices 1 2 3 4 5 6 
#
# 1 0.015464 -0.003398 -0.004953 0.000000 0.000000 0.000000
# 2 -0.003398 0.017454 -0.004910 0.000000 0.000000 0.000000
# 3 -0.004953 -0.004910 0.013158 0.000000 0.000000 0.000000
# 4 0.000000 0.000000 0.000000 0.050311 0.000000 0.000000
# 5 0.000000 0.000000 0.000000 0.000000 0.046602 0.000000
# 6 0.000000 0.000000 0.000000 0.000000 0.000000 0.058425
#
#
# Mechanical properties :
#
#
# Convention : Reuss Voigt Hill
#
# Bulk Modulus (GPa) = 51.13813 53.54735 52.34274
# Shear Modulus (GPa) = 21.32606 22.04472 21.68539
#
# Velocity S-wave (km/s) = 3.41548 3.47256 3.44414
# Velocity P-wave (km/s) = 6.59750 6.73565 6.66694
#
# Compressibility (1/GPa) = 0.01955488
#
# Stress axis : x y z
#
# Youngs Moduli (GPa) = 64.66682 57.29298 75.99745
#
# Poissons Ratio (x) = 0.19466 0.37645
# Poissons Ratio (y) = 0.21972 0.37312
# Poissons Ratio (z) = 0.32032 0.28129
#
# Static dielectric constant tensor:
#      x y z
#    x 3.493000 0.000000 0.000000 
#    y 0.000000 3.084360 0.000000 
#    z 0.000000 0.000000 3.505670 
# 
# 
# High freq. dielectric constant tensor:
#      x y z
#    x 1.713630 0.000000 0.000000 
#    y 0.000000 1.676030 0.000000 
#    z 0.000000 0.000000 1.720660 
# 
# From -- ./inp_files/52257.got.cif
#   From: 2010.06.25/outbox.cif.g09.slc.cpg/sg71_27_cif.got.tgz:52257.got - 2010.06.28 04:59:45.
