data_PCOD8289893
_publ_section_title
;
Structure prediction by ZEFSAII (Michael W. Deem and Ramdas Pophale) SiO2 
 PCOD8289893
Probable space group: I M M M
;
_chemical_formula_sum "Si O2"
_cell_formula_units_Z 120
_cell_length_a 17.038530
_cell_length_b 19.626341
_cell_length_c 20.961043
_cell_angle_alpha 90.000000
_cell_angle_beta 90.000000
_cell_angle_gamma 90.000000
_cell_volume 7009.456622
_symmetry_space_group_name_H-M "I M M M"
_symmetry_group_IT_number 71
_symmetry_cell_setting 'orthorhombic'
loop_
_space_group_symop_operation_xyz
x,y,z
-x,-y,z
x,-y,-z
-x,y,-z
-x,-y,-z
x,y,-z
-x,y,z
x,-y,z
1/2+x,1/2+y,1/2+z
1/2-x,1/2-y,1/2+z
1/2+x,1/2-y,1/2-z
1/2-x,1/2+y,1/2-z
1/2-x,1/2-y,1/2-z
1/2+x,1/2+y,1/2-z
1/2-x,1/2+y,1/2+z
1/2+x,1/2-y,1/2+z
loop_
_atom_site_type_symbol
_atom_site_label
_atom_site_fract_x
_atom_site_fract_y
_atom_site_fract_z
Si Si1 0.410095 0.674973 0.202695
Si Si2 0.709984 0.424726 0.247176
Si Si3 0.191329 0.622683 0.131076
Si Si4 0.411446 0.171245 0.071695
Si Si5 0.912956 0.311447 0.771682
Si Si6 0.361814 0.921569 0.819616
Si Si7 0.337189 0.686509 0.928334
Si Si8 0.090441 0.500000 0.075386
O O1 0.500000 0.658796 0.215063
O O2 0.361120 0.628067 0.251011
O O3 0.387112 0.752523 0.221551
O O4 0.389998 0.656055 0.129054
O O5 0.673995 0.500000 0.251760
O O6 0.756256 0.418894 0.180717
O O7 0.769341 0.411116 0.305614
O O8 0.143778 0.682843 0.167314
O O9 0.247096 0.662298 0.080637
O O10 0.133066 0.568958 0.098308
O O11 0.500000 0.194783 0.093847
O O12 0.381050 0.107057 0.111072
O O13 0.348876 0.232366 0.077758
O O14 0.415625 0.144539 0.000000
O O15 0.912345 0.382367 0.733534
O O16 0.000000 0.296538 0.797455
O O17 0.386750 0.000000 0.815855
O O18 0.364540 0.663221 0.000000
O O19 0.000000 0.500000 0.099875
O O20 0.093228 0.500000 0.000000
#
# Coordination Sequence:
#
# PCOD8289893 Si02
#       8
#    16  16  16  16  16  16  16   8
#     4  10  20  33  53  77 102 132 165 210 264 309
#     4   9  19  34  52  75  99 130 167 209 258 308
#     4  10  20  34  52  72  99 133 171 210 249 304
#     4  10  20  33  49  72 103 136 172 212 253 300
#     4  10  20  32  49  76 103 129 164 209 258 306
#     4  10  20  32  49  72 101 138 173 207 251 308
#     4  10  20  33  52  73  97 133 174 211 248 298
#     4  11  22  36  54  76 105 139 172 212 261 310
#
# _framework density 17.119729
#
# number of rings (size 3 to 8) (size 9 to 14) (size 15 to 20)
#    0.000    2.067    2.000    1.600    2.800    4.000 
#    0.000    0.667    0.000    0.000    0.000    1.867 
#    0.000    0.533    0.000    2.933    0.000    0.000 
#
# Total GULP energy -743669.383167 kJ/mol
# GULP energy per Si atom -12394.489719 kJ/mol
# Density = 1.708076 g / cm^3
# Si number density = 17.119729 Si / 1000 Ang^3
#
#
#
# Elastic Constant Matrix: (Units=GPa)
#
#
# Indices 1 2 3 4 5 6 
#
# 1 103.6497 62.5251 40.4844 0.0000 0.0000 0.0000
# 2 62.5251 93.9015 33.0777 0.0000 0.0000 0.0000
# 3 40.4844 33.0777 67.4260 0.0000 0.0000 0.0000
# 4 0.0000 0.0000 0.0000 22.4804 0.0000 0.0000
# 5 0.0000 0.0000 0.0000 0.0000 23.3156 0.0000
# 6 0.0000 0.0000 0.0000 0.0000 0.0000 19.7643
#
#
#
# Elastic Compliance Matrix: (Units=1/GPa)
#
#
# Indices 1 2 3 4 5 6 
#
# 1 0.017887 -0.009825 -0.005920 0.000000 0.000000 0.000000
# 2 -0.009825 0.018271 -0.003064 0.000000 0.000000 0.000000
# 3 -0.005920 -0.003064 0.019889 0.000000 0.000000 0.000000
# 4 0.000000 0.000000 0.000000 0.044483 0.000000 0.000000
# 5 0.000000 0.000000 0.000000 0.000000 0.042890 0.000000
# 6 0.000000 0.000000 0.000000 0.000000 0.000000 0.050596
#
#
# Mechanical properties :
#
#
# Convention : Reuss Voigt Hill
#
# Bulk Modulus (GPa) = 54.26339 59.68352 56.97345
# Shear Modulus (GPa) = 21.02821 21.70473 21.36647
#
# Velocity S-wave (km/s) = 3.50852 3.56451 3.53662
# Velocity P-wave (km/s) = 6.94105 7.20271 7.07309
#
# Compressibility (1/GPa) = 0.01842863
#
# Stress axis : x y z
#
# Youngs Moduli (GPa) = 55.90745 54.73247 50.27967
#
# Poissons Ratio (x) = 0.53773 0.29765
# Poissons Ratio (y) = 0.54927 0.15407
# Poissons Ratio (z) = 0.33097 0.16771
#
# Static dielectric constant tensor:
#      x y z
#    x 3.279920 0.000000 0.000000 
#    y 0.000000 3.134180 0.000000 
#    z 0.000000 0.000000 3.233530 
# 
# 
# High freq. dielectric constant tensor:
#      x y z
#    x 1.656760 0.000000 0.000000 
#    y 0.000000 1.651560 0.000000 
#    z 0.000000 0.000000 1.651400 
# 
# From -- ./inp_files/53436.got.cif
#   From: 2010.06.25/outbox.cif.g09.slc.cpg/sg71_27_cif.got.tgz:53436.got - 2010.06.28 04:59:45.
