data_PCOD8289431
_publ_section_title
;
Structure prediction by ZEFSAII (Michael W. Deem and Ramdas Pophale) SiO2 
 PCOD8289431
Probable space group: I M M M
;
_chemical_formula_sum "Si O2"
_cell_formula_units_Z 56
_cell_length_a 9.921020
_cell_length_b 8.873243
_cell_length_c 32.869666
_cell_angle_alpha 90.000000
_cell_angle_beta 90.000000
_cell_angle_gamma 90.000000
_cell_volume 2893.569989
_symmetry_space_group_name_H-M "I M M M"
_symmetry_group_IT_number 71
_symmetry_cell_setting 'orthorhombic'
loop_
_space_group_symop_operation_xyz
x,y,z
-x,-y,z
x,-y,-z
-x,y,-z
-x,-y,-z
x,y,-z
-x,y,z
x,-y,z
1/2+x,1/2+y,1/2+z
1/2-x,1/2-y,1/2+z
1/2+x,1/2-y,1/2-z
1/2-x,1/2+y,1/2-z
1/2-x,1/2-y,1/2-z
1/2+x,1/2+y,1/2-z
1/2-x,1/2+y,1/2+z
1/2+x,1/2-y,1/2+z
loop_
_atom_site_type_symbol
_atom_site_label
_atom_site_fract_x
_atom_site_fract_y
_atom_site_fract_z
Si Si1 0.500000 0.821323 0.782921
Si Si2 0.264189 0.821251 0.159184
Si Si3 0.653760 0.320164 0.500000
Si Si4 0.850190 0.678798 0.569913
Si Si5 0.000000 0.678462 0.808610
O O1 0.631945 0.764183 0.806543
O O2 0.500000 0.755097 0.737342
O O3 0.500000 0.000000 0.782713
O O4 0.317532 0.768090 0.115428
O O5 0.126260 0.737222 0.166720
O O6 0.242419 0.000000 0.160742
O O7 0.648986 0.500000 0.500000
O O8 0.500000 0.256717 0.500000
O O9 0.735453 0.258990 0.460650
O O10 0.850917 0.500000 0.567679
O O11 0.000000 0.738453 0.557857
O O12 0.000000 0.500000 0.807342
#
# Coordination Sequence:
#
# PCOD8289431 Si02
#       5
#     8  16   8  16   8
#     4   9  18  35  55  76 102 133 176 221 259 303
#     4  10  19  34  56  78 100 135 179 217 253 304
#     4   9  17  25  39  71 111 136 155 196 254 310
#     4   9  16  28  47  71 101 135 168 204 251 303
#     4  11  23  35  49  74 109 141 169 215 269 309
#
# _framework density 19.353256999999999
#
# number of rings (size 3 to 8) (size 9 to 14) (size 15 to 20)
#    0.000    2.429    1.429    1.714    2.000    1.714 
#    0.000    2.143    0.000    0.000    0.000    2.000 
#    0.000    2.286    0.000    0.000    0.000    0.000 
#
# Total GULP energy -347141.885297 kJ/mol
# GULP energy per Si atom -12397.924475 kJ/mol
# Density = 1.930921 g / cm^3
# Si number density = 19.353257 Si / 1000 Ang^3
#
#
#
# Elastic Constant Matrix: (Units=GPa)
#
#
# Indices 1 2 3 4 5 6 
#
# 1 192.9058 19.1733 71.7624 0.0000 0.0000 0.0000
# 2 19.1733 17.9684 12.1436 -0.0001 0.0000 0.0000
# 3 71.7624 12.1436 121.8081 0.0000 0.0000 0.0000
# 4 0.0000 -0.0001 0.0000 12.8550 0.0000 0.0000
# 5 0.0000 0.0000 0.0000 0.0000 44.9391 0.0000
# 6 0.0000 0.0000 0.0000 0.0000 0.0000 -5.0642
#
#
#
# Elastic Compliance Matrix: (Units=1/GPa)
#
#
# Indices 1 2 3 4 5 6 
#
# 1 0.007042 -0.005051 -0.003645 0.000000 0.000000 0.000000
# 2 -0.005051 0.063296 -0.003335 0.000000 0.000000 0.000000
# 3 -0.003645 -0.003335 0.010690 0.000000 0.000000 0.000000
# 4 0.000000 0.000000 0.000000 0.077791 0.000000 0.000000
# 5 0.000000 0.000000 0.000000 0.000000 0.022252 0.000000
# 6 0.000000 0.000000 0.000000 0.000000 0.000000 -0.197465
#
#
# Mechanical properties :
#
#
# Convention : Reuss Voigt Hill
#
# Bulk Modulus (GPa) = 17.55410 59.87122 38.71266
# Shear Modulus (GPa) = 187.57268 25.85284 106.71276
#
# Velocity S-wave (km/s) = 9.85550 3.65888 7.43365
# Velocity P-wave (km/s) = 11.77276 6.98949 9.68119
#
# Compressibility (1/GPa) = 0.05696676
#
# Stress axis : x y z
#
# Youngs Moduli (GPa) = 142.00725 15.79870 93.54870
#
# Poissons Ratio (x) = 0.07979 0.34100
# Poissons Ratio (y) = 0.71722 0.31197
# Poissons Ratio (z) = 0.51764 0.05269
#
# Static dielectric constant tensor:
#      x y z
#    x 3.721750 0.000000 0.000000 
#    y 0.000000 2.833060 0.000000 
#    z 0.000000 0.000000 3.852920 
# 
# 
# High freq. dielectric constant tensor:
#      x y z
#    x 1.772810 0.000000 0.000000 
#    y 0.000000 1.679610 0.000000 
#    z 0.000000 0.000000 1.768620 
# 
# From -- ./inp_files/18435.got.cif
#   From: 2010.06.25/outbox.cif.g09.slc.cpg/sg71_10_cif.got.tgz:18435.got - 2010.06.28 04:59:45.
