data_PCOD8289380
_publ_section_title
;
Structure prediction by ZEFSAII (Michael W. Deem and Ramdas Pophale) SiO2 
 PCOD8289380
Probable space group: I M M M
;
_chemical_formula_sum "Si O2"
_cell_formula_units_Z 72
_cell_length_a 30.348148
_cell_length_b 8.095811
_cell_length_c 14.990253
_cell_angle_alpha 90.000000
_cell_angle_beta 90.000000
_cell_angle_gamma 90.000000
_cell_volume 3682.998288
_symmetry_space_group_name_H-M "I M M M"
_symmetry_group_IT_number 71
_symmetry_cell_setting 'orthorhombic'
loop_
_space_group_symop_operation_xyz
x,y,z
-x,-y,z
x,-y,-z
-x,y,-z
-x,-y,-z
x,y,-z
-x,y,z
x,-y,z
1/2+x,1/2+y,1/2+z
1/2-x,1/2-y,1/2+z
1/2+x,1/2-y,1/2-z
1/2-x,1/2+y,1/2-z
1/2-x,1/2-y,1/2-z
1/2+x,1/2+y,1/2-z
1/2-x,1/2+y,1/2+z
1/2+x,1/2-y,1/2+z
loop_
_atom_site_type_symbol
_atom_site_label
_atom_site_fract_x
_atom_site_fract_y
_atom_site_fract_z
Si Si1 0.949474 0.313372 0.711565
Si Si2 0.448036 0.500000 0.097395
Si Si3 0.633303 0.812089 0.321240
Si Si4 0.233499 0.697641 0.500000
Si Si5 0.291673 0.804869 0.192738
Si Si6 0.169260 0.187004 0.000000
O O1 0.943830 0.500000 0.670343
O O2 0.918208 0.294863 0.797273
O O3 0.000000 0.285371 0.741770
O O4 0.933561 0.171092 0.643976
O O5 0.500000 0.500000 0.089341
O O6 0.425963 0.500000 0.000000
O O7 0.664154 0.738370 0.241958
O O8 0.640024 0.720622 0.413672
O O9 0.647191 0.000000 0.336756
O O10 0.232994 0.500000 0.500000
O O11 0.210114 0.764696 0.590817
O O12 0.283078 0.775921 0.500000
O O13 0.250000 0.750000 0.250000
O O14 0.292053 0.000000 0.187112
O O15 0.182861 0.000000 0.000000
#
# Coordination Sequence:
#
# PCOD8289380 Si02
#       6
#    16   8  16   8  16   8
#     4   9  19  37  59  83 115 153 191 235 287 337
#     4   9  18  34  58  85 113 149 191 236 284 337
#     4  10  21  36  56  82 109 144 186 232 283 336
#     4   9  18  33  51  76 107 143 180 220 275 333
#     4  10  19  34  54  76 106 140 179 223 273 329
#     4  11  21  33  56  80 105 143 185 228 279 341
#
# _framework density 19.549291
#
# number of rings (size 3 to 8) (size 9 to 14) (size 15 to 20)
#    0.000    2.333    2.222    0.333    1.556    0.444 
#    2.000    3.333    0.000    3.333    0.000    0.000 
#    0.000    0.000    0.000    0.000    0.000    0.000 
#
# Total GULP energy -446093.325952 kJ/mol
# GULP energy per Si atom -12391.481276 kJ/mol
# Density = 1.950480 g / cm^3
# Si number density = 19.549291 Si / 1000 Ang^3
#
#
#
# Elastic Constant Matrix: (Units=GPa)
#
#
# Indices 1 2 3 4 5 6 
#
# 1 99.0384 26.7078 60.3759 0.0000 0.0000 0.0000
# 2 26.7078 69.1837 42.6567 0.0000 0.0000 0.0000
# 3 60.3759 42.6567 176.4299 0.0000 0.0000 0.0000
# 4 0.0000 0.0000 0.0000 21.6596 0.0000 0.0000
# 5 0.0000 0.0000 0.0000 0.0000 -11.8412 0.0000
# 6 0.0000 0.0000 0.0000 0.0000 0.0000 20.2333
#
#
#
# Elastic Compliance Matrix: (Units=1/GPa)
#
#
# Indices 1 2 3 4 5 6 
#
# 1 0.013178 -0.002711 -0.003854 0.000000 0.000000 0.000000
# 2 -0.002711 0.017544 -0.003314 0.000000 0.000000 0.000000
# 3 -0.003854 -0.003314 0.007788 0.000000 0.000000 0.000000
# 4 0.000000 0.000000 0.000000 0.046169 0.000000 0.000000
# 5 0.000000 0.000000 0.000000 0.000000 -0.084451 0.000000
# 6 0.000000 0.000000 0.000000 0.000000 0.000000 0.049423
#
#
# Mechanical properties :
#
#
# Convention : Reuss Voigt Hill
#
# Bulk Modulus (GPa) = 53.32784 67.12587 60.22686
# Shear Modulus (GPa) = 66.08518 20.33780 43.21149
#
# Velocity S-wave (km/s) = 5.82046 3.22892 4.70658
# Velocity P-wave (km/s) = 8.51518 6.95072 7.77241
#
# Compressibility (1/GPa) = 0.01875193
#
# Stress axis : x y z
#
# Youngs Moduli (GPa) = 75.88605 56.99913 128.40007
#
# Poissons Ratio (x) = 0.15451 0.49487
# Poissons Ratio (y) = 0.20571 0.42553
# Poissons Ratio (z) = 0.29247 0.18890
#
# Static dielectric constant tensor:
#      x y z
#    x 3.469430 0.000000 0.000000 
#    y 0.000000 3.580450 0.000000 
#    z 0.000000 0.000000 3.721760 
# 
# 
# High freq. dielectric constant tensor:
#      x y z
#    x 1.752450 0.000000 0.000000 
#    y 0.000000 1.753260 0.000000 
#    z 0.000000 0.000000 1.754160 
# 
# From -- ./inp_files/16436.got.cif
#   From: 2010.06.25/outbox.cif.g09.slc.cpg/sg71_9_cif.got.tgz:16436.got - 2010.06.28 04:59:45.
