data_PCOD8289835
_publ_section_title
;
Structure prediction by ZEFSAII (Michael W. Deem and Ramdas Pophale) SiO2 
 PCOD8289835
Probable space group: I M M M
;
_chemical_formula_sum "Si O2"
_cell_formula_units_Z 96
_cell_length_a 13.996138
_cell_length_b 28.477274
_cell_length_c 15.166868
_cell_angle_alpha 90.000000
_cell_angle_beta 90.000000
_cell_angle_gamma 90.000000
_cell_volume 6045.086740
_symmetry_space_group_name_H-M "I M M M"
_symmetry_group_IT_number 71
_symmetry_cell_setting 'orthorhombic'
loop_
_space_group_symop_operation_xyz
x,y,z
-x,-y,z
x,-y,-z
-x,y,-z
-x,-y,-z
x,y,-z
-x,y,z
x,-y,z
1/2+x,1/2+y,1/2+z
1/2-x,1/2-y,1/2+z
1/2+x,1/2-y,1/2-z
1/2-x,1/2+y,1/2-z
1/2-x,1/2-y,1/2-z
1/2+x,1/2+y,1/2-z
1/2-x,1/2+y,1/2+z
1/2+x,1/2-y,1/2+z
loop_
_atom_site_type_symbol
_atom_site_label
_atom_site_fract_x
_atom_site_fract_y
_atom_site_fract_z
Si Si1 0.000000 0.775092 0.400723
Si Si2 0.695900 0.856353 0.247352
Si Si3 0.388203 0.054725 0.191806
Si Si4 0.000000 0.762816 0.900901
Si Si5 0.611403 0.949454 0.000000
Si Si6 0.000000 0.304730 0.742620
Si Si7 0.705792 0.299217 0.398697
Si Si8 0.708640 0.698593 0.899294
O O1 0.000000 0.733087 0.333623
O O2 0.905435 0.806479 0.386269
O O3 0.000000 0.754088 0.500000
O O4 0.680211 0.912883 0.252633
O O5 0.591931 0.836060 0.230339
O O6 0.762100 0.840675 0.165815
O O7 0.740606 0.840159 0.339526
O O8 0.500000 0.060857 0.215116
O O9 0.359537 0.000000 0.202012
O O10 0.364273 0.075306 0.092917
O O11 0.907488 0.794669 0.884215
O O12 0.000000 0.717850 0.838946
O O13 0.000000 0.742487 0.000000
O O14 0.500000 0.959493 0.000000
O O15 0.663755 0.000000 0.000000
O O16 0.730720 0.312002 0.500000
O O17 0.757744 0.250688 0.370785
O O18 0.739353 0.688981 0.000000
#
# Coordination Sequence:
#
# PCOD8289835 Si02
#       8
#     8  16  16   8   8   8  16  16
#     4  10  20  34  48  67 101 133 156 199 249 280
#     4  12  21  30  48  74  97 130 168 198 235 284
#     4   9  18  32  48  69  98 128 159 200 246 288
#     4  10  20  34  48  63  97 136 164 196 234 276
#     4   7  12  26  44  62  88 123 153 183 231 284
#     4  12  20  28  45  72  97 130 167 197 231 278
#     4  10  20  32  47  70  98 128 162 199 235 283
#     4  10  20  34  49  69  97 129 166 202 238 285
#
# _framework density 15.880665
#
# number of rings (size 3 to 8) (size 9 to 14) (size 15 to 20)
#    0.000    1.917    4.167    2.500    1.167    0.000 
#    0.000    0.000    0.000    0.500    0.000    3.500 
#    0.000    4.000    0.000    0.000    0.000    0.000 
#
# Total GULP energy -594885.030479 kJ/mol
# GULP energy per Si atom -12393.438135 kJ/mol
# Density = 1.584452 g / cm^3
# Si number density = 15.880665 Si / 1000 Ang^3
#
#
#
# Elastic Constant Matrix: (Units=GPa)
#
#
# Indices 1 2 3 4 5 6 
#
# 1 78.1725 24.3080 24.2615 0.0001 -0.0001 -0.0001
# 2 24.3080 81.6578 39.1454 0.0000 -0.0001 -0.0001
# 3 24.2615 39.1454 70.7548 -0.0002 0.0000 -0.0002
# 4 0.0001 0.0000 -0.0002 5.2674 -0.0001 -0.0001
# 5 -0.0001 -0.0001 0.0000 -0.0001 29.7150 0.0000
# 6 -0.0001 -0.0001 -0.0002 -0.0001 0.0000 20.6140
#
#
#
# Elastic Compliance Matrix: (Units=1/GPa)
#
#
# Indices 1 2 3 4 5 6 
#
# 1 0.014732 -0.002673 -0.003573 0.000000 0.000000 0.000000
# 2 -0.002673 0.017151 -0.008573 0.000000 0.000000 0.000000
# 3 -0.003573 -0.008573 0.020101 0.000001 0.000000 0.000000
# 4 0.000000 0.000000 0.000001 0.189845 0.000001 0.000001
# 5 0.000000 0.000000 0.000000 0.000001 0.033653 0.000000
# 6 0.000000 0.000000 0.000000 0.000001 0.000000 0.048511
#
#
# Mechanical properties :
#
#
# Convention : Reuss Voigt Hill
#
# Bulk Modulus (GPa) = 44.74596 45.11279 44.92937
# Shear Modulus (GPa) = 13.84735 20.64396 17.24565
#
# Velocity S-wave (km/s) = 2.95610 3.60938 3.29896
# Velocity P-wave (km/s) = 6.31577 6.77047 6.54707
#
# Compressibility (1/GPa) = 0.02234839
#
# Stress axis : x y z
#
# Youngs Moduli (GPa) = 67.87857 58.30420 49.74797
#
# Poissons Ratio (x) = 0.15583 0.17775
# Poissons Ratio (y) = 0.18142 0.42647
# Poissons Ratio (z) = 0.24252 0.49982
#
# Static dielectric constant tensor:
#      x y z
#    x 3.119870 0.000000 0.000000 
#    y 0.000000 2.739450 0.000000 
#    z 0.000000 0.000000 3.139430 
# 
# 
# High freq. dielectric constant tensor:
#      x y z
#    x 1.607060 0.000000 0.000000 
#    y 0.000000 1.567210 0.000000 
#    z 0.000000 0.000000 1.615660 
# 
# From -- ./inp_files/35070.got.cif
#   From: 2010.06.25/outbox.cif.g09.slc.cpg/sg71_18_cif.got.tgz:35070.got - 2010.06.28 04:59:45.
