data_PCOD8289598
_publ_section_title
;
Structure prediction by ZEFSAII (Michael W. Deem and Ramdas Pophale) SiO2 
 PCOD8289598
Probable space group: I M M M
;
_chemical_formula_sum "Si O2"
_cell_formula_units_Z 104
_cell_length_a 27.466978
_cell_length_b 22.121204
_cell_length_c 9.067205
_cell_angle_alpha 90.000000
_cell_angle_beta 90.000000
_cell_angle_gamma 90.000000
_cell_volume 5509.257547
_symmetry_space_group_name_H-M "I M M M"
_symmetry_group_IT_number 71
_symmetry_cell_setting 'orthorhombic'
loop_
_space_group_symop_operation_xyz
x,y,z
-x,-y,z
x,-y,-z
-x,y,-z
-x,-y,-z
x,y,-z
-x,y,z
x,-y,z
1/2+x,1/2+y,1/2+z
1/2-x,1/2-y,1/2+z
1/2+x,1/2-y,1/2-z
1/2-x,1/2+y,1/2-z
1/2-x,1/2-y,1/2-z
1/2+x,1/2+y,1/2-z
1/2-x,1/2+y,1/2+z
1/2+x,1/2-y,1/2+z
loop_
_atom_site_type_symbol
_atom_site_label
_atom_site_fract_x
_atom_site_fract_y
_atom_site_fract_z
Si Si1 0.000000 0.568750 0.674585
Si Si2 0.946266 0.208695 0.325370
Si Si3 0.831986 0.000000 0.823701
Si Si4 0.639469 0.378098 0.823596
Si Si5 0.768145 0.193793 0.338977
Si Si6 0.176386 0.389856 0.835979
Si Si7 0.280126 0.000000 0.173963
Si Si8 0.415151 0.841562 0.824694
O O1 0.047599 0.605780 0.726544
O O2 0.000000 0.500000 0.740111
O O3 0.000000 0.565248 0.500000
O O4 0.945553 0.209431 0.500000
O O5 0.908261 0.158295 0.269612
O O6 0.933984 0.276271 0.270819
O O7 0.000000 0.191119 0.266289
O O8 0.859789 0.942134 0.758306
O O9 0.775688 0.000000 0.768733
O O10 0.835555 0.000000 0.000000
O O11 0.685514 0.339147 0.766221
O O12 0.641202 0.388272 0.000000
O O13 0.784193 0.217347 0.500000
O O14 0.750000 0.250000 0.250000
O O15 0.724919 0.147550 0.352369
O O16 0.188659 0.444557 0.730332
O O17 0.135226 0.350354 0.758814
O O18 0.159789 0.410965 0.000000
O O19 0.280253 0.000000 0.000000
O O20 0.407122 0.843250 0.000000
#
# Coordination Sequence:
#
# PCOD8289598 Si02
#       8
#     8  16   8  16  16  16   8  16
#     4   9  18  32  53  83 115 150 194 243 283 328
#     4   9  17  33  59  89 114 146 199 253 292 332
#     4  11  23  39  60  86 114 147 192 240 295 361
#     4  10  20  36  59  83 113 153 193 238 297 355
#     4  10  21  35  53  80 113 149 185 224 276 336
#     4  11  23  37  54  81 117 149 180 226 281 338
#     4  11  23  39  59  81 107 149 196 236 278 339
#     4  10  19  35  59  84 115 153 197 243 285 334
#
# _framework density 18.877317000000001
#
# number of rings (size 3 to 8) (size 9 to 14) (size 15 to 20)
#    0.000    1.923    2.308    1.846    1.077    3.692 
#    0.000    1.538    0.000    4.154    0.000    0.000 
#    0.000    0.000    0.000    0.000    0.000    0.000 
#
# Total GULP energy -644693.836999 kJ/mol
# GULP energy per Si atom -12397.958404 kJ/mol
# Density = 1.883435 g / cm^3
# Si number density = 18.877317 Si / 1000 Ang^3
#
#
#
# Elastic Constant Matrix: (Units=GPa)
#
#
# Indices 1 2 3 4 5 6 
#
# 1 146.7954 66.5623 30.4161 0.0000 0.0000 0.0000
# 2 66.5623 145.4507 37.7147 0.0000 0.0000 0.0000
# 3 30.4161 37.7147 52.2760 0.0000 0.0000 0.0000
# 4 0.0000 0.0000 0.0000 25.4180 0.0000 0.0000
# 5 0.0000 0.0000 0.0000 0.0000 20.6009 0.0000
# 6 0.0000 0.0000 0.0000 0.0000 0.0000 35.1876
#
#
#
# Elastic Compliance Matrix: (Units=1/GPa)
#
#
# Indices 1 2 3 4 5 6 
#
# 1 0.008908 -0.003361 -0.002758 0.000000 0.000000 0.000000
# 2 -0.003361 0.009726 -0.005061 0.000000 0.000000 0.000000
# 3 -0.002758 -0.005061 0.024385 0.000000 0.000000 0.000000
# 4 0.000000 0.000000 0.000000 0.039342 0.000000 0.000000
# 5 0.000000 0.000000 0.000000 0.000000 0.048542 0.000000
# 6 0.000000 0.000000 0.000000 0.000000 0.000000 0.028419
#
#
# Mechanical properties :
#
#
# Convention : Reuss Voigt Hill
#
# Bulk Modulus (GPa) = 48.40643 68.21202 58.30923
# Shear Modulus (GPa) = 26.51570 30.22991 28.37280
#
# Velocity S-wave (km/s) = 3.75191 4.00608 3.88107
# Velocity P-wave (km/s) = 6.66839 7.59019 7.14417
#
# Compressibility (1/GPa) = 0.02065841
#
# Stress axis : x y z
#
# Youngs Moduli (GPa) = 112.26136 102.82045 41.00877
#
# Poissons Ratio (x) = 0.34562 0.11309
# Poissons Ratio (y) = 0.37735 0.20754
# Poissons Ratio (z) = 0.30960 0.52036
#
# Static dielectric constant tensor:
#      x y z
#    x 3.650030 0.000000 0.000000 
#    y 0.000000 3.444460 0.000000 
#    z 0.000000 0.000000 3.273090 
# 
# 
# High freq. dielectric constant tensor:
#      x y z
#    x 1.740040 0.000000 0.000000 
#    y 0.000000 1.739680 0.000000 
#    z 0.000000 0.000000 1.705210 
# 
# From -- ./inp_files/17069.got.cif
#   From: 2010.06.25/outbox.cif.g09.slc.cpg/sg71_9_cif.got.tgz:17069.got - 2010.06.28 04:59:45.
