data_PCOD8289068
_publ_section_title
;
Structure prediction by ZEFSAII (Michael W. Deem and Ramdas Pophale) SiO2 
 PCOD8289068
Probable space group: I M M M
;
_chemical_formula_sum "Si O2"
_cell_formula_units_Z 72
_cell_length_a 8.977273
_cell_length_b 19.055659
_cell_length_c 22.631539
_cell_angle_alpha 90.000000
_cell_angle_beta 90.000000
_cell_angle_gamma 90.000000
_cell_volume 3871.528788
_symmetry_space_group_name_H-M "I M M M"
_symmetry_group_IT_number 71
_symmetry_cell_setting 'orthorhombic'
loop_
_space_group_symop_operation_xyz
x,y,z
-x,-y,z
x,-y,-z
-x,y,-z
-x,-y,-z
x,y,-z
-x,y,z
x,-y,z
1/2+x,1/2+y,1/2+z
1/2-x,1/2-y,1/2+z
1/2+x,1/2-y,1/2-z
1/2-x,1/2+y,1/2-z
1/2-x,1/2-y,1/2-z
1/2+x,1/2+y,1/2-z
1/2-x,1/2+y,1/2+z
1/2+x,1/2-y,1/2+z
loop_
_atom_site_type_symbol
_atom_site_label
_atom_site_fract_x
_atom_site_fract_y
_atom_site_fract_z
Si Si1 0.672009 0.582547 0.500000
Si Si2 0.175214 0.327286 0.596516
Si Si3 0.174782 0.321494 0.731032
Si Si4 0.828664 0.316717 0.933011
Si Si5 0.176634 0.421979 0.166600
O O1 0.694956 0.500000 0.500000
O O2 0.500000 0.604703 0.500000
O O3 0.746972 0.612558 0.558755
O O4 0.218616 0.341371 0.664418
O O5 0.229523 0.251504 0.576009
O O6 0.000000 0.331489 0.585904
O O7 0.250000 0.250000 0.750000
O O8 0.231466 0.383789 0.773628
O O9 0.000000 0.309919 0.737868
O O10 0.768678 0.378088 0.890310
O O11 0.000000 0.297736 0.918057
O O12 0.812807 0.343836 0.000000
O O13 0.247159 0.500000 0.164329
O O14 0.000000 0.427686 0.165999
#
# Coordination Sequence:
#
# PCOD8289068 Si02
#       5
#     8  16  16  16  16
#     4  11  25  43  61  83 114 151 190 235 289 348
#     4  11  22  35  57  87 114 147 190 237 285 336
#     4  10  20  34  56  84 112 149 191 235 280 333
#     4  10  19  32  55  83 110 146 188 233 279 332
#     4   9  18  33  53  80 114 148 185 231 280 330
#
# _framework density 18.597304000000001
#
# number of rings (size 3 to 8) (size 9 to 14) (size 15 to 20)
#    0.000    1.889    3.333    1.000    0.000    3.111 
#    0.000    4.444    0.000    2.667    0.000    1.556 
#    0.000    0.000    0.000    0.000    0.000    0.000 
#
# Total GULP energy -446462.355676 kJ/mol
# GULP energy per Si atom -12401.732102 kJ/mol
# Density = 1.855498 g / cm^3
# Si number density = 18.597304 Si / 1000 Ang^3
#
#
#
# Elastic Constant Matrix: (Units=GPa)
#
#
# Indices 1 2 3 4 5 6 
#
# 1 60.6505 39.7756 50.1256 0.0000 0.0000 0.0000
# 2 39.7756 125.6777 73.6138 0.0000 0.0000 0.0000
# 3 50.1256 73.6138 175.5705 0.0000 0.0000 0.0000
# 4 0.0000 0.0000 0.0000 35.7953 0.0000 0.0000
# 5 0.0000 0.0000 0.0000 0.0000 23.2726 0.0000
# 6 0.0000 0.0000 0.0000 0.0000 0.0000 17.9966
#
#
#
# Elastic Compliance Matrix: (Units=1/GPa)
#
#
# Indices 1 2 3 4 5 6 
#
# 1 0.023459 -0.004641 -0.004751 0.000000 0.000000 0.000000
# 2 -0.004641 0.011465 -0.003482 0.000000 0.000000 0.000000
# 3 -0.004751 -0.003482 0.008512 0.000000 0.000000 0.000000
# 4 0.000000 0.000000 0.000000 0.027937 0.000000 0.000000
# 5 0.000000 0.000000 0.000000 0.000000 0.042969 0.000000
# 6 0.000000 0.000000 0.000000 0.000000 0.000000 0.055566
#
#
# Mechanical properties :
#
#
# Convention : Reuss Voigt Hill
#
# Bulk Modulus (GPa) = 56.54027 76.54763 66.54395
# Shear Modulus (GPa) = 24.80734 28.63848 26.72291
#
# Velocity S-wave (km/s) = 3.65625 3.92845 3.79479
# Velocity P-wave (km/s) = 6.94929 7.86301 7.42023
#
# Compressibility (1/GPa) = 0.01768651
#
# Stress axis : x y z
#
# Youngs Moduli (GPa) = 42.62808 87.21887 117.47744
#
# Poissons Ratio (x) = 0.40481 0.55819
# Poissons Ratio (y) = 0.19785 0.40907
# Poissons Ratio (z) = 0.20255 0.30371
#
# Static dielectric constant tensor:
#      x y z
#    x 3.258580 0.000000 0.000000 
#    y 0.000000 3.664540 0.000000 
#    z 0.000000 0.000000 4.273270 
# 
# 
# High freq. dielectric constant tensor:
#      x y z
#    x 1.698820 0.000000 0.000000 
#    y 0.000000 1.718730 0.000000 
#    z 0.000000 0.000000 1.743050 
# 
# From -- ./inp_files/7896.got.cif
#   From: 2010.06.25/outbox.cif.g09.slc.cpg/sg71_4_cif.got.tgz:7896.got - 2010.06.28 04:59:45.
