data_PCOD8289534
_publ_section_title
;
Structure prediction by ZEFSAII (Michael W. Deem and Ramdas Pophale) SiO2 
 PCOD8289534
Probable space group: I M M M
;
_chemical_formula_sum "Si O2"
_cell_formula_units_Z 128
_cell_length_a 18.120857
_cell_length_b 19.521496
_cell_length_c 20.250649
_cell_angle_alpha 90.000000
_cell_angle_beta 90.000000
_cell_angle_gamma 90.000000
_cell_volume 7163.590890
_symmetry_space_group_name_H-M "I M M M"
_symmetry_group_IT_number 71
_symmetry_cell_setting 'orthorhombic'
loop_
_space_group_symop_operation_xyz
x,y,z
-x,-y,z
x,-y,-z
-x,y,-z
-x,-y,-z
x,y,-z
-x,y,z
x,-y,z
1/2+x,1/2+y,1/2+z
1/2-x,1/2-y,1/2+z
1/2+x,1/2-y,1/2-z
1/2-x,1/2+y,1/2-z
1/2-x,1/2-y,1/2-z
1/2+x,1/2+y,1/2-z
1/2-x,1/2+y,1/2+z
1/2+x,1/2-y,1/2+z
loop_
_atom_site_type_symbol
_atom_site_label
_atom_site_fract_x
_atom_site_fract_y
_atom_site_fract_z
Si Si1 0.282372 0.728952 0.349115
Si Si2 0.584361 0.681017 0.576814
Si Si3 0.655716 0.422080 0.816407
Si Si4 0.085706 0.074192 0.185051
Si Si5 0.715086 0.859761 0.742723
Si Si6 0.860718 0.693330 0.424463
Si Si7 0.086658 0.419193 0.324547
Si Si8 0.917886 0.836313 0.425488
O O1 0.356685 0.733500 0.393359
O O2 0.293708 0.792531 0.301078
O O3 0.267082 0.660242 0.305659
O O4 0.213324 0.730333 0.398266
O O5 0.598342 0.666698 0.500000
O O6 0.500000 0.706309 0.589098
O O7 0.602871 0.612439 0.617100
O O8 0.632858 0.500000 0.831854
O O9 0.613222 0.390537 0.752751
O O10 0.742905 0.417241 0.800243
O O11 0.638957 0.374639 0.878410
O O12 0.000000 0.065582 0.193681
O O13 0.124865 0.000000 0.179308
O O14 0.635750 0.890639 0.763682
O O15 0.848940 0.671337 0.500000
O O16 0.888829 0.624855 0.388138
O O17 0.920044 0.754055 0.415780
O O18 0.102546 0.500000 0.337167
O O19 0.000000 0.407758 0.308716
O O20 0.893558 0.853984 0.500000
O O21 0.000000 0.863706 0.410752
#
# Coordination Sequence:
#
# PCOD8289534 Si02
#       8
#    16  16  16  16  16  16  16  16
#     4  10  19  35  55  78 106 135 181 234 277 323
#     4  10  20  33  50  75 109 145 178 221 274 320
#     4  11  20  34  55  78 107 142 180 227 277 330
#     4   9  18  31  48  72 102 139 179 213 252 310
#     4  10  20  35  56  80 102 139 182 230 282 333
#     4  10  20  36  58  81 108 147 189 227 274 336
#     4  10  22  38  56  82 116 149 185 236 291 339
#     4  10  21  36  54  80 112 145 183 226 277 341
#
# _framework density 17.868133
#
# number of rings (size 3 to 8) (size 9 to 14) (size 15 to 20)
#    0.000    2.000    2.500    1.500    0.000    2.750 
#    0.000    2.500    0.000    1.500    0.000    0.000 
#    0.000    0.000    0.000    8.250    0.000    0.125 
#
# Total GULP energy -792976.308025 kJ/mol
# GULP energy per Si atom -12390.254813 kJ/mol
# Density = 1.782746 g / cm^3
# Si number density = 17.868133 Si / 1000 Ang^3
#
#
#
# Elastic Constant Matrix: (Units=GPa)
#
#
# Indices 1 2 3 4 5 6 
#
# 1 84.9276 37.0918 62.4052 0.0000 0.0000 0.0000
# 2 37.0918 77.8865 50.1641 0.0000 0.0000 0.0000
# 3 62.4052 50.1641 122.3882 0.0000 0.0000 0.0000
# 4 0.0000 0.0000 0.0000 11.9018 0.0000 0.0000
# 5 0.0000 0.0000 0.0000 0.0000 28.4131 0.0000
# 6 0.0000 0.0000 0.0000 0.0000 0.0000 22.3683
#
#
#
# Elastic Compliance Matrix: (Units=1/GPa)
#
#
# Indices 1 2 3 4 5 6 
#
# 1 0.019687 -0.003954 -0.008418 0.000000 0.000000 0.000000
# 2 -0.003954 0.018238 -0.005459 0.000000 0.000000 0.000000
# 3 -0.008418 -0.005459 0.014701 0.000000 0.000000 0.000000
# 4 0.000000 0.000000 0.000000 0.084021 0.000000 0.000000
# 5 0.000000 0.000000 0.000000 0.000000 0.035195 0.000000
# 6 0.000000 0.000000 0.000000 0.000000 0.000000 0.044706
#
#
# Mechanical properties :
#
#
# Convention : Reuss Voigt Hill
#
# Bulk Modulus (GPa) = 58.94884 64.94717 61.94801
# Shear Modulus (GPa) = 19.39002 21.57272 20.48137
#
# Velocity S-wave (km/s) = 3.29777 3.47843 3.38931
# Velocity P-wave (km/s) = 6.89660 7.24980 7.07540
#
# Compressibility (1/GPa) = 0.01696386
#
# Stress axis : x y z
#
# Youngs Moduli (GPa) = 50.79514 54.82936 68.02472
#
# Poissons Ratio (x) = 0.21679 0.57261
# Poissons Ratio (y) = 0.20084 0.37137
# Poissons Ratio (z) = 0.42758 0.29934
#
# Static dielectric constant tensor:
#      x y z
#    x 3.388450 0.000000 0.000000 
#    y 0.000000 3.271220 0.000000 
#    z 0.000000 0.000000 3.332080 
# 
# 
# High freq. dielectric constant tensor:
#      x y z
#    x 1.695230 0.000000 0.000000 
#    y 0.000000 1.675920 0.000000 
#    z 0.000000 0.000000 1.691040 
# 
# From -- ./inp_files/54463.got.cif
#   From: 2010.06.25/outbox.cif.g09.slc.cpg/sg71_28_cif.got.tgz:54463.got - 2010.06.28 04:59:45.
