data_PCOD8289807
_publ_section_title
;
Structure prediction by ZEFSAII (Michael W. Deem and Ramdas Pophale) SiO2 
 PCOD8289807
Probable space group: I M M M
;
_chemical_formula_sum "Si O2"
_cell_formula_units_Z 112
_cell_length_a 27.429048
_cell_length_b 25.551665
_cell_length_c 9.655697
_cell_angle_alpha 90.000000
_cell_angle_beta 90.000000
_cell_angle_gamma 90.000000
_cell_volume 6767.270999
_symmetry_space_group_name_H-M "I M M M"
_symmetry_group_IT_number 71
_symmetry_cell_setting 'orthorhombic'
loop_
_space_group_symop_operation_xyz
x,y,z
-x,-y,z
x,-y,-z
-x,y,-z
-x,-y,-z
x,y,-z
-x,y,z
x,-y,z
1/2+x,1/2+y,1/2+z
1/2-x,1/2-y,1/2+z
1/2+x,1/2-y,1/2-z
1/2-x,1/2+y,1/2-z
1/2-x,1/2-y,1/2-z
1/2+x,1/2+y,1/2-z
1/2-x,1/2+y,1/2+z
1/2+x,1/2-y,1/2+z
loop_
_atom_site_type_symbol
_atom_site_label
_atom_site_fract_x
_atom_site_fract_y
_atom_site_fract_z
Si Si1 0.370346 0.337612 0.657743
Si Si2 0.669931 0.557257 0.665222
Si Si3 0.621425 0.940057 0.837858
Si Si4 0.773312 0.591804 0.336675
Si Si5 0.942568 0.637764 0.840764
Si Si6 0.445667 0.255239 0.665194
Si Si7 0.762050 0.202172 0.844230
O O1 0.387132 0.344091 0.500000
O O2 0.365243 0.396305 0.724312
O O3 0.410187 0.299813 0.731140
O O4 0.318703 0.309972 0.668683
O O5 0.672080 0.564093 0.500000
O O6 0.649437 0.500000 0.707930
O O7 0.725256 0.562721 0.723804
O O8 0.676389 0.931960 0.778769
O O9 0.584696 0.903380 0.755551
O O10 0.606062 0.000000 0.812948
O O11 0.618736 0.925439 0.000000
O O12 0.772428 0.584231 0.500000
O O13 0.770270 0.652851 0.296141
O O14 0.929164 0.696734 0.790302
O O15 0.000000 0.628527 0.825026
O O16 0.926572 0.629224 0.000000
O O17 0.444779 0.256662 0.500000
O O18 0.500000 0.267089 0.720373
O O19 0.750000 0.250000 0.750000
O O20 0.748486 0.217676 0.000000
#
# Coordination Sequence:
#
# PCOD8289807 Si02
#       7
#    16  16  16  16  16  16  16
#     4   8  14  23  37  59  82 106 139 175 208 245
#     4   8  12  20  36  56  81 113 144 172 202 242
#     4  10  20  32  47  66  86 111 143 178 218 261
#     4   8  15  27  40  58  85 113 140 171 208 250
#     4   9  19  34  49  64  82 109 145 181 219 262
#     4   8  14  26  43  60  79 106 141 178 214 253
#     4   9  17  27  40  61  88 114 139 170 210 252
#
# _framework density 16.550246000000001
#
# number of rings (size 3 to 8) (size 9 to 14) (size 15 to 20)
#    0.000    3.429    0.000    3.000    2.000    2.571 
#    0.000    1.429    0.000    0.429    0.000    3.000 
#    0.000    5.143    0.000    0.000    0.000    0.000 
#
# Total GULP energy -693778.905038 kJ/mol
# GULP energy per Si atom -12388.909019 kJ/mol
# Density = 1.651258 g / cm^3
# Si number density = 16.550246 Si / 1000 Ang^3
#
#
#
# Elastic Constant Matrix: (Units=GPa)
#
#
# Indices 1 2 3 4 5 6 
#
# 1 72.6509 67.9611 20.6751 0.0000 0.0000 0.0000
# 2 67.9611 156.0036 38.2804 0.0000 0.0000 0.0000
# 3 20.6751 38.2804 24.9733 0.0000 0.0000 0.0000
# 4 0.0000 0.0000 0.0000 16.0425 0.0000 0.0000
# 5 0.0000 0.0000 0.0000 0.0000 12.8682 0.0000
# 6 0.0000 0.0000 0.0000 0.0000 0.0000 28.5465
#
#
#
# Elastic Compliance Matrix: (Units=1/GPa)
#
#
# Indices 1 2 3 4 5 6 
#
# 1 0.023799 -0.008869 -0.006108 0.000000 0.000000 0.000000
# 2 -0.008869 0.013580 -0.013473 0.000000 0.000000 0.000000
# 3 -0.006108 -0.013473 0.065752 0.000000 0.000000 0.000000
# 4 0.000000 0.000000 0.000000 0.062335 0.000000 0.000000
# 5 0.000000 0.000000 0.000000 0.000000 0.077711 0.000000
# 6 0.000000 0.000000 0.000000 0.000000 0.000000 0.035031
#
#
# Mechanical properties :
#
#
# Convention : Reuss Voigt Hill
#
# Bulk Modulus (GPa) = 21.63085 56.38455 39.00770
# Shear Modulus (GPa) = 14.26455 19.93885 17.10170
#
# Velocity S-wave (km/s) = 2.93899 3.47471 3.21802
# Velocity P-wave (km/s) = 4.96135 7.08808 6.11784
#
# Compressibility (1/GPa) = 0.04623027
#
# Stress axis : x y z
#
# Youngs Moduli (GPa) = 42.01812 73.63803 15.20857
#
# Poissons Ratio (x) = 0.65310 0.09290
# Poissons Ratio (y) = 0.37266 0.20491
# Poissons Ratio (z) = 0.25665 0.99216
#
# Static dielectric constant tensor:
#      x y z
#    x 3.805210 0.000000 0.000000 
#    y 0.000000 3.151510 0.000000 
#    z 0.000000 0.000000 2.566600 
# 
# 
# High freq. dielectric constant tensor:
#      x y z
#    x 1.627940 0.000000 0.000000 
#    y 0.000000 1.652990 0.000000 
#    z 0.000000 0.000000 1.569270 
# 
# From -- ./inp_files/29225.got.cif
#   From: 2010.06.25/outbox.cif.g09.slc.cpg/sg71_15_cif.got.tgz:29225.got - 2010.06.28 04:59:45.
