data_PCOD8289054
_publ_section_title
;
Structure prediction by ZEFSAII (Michael W. Deem and Ramdas Pophale) SiO2 
 PCOD8289054
Probable space group: I M M M
;
_chemical_formula_sum "Si O2"
_cell_formula_units_Z 72
_cell_length_a 23.821904
_cell_length_b 11.273033
_cell_length_c 15.199544
_cell_angle_alpha 90.000000
_cell_angle_beta 90.000000
_cell_angle_gamma 90.000000
_cell_volume 4081.763214
_symmetry_space_group_name_H-M "I M M M"
_symmetry_group_IT_number 71
_symmetry_cell_setting 'orthorhombic'
loop_
_space_group_symop_operation_xyz
x,y,z
-x,-y,z
x,-y,-z
-x,y,-z
-x,-y,-z
x,y,-z
-x,y,z
x,-y,z
1/2+x,1/2+y,1/2+z
1/2-x,1/2-y,1/2+z
1/2+x,1/2-y,1/2-z
1/2-x,1/2+y,1/2-z
1/2-x,1/2-y,1/2-z
1/2+x,1/2+y,1/2-z
1/2-x,1/2+y,1/2+z
1/2+x,1/2-y,1/2+z
loop_
_atom_site_type_symbol
_atom_site_label
_atom_site_fract_x
_atom_site_fract_y
_atom_site_fract_z
Si Si1 0.611547 0.757176 0.848609
Si Si2 0.182948 0.141398 0.500000
Si Si3 0.688503 0.139717 0.500000
Si Si4 0.439169 0.000000 0.900391
Si Si5 0.119732 0.358445 0.831484
Si Si6 0.500000 0.138860 0.403033
Si Si7 0.000000 0.139441 0.399839
O O1 0.598467 0.888055 0.880537
O O2 0.637561 0.776078 0.751271
O O3 0.554654 0.681184 0.847442
O O4 0.655998 0.693610 0.911704
O O5 0.247441 0.181558 0.500000
O O6 0.175274 0.000000 0.500000
O O7 0.657718 0.186184 0.587525
O O8 0.683148 0.000000 0.500000
O O9 0.500000 0.000000 0.848661
O O10 0.455944 0.000000 0.000000
O O11 0.126513 0.500000 0.812762
O O12 0.055192 0.324417 0.849657
O O13 0.500000 0.199311 0.500000
O O14 0.500000 0.000000 0.418408
O O15 0.000000 0.191939 0.500000
O O16 0.000000 0.000000 0.404597
#
# Coordination Sequence:
#
# PCOD8289054 Si02
#       7
#    16   8   8   8  16   8   8
#     4  12  21  33  55  84 112 144 177 223 280 327
#     4  11  24  40  55  73 105 152 200 231 258 315
#     4   9  20  39  56  75 108 147 187 231 273 318
#     4  11  20  32  48  81 123 143 163 210 286 346
#     4  10  19  32  54  85 116 141 171 222 282 336
#     4   9  15  26  48  79 114 142 163 199 268 339
#     4  11  21  35  53  80 114 151 188 216 256 326
#
# _framework density 17.639434999999999
#
# number of rings (size 3 to 8) (size 9 to 14) (size 15 to 20)
#    0.000    1.444    5.556    1.333    0.000    0.889 
#    0.000    0.000    0.000    0.000    2.889    0.778 
#    0.000    0.000    0.000    0.000    0.000    0.000 
#
# Total GULP energy -446233.518177 kJ/mol
# GULP energy per Si atom -12395.375505 kJ/mol
# Density = 1.759929 g / cm^3
# Si number density = 17.639435 Si / 1000 Ang^3
#
#
#
# Elastic Constant Matrix: (Units=GPa)
#
#
# Indices 1 2 3 4 5 6 
#
# 1 134.5987 36.8843 67.7701 0.0000 0.0000 0.0000
# 2 36.8843 66.5727 38.1472 0.0000 0.0000 0.0000
# 3 67.7701 38.1472 153.7150 0.0000 0.0000 0.0000
# 4 0.0000 0.0000 0.0000 12.3245 0.0000 0.0000
# 5 0.0000 0.0000 0.0000 0.0000 14.1169 0.0000
# 6 0.0000 0.0000 0.0000 0.0000 0.0000 15.7878
#
#
#
# Elastic Compliance Matrix: (Units=1/GPa)
#
#
# Indices 1 2 3 4 5 6 
#
# 1 0.010239 -0.003598 -0.003621 0.000000 0.000000 0.000000
# 2 -0.003598 0.018776 -0.003073 0.000000 0.000000 0.000000
# 3 -0.003621 -0.003073 0.008865 0.000000 0.000000 0.000000
# 4 0.000000 0.000000 0.000000 0.081139 0.000000 0.000000
# 5 0.000000 0.000000 0.000000 0.000000 0.070837 0.000000
# 6 0.000000 0.000000 0.000000 0.000000 0.000000 0.063340
#
#
# Mechanical properties :
#
#
# Convention : Reuss Voigt Hill
#
# Bulk Modulus (GPa) = 57.82185 71.16554 64.49369
# Shear Modulus (GPa) = 17.88623 22.58481 20.23552
#
# Velocity S-wave (km/s) = 3.18778 3.58209 3.39067
# Velocity P-wave (km/s) = 6.81177 7.58556 7.20905
#
# Compressibility (1/GPa) = 0.01729450
#
# Stress axis : x y z
#
# Youngs Moduli (GPa) = 97.66935 53.26082 112.80610
#
# Poissons Ratio (x) = 0.19161 0.40849
# Poissons Ratio (y) = 0.35138 0.34669
# Poissons Ratio (z) = 0.35368 0.16369
#
# Static dielectric constant tensor:
#      x y z
#    x 3.423080 0.000000 0.000000 
#    y 0.000000 3.012980 0.000000 
#    z 0.000000 0.000000 3.590380 
# 
# 
# High freq. dielectric constant tensor:
#      x y z
#    x 1.675590 0.000000 0.000000 
#    y 0.000000 1.648170 0.000000 
#    z 0.000000 0.000000 1.693050 
# 
# From -- ./inp_files/47015.got.cif
#   From: 2010.06.25/outbox.cif.g09.slc.cpg/sg71_24_cif.got.tgz:47015.got - 2010.06.28 04:59:45.
