data_PCOD8289024
_publ_section_title
;
Structure prediction by ZEFSAII (Michael W. Deem and Ramdas Pophale) SiO2 
 PCOD8289024
Probable space group: I M M M
;
_chemical_formula_sum "Si O2"
_cell_formula_units_Z 88
_cell_length_a 14.570705
_cell_length_b 14.213048
_cell_length_c 23.611719
_cell_angle_alpha 90.000000
_cell_angle_beta 90.000000
_cell_angle_gamma 90.000000
_cell_volume 4889.848394
_symmetry_space_group_name_H-M "I M M M"
_symmetry_group_IT_number 71
_symmetry_cell_setting 'orthorhombic'
loop_
_space_group_symop_operation_xyz
x,y,z
-x,-y,z
x,-y,-z
-x,y,-z
-x,-y,-z
x,y,-z
-x,y,z
x,-y,z
1/2+x,1/2+y,1/2+z
1/2-x,1/2-y,1/2+z
1/2+x,1/2-y,1/2-z
1/2-x,1/2+y,1/2-z
1/2-x,1/2-y,1/2-z
1/2+x,1/2+y,1/2-z
1/2-x,1/2+y,1/2+z
1/2+x,1/2-y,1/2+z
loop_
_atom_site_type_symbol
_atom_site_label
_atom_site_fract_x
_atom_site_fract_y
_atom_site_fract_z
Si Si1 0.500000 0.722812 0.792250
Si Si2 0.804432 0.108055 0.601348
Si Si3 0.500000 0.396639 0.315526
Si Si4 0.298113 0.762931 0.189576
Si Si5 0.319657 0.607742 0.387781
Si Si6 0.500000 0.391722 0.101096
Si Si7 0.104693 0.195492 0.000000
Si Si8 0.333736 0.894712 0.500000
O O1 0.500000 0.686945 0.728626
O O2 0.592744 0.783148 0.802663
O O3 0.500000 0.631074 0.832061
O O4 0.777299 0.165696 0.657037
O O5 0.727686 0.118819 0.554883
O O6 0.903029 0.147151 0.576171
O O7 0.815521 0.000000 0.620740
O O8 0.500000 0.500000 0.286669
O O9 0.586893 0.384068 0.354475
O O10 0.250000 0.750000 0.250000
O O11 0.259805 0.847696 0.151221
O O12 0.292504 0.500000 0.400611
O O13 0.335426 0.662085 0.446586
O O14 0.500000 0.500000 0.088320
O O15 0.093771 0.309701 0.000000
O O16 0.000000 0.154655 0.000000
O O17 0.379128 0.000000 0.500000
#
# Coordination Sequence:
#
# PCOD8289024 Si02
#       8
#     8  16   8  16  16   8   8   8
#     4  10  19  32  53  82 114 149 192 224 275 356
#     4   9  18  32  52  78 108 139 178 224 276 338
#     4  10  19  33  56  88 117 143 187 246 306 350
#     4  11  21  35  56  83 115 155 188 232 289 346
#     4  11  23  38  58  87 118 152 194 249 302 346
#     4   8  15  27  46  76 107 135 168 217 273 323
#     4  12  23  39  63  86 113 148 193 249 301 352
#     4  10  20  35  55  80 112 147 183 221 276 344
#
# _framework density 17.996468
#
# number of rings (size 3 to 8) (size 9 to 14) (size 15 to 20)
#    0.000    1.818    4.545    0.545    0.000    2.364 
#    0.000    2.273    0.000    0.545    0.000    1.273 
#    0.000    0.000    0.000    0.000    0.000    0.000 
#
# Total GULP energy -545153.680704 kJ/mol
# GULP energy per Si atom -12389.856380 kJ/mol
# Density = 1.795551 g / cm^3
# Si number density = 17.996468 Si / 1000 Ang^3
#
#
#
# Elastic Constant Matrix: (Units=GPa)
#
#
# Indices 1 2 3 4 5 6 
#
# 1 97.2025 38.2814 40.1227 0.0000 0.0000 0.0000
# 2 38.2814 102.9476 41.3587 0.0000 0.0000 0.0000
# 3 40.1227 41.3587 93.3906 0.0000 0.0000 0.0000
# 4 0.0000 0.0000 0.0000 27.4869 0.0000 0.0000
# 5 0.0000 0.0000 0.0000 0.0000 167.7104 0.0000
# 6 0.0000 0.0000 0.0000 0.0000 0.0000 26.1328
#
#
#
# Elastic Compliance Matrix: (Units=1/GPa)
#
#
# Indices 1 2 3 4 5 6 
#
# 1 0.013335 -0.003232 -0.004298 0.000000 0.000000 0.000000
# 2 -0.003232 0.012599 -0.004191 0.000000 0.000000 0.000000
# 3 -0.004298 -0.004191 0.014410 0.000000 0.000000 0.000000
# 4 0.000000 0.000000 0.000000 0.036381 0.000000 0.000000
# 5 0.000000 0.000000 0.000000 0.000000 0.005963 0.000000
# 6 0.000000 0.000000 0.000000 0.000000 0.000000 0.038266
#
#
# Mechanical properties :
#
#
# Convention : Reuss Voigt Hill
#
# Bulk Modulus (GPa) = 59.16236 59.22959 59.19598
# Shear Modulus (GPa) = 33.32685 55.85121 44.58903
#
# Velocity S-wave (km/s) = 4.30799 5.57691 4.98300
# Velocity P-wave (km/s) = 7.59545 8.62858 8.12845
#
# Compressibility (1/GPa) = 0.01690264
#
# Stress axis : x y z
#
# Youngs Moduli (GPa) = 74.99307 79.36965 69.39580
#
# Poissons Ratio (x) = 0.25652 0.29823
# Poissons Ratio (y) = 0.24238 0.29085
# Poissons Ratio (z) = 0.32228 0.33265
#
# Static dielectric constant tensor:
#      x y z
#    x 3.519030 0.000000 0.000000 
#    y 0.000000 3.362030 0.000000 
#    z 0.000000 0.000000 3.308520 
# 
# 
# High freq. dielectric constant tensor:
#      x y z
#    x 1.700220 0.000000 0.000000 
#    y 0.000000 1.679490 0.000000 
#    z 0.000000 0.000000 1.699700 
# 
# From -- ./inp_files/22409.got.cif
#   From: 2010.06.25/outbox.cif.g09.slc.cpg/sg71_12_cif.got.tgz:22409.got - 2010.06.28 04:59:45.
