data_PCOD8289912
_publ_section_title
;
Structure prediction by ZEFSAII (Michael W. Deem and Ramdas Pophale) SiO2 
 PCOD8289912
Probable space group: I M M M
;
_chemical_formula_sum "Si O2"
_cell_formula_units_Z 96
_cell_length_a 21.025771
_cell_length_b 9.910139
_cell_length_c 24.425869
_cell_angle_alpha 90.000000
_cell_angle_beta 90.000000
_cell_angle_gamma 90.000000
_cell_volume 5089.577122
_symmetry_space_group_name_H-M "I M M M"
_symmetry_group_IT_number 71
_symmetry_cell_setting 'orthorhombic'
loop_
_space_group_symop_operation_xyz
x,y,z
-x,-y,z
x,-y,-z
-x,y,-z
-x,-y,-z
x,y,-z
-x,y,z
x,-y,z
1/2+x,1/2+y,1/2+z
1/2-x,1/2-y,1/2+z
1/2+x,1/2-y,1/2-z
1/2-x,1/2+y,1/2-z
1/2-x,1/2-y,1/2-z
1/2+x,1/2+y,1/2-z
1/2-x,1/2+y,1/2+z
1/2+x,1/2-y,1/2+z
loop_
_atom_site_type_symbol
_atom_site_label
_atom_site_fract_x
_atom_site_fract_y
_atom_site_fract_z
Si Si1 0.925172 0.350863 0.560428
Si Si2 0.149051 0.847347 0.370019
Si Si3 0.569106 0.657169 0.323637
Si Si4 0.267929 0.152277 0.561373
Si Si5 0.884809 0.846434 0.060419
Si Si6 0.186957 0.156770 0.247783
O O1 0.900895 0.305157 0.500000
O O2 0.897653 0.500000 0.573717
O O3 0.905890 0.247212 0.607312
O O4 0.000000 0.357420 0.560195
O O5 0.215302 0.798916 0.395952
O O6 0.151461 0.833942 0.305303
O O7 0.134192 0.000000 0.388364
O O8 0.500000 0.715890 0.302819
O O9 0.570233 0.500000 0.309770
O O10 0.567951 0.682773 0.389315
O O11 0.633514 0.715560 0.294978
O O12 0.240194 0.161934 0.500000
O O13 0.325929 0.250451 0.569555
O O14 0.290512 0.000000 0.574508
O O15 0.860165 0.000000 0.063563
O O16 0.916342 0.819968 0.000000
O O17 0.250000 0.250000 0.250000
O O18 0.206184 0.000000 0.235036
#
# Coordination Sequence:
#
# PCOD8289912 Si02
#       6
#    16  16  16  16  16  16
#     4   9  19  35  52  72 101 135 169 208 259 317
#     4  10  20  32  49  74  99 128 171 215 255 306
#     4   9  18  33  52  74 102 134 167 208 258 306
#     4   9  17  29  45  67  98 130 156 192 245 298
#     4   9  17  29  48  74  98 123 161 204 245 295
#     4  10  21  36  55  78 104 138 178 219 264 314
#
# _framework density 18.862079000000001
#
# number of rings (size 3 to 8) (size 9 to 14) (size 15 to 20)
#    0.000    2.667    0.000    2.000    0.000    3.667 
#    0.000    5.833    0.000    2.000    0.000    2.333 
#    0.000    0.000    0.000    0.000    0.000    0.000 
#
# Total GULP energy -594719.887049 kJ/mol
# GULP energy per Si atom -12389.997647 kJ/mol
# Density = 1.881915 g / cm^3
# Si number density = 18.862079 Si / 1000 Ang^3
#
#
#
# Elastic Constant Matrix: (Units=GPa)
#
#
# Indices 1 2 3 4 5 6 
#
# 1 97.4202 38.6748 43.0915 0.0000 0.0000 0.0000
# 2 38.6748 62.4076 28.1759 0.0000 0.0000 0.0000
# 3 43.0915 28.1759 89.9376 0.0000 0.0000 0.0000
# 4 0.0000 0.0000 0.0000 18.6384 0.0000 0.0000
# 5 0.0000 0.0000 0.0000 0.0000 20.7320 0.0000
# 6 0.0000 0.0000 0.0000 0.0000 0.0000 25.2680
#
#
#
# Elastic Compliance Matrix: (Units=1/GPa)
#
#
# Indices 1 2 3 4 5 6 
#
# 1 0.015398 -0.007235 -0.005111 0.000000 0.000000 0.000000
# 2 -0.007235 0.022063 -0.003446 0.000000 0.000000 0.000000
# 3 -0.005111 -0.003446 0.014647 0.000000 0.000000 0.000000
# 4 0.000000 0.000000 0.000000 0.053653 0.000000 0.000000
# 5 0.000000 0.000000 0.000000 0.000000 0.048235 0.000000
# 6 0.000000 0.000000 0.000000 0.000000 0.000000 0.039576
#
#
# Mechanical properties :
#
#
# Convention : Reuss Voigt Hill
#
# Bulk Modulus (GPa) = 48.72078 52.18332 50.45205
# Shear Modulus (GPa) = 21.55226 22.24922 21.90074
#
# Velocity S-wave (km/s) = 3.38394 3.43822 3.41119
# Velocity P-wave (km/s) = 6.41515 6.59451 6.50545
#
# Compressibility (1/GPa) = 0.02052512
#
# Stress axis : x y z
#
# Youngs Moduli (GPa) = 64.94529 45.32544 68.27315
#
# Poissons Ratio (x) = 0.32791 0.34894
# Poissons Ratio (y) = 0.46985 0.23524
# Poissons Ratio (z) = 0.33193 0.15617
#
# Static dielectric constant tensor:
#      x y z
#    x 3.314640 0.000000 0.000000 
#    y 0.000000 3.801640 0.000000 
#    z 0.000000 0.000000 3.795440 
# 
# 
# High freq. dielectric constant tensor:
#      x y z
#    x 1.718140 0.000000 0.000000 
#    y 0.000000 1.712400 0.000000 
#    z 0.000000 0.000000 1.742430 
# 
# From -- ./inp_files/63210.got.cif
#   From: 2010.06.25/outbox.cif.g09.slc.cpg/sg71_32_cif.got.tgz:63210.got - 2010.06.28 04:59:45.
