data_PCOD8289870
_publ_section_title
;
Structure prediction by ZEFSAII (Michael W. Deem and Ramdas Pophale) SiO2 
 PCOD8289870
Probable space group: I M M M
;
_chemical_formula_sum "Si O2"
_cell_formula_units_Z 80
_cell_length_a 9.371483
_cell_length_b 18.069306
_cell_length_c 27.026224
_cell_angle_alpha 90.000000
_cell_angle_beta 90.000000
_cell_angle_gamma 90.000000
_cell_volume 4576.517910
_symmetry_space_group_name_H-M "I M M M"
_symmetry_group_IT_number 71
_symmetry_cell_setting 'orthorhombic'
loop_
_space_group_symop_operation_xyz
x,y,z
-x,-y,z
x,-y,-z
-x,y,-z
-x,-y,-z
x,y,-z
-x,y,z
x,-y,z
1/2+x,1/2+y,1/2+z
1/2-x,1/2-y,1/2+z
1/2+x,1/2-y,1/2-z
1/2-x,1/2+y,1/2-z
1/2-x,1/2-y,1/2-z
1/2+x,1/2+y,1/2-z
1/2-x,1/2+y,1/2+z
1/2+x,1/2-y,1/2+z
loop_
_atom_site_type_symbol
_atom_site_label
_atom_site_fract_x
_atom_site_fract_y
_atom_site_fract_z
Si Si1 0.838258 0.644391 0.695553
Si Si2 0.667630 0.583547 0.786768
Si Si3 0.335944 0.280354 0.556260
Si Si4 0.836158 0.416615 0.590299
Si Si5 0.665481 0.708144 0.860285
O O1 0.735756 0.620226 0.739012
O O2 0.812689 0.590682 0.649030
O O3 0.801076 0.728056 0.679675
O O4 0.000000 0.638554 0.714799
O O5 0.500000 0.585647 0.777669
O O6 0.723452 0.500000 0.794532
O O7 0.707420 0.629881 0.835887
O O8 0.322419 0.252707 0.500000
O O9 0.500000 0.287134 0.572685
O O10 0.264746 0.361032 0.560712
O O11 0.258689 0.219766 0.590582
O O12 0.797984 0.500000 0.574152
O O13 0.000000 0.397225 0.577236
O O14 0.500000 0.711518 0.875952
#
# Coordination Sequence:
#
# PCOD8289870 Si02
#       5
#    16  16  16  16  16
#     4   9  17  30  48  70  98 132 166 194 223 269
#     4  10  20  32  48  73 102 128 157 197 242 285
#     4  10  21  35  51  72  95 120 157 206 252 290
#     4   9  18  32  49  71 101 135 168 198 229 275
#     4   9  19  35  52  70  95 128 164 199 235 284
#
# _framework density 17.480539
#
# number of rings (size 3 to 8) (size 9 to 14) (size 15 to 20)
#    0.000    2.600    0.000    3.000    0.000    7.600 
#    0.000    2.000    0.000    0.600    0.000    4.200 
#    0.000    0.000    0.000    0.000    0.000    0.000 
#
# Total GULP energy -496024.972206 kJ/mol
# GULP energy per Si atom -12400.624305 kJ/mol
# Density = 1.744075 g / cm^3
# Si number density = 17.480539 Si / 1000 Ang^3
#
#
#
# Elastic Constant Matrix: (Units=GPa)
#
#
# Indices 1 2 3 4 5 6 
#
# 1 78.1328 40.6411 56.7361 0.0000 0.0000 0.0000
# 2 40.6411 82.9861 50.7867 0.0000 0.0000 0.0000
# 3 56.7361 50.7867 94.8821 0.0000 0.0000 0.0000
# 4 0.0000 0.0000 0.0000 10.9414 0.0000 0.0000
# 5 0.0000 0.0000 0.0000 0.0000 32.0929 0.0000
# 6 0.0000 0.0000 0.0000 0.0000 0.0000 16.3168
#
#
#
# Elastic Compliance Matrix: (Units=1/GPa)
#
#
# Indices 1 2 3 4 5 6 
#
# 1 0.023632 -0.004350 -0.011802 0.000000 0.000000 0.000000
# 2 -0.004350 0.018721 -0.007419 0.000000 0.000000 0.000000
# 3 -0.011802 -0.007419 0.021568 0.000000 0.000000 0.000000
# 4 0.000000 0.000000 0.000000 0.091396 0.000000 0.000000
# 5 0.000000 0.000000 0.000000 0.000000 0.031160 0.000000
# 6 0.000000 0.000000 0.000000 0.000000 0.000000 0.061286
#
#
# Mechanical properties :
#
#
# Convention : Reuss Voigt Hill
#
# Bulk Modulus (GPa) = 59.60570 61.36987 60.48778
# Shear Modulus (GPa) = 16.63890 19.05935 17.84913
#
# Velocity S-wave (km/s) = 3.08856 3.30558 3.19891
# Velocity P-wave (km/s) = 6.84772 7.05357 6.95141
#
# Compressibility (1/GPa) = 0.01677692
#
# Stress axis : x y z
#
# Youngs Moduli (GPa) = 42.31556 53.41485 46.36456
#
# Poissons Ratio (x) = 0.23238 0.54722
# Poissons Ratio (y) = 0.18409 0.34400
# Poissons Ratio (z) = 0.49943 0.39631
#
# Static dielectric constant tensor:
#      x y z
#    x 3.233240 0.000000 0.000000 
#    y 0.000000 3.450730 0.000000 
#    z 0.000000 0.000000 3.080160 
# 
# 
# High freq. dielectric constant tensor:
#      x y z
#    x 1.674930 0.000000 0.000000 
#    y 0.000000 1.666230 0.000000 
#    z 0.000000 0.000000 1.662920 
# 
# From -- ./inp_files/8272.got.cif
#   From: 2010.06.25/outbox.cif.g09.slc.cpg/sg71_5_cif.got.tgz:8272.got - 2010.06.28 04:59:45.
