data_PCOD8289318
_publ_section_title
;
Structure prediction by ZEFSAII (Michael W. Deem and Ramdas Pophale) SiO2 
 PCOD8289318
Probable space group: I M M M
;
_chemical_formula_sum "Si O2"
_cell_formula_units_Z 72
_cell_length_a 23.325209
_cell_length_b 9.015614
_cell_length_c 17.626633
_cell_angle_alpha 90.000000
_cell_angle_beta 90.000000
_cell_angle_gamma 90.000000
_cell_volume 3706.723705
_symmetry_space_group_name_H-M "I M M M"
_symmetry_group_IT_number 71
_symmetry_cell_setting 'orthorhombic'
loop_
_space_group_symop_operation_xyz
x,y,z
-x,-y,z
x,-y,-z
-x,y,-z
-x,-y,-z
x,y,-z
-x,y,z
x,-y,z
1/2+x,1/2+y,1/2+z
1/2-x,1/2-y,1/2+z
1/2+x,1/2-y,1/2-z
1/2-x,1/2+y,1/2-z
1/2-x,1/2-y,1/2-z
1/2+x,1/2+y,1/2-z
1/2-x,1/2+y,1/2+z
1/2+x,1/2-y,1/2+z
loop_
_atom_site_type_symbol
_atom_site_label
_atom_site_fract_x
_atom_site_fract_y
_atom_site_fract_z
Si Si1 0.635310 0.825173 0.643467
Si Si2 0.244729 0.825641 0.087533
Si Si3 0.936069 0.323695 0.000000
Si Si4 0.434037 0.828104 0.792553
Si Si5 0.861955 0.827396 0.587432
O O1 0.696209 0.743653 0.640966
O O2 0.596594 0.765975 0.574321
O O3 0.603673 0.780789 0.720545
O O4 0.645693 0.000000 0.636948
O O5 0.305110 0.758580 0.113772
O O6 0.246997 0.000000 0.100362
O O7 0.232232 0.783453 0.000000
O O8 0.939296 0.500000 0.000000
O O9 0.000000 0.256349 0.000000
O O10 0.500000 0.794296 0.773398
O O11 0.415546 0.731036 0.864456
O O12 0.424917 0.000000 0.812360
O O13 0.876176 0.794227 0.500000
O O14 0.852090 0.000000 0.602324
#
# Coordination Sequence:
#
# PCOD8289318 Si02
#       5
#    16  16   8  16  16
#     4  10  19  33  56  84 115 152 191 231 274 326
#     4  10  20  35  57  85 117 149 186 233 285 337
#     4   9  16  28  51  81 111 149 194 231 264 311
#     4  10  22  39  58  84 117 150 188 233 281 335
#     4  10  22  40  62  85 109 143 189 237 287 343
#
# _framework density 19.424163
#
# number of rings (size 3 to 8) (size 9 to 14) (size 15 to 20)
#    0.000    2.111    1.111    2.000    0.000    7.556 
#    0.000    2.222    0.000    2.667    0.000    0.000 
#    0.000    0.000    0.000    0.000    0.000    0.000 
#
# Total GULP energy -446586.132656 kJ/mol
# GULP energy per Si atom -12405.170352 kJ/mol
# Density = 1.937995 g / cm^3
# Si number density = 19.424163 Si / 1000 Ang^3
#
#
#
# Elastic Constant Matrix: (Units=GPa)
#
#
# Indices 1 2 3 4 5 6 
#
# 1 92.6384 40.7084 49.6582 0.0000 0.0000 0.0000
# 2 40.7084 65.5362 43.4589 0.0000 0.0000 0.0000
# 3 49.6582 43.4589 98.5107 0.0000 0.0000 0.0000
# 4 0.0000 0.0000 0.0000 26.0852 0.0000 0.0000
# 5 0.0000 0.0000 0.0000 0.0000 35.9623 0.0000
# 6 0.0000 0.0000 0.0000 0.0000 0.0000 32.4178
#
#
#
# Elastic Compliance Matrix: (Units=1/GPa)
#
#
# Indices 1 2 3 4 5 6 
#
# 1 0.016672 -0.006761 -0.005422 0.000000 0.000000 0.000000
# 2 -0.006761 0.024310 -0.007317 0.000000 0.000000 0.000000
# 3 -0.005422 -0.007317 0.016112 0.000000 0.000000 0.000000
# 4 0.000000 0.000000 0.000000 0.038336 0.000000 0.000000
# 5 0.000000 0.000000 0.000000 0.000000 0.027807 0.000000
# 6 0.000000 0.000000 0.000000 0.000000 0.000000 0.030847
#
#
# Mechanical properties :
#
#
# Convention : Reuss Voigt Hill
#
# Bulk Modulus (GPa) = 55.26055 58.25960 56.76008
# Shear Modulus (GPa) = 25.11134 27.08370 26.09752
#
# Velocity S-wave (km/s) = 3.59944 3.73812 3.66944
# Velocity P-wave (km/s) = 6.76652 6.97782 6.87298
#
# Compressibility (1/GPa) = 0.01809609
#
# Stress axis : x y z
#
# Youngs Moduli (GPa) = 59.98200 41.13528 62.06590
#
# Poissons Ratio (x) = 0.27810 0.33649
# Poissons Ratio (y) = 0.40551 0.45411
# Poissons Ratio (z) = 0.32519 0.30097
#
# Static dielectric constant tensor:
#      x y z
#    x 3.573160 0.000000 0.000000 
#    y 0.000000 3.329850 0.000000 
#    z 0.000000 0.000000 3.508410 
# 
# 
# High freq. dielectric constant tensor:
#      x y z
#    x 1.764450 0.000000 0.000000 
#    y 0.000000 1.741230 0.000000 
#    z 0.000000 0.000000 1.753900 
# 
# From -- ./inp_files/7991.got.cif
#   From: 2010.06.25/outbox.cif.g09.slc.cpg/sg71_4_cif.got.tgz:7991.got - 2010.06.28 04:59:45.
