data_PCOD8289220
_publ_section_title
;
Structure prediction by ZEFSAII (Michael W. Deem and Ramdas Pophale) SiO2 
 PCOD8289220
Probable space group: I M M M
;
_chemical_formula_sum "Si O2"
_cell_formula_units_Z 64
_cell_length_a 21.001432
_cell_length_b 18.560597
_cell_length_c 8.805941
_cell_angle_alpha 90.000000
_cell_angle_beta 90.000000
_cell_angle_gamma 90.000000
_cell_volume 3432.548015
_symmetry_space_group_name_H-M "I M M M"
_symmetry_group_IT_number 71
_symmetry_cell_setting 'orthorhombic'
loop_
_space_group_symop_operation_xyz
x,y,z
-x,-y,z
x,-y,-z
-x,y,-z
-x,-y,-z
x,y,-z
-x,y,z
x,-y,z
1/2+x,1/2+y,1/2+z
1/2-x,1/2-y,1/2+z
1/2+x,1/2-y,1/2-z
1/2-x,1/2+y,1/2-z
1/2-x,1/2-y,1/2-z
1/2+x,1/2+y,1/2-z
1/2-x,1/2+y,1/2+z
1/2+x,1/2-y,1/2+z
loop_
_atom_site_type_symbol
_atom_site_label
_atom_site_fract_x
_atom_site_fract_y
_atom_site_fract_z
Si Si1 0.000000 0.084942 0.175126
Si Si2 0.000000 0.581025 0.318169
Si Si3 0.255514 0.327703 0.322089
Si Si4 0.883619 0.672894 0.322476
Si Si5 0.381747 0.663365 0.180182
O O1 0.937777 0.115417 0.255215
O O2 0.000000 0.000000 0.196023
O O3 0.000000 0.107869 0.000000
O O4 0.937877 0.621871 0.251677
O O5 0.000000 0.500000 0.254080
O O6 0.000000 0.580013 0.500000
O O7 0.269593 0.322178 0.500000
O O8 0.250000 0.250000 0.250000
O O9 0.185912 0.363398 0.291434
O O10 0.314205 0.368946 0.241473
O O11 0.895946 0.679371 0.500000
O O12 0.889173 0.754504 0.258374
O O13 0.382104 0.659094 0.000000
#
# Coordination Sequence:
#
# PCOD8289220 Si02
#       5
#     8   8  16  16  16
#     4  11  24  39  53  73 102 131 162 208 262 315
#     4   9  15  24  40  64  96 131 164 196 234 283
#     4   9  16  28  47  73 104 132 165 211 257 300
#     4   8  15  27  45  71 100 131 166 205 247 288
#     4  10  19  33  54  75  98 130 167 208 253 305
#
# _framework density 18.645040000000002
#
# number of rings (size 3 to 8) (size 9 to 14) (size 15 to 20)
#    0.000    2.750    0.000    4.125    0.000    3.000 
#    0.000    1.250    0.000    4.500    0.000    0.000 
#    0.000   82.000    0.000    0.000    0.000    0.000 
#
# Total GULP energy -396517.005542 kJ/mol
# GULP energy per Si atom -12391.156423 kJ/mol
# Density = 1.860260 g / cm^3
# Si number density = 18.645040 Si / 1000 Ang^3
#
#
#
# Elastic Constant Matrix: (Units=GPa)
#
#
# Indices 1 2 3 4 5 6 
#
# 1 198.3687 59.2989 59.5708 0.0000 0.0000 0.0000
# 2 59.2989 66.6636 29.5130 0.0000 0.0000 0.0000
# 3 59.5708 29.5130 78.8764 0.0000 0.0000 0.0000
# 4 0.0000 0.0000 0.0000 16.4897 0.0000 0.0000
# 5 0.0000 0.0000 0.0000 0.0000 26.0221 0.0000
# 6 0.0000 0.0000 0.0000 0.0000 0.0000 0.1053
#
#
#
# Elastic Compliance Matrix: (Units=1/GPa)
#
#
# Indices 1 2 3 4 5 6 
#
# 1 0.007767 -0.005168 -0.003932 0.000000 0.000000 0.000000
# 2 -0.005168 0.021418 -0.004111 0.000000 0.000000 0.000000
# 3 -0.003932 -0.004111 0.017186 0.000000 0.000000 0.000000
# 4 0.000000 0.000000 0.000000 0.060644 0.000000 0.000000
# 5 0.000000 0.000000 0.000000 0.000000 0.038429 0.000000
# 6 0.000000 0.000000 0.000000 0.000000 0.000000 9.498965
#
#
# Mechanical properties :
#
#
# Convention : Reuss Voigt Hill
#
# Bulk Modulus (GPa) = 50.12873 71.18603 60.65738
# Shear Modulus (GPa) = 0.51666 21.55848 11.03757
#
# Velocity S-wave (km/s) = 0.52698 3.40407 2.43571
# Velocity P-wave (km/s) = 5.22632 7.32890 6.36503
#
# Compressibility (1/GPa) = 0.01994864
#
# Stress axis : x y z
#
# Youngs Moduli (GPa) = 128.75278 46.69063 58.18729
#
# Poissons Ratio (x) = 0.24129 0.22880
# Poissons Ratio (y) = 0.66539 0.23919
# Poissons Ratio (z) = 0.50628 0.19193
#
# Static dielectric constant tensor:
#      x y z
#    x 4.299440 0.000000 0.000000 
#    y 0.000000 3.228050 0.000000 
#    z 0.000000 0.000000 3.289920 
# 
# 
# High freq. dielectric constant tensor:
#      x y z
#    x 1.753700 0.000000 0.000000 
#    y 0.000000 1.681020 0.000000 
#    z 0.000000 0.000000 1.698790 
# 
# From -- ./inp_files/9531.got.cif
#   From: 2010.06.25/outbox.cif.g09.slc.cpg/sg71_5_cif.got.tgz:9531.got - 2010.06.28 04:59:45.
