data_PCOD8289799
_publ_section_title
;
Structure prediction by ZEFSAII (Michael W. Deem and Ramdas Pophale) SiO2 
 PCOD8289799
Probable space group: I M M M
;
_chemical_formula_sum "Si O2"
_cell_formula_units_Z 104
_cell_length_a 27.986680
_cell_length_b 24.280311
_cell_length_c 9.058344
_cell_angle_alpha 90.000000
_cell_angle_beta 90.000000
_cell_angle_gamma 90.000000
_cell_volume 6155.373872
_symmetry_space_group_name_H-M "I M M M"
_symmetry_group_IT_number 71
_symmetry_cell_setting 'orthorhombic'
loop_
_space_group_symop_operation_xyz
x,y,z
-x,-y,z
x,-y,-z
-x,y,-z
-x,-y,-z
x,y,-z
-x,y,z
x,-y,z
1/2+x,1/2+y,1/2+z
1/2-x,1/2-y,1/2+z
1/2+x,1/2-y,1/2-z
1/2-x,1/2+y,1/2-z
1/2-x,1/2-y,1/2-z
1/2+x,1/2+y,1/2-z
1/2-x,1/2+y,1/2+z
1/2+x,1/2-y,1/2+z
loop_
_atom_site_type_symbol
_atom_site_label
_atom_site_fract_x
_atom_site_fract_y
_atom_site_fract_z
Si Si1 0.500000 0.065208 0.668845
Si Si2 0.443661 0.353594 0.169374
Si Si3 0.409915 0.881842 0.174833
Si Si4 0.771405 0.934660 0.163762
Si Si5 0.123505 0.061777 0.825093
Si Si6 0.678585 0.065031 0.330363
Si Si7 0.552702 0.767236 0.174351
O O1 0.500000 0.086127 0.500000
O O2 0.452945 0.085900 0.750177
O O3 0.500000 0.000000 0.674829
O O4 0.500000 0.362023 0.189234
O O5 0.416977 0.398847 0.264075
O O6 0.428859 0.292541 0.229506
O O7 0.428406 0.361090 0.000000
O O8 0.360022 0.904485 0.231363
O O9 0.412243 0.817052 0.218939
O O10 0.413883 0.890365 0.000000
O O11 0.823730 0.916069 0.221993
O O12 0.730655 0.914559 0.276632
O O13 0.771746 0.000000 0.153049
O O14 0.761002 0.910392 0.000000
O O15 0.114892 0.000000 0.763254
O O16 0.120396 0.061026 0.000000
O O17 0.671985 0.081962 0.500000
O O18 0.672369 0.000000 0.308174
O O19 0.500000 0.780066 0.240551
O O20 0.547559 0.762863 0.000000
#
# Coordination Sequence:
#
# PCOD8289799 Si02
#       7
#     8  16  16  16  16  16  16
#     4  11  23  35  45  65 101 133 156 197 254 297
#     4   9  18  32  51  73  99 130 162 198 237 283
#     4  11  20  32  52  71  90 125 169 206 240 290
#     4   8  15  30  50  69  91 124 164 198 231 282
#     4   9  18  32  50  74 104 132 157 193 240 284
#     4  10  20  32  46  69 101 129 154 196 251 294
#     4   8  15  31  51  69  90 120 163 208 243 276
#
# _framework density 16.895804999999999
#
# number of rings (size 3 to 8) (size 9 to 14) (size 15 to 20)
#    0.000    2.692    0.769    3.462    0.000    4.923 
#    0.000    4.615    0.000    0.923    0.000    0.000 
#    0.000    0.000    0.000    0.000    0.000    0.000 
#
# Total GULP energy -644532.723545 kJ/mol
# GULP energy per Si atom -12394.860068 kJ/mol
# Density = 1.685735 g / cm^3
# Si number density = 16.895805 Si / 1000 Ang^3
#
#
#
# Elastic Constant Matrix: (Units=GPa)
#
#
# Indices 1 2 3 4 5 6 
#
# 1 89.2985 50.9704 39.7159 0.0000 0.0000 0.0000
# 2 50.9704 87.1570 39.2913 0.0000 0.0000 0.0000
# 3 39.7159 39.2913 66.5392 0.0000 0.0000 0.0000
# 4 0.0000 0.0000 0.0000 15.1273 0.0000 0.0000
# 5 0.0000 0.0000 0.0000 0.0000 29.8662 0.0000
# 6 0.0000 0.0000 0.0000 0.0000 0.0000 -2.0871
#
#
#
# Elastic Compliance Matrix: (Units=1/GPa)
#
#
# Indices 1 2 3 4 5 6 
#
# 1 0.018604 -0.008005 -0.006377 0.000000 0.000000 0.000000
# 2 -0.008005 0.019080 -0.006489 0.000000 0.000000 0.000000
# 3 -0.006377 -0.006489 0.022667 0.000000 0.000000 0.000000
# 4 0.000000 0.000000 0.000000 0.066105 0.000000 0.000000
# 5 0.000000 0.000000 0.000000 0.000000 0.033483 0.000000
# 6 0.000000 0.000000 0.000000 0.000000 0.000000 -0.479126
#
#
# Mechanical properties :
#
#
# Convention : Reuss Voigt Hill
#
# Bulk Modulus (GPa) = 53.73823 55.88331 54.81077
# Shear Modulus (GPa) = -18.43370 16.11574 -1.15898
#
# Velocity S-wave (km/s) = -3.30665 3.09177 -0.82912
# Velocity P-wave (km/s) = 4.15887 6.77439 5.62088
#
# Compressibility (1/GPa) = 0.01860873
#
# Stress axis : x y z
#
# Youngs Moduli (GPa) = 53.75257 52.41085 44.11696
#
# Poissons Ratio (x) = 0.41953 0.28136
# Poissons Ratio (y) = 0.43027 0.28627
# Poissons Ratio (z) = 0.34281 0.34009
#
# Static dielectric constant tensor:
#      x y z
#    x 3.484860 0.000000 0.000000 
#    y 0.000000 3.196610 0.000000 
#    z 0.000000 0.000000 3.097880 
# 
# 
# High freq. dielectric constant tensor:
#      x y z
#    x 1.649460 0.000000 0.000000 
#    y 0.000000 1.633810 0.000000 
#    z 0.000000 0.000000 1.642820 
# 
# From -- ./inp_files/15246.got.cif
#   From: 2010.06.25/outbox.cif.g09.slc.cpg/sg71_8_cif.got.tgz:15246.got - 2010.06.28 04:59:45.
