data_PCOD8289596
_publ_section_title
;
Structure prediction by ZEFSAII (Michael W. Deem and Ramdas Pophale) SiO2 
 PCOD8289596
Probable space group: I M M M
;
_chemical_formula_sum "Si O2"
_cell_formula_units_Z 88
_cell_length_a 19.584412
_cell_length_b 18.798952
_cell_length_c 12.217397
_cell_angle_alpha 90.000000
_cell_angle_beta 90.000000
_cell_angle_gamma 90.000000
_cell_volume 4498.035329
_symmetry_space_group_name_H-M "I M M M"
_symmetry_group_IT_number 71
_symmetry_cell_setting 'orthorhombic'
loop_
_space_group_symop_operation_xyz
x,y,z
-x,-y,z
x,-y,-z
-x,y,-z
-x,-y,-z
x,y,-z
-x,y,z
x,-y,z
1/2+x,1/2+y,1/2+z
1/2-x,1/2-y,1/2+z
1/2+x,1/2-y,1/2-z
1/2-x,1/2+y,1/2-z
1/2-x,1/2-y,1/2-z
1/2+x,1/2+y,1/2-z
1/2-x,1/2+y,1/2+z
1/2+x,1/2-y,1/2+z
loop_
_atom_site_type_symbol
_atom_site_label
_atom_site_fract_x
_atom_site_fract_y
_atom_site_fract_z
Si Si1 0.925645 0.117207 0.000000
Si Si2 0.920728 0.344204 0.776129
Si Si3 0.423421 0.319951 0.264875
Si Si4 0.420451 0.080089 0.500000
Si Si5 0.206881 0.416771 0.708691
Si Si6 0.279410 0.577747 0.500000
Si Si7 0.179156 0.083304 0.627897
O O1 0.919067 0.165715 0.893608
O O2 0.861153 0.065304 0.000000
O O3 0.000000 0.077398 0.000000
O O4 0.903210 0.262227 0.756706
O O5 0.868833 0.384847 0.696474
O O6 0.000000 0.361265 0.748919
O O7 0.899917 0.372809 0.895872
O O8 0.500000 0.332685 0.221517
O O9 0.376852 0.369950 0.190355
O O10 0.500000 0.066692 0.500000
O O11 0.385838 0.000000 0.500000
O O12 0.198830 0.500000 0.697672
O O13 0.252765 0.383605 0.609854
O O14 0.246464 0.398395 0.821763
O O15 0.246332 0.500000 0.500000
O O16 0.180186 0.103045 0.500000
O O17 0.161252 0.000000 0.646374
#
# Coordination Sequence:
#
# PCOD8289596 Si02
#       7
#     8  16  16   8  16   8  16
#     4  10  19  35  59  84 114 147 185 235 288 346
#     4  10  21  37  56  85 121 156 197 242 290 348
#     4  10  21  38  59  86 118 154 195 243 296 351
#     4   9  17  31  56  88 120 155 194 239 292 346
#     4  10  21  38  60  84 115 152 192 242 296 351
#     4  10  20  38  58  83 113 143 187 241 290 347
#     4  10  22  40  60  86 118 151 194 248 304 363
#
# _framework density 19.564098000000001
#
# number of rings (size 3 to 8) (size 9 to 14) (size 15 to 20)
#    0.000    2.091    1.818    1.091    1.273    4.909 
#    1.636    3.182    0.000    1.636    0.000    0.000 
#    0.000    0.000    0.000    0.000    0.000    0.000 
#
# Total GULP energy -545168.032222 kJ/mol
# GULP energy per Si atom -12390.182551 kJ/mol
# Density = 1.951957 g / cm^3
# Si number density = 19.564098 Si / 1000 Ang^3
#
#
#
# Elastic Constant Matrix: (Units=GPa)
#
#
# Indices 1 2 3 4 5 6 
#
# 1 140.0878 58.0528 68.5652 0.0000 0.0000 0.0000
# 2 58.0528 80.2082 45.8701 0.0000 0.0000 0.0000
# 3 68.5652 45.8701 122.7121 0.0000 0.0000 0.0000
# 4 0.0000 0.0000 0.0000 20.9150 0.0000 0.0000
# 5 0.0000 0.0000 0.0000 0.0000 24.0641 0.0000
# 6 0.0000 0.0000 0.0000 0.0000 0.0000 26.4711
#
#
#
# Elastic Compliance Matrix: (Units=1/GPa)
#
#
# Indices 1 2 3 4 5 6 
#
# 1 0.011750 -0.006041 -0.004307 0.000000 0.000000 0.000000
# 2 -0.006041 0.018963 -0.003713 0.000000 0.000000 0.000000
# 3 -0.004307 -0.003713 0.011944 0.000000 0.000000 0.000000
# 4 0.000000 0.000000 0.000000 0.047813 0.000000 0.000000
# 5 0.000000 0.000000 0.000000 0.000000 0.041556 0.000000
# 6 0.000000 0.000000 0.000000 0.000000 0.000000 0.037777
#
#
# Mechanical properties :
#
#
# Convention : Reuss Voigt Hill
#
# Bulk Modulus (GPa) = 68.80207 76.44269 72.62238
# Shear Modulus (GPa) = 24.65851 25.65805 25.15828
#
# Velocity S-wave (km/s) = 3.55406 3.62537 3.58989
# Velocity P-wave (km/s) = 7.21704 7.52876 7.37455
#
# Compressibility (1/GPa) = 0.01453445
#
# Stress axis : x y z
#
# Youngs Moduli (GPa) = 85.10706 52.73296 83.72633
#
# Poissons Ratio (x) = 0.31857 0.36061
# Poissons Ratio (y) = 0.51414 0.31089
# Poissons Ratio (z) = 0.36656 0.19580
#
# Static dielectric constant tensor:
#      x y z
#    x 3.716560 0.000000 0.000000 
#    y 0.000000 3.384090 0.000000 
#    z 0.000000 0.000000 3.689010 
# 
# 
# High freq. dielectric constant tensor:
#      x y z
#    x 1.768950 0.000000 0.000000 
#    y 0.000000 1.747600 0.000000 
#    z 0.000000 0.000000 1.756720 
# 
# From -- ./inp_files/24009.got.cif
#   From: 2010.06.25/outbox.cif.g09.slc.cpg/sg71_13_cif.got.tgz:24009.got - 2010.06.28 04:59:45.
