data_PCOD8289578
_publ_section_title
;
Structure prediction by ZEFSAII (Michael W. Deem and Ramdas Pophale) SiO2 
 PCOD8289578
Probable space group: I M M M
;
_chemical_formula_sum "Si O2"
_cell_formula_units_Z 104
_cell_length_a 23.644092
_cell_length_b 9.149141
_cell_length_c 25.924503
_cell_angle_alpha 90.000000
_cell_angle_beta 90.000000
_cell_angle_gamma 90.000000
_cell_volume 5608.069672
_symmetry_space_group_name_H-M "I M M M"
_symmetry_group_IT_number 71
_symmetry_cell_setting 'orthorhombic'
loop_
_space_group_symop_operation_xyz
x,y,z
-x,-y,z
x,-y,-z
-x,y,-z
-x,-y,-z
x,y,-z
-x,y,z
x,-y,z
1/2+x,1/2+y,1/2+z
1/2-x,1/2-y,1/2+z
1/2+x,1/2-y,1/2-z
1/2-x,1/2+y,1/2-z
1/2-x,1/2-y,1/2-z
1/2+x,1/2+y,1/2-z
1/2-x,1/2+y,1/2+z
1/2+x,1/2-y,1/2+z
loop_
_atom_site_type_symbol
_atom_site_label
_atom_site_fract_x
_atom_site_fract_y
_atom_site_fract_z
Si Si1 0.935443 0.830075 0.291396
Si Si2 0.744209 0.828385 0.059784
Si Si3 0.064445 0.672159 0.185156
Si Si4 0.630793 0.328204 0.402524
Si Si5 0.062731 0.173947 0.000000
Si Si6 0.561245 0.841531 0.059931
Si Si7 0.145971 0.169227 0.615621
O O1 0.923282 0.733177 0.241692
O O2 0.887222 0.781635 0.332455
O O3 0.000000 0.802656 0.311518
O O4 0.927795 0.000000 0.277385
O O5 0.805460 0.790255 0.082109
O O6 0.702947 0.755382 0.101855
O O7 0.732870 0.000000 0.059697
O O8 0.737633 0.771665 0.000000
O O9 0.073945 0.500000 0.185783
O O10 0.110791 0.743892 0.148081
O O11 0.000000 0.711768 0.168167
O O12 0.622360 0.500000 0.393162
O O13 0.593097 0.267401 0.449188
O O14 0.000000 0.237904 0.000000
O O15 0.064374 0.000000 0.000000
O O16 0.500000 0.810108 0.085268
O O17 0.602482 0.707155 0.070361
O O18 0.584266 0.000000 0.080551
O O19 0.553841 0.853683 0.000000
O O20 0.160949 0.000000 0.616412
#
# Coordination Sequence:
#
# PCOD8289578 Si02
#       7
#    16  16  16  16   8  16  16
#     4   9  19  37  58  79 106 141 182 229 277 326
#     4  10  21  38  57  78 109 149 192 232 269 318
#     4  10  21  36  56  85 117 144 173 216 275 338
#     4  10  19  35  58  83 110 145 187 226 266 316
#     4   9  16  28  53  87 113 135 174 223 264 313
#     4   9  18  32  49  71 101 137 176 220 274 334
#     4  11  22  34  52  79 107 139 184 232 280 330
#
# _framework density 18.544705
#
# number of rings (size 3 to 8) (size 9 to 14) (size 15 to 20)
#    0.000    2.231    0.769    2.769    0.000    6.769 
#    0.000    3.462    0.000    1.385    0.000    0.000 
#    0.000    0.000    0.000    0.000    0.000    0.000 
#
# Total GULP energy -644382.566898 kJ/mol
# GULP energy per Si atom -12391.972440 kJ/mol
# Density = 1.850250 g / cm^3
# Si number density = 18.544705 Si / 1000 Ang^3
#
#
#
# Elastic Constant Matrix: (Units=GPa)
#
#
# Indices 1 2 3 4 5 6 
#
# 1 142.5481 53.6264 75.0008 0.0000 0.0000 0.0000
# 2 53.6264 54.4412 51.6592 0.0000 0.0000 0.0000
# 3 75.0008 51.6592 107.7949 0.0000 0.0000 0.0000
# 4 0.0000 0.0000 0.0000 22.6649 0.0000 0.0000
# 5 0.0000 0.0000 0.0000 0.0000 36.4180 0.0000
# 6 0.0000 0.0000 0.0000 0.0000 0.0000 20.1432
#
#
#
# Elastic Compliance Matrix: (Units=1/GPa)
#
#
# Indices 1 2 3 4 5 6 
#
# 1 0.012527 -0.007462 -0.005139 0.000000 0.000000 0.000000
# 2 -0.007462 0.038133 -0.013083 0.000000 0.000000 0.000000
# 3 -0.005139 -0.013083 0.019123 0.000000 0.000000 0.000000
# 4 0.000000 0.000000 0.000000 0.044121 0.000000 0.000000
# 5 0.000000 0.000000 0.000000 0.000000 0.027459 0.000000
# 6 0.000000 0.000000 0.000000 0.000000 0.000000 0.049645
#
#
# Mechanical properties :
#
#
# Convention : Reuss Voigt Hill
#
# Bulk Modulus (GPa) = 54.30854 73.92857 64.11855
# Shear Modulus (GPa) = 20.11960 24.14507 22.13233
#
# Velocity S-wave (km/s) = 3.29739 3.61223 3.45839
# Velocity P-wave (km/s) = 6.62162 7.57292 7.11319
#
# Compressibility (1/GPa) = 0.01841331
#
# Stress axis : x y z
#
# Youngs Moduli (GPa) = 79.83036 26.22383 52.29429
#
# Poissons Ratio (x) = 0.19569 0.26876
# Poissons Ratio (y) = 0.59571 0.68416
# Poissons Ratio (z) = 0.41029 0.34308
#
# Static dielectric constant tensor:
#      x y z
#    x 3.512090 0.000000 0.000000 
#    y 0.000000 3.314510 0.000000 
#    z 0.000000 0.000000 3.344810 
# 
# 
# High freq. dielectric constant tensor:
#      x y z
#    x 1.722110 0.000000 0.000000 
#    y 0.000000 1.707570 0.000000 
#    z 0.000000 0.000000 1.713910 
# 
# From -- ./inp_files/66804.got.cif
#   From: 2010.06.25/outbox.cif.g09.slc.cpg/sg71_34_cif.got.tgz:66804.got - 2010.06.28 04:59:45.
