data_PCOD8289193
_publ_section_title
;
Structure prediction by ZEFSAII (Michael W. Deem and Ramdas Pophale) SiO2 
 PCOD8289193
Probable space group: I M M M
;
_chemical_formula_sum "Si O2"
_cell_formula_units_Z 104
_cell_length_a 21.391210
_cell_length_b 9.420029
_cell_length_c 28.485569
_cell_angle_alpha 90.000000
_cell_angle_beta 90.000000
_cell_angle_gamma 90.000000
_cell_volume 5740.007898
_symmetry_space_group_name_H-M "I M M M"
_symmetry_group_IT_number 71
_symmetry_cell_setting 'orthorhombic'
loop_
_space_group_symop_operation_xyz
x,y,z
-x,-y,z
x,-y,-z
-x,y,-z
-x,-y,-z
x,y,-z
-x,y,z
x,-y,z
1/2+x,1/2+y,1/2+z
1/2-x,1/2-y,1/2+z
1/2+x,1/2-y,1/2-z
1/2-x,1/2+y,1/2-z
1/2-x,1/2-y,1/2-z
1/2+x,1/2+y,1/2-z
1/2-x,1/2+y,1/2+z
1/2+x,1/2-y,1/2+z
loop_
_atom_site_type_symbol
_atom_site_label
_atom_site_fract_x
_atom_site_fract_y
_atom_site_fract_z
Si Si1 0.185976 0.163967 0.697812
Si Si2 0.263173 0.842445 0.055042
Si Si3 0.853613 0.664182 0.946523
Si Si4 0.500000 0.332737 0.946673
Si Si5 0.129622 0.166239 0.598136
Si Si6 0.172279 0.666618 0.789478
Si Si7 0.431547 0.166838 0.639715
O O1 0.144685 0.201775 0.652298
O O2 0.160042 0.257555 0.740143
O O3 0.259138 0.200620 0.689185
O O4 0.178281 0.000000 0.711568
O O5 0.203657 0.755699 0.073798
O O6 0.325471 0.756681 0.065527
O O7 0.264855 0.000000 0.077998
O O8 0.256870 0.856804 0.000000
O O9 0.833555 0.500000 0.941683
O O10 0.913049 0.699695 0.914156
O O11 0.871513 0.702183 0.000000
O O12 0.500000 0.500000 0.951799
O O13 0.560032 0.284494 0.916315
O O14 0.500000 0.267820 0.000000
O O15 0.140372 0.000000 0.587956
O O16 0.164227 0.500000 0.781243
O O17 0.120516 0.729164 0.825095
O O18 0.500000 0.234885 0.649243
O O19 0.434953 0.000000 0.647733
#
# Coordination Sequence:
#
# PCOD8289193 Si02
#       7
#    16  16  16   8  16  16  16
#     4   9  18  32  51  74  98 124 160 209 256 292
#     4  10  20  32  48  73 103 132 164 206 254 298
#     4   9  17  30  50  75 101 131 168 208 248 292
#     4   9  18  32  51  75 101 131 167 205 248 303
#     4  10  19  33  53  75  99 130 169 210 253 303
#     4   9  17  31  50  71  97 130 165 201 247 301
#     4   9  17  30  49  74 103 133 166 205 248 294
#
# _framework density 18.118441000000001
#
# number of rings (size 3 to 8) (size 9 to 14) (size 15 to 20)
#    0.000    2.692    0.000    1.846    0.000    4.923 
#    1.385    5.769    0.000    2.769    0.000    2.154 
#    0.000    0.000    0.000    0.000    0.000    0.000 
#
# Total GULP energy -644633.714662 kJ/mol
# GULP energy per Si atom -12396.802205 kJ/mol
# Density = 1.807720 g / cm^3
# Si number density = 18.118441 Si / 1000 Ang^3
#
#
#
# Elastic Constant Matrix: (Units=GPa)
#
#
# Indices 1 2 3 4 5 6 
#
# 1 145.6984 34.4238 77.2591 0.0000 0.0000 0.0000
# 2 34.4238 44.6836 29.6990 0.0000 0.0000 0.0000
# 3 77.2591 29.6990 102.9267 0.0000 0.0000 0.0000
# 4 0.0000 0.0000 0.0000 24.7070 0.0000 0.0000
# 5 0.0000 0.0000 0.0000 0.0000 28.3041 0.0000
# 6 0.0000 0.0000 0.0000 0.0000 0.0000 9.0620
#
#
#
# Elastic Compliance Matrix: (Units=1/GPa)
#
#
# Indices 1 2 3 4 5 6 
#
# 1 0.011957 -0.004017 -0.007816 0.000000 0.000000 0.000000
# 2 -0.004017 0.029039 -0.005364 0.000000 0.000000 0.000000
# 3 -0.007816 -0.005364 0.017131 0.000000 0.000000 0.000000
# 4 0.000000 0.000000 0.000000 0.040474 0.000000 0.000000
# 5 0.000000 0.000000 0.000000 0.000000 0.035331 0.000000
# 6 0.000000 0.000000 0.000000 0.000000 0.000000 0.110351
#
#
# Mechanical properties :
#
#
# Convention : Reuss Voigt Hill
#
# Bulk Modulus (GPa) = 42.13585 64.00805 53.07195
# Shear Modulus (GPa) = 17.44662 22.54307 19.99485
#
# Velocity S-wave (km/s) = 3.10646 3.53116 3.32560
# Velocity P-wave (km/s) = 6.01441 7.21316 6.64089
#
# Compressibility (1/GPa) = 0.02373276
#
# Stress axis : x y z
#
# Youngs Moduli (GPa) = 83.63111 34.43615 58.37486
#
# Poissons Ratio (x) = 0.13831 0.45628
# Poissons Ratio (y) = 0.33591 0.31314
# Poissons Ratio (z) = 0.65370 0.18472
#
# Static dielectric constant tensor:
#      x y z
#    x 3.551070 0.000000 0.000000 
#    y 0.000000 3.254760 0.000000 
#    z 0.000000 0.000000 3.336620 
# 
# 
# High freq. dielectric constant tensor:
#      x y z
#    x 1.697710 0.000000 0.000000 
#    y 0.000000 1.673300 0.000000 
#    z 0.000000 0.000000 1.703240 
# 
# From -- ./inp_files/66443.got.cif
#   From: 2010.06.25/outbox.cif.g09.slc.cpg/sg71_34_cif.got.tgz:66443.got - 2010.06.28 04:59:45.
