data_PCOD8289619
_publ_section_title
;
Structure prediction by ZEFSAII (Michael W. Deem and Ramdas Pophale) SiO2 
 PCOD8289619
Probable space group: I M M M
;
_chemical_formula_sum "Si O2"
_cell_formula_units_Z 72
_cell_length_a 22.516444
_cell_length_b 18.850384
_cell_length_c 8.795710
_cell_angle_alpha 90.000000
_cell_angle_beta 90.000000
_cell_angle_gamma 90.000000
_cell_volume 3733.282955
_symmetry_space_group_name_H-M "I M M M"
_symmetry_group_IT_number 71
_symmetry_cell_setting 'orthorhombic'
loop_
_space_group_symop_operation_xyz
x,y,z
-x,-y,z
x,-y,-z
-x,y,-z
-x,-y,-z
x,y,-z
-x,y,z
x,-y,z
1/2+x,1/2+y,1/2+z
1/2-x,1/2-y,1/2+z
1/2+x,1/2-y,1/2-z
1/2-x,1/2+y,1/2-z
1/2-x,1/2-y,1/2-z
1/2+x,1/2+y,1/2-z
1/2-x,1/2+y,1/2+z
1/2+x,1/2-y,1/2+z
loop_
_atom_site_type_symbol
_atom_site_label
_atom_site_fract_x
_atom_site_fract_y
_atom_site_fract_z
Si Si1 0.500000 0.080118 0.680974
Si Si2 0.111005 0.670228 0.178395
Si Si3 0.165788 0.917061 0.324205
Si Si4 0.734263 0.825108 0.178857
Si Si5 0.931517 0.827506 0.822889
O O1 0.500000 0.082466 0.500000
O O2 0.558486 0.120167 0.741013
O O3 0.500000 0.000000 0.743449
O O4 0.170413 0.647792 0.265255
O O5 0.095366 0.751066 0.215999
O O6 0.120966 0.658856 0.000000
O O7 0.177575 0.899782 0.500000
O O8 0.217572 0.883213 0.224330
O O9 0.102215 0.886052 0.275589
O O10 0.164807 0.000000 0.291390
O O11 0.750000 0.750000 0.250000
O O12 0.734352 0.815798 0.000000
O O13 0.000000 0.828924 0.774841
O O14 0.923613 0.844878 0.000000
#
# Coordination Sequence:
#
# PCOD8289619 Si02
#       5
#     8  16  16  16  16
#     4   9  18  34  59  91 126 161 198 242 292 348
#     4  10  19  35  60  90 121 158 204 247 291 350
#     4  11  25  43  62  88 122 159 202 254 308 361
#     4  12  24  39  62  91 121 158 203 250 303 362
#     4  10  20  36  61  90 120 160 205 249 296 359
#
# _framework density 19.285975000000001
#
# number of rings (size 3 to 8) (size 9 to 14) (size 15 to 20)
#    0.000    1.444    3.333    2.667    0.000    3.556 
#    0.000    5.000    0.000    0.667    0.000    0.000 
#    0.000    0.000    0.000    0.000    0.000    0.000 
#
# Total GULP energy -446590.541418 kJ/mol
# GULP energy per Si atom -12405.292817 kJ/mol
# Density = 1.924208 g / cm^3
# Si number density = 19.285975 Si / 1000 Ang^3
#
#
#
# Elastic Constant Matrix: (Units=GPa)
#
#
# Indices 1 2 3 4 5 6 
#
# 1 130.9096 28.2044 45.1164 0.0000 0.0000 0.0000
# 2 28.2044 79.6266 44.7066 0.0000 0.0000 0.0000
# 3 45.1164 44.7066 83.5354 0.0000 0.0000 0.0000
# 4 0.0000 0.0000 0.0000 24.3774 0.0000 0.0000
# 5 0.0000 0.0000 0.0000 0.0000 35.6104 0.0000
# 6 0.0000 0.0000 0.0000 0.0000 0.0000 34.8431
#
#
#
# Elastic Compliance Matrix: (Units=1/GPa)
#
#
# Indices 1 2 3 4 5 6 
#
# 1 0.009412 -0.000686 -0.004716 0.000000 0.000000 0.000000
# 2 -0.000686 0.018003 -0.009265 0.000000 0.000000 0.000000
# 3 -0.004716 -0.009265 0.019476 0.000000 0.000000 0.000000
# 4 0.000000 0.000000 0.000000 0.041022 0.000000 0.000000
# 5 0.000000 0.000000 0.000000 0.000000 0.028082 0.000000
# 6 0.000000 0.000000 0.000000 0.000000 0.000000 0.028700
#
#
# Mechanical properties :
#
#
# Convention : Reuss Voigt Hill
#
# Bulk Modulus (GPa) = 56.95327 58.90294 57.92810
# Shear Modulus (GPa) = 27.79617 30.70247 29.24932
#
# Velocity S-wave (km/s) = 3.80052 3.99426 3.89859
# Velocity P-wave (km/s) = 6.98954 7.20280 7.09697
#
# Compressibility (1/GPa) = 0.01755825
#
# Stress axis : x y z
#
# Youngs Moduli (GPa) = 106.24711 55.54584 51.34432
#
# Poissons Ratio (x) = 0.03810 0.24215
# Poissons Ratio (y) = 0.07287 0.47568
# Poissons Ratio (z) = 0.50109 0.51461
#
# Static dielectric constant tensor:
#      x y z
#    x 3.868560 0.000000 0.000000 
#    y 0.000000 3.540490 0.000000 
#    z 0.000000 0.000000 3.407070 
# 
# 
# High freq. dielectric constant tensor:
#      x y z
#    x 1.770150 0.000000 0.000000 
#    y 0.000000 1.748420 0.000000 
#    z 0.000000 0.000000 1.737120 
# 
# From -- ./inp_files/9915.got.cif
#   From: 2010.06.25/outbox.cif.g09.slc.cpg/sg71_5_cif.got.tgz:9915.got - 2010.06.28 04:59:45.
