data_PCOD8289933
_publ_section_title
;
Structure prediction by ZEFSAII (Michael W. Deem and Ramdas Pophale) SiO2 
 PCOD8289933
Probable space group: I M M M
;
_chemical_formula_sum "Si O2"
_cell_formula_units_Z 104
_cell_length_a 9.268749
_cell_length_b 18.698089
_cell_length_c 32.581215
_cell_angle_alpha 90.000000
_cell_angle_beta 90.000000
_cell_angle_gamma 90.000000
_cell_volume 5646.581747
_symmetry_space_group_name_H-M "I M M M"
_symmetry_group_IT_number 71
_symmetry_cell_setting 'orthorhombic'
loop_
_space_group_symop_operation_xyz
x,y,z
-x,-y,z
x,-y,-z
-x,y,-z
-x,-y,-z
x,y,-z
-x,y,z
x,-y,z
1/2+x,1/2+y,1/2+z
1/2-x,1/2-y,1/2+z
1/2+x,1/2-y,1/2-z
1/2-x,1/2+y,1/2-z
1/2-x,1/2-y,1/2-z
1/2+x,1/2+y,1/2-z
1/2-x,1/2+y,1/2+z
1/2+x,1/2-y,1/2+z
loop_
_atom_site_type_symbol
_atom_site_label
_atom_site_fract_x
_atom_site_fract_y
_atom_site_fract_z
Si Si1 0.162033 0.083068 0.073454
Si Si2 0.830309 0.684912 0.191838
Si Si3 0.665556 0.178440 0.213053
Si Si4 0.342160 0.583880 0.337005
Si Si5 0.663022 0.915243 0.454304
Si Si6 0.170298 0.084445 0.373362
Si Si7 0.660035 0.914189 0.000000
O O1 0.185736 0.118335 0.118058
O O2 0.266003 0.119516 0.040259
O O3 0.000000 0.094772 0.057936
O O4 0.199905 0.000000 0.076213
O O5 0.762660 0.763877 0.188474
O O6 0.801578 0.666001 0.239279
O O7 0.749310 0.628046 0.162927
O O8 0.000000 0.685553 0.180899
O O9 0.500000 0.197717 0.205318
O O10 0.711993 0.103860 0.193006
O O11 0.500000 0.609474 0.320520
O O12 0.344557 0.500000 0.341918
O O13 0.713031 0.888059 0.500000
O O14 0.500000 0.887995 0.445390
O O15 0.768212 0.888922 0.417602
O O16 0.664779 0.000000 0.454826
O O17 0.000000 0.100480 0.372130
O O18 0.201093 0.000000 0.366551
O O19 0.500000 0.885316 0.000000
O O20 0.671451 0.000000 0.000000
#
# Coordination Sequence:
#
# PCOD8289933 Si02
#       7
#    16  16  16  16  16  16   8
#     4   8  14  25  40  59  86 120 155 188 225 276
#     4  10  21  37  55  73  97 132 172 210 250 304
#     4  10  21  36  54  75  98 127 166 212 259 306
#     4   9  18  32  50  73 100 130 164 201 244 297
#     4   8  14  26  45  70 102 139 175 209 247 296
#     4  10  20  32  49  77 110 140 172 214 260 301
#     4   9  15  21  33  57  87 117 149 189 236 277
#
# _framework density 18.418223000000001
#
# number of rings (size 3 to 8) (size 9 to 14) (size 15 to 20)
#    0.000    2.846    0.000    3.000    0.000    5.538 
#    0.000    6.154    0.000    0.000    2.000    0.000 
#    0.000    0.000    0.000    0.000    0.000    0.000 
#
# Total GULP energy -644258.638538 kJ/mol
# GULP energy per Si atom -12389.589203 kJ/mol
# Density = 1.837630 g / cm^3
# Si number density = 18.418223 Si / 1000 Ang^3
#
#
#
# Elastic Constant Matrix: (Units=GPa)
#
#
# Indices 1 2 3 4 5 6 
#
# 1 109.9346 31.9179 75.1925 0.0000 0.0000 0.0000
# 2 31.9179 28.3029 41.7401 0.0000 0.0000 0.0000
# 3 75.1925 41.7401 115.0469 0.0000 0.0000 0.0000
# 4 0.0000 0.0000 0.0000 10.3849 0.0000 0.0000
# 5 0.0000 0.0000 0.0000 0.0000 33.5369 0.0000
# 6 0.0000 0.0000 0.0000 0.0000 0.0000 25.1072
#
#
#
# Elastic Compliance Matrix: (Units=1/GPa)
#
#
# Indices 1 2 3 4 5 6 
#
# 1 0.016904 -0.005957 -0.008887 0.000000 0.000000 0.000000
# 2 -0.005957 0.078092 -0.024439 0.000000 0.000000 0.000000
# 3 -0.008887 -0.024439 0.023367 0.000000 0.000000 0.000000
# 4 0.000000 0.000000 0.000000 0.096294 0.000000 0.000000
# 5 0.000000 0.000000 0.000000 0.000000 0.029818 0.000000
# 6 0.000000 0.000000 0.000000 0.000000 0.000000 0.039829
#
#
# Mechanical properties :
#
#
# Convention : Reuss Voigt Hill
#
# Bulk Modulus (GPa) = 25.12753 61.22060 43.17407
# Shear Modulus (GPa) = 13.29304 20.76806 17.03055
#
# Velocity S-wave (km/s) = 2.68942 3.36159 3.04412
# Velocity P-wave (km/s) = 4.82870 6.95546 5.98727
#
# Compressibility (1/GPa) = 0.03979699
#
# Stress axis : x y z
#
# Youngs Moduli (GPa) = 59.15604 12.80545 42.79493
#
# Poissons Ratio (x) = 0.07628 0.38032
# Poissons Ratio (y) = 0.35240 1.04586
# Poissons Ratio (z) = 0.52573 0.31295
#
# Static dielectric constant tensor:
#      x y z
#    x 3.490210 0.000000 0.000000 
#    y 0.000000 2.934950 0.000000 
#    z 0.000000 0.000000 4.188440 
# 
# 
# High freq. dielectric constant tensor:
#      x y z
#    x 1.719850 0.000000 0.000000 
#    y 0.000000 1.661040 0.000000 
#    z 0.000000 0.000000 1.727110 
# 
# From -- ./inp_files/68231.got.cif
#   From: 2010.06.25/outbox.cif.g09.slc.cpg/sg71_35_cif.got.tgz:68231.got - 2010.06.28 04:59:45.
