data_PCOD8289385
_publ_section_title
;
Structure prediction by ZEFSAII (Michael W. Deem and Ramdas Pophale) SiO2 
 PCOD8289385
Probable space group: I M M M
;
_chemical_formula_sum "Si O2"
_cell_formula_units_Z 88
_cell_length_a 15.191409
_cell_length_b 18.224688
_cell_length_c 16.863394
_cell_angle_alpha 90.000000
_cell_angle_beta 90.000000
_cell_angle_gamma 90.000000
_cell_volume 4668.777160
_symmetry_space_group_name_H-M "I M M M"
_symmetry_group_IT_number 71
_symmetry_cell_setting 'orthorhombic'
loop_
_space_group_symop_operation_xyz
x,y,z
-x,-y,z
x,-y,-z
-x,y,-z
-x,-y,-z
x,y,-z
-x,y,z
x,-y,z
1/2+x,1/2+y,1/2+z
1/2-x,1/2-y,1/2+z
1/2+x,1/2-y,1/2-z
1/2-x,1/2+y,1/2-z
1/2-x,1/2-y,1/2-z
1/2+x,1/2+y,1/2-z
1/2-x,1/2+y,1/2+z
1/2+x,1/2-y,1/2+z
loop_
_atom_site_type_symbol
_atom_site_label
_atom_site_fract_x
_atom_site_fract_y
_atom_site_fract_z
Si Si1 0.900189 0.199143 0.858482
Si Si2 0.099160 0.337105 0.407375
Si Si3 0.809834 0.350510 0.093863
Si Si4 0.172775 0.786775 0.698546
Si Si5 0.097823 0.500000 0.906046
Si Si6 0.765432 0.921200 0.091139
O O1 0.870094 0.280971 0.882649
O O2 0.894138 0.181990 0.764256
O O3 0.840574 0.139171 0.901162
O O4 0.000000 0.188798 0.887100
O O5 0.114415 0.318947 0.500000
O O6 0.115082 0.264377 0.357504
O O7 0.171034 0.394916 0.374391
O O8 0.000000 0.366696 0.392776
O O9 0.717223 0.347181 0.141108
O O10 0.854439 0.425930 0.122834
O O11 0.792135 0.350051 0.000000
O O12 0.250000 0.750000 0.750000
O O13 0.000000 0.500000 0.869557
O O14 0.093035 0.500000 0.000000
O O15 0.790410 0.000000 0.131139
O O16 0.749669 0.935147 0.000000
#
# Coordination Sequence:
#
# PCOD8289385 Si02
#       6
#    16  16  16  16   8  16
#     4  11  22  36  56  80 109 148 188 227 276 326
#     4  10  19  34  58  84 109 141 181 224 274 329
#     4  10  19  34  57  81 110 146 181 221 276 334
#     4  10  19  34  54  78 108 143 182 225 266 320
#     4   9  18  32  52  84 115 135 170 225 277 331
#     4  10  21  37  56  81 113 144 183 232 273 321
#
# _framework density 18.848617000000001
#
# number of rings (size 3 to 8) (size 9 to 14) (size 15 to 20)
#    0.000    1.909    3.636    2.182    0.000    2.909 
#    1.636    2.727    0.000    0.000    0.000    0.000 
#    0.000    5.818    0.000    0.000    0.000    0.000 
#
# Total GULP energy -545182.912098 kJ/mol
# GULP energy per Si atom -12390.520729 kJ/mol
# Density = 1.880572 g / cm^3
# Si number density = 18.848617 Si / 1000 Ang^3
#
#
#
# Elastic Constant Matrix: (Units=GPa)
#
#
# Indices 1 2 3 4 5 6 
#
# 1 99.7413 58.6400 12.6644 0.0000 0.0000 0.0000
# 2 58.6400 129.3243 14.3486 0.0000 0.0000 0.0000
# 3 12.6644 14.3486 56.2140 0.0000 0.0000 0.0000
# 4 0.0000 0.0000 0.0000 3.5251 0.0000 0.0000
# 5 0.0000 0.0000 0.0000 0.0000 26.5717 0.0000
# 6 0.0000 0.0000 0.0000 0.0000 0.0000 13.9477
#
#
#
# Elastic Compliance Matrix: (Units=1/GPa)
#
#
# Indices 1 2 3 4 5 6 
#
# 1 0.013801 -0.006085 -0.001556 0.000000 0.000000 0.000000
# 2 -0.006085 0.010641 -0.001345 0.000000 0.000000 0.000000
# 3 -0.001556 -0.001345 0.018483 0.000000 0.000000 0.000000
# 4 0.000000 0.000000 0.000000 0.283681 0.000000 0.000000
# 5 0.000000 0.000000 0.000000 0.000000 0.037634 0.000000
# 6 0.000000 0.000000 0.000000 0.000000 0.000000 0.071697
#
#
# Mechanical properties :
#
#
# Convention : Reuss Voigt Hill
#
# Bulk Modulus (GPa) = 40.07634 50.73173 45.40403
# Shear Modulus (GPa) = 10.81720 22.11734 16.46727
#
# Velocity S-wave (km/s) = 2.39822 3.42924 2.95898
# Velocity P-wave (km/s) = 5.38303 6.53095 5.98458
#
# Compressibility (1/GPa) = 0.02495238
#
# Stress axis : x y z
#
# Youngs Moduli (GPa) = 72.45765 93.97602 54.10361
#
# Poissons Ratio (x) = 0.57187 0.08418
# Poissons Ratio (y) = 0.44092 0.07278
# Poissons Ratio (z) = 0.11274 0.12641
#
# Static dielectric constant tensor:
#      x y z
#    x 3.614200 0.000000 0.000000 
#    y 0.000000 3.604680 0.000000 
#    z 0.000000 0.000000 3.700490 
# 
# 
# High freq. dielectric constant tensor:
#      x y z
#    x 1.730320 0.000000 0.000000 
#    y 0.000000 1.713870 0.000000 
#    z 0.000000 0.000000 1.731330 
# 
# From -- ./inp_files/44691.got.cif
#   From: 2010.06.25/outbox.cif.g09.slc.cpg/sg71_23_cif.got.tgz:44691.got - 2010.06.28 04:59:45.
