data_PCOD8289844
_publ_section_title
;
Structure prediction by ZEFSAII (Michael W. Deem and Ramdas Pophale) SiO2 
 PCOD8289844
Probable space group: I M M M
;
_chemical_formula_sum "Si O2"
_cell_formula_units_Z 104
_cell_length_a 27.874056
_cell_length_b 8.936626
_cell_length_c 24.066729
_cell_angle_alpha 90.000000
_cell_angle_beta 90.000000
_cell_angle_gamma 90.000000
_cell_volume 5995.022521
_symmetry_space_group_name_H-M "I M M M"
_symmetry_group_IT_number 71
_symmetry_cell_setting 'orthorhombic'
loop_
_space_group_symop_operation_xyz
x,y,z
-x,-y,z
x,-y,-z
-x,y,-z
-x,-y,-z
x,y,-z
-x,y,z
x,-y,z
1/2+x,1/2+y,1/2+z
1/2-x,1/2-y,1/2+z
1/2+x,1/2-y,1/2-z
1/2-x,1/2+y,1/2-z
1/2-x,1/2-y,1/2-z
1/2+x,1/2+y,1/2-z
1/2-x,1/2+y,1/2+z
1/2+x,1/2-y,1/2+z
loop_
_atom_site_type_symbol
_atom_site_label
_atom_site_fract_x
_atom_site_fract_y
_atom_site_fract_z
Si Si1 0.908174 0.177274 0.370717
Si Si2 0.000000 0.177883 0.437900
Si Si3 0.270711 0.834878 0.434218
Si Si4 0.676594 0.172691 0.934851
Si Si5 0.122847 0.674933 0.064316
Si Si6 0.444771 0.176206 0.764007
Si Si7 0.555298 0.673813 0.650297
O O1 0.952959 0.237710 0.406669
O O2 0.859864 0.226400 0.400723
O O3 0.910943 0.248709 0.309891
O O4 0.909095 0.000000 0.365066
O O5 0.000000 0.244823 0.500000
O O6 0.000000 0.000000 0.439810
O O7 0.273170 0.845306 0.500000
O O8 0.230232 0.717282 0.415305
O O9 0.323503 0.784604 0.413748
O O10 0.258009 0.000000 0.410486
O O11 0.668070 0.000000 0.920779
O O12 0.669427 0.206082 0.000000
O O13 0.112444 0.500000 0.073693
O O14 0.085400 0.774089 0.097645
O O15 0.116834 0.717905 0.000000
O O16 0.500000 0.222965 0.774917
O O17 0.427647 0.235466 0.704397
O O18 0.437676 0.000000 0.766001
O O19 0.500000 0.708425 0.636958
O O20 0.564053 0.500000 0.661854
#
# Coordination Sequence:
#
# PCOD8289844 Si02
#       7
#    16   8  16  16  16  16  16
#     4  11  20  32  51  72  99 133 172 215 256 305
#     4   9  18  30  45  69  99 131 166 205 252 303
#     4   8  15  30  51  73  98 131 170 208 247 298
#     4  10  20  32  47  72 104 135 170 212 257 303
#     4   9  18  33  54  80 108 137 169 205 250 302
#     4  10  20  35  54  73  97 130 172 216 258 302
#     4  10  21  35  52  76 106 138 173 209 246 295
#
# _framework density 17.347725000000001
#
# number of rings (size 3 to 8) (size 9 to 14) (size 15 to 20)
#    0.000    2.385    0.769    3.231    0.000    4.308 
#    0.000    3.077    0.000    2.769    0.000    0.000 
#    0.000    0.000    0.000    0.000    0.000    0.000 
#
# Total GULP energy -644841.016916 kJ/mol
# GULP energy per Si atom -12400.788787 kJ/mol
# Density = 1.730824 g / cm^3
# Si number density = 17.347725 Si / 1000 Ang^3
#
#
#
# Elastic Constant Matrix: (Units=GPa)
#
#
# Indices 1 2 3 4 5 6 
#
# 1 96.0026 40.0623 48.1657 0.0000 0.0000 0.0000
# 2 40.0623 75.9900 39.8413 0.0000 0.0000 0.0000
# 3 48.1657 39.8413 81.1740 0.0000 0.0000 0.0000
# 4 0.0000 0.0000 0.0000 29.8769 0.0000 0.0000
# 5 0.0000 0.0000 0.0000 0.0000 8.4956 0.0000
# 6 0.0000 0.0000 0.0000 0.0000 0.0000 29.2042
#
#
#
# Elastic Compliance Matrix: (Units=1/GPa)
#
#
# Indices 1 2 3 4 5 6 
#
# 1 0.015963 -0.004645 -0.007192 0.000000 0.000000 0.000000
# 2 -0.004645 0.019071 -0.006604 0.000000 0.000000 0.000000
# 3 -0.007192 -0.006604 0.019828 0.000000 0.000000 0.000000
# 4 0.000000 0.000000 0.000000 0.033471 0.000000 0.000000
# 5 0.000000 0.000000 0.000000 0.000000 0.117708 0.000000
# 6 0.000000 0.000000 0.000000 0.000000 0.000000 0.034242
#
#
# Mechanical properties :
#
#
# Convention : Reuss Voigt Hill
#
# Bulk Modulus (GPa) = 55.61803 56.58948 56.10376
# Shear Modulus (GPa) = 17.65796 21.85516 19.75656
#
# Velocity S-wave (km/s) = 3.19389 3.55326 3.37836
# Velocity P-wave (km/s) = 6.76251 7.03745 6.90135
#
# Compressibility (1/GPa) = 0.01797978
#
# Stress axis : x y z
#
# Youngs Moduli (GPa) = 62.64430 52.43549 50.43339
#
# Poissons Ratio (x) = 0.24357 0.36272
# Poissons Ratio (y) = 0.29099 0.33307
# Poissons Ratio (z) = 0.45054 0.34629
#
# Static dielectric constant tensor:
#      x y z
#    x 3.309610 0.000000 0.000000 
#    y 0.000000 3.173270 0.000000 
#    z 0.000000 0.000000 3.060160 
# 
# 
# High freq. dielectric constant tensor:
#      x y z
#    x 1.666310 0.000000 0.000000 
#    y 0.000000 1.671990 0.000000 
#    z 0.000000 0.000000 1.649490 
# 
# From -- ./inp_files/62282.got.cif
#   From: 2010.06.25/outbox.cif.g09.slc.cpg/sg71_32_cif.got.tgz:62282.got - 2010.06.28 04:59:45.
