data_PCOD8289206
_publ_section_title
;
Structure prediction by ZEFSAII (Michael W. Deem and Ramdas Pophale) SiO2 
 PCOD8289206
Probable space group: I M M M
;
_chemical_formula_sum "Si O2"
_cell_formula_units_Z 112
_cell_length_a 27.757795
_cell_length_b 14.139615
_cell_length_c 15.443969
_cell_angle_alpha 90.000000
_cell_angle_beta 90.000000
_cell_angle_gamma 90.000000
_cell_volume 6061.518985
_symmetry_space_group_name_H-M "I M M M"
_symmetry_group_IT_number 71
_symmetry_cell_setting 'orthorhombic'
loop_
_space_group_symop_operation_xyz
x,y,z
-x,-y,z
x,-y,-z
-x,y,-z
-x,-y,-z
x,y,-z
-x,y,z
x,-y,z
1/2+x,1/2+y,1/2+z
1/2-x,1/2-y,1/2+z
1/2+x,1/2-y,1/2-z
1/2-x,1/2+y,1/2-z
1/2-x,1/2-y,1/2-z
1/2+x,1/2+y,1/2-z
1/2-x,1/2+y,1/2+z
1/2+x,1/2-y,1/2+z
loop_
_atom_site_type_symbol
_atom_site_label
_atom_site_fract_x
_atom_site_fract_y
_atom_site_fract_z
Si Si1 0.641474 0.219319 0.191315
Si Si2 0.943612 0.000000 0.406706
Si Si3 0.627302 0.888046 0.640840
Si Si4 0.273983 0.891494 0.100491
Si Si5 0.231236 0.611641 0.906344
Si Si6 0.946126 0.387238 0.000000
Si Si7 0.799167 0.110763 0.251080
Si Si8 0.946474 0.798465 0.397156
O O1 0.623034 0.145379 0.261525
O O2 0.684008 0.176811 0.133191
O O3 0.655585 0.318942 0.237868
O O4 0.594583 0.226857 0.131270
O O5 0.931202 0.097989 0.357526
O O6 0.916485 0.000000 0.500000
O O7 0.000000 0.000000 0.424451
O O8 0.677341 0.847803 0.602305
O O9 0.582410 0.849970 0.584519
O O10 0.627671 0.000000 0.638616
O O11 0.226086 0.873589 0.157985
O O12 0.290793 0.000000 0.112592
O O13 0.261770 0.869643 0.000000
O O14 0.229178 0.500000 0.902519
O O15 0.263134 0.646943 0.826688
O O16 0.252340 0.645216 0.000000
O O17 0.948301 0.500000 0.000000
O O18 0.000000 0.344216 0.000000
O O19 0.814260 0.000000 0.263062
O O20 0.947655 0.805836 0.500000
O O21 0.000000 0.767887 0.363952
#
# Coordination Sequence:
#
# PCOD8289206 Si02
#       8
#    16   8  16  16  16   8  16  16
#     4  12  22  33  54  85 106 138 182 230 267 316
#     4   7  12  28  52  72  92 129 169 203 257 322
#     4  10  19  33  53  77 106 141 176 215 267 322
#     4  10  21  38  56  74 107 154 189 219 261 316
#     4   9  16  30  52  74 103 139 169 205 269 330
#     4   9  18  34  56  82 109 137 175 223 275 331
#     4  10  22  38  52  78 115 142 179 231 270 318
#     4   9  19  35  54  76 105 138 173 217 269 323
#
# _framework density 18.477217
#
# number of rings (size 3 to 8) (size 9 to 14) (size 15 to 20)
#    0.000    2.286    2.143    2.143    1.000    1.714 
#    1.286    0.000    0.000    1.286    0.000    5.000 
#    0.000    0.571    0.000    0.000    0.000    0.000 
#
# Total GULP energy -693852.982079 kJ/mol
# GULP energy per Si atom -12390.231823 kJ/mol
# Density = 1.843516 g / cm^3
# Si number density = 18.477217 Si / 1000 Ang^3
#
#
#
# Elastic Constant Matrix: (Units=GPa)
#
#
# Indices 1 2 3 4 5 6 
#
# 1 66.6194 19.5246 24.9349 0.0000 0.0000 0.0000
# 2 19.5246 39.0233 13.0680 0.0000 0.0000 0.0000
# 3 24.9349 13.0680 103.2515 0.0000 0.0000 0.0000
# 4 0.0000 0.0000 0.0000 0.2102 0.0000 0.0000
# 5 0.0000 0.0000 0.0000 0.0000 24.1421 0.0000
# 6 0.0000 0.0000 0.0000 0.0000 0.0000 21.6989
#
#
#
# Elastic Compliance Matrix: (Units=1/GPa)
#
#
# Indices 1 2 3 4 5 6 
#
# 1 0.018717 -0.008198 -0.003482 0.000000 0.000000 0.000000
# 2 -0.008198 0.030351 -0.001861 0.000000 0.000000 0.000000
# 3 -0.003482 -0.001861 0.010762 0.000000 0.000000 0.000000
# 4 0.000000 0.000000 0.000000 4.758045 0.000000 0.000000
# 5 0.000000 0.000000 0.000000 0.000000 0.041421 0.000000
# 6 0.000000 0.000000 0.000000 0.000000 0.000000 0.046085
#
#
# Mechanical properties :
#
#
# Convention : Reuss Voigt Hill
#
# Bulk Modulus (GPa) = 30.53912 35.99433 33.26673
# Shear Modulus (GPa) = 1.01145 19.30135 10.15640
#
# Velocity S-wave (km/s) = 0.74067 3.23554 2.34705
# Velocity P-wave (km/s) = 4.15877 5.78627 5.03866
#
# Compressibility (1/GPa) = 0.03274488
#
# Stress axis : x y z
#
# Youngs Moduli (GPa) = 53.42780 32.94782 92.92226
#
# Poissons Ratio (x) = 0.27012 0.32359
# Poissons Ratio (y) = 0.43802 0.17297
# Poissons Ratio (z) = 0.18606 0.06133
#
# Static dielectric constant tensor:
#      x y z
#    x 3.342380 0.000000 0.000000 
#    y 0.000000 3.532120 0.000000 
#    z 0.000000 0.000000 3.458020 
# 
# 
# High freq. dielectric constant tensor:
#      x y z
#    x 1.697250 0.000000 0.000000 
#    y 0.000000 1.705560 0.000000 
#    z 0.000000 0.000000 1.710040 
# 
# From -- ./inp_files/40396.got.cif
#   From: 2010.06.25/outbox.cif.g09.slc.cpg/sg71_21_cif.got.tgz:40396.got - 2010.06.28 04:59:45.
