data_PCOD8289753
_publ_section_title
;
Structure prediction by ZEFSAII (Michael W. Deem and Ramdas Pophale) SiO2 
 PCOD8289753
Probable space group: I M M M
;
_chemical_formula_sum "Si O2"
_cell_formula_units_Z 120
_cell_length_a 22.568258
_cell_length_b 22.052521
_cell_length_c 14.393373
_cell_angle_alpha 90.000000
_cell_angle_beta 90.000000
_cell_angle_gamma 90.000000
_cell_volume 7163.394390
_symmetry_space_group_name_H-M "I M M M"
_symmetry_group_IT_number 71
_symmetry_cell_setting 'orthorhombic'
loop_
_space_group_symop_operation_xyz
x,y,z
-x,-y,z
x,-y,-z
-x,y,-z
-x,-y,-z
x,y,-z
-x,y,z
x,-y,z
1/2+x,1/2+y,1/2+z
1/2-x,1/2-y,1/2+z
1/2+x,1/2-y,1/2-z
1/2-x,1/2+y,1/2-z
1/2-x,1/2-y,1/2-z
1/2+x,1/2+y,1/2-z
1/2-x,1/2+y,1/2+z
1/2+x,1/2-y,1/2+z
loop_
_atom_site_type_symbol
_atom_site_label
_atom_site_fract_x
_atom_site_fract_y
_atom_site_fract_z
Si Si1 0.700764 0.799710 0.392628
Si Si2 0.565299 0.722267 0.245014
Si Si3 0.000000 0.571744 0.891914
Si Si4 0.139450 0.827533 0.892578
Si Si5 0.841805 0.629775 0.394760
Si Si6 0.097385 0.355434 0.784901
Si Si7 0.277953 0.433149 0.390217
Si Si8 0.169367 0.770471 0.395030
O O1 0.692447 0.817240 0.500000
O O2 0.680049 0.731129 0.374705
O O3 0.662166 0.846418 0.331783
O O4 0.769956 0.803777 0.363228
O O5 0.500000 0.705522 0.207083
O O6 0.579302 0.679989 0.333848
O O7 0.563844 0.791695 0.278776
O O8 0.614210 0.708796 0.166841
O O9 0.941051 0.597974 0.844425
O O10 0.000000 0.500000 0.878919
O O11 0.000000 0.590353 0.000000
O O12 0.173964 0.885783 0.851859
O O13 0.122272 0.834807 0.000000
O O14 0.864464 0.615916 0.500000
O O15 0.894106 0.618516 0.319964
O O16 0.788370 0.586433 0.364873
O O17 0.819393 0.698767 0.387434
O O18 0.284064 0.433547 0.500000
O O19 0.290136 0.500000 0.348220
O O20 0.153719 0.788817 0.500000
#
# Coordination Sequence:
#
# PCOD8289753 Si02
#       8
#    16  16   8  16  16  16  16  16
#     4   9  16  28  48  74  97 124 159 201 250 294
#     4  10  20  31  46  71  96 127 163 197 240 293
#     4  11  24  42  57  69  95 133 171 213 254 291
#     4   9  17  28  44  67  97 125 153 194 241 284
#     4   9  17  29  46  71 103 132 161 196 239 286
#     4  10  20  33  52  72  98 128 168 206 241 290
#     4   9  16  27  44  67  96 128 160 190 228 283
#     4   9  17  29  47  70 101 130 156 197 250 294
#
# _framework density 16.751835
#
# number of rings (size 3 to 8) (size 9 to 14) (size 15 to 20)
#    0.000    2.600    2.000    0.400    1.867    3.200 
#    0.000    0.333    0.000    0.800    0.000    1.867 
#    0.000    0.533    0.000    1.200    0.000    0.133 
#
# Total GULP energy -743743.554807 kJ/mol
# GULP energy per Si atom -12395.725913 kJ/mol
# Density = 1.671371 g / cm^3
# Si number density = 16.751835 Si / 1000 Ang^3
#
#
#
# Elastic Constant Matrix: (Units=GPa)
#
#
# Indices 1 2 3 4 5 6 
#
# 1 125.1927 37.8534 62.0187 0.0000 0.0000 0.0000
# 2 37.8534 64.2258 35.3311 0.0000 0.0000 0.0000
# 3 62.0187 35.3311 91.9270 0.0000 0.0000 0.0000
# 4 0.0000 0.0000 0.0000 13.8289 0.0000 0.0000
# 5 0.0000 0.0000 0.0000 0.0000 26.0277 0.0000
# 6 0.0000 0.0000 0.0000 0.0000 0.0000 16.8902
#
#
#
# Elastic Compliance Matrix: (Units=1/GPa)
#
#
# Indices 1 2 3 4 5 6 
#
# 1 0.012583 -0.003483 -0.007151 0.000000 0.000000 0.000000
# 2 -0.003483 0.020708 -0.005610 0.000000 0.000000 0.000000
# 3 -0.007151 -0.005610 0.017858 0.000000 0.000000 0.000000
# 4 0.000000 0.000000 0.000000 0.072312 0.000000 0.000000
# 5 0.000000 0.000000 0.000000 0.000000 0.038421 0.000000
# 6 0.000000 0.000000 0.000000 0.000000 0.000000 0.059206
#
#
# Mechanical properties :
#
#
# Convention : Reuss Voigt Hill
#
# Bulk Modulus (GPa) = 53.57817 61.30576 57.44197
# Shear Modulus (GPa) = 19.24590 21.09219 20.16904
#
# Velocity S-wave (km/s) = 3.39319 3.55223 3.47362
# Velocity P-wave (km/s) = 6.88510 7.31439 7.10299
#
# Compressibility (1/GPa) = 0.01866432
#
# Stress axis : x y z
#
# Youngs Moduli (GPa) = 79.47221 48.28944 55.99614
#
# Poissons Ratio (x) = 0.16817 0.40041
# Poissons Ratio (y) = 0.27676 0.31411
# Poissons Ratio (z) = 0.56828 0.27088
#
# Static dielectric constant tensor:
#      x y z
#    x 3.047740 0.000000 0.000000 
#    y 0.000000 3.011140 0.000000 
#    z 0.000000 0.000000 3.303090 
# 
# 
# High freq. dielectric constant tensor:
#      x y z
#    x 1.634470 0.000000 0.000000 
#    y 0.000000 1.604880 0.000000 
#    z 0.000000 0.000000 1.646730 
# 
# From -- ./inp_files/38416.got.cif
#   From: 2010.06.25/outbox.cif.g09.slc.cpg/sg71_20_cif.got.tgz:38416.got - 2010.06.28 04:59:45.
