data_PCOD8289473
_publ_section_title
;
Structure prediction by ZEFSAII (Michael W. Deem and Ramdas Pophale) SiO2 
 PCOD8289473
Probable space group: I M M M
;
_chemical_formula_sum "Si O2"
_cell_formula_units_Z 88
_cell_length_a 8.930850
_cell_length_b 19.174712
_cell_length_c 24.927348
_cell_angle_alpha 90.000000
_cell_angle_beta 90.000000
_cell_angle_gamma 90.000000
_cell_volume 4268.720518
_symmetry_space_group_name_H-M "I M M M"
_symmetry_group_IT_number 71
_symmetry_cell_setting 'orthorhombic'
loop_
_space_group_symop_operation_xyz
x,y,z
-x,-y,z
x,-y,-z
-x,y,-z
-x,-y,-z
x,y,-z
-x,y,z
x,-y,z
1/2+x,1/2+y,1/2+z
1/2-x,1/2-y,1/2+z
1/2+x,1/2-y,1/2-z
1/2-x,1/2+y,1/2-z
1/2-x,1/2-y,1/2-z
1/2+x,1/2+y,1/2-z
1/2-x,1/2+y,1/2+z
1/2+x,1/2-y,1/2+z
loop_
_atom_site_type_symbol
_atom_site_label
_atom_site_fract_x
_atom_site_fract_y
_atom_site_fract_z
Si Si1 0.833050 0.000000 0.063424
Si Si2 0.677855 0.297236 0.656845
Si Si3 0.675983 0.655807 0.163756
Si Si4 0.324172 0.422565 0.730587
Si Si5 0.677715 0.421741 0.059327
Si Si6 0.323784 0.139796 0.938298
O O1 0.743734 0.932795 0.083228
O O2 0.000000 0.000000 0.088935
O O3 0.843590 0.000000 0.000000
O O4 0.500000 0.296372 0.654720
O O5 0.737061 0.225339 0.681864
O O6 0.740898 0.362817 0.691216
O O7 0.747097 0.300325 0.596936
O O8 0.500000 0.672844 0.161504
O O9 0.711805 0.597131 0.207959
O O10 0.738604 0.628417 0.106358
O O11 0.500000 0.425457 0.721577
O O12 0.256185 0.500000 0.718516
O O13 0.500000 0.424356 0.063613
O O14 0.741046 0.500000 0.067444
O O15 0.725512 0.393781 0.000000
O O16 0.500000 0.138951 0.929729
O O17 0.281764 0.153654 0.000000
#
# Coordination Sequence:
#
# PCOD8289473 Si02
#       6
#     8  16  16  16  16  16
#     4   9  17  31  53  79 107 141 179 221 274 331
#     4  11  23  36  54  80 113 149 187 235 288 345
#     4  10  19  34  57  81 110 147 184 227 282 339
#     4   9  19  36  58  82 105 138 190 243 287 335
#     4   8  14  26  49  83 114 138 174 224 272 323
#     4  10  21  37  56  79 109 145 188 235 279 328
#
# _framework density 20.615076999999999
#
# number of rings (size 3 to 8) (size 9 to 14) (size 15 to 20)
#    0.000    2.455    0.000    3.000    1.273    5.091 
#    0.000    2.727    0.000    4.364    0.000    1.273 
#    0.000    0.000    0.000    0.000    0.000    0.000 
#
# Total GULP energy -545459.984532 kJ/mol
# GULP energy per Si atom -12396.817830 kJ/mol
# Density = 2.056816 g / cm^3
# Si number density = 20.615077 Si / 1000 Ang^3
#
#
#
# Elastic Constant Matrix: (Units=GPa)
#
#
# Indices 1 2 3 4 5 6 
#
# 1 51.5713 24.6572 24.4501 0.0000 0.0000 0.0000
# 2 24.6572 130.1837 51.9722 0.0000 0.0000 0.0000
# 3 24.4501 51.9722 106.7642 0.0000 0.0000 0.0000
# 4 0.0000 0.0000 0.0000 28.2816 0.0000 0.0000
# 5 0.0000 0.0000 0.0000 0.0000 16.6073 0.0000
# 6 0.0000 0.0000 0.0000 0.0000 0.0000 28.8986
#
#
#
# Elastic Compliance Matrix: (Units=1/GPa)
#
#
# Indices 1 2 3 4 5 6 
#
# 1 0.022512 -0.002738 -0.003823 0.000000 0.000000 0.000000
# 2 -0.002738 0.009867 -0.004176 0.000000 0.000000 0.000000
# 3 -0.003823 -0.004176 0.012275 0.000000 0.000000 0.000000
# 4 0.000000 0.000000 0.000000 0.035359 0.000000 0.000000
# 5 0.000000 0.000000 0.000000 0.000000 0.060214 0.000000
# 6 0.000000 0.000000 0.000000 0.000000 0.000000 0.034604
#
#
# Mechanical properties :
#
#
# Convention : Reuss Voigt Hill
#
# Bulk Modulus (GPa) = 43.13977 54.51979 48.82978
# Shear Modulus (GPa) = 24.50603 27.25349 25.87976
#
# Velocity S-wave (km/s) = 3.45156 3.63990 3.54698
# Velocity P-wave (km/s) = 6.07092 6.64599 6.36495
#
# Compressibility (1/GPa) = 0.02318047
#
# Stress axis : x y z
#
# Youngs Moduli (GPa) = 44.42085 101.34502 81.46687
#
# Poissons Ratio (x) = 0.27745 0.31143
# Poissons Ratio (y) = 0.12161 0.34024
# Poissons Ratio (z) = 0.16981 0.42325
#
# Static dielectric constant tensor:
#      x y z
#    x 3.281420 0.000000 0.000000 
#    y 0.000000 3.899860 0.000000 
#    z 0.000000 0.000000 3.911790 
# 
# 
# High freq. dielectric constant tensor:
#      x y z
#    x 1.758130 0.000000 0.000000 
#    y 0.000000 1.808390 0.000000 
#    z 0.000000 0.000000 1.817570 
# 
# From -- ./inp_files/57577.got.cif
#   From: 2010.06.25/outbox.cif.g09.slc.cpg/sg71_29_cif.got.tgz:57577.got - 2010.06.28 04:59:45.
