data_PCOD8289519
_publ_section_title
;
Structure prediction by ZEFSAII (Michael W. Deem and Ramdas Pophale) SiO2 
 PCOD8289519
Probable space group: I M M M
;
_chemical_formula_sum "Si O2"
_cell_formula_units_Z 60
_cell_length_a 19.086674
_cell_length_b 14.399444
_cell_length_c 10.677069
_cell_angle_alpha 90.000000
_cell_angle_beta 90.000000
_cell_angle_gamma 90.000000
_cell_volume 2934.458881
_symmetry_space_group_name_H-M "I M M M"
_symmetry_group_IT_number 71
_symmetry_cell_setting 'orthorhombic'
loop_
_space_group_symop_operation_xyz
x,y,z
-x,-y,z
x,-y,-z
-x,y,-z
-x,-y,-z
x,y,-z
-x,y,z
x,-y,z
1/2+x,1/2+y,1/2+z
1/2-x,1/2-y,1/2+z
1/2+x,1/2-y,1/2-z
1/2-x,1/2+y,1/2-z
1/2-x,1/2-y,1/2-z
1/2+x,1/2+y,1/2-z
1/2-x,1/2+y,1/2+z
1/2+x,1/2-y,1/2+z
loop_
_atom_site_type_symbol
_atom_site_label
_atom_site_fract_x
_atom_site_fract_y
_atom_site_fract_z
Si Si1 0.707655 0.801836 0.641238
Si Si2 0.248525 0.000000 0.701848
Si Si3 0.874381 0.000000 0.144907
Si Si4 0.921675 0.196838 0.500000
Si Si5 0.918445 0.200375 0.772326
Si Si6 0.871149 0.000000 0.500000
O O1 0.740395 0.790159 0.500000
O O2 0.750000 0.750000 0.750000
O O3 0.703919 0.910497 0.675740
O O4 0.628873 0.761182 0.634116
O O5 0.211219 0.000000 0.838876
O O6 0.178525 0.000000 0.619829
O O7 0.909068 0.091039 0.205794
O O8 0.892526 0.000000 0.000000
O O9 0.888413 0.228644 0.632623
O O10 0.922903 0.085996 0.500000
O O11 0.000000 0.234547 0.500000
O O12 0.000000 0.226438 0.789521
#
# Coordination Sequence:
#
# PCOD8289519 Si02
#       6
#    16   8   8   8  16   4
#     4  12  25  41  66  93 128 167 214 261 315 376
#     4  12  24  40  61  90 126 165 211 256 310 375
#     4  12  23  37  58  94 128 161 200 262 330 381
#     4  10  19  34  60  91 118 158 203 247 312 389
#     4  11  24  40  63  92 128 166 209 261 321 383
#     4  12  15  34  60  82 117 148 198 250 304 356
#
# _framework density 20.4467
#
# number of rings (size 3 to 8) (size 9 to 14) (size 15 to 20)
#    0.000    0.533    6.667    1.400    1.867    4.800 
#    0.000    0.667    0.000    1.600    0.000    2.800 
#    0.000    0.000    0.000    0.000    0.000    0.000 
#
# Total GULP energy -371681.021587 kJ/mol
# GULP energy per Si atom -12389.367386 kJ/mol
# Density = 2.040016 g / cm^3
# Si number density = 20.446700 Si / 1000 Ang^3
#
#
#
# Elastic Constant Matrix: (Units=GPa)
#
#
# Indices 1 2 3 4 5 6 
#
# 1 79.7660 43.0200 31.7699 0.0000 0.0000 0.0000
# 2 43.0200 115.0121 33.1047 0.0000 0.0000 0.0000
# 3 31.7699 33.1047 114.4548 0.0000 0.0000 0.0000
# 4 0.0000 0.0000 0.0000 20.1227 0.0000 0.0000
# 5 0.0000 0.0000 0.0000 0.0000 27.8900 0.0000
# 6 0.0000 0.0000 0.0000 0.0000 0.0000 28.5961
#
#
#
# Elastic Compliance Matrix: (Units=1/GPa)
#
#
# Indices 1 2 3 4 5 6 
#
# 1 0.016641 -0.005340 -0.003075 0.000000 0.000000 0.000000
# 2 -0.005340 0.011198 -0.001757 0.000000 0.000000 0.000000
# 3 -0.003075 -0.001757 0.010099 0.000000 0.000000 0.000000
# 4 0.000000 0.000000 0.000000 0.049695 0.000000 0.000000
# 5 0.000000 0.000000 0.000000 0.000000 0.035855 0.000000
# 6 0.000000 0.000000 0.000000 0.000000 0.000000 0.034970
#
#
# Mechanical properties :
#
#
# Convention : Reuss Voigt Hill
#
# Bulk Modulus (GPa) = 56.83291 58.33579 57.58435
# Shear Modulus (GPa) = 27.07611 28.74429 27.91020
#
# Velocity S-wave (km/s) = 3.64294 3.75349 3.69863
# Velocity P-wave (km/s) = 6.74913 6.88313 6.81646
#
# Compressibility (1/GPa) = 0.01759544
#
# Stress axis : x y z
#
# Youngs Moduli (GPa) = 60.09227 89.30481 99.02322
#
# Poissons Ratio (x) = 0.47685 0.30447
# Poissons Ratio (y) = 0.32086 0.17395
# Poissons Ratio (z) = 0.18477 0.15688
#
# Static dielectric constant tensor:
#      x y z
#    x 3.564580 0.000000 0.000000 
#    y 0.000000 3.605890 0.000000 
#    z 0.000000 0.000000 4.393050 
# 
# 
# High freq. dielectric constant tensor:
#      x y z
#    x 1.782460 0.000000 0.000000 
#    y 0.000000 1.768760 0.000000 
#    z 0.000000 0.000000 1.825580 
# 
# From -- ./inp_files/19414.got.cif
#   From: 2010.06.25/outbox.cif.g09.slc.cpg/sg71_10_cif.got.tgz:19414.got - 2010.06.28 04:59:45.
