data_PCOD8289721
_publ_section_title
;
Structure prediction by ZEFSAII (Michael W. Deem and Ramdas Pophale) SiO2 
 PCOD8289721
Probable space group: I M M M
;
_chemical_formula_sum "Si O2"
_cell_formula_units_Z 88
_cell_length_a 19.605541
_cell_length_b 8.976832
_cell_length_c 30.993298
_cell_angle_alpha 90.000000
_cell_angle_beta 90.000000
_cell_angle_gamma 90.000000
_cell_volume 5454.685560
_symmetry_space_group_name_H-M "I M M M"
_symmetry_group_IT_number 71
_symmetry_cell_setting 'orthorhombic'
loop_
_space_group_symop_operation_xyz
x,y,z
-x,-y,z
x,-y,-z
-x,y,-z
-x,-y,-z
x,y,-z
-x,y,z
x,-y,z
1/2+x,1/2+y,1/2+z
1/2-x,1/2-y,1/2+z
1/2+x,1/2-y,1/2-z
1/2-x,1/2+y,1/2-z
1/2-x,1/2-y,1/2-z
1/2+x,1/2+y,1/2-z
1/2-x,1/2+y,1/2+z
1/2+x,1/2-y,1/2+z
loop_
_atom_site_type_symbol
_atom_site_label
_atom_site_fract_x
_atom_site_fract_y
_atom_site_fract_z
Si Si1 0.636222 0.671788 0.547636
Si Si2 0.423486 0.325563 0.228127
Si Si3 0.812395 0.170301 0.864679
Si Si4 0.500000 0.165318 0.551079
Si Si5 0.924226 0.668250 0.817007
Si Si6 0.210894 0.325400 0.709680
O O1 0.659424 0.731524 0.500000
O O2 0.616764 0.500000 0.543667
O O3 0.696997 0.693699 0.583346
O O4 0.568657 0.751777 0.565738
O O5 0.500000 0.283792 0.211501
O O6 0.409842 0.500000 0.223353
O O7 0.415524 0.281572 0.277723
O O8 0.365373 0.236997 0.202229
O O9 0.872640 0.282918 0.853502
O O10 0.746601 0.210931 0.836112
O O11 0.833951 0.000000 0.855008
O O12 0.500000 0.156930 0.500000
O O13 0.500000 0.000000 0.571660
O O14 0.908444 0.500000 0.801141
O O15 0.000000 0.678507 0.836701
O O16 0.208421 0.500000 0.719405
O O17 0.250000 0.250000 0.750000
#
# Coordination Sequence:
#
# PCOD8289721 Si02
#       6
#    16  16  16   8  16  16
#     4   9  18  33  49  64  85 117 157 195 234 281
#     4  10  20  34  51  69  92 124 159 195 235 277
#     4  10  21  33  47  67  90 122 157 195 238 279
#     4   9  17  29  45  65  89 117 151 197 245 277
#     4  10  20  31  44  65  91 122 161 199 234 276
#     4  11  21  33  49  70  97 126 158 193 233 279
#
# _framework density 16.132918
#
# number of rings (size 3 to 8) (size 9 to 14) (size 15 to 20)
#    0.000    2.091    1.818    1.909    1.273    4.727 
#    0.000    0.000    0.000    0.000    0.000    0.000 
#    0.000    0.727    0.000    9.091    0.000    1.455 
#
# Total GULP energy -545244.461024 kJ/mol
# GULP energy per Si atom -12391.919569 kJ/mol
# Density = 1.609620 g / cm^3
# Si number density = 16.132918 Si / 1000 Ang^3
#
#
#
# Elastic Constant Matrix: (Units=GPa)
#
#
# Indices 1 2 3 4 5 6 
#
# 1 101.0199 44.4185 59.2209 0.0000 0.0000 0.0000
# 2 44.4185 69.7659 32.3415 0.0000 0.0000 0.0000
# 3 59.2209 32.3415 93.8191 0.0000 0.0000 0.0000
# 4 0.0000 0.0000 0.0000 15.0599 0.0000 0.0000
# 5 0.0000 0.0000 0.0000 0.0000 24.6706 0.0000
# 6 0.0000 0.0000 0.0000 0.0000 0.0000 25.3378
#
#
#
# Elastic Compliance Matrix: (Units=1/GPa)
#
#
# Indices 1 2 3 4 5 6 
#
# 1 0.018584 -0.007610 -0.009107 0.000000 0.000000 0.000000
# 2 -0.007610 0.020176 -0.002151 0.000000 0.000000 0.000000
# 3 -0.009107 -0.002151 0.017149 0.000000 0.000000 0.000000
# 4 0.000000 0.000000 0.000000 0.066401 0.000000 0.000000
# 5 0.000000 0.000000 0.000000 0.000000 0.040534 0.000000
# 6 0.000000 0.000000 0.000000 0.000000 0.000000 0.039467
#
#
# Mechanical properties :
#
#
# Convention : Reuss Voigt Hill
#
# Bulk Modulus (GPa) = 55.03090 59.61854 57.32472
# Shear Modulus (GPa) = 20.31631 21.58860 20.95245
#
# Velocity S-wave (km/s) = 3.55252 3.66207 3.60771
# Velocity P-wave (km/s) = 7.14228 7.41052 7.27764
#
# Compressibility (1/GPa) = 0.01817161
#
# Stress axis : x y z
#
# Youngs Moduli (GPa) = 53.80872 49.56310 58.31147
#
# Poissons Ratio (x) = 0.37719 0.53107
# Poissons Ratio (y) = 0.40950 0.12545
# Poissons Ratio (z) = 0.49006 0.10663
#
# Static dielectric constant tensor:
#      x y z
#    x 3.105370 0.000000 0.000000 
#    y 0.000000 3.186220 0.000000 
#    z 0.000000 0.000000 3.036410 
# 
# 
# High freq. dielectric constant tensor:
#      x y z
#    x 1.592880 0.000000 0.000000 
#    y 0.000000 1.633580 0.000000 
#    z 0.000000 0.000000 1.599280 
# 
# From -- ./inp_files/11346.got.cif
#   From: 2010.06.25/outbox.cif.g09.slc.cpg/sg71_6_cif.got.tgz:11346.got - 2010.06.28 04:59:45.
