data_PCOD8289795
_publ_section_title
;
Structure prediction by ZEFSAII (Michael W. Deem and Ramdas Pophale) SiO2 
 PCOD8289795
Probable space group: I M M M
;
_chemical_formula_sum "Si O2"
_cell_formula_units_Z 88
_cell_length_a 9.394614
_cell_length_b 32.817365
_cell_length_c 14.817283
_cell_angle_alpha 90.000000
_cell_angle_beta 90.000000
_cell_angle_gamma 90.000000
_cell_volume 4568.264316
_symmetry_space_group_name_H-M "I M M M"
_symmetry_group_IT_number 71
_symmetry_cell_setting 'orthorhombic'
loop_
_space_group_symop_operation_xyz
x,y,z
-x,-y,z
x,-y,-z
-x,y,-z
-x,-y,-z
x,y,-z
-x,y,z
x,-y,z
1/2+x,1/2+y,1/2+z
1/2-x,1/2-y,1/2+z
1/2+x,1/2-y,1/2-z
1/2-x,1/2+y,1/2-z
1/2-x,1/2-y,1/2-z
1/2+x,1/2+y,1/2-z
1/2-x,1/2+y,1/2+z
1/2+x,1/2-y,1/2+z
loop_
_atom_site_type_symbol
_atom_site_label
_atom_site_fract_x
_atom_site_fract_y
_atom_site_fract_z
Si Si1 0.831581 0.419404 0.206588
Si Si2 0.841721 0.155372 0.345867
Si Si3 0.164302 0.609418 0.598420
Si Si4 0.156769 0.729511 0.101939
Si Si5 0.168441 0.500000 0.103327
Si Si6 0.657291 0.683494 0.355547
O O1 0.752905 0.385247 0.146961
O O2 0.787538 0.417516 0.314043
O O3 0.779346 0.461454 0.161972
O O4 0.000000 0.413330 0.195522
O O5 0.764046 0.191997 0.396216
O O6 0.855856 0.166634 0.243321
O O7 0.000000 0.148395 0.387485
O O8 0.190129 0.587208 0.500000
O O9 0.242297 0.652821 0.590407
O O10 0.000000 0.619816 0.611295
O O11 0.219258 0.770323 0.149913
O O12 0.000000 0.717562 0.142295
O O13 0.138176 0.743136 0.000000
O O14 0.000000 0.500000 0.096799
O O15 0.230123 0.500000 0.000000
O O16 0.500000 0.684656 0.400471
#
# Coordination Sequence:
#
# PCOD8289795 Si02
#       6
#    16  16  16  16   8  16
#     4   9  18  34  54  75 100 128 161 203 248 298
#     4  10  20  33  50  72  98 128 162 203 251 299
#     4   9  17  29  47  73 104 135 164 197 243 296
#     4  10  20  32  46  66  94 130 171 211 249 290
#     4   9  18  34  58  82  98 121 163 207 244 290
#     4   9  18  32  49  69  95 131 173 209 242 286
#
# _framework density 19.263335000000001
#
# number of rings (size 3 to 8) (size 9 to 14) (size 15 to 20)
#    0.000    2.636    0.000    1.636    0.000    3.636 
#    0.000    2.727    0.000    3.273    0.000    0.000 
#    0.000    5.818    0.000    0.000    0.000    0.000 
#
# Total GULP energy -545081.781901 kJ/mol
# GULP energy per Si atom -12388.222316 kJ/mol
# Density = 1.921949 g / cm^3
# Si number density = 19.263335 Si / 1000 Ang^3
#
#
#
# Elastic Constant Matrix: (Units=GPa)
#
#
# Indices 1 2 3 4 5 6 
#
# 1 62.7417 46.1178 24.4824 0.0001 0.0001 0.0000
# 2 46.1178 150.1349 50.3210 0.0003 0.0002 0.0001
# 3 24.4824 50.3210 76.2172 0.0019 0.0013 0.0002
# 4 0.0001 0.0003 0.0019 26.0766 0.0003 0.0001
# 5 0.0001 0.0002 0.0013 0.0003 21.5479 0.0003
# 6 0.0000 0.0001 0.0002 0.0001 0.0003 22.0275
#
#
#
# Elastic Compliance Matrix: (Units=1/GPa)
#
#
# Indices 1 2 3 4 5 6 
#
# 1 0.021185 -0.005428 -0.003221 0.000000 0.000000 0.000000
# 2 -0.005428 0.009944 -0.004822 0.000000 0.000000 0.000000
# 3 -0.003221 -0.004822 0.017339 -0.000001 -0.000001 0.000000
# 4 0.000000 0.000000 -0.000001 0.038349 -0.000001 0.000000
# 5 0.000000 0.000000 -0.000001 -0.000001 0.046408 -0.000001
# 6 0.000000 0.000000 0.000000 0.000000 -0.000001 0.045398
#
#
# Mechanical properties :
#
#
# Convention : Reuss Voigt Hill
#
# Bulk Modulus (GPa) = 46.45620 58.99290 52.72455
# Shear Modulus (GPa) = 23.50286 25.14191 24.32239
#
# Velocity S-wave (km/s) = 3.49676 3.61663 3.55720
# Velocity P-wave (km/s) = 6.36175 6.93765 6.65593
#
# Compressibility (1/GPa) = 0.02152565
#
# Stress axis : x y z
#
# Youngs Moduli (GPa) = 47.20304 100.56176 57.67428
#
# Poissons Ratio (x) = 0.54583 0.18579
# Poissons Ratio (y) = 0.25621 0.27810
# Poissons Ratio (z) = 0.15206 0.48490
#
# Static dielectric constant tensor:
#      x y z
#    x 3.792850 0.000000 0.000000 
#    y 0.000000 3.444320 0.000000 
#    z 0.000000 0.000000 3.651330 
# 
# 
# High freq. dielectric constant tensor:
#      x y z
#    x 1.734510 0.000000 0.000000 
#    y 0.000000 1.728880 0.000000 
#    z 0.000000 0.000000 1.754810 
# 
# From -- ./inp_files/42488.got.cif
#   From: 2010.06.25/outbox.cif.g09.slc.cpg/sg71_22_cif.got.tgz:42488.got - 2010.06.28 04:59:45.
