data_PCOD8289143
_publ_section_title
;
Structure prediction by ZEFSAII (Michael W. Deem and Ramdas Pophale) SiO2 
 PCOD8289143
Probable space group: I M M M
;
_chemical_formula_sum "Si O2"
_cell_formula_units_Z 72
_cell_length_a 12.753813
_cell_length_b 19.415699
_cell_length_c 16.864996
_cell_angle_alpha 90.000000
_cell_angle_beta 90.000000
_cell_angle_gamma 90.000000
_cell_volume 4176.181047
_symmetry_space_group_name_H-M "I M M M"
_symmetry_group_IT_number 71
_symmetry_cell_setting 'orthorhombic'
loop_
_space_group_symop_operation_xyz
x,y,z
-x,-y,z
x,-y,-z
-x,y,-z
-x,-y,-z
x,y,-z
-x,y,z
x,-y,z
1/2+x,1/2+y,1/2+z
1/2-x,1/2-y,1/2+z
1/2+x,1/2-y,1/2-z
1/2-x,1/2+y,1/2-z
1/2-x,1/2-y,1/2-z
1/2+x,1/2+y,1/2-z
1/2-x,1/2+y,1/2+z
1/2+x,1/2-y,1/2+z
loop_
_atom_site_type_symbol
_atom_site_label
_atom_site_fract_x
_atom_site_fract_y
_atom_site_fract_z
Si Si1 0.620878 0.366350 0.340263
Si Si2 0.122273 0.500000 0.730454
Si Si3 0.722210 0.500000 0.591248
Si Si4 0.623125 0.500000 0.907035
Si Si5 0.749411 0.387839 0.813424
Si Si6 0.619029 0.220111 0.408282
O O1 0.500000 0.373313 0.317928
O O2 0.653588 0.433196 0.389565
O O3 0.682570 0.357670 0.258518
O O4 0.643891 0.300203 0.394329
O O5 0.173176 0.500000 0.643561
O O6 0.155611 0.566699 0.780045
O O7 0.000000 0.500000 0.717432
O O8 0.756140 0.500000 0.500000
O O9 0.500000 0.500000 0.888051
O O10 0.673769 0.431924 0.869763
O O11 0.646304 0.500000 0.000000
O O12 0.797924 0.324626 0.860546
O O13 0.634062 0.202907 0.500000
O O14 0.500000 0.202939 0.381376
#
# Coordination Sequence:
#
# PCOD8289143 Si02
#       6
#    16   8   8   8  16  16
#     4  10  20  33  51  75 101 130 166 206 247 295
#     4   9  19  33  50  72  96 126 165 204 242 292
#     4  10  20  33  52  76 101 131 165 205 251 294
#     4  10  20  33  51  76 103 132 166 204 248 295
#     4  10  19  33  52  72  99 131 166 203 245 295
#     4  10  20  33  50  73 100 130 164 204 250 295
#
# _framework density 17.240632999999999
#
# number of rings (size 3 to 8) (size 9 to 14) (size 15 to 20)
#    0.000    2.111    0.000    4.333    0.000    2.000 
#    0.000    0.000    0.000    6.667    0.000    0.000 
#    0.000    0.000    0.000    0.000    0.000    0.000 
#
# Total GULP energy -446492.894685 kJ/mol
# GULP energy per Si atom -12402.580408 kJ/mol
# Density = 1.720139 g / cm^3
# Si number density = 17.240633 Si / 1000 Ang^3
#
#
#
# Elastic Constant Matrix: (Units=GPa)
#
#
# Indices 1 2 3 4 5 6 
#
# 1 109.8612 55.7602 44.0764 0.0000 0.0000 0.0000
# 2 55.7602 100.5584 40.8683 0.0000 0.0000 0.0000
# 3 44.0764 40.8683 100.1056 0.0000 0.0000 0.0000
# 4 0.0000 0.0000 0.0000 53.0941 0.0000 0.0000
# 5 0.0000 0.0000 0.0000 0.0000 19.8012 0.0000
# 6 0.0000 0.0000 0.0000 0.0000 0.0000 23.4677
#
#
#
# Elastic Compliance Matrix: (Units=1/GPa)
#
#
# Indices 1 2 3 4 5 6 
#
# 1 0.013615 -0.006130 -0.003492 0.000000 0.000000 0.000000
# 2 -0.006130 0.014683 -0.003295 0.000000 0.000000 0.000000
# 3 -0.003492 -0.003295 0.012872 0.000000 0.000000 0.000000
# 4 0.000000 0.000000 0.000000 0.018834 0.000000 0.000000
# 5 0.000000 0.000000 0.000000 0.000000 0.050502 0.000000
# 6 0.000000 0.000000 0.000000 0.000000 0.000000 0.042612
#
#
# Mechanical properties :
#
#
# Convention : Reuss Voigt Hill
#
# Bulk Modulus (GPa) = 65.20942 65.77056 65.48999
# Shear Modulus (GPa) = 27.16438 30.59396 28.87917
#
# Velocity S-wave (km/s) = 3.97369 4.21708 4.09720
# Velocity P-wave (km/s) = 7.67847 7.87039 7.77502
#
# Compressibility (1/GPa) = 0.01533521
#
# Stress axis : x y z
#
# Youngs Moduli (GPa) = 73.44955 68.10608 77.68691
#
# Poissons Ratio (x) = 0.41751 0.27127
# Poissons Ratio (y) = 0.45027 0.25599
# Poissons Ratio (z) = 0.25648 0.22442
#
# Static dielectric constant tensor:
#      x y z
#    x 3.137050 0.000000 0.000000 
#    y 0.000000 3.348560 0.000000 
#    z 0.000000 0.000000 3.272360 
# 
# 
# High freq. dielectric constant tensor:
#      x y z
#    x 1.665570 0.000000 0.000000 
#    y 0.000000 1.672280 0.000000 
#    z 0.000000 0.000000 1.675070 
# 
# From -- ./inp_files/43114.got.cif
#   From: 2010.06.25/outbox.cif.g09.slc.cpg/sg71_22_cif.got.tgz:43114.got - 2010.06.28 04:59:45.
