data_PCOD8289267
_publ_section_title
;
Structure prediction by ZEFSAII (Michael W. Deem and Ramdas Pophale) SiO2 
 PCOD8289267
Probable space group: I M M M
;
_chemical_formula_sum "Si O2"
_cell_formula_units_Z 104
_cell_length_a 9.107363
_cell_length_b 21.976863
_cell_length_c 27.412030
_cell_angle_alpha 90.000000
_cell_angle_beta 90.000000
_cell_angle_gamma 90.000000
_cell_volume 5486.552589
_symmetry_space_group_name_H-M "I M M M"
_symmetry_group_IT_number 71
_symmetry_cell_setting 'orthorhombic'
loop_
_space_group_symop_operation_xyz
x,y,z
-x,-y,z
x,-y,-z
-x,y,-z
-x,-y,-z
x,y,-z
-x,y,z
x,-y,z
1/2+x,1/2+y,1/2+z
1/2-x,1/2-y,1/2+z
1/2+x,1/2-y,1/2-z
1/2-x,1/2+y,1/2-z
1/2-x,1/2-y,1/2-z
1/2+x,1/2+y,1/2-z
1/2-x,1/2+y,1/2+z
1/2+x,1/2-y,1/2+z
loop_
_atom_site_type_symbol
_atom_site_label
_atom_site_fract_x
_atom_site_fract_y
_atom_site_fract_z
Si Si1 0.328655 0.857551 0.555074
Si Si2 0.337647 0.845800 0.736122
Si Si3 0.674361 0.931332 0.648586
Si Si4 0.172533 0.740493 0.408316
Si Si5 0.661735 0.716959 0.688685
Si Si6 0.826442 0.000000 0.053068
Si Si7 0.838016 0.128332 0.056930
O O1 0.300541 0.882979 0.500000
O O2 0.500000 0.843790 0.563165
O O3 0.271996 0.905303 0.596051
O O4 0.243643 0.794673 0.560943
O O5 0.500000 0.870878 0.750785
O O6 0.269629 0.888381 0.693050
O O7 0.356660 0.776069 0.721434
O O8 0.228547 0.841924 0.782572
O O9 0.500000 0.931821 0.649051
O O10 0.736432 0.000000 0.654834
O O11 0.231092 0.738152 0.353779
O O12 0.213869 0.677527 0.433575
O O13 0.000000 0.750025 0.407968
O O14 0.500000 0.697290 0.669644
O O15 0.785908 0.936574 0.080988
O O16 0.000000 0.000000 0.046270
O O17 0.748325 0.000000 0.000000
O O18 0.000000 0.148526 0.076885
O O19 0.852228 0.116380 0.000000
#
# Coordination Sequence:
#
# PCOD8289267 Si02
#       7
#    16  16  16  16  16   8  16
#     4  10  20  35  54  78 111 149 190 233 275 323
#     4   9  17  32  54  81 108 131 165 212 266 323
#     4   9  17  32  56  84 112 143 181 228 281 333
#     4  12  23  33  49  76 110 144 181 222 271 323
#     4  10  19  33  55  79 104 133 169 213 263 320
#     4   7  12  26  49  73  93 121 165 209 249 303
#     4   9  17  31  52  75 100 133 172 213 260 315
#
# _framework density 18.955435999999999
#
# number of rings (size 3 to 8) (size 9 to 14) (size 15 to 20)
#    0.000    2.385    1.538    3.231    0.000    3.385 
#    0.000    1.923    1.692    3.231    0.000    1.077 
#    0.000    0.000    0.000    0.000    0.000    0.000 
#
# Total GULP energy -644186.355684 kJ/mol
# GULP energy per Si atom -12388.199148 kJ/mol
# Density = 1.891229 g / cm^3
# Si number density = 18.955436 Si / 1000 Ang^3
#
#
#
# Elastic Constant Matrix: (Units=GPa)
#
#
# Indices 1 2 3 4 5 6 
#
# 1 69.1826 23.6073 19.7080 0.0000 0.0000 0.0000
# 2 23.6073 86.7088 12.3343 0.0000 0.0000 0.0000
# 3 19.7080 12.3343 50.3009 0.0000 0.0000 0.0000
# 4 0.0000 0.0000 0.0000 26.2142 0.0000 0.0000
# 5 0.0000 0.0000 0.0000 0.0000 23.8768 0.0000
# 6 0.0000 0.0000 0.0000 0.0000 0.0000 -7.0415
#
#
#
# Elastic Compliance Matrix: (Units=1/GPa)
#
#
# Indices 1 2 3 4 5 6 
#
# 1 0.017468 -0.003919 -0.005883 0.000000 0.000000 0.000000
# 2 -0.003919 0.012829 -0.001610 0.000000 0.000000 0.000000
# 3 -0.005883 -0.001610 0.022580 0.000000 0.000000 0.000000
# 4 0.000000 0.000000 0.000000 0.038147 0.000000 0.000000
# 5 0.000000 0.000000 0.000000 0.000000 0.041882 0.000000
# 6 0.000000 0.000000 0.000000 0.000000 0.000000 -0.142014
#
#
# Mechanical properties :
#
#
# Convention : Reuss Voigt Hill
#
# Bulk Modulus (GPa) = 33.27519 35.27682 34.27601
# Shear Modulus (GPa) = 210.67633 18.64607 114.66120
#
# Velocity S-wave (km/s) = 10.55387 3.13977 7.78596
# Velocity P-wave (km/s) = 12.88817 5.63871 9.94736
#
# Compressibility (1/GPa) = 0.03005242
#
# Stress axis : x y z
#
# Youngs Moduli (GPa) = 57.24880 77.94916 44.28660
#
# Poissons Ratio (x) = 0.30547 0.26053
# Poissons Ratio (y) = 0.22435 0.07132
# Poissons Ratio (z) = 0.33679 0.12552
#
# Static dielectric constant tensor:
#      x y z
#    x 3.386360 0.000000 0.000000 
#    y 0.000000 3.738000 0.000000 
#    z 0.000000 0.000000 10.681020 
# 
# 
# High freq. dielectric constant tensor:
#      x y z
#    x 1.706350 0.000000 0.000000 
#    y 0.000000 1.728780 0.000000 
#    z 0.000000 0.000000 1.724150 
# 
# From -- ./inp_files/68299.got.cif
#   From: 2010.06.25/outbox.cif.g09.slc.cpg/sg71_35_cif.got.tgz:68299.got - 2010.06.28 04:59:45.
