data_PCOD8289689
_publ_section_title
;
Structure prediction by ZEFSAII (Michael W. Deem and Ramdas Pophale) SiO2 
 PCOD8289689
Probable space group: I M M M
;
_chemical_formula_sum "Si O2"
_cell_formula_units_Z 88
_cell_length_a 20.059158
_cell_length_b 9.246976
_cell_length_c 33.052169
_cell_angle_alpha 90.000000
_cell_angle_beta 90.000000
_cell_angle_gamma 90.000000
_cell_volume 6130.732884
_symmetry_space_group_name_H-M "I M M M"
_symmetry_group_IT_number 71
_symmetry_cell_setting 'orthorhombic'
loop_
_space_group_symop_operation_xyz
x,y,z
-x,-y,z
x,-y,-z
-x,y,-z
-x,-y,-z
x,y,-z
-x,y,z
x,-y,z
1/2+x,1/2+y,1/2+z
1/2-x,1/2-y,1/2+z
1/2+x,1/2-y,1/2-z
1/2-x,1/2+y,1/2-z
1/2-x,1/2-y,1/2-z
1/2+x,1/2+y,1/2-z
1/2-x,1/2+y,1/2+z
1/2+x,1/2-y,1/2+z
loop_
_atom_site_type_symbol
_atom_site_label
_atom_site_fract_x
_atom_site_fract_y
_atom_site_fract_z
Si Si1 0.577268 0.667983 0.318694
Si Si2 0.221245 0.839336 0.307742
Si Si3 0.371455 0.833521 0.545016
Si Si4 0.148146 0.338010 0.247236
Si Si5 0.000000 0.840265 0.047709
Si Si6 0.819611 0.667858 0.872156
O O1 0.500000 0.689169 0.329646
O O2 0.596400 0.500000 0.314600
O O3 0.592407 0.744430 0.275756
O O4 0.620056 0.737752 0.354611
O O5 0.164462 0.732198 0.291085
O O6 0.285106 0.839091 0.278840
O O7 0.248578 0.788353 0.351943
O O8 0.190236 0.000000 0.309976
O O9 0.347075 0.783597 0.500000
O O10 0.434481 0.744579 0.561198
O O11 0.314451 0.809050 0.579107
O O12 0.393328 0.000000 0.543239
O O13 0.121195 0.500000 0.254396
O O14 0.000000 0.000000 0.067883
O O15 0.000000 0.854257 0.000000
O O16 0.834710 0.500000 0.861460
#
# Coordination Sequence:
#
# PCOD8289689 Si02
#       6
#    16  16  16  16   8  16
#     4  10  20  30  39  54  75  98 123 152 187 222
#     4   8  14  25  39  55  73  91 116 148 182 218
#     4   9  17  29  42  54  69  92 123 156 190 227
#     4   9  16  26  41  57  72  93 118 145 180 219
#     4   9  17  27  37  49  65  87 117 151 187 227
#     4   9  18  29  41  56  72  95 124 156 191 224
#
# _framework density 14.353911
#
# number of rings (size 3 to 8) (size 9 to 14) (size 15 to 20)
#    0.000    3.000    0.000    2.455    1.273    7.636 
#    0.000    0.000    0.000    0.000    0.000    0.000 
#    0.000    0.000    0.000    0.000    0.000    0.909 
#
# Total GULP energy -545240.475913 kJ/mol
# GULP energy per Si atom -12391.828998 kJ/mol
# Density = 1.432124 g / cm^3
# Si number density = 14.353911 Si / 1000 Ang^3
#
#
#
# Elastic Constant Matrix: (Units=GPa)
#
#
# Indices 1 2 3 4 5 6 
#
# 1 15.9120 16.7464 24.4344 0.0000 0.0000 0.0000
# 2 16.7464 76.6503 33.4245 0.0000 0.0000 0.0000
# 3 24.4344 33.4245 96.5360 0.0000 0.0000 0.0000
# 4 0.0000 0.0000 0.0000 15.6462 0.0000 0.0000
# 5 0.0000 0.0000 0.0000 0.0000 20.3608 0.0000
# 6 0.0000 0.0000 0.0000 0.0000 0.0000 16.0830
#
#
#
# Elastic Compliance Matrix: (Units=1/GPa)
#
#
# Indices 1 2 3 4 5 6 
#
# 1 0.115309 -0.014682 -0.024103 0.000000 0.000000 0.000000
# 2 -0.014682 0.017236 -0.002251 0.000000 0.000000 0.000000
# 3 -0.024103 -0.002251 0.017239 0.000000 0.000000 0.000000
# 4 0.000000 0.000000 0.000000 0.063913 0.000000 0.000000
# 5 0.000000 0.000000 0.000000 0.000000 0.049114 0.000000
# 6 0.000000 0.000000 0.000000 0.000000 0.000000 0.062177
#
#
# Mechanical properties :
#
#
# Convention : Reuss Voigt Hill
#
# Bulk Modulus (GPa) = 14.76852 37.58987 26.17920
# Shear Modulus (GPa) = 11.63787 18.05088 14.84438
#
# Velocity S-wave (km/s) = 2.85051 3.55005 3.21934
# Velocity P-wave (km/s) = 4.59838 6.56114 5.66541
#
# Compressibility (1/GPa) = 0.06771158
#
# Stress axis : x y z
#
# Youngs Moduli (GPa) = 8.67233 58.01881 58.00803
#
# Poissons Ratio (x) = 0.85185 1.39814
# Poissons Ratio (y) = 0.12733 0.13060
# Poissons Ratio (z) = 0.20903 0.13063
#
# Static dielectric constant tensor:
#      x y z
#    x 2.465720 0.000000 0.000000 
#    y 0.000000 3.036910 0.000000 
#    z 0.000000 0.000000 2.964440 
# 
# 
# High freq. dielectric constant tensor:
#      x y z
#    x 1.486260 0.000000 0.000000 
#    y 0.000000 1.561280 0.000000 
#    z 0.000000 0.000000 1.538630 
# 
# From -- ./inp_files/71122.got.cif
#   From: 2010.06.25/outbox.cif.g09.slc.cpg/sg71_36_cif.got.tgz:71122.got - 2010.06.28 04:59:45.
