data_PCOD8289503
_publ_section_title
;
Structure prediction by ZEFSAII (Michael W. Deem and Ramdas Pophale) SiO2 
 PCOD8289503
Probable space group: I M M M
;
_chemical_formula_sum "Si O2"
_cell_formula_units_Z 80
_cell_length_a 10.958636
_cell_length_b 11.668009
_cell_length_c 34.215003
_cell_angle_alpha 90.000000
_cell_angle_beta 90.000000
_cell_angle_gamma 90.000000
_cell_volume 4374.917216
_symmetry_space_group_name_H-M "I M M M"
_symmetry_group_IT_number 71
_symmetry_cell_setting 'orthorhombic'
loop_
_space_group_symop_operation_xyz
x,y,z
-x,-y,z
x,-y,-z
-x,y,-z
-x,-y,-z
x,y,-z
-x,y,z
x,-y,z
1/2+x,1/2+y,1/2+z
1/2-x,1/2-y,1/2+z
1/2+x,1/2-y,1/2-z
1/2-x,1/2+y,1/2-z
1/2-x,1/2-y,1/2-z
1/2+x,1/2+y,1/2-z
1/2-x,1/2+y,1/2+z
1/2+x,1/2-y,1/2+z
loop_
_atom_site_type_symbol
_atom_site_label
_atom_site_fract_x
_atom_site_fract_y
_atom_site_fract_z
Si Si1 0.778090 0.274162 0.683696
Si Si2 0.855180 0.368500 0.117728
Si Si3 0.361451 0.000000 0.144135
Si Si4 0.642580 0.500000 0.581864
Si Si5 0.642209 0.260296 0.457295
Si Si6 0.635737 0.376822 0.246588
O O1 0.707357 0.215984 0.648138
O O2 0.851479 0.386317 0.670368
O O3 0.685722 0.300115 0.718560
O O4 0.867590 0.182911 0.703899
O O5 0.816793 0.500000 0.124755
O O6 0.807430 0.329271 0.074846
O O7 0.000000 0.352132 0.121315
O O8 0.244973 0.000000 0.115469
O O9 0.500000 0.000000 0.125403
O O10 0.500000 0.500000 0.597764
O O11 0.667785 0.609846 0.555402
O O12 0.703824 0.238899 0.500000
O O13 0.500000 0.239057 0.461529
O O14 0.500000 0.401385 0.259381
O O15 0.705417 0.500000 0.243738
#
# Coordination Sequence:
#
# PCOD8289503 Si02
#       6
#    16  16   8   8  16  16
#     4  11  21  37  54  77 109 149 181 230 280 339
#     4  10  20  33  52  81 115 150 190 235 284 338
#     4  12  24  37  57  87 118 152 190 234 287 343
#     4  10  19  34  58  86 114 150 190 236 288 339
#     4   9  17  30  52  83 115 146 185 234 286 339
#     4  10  21  36  56  78 101 136 186 234 276 329
#
# _framework density 18.286059000000002
#
# number of rings (size 3 to 8) (size 9 to 14) (size 15 to 20)
#    0.000    1.800    3.000    2.100    0.000    2.400 
#    0.000    2.000    0.000    1.200    0.000    0.000 
#    0.000    1.600    0.000    0.000    0.000    0.000 
#
# Total GULP energy -495576.299410 kJ/mol
# GULP energy per Si atom -12389.407485 kJ/mol
# Density = 1.824444 g / cm^3
# Si number density = 18.286059 Si / 1000 Ang^3
#
#
#
# Elastic Constant Matrix: (Units=GPa)
#
#
# Indices 1 2 3 4 5 6 
#
# 1 61.4375 20.8743 33.0349 0.0000 0.0000 0.0000
# 2 20.8743 119.0416 50.3760 0.0000 0.0000 0.0000
# 3 33.0349 50.3760 130.1474 0.0000 0.0000 0.0000
# 4 0.0000 0.0000 0.0000 -1.8443 0.0000 0.0000
# 5 0.0000 0.0000 0.0000 0.0000 18.6203 0.0000
# 6 0.0000 0.0000 0.0000 0.0000 0.0000 6.1969
#
#
#
# Elastic Compliance Matrix: (Units=1/GPa)
#
#
# Indices 1 2 3 4 5 6 
#
# 1 0.019086 -0.001551 -0.004244 0.000000 0.000000 0.000000
# 2 -0.001551 0.010172 -0.003544 0.000000 0.000000 0.000000
# 3 -0.004244 -0.003544 0.010133 0.000000 0.000000 0.000000
# 4 0.000000 0.000000 0.000000 -0.542224 0.000000 0.000000
# 5 0.000000 0.000000 0.000000 0.000000 0.053705 0.000000
# 6 0.000000 0.000000 0.000000 0.000000 0.000000 0.161370
#
#
# Mechanical properties :
#
#
# Convention : Reuss Voigt Hill
#
# Bulk Modulus (GPa) = 48.27870 57.68855 52.98363
# Shear Modulus (GPa) = -19.07107 18.35067 -0.36020
#
# Velocity S-wave (km/s) = -3.23295 3.17130 -0.44431
# Velocity P-wave (km/s) = 3.53883 6.71013 5.36419
#
# Compressibility (1/GPa) = 0.02071307
#
# Stress axis : x y z
#
# Youngs Moduli (GPa) = 52.39524 98.30973 98.69204
#
# Poissons Ratio (x) = 0.15244 0.41887
# Poissons Ratio (y) = 0.08125 0.34973
# Poissons Ratio (z) = 0.22238 0.34837
#
# Static dielectric constant tensor:
#      x y z
#    x 3.065480 0.000000 0.000000 
#    y 0.000000 3.863140 0.000000 
#    z 0.000000 0.000000 3.626950 
# 
# 
# High freq. dielectric constant tensor:
#      x y z
#    x 1.665180 0.000000 0.000000 
#    y 0.000000 1.729420 0.000000 
#    z 0.000000 0.000000 1.712660 
# 
# From -- ./inp_files/69006.got.cif
#   From: 2010.06.25/outbox.cif.g09.slc.cpg/sg71_35_cif.got.tgz:69006.got - 2010.06.28 04:59:45.
