data_PCOD8289483
_publ_section_title
;
Structure prediction by ZEFSAII (Michael W. Deem and Ramdas Pophale) SiO2 
 PCOD8289483
Probable space group: I M M M
;
_chemical_formula_sum "Si O2"
_cell_formula_units_Z 104
_cell_length_a 21.801287
_cell_length_b 9.217823
_cell_length_c 27.107368
_cell_angle_alpha 90.000000
_cell_angle_beta 90.000000
_cell_angle_gamma 90.000000
_cell_volume 5447.507645
_symmetry_space_group_name_H-M "I M M M"
_symmetry_group_IT_number 71
_symmetry_cell_setting 'orthorhombic'
loop_
_space_group_symop_operation_xyz
x,y,z
-x,-y,z
x,-y,-z
-x,y,-z
-x,-y,-z
x,y,-z
-x,y,z
x,-y,z
1/2+x,1/2+y,1/2+z
1/2-x,1/2-y,1/2+z
1/2+x,1/2-y,1/2-z
1/2-x,1/2+y,1/2-z
1/2-x,1/2-y,1/2-z
1/2+x,1/2+y,1/2-z
1/2-x,1/2+y,1/2+z
1/2+x,1/2-y,1/2+z
loop_
_atom_site_type_symbol
_atom_site_label
_atom_site_fract_x
_atom_site_fract_y
_atom_site_fract_z
Si Si1 0.221717 0.166258 0.418708
Si Si2 0.293326 0.664123 0.193271
Si Si3 0.156940 0.832973 0.943216
Si Si4 0.111049 0.342200 0.554925
Si Si5 0.656950 0.829230 0.278382
Si Si6 0.500000 0.338651 0.059109
Si Si7 0.070721 0.831662 0.146010
O O1 0.193344 0.178393 0.364231
O O2 0.289387 0.229589 0.424085
O O3 0.175731 0.260727 0.450997
O O4 0.223377 0.000000 0.436705
O O5 0.301206 0.500000 0.212445
O O6 0.341724 0.764581 0.222771
O O7 0.222835 0.713922 0.199348
O O8 0.098761 0.800878 0.908252
O O9 0.178174 0.000000 0.938292
O O10 0.139383 0.797180 0.000000
O O11 0.086992 0.370162 0.500000
O O12 0.117995 0.500000 0.581476
O O13 0.059716 0.243086 0.581155
O O14 0.604146 0.759266 0.311497
O O15 0.645264 0.000000 0.276446
O O16 0.500000 0.500000 0.081519
O O17 0.500000 0.348118 0.000000
O O18 0.000000 0.783288 0.144192
O O19 0.077518 0.000000 0.159795
#
# Coordination Sequence:
#
# PCOD8289483 Si02
#       7
#    16  16  16  16  16   8  16
#     4  11  21  34  53  80 112 145 182 226 279 336
#     4   9  19  34  54  81 110 138 171 215 271 331
#     4  10  21  36  54  79 113 151 193 241 287 333
#     4  10  20  33  50  74 105 141 180 221 267 321
#     4  10  19  34  57  84 109 136 174 222 273 327
#     4   9  17  31  51  73  97 131 177 221 261 311
#     4  10  21  37  58  82 111 151 194 236 286 342
#
# _framework density 19.091298999999999
#
# number of rings (size 3 to 8) (size 9 to 14) (size 15 to 20)
#    0.000    2.077    1.538    2.077    0.000    6.462 
#    0.000    1.538    1.692    0.000    0.000    2.154 
#    0.000    0.000    0.000    0.000    0.000    0.000 
#
# Total GULP energy -644642.991583 kJ/mol
# GULP energy per Si atom -12396.980607 kJ/mol
# Density = 1.904785 g / cm^3
# Si number density = 19.091299 Si / 1000 Ang^3
#
#
#
# Elastic Constant Matrix: (Units=GPa)
#
#
# Indices 1 2 3 4 5 6 
#
# 1 125.8889 72.3998 40.4836 0.0000 0.0000 0.0000
# 2 72.3998 137.4771 43.0224 0.0000 0.0000 0.0000
# 3 40.4836 43.0224 84.5620 0.0000 0.0000 0.0000
# 4 0.0000 0.0000 0.0000 23.4987 0.0000 0.0000
# 5 0.0000 0.0000 0.0000 0.0000 27.0605 0.0000
# 6 0.0000 0.0000 0.0000 0.0000 0.0000 29.3173
#
#
#
# Elastic Compliance Matrix: (Units=1/GPa)
#
#
# Indices 1 2 3 4 5 6 
#
# 1 0.012006 -0.005381 -0.003010 0.000000 0.000000 0.000000
# 2 -0.005381 0.011063 -0.003052 0.000000 0.000000 0.000000
# 3 -0.003010 -0.003052 0.014820 0.000000 0.000000 0.000000
# 4 0.000000 0.000000 0.000000 0.042555 0.000000 0.000000
# 5 0.000000 0.000000 0.000000 0.000000 0.036954 0.000000
# 6 0.000000 0.000000 0.000000 0.000000 0.000000 0.034110
#
#
# Mechanical properties :
#
#
# Convention : Reuss Voigt Hill
#
# Bulk Modulus (GPa) = 66.65870 73.30440 69.98155
# Shear Modulus (GPa) = 27.87140 28.77680 28.32410
#
# Velocity S-wave (km/s) = 3.82501 3.88664 3.85595
# Velocity P-wave (km/s) = 7.38235 7.65646 7.52066
#
# Compressibility (1/GPa) = 0.01500179
#
# Stress axis : x y z
#
# Youngs Moduli (GPa) = 83.29121 90.39283 67.47743
#
# Poissons Ratio (x) = 0.48638 0.20313
# Poissons Ratio (y) = 0.44817 0.20597
# Poissons Ratio (z) = 0.25073 0.27592
#
# Static dielectric constant tensor:
#      x y z
#    x 3.314360 0.000000 0.000000 
#    y 0.000000 3.674850 0.000000 
#    z 0.000000 0.000000 3.403450 
# 
# 
# High freq. dielectric constant tensor:
#      x y z
#    x 1.727190 0.000000 0.000000 
#    y 0.000000 1.753050 0.000000 
#    z 0.000000 0.000000 1.724420 
# 
# From -- ./inp_files/66405.got.cif
#   From: 2010.06.25/outbox.cif.g09.slc.cpg/sg71_34_cif.got.tgz:66405.got - 2010.06.28 04:59:45.
