data_PCOD8289849
_publ_section_title
;
Structure prediction by ZEFSAII (Michael W. Deem and Ramdas Pophale) SiO2 
 PCOD8289849
Probable space group: I M M M
;
_chemical_formula_sum "Si O2"
_cell_formula_units_Z 104
_cell_length_a 8.953439
_cell_length_b 26.364184
_cell_length_c 21.709524
_cell_angle_alpha 90.000000
_cell_angle_beta 90.000000
_cell_angle_gamma 90.000000
_cell_volume 5124.535598
_symmetry_space_group_name_H-M "I M M M"
_symmetry_group_IT_number 71
_symmetry_cell_setting 'orthorhombic'
loop_
_space_group_symop_operation_xyz
x,y,z
-x,-y,z
x,-y,-z
-x,y,-z
-x,-y,-z
x,y,-z
-x,y,z
x,-y,z
1/2+x,1/2+y,1/2+z
1/2-x,1/2-y,1/2+z
1/2+x,1/2-y,1/2-z
1/2-x,1/2+y,1/2-z
1/2-x,1/2-y,1/2-z
1/2+x,1/2+y,1/2-z
1/2-x,1/2+y,1/2+z
1/2+x,1/2-y,1/2+z
loop_
_atom_site_type_symbol
_atom_site_label
_atom_site_fract_x
_atom_site_fract_y
_atom_site_fract_z
Si Si1 0.666891 0.556335 0.845752
Si Si2 0.822739 0.000000 0.928492
Si Si3 0.175770 0.703130 0.432740
Si Si4 0.330250 0.125629 0.428370
Si Si5 0.176609 0.208320 0.649207
Si Si6 0.829897 0.139953 0.243596
Si Si7 0.174397 0.600229 0.624371
O O1 0.500000 0.559031 0.873650
O O2 0.707935 0.500000 0.823702
O O3 0.784323 0.572365 0.897970
O O4 0.678123 0.591326 0.786553
O O5 0.763488 0.049696 0.893365
O O6 0.000000 0.000000 0.923912
O O7 0.769684 0.000000 0.000000
O O8 0.241194 0.719560 0.500000
O O9 0.240320 0.737165 0.375384
O O10 0.211092 0.643626 0.425599
O O11 0.000000 0.712265 0.432666
O O12 0.305115 0.120353 0.500000
O O13 0.500000 0.139051 0.411291
O O14 0.222983 0.168934 0.402967
O O15 0.232037 0.189316 0.717222
O O16 0.000000 0.207935 0.653245
O O17 0.721381 0.126590 0.187990
O O18 0.000000 0.149072 0.220371
O O19 0.000000 0.586502 0.626887
#
# Coordination Sequence:
#
# PCOD8289849 Si02
#       7
#    16   8  16  16  16  16  16
#     4   9  19  35  54  74  98 138 188 237 284 337
#     4  11  25  45  67  89 117 155 196 241 294 347
#     4   9  18  34  58  87 117 149 190 240 287 335
#     4  10  20  32  47  73 109 144 179 228 290 343
#     4   9  18  35  59  82 107 149 197 234 275 332
#     4   9  19  35  55  82 115 150 189 236 286 336
#     4  11  23  38  60  91 121 153 192 236 290 350
#
# _framework density 20.294522000000001
#
# number of rings (size 3 to 8) (size 9 to 14) (size 15 to 20)
#    0.000    2.385    0.000    3.000    1.077    6.769 
#    0.000    3.077    0.000    3.692    0.000    0.000 
#    0.000    0.000    0.000    0.000    0.000    0.000 
#
# Total GULP energy -644361.543915 kJ/mol
# GULP energy per Si atom -12391.568152 kJ/mol
# Density = 2.024833 g / cm^3
# Si number density = 20.294522 Si / 1000 Ang^3
#
#
#
# Elastic Constant Matrix: (Units=GPa)
#
#
# Indices 1 2 3 4 5 6 
#
# 1 33.6081 15.8022 31.5907 0.0000 0.0000 0.0000
# 2 15.8022 116.6983 40.2943 0.0000 0.0000 0.0000
# 3 31.5907 40.2943 104.0486 -0.0001 0.0000 0.0000
# 4 0.0000 0.0000 -0.0001 20.0174 0.0000 0.0000
# 5 0.0000 0.0000 0.0000 0.0000 27.9321 0.0000
# 6 0.0000 0.0000 0.0000 0.0000 0.0000 5.0356
#
#
#
# Elastic Compliance Matrix: (Units=1/GPa)
#
#
# Indices 1 2 3 4 5 6 
#
# 1 0.041857 -0.001477 -0.012136 0.000000 0.000000 0.000000
# 2 -0.001477 0.009944 -0.003402 0.000000 0.000000 0.000000
# 3 -0.012136 -0.003402 0.014613 0.000000 0.000000 0.000000
# 4 0.000000 0.000000 0.000000 0.049956 0.000000 0.000000
# 5 0.000000 0.000000 0.000000 0.000000 0.035801 0.000000
# 6 0.000000 0.000000 0.000000 0.000000 0.000000 0.198585
#
#
# Mechanical properties :
#
#
# Convention : Reuss Voigt Hill
#
# Bulk Modulus (GPa) = 30.88117 47.74771 39.31444
# Shear Modulus (GPa) = 12.63957 21.70822 17.17389
#
# Velocity S-wave (km/s) = 2.49832 3.27411 2.91216
# Velocity P-wave (km/s) = 4.85507 6.15399 5.54271
#
# Compressibility (1/GPa) = 0.03238219
#
# Stress axis : x y z
#
# Youngs Moduli (GPa) = 23.89078 100.56362 68.43096
#
# Poissons Ratio (x) = 0.14858 0.83050
# Poissons Ratio (y) = 0.03530 0.23283
# Poissons Ratio (z) = 0.28995 0.34215
#
# Static dielectric constant tensor:
#      x y z
#    x 3.556070 0.000000 0.000000 
#    y 0.000000 4.012710 0.000000 
#    z 0.000000 0.000000 3.791460 
# 
# 
# High freq. dielectric constant tensor:
#      x y z
#    x 1.771140 0.000000 0.000000 
#    y 0.000000 1.801690 0.000000 
#    z 0.000000 0.000000 1.794370 
# 
# From -- ./inp_files/50887.got.cif
#   From: 2010.06.25/outbox.cif.g09.slc.cpg/sg71_26_cif.got.tgz:50887.got - 2010.06.28 04:59:45.
