data_PCOD8289979
_publ_section_title
;
Structure prediction by ZEFSAII (Michael W. Deem and Ramdas Pophale) SiO2 
 PCOD8289979
Probable space group: I M M M
;
_chemical_formula_sum "Si O2"
_cell_formula_units_Z 112
_cell_length_a 24.747185
_cell_length_b 28.918416
_cell_length_c 8.904664
_cell_angle_alpha 90.000000
_cell_angle_beta 90.000000
_cell_angle_gamma 90.000000
_cell_volume 6372.617366
_symmetry_space_group_name_H-M "I M M M"
_symmetry_group_IT_number 71
_symmetry_cell_setting 'orthorhombic'
loop_
_space_group_symop_operation_xyz
x,y,z
-x,-y,z
x,-y,-z
-x,y,-z
-x,-y,-z
x,y,-z
-x,y,z
x,-y,z
1/2+x,1/2+y,1/2+z
1/2-x,1/2-y,1/2+z
1/2+x,1/2-y,1/2-z
1/2-x,1/2+y,1/2-z
1/2-x,1/2-y,1/2-z
1/2+x,1/2+y,1/2-z
1/2-x,1/2+y,1/2+z
1/2+x,1/2-y,1/2+z
loop_
_atom_site_type_symbol
_atom_site_label
_atom_site_fract_x
_atom_site_fract_y
_atom_site_fract_z
Si Si1 0.439714 0.833911 0.671906
Si Si2 0.170359 0.626515 0.174234
Si Si3 0.746530 0.199251 0.178745
Si Si4 0.171294 0.878300 0.822713
Si Si5 0.063378 0.756655 0.335520
Si Si6 0.059491 0.150499 0.822361
Si Si7 0.760084 0.552602 0.321454
O O1 0.442888 0.817928 0.500000
O O2 0.500000 0.850133 0.725255
O O3 0.394982 0.873847 0.693390
O O4 0.416045 0.790712 0.763939
O O5 0.195395 0.671180 0.256958
O O6 0.189285 0.578531 0.247841
O O7 0.187182 0.628289 0.000000
O O8 0.750000 0.250000 0.250000
O O9 0.799971 0.169842 0.224822
O O10 0.740490 0.203658 0.000000
O O11 0.108936 0.881817 0.763538
O O12 0.205236 0.922261 0.763511
O O13 0.169876 0.880366 0.000000
O O14 0.090216 0.763757 0.500000
O O15 0.077705 0.798637 0.226600
O O16 0.000000 0.752971 0.353525
O O17 0.000000 0.136251 0.755616
O O18 0.055600 0.149621 0.000000
O O19 0.765762 0.555884 0.500000
O O20 0.758718 0.500000 0.265092
#
# Coordination Sequence:
#
# PCOD8289979 Si02
#       7
#    16  16  16  16  16  16  16
#     4   9  18  32  48  66  93 130 166 196 233 286
#     4  10  20  33  51  75  99 124 160 204 248 293
#     4  10  20  33  47  66  97 135 170 205 244 288
#     4   8  16  30  47  68  92 121 159 197 236 287
#     4   9  17  27  39  60  90 125 165 202 232 264
#     4   9  16  27  44  64  90 126 163 196 232 279
#     4   9  18  35  57  75  93 121 157 200 251 304
#
# _framework density 17.575195000000001
#
# number of rings (size 3 to 8) (size 9 to 14) (size 15 to 20)
#    0.000    2.857    0.000    2.143    2.000    3.143 
#    0.000    2.857    0.000    0.857    0.000    6.000 
#    0.000    0.000    0.000    8.714    0.000    9.429 
#
# Total GULP energy -693793.484028 kJ/mol
# GULP energy per Si atom -12389.169358 kJ/mol
# Density = 1.753519 g / cm^3
# Si number density = 17.575195 Si / 1000 Ang^3
#
#
#
# Elastic Constant Matrix: (Units=GPa)
#
#
# Indices 1 2 3 4 5 6 
#
# 1 125.3631 56.0066 25.9462 0.0000 0.0000 0.0000
# 2 56.0066 119.6148 26.7589 0.0000 0.0000 0.0000
# 3 25.9462 26.7589 43.2144 0.0000 0.0000 0.0000
# 4 0.0000 0.0000 0.0000 21.5618 0.0000 0.0000
# 5 0.0000 0.0000 0.0000 0.0000 18.2607 0.0000
# 6 0.0000 0.0000 0.0000 0.0000 0.0000 16.5883
#
#
#
# Elastic Compliance Matrix: (Units=1/GPa)
#
#
# Indices 1 2 3 4 5 6 
#
# 1 0.010604 -0.004110 -0.003822 0.000000 0.000000 0.000000
# 2 -0.004110 0.011298 -0.004528 0.000000 0.000000 0.000000
# 3 -0.003822 -0.004528 0.028239 0.000000 0.000000 0.000000
# 4 0.000000 0.000000 0.000000 0.046378 0.000000 0.000000
# 5 0.000000 0.000000 0.000000 0.000000 0.054763 0.000000
# 6 0.000000 0.000000 0.000000 0.000000 0.000000 0.060283
#
#
# Mechanical properties :
#
#
# Convention : Reuss Voigt Hill
#
# Bulk Modulus (GPa) = 39.64951 56.17950 47.91450
# Shear Modulus (GPa) = 20.41727 23.24753 21.83240
#
# Velocity S-wave (km/s) = 3.41208 3.64090 3.52835
# Velocity P-wave (km/s) = 6.17511 7.05050 6.62727
#
# Compressibility (1/GPa) = 0.02522099
#
# Stress axis : x y z
#
# Youngs Moduli (GPa) = 94.30391 88.51472 35.41237
#
# Poissons Ratio (x) = 0.36381 0.13533
# Poissons Ratio (y) = 0.38760 0.16034
# Poissons Ratio (z) = 0.36040 0.40078
#
# Static dielectric constant tensor:
#      x y z
#    x 3.700520 0.000000 0.000000 
#    y 0.000000 3.102170 0.000000 
#    z 0.000000 0.000000 3.285380 
# 
# 
# High freq. dielectric constant tensor:
#      x y z
#    x 1.686420 0.000000 0.000000 
#    y 0.000000 1.640220 0.000000 
#    z 0.000000 0.000000 1.670480 
# 
# From -- ./inp_files/27981.got.cif
#   From: 2010.06.25/outbox.cif.g09.slc.cpg/sg71_14_cif.got.tgz:27981.got - 2010.06.28 04:59:45.
