data_PCOD8289524
_publ_section_title
;
Structure prediction by ZEFSAII (Michael W. Deem and Ramdas Pophale) SiO2 
 PCOD8289524
Probable space group: I M M M
;
_chemical_formula_sum "Si O2"
_cell_formula_units_Z 96
_cell_length_a 17.435884
_cell_length_b 11.691808
_cell_length_c 27.437667
_cell_angle_alpha 90.000000
_cell_angle_beta 90.000000
_cell_angle_gamma 90.000000
_cell_volume 5593.360702
_symmetry_space_group_name_H-M "I M M M"
_symmetry_group_IT_number 71
_symmetry_cell_setting 'orthorhombic'
loop_
_space_group_symop_operation_xyz
x,y,z
-x,-y,z
x,-y,-z
-x,y,-z
-x,-y,-z
x,y,-z
-x,y,z
x,-y,z
1/2+x,1/2+y,1/2+z
1/2-x,1/2-y,1/2+z
1/2+x,1/2-y,1/2-z
1/2-x,1/2+y,1/2-z
1/2-x,1/2-y,1/2-z
1/2+x,1/2+y,1/2-z
1/2-x,1/2+y,1/2+z
1/2+x,1/2-y,1/2+z
loop_
_atom_site_type_symbol
_atom_site_label
_atom_site_fract_x
_atom_site_fract_y
_atom_site_fract_z
Si Si1 0.856702 0.264141 0.202146
Si Si2 0.587610 0.000000 0.686943
Si Si3 0.810922 0.291169 0.945754
Si Si4 0.413187 0.368984 0.611547
Si Si5 0.590979 0.000000 0.577571
Si Si6 0.223208 0.866278 0.354920
Si Si7 0.086402 0.867175 0.707691
O O1 0.890083 0.387757 0.216904
O O2 0.908039 0.206654 0.160219
O O3 0.770978 0.284931 0.182085
O O4 0.861606 0.187234 0.249875
O O5 0.500000 0.000000 0.675516
O O6 0.624786 0.000000 0.632731
O O7 0.852232 0.174980 0.928221
O O8 0.876260 0.387709 0.948040
O O9 0.740714 0.328549 0.910452
O O10 0.777227 0.272308 0.000000
O O11 0.500000 0.357820 0.591420
O O12 0.392970 0.500000 0.623902
O O13 0.500000 0.000000 0.572497
O O14 0.133013 0.846172 0.342765
O O15 0.243363 0.000000 0.346043
O O16 0.000000 0.815083 0.703893
O O17 0.079983 0.000000 0.719926
#
# Coordination Sequence:
#
# PCOD8289524 Si02
#       7
#    16   8  16  16   8  16  16
#     4  11  18  32  50  75 102 132 165 197 236 291
#     4  11  18  27  48  73 104 135 158 195 244 285
#     4  11  21  33  50  71  95 127 166 207 249 294
#     4  10  20  32  47  69 102 139 170 199 231 278
#     4  11  19  30  47  72 102 130 160 197 242 291
#     4  10  19  35  51  72 101 129 163 202 247 292
#     4  10  21  34  52  74  98 131 167 202 241 290
#
# _framework density 17.163205000000001
#
# number of rings (size 3 to 8) (size 9 to 14) (size 15 to 20)
#    0.000    1.500    5.000    3.250    0.000    3.333 
#    0.000    0.833    1.833    0.500    0.000    2.333 
#    0.000    0.000    0.000    6.000    0.000    0.000 
#
# Total GULP energy -594977.599546 kJ/mol
# GULP energy per Si atom -12395.366657 kJ/mol
# Density = 1.712414 g / cm^3
# Si number density = 17.163205 Si / 1000 Ang^3
#
#
#
# Elastic Constant Matrix: (Units=GPa)
#
#
# Indices 1 2 3 4 5 6 
#
# 1 80.9363 26.2646 50.4849 0.0000 0.0000 0.0000
# 2 26.2646 77.8022 19.4668 0.0000 0.0000 0.0000
# 3 50.4849 19.4668 97.3574 0.0000 0.0000 0.0000
# 4 0.0000 0.0000 0.0000 9.7964 0.0000 0.0000
# 5 0.0000 0.0000 0.0000 0.0000 14.5444 0.0000
# 6 0.0000 0.0000 0.0000 0.0000 0.0000 17.4359
#
#
#
# Elastic Compliance Matrix: (Units=1/GPa)
#
#
# Indices 1 2 3 4 5 6 
#
# 1 0.019524 -0.004271 -0.009270 0.000000 0.000000 0.000000
# 2 -0.004271 0.014465 -0.000677 0.000000 0.000000 0.000000
# 3 -0.009270 -0.000677 0.015214 0.000000 0.000000 0.000000
# 4 0.000000 0.000000 0.000000 0.102078 0.000000 0.000000
# 5 0.000000 0.000000 0.000000 0.000000 0.068755 0.000000
# 6 0.000000 0.000000 0.000000 0.000000 0.000000 0.057353
#
#
# Mechanical properties :
#
#
# Convention : Reuss Voigt Hill
#
# Bulk Modulus (GPa) = 48.15855 49.83649 48.99752
# Shear Modulus (GPa) = 15.98734 19.01399 17.50067
#
# Velocity S-wave (km/s) = 3.05534 3.33203 3.19668
# Velocity P-wave (km/s) = 6.36922 6.62594 6.49884
#
# Compressibility (1/GPa) = 0.02076475
#
# Stress axis : x y z
#
# Youngs Moduli (GPa) = 51.21957 69.13475 65.72963
#
# Poissons Ratio (x) = 0.29530 0.60931
# Poissons Ratio (y) = 0.21878 0.04452
# Poissons Ratio (z) = 0.47481 0.04682
#
# Static dielectric constant tensor:
#      x y z
#    x 3.141820 0.000000 0.000000 
#    y 0.000000 3.284780 0.000000 
#    z 0.000000 0.000000 3.060260 
# 
# 
# High freq. dielectric constant tensor:
#      x y z
#    x 1.644540 0.000000 0.000000 
#    y 0.000000 1.664820 0.000000 
#    z 0.000000 0.000000 1.635840 
# 
# From -- ./inp_files/69899.got.cif
#   From: 2010.06.25/outbox.cif.g09.slc.cpg/sg71_35_cif.got.tgz:69899.got - 2010.06.28 04:59:45.
