data_PCOD8289788
_publ_section_title
;
Structure prediction by ZEFSAII (Michael W. Deem and Ramdas Pophale) SiO2 
 PCOD8289788
Probable space group: I M M M
;
_chemical_formula_sum "Si O2"
_cell_formula_units_Z 104
_cell_length_a 17.874617
_cell_length_b 9.951480
_cell_length_c 33.061483
_cell_angle_alpha 90.000000
_cell_angle_beta 90.000000
_cell_angle_gamma 90.000000
_cell_volume 5880.940016
_symmetry_space_group_name_H-M "I M M M"
_symmetry_group_IT_number 71
_symmetry_cell_setting 'orthorhombic'
loop_
_space_group_symop_operation_xyz
x,y,z
-x,-y,z
x,-y,-z
-x,y,-z
-x,-y,-z
x,y,-z
-x,y,z
x,-y,z
1/2+x,1/2+y,1/2+z
1/2-x,1/2-y,1/2+z
1/2+x,1/2-y,1/2-z
1/2-x,1/2+y,1/2-z
1/2-x,1/2-y,1/2-z
1/2+x,1/2+y,1/2-z
1/2-x,1/2+y,1/2+z
1/2+x,1/2-y,1/2+z
loop_
_atom_site_type_symbol
_atom_site_label
_atom_site_fract_x
_atom_site_fract_y
_atom_site_fract_z
Si Si1 0.412195 0.152787 0.700751
Si Si2 0.581408 0.158993 0.000000
Si Si3 0.826763 0.659324 0.877829
Si Si4 0.839044 0.844785 0.356428
Si Si5 0.586091 0.346913 0.227462
Si Si6 0.084762 0.340174 0.045088
Si Si7 0.412091 0.147984 0.914535
O O1 0.500000 0.159062 0.694503
O O2 0.376593 0.209607 0.659608
O O3 0.386556 0.247347 0.737450
O O4 0.385664 0.000000 0.709982
O O5 0.623771 0.197191 0.957887
O O6 0.500000 0.230064 0.000000
O O7 0.571212 0.000000 0.000000
O O8 0.829434 0.500000 0.879688
O O9 0.742737 0.708776 0.869015
O O10 0.859638 0.718463 0.920176
O O11 0.856811 0.822694 0.309329
O O12 0.897984 0.756922 0.380559
O O13 0.849750 0.000000 0.368255
O O14 0.500000 0.316153 0.214510
O O15 0.592416 0.500000 0.243018
O O16 0.086449 0.500000 0.046461
O O17 0.000000 0.290661 0.053883
O O18 0.109907 0.291355 0.000000
O O19 0.500000 0.136038 0.921350
O O20 0.380763 0.000000 0.902050
#
# Coordination Sequence:
#
# PCOD8289788 Si02
#       7
#    16   8  16  16  16  16  16
#     4   9  17  30  50  72  91 116 155 202 243 276
#     4   7  12  26  47  67  85 109 146 191 236 274
#     4   9  17  29  43  64  97 128 153 188 237 287
#     4  10  20  32  45  66  98 132 157 185 234 289
#     4   9  18  32  47  63  88 123 159 192 232 285
#     4   8  13  23  42  66  91 123 160 192 227 278
#     4   9  17  31  51  70  88 117 160 204 238 273
#
# _framework density 17.684248
#
# number of rings (size 3 to 8) (size 9 to 14) (size 15 to 20)
#    0.000    3.154    0.000    2.308    0.000    4.000 
#    1.385    2.692    0.000    1.385    0.000    0.000 
#    0.000    0.000    0.000    7.385    0.000    7.077 
#
# Total GULP energy -644290.981033 kJ/mol
# GULP energy per Si atom -12390.211174 kJ/mol
# Density = 1.764400 g / cm^3
# Si number density = 17.684248 Si / 1000 Ang^3
#
#
#
# Elastic Constant Matrix: (Units=GPa)
#
#
# Indices 1 2 3 4 5 6 
#
# 1 58.5076 18.8222 51.5328 0.0000 0.0000 0.0000
# 2 18.8222 50.8188 52.6672 0.0000 0.0000 0.0000
# 3 51.5328 52.6672 143.6706 0.0000 0.0000 0.0000
# 4 0.0000 0.0000 0.0000 15.9039 0.0000 0.0000
# 5 0.0000 0.0000 0.0000 0.0000 18.1557 0.0000
# 6 0.0000 0.0000 0.0000 0.0000 0.0000 10.7342
#
#
#
# Elastic Compliance Matrix: (Units=1/GPa)
#
#
# Indices 1 2 3 4 5 6 
#
# 1 0.024985 0.000055 -0.008982 0.000000 0.000000 0.000000
# 2 0.000055 0.031734 -0.011653 0.000000 0.000000 0.000000
# 3 -0.008982 -0.011653 0.014454 0.000000 0.000000 0.000000
# 4 0.000000 0.000000 0.000000 0.062877 0.000000 0.000000
# 5 0.000000 0.000000 0.000000 0.000000 0.055079 0.000000
# 6 0.000000 0.000000 0.000000 0.000000 0.000000 0.093160
#
#
# Mechanical properties :
#
#
# Convention : Reuss Voigt Hill
#
# Bulk Modulus (GPa) = 33.31879 55.44903 44.38391
# Shear Modulus (GPa) = 14.99453 17.62375 16.30914
#
# Velocity S-wave (km/s) = 2.91504 3.16029 3.04014
# Velocity P-wave (km/s) = 5.49652 6.68877 6.12174
#
# Compressibility (1/GPa) = 0.03001310
#
# Stress axis : x y z
#
# Youngs Moduli (GPa) = 40.02332 31.51177 69.18589
#
# Poissons Ratio (x) = -0.00172 0.62143
# Poissons Ratio (y) = -0.00219 0.80621
# Poissons Ratio (z) = 0.35949 0.36720
#
# Static dielectric constant tensor:
#      x y z
#    x 3.173870 0.000000 0.000000 
#    y 0.000000 2.927590 0.000000 
#    z 0.000000 0.000000 3.594290 
# 
# 
# High freq. dielectric constant tensor:
#      x y z
#    x 1.664330 0.000000 0.000000 
#    y 0.000000 1.639320 0.000000 
#    z 0.000000 0.000000 1.698220 
# 
# From -- ./inp_files/70504.got.cif
#   From: 2010.06.25/outbox.cif.g09.slc.cpg/sg71_36_cif.got.tgz:70504.got - 2010.06.28 04:59:45.
