data_PCOD8289323
_publ_section_title
;
Structure prediction by ZEFSAII (Michael W. Deem and Ramdas Pophale) SiO2 
 PCOD8289323
Probable space group: I M M M
;
_chemical_formula_sum "Si O2"
_cell_formula_units_Z 72
_cell_length_a 15.669931
_cell_length_b 24.620404
_cell_length_c 10.505231
_cell_angle_alpha 90.000000
_cell_angle_beta 90.000000
_cell_angle_gamma 90.000000
_cell_volume 4052.918455
_symmetry_space_group_name_H-M "I M M M"
_symmetry_group_IT_number 71
_symmetry_cell_setting 'orthorhombic'
loop_
_space_group_symop_operation_xyz
x,y,z
-x,-y,z
x,-y,-z
-x,y,-z
-x,-y,-z
x,y,-z
-x,y,z
x,-y,z
1/2+x,1/2+y,1/2+z
1/2-x,1/2-y,1/2+z
1/2+x,1/2-y,1/2-z
1/2-x,1/2+y,1/2-z
1/2-x,1/2-y,1/2-z
1/2+x,1/2+y,1/2-z
1/2-x,1/2+y,1/2+z
1/2+x,1/2-y,1/2+z
loop_
_atom_site_type_symbol
_atom_site_label
_atom_site_fract_x
_atom_site_fract_y
_atom_site_fract_z
Si Si1 0.601029 0.226052 0.000000
Si Si2 0.901650 0.669394 0.000000
Si Si3 0.678169 0.058748 0.500000
Si Si4 0.598298 0.653429 0.000000
Si Si5 0.303633 0.195427 0.756244
Si Si6 0.304530 0.405628 0.789318
Si Si7 0.598090 0.500000 0.349725
O O1 0.641700 0.286945 0.000000
O O2 0.631336 0.195320 0.873627
O O3 0.500000 0.226071 0.000000
O O4 0.855087 0.692153 0.124333
O O5 0.895134 0.604012 0.000000
O O6 0.000000 0.687403 0.000000
O O7 0.736831 0.062520 0.624752
O O8 0.633027 0.000000 0.500000
O O9 0.622506 0.620514 0.124542
O O10 0.500000 0.663881 0.000000
O O11 0.250000 0.250000 0.750000
O O12 0.243116 0.143541 0.782397
O O13 0.351295 0.446370 0.693721
O O14 0.500000 0.500000 0.297758
O O15 0.597079 0.500000 0.500000
#
# Coordination Sequence:
#
# PCOD8289323 Si02
#       7
#     8   8   8   8  16  16   8
#     4  11  22  36  57  87 119 148 190 241 286 339
#     4  10  22  38  57  85 120 150 187 241 293 340
#     4   9  17  34  59  84 102 137 187 233 278 339
#     4  10  19  33  56  86 114 142 183 240 286 331
#     4  11  21  38  60  84 115 154 195 233 286 348
#     4  10  20  36  57  80 110 148 194 229 281 339
#     4  11  24  39  53  79 118 154 191 233 283 339
#
# _framework density 17.764976000000001
#
# number of rings (size 3 to 8) (size 9 to 14) (size 15 to 20)
#    0.000    1.667    3.333    2.667    1.556    0.222 
#    0.000    1.667    0.000    0.000    0.000    0.778 
#    0.000    0.000    0.000    0.000    0.000    0.000 
#
# Total GULP energy -446337.381543 kJ/mol
# GULP energy per Si atom -12398.260598 kJ/mol
# Density = 1.772454 g / cm^3
# Si number density = 17.764976 Si / 1000 Ang^3
#
#
#
# Elastic Constant Matrix: (Units=GPa)
#
#
# Indices 1 2 3 4 5 6 
#
# 1 98.5710 53.2420 46.6543 0.0000 -0.0007 0.0000
# 2 53.2420 136.3463 51.8598 0.0000 0.0007 0.0000
# 3 46.6543 51.8598 116.6326 0.0006 0.0071 0.0000
# 4 0.0000 0.0000 0.0006 36.3907 -0.0023 0.0000
# 5 -0.0007 0.0007 0.0071 -0.0023 -148.2732 0.0001
# 6 0.0000 0.0000 0.0000 0.0000 0.0001 26.4982
#
#
#
# Elastic Compliance Matrix: (Units=1/GPa)
#
#
# Indices 1 2 3 4 5 6 
#
# 1 0.014167 -0.004064 -0.003860 0.000000 0.000000 0.000000
# 2 -0.004064 0.009993 -0.002818 0.000000 0.000000 0.000000
# 3 -0.003860 -0.002818 0.011371 0.000000 0.000001 0.000000
# 4 0.000000 0.000000 0.000000 0.027480 0.000000 0.000000
# 5 0.000000 0.000000 0.000001 0.000000 -0.006744 0.000000
# 6 0.000000 0.000000 0.000000 0.000000 0.000000 0.037738
#
#
# Mechanical properties :
#
#
# Convention : Reuss Voigt Hill
#
# Bulk Modulus (GPa) = 71.18641 72.78466 71.98554
# Shear Modulus (GPa) = 41.60773 -3.75727 18.92523
#
# Velocity S-wave (km/s) = 4.84480 -1.45588 3.26745
# Velocity P-wave (km/s) = 8.45306 6.18334 7.40567
#
# Compressibility (1/GPa) = 0.01404762
#
# Stress axis : x y z
#
# Youngs Moduli (GPa) = 70.58659 100.07109 87.94461
#
# Poissons Ratio (x) = 0.40668 0.33946
# Poissons Ratio (y) = 0.28686 0.24780
# Poissons Ratio (z) = 0.27246 0.28196
#
# Static dielectric constant tensor:
#      x y z
#    x 3.216820 0.000000 0.000000 
#    y 0.000000 3.441320 0.000000 
#    z 0.000000 0.000000 3.317800 
# 
# 
# High freq. dielectric constant tensor:
#      x y z
#    x 1.685980 0.000000 0.000000 
#    y 0.000000 1.696150 0.000000 
#    z 0.000000 0.000000 1.684840 
# 
# From -- ./inp_files/6259.got.cif
#   From: 2010.06.25/outbox.cif.g09.slc.cpg/sg71_4_cif.got.tgz:6259.got - 2010.06.28 04:59:45.
