data_PCOD8289919
_publ_section_title
;
Structure prediction by ZEFSAII (Michael W. Deem and Ramdas Pophale) SiO2 
 PCOD8289919
Probable space group: I M M M
;
_chemical_formula_sum "Si O2"
_cell_formula_units_Z 96
_cell_length_a 30.401736
_cell_length_b 9.231112
_cell_length_c 18.726636
_cell_angle_alpha 90.000000
_cell_angle_beta 90.000000
_cell_angle_gamma 90.000000
_cell_volume 5255.477397
_symmetry_space_group_name_H-M "I M M M"
_symmetry_group_IT_number 71
_symmetry_cell_setting 'orthorhombic'
loop_
_space_group_symop_operation_xyz
x,y,z
-x,-y,z
x,-y,-z
-x,y,-z
-x,-y,-z
x,y,-z
-x,y,z
x,-y,z
1/2+x,1/2+y,1/2+z
1/2-x,1/2-y,1/2+z
1/2+x,1/2-y,1/2-z
1/2-x,1/2+y,1/2-z
1/2-x,1/2-y,1/2-z
1/2+x,1/2+y,1/2-z
1/2-x,1/2+y,1/2+z
1/2+x,1/2-y,1/2+z
loop_
_atom_site_type_symbol
_atom_site_label
_atom_site_fract_x
_atom_site_fract_y
_atom_site_fract_z
Si Si1 0.293218 0.330837 0.162657
Si Si2 0.122273 0.830194 0.918619
Si Si3 0.449107 0.165771 0.664984
Si Si4 0.294943 0.331486 0.327448
Si Si5 0.630040 0.169001 0.083434
Si Si6 0.451563 0.172175 0.174952
O O1 0.290900 0.500000 0.145125
O O2 0.305737 0.301197 0.244781
O O3 0.246270 0.260623 0.145303
O O4 0.328910 0.257975 0.112118
O O5 0.077916 0.757041 0.891798
O O6 0.163510 0.776260 0.872242
O O7 0.115843 0.000000 0.909925
O O8 0.130986 0.785121 0.000000
O O9 0.500000 0.182029 0.644804
O O10 0.440397 0.225941 0.745006
O O11 0.433845 0.000000 0.659737
O O12 0.284446 0.500000 0.341012
O O13 0.585588 0.228567 0.120751
O O14 0.637510 0.000000 0.100630
O O15 0.624752 0.197420 0.000000
O O16 0.500000 0.230975 0.151714
O O17 0.453352 0.000000 0.175215
#
# Coordination Sequence:
#
# PCOD8289919 Si02
#       6
#    16  16  16  16  16  16
#     4  10  20  34  54  77 100 130 168 209 250 295
#     4  10  21  35  51  73 101 132 164 201 247 296
#     4   9  18  33  53  75  99 130 167 206 247 291
#     4   9  19  36  55  75 100 130 167 209 251 297
#     4  10  20  32  49  75 105 136 167 203 251 301
#     4   8  15  30  52  76 100 128 167 211 248 287
#
# _framework density 18.266656999999999
#
# number of rings (size 3 to 8) (size 9 to 14) (size 15 to 20)
#    0.000    2.667    0.000    2.500    0.000    3.667 
#    0.000    5.000    0.000    1.500    0.000    1.167 
#    0.000    0.000    0.000    0.000    0.000    0.000 
#
# Total GULP energy -595250.935624 kJ/mol
# GULP energy per Si atom -12401.061159 kJ/mol
# Density = 1.822508 g / cm^3
# Si number density = 18.266657 Si / 1000 Ang^3
#
#
#
# Elastic Constant Matrix: (Units=GPa)
#
#
# Indices 1 2 3 4 5 6 
#
# 1 117.0523 46.3317 66.6238 0.0000 0.0000 0.0000
# 2 46.3317 47.7893 39.7948 0.0000 0.0000 0.0000
# 3 66.6238 39.7948 92.7539 0.0000 0.0000 0.0000
# 4 0.0000 0.0000 0.0000 25.3932 0.0000 0.0000
# 5 0.0000 0.0000 0.0000 0.0000 16.1093 0.0000
# 6 0.0000 0.0000 0.0000 0.0000 0.0000 24.0840
#
#
#
# Elastic Compliance Matrix: (Units=1/GPa)
#
#
# Indices 1 2 3 4 5 6 
#
# 1 0.016966 -0.009803 -0.007980 0.000000 0.000000 0.000000
# 2 -0.009803 0.038221 -0.009357 0.000000 0.000000 0.000000
# 3 -0.007980 -0.009357 0.020528 0.000000 0.000000 0.000000
# 4 0.000000 0.000000 0.000000 0.039381 0.000000 0.000000
# 5 0.000000 0.000000 0.000000 0.000000 0.062076 0.000000
# 6 0.000000 0.000000 0.000000 0.000000 0.000000 0.041521
#
#
# Mechanical properties :
#
#
# Convention : Reuss Voigt Hill
#
# Bulk Modulus (GPa) = 46.65483 62.56623 54.61053
# Shear Modulus (GPa) = 17.84971 20.10698 18.97835
#
# Velocity S-wave (km/s) = 3.12937 3.32135 3.22679
# Velocity P-wave (km/s) = 6.21721 7.00246 6.62149
#
# Compressibility (1/GPa) = 0.02143401
#
# Stress axis : x y z
#
# Youngs Moduli (GPa) = 58.94270 26.16391 48.71429
#
# Poissons Ratio (x) = 0.25648 0.38876
# Poissons Ratio (y) = 0.57780 0.45581
# Poissons Ratio (z) = 0.47039 0.24481
#
# Static dielectric constant tensor:
#      x y z
#    x 3.543880 0.000000 0.000000 
#    y 0.000000 3.142650 0.000000 
#    z 0.000000 0.000000 3.387480 
# 
# 
# High freq. dielectric constant tensor:
#      x y z
#    x 1.718610 0.000000 0.000000 
#    y 0.000000 1.685230 0.000000 
#    z 0.000000 0.000000 1.706430 
# 
# From -- ./inp_files/10888.got.cif
#   From: 2010.06.25/outbox.cif.g09.slc.cpg/sg71_6_cif.got.tgz:10888.got - 2010.06.28 04:59:45.
