data_PCOD8289903
_publ_section_title
;
Structure prediction by ZEFSAII (Michael W. Deem and Ramdas Pophale) SiO2 
 PCOD8289903
Probable space group: I M M M
;
_chemical_formula_sum "Si O2"
_cell_formula_units_Z 104
_cell_length_a 20.190209
_cell_length_b 31.792295
_cell_length_c 9.126448
_cell_angle_alpha 90.000000
_cell_angle_beta 90.000000
_cell_angle_gamma 90.000000
_cell_volume 5858.203822
_symmetry_space_group_name_H-M "I M M M"
_symmetry_group_IT_number 71
_symmetry_cell_setting 'orthorhombic'
loop_
_space_group_symop_operation_xyz
x,y,z
-x,-y,z
x,-y,-z
-x,y,-z
-x,-y,-z
x,y,-z
-x,y,z
x,-y,z
1/2+x,1/2+y,1/2+z
1/2-x,1/2-y,1/2+z
1/2+x,1/2-y,1/2-z
1/2-x,1/2+y,1/2-z
1/2-x,1/2-y,1/2-z
1/2+x,1/2+y,1/2-z
1/2-x,1/2+y,1/2+z
1/2+x,1/2-y,1/2+z
loop_
_atom_site_type_symbol
_atom_site_label
_atom_site_fract_x
_atom_site_fract_y
_atom_site_fract_z
Si Si1 0.137652 0.424541 0.166280
Si Si2 0.500000 0.952870 0.674105
Si Si3 0.816107 0.330798 0.167389
Si Si4 0.924874 0.723748 0.670162
Si Si5 0.575553 0.678041 0.166674
Si Si6 0.760419 0.046120 0.171167
Si Si7 0.191569 0.136053 0.826806
O O1 0.065293 0.430518 0.236744
O O2 0.150607 0.375663 0.176803
O O3 0.188828 0.452538 0.255630
O O4 0.140781 0.441009 0.000000
O O5 0.500000 0.949740 0.500000
O O6 0.500000 0.000000 0.731405
O O7 0.867971 0.298496 0.236654
O O8 0.746519 0.333446 0.253614
O O9 0.801661 0.317192 0.000000
O O10 0.914523 0.712818 0.500000
O O11 0.915637 0.772937 0.699357
O O12 0.000000 0.710434 0.717646
O O13 0.500000 0.664345 0.193654
O O14 0.619670 0.650965 0.276858
O O15 0.596654 0.668079 0.000000
O O16 0.802488 0.086855 0.224161
O O17 0.792914 0.000000 0.209559
O O18 0.749103 0.049951 0.000000
O O19 0.198890 0.140555 0.000000
#
# Coordination Sequence:
#
# PCOD8289903 Si02
#       7
#    16   8  16  16  16  16  16
#     4   9  18  30  45  66  93 127 167 209 250 293
#     4   9  16  26  41  61  87 121 161 205 251 293
#     4  10  20  32  49  73 102 135 173 215 255 295
#     4   9  19  35  53  73 100 136 174 210 252 302
#     4   9  19  37  58  78 102 131 163 203 252 304
#     4   9  18  33  51  71  98 129 161 201 247 294
#     4  10  20  34  54  78 104 132 167 208 250 301
#
# _framework density 17.752882
#
# number of rings (size 3 to 8) (size 9 to 14) (size 15 to 20)
#    0.000    2.692    0.000    2.308    1.077    4.000 
#    0.000    1.923    0.000    1.846    0.000    3.231 
#    0.000    0.000    0.000    0.000    0.000    0.000 
#
# Total GULP energy -644526.472633 kJ/mol
# GULP energy per Si atom -12394.739858 kJ/mol
# Density = 1.771248 g / cm^3
# Si number density = 17.752882 Si / 1000 Ang^3
#
#
#
# Elastic Constant Matrix: (Units=GPa)
#
#
# Indices 1 2 3 4 5 6 
#
# 1 103.3630 51.1935 43.0524 0.0000 0.0001 0.0001
# 2 51.1935 71.1584 39.4181 0.0000 0.0004 0.0000
# 3 43.0524 39.4181 60.3308 -0.0009 -0.0037 -0.0005
# 4 0.0000 0.0000 -0.0009 22.8419 -0.0003 0.0000
# 5 0.0001 0.0004 -0.0037 -0.0003 24.0338 -0.0002
# 6 0.0001 0.0000 -0.0005 0.0000 -0.0002 17.4765
#
#
#
# Elastic Compliance Matrix: (Units=1/GPa)
#
#
# Indices 1 2 3 4 5 6 
#
# 1 0.016414 -0.008338 -0.006265 0.000000 -0.000001 0.000000
# 2 -0.008338 0.026260 -0.011207 0.000000 -0.000002 0.000000
# 3 -0.006265 -0.011207 0.028369 0.000001 0.000005 0.000001
# 4 0.000000 0.000000 0.000001 0.043779 0.000001 0.000000
# 5 -0.000001 -0.000002 0.000005 0.000001 0.041608 0.000000
# 6 0.000000 0.000000 0.000001 0.000000 0.000000 0.057220
#
#
# Mechanical properties :
#
#
# Convention : Reuss Voigt Hill
#
# Bulk Modulus (GPa) = 51.48968 55.79780 53.64374
# Shear Modulus (GPa) = 18.39961 19.61631 19.00796
#
# Velocity S-wave (km/s) = 3.22285 3.32771 3.27570
# Velocity P-wave (km/s) = 6.55100 6.80172 6.67753
#
# Compressibility (1/GPa) = 0.01942137
#
# Stress axis : x y z
#
# Youngs Moduli (GPa) = 60.92408 38.08059 35.25002
#
# Poissons Ratio (x) = 0.31752 0.22085
# Poissons Ratio (y) = 0.50799 0.39506
# Poissons Ratio (z) = 0.38171 0.42679
#
# Static dielectric constant tensor:
#      x y z
#    x 3.286050 0.000000 0.000000 
#    y 0.000000 3.389650 0.000000 
#    z 0.000000 0.000000 3.242200 
# 
# 
# High freq. dielectric constant tensor:
#      x y z
#    x 1.678700 0.000000 0.000000 
#    y 0.000000 1.685460 0.000000 
#    z 0.000000 0.000000 1.679280 
# 
# From -- ./inp_files/11457.got.cif
#   From: 2010.06.25/outbox.cif.g09.slc.cpg/sg71_6_cif.got.tgz:11457.got - 2010.06.28 04:59:45.
