data_PCOD8289898
_publ_section_title
;
Structure prediction by ZEFSAII (Michael W. Deem and Ramdas Pophale) SiO2 
 PCOD8289898
Probable space group: I M M M
;
_chemical_formula_sum "Si O2"
_cell_formula_units_Z 88
_cell_length_a 13.024529
_cell_length_b 24.436052
_cell_length_c 15.355866
_cell_angle_alpha 90.000000
_cell_angle_beta 90.000000
_cell_angle_gamma 90.000000
_cell_volume 4887.281803
_symmetry_space_group_name_H-M "I M M M"
_symmetry_group_IT_number 71
_symmetry_cell_setting 'orthorhombic'
loop_
_space_group_symop_operation_xyz
x,y,z
-x,-y,z
x,-y,-z
-x,y,-z
-x,-y,-z
x,y,-z
-x,y,z
x,-y,z
1/2+x,1/2+y,1/2+z
1/2-x,1/2-y,1/2+z
1/2+x,1/2-y,1/2-z
1/2-x,1/2+y,1/2-z
1/2-x,1/2-y,1/2-z
1/2+x,1/2+y,1/2-z
1/2-x,1/2+y,1/2+z
1/2+x,1/2-y,1/2+z
loop_
_atom_site_type_symbol
_atom_site_label
_atom_site_fract_x
_atom_site_fract_y
_atom_site_fract_z
Si Si1 0.304219 0.437717 0.181484
Si Si2 0.784675 0.341649 0.400850
Si Si3 0.882958 0.163113 0.762334
Si Si4 0.119406 0.772506 0.404247
Si Si5 0.884854 0.064602 0.500000
Si Si6 0.882607 0.437702 0.704529
O O1 0.341899 0.500000 0.191510
O O2 0.375674 0.401919 0.244958
O O3 0.321070 0.415618 0.083682
O O4 0.184368 0.431067 0.207215
O O5 0.750579 0.351548 0.500000
O O6 0.683850 0.323801 0.347223
O O7 0.864417 0.292100 0.391699
O O8 0.839711 0.396790 0.368258
O O9 0.833868 0.194245 0.677864
O O10 0.000000 0.180648 0.781082
O O11 0.164236 0.790875 0.500000
O O12 0.000000 0.785109 0.403785
O O13 0.000000 0.090398 0.500000
O O14 0.894427 0.000000 0.500000
O O15 0.872987 0.500000 0.668888
O O16 0.000000 0.423480 0.727950
#
# Coordination Sequence:
#
# PCOD8289898 Si02
#       6
#    16  16  16  16   8  16
#     4   9  18  31  47  71 101 131 162 199 245 291
#     4  10  20  34  51  71  98 130 163 203 249 294
#     4  10  20  32  49  72  99 132 166 201 240 288
#     4   9  18  32  51  75  98 121 156 202 250 295
#     4   9  16  26  43  67  95 129 166 198 230 276
#     4   9  18  33  52  73  97 125 160 203 250 298
#
# _framework density 18.005918999999999
#
# number of rings (size 3 to 8) (size 9 to 14) (size 15 to 20)
#    0.000    2.636    0.000    1.636    1.273    2.909 
#    0.000    1.364    0.000    2.727    0.000    5.091 
#    0.000    0.000    0.000    0.000    0.000    0.000 
#
# Total GULP energy -545343.584663 kJ/mol
# GULP energy per Si atom -12394.172379 kJ/mol
# Density = 1.796494 g / cm^3
# Si number density = 18.005919 Si / 1000 Ang^3
#
#
#
# Elastic Constant Matrix: (Units=GPa)
#
#
# Indices 1 2 3 4 5 6 
#
# 1 82.2575 25.0936 58.4938 0.0000 0.0000 0.0000
# 2 25.0936 59.6296 40.8026 0.0004 0.0000 0.0000
# 3 58.4938 40.8026 137.1355 0.0005 0.0000 0.0000
# 4 0.0000 0.0004 0.0005 26.7485 0.0000 0.0000
# 5 0.0000 0.0000 0.0000 0.0000 23.3972 0.0000
# 6 0.0000 0.0000 0.0000 0.0000 0.0000 19.8720
#
#
#
# Elastic Compliance Matrix: (Units=1/GPa)
#
#
# Indices 1 2 3 4 5 6 
#
# 1 0.017837 -0.002888 -0.006749 0.000000 0.000000 0.000000
# 2 -0.002888 0.021525 -0.005172 0.000000 0.000000 0.000000
# 3 -0.006749 -0.005172 0.011710 0.000000 0.000000 0.000000
# 4 0.000000 0.000000 0.000000 0.037385 0.000000 0.000000
# 5 0.000000 0.000000 0.000000 0.000000 0.042740 0.000000
# 6 0.000000 0.000000 0.000000 0.000000 0.000000 0.050322
#
#
# Mechanical properties :
#
#
# Convention : Reuss Voigt Hill
#
# Bulk Modulus (GPa) = 46.61435 58.64473 52.62954
# Shear Modulus (GPa) = 22.90533 24.31237 23.60885
#
# Velocity S-wave (km/s) = 3.57052 3.67855 3.62494
# Velocity P-wave (km/s) = 6.55307 7.11918 6.84198
#
# Compressibility (1/GPa) = 0.02145262
#
# Stress axis : x y z
#
# Youngs Moduli (GPa) = 56.06243 46.45757 85.39892
#
# Poissons Ratio (x) = 0.13418 0.57635
# Poissons Ratio (y) = 0.16192 0.44172
# Poissons Ratio (z) = 0.37836 0.24030
#
# Static dielectric constant tensor:
#      x y z
#    x 3.220840 0.000000 0.000000 
#    y 0.000000 3.398930 0.000000 
#    z 0.000000 0.000000 3.506710 
# 
# 
# High freq. dielectric constant tensor:
#      x y z
#    x 1.676130 0.000000 0.000000 
#    y 0.000000 1.707000 0.000000 
#    z 0.000000 0.000000 1.692050 
# 
# From -- ./inp_files/21994.got.cif
#   From: 2010.06.25/outbox.cif.g09.slc.cpg/sg71_11_cif.got.tgz:21994.got - 2010.06.28 04:59:45.
