data_PCOD8289224
_publ_section_title
;
Structure prediction by ZEFSAII (Michael W. Deem and Ramdas Pophale) SiO2 
 PCOD8289224
Probable space group: I M M M
;
_chemical_formula_sum "Si O2"
_cell_formula_units_Z 72
_cell_length_a 23.573098
_cell_length_b 17.786200
_cell_length_c 9.392997
_cell_angle_alpha 90.000000
_cell_angle_beta 90.000000
_cell_angle_gamma 90.000000
_cell_volume 3938.256666
_symmetry_space_group_name_H-M "I M M M"
_symmetry_group_IT_number 71
_symmetry_cell_setting 'orthorhombic'
loop_
_space_group_symop_operation_xyz
x,y,z
-x,-y,z
x,-y,-z
-x,y,-z
-x,-y,-z
x,y,-z
-x,y,z
x,-y,z
1/2+x,1/2+y,1/2+z
1/2-x,1/2-y,1/2+z
1/2+x,1/2-y,1/2-z
1/2-x,1/2+y,1/2-z
1/2-x,1/2-y,1/2-z
1/2+x,1/2+y,1/2-z
1/2-x,1/2+y,1/2+z
1/2+x,1/2-y,1/2+z
loop_
_atom_site_type_symbol
_atom_site_label
_atom_site_fract_x
_atom_site_fract_y
_atom_site_fract_z
Si Si1 0.064210 0.500000 0.830194
Si Si2 0.933582 0.797618 0.166519
Si Si3 0.138321 0.086797 0.667441
Si Si4 0.876310 0.353691 0.165600
Si Si5 0.250064 0.325913 0.835777
O O1 0.093038 0.425488 0.764313
O O2 0.000000 0.500000 0.779618
O O3 0.070602 0.500000 0.000000
O O4 0.911507 0.870438 0.250004
O O5 0.900392 0.724625 0.229003
O O6 0.000000 0.786981 0.195985
O O7 0.920982 0.809670 0.000000
O O8 0.128322 0.096685 0.500000
O O9 0.199656 0.119149 0.713884
O O10 0.136265 0.000000 0.712662
O O11 0.809772 0.366183 0.193295
O O12 0.891431 0.351208 0.000000
O O13 0.250000 0.250000 0.750000
O O14 0.256903 0.304336 0.000000
#
# Coordination Sequence:
#
# PCOD8289224 Si02
#       5
#     8  16  16  16  16
#     4   9  16  26  44  74 109 139 166 203 256 312
#     4  10  20  35  55  78 104 136 177 221 265 314
#     4  10  22  37  53  77 108 139 175 219 264 313
#     4   9  17  29  48  75 106 136 167 210 259 307
#     4  10  19  33  54  77 102 133 170 211 257 306
#
# _framework density 18.2822
#
# number of rings (size 3 to 8) (size 9 to 14) (size 15 to 20)
#    0.000    2.333    2.222    0.667    1.556    4.000 
#    0.000    2.222    0.000    0.000    0.000    2.333 
#    0.000    5.333    0.000    0.000    0.000    0.000 
#
# Total GULP energy -446390.616394 kJ/mol
# GULP energy per Si atom -12399.739344 kJ/mol
# Density = 1.824059 g / cm^3
# Si number density = 18.282200 Si / 1000 Ang^3
#
#
#
# Elastic Constant Matrix: (Units=GPa)
#
#
# Indices 1 2 3 4 5 6 
#
# 1 87.7737 41.6294 24.1385 0.0000 0.0000 0.0000
# 2 41.6294 140.8687 30.5539 0.0000 0.0000 0.0000
# 3 24.1385 30.5539 23.8126 0.0000 0.0000 0.0000
# 4 0.0000 0.0000 0.0000 22.5942 0.0000 0.0000
# 5 0.0000 0.0000 0.0000 0.0000 23.5448 0.0000
# 6 0.0000 0.0000 0.0000 0.0000 0.0000 36.9876
#
#
#
# Elastic Compliance Matrix: (Units=1/GPa)
#
#
# Indices 1 2 3 4 5 6 
#
# 1 0.016080 -0.001686 -0.014138 0.000000 0.000000 0.000000
# 2 -0.001686 0.010013 -0.011139 0.000000 0.000000 0.000000
# 3 -0.014138 -0.011139 0.070618 0.000000 0.000000 0.000000
# 4 0.000000 0.000000 0.000000 0.044259 0.000000 0.000000
# 5 0.000000 0.000000 0.000000 0.000000 0.042472 0.000000
# 6 0.000000 0.000000 0.000000 0.000000 0.000000 0.027036
#
#
# Mechanical properties :
#
#
# Convention : Reuss Voigt Hill
#
# Bulk Modulus (GPa) = 23.37159 49.45540 36.41349
# Shear Modulus (GPa) = 17.94268 27.03419 22.48843
#
# Velocity S-wave (km/s) = 3.13617 3.84958 3.51104
# Velocity P-wave (km/s) = 5.09173 6.84608 6.03301
#
# Compressibility (1/GPa) = 0.04278699
#
# Stress axis : x y z
#
# Youngs Moduli (GPa) = 62.18758 99.87086 14.16071
#
# Poissons Ratio (x) = 0.16835 0.20020
# Poissons Ratio (y) = 0.10483 0.15773
# Poissons Ratio (z) = 0.87918 1.11245
#
# Static dielectric constant tensor:
#      x y z
#    x 3.858240 0.000000 0.000000 
#    y 0.000000 4.027880 0.000000 
#    z 0.000000 0.000000 2.975310 
# 
# 
# High freq. dielectric constant tensor:
#      x y z
#    x 1.724110 0.000000 0.000000 
#    y 0.000000 1.717850 0.000000 
#    z 0.000000 0.000000 1.660750 
# 
# From -- ./inp_files/7985.got.cif
#   From: 2010.06.25/outbox.cif.g09.slc.cpg/sg71_4_cif.got.tgz:7985.got - 2010.06.28 04:59:45.
