data_PCOD8289038
_publ_section_title
;
Structure prediction by ZEFSAII (Michael W. Deem and Ramdas Pophale) SiO2 
 PCOD8289038
Probable space group: I M M M
;
_chemical_formula_sum "Si O2"
_cell_formula_units_Z 104
_cell_length_a 19.916314
_cell_length_b 8.894549
_cell_length_c 32.134048
_cell_angle_alpha 90.000000
_cell_angle_beta 90.000000
_cell_angle_gamma 90.000000
_cell_volume 5692.438336
_symmetry_space_group_name_H-M "I M M M"
_symmetry_group_IT_number 71
_symmetry_cell_setting 'orthorhombic'
loop_
_space_group_symop_operation_xyz
x,y,z
-x,-y,z
x,-y,-z
-x,y,-z
-x,-y,-z
x,y,-z
-x,y,z
x,-y,z
1/2+x,1/2+y,1/2+z
1/2-x,1/2-y,1/2+z
1/2+x,1/2-y,1/2-z
1/2-x,1/2+y,1/2-z
1/2-x,1/2-y,1/2-z
1/2+x,1/2+y,1/2-z
1/2-x,1/2+y,1/2+z
1/2+x,1/2-y,1/2+z
loop_
_atom_site_type_symbol
_atom_site_label
_atom_site_fract_x
_atom_site_fract_y
_atom_site_fract_z
Si Si1 0.822686 0.177920 0.630298
Si Si2 0.206302 0.676096 0.546555
Si Si3 0.175233 0.670497 0.156857
Si Si4 0.923270 0.163497 0.000000
Si Si5 0.423306 0.676038 0.720123
Si Si6 0.344044 0.829240 0.436571
Si Si7 0.578125 0.172823 0.807043
O O1 0.833959 0.241587 0.583648
O O2 0.752006 0.229166 0.651385
O O3 0.883249 0.233821 0.658273
O O4 0.822865 0.000000 0.626425
O O5 0.177791 0.713971 0.500000
O O6 0.201778 0.500000 0.555124
O O7 0.282709 0.727808 0.548602
O O8 0.174260 0.500000 0.174382
O O9 0.131621 0.777243 0.186215
O O10 0.140363 0.678415 0.112120
O O11 0.908148 0.261561 0.040762
O O12 0.000000 0.128668 0.000000
O O13 0.886005 0.000000 0.000000
O O14 0.500000 0.716267 0.706212
O O15 0.416539 0.500000 0.728647
O O16 0.404187 0.762682 0.761979
O O17 0.329287 0.000000 0.450256
O O18 0.500000 0.191672 0.816925
O O19 0.600823 0.000000 0.808501
#
# Coordination Sequence:
#
# PCOD8289038 Si02
#       7
#    16  16  16   8  16  16  16
#     4  10  21  36  56  84 114 144 182 225 271 323
#     4  10  19  32  54  81 109 140 175 216 265 320
#     4   9  20  36  53  78 108 140 179 224 273 323
#     4  11  23  35  47  67  97 135 180 227 276 329
#     4  10  21  36  55  79 106 142 186 227 272 326
#     4  10  20  34  52  72  99 135 177 224 272 322
#     4  10  21  38  60  83 109 143 180 220 270 329
#
# _framework density 18.269852
#
# number of rings (size 3 to 8) (size 9 to 14) (size 15 to 20)
#    0.000    2.077    0.769    3.462    0.000    8.308 
#    0.000    3.077    0.000    0.462    0.000    3.231 
#    0.000    0.000    0.000    0.000    0.000    0.000 
#
# Total GULP energy -644666.034344 kJ/mol
# GULP energy per Si atom -12397.423737 kJ/mol
# Density = 1.822827 g / cm^3
# Si number density = 18.269852 Si / 1000 Ang^3
#
#
#
# Elastic Constant Matrix: (Units=GPa)
#
#
# Indices 1 2 3 4 5 6 
#
# 1 56.9849 33.9291 51.0572 0.0000 0.0000 0.0000
# 2 33.9291 84.8483 50.0688 0.0000 0.0000 0.0000
# 3 51.0572 50.0688 111.9994 0.0000 0.0000 0.0000
# 4 0.0000 0.0000 0.0000 35.1033 0.0000 0.0000
# 5 0.0000 0.0000 0.0000 0.0000 57.3087 0.0000
# 6 0.0000 0.0000 0.0000 0.0000 0.0000 27.1641
#
#
#
# Elastic Compliance Matrix: (Units=1/GPa)
#
#
# Indices 1 2 3 4 5 6 
#
# 1 0.031510 -0.005601 -0.011861 0.000000 0.000000 0.000000
# 2 -0.005601 0.017005 -0.005048 0.000000 0.000000 0.000000
# 3 -0.011861 -0.005048 0.016592 0.000000 0.000000 0.000000
# 4 0.000000 0.000000 0.000000 0.028487 0.000000 0.000000
# 5 0.000000 0.000000 0.000000 0.000000 0.017449 0.000000
# 6 0.000000 0.000000 0.000000 0.000000 0.000000 0.036813
#
#
# Mechanical properties :
#
#
# Convention : Reuss Voigt Hill
#
# Bulk Modulus (GPa) = 49.78411 58.21587 53.99999
# Shear Modulus (GPa) = 25.05340 31.83372 28.44356
#
# Velocity S-wave (km/s) = 3.70712 4.17876 3.94998
# Velocity P-wave (km/s) = 6.75516 7.43077 7.10100
#
# Compressibility (1/GPa) = 0.02008673
#
# Stress axis : x y z
#
# Youngs Moduli (GPa) = 31.73551 58.80742 60.26885
#
# Poissons Ratio (x) = 0.32941 0.71482
# Poissons Ratio (y) = 0.17777 0.30426
# Poissons Ratio (z) = 0.37640 0.29688
#
# Static dielectric constant tensor:
#      x y z
#    x 3.161510 0.000000 0.000000 
#    y 0.000000 3.518810 0.000000 
#    z 0.000000 0.000000 3.464200 
# 
# 
# High freq. dielectric constant tensor:
#      x y z
#    x 1.681150 0.000000 0.000000 
#    y 0.000000 1.725310 0.000000 
#    z 0.000000 0.000000 1.714600 
# 
# From -- ./inp_files/70776.got.cif
#   From: 2010.06.25/outbox.cif.g09.slc.cpg/sg71_36_cif.got.tgz:70776.got - 2010.06.28 04:59:45.
