data_PCOD8289674
_publ_section_title
;
Structure prediction by ZEFSAII (Michael W. Deem and Ramdas Pophale) SiO2 
 PCOD8289674
Probable space group: I M M M
;
_chemical_formula_sum "Si O2"
_cell_formula_units_Z 80
_cell_length_a 17.948924
_cell_length_b 9.201232
_cell_length_c 22.955051
_cell_angle_alpha 90.000000
_cell_angle_beta 90.000000
_cell_angle_gamma 90.000000
_cell_volume 3791.077492
_symmetry_space_group_name_H-M "I M M M"
_symmetry_group_IT_number 71
_symmetry_cell_setting 'orthorhombic'
loop_
_space_group_symop_operation_xyz
x,y,z
-x,-y,z
x,-y,-z
-x,y,-z
-x,-y,-z
x,y,-z
-x,y,z
x,-y,z
1/2+x,1/2+y,1/2+z
1/2-x,1/2-y,1/2+z
1/2+x,1/2-y,1/2-z
1/2-x,1/2+y,1/2-z
1/2-x,1/2-y,1/2-z
1/2+x,1/2+y,1/2-z
1/2-x,1/2+y,1/2+z
1/2+x,1/2-y,1/2+z
loop_
_atom_site_type_symbol
_atom_site_label
_atom_site_fract_x
_atom_site_fract_y
_atom_site_fract_z
Si Si1 0.727349 0.672645 0.649713
Si Si2 0.000000 0.834955 0.930550
Si Si3 0.877054 0.832768 0.342289
Si Si4 0.418943 0.666776 0.285765
Si Si5 0.000000 0.172629 0.566928
Si Si6 0.858515 0.337334 0.931584
O O1 0.731403 0.500000 0.646527
O O2 0.805817 0.732940 0.670806
O O3 0.657995 0.736098 0.688792
O O4 0.714661 0.746048 0.586193
O O5 0.072069 0.753117 0.905343
O O6 0.000000 0.000000 0.908112
O O7 0.000000 0.828845 0.000000
O O8 0.924802 0.816660 0.283820
O O9 0.926131 0.776238 0.397536
O O10 0.852356 0.000000 0.352394
O O11 0.500000 0.726151 0.310181
O O12 0.412685 0.500000 0.303644
O O13 0.000000 0.233638 0.500000
O O14 0.000000 0.000000 0.565978
O O15 0.858236 0.500000 0.905339
O O16 0.863288 0.346429 0.000000
#
# Coordination Sequence:
#
# PCOD8289674 Si02
#       6
#    16   8  16  16   8  16
#     4  11  23  35  55  87 121 154 197 249 303 366
#     4   9  17  31  52  75 102 140 183 227 280 337
#     4  10  19  37  62  84 115 155 195 244 302 361
#     4   9  18  35  59  85 113 153 203 248 295 353
#     4   9  18  34  62  95 116 144 198 251 294 354
#     4  10  21  37  55  77 110 152 197 242 287 342
#
# _framework density 21.102181000000002
#
# number of rings (size 3 to 8) (size 9 to 14) (size 15 to 20)
#    0.000    2.200    1.000    2.100    1.400    3.200 
#    0.000    3.500    0.000    3.000    0.000    0.000 
#    0.000    0.000    0.000    0.000    0.000    0.000 
#
# Total GULP energy -495610.256074 kJ/mol
# GULP energy per Si atom -12390.256402 kJ/mol
# Density = 2.105415 g / cm^3
# Si number density = 21.102181 Si / 1000 Ang^3
#
#
#
# Elastic Constant Matrix: (Units=GPa)
#
#
# Indices 1 2 3 4 5 6 
#
# 1 150.6545 48.2176 45.8193 0.0000 0.0000 0.0000
# 2 48.2176 101.5039 22.1486 0.0000 0.0000 0.0000
# 3 45.8193 22.1486 63.2054 0.0000 0.0000 0.0000
# 4 0.0000 0.0000 0.0000 17.7144 0.0000 0.0000
# 5 0.0000 0.0000 0.0000 0.0000 27.9006 0.0000
# 6 0.0000 0.0000 0.0000 0.0000 0.0000 27.0796
#
#
#
# Elastic Compliance Matrix: (Units=1/GPa)
#
#
# Indices 1 2 3 4 5 6 
#
# 1 0.009398 -0.003224 -0.005683 0.000000 0.000000 0.000000
# 2 -0.003224 0.011774 -0.001788 0.000000 0.000000 0.000000
# 3 -0.005683 -0.001788 0.020568 0.000000 0.000000 0.000000
# 4 0.000000 0.000000 0.000000 0.056451 0.000000 0.000000
# 5 0.000000 0.000000 0.000000 0.000000 0.035842 0.000000
# 6 0.000000 0.000000 0.000000 0.000000 0.000000 0.036928
#
#
# Mechanical properties :
#
#
# Convention : Reuss Voigt Hill
#
# Bulk Modulus (GPa) = 49.14431 60.85941 55.00186
# Shear Modulus (GPa) = 25.10860 27.81747 26.46304
#
# Velocity S-wave (km/s) = 3.45317 3.63468 3.54509
# Velocity P-wave (km/s) = 6.26407 6.82037 6.54813
#
# Compressibility (1/GPa) = 0.02034823
#
# Stress axis : x y z
#
# Youngs Moduli (GPa) = 106.40480 84.93492 48.61941
#
# Poissons Ratio (x) = 0.27386 0.27631
# Poissons Ratio (y) = 0.34308 0.08695
# Poissons Ratio (z) = 0.60470 0.15190
#
# Static dielectric constant tensor:
#      x y z
#    x 4.099000 0.000000 0.000000 
#    y 0.000000 3.606270 0.000000 
#    z 0.000000 0.000000 3.922270 
# 
# 
# High freq. dielectric constant tensor:
#      x y z
#    x 1.833570 0.000000 0.000000 
#    y 0.000000 1.790010 0.000000 
#    z 0.000000 0.000000 1.838040 
# 
# From -- ./inp_files/65822.got.cif
#   From: 2010.06.25/outbox.cif.g09.slc.cpg/sg71_33_cif.got.tgz:65822.got - 2010.06.28 04:59:45.
