data_PCOD8289308
_publ_section_title
;
Structure prediction by ZEFSAII (Michael W. Deem and Ramdas Pophale) SiO2 
 PCOD8289308
Probable space group: I M M M
;
_chemical_formula_sum "Si O2"
_cell_formula_units_Z 72
_cell_length_a 14.668413
_cell_length_b 9.127477
_cell_length_c 27.031072
_cell_angle_alpha 90.000000
_cell_angle_beta 90.000000
_cell_angle_gamma 90.000000
_cell_volume 3619.071355
_symmetry_space_group_name_H-M "I M M M"
_symmetry_group_IT_number 71
_symmetry_cell_setting 'orthorhombic'
loop_
_space_group_symop_operation_xyz
x,y,z
-x,-y,z
x,-y,-z
-x,y,-z
-x,-y,-z
x,y,-z
-x,y,z
x,-y,z
1/2+x,1/2+y,1/2+z
1/2-x,1/2-y,1/2+z
1/2+x,1/2-y,1/2-z
1/2-x,1/2+y,1/2-z
1/2-x,1/2-y,1/2-z
1/2+x,1/2+y,1/2-z
1/2-x,1/2+y,1/2+z
1/2+x,1/2-y,1/2+z
loop_
_atom_site_type_symbol
_atom_site_label
_atom_site_fract_x
_atom_site_fract_y
_atom_site_fract_z
Si Si1 0.130572 0.339996 0.220932
Si Si2 0.897444 0.673377 0.500000
Si Si3 0.899932 0.328285 0.887610
Si Si4 0.664523 0.661451 0.191077
Si Si5 0.718609 0.174348 0.906086
O O1 0.087690 0.500000 0.230640
O O2 0.092642 0.275407 0.169400
O O3 0.238406 0.355767 0.216574
O O4 0.101168 0.238215 0.267274
O O5 0.903482 0.500000 0.500000
O O6 0.842827 0.726752 0.548149
O O7 0.000000 0.739862 0.500000
O O8 0.872769 0.500000 0.889381
O O9 0.820974 0.236753 0.914886
O O10 0.000000 0.301619 0.912294
O O11 0.625532 0.500000 0.177682
O O12 0.670372 0.760690 0.142311
O O13 0.724497 0.000000 0.901251
#
# Coordination Sequence:
#
# PCOD8289308 Si02
#       5
#    16   8  16  16  16
#     4   8  14  25  43  68  98 136 179 212 239 282
#     4   9  20  40  62  81 100 126 167 219 272 323
#     4   9  18  33  52  76 110 148 179 208 249 306
#     4   9  16  27  45  70 102 137 171 210 256 304
#     4  10  19  33  56  80 101 131 174 223 269 312
#
# _framework density 19.894607000000001
#
# number of rings (size 3 to 8) (size 9 to 14) (size 15 to 20)
#    0.000    3.000    0.000    2.667    0.000    5.778 
#    0.000    3.889    0.000   15.333    0.000    0.000 
#    0.000    0.000    0.000    0.000    0.000    0.000 
#
# Total GULP energy -446069.473485 kJ/mol
# GULP energy per Si atom -12390.818708 kJ/mol
# Density = 1.984933 g / cm^3
# Si number density = 19.894607 Si / 1000 Ang^3
#
#
#
# Elastic Constant Matrix: (Units=GPa)
#
#
# Indices 1 2 3 4 5 6 
#
# 1 109.9873 41.0112 56.0751 0.0000 0.0000 0.0000
# 2 41.0112 99.3076 52.1053 0.0000 0.0000 0.0000
# 3 56.0751 52.1053 107.8888 0.0000 0.0000 0.0000
# 4 0.0000 0.0000 0.0000 21.7021 0.0000 0.0000
# 5 0.0000 0.0000 0.0000 0.0000 3.7031 0.0000
# 6 0.0000 0.0000 0.0000 0.0000 0.0000 5.1079
#
#
#
# Elastic Compliance Matrix: (Units=1/GPa)
#
#
# Indices 1 2 3 4 5 6 
#
# 1 0.012784 -0.002402 -0.005484 0.000000 0.000000 0.000000
# 2 -0.002402 0.013939 -0.005483 0.000000 0.000000 0.000000
# 3 -0.005484 -0.005483 0.014768 0.000000 0.000000 0.000000
# 4 0.000000 0.000000 0.000000 0.046078 0.000000 0.000000
# 5 0.000000 0.000000 0.000000 0.000000 0.270044 0.000000
# 6 0.000000 0.000000 0.000000 0.000000 0.000000 0.195776
#
#
# Mechanical properties :
#
#
# Convention : Reuss Voigt Hill
#
# Bulk Modulus (GPa) = 67.79296 68.39632 68.09464
# Shear Modulus (GPa) = 8.54636 17.30209 12.92422
#
# Velocity S-wave (km/s) = 2.07488 2.95225 2.55156
# Velocity P-wave (km/s) = 6.31587 6.78785 6.55611
#
# Compressibility (1/GPa) = 0.01475079
#
# Stress axis : x y z
#
# Youngs Moduli (GPa) = 78.22536 71.74299 67.71616
#
# Poissons Ratio (x) = 0.17230 0.37138
# Poissons Ratio (y) = 0.18787 0.37132
# Poissons Ratio (z) = 0.42901 0.39340
#
# Static dielectric constant tensor:
#      x y z
#    x 3.629100 0.000000 0.000000 
#    y 0.000000 3.789340 0.000000 
#    z 0.000000 0.000000 3.470870 
# 
# 
# High freq. dielectric constant tensor:
#      x y z
#    x 1.765100 0.000000 0.000000 
#    y 0.000000 1.765500 0.000000 
#    z 0.000000 0.000000 1.754410 
# 
# From -- ./inp_files/39962.got.cif
#   From: 2010.06.25/outbox.cif.g09.slc.cpg/sg71_20_cif.got.tgz:39962.got - 2010.06.28 04:59:45.
