data_PCOD8289742
_publ_section_title
;
Structure prediction by ZEFSAII (Michael W. Deem and Ramdas Pophale) SiO2 
 PCOD8289742
Probable space group: I M M M
;
_chemical_formula_sum "Si O2"
_cell_formula_units_Z 104
_cell_length_a 9.211017
_cell_length_b 27.339350
_cell_length_c 22.843857
_cell_angle_alpha 90.000000
_cell_angle_beta 90.000000
_cell_angle_gamma 90.000000
_cell_volume 5752.613573
_symmetry_space_group_name_H-M "I M M M"
_symmetry_group_IT_number 71
_symmetry_cell_setting 'orthorhombic'
loop_
_space_group_symop_operation_xyz
x,y,z
-x,-y,z
x,-y,-z
-x,y,-z
-x,-y,-z
x,y,-z
-x,y,z
x,-y,z
1/2+x,1/2+y,1/2+z
1/2-x,1/2-y,1/2+z
1/2+x,1/2-y,1/2-z
1/2-x,1/2+y,1/2-z
1/2-x,1/2-y,1/2-z
1/2+x,1/2+y,1/2-z
1/2-x,1/2+y,1/2+z
1/2+x,1/2-y,1/2+z
loop_
_atom_site_type_symbol
_atom_site_label
_atom_site_fract_x
_atom_site_fract_y
_atom_site_fract_z
Si Si1 0.168728 0.688768 0.565958
Si Si2 0.174166 0.500000 0.931970
Si Si3 0.829542 0.000000 0.137007
Si Si4 0.163253 0.581182 0.155484
Si Si5 0.833923 0.217991 0.173945
Si Si6 0.332668 0.174111 0.723302
Si Si7 0.664345 0.590297 0.434065
Si Si8 0.342193 0.000000 0.750655
O O1 0.197392 0.708046 0.500000
O O2 0.256647 0.721879 0.611156
O O3 0.225519 0.634253 0.573409
O O4 0.000000 0.690401 0.581649
O O5 0.234110 0.450236 0.899000
O O6 0.000000 0.500000 0.925799
O O7 0.224280 0.500000 0.000000
O O8 0.767901 0.951696 0.106421
O O9 0.788177 0.000000 0.204335
O O10 0.000000 0.000000 0.129050
O O11 0.232714 0.633361 0.177053
O O12 0.171703 0.548045 0.212308
O O13 0.000000 0.592933 0.135756
O O14 0.758028 0.177415 0.216097
O O15 0.820252 0.272759 0.196081
O O16 0.000000 0.201562 0.167248
O O17 0.500000 0.160558 0.738015
O O18 0.662567 0.570466 0.500000
O O19 0.500000 0.605777 0.415529
O O20 0.500000 0.000000 0.782077
#
# Coordination Sequence:
#
# PCOD8289742 Si02
#       8
#    16   8   8  16  16  16  16   8
#     4  10  21  36  53  72  96 130 171 212 254 302
#     4   8  13  24  46  75 105 133 160 195 243 300
#     4  10  20  31  45  69  97 123 158 202 244 293
#     4   8  15  29  47  69  99 132 164 198 240 290
#     4  10  20  33  51  75 101 131 170 214 259 305
#     4   9  18  33  52  74 102 135 168 206 252 305
#     4   9  18  33  50  67  92 127 163 203 250 295
#     4   9  18  30  45  68  98 132 162 192 237 290
#
# _framework density 18.078738999999999
#
# number of rings (size 3 to 8) (size 9 to 14) (size 15 to 20)
#    0.000    2.846    0.000    2.077    2.154    3.077 
#    0.000    0.769    0.000    5.077    0.000    0.000 
#    0.000   10.462    0.000    0.000    0.000    0.000 
#
# Total GULP energy -644247.477295 kJ/mol
# GULP energy per Si atom -12389.374563 kJ/mol
# Density = 1.803759 g / cm^3
# Si number density = 18.078739 Si / 1000 Ang^3
#
#
#
# Elastic Constant Matrix: (Units=GPa)
#
#
# Indices 1 2 3 4 5 6 
#
# 1 67.4468 20.8130 44.1877 0.0000 0.0000 0.0000
# 2 20.8130 61.3468 31.5430 0.0000 0.0000 0.0000
# 3 44.1877 31.5430 104.7751 -0.0001 0.0000 0.0000
# 4 0.0000 0.0000 -0.0001 40.9910 0.0000 0.0000
# 5 0.0000 0.0000 0.0000 0.0000 27.5571 0.0000
# 6 0.0000 0.0000 0.0000 0.0000 0.0000 16.6501
#
#
#
# Elastic Compliance Matrix: (Units=1/GPa)
#
#
# Indices 1 2 3 4 5 6 
#
# 1 0.020954 -0.003035 -0.007923 0.000000 0.000000 0.000000
# 2 -0.003035 0.019726 -0.004659 0.000000 0.000000 0.000000
# 3 -0.007923 -0.004659 0.014288 0.000000 0.000000 0.000000
# 4 0.000000 0.000000 0.000000 0.024396 0.000000 0.000000
# 5 0.000000 0.000000 0.000000 0.000000 0.036288 0.000000
# 6 0.000000 0.000000 0.000000 0.000000 0.000000 0.060060
#
#
# Mechanical properties :
#
#
# Convention : Reuss Voigt Hill
#
# Bulk Modulus (GPa) = 42.13329 47.40623 44.76976
# Shear Modulus (GPa) = 23.27125 26.17463 24.72294
#
# Velocity S-wave (km/s) = 3.59167 3.80914 3.70200
# Velocity P-wave (km/s) = 6.36837 6.75464 6.56435
#
# Compressibility (1/GPa) = 0.02373420
#
# Stress axis : x y z
#
# Youngs Moduli (GPa) = 47.72339 50.69512 69.98714
#
# Poissons Ratio (x) = 0.15386 0.55454
# Poissons Ratio (y) = 0.14484 0.32604
# Poissons Ratio (z) = 0.37813 0.23616
#
# Static dielectric constant tensor:
#      x y z
#    x 3.170350 0.000000 0.000000 
#    y 0.000000 3.368320 0.000000 
#    z 0.000000 0.000000 3.482000 
# 
# 
# High freq. dielectric constant tensor:
#      x y z
#    x 1.671180 0.000000 0.000000 
#    y 0.000000 1.696760 0.000000 
#    z 0.000000 0.000000 1.699300 
# 
# From -- ./inp_files/58057.got.cif
#   From: 2010.06.25/outbox.cif.g09.slc.cpg/sg71_30_cif.got.tgz:58057.got - 2010.06.28 04:59:45.
