data_PCOD8289338
_publ_section_title
;
Structure prediction by ZEFSAII (Michael W. Deem and Ramdas Pophale) SiO2 
 PCOD8289338
Probable space group: I M M M
;
_chemical_formula_sum "Si O2"
_cell_formula_units_Z 96
_cell_length_a 18.171059
_cell_length_b 9.783481
_cell_length_c 28.700147
_cell_angle_alpha 90.000000
_cell_angle_beta 90.000000
_cell_angle_gamma 90.000000
_cell_volume 5102.203374
_symmetry_space_group_name_H-M "I M M M"
_symmetry_group_IT_number 71
_symmetry_cell_setting 'orthorhombic'
loop_
_space_group_symop_operation_xyz
x,y,z
-x,-y,z
x,-y,-z
-x,y,-z
-x,-y,-z
x,y,-z
-x,y,z
x,-y,z
1/2+x,1/2+y,1/2+z
1/2-x,1/2-y,1/2+z
1/2+x,1/2-y,1/2-z
1/2-x,1/2+y,1/2-z
1/2-x,1/2-y,1/2-z
1/2+x,1/2+y,1/2-z
1/2-x,1/2+y,1/2+z
1/2+x,1/2-y,1/2+z
loop_
_atom_site_type_symbol
_atom_site_label
_atom_site_fract_x
_atom_site_fract_y
_atom_site_fract_z
Si Si1 0.583918 0.844274 0.718191
Si Si2 0.165379 0.158237 0.848629
Si Si3 0.825218 0.654798 0.690551
Si Si4 0.881735 0.347159 0.447685
Si Si5 0.419525 0.346085 0.872366
Si Si6 0.212288 0.161116 0.949238
O O1 0.500000 0.815995 0.735767
O O2 0.600810 0.745860 0.674761
O O3 0.645125 0.815400 0.757729
O O4 0.591090 0.000000 0.701006
O O5 0.238263 0.175369 0.816599
O O6 0.173263 0.215401 0.901987
O O7 0.141704 0.000000 0.849476
O O8 0.847211 0.500000 0.675940
O O9 0.862293 0.765568 0.658320
O O10 0.910993 0.348051 0.500000
O O11 0.891534 0.500000 0.426288
O O12 0.928614 0.234405 0.420761
O O13 0.797304 0.300581 0.444757
O O14 0.500000 0.349590 0.848435
O O15 0.390503 0.500000 0.880517
O O16 0.203545 0.000000 0.950275
O O17 0.182303 0.218319 0.000000
#
# Coordination Sequence:
#
# PCOD8289338 Si02
#       6
#    16  16  16  16  16  16
#     4  10  22  38  55  78 111 148 180 217 269 324
#     4  10  19  33  58  87 109 135 176 224 270 317
#     4  10  20  37  58  79 103 138 185 226 264 316
#     4   9  17  32  53  72  95 134 182 226 267 318
#     4  11  23  34  46  70 106 144 179 223 276 320
#     4   8  14  28  52  81 109 133 165 216 270 314
#
# _framework density 18.8154
#
# number of rings (size 3 to 8) (size 9 to 14) (size 15 to 20)
#    0.000    2.333    1.667    2.500    0.000    4.333 
#    0.000    1.667    0.000    1.000    0.000    3.500 
#    0.000    0.000    0.000    0.000    0.000    0.000 
#
# Total GULP energy -594699.348499 kJ/mol
# GULP energy per Si atom -12389.569760 kJ/mol
# Density = 1.877258 g / cm^3
# Si number density = 18.815400 Si / 1000 Ang^3
#
#
#
# Elastic Constant Matrix: (Units=GPa)
#
#
# Indices 1 2 3 4 5 6 
#
# 1 43.2692 24.4017 31.7576 0.0000 0.0000 0.0000
# 2 24.4017 94.7641 40.0959 0.0000 0.0000 0.0000
# 3 31.7576 40.0959 106.7132 0.0000 0.0000 0.0000
# 4 0.0000 0.0000 0.0000 25.0953 0.0000 0.0000
# 5 0.0000 0.0000 0.0000 0.0000 -2.3947 0.0000
# 6 0.0000 0.0000 0.0000 0.0000 0.0000 25.9878
#
#
#
# Elastic Compliance Matrix: (Units=1/GPa)
#
#
# Indices 1 2 3 4 5 6 
#
# 1 0.031380 -0.004910 -0.007494 0.000000 0.000000 0.000000
# 2 -0.004910 0.013315 -0.003542 0.000000 0.000000 0.000000
# 3 -0.007494 -0.003542 0.012932 0.000000 0.000000 0.000000
# 4 0.000000 0.000000 0.000000 0.039848 0.000000 0.000000
# 5 0.000000 0.000000 0.000000 0.000000 -0.417591 0.000000
# 6 0.000000 0.000000 0.000000 0.000000 0.000000 0.038480
#
#
# Mechanical properties :
#
#
# Convention : Reuss Voigt Hill
#
# Bulk Modulus (GPa) = 38.85542 48.58409 43.71976
# Shear Modulus (GPa) = -20.73259 19.63712 -0.54773
#
# Velocity S-wave (km/s) = -3.32308 3.23410 -0.54013
# Velocity P-wave (km/s) = 2.44374 6.31057 4.78514
#
# Compressibility (1/GPa) = 0.02573644
#
# Stress axis : x y z
#
# Youngs Moduli (GPa) = 31.86735 75.10112 77.32794
#
# Poissons Ratio (x) = 0.36871 0.57949
# Poissons Ratio (y) = 0.15645 0.27389
# Poissons Ratio (z) = 0.23881 0.26601
#
# Static dielectric constant tensor:
#      x y z
#    x 3.200030 0.000000 0.000000 
#    y 0.000000 3.353420 0.000000 
#    z 0.000000 0.000000 3.901820 
# 
# 
# High freq. dielectric constant tensor:
#      x y z
#    x 1.702990 0.000000 0.000000 
#    y 0.000000 1.712730 0.000000 
#    z 0.000000 0.000000 1.732930 
# 
# From -- ./inp_files/14824.got.cif
#   From: 2010.06.25/outbox.cif.g09.slc.cpg/sg71_8_cif.got.tgz:14824.got - 2010.06.28 04:59:45.
