data_PCOD8289624
_publ_section_title
;
Structure prediction by ZEFSAII (Michael W. Deem and Ramdas Pophale) SiO2 
 PCOD8289624
Probable space group: I M M M
;
_chemical_formula_sum "Si O2"
_cell_formula_units_Z 96
_cell_length_a 18.218275
_cell_length_b 12.223875
_cell_length_c 22.244664
_cell_angle_alpha 90.000000
_cell_angle_beta 90.000000
_cell_angle_gamma 90.000000
_cell_volume 4953.840322
_symmetry_space_group_name_H-M "I M M M"
_symmetry_group_IT_number 71
_symmetry_cell_setting 'orthorhombic'
loop_
_space_group_symop_operation_xyz
x,y,z
-x,-y,z
x,-y,-z
-x,y,-z
-x,-y,-z
x,y,-z
-x,y,z
x,-y,z
1/2+x,1/2+y,1/2+z
1/2-x,1/2-y,1/2+z
1/2+x,1/2-y,1/2-z
1/2-x,1/2+y,1/2-z
1/2-x,1/2-y,1/2-z
1/2+x,1/2+y,1/2-z
1/2-x,1/2+y,1/2+z
1/2+x,1/2-y,1/2+z
loop_
_atom_site_type_symbol
_atom_site_label
_atom_site_fract_x
_atom_site_fract_y
_atom_site_fract_z
Si Si1 0.839585 0.833412 0.933208
Si Si2 0.087091 0.000000 0.290601
Si Si3 0.585812 0.124768 0.599639
Si Si4 0.913019 0.381282 0.764727
Si Si5 0.913264 0.000000 0.153214
Si Si6 0.087217 0.229298 0.339444
Si Si7 0.672672 0.874660 0.070193
O O1 0.864836 0.707285 0.938851
O O2 0.755730 0.844663 0.912957
O O3 0.888318 0.893202 0.883231
O O4 0.848981 0.885713 0.000000
O O5 0.118212 0.000000 0.221834
O O6 0.113682 0.104626 0.329353
O O7 0.000000 0.000000 0.285068
O O8 0.500000 0.150455 0.589986
O O9 0.611227 0.145824 0.667935
O O10 0.602289 0.000000 0.580006
O O11 0.881985 0.500000 0.745467
O O12 0.882136 0.291879 0.719197
O O13 0.000000 0.383889 0.762611
O O14 0.000000 0.000000 0.155949
O O15 0.120764 0.286294 0.397862
O O16 0.000000 0.236710 0.345481
O O17 0.655451 0.000000 0.090196
O O18 0.657640 0.860834 0.000000
#
# Coordination Sequence:
#
# PCOD8289624 Si02
#       7
#    16   8  16  16   8  16  16
#     4  11  22  37  55  77 112 155 192 233 284 333
#     4   9  20  37  57  87 123 147 175 230 288 332
#     4   9  18  33  53  79 113 148 187 236 280 326
#     4   8  14  27  50  80 110 140 176 223 280 328
#     4  11  21  36  61  87 113 151 195 235 277 331
#     4  10  19  35  61  87 112 145 184 226 277 343
#     4  10  22  41  60  79 112 149 182 235 293 330
#
# _framework density 19.378906000000001
#
# number of rings (size 3 to 8) (size 9 to 14) (size 15 to 20)
#    0.000    2.333    0.833    3.250    0.000    6.000 
#    1.500    5.417    0.000    1.500    0.000    0.000 
#    0.000    0.000    0.000    0.000    0.000    0.000 
#
# Total GULP energy -594973.825281 kJ/mol
# GULP energy per Si atom -12395.288027 kJ/mol
# Density = 1.933480 g / cm^3
# Si number density = 19.378906 Si / 1000 Ang^3
#
#
#
# Elastic Constant Matrix: (Units=GPa)
#
#
# Indices 1 2 3 4 5 6 
#
# 1 49.5047 42.8239 35.4612 0.0000 0.0000 0.0000
# 2 42.8239 154.1639 57.6279 0.0000 0.0000 0.0000
# 3 35.4612 57.6279 86.6399 0.0000 0.0000 0.0000
# 4 0.0000 0.0000 0.0000 30.2791 0.0000 0.0000
# 5 0.0000 0.0000 0.0000 0.0000 -192.9578 0.0000
# 6 0.0000 0.0000 0.0000 0.0000 0.0000 24.8650
#
#
#
# Elastic Compliance Matrix: (Units=1/GPa)
#
#
# Indices 1 2 3 4 5 6 
#
# 1 0.031451 -0.005223 -0.009398 0.000000 0.000000 0.000000
# 2 -0.005223 0.009501 -0.004181 0.000000 0.000000 0.000000
# 3 -0.009398 -0.004181 0.018170 0.000000 0.000000 0.000000
# 4 0.000000 0.000000 0.000000 0.033026 0.000000 0.000000
# 5 0.000000 0.000000 0.000000 0.000000 -0.005182 0.000000
# 6 0.000000 0.000000 0.000000 0.000000 0.000000 0.040217
#
#
# Mechanical properties :
#
#
# Convention : Reuss Voigt Hill
#
# Bulk Modulus (GPa) = 46.47875 62.45938 54.46906
# Shear Modulus (GPa) = 29.07656 -17.26972 5.90342
#
# Velocity S-wave (km/s) = 3.87773 -2.98847 1.74726
# Velocity P-wave (km/s) = 6.63968 4.51582 5.67794
#
# Compressibility (1/GPa) = 0.02151521
#
# Stress axis : x y z
#
# Youngs Moduli (GPa) = 31.79580 105.25697 55.03591
#
# Poissons Ratio (x) = 0.54978 0.51725
# Poissons Ratio (y) = 0.16608 0.23013
# Poissons Ratio (z) = 0.29883 0.44012
#
# Static dielectric constant tensor:
#      x y z
#    x 3.131890 0.000000 0.000000 
#    y 0.000000 3.839400 0.000000 
#    z 0.000000 0.000000 3.550970 
# 
# 
# High freq. dielectric constant tensor:
#      x y z
#    x 1.714040 0.000000 0.000000 
#    y 0.000000 1.768520 0.000000 
#    z 0.000000 0.000000 1.754590 
# 
# From -- ./inp_files/60549.got.cif
#   From: 2010.06.25/outbox.cif.g09.slc.cpg/sg71_31_cif.got.tgz:60549.got - 2010.06.28 04:59:45.
