data_PCOD8289829
_publ_section_title
;
Structure prediction by ZEFSAII (Michael W. Deem and Ramdas Pophale) SiO2 
 PCOD8289829
Probable space group: I M M M
;
_chemical_formula_sum "Si O2"
_cell_formula_units_Z 96
_cell_length_a 9.121605
_cell_length_b 24.836342
_cell_length_c 24.695292
_cell_angle_alpha 90.000000
_cell_angle_beta 90.000000
_cell_angle_gamma 90.000000
_cell_volume 5594.651759
_symmetry_space_group_name_H-M "I M M M"
_symmetry_group_IT_number 71
_symmetry_cell_setting 'orthorhombic'
loop_
_space_group_symop_operation_xyz
x,y,z
-x,-y,z
x,-y,-z
-x,y,-z
-x,-y,-z
x,y,-z
-x,y,z
x,-y,z
1/2+x,1/2+y,1/2+z
1/2-x,1/2-y,1/2+z
1/2+x,1/2-y,1/2-z
1/2-x,1/2+y,1/2-z
1/2-x,1/2-y,1/2-z
1/2+x,1/2+y,1/2-z
1/2-x,1/2+y,1/2+z
1/2+x,1/2-y,1/2+z
loop_
_atom_site_type_symbol
_atom_site_label
_atom_site_fract_x
_atom_site_fract_y
_atom_site_fract_z
Si Si1 0.334336 0.252735 0.564380
Si Si2 0.332228 0.436327 0.640454
Si Si3 0.170702 0.358863 0.436611
Si Si4 0.171018 0.437522 0.135141
Si Si5 0.670409 0.353166 0.936665
Si Si6 0.337793 0.936097 0.755752
O O1 0.331739 0.252755 0.500000
O O2 0.500000 0.253566 0.586818
O O3 0.249297 0.305222 0.585828
O O4 0.253548 0.199463 0.586022
O O5 0.500000 0.418483 0.634403
O O6 0.312971 0.500000 0.635194
O O7 0.237478 0.410532 0.592823
O O8 0.275362 0.415450 0.698899
O O9 0.199621 0.366843 0.500000
O O10 0.000000 0.353962 0.423395
O O11 0.210178 0.500000 0.127918
O O12 0.269435 0.405612 0.092919
O O13 0.211155 0.417219 0.195860
O O14 0.000000 0.427324 0.123290
O O15 0.500000 0.345653 0.924140
O O16 0.700210 0.361168 0.000000
O O17 0.500000 0.913405 0.769432
O O18 0.344783 0.000000 0.755186
#
# Coordination Sequence:
#
# PCOD8289829 Si02
#       6
#    16  16  16  16  16  16
#     4   9  17  31  51  71  92 122 161 201 238 280
#     4  10  20  32  48  72 100 129 161 197 237 282
#     4  10  20  33  50  72  98 128 161 197 238 284
#     4   9  18  32  50  72  97 127 163 201 241 285
#     4  10  20  32  47  70 100 131 162 197 238 285
#     4   8  15  30  50  69  91 122 161 201 238 280
#
# _framework density 17.159244000000001
#
# number of rings (size 3 to 8) (size 9 to 14) (size 15 to 20)
#    0.000    2.667    0.000    3.000    0.000    6.667 
#    0.000    5.000    0.000    1.000    0.000    0.000 
#    0.000    0.000    0.000    0.000    0.000    0.000 
#
# Total GULP energy -595175.532878 kJ/mol
# GULP energy per Si atom -12399.490268 kJ/mol
# Density = 1.712019 g / cm^3
# Si number density = 17.159244 Si / 1000 Ang^3
#
#
#
# Elastic Constant Matrix: (Units=GPa)
#
#
# Indices 1 2 3 4 5 6 
#
# 1 129.6096 56.0870 59.5169 0.0000 0.0000 0.0000
# 2 56.0870 70.1854 42.1603 0.0000 0.0000 0.0000
# 3 59.5169 42.1603 66.9207 0.0000 0.0000 0.0000
# 4 0.0000 0.0000 0.0000 3.3579 0.0000 0.0000
# 5 0.0000 0.0000 0.0000 0.0000 28.4447 0.0000
# 6 0.0000 0.0000 0.0000 0.0000 0.0000 32.9857
#
#
#
# Elastic Compliance Matrix: (Units=1/GPa)
#
#
# Indices 1 2 3 4 5 6 
#
# 1 0.014544 -0.006198 -0.009030 0.000000 0.000000 0.000000
# 2 -0.006198 0.025565 -0.010593 0.000000 0.000000 0.000000
# 3 -0.009030 -0.010593 0.029648 0.000000 0.000000 0.000000
# 4 0.000000 0.000000 0.000000 0.297809 0.000000 0.000000
# 5 0.000000 0.000000 0.000000 0.000000 0.035156 0.000000
# 6 0.000000 0.000000 0.000000 0.000000 0.000000 0.030316
#
#
# Mechanical properties :
#
#
# Convention : Reuss Voigt Hill
#
# Bulk Modulus (GPa) = 55.20792 64.69377 59.95085
# Shear Modulus (GPa) = 10.18912 20.22109 15.20510
#
# Velocity S-wave (km/s) = 2.43944 3.43656 2.98000
# Velocity P-wave (km/s) = 6.33863 7.31645 6.84502
#
# Compressibility (1/GPa) = 0.01811334
#
# Stress axis : x y z
#
# Youngs Moduli (GPa) = 68.75454 39.11669 33.72902
#
# Poissons Ratio (x) = 0.24246 0.30459
# Poissons Ratio (y) = 0.42616 0.35730
# Poissons Ratio (z) = 0.62088 0.41437
#
# Static dielectric constant tensor:
#      x y z
#    x 3.371090 0.000000 0.000000 
#    y 0.000000 3.067320 0.000000 
#    z 0.000000 0.000000 3.123340 
# 
# 
# High freq. dielectric constant tensor:
#      x y z
#    x 1.674720 0.000000 0.000000 
#    y 0.000000 1.645770 0.000000 
#    z 0.000000 0.000000 1.642700 
# 
# From -- ./inp_files/12795.got.cif
#   From: 2010.06.25/outbox.cif.g09.slc.cpg/sg71_7_cif.got.tgz:12795.got - 2010.06.28 04:59:45.
