data_PCOD8289865
_publ_section_title
;
Structure prediction by ZEFSAII (Michael W. Deem and Ramdas Pophale) SiO2 
 PCOD8289865
Probable space group: I M M M
;
_chemical_formula_sum "Si O2"
_cell_formula_units_Z 96
_cell_length_a 19.151437
_cell_length_b 30.480414
_cell_length_c 8.984431
_cell_angle_alpha 90.000000
_cell_angle_beta 90.000000
_cell_angle_gamma 90.000000
_cell_volume 5244.605250
_symmetry_space_group_name_H-M "I M M M"
_symmetry_group_IT_number 71
_symmetry_cell_setting 'orthorhombic'
loop_
_space_group_symop_operation_xyz
x,y,z
-x,-y,z
x,-y,-z
-x,y,-z
-x,-y,-z
x,y,-z
-x,y,z
x,-y,z
1/2+x,1/2+y,1/2+z
1/2-x,1/2-y,1/2+z
1/2+x,1/2-y,1/2-z
1/2-x,1/2+y,1/2-z
1/2-x,1/2-y,1/2-z
1/2+x,1/2+y,1/2-z
1/2-x,1/2+y,1/2+z
1/2+x,1/2-y,1/2+z
loop_
_atom_site_type_symbol
_atom_site_label
_atom_site_fract_x
_atom_site_fract_y
_atom_site_fract_z
Si Si1 0.077882 0.126160 0.823183
Si Si2 0.182089 0.799576 0.173555
Si Si3 0.827135 0.048682 0.823017
Si Si4 0.170563 0.451404 0.323093
Si Si5 0.675187 0.801105 0.325770
Si Si6 0.580292 0.870687 0.176138
O O1 0.117379 0.170511 0.775467
O O2 0.119073 0.084189 0.756620
O O3 0.000000 0.127109 0.755109
O O4 0.074162 0.122740 0.000000
O O5 0.250190 0.815759 0.261545
O O6 0.161852 0.749837 0.212408
O O7 0.199134 0.805562 0.000000
O O8 0.748854 0.059202 0.765900
O O9 0.850023 0.000000 0.770278
O O10 0.827433 0.051116 0.000000
O O11 0.169343 0.451085 0.500000
O O12 0.147637 0.500000 0.266632
O O13 0.118111 0.414488 0.261213
O O14 0.674433 0.810238 0.500000
O O15 0.613260 0.827840 0.249871
O O16 0.500000 0.873508 0.224013
O O17 0.589141 0.866698 0.000000
#
# Coordination Sequence:
#
# PCOD8289865 Si02
#       6
#    16  16  16  16  16  16
#     4   9  16  25  40  64  93 124 154 184 224 276
#     4   9  18  33  52  71  92 122 162 204 240 279
#     4   8  13  21  35  58  89 122 151 183 228 277
#     4   8  14  26  45  68  93 123 161 202 240 279
#     4  10  20  33  51  72  93 122 161 204 246 288
#     4  10  20  32  48  72 101 131 160 194 241 294
#
# _framework density 18.304524000000001
#
# number of rings (size 3 to 8) (size 9 to 14) (size 15 to 20)
#    0.000    3.000    0.000    2.500    0.000    5.000 
#    0.000    5.000    0.000    1.000    0.000    1.167 
#    0.000    0.000    0.000    6.000    0.000    5.333 
#
# Total GULP energy -595060.379116 kJ/mol
# GULP energy per Si atom -12397.091232 kJ/mol
# Density = 1.826286 g / cm^3
# Si number density = 18.304524 Si / 1000 Ang^3
#
#
#
# Elastic Constant Matrix: (Units=GPa)
#
#
# Indices 1 2 3 4 5 6 
#
# 1 169.4097 102.8641 29.1448 0.0001 -0.0001 -0.0001
# 2 102.8641 137.7691 24.1045 0.0000 -0.0002 0.0000
# 3 29.1448 24.1045 19.9628 -0.0026 -0.0018 0.0006
# 4 0.0001 0.0000 -0.0026 15.5211 -0.0004 0.0000
# 5 -0.0001 -0.0002 -0.0018 -0.0004 15.8115 -0.0001
# 6 -0.0001 0.0000 0.0006 0.0000 -0.0001 25.3742
#
#
#
# Elastic Compliance Matrix: (Units=1/GPa)
#
#
# Indices 1 2 3 4 5 6 
#
# 1 0.011804 -0.007351 -0.008357 -0.000001 -0.000001 0.000000
# 2 -0.007351 0.013781 -0.005907 -0.000001 0.000000 0.000000
# 3 -0.008357 -0.005907 0.069427 0.000012 0.000008 -0.000002
# 4 -0.000001 -0.000001 0.000012 0.064428 0.000002 0.000000
# 5 -0.000001 0.000000 0.000008 0.000002 0.063245 0.000000
# 6 0.000000 0.000000 -0.000002 0.000000 0.000000 0.039410
#
#
# Mechanical properties :
#
#
# Convention : Reuss Voigt Hill
#
# Bulk Modulus (GPa) = 19.31228 71.04095 45.17662
# Shear Modulus (GPa) = 15.49966 22.74325 19.12145
#
# Velocity S-wave (km/s) = 2.91308 3.52873 3.23558
# Velocity P-wave (km/s) = 4.67848 7.44966 6.22035
#
# Compressibility (1/GPa) = 0.05178051
#
# Stress axis : x y z
#
# Youngs Moduli (GPa) = 84.71511 72.56397 14.40359
#
# Poissons Ratio (x) = 0.53344 0.12037
# Poissons Ratio (y) = 0.62277 0.08509
# Poissons Ratio (z) = 0.70797 0.42867
#
# Static dielectric constant tensor:
#      x y z
#    x 3.552780 0.000000 0.000000 
#    y 0.000000 3.680870 0.000000 
#    z 0.000000 0.000000 2.820570 
# 
# 
# High freq. dielectric constant tensor:
#      x y z
#    x 1.709260 0.000000 0.000000 
#    y 0.000000 1.725420 0.000000 
#    z 0.000000 0.000000 1.648480 
# 
# From -- ./inp_files/10890.got.cif
#   From: 2010.06.25/outbox.cif.g09.slc.cpg/sg71_6_cif.got.tgz:10890.got - 2010.06.28 04:59:45.
