data_PCOD8289184
_publ_section_title
;
Structure prediction by ZEFSAII (Michael W. Deem and Ramdas Pophale) SiO2 
 PCOD8289184
Probable space group: I M M M
;
_chemical_formula_sum "Si O2"
_cell_formula_units_Z 88
_cell_length_a 7.846762
_cell_length_b 29.757510
_cell_length_c 20.043016
_cell_angle_alpha 90.000000
_cell_angle_beta 90.000000
_cell_angle_gamma 90.000000
_cell_volume 4680.046214
_symmetry_space_group_name_H-M "I M M M"
_symmetry_group_IT_number 71
_symmetry_cell_setting 'orthorhombic'
loop_
_space_group_symop_operation_xyz
x,y,z
-x,-y,z
x,-y,-z
-x,y,-z
-x,-y,-z
x,y,-z
-x,y,z
x,-y,z
1/2+x,1/2+y,1/2+z
1/2-x,1/2-y,1/2+z
1/2+x,1/2-y,1/2-z
1/2-x,1/2+y,1/2-z
1/2-x,1/2-y,1/2-z
1/2+x,1/2+y,1/2-z
1/2-x,1/2+y,1/2+z
1/2+x,1/2-y,1/2+z
loop_
_atom_site_type_symbol
_atom_site_label
_atom_site_fract_x
_atom_site_fract_y
_atom_site_fract_z
Si Si1 0.796604 0.295339 0.683338
Si Si2 0.306555 0.116199 0.422712
Si Si3 0.306334 0.859293 0.927108
Si Si4 0.692904 0.452255 0.579074
Si Si5 0.804198 0.806077 0.672848
Si Si6 0.000000 0.948820 0.421266
O O1 0.719268 0.324480 0.622915
O O2 0.731640 0.244858 0.668544
O O3 0.719614 0.318504 0.749533
O O4 0.000000 0.296865 0.689030
O O5 0.269617 0.129358 0.500000
O O6 0.500000 0.097233 0.415642
O O7 0.294659 0.160674 0.376865
O O8 0.170480 0.078352 0.398366
O O9 0.500000 0.844896 0.935581
O O10 0.298862 0.909465 0.895588
O O11 0.215324 0.857258 0.000000
O O12 0.703183 0.454236 0.500000
O O13 0.500000 0.446062 0.603370
O O14 0.765220 0.500000 0.607365
O O15 0.000000 0.808402 0.651417
O O16 0.000000 0.952991 0.500000
O O17 0.000000 0.000000 0.391185
#
# Coordination Sequence:
#
# PCOD8289184 Si02
#       6
#    16  16  16  16  16   8
#     4   9  19  33  49  71 100 136 176 219 268 323
#     4  10  20  34  55  84 115 146 181 223 271 322
#     4   9  17  29  45  68  96 125 162 207 257 310
#     4   8  14  25  41  61  86 117 152 192 240 291
#     4  10  19  33  53  74 101 138 179 221 265 320
#     4   9  18  34  56  84 116 146 181 223 270 330
#
# _framework density 18.803232000000001
#
# number of rings (size 3 to 8) (size 9 to 14) (size 15 to 20)
#    0.000    2.818    0.909    1.091    0.000    2.909 
#    0.000    5.455    0.000    3.273    0.000    2.545 
#    0.000    0.000    0.000    0.000    0.000    0.000 
#
# Total GULP energy -545090.778888 kJ/mol
# GULP energy per Si atom -12388.426793 kJ/mol
# Density = 1.876044 g / cm^3
# Si number density = 18.803232 Si / 1000 Ang^3
#
#
#
# Elastic Constant Matrix: (Units=GPa)
#
#
# Indices 1 2 3 4 5 6 
#
# 1 68.0990 30.6870 18.9376 0.0000 0.0000 0.0000
# 2 30.6870 129.1261 71.6484 0.0001 0.0000 0.0000
# 3 18.9376 71.6484 82.1249 0.0001 0.0000 0.0000
# 4 0.0000 0.0001 0.0001 9.6594 0.0000 0.0000
# 5 0.0000 0.0000 0.0000 0.0000 18.1376 0.0000
# 6 0.0000 0.0000 0.0000 0.0000 0.0000 20.9015
#
#
#
# Elastic Compliance Matrix: (Units=1/GPa)
#
#
# Indices 1 2 3 4 5 6 
#
# 1 0.016469 -0.003502 -0.000743 0.000000 0.000000 0.000000
# 2 -0.003502 0.015756 -0.012938 0.000000 0.000000 0.000000
# 3 -0.000743 -0.012938 0.023636 0.000000 0.000000 0.000000
# 4 0.000000 0.000000 0.000000 0.103526 0.000000 0.000000
# 5 0.000000 0.000000 0.000000 0.000000 0.055134 0.000000
# 6 0.000000 0.000000 0.000000 0.000000 0.000000 0.047844
#
#
# Mechanical properties :
#
#
# Convention : Reuss Voigt Hill
#
# Bulk Modulus (GPa) = 46.52256 57.98844 52.25550
# Shear Modulus (GPa) = 16.45313 20.27818 18.36565
#
# Velocity S-wave (km/s) = 2.96128 3.28753 3.12866
# Velocity P-wave (km/s) = 6.04051 6.73179 6.39549
#
# Compressibility (1/GPa) = 0.02149495
#
# Stress axis : x y z
#
# Youngs Moduli (GPa) = 60.72009 63.46931 42.30922
#
# Poissons Ratio (x) = 0.22226 0.03141
# Poissons Ratio (y) = 0.21263 0.54741
# Poissons Ratio (z) = 0.04509 0.82118
#
# Static dielectric constant tensor:
#      x y z
#    x 3.355000 0.000000 0.000000 
#    y 0.000000 2.964970 0.000000 
#    z 0.000000 0.000000 3.330690 
# 
# 
# High freq. dielectric constant tensor:
#      x y z
#    x 1.724260 0.000000 0.000000 
#    y 0.000000 1.731230 0.000000 
#    z 0.000000 0.000000 1.692760 
# 
# From -- ./inp_files/51057.got.cif
#   From: 2010.06.25/outbox.cif.g09.slc.cpg/sg71_26_cif.got.tgz:51057.got - 2010.06.28 04:59:45.
