data_PCOD8289857
_publ_section_title
;
Structure prediction by ZEFSAII (Michael W. Deem and Ramdas Pophale) SiO2 
 PCOD8289857
Probable space group: I M M M
;
_chemical_formula_sum "Si O2"
_cell_formula_units_Z 96
_cell_length_a 25.508907
_cell_length_b 11.797142
_cell_length_c 17.819486
_cell_angle_alpha 90.000000
_cell_angle_beta 90.000000
_cell_angle_gamma 90.000000
_cell_volume 5362.457092
_symmetry_space_group_name_H-M "I M M M"
_symmetry_group_IT_number 71
_symmetry_cell_setting 'orthorhombic'
loop_
_space_group_symop_operation_xyz
x,y,z
-x,-y,z
x,-y,-z
-x,y,-z
-x,-y,-z
x,y,-z
-x,y,z
x,-y,z
1/2+x,1/2+y,1/2+z
1/2-x,1/2-y,1/2+z
1/2+x,1/2-y,1/2-z
1/2-x,1/2+y,1/2-z
1/2-x,1/2-y,1/2-z
1/2+x,1/2+y,1/2-z
1/2-x,1/2+y,1/2+z
1/2+x,1/2-y,1/2+z
loop_
_atom_site_type_symbol
_atom_site_label
_atom_site_fract_x
_atom_site_fract_y
_atom_site_fract_z
Si Si1 0.941695 0.245171 0.356307
Si Si2 0.440648 0.870429 0.705203
Si Si3 0.853464 0.630912 0.086173
Si Si4 0.424814 0.500000 0.085882
Si Si5 0.244996 0.777452 0.589198
Si Si6 0.344651 0.122962 0.086885
Si Si7 0.697944 0.500000 0.084373
O O1 0.928583 0.281038 0.271082
O O2 0.896058 0.298733 0.406692
O O3 0.000000 0.293272 0.377127
O O4 0.943984 0.110042 0.368348
O O5 0.500000 0.856845 0.676337
O O6 0.403429 0.838814 0.636040
O O7 0.430702 0.000000 0.732826
O O8 0.835199 0.500000 0.097528
O O9 0.806626 0.718030 0.110074
O O10 0.869388 0.651366 0.000000
O O11 0.363491 0.500000 0.083164
O O12 0.447022 0.500000 0.000000
O O13 0.238158 0.778551 0.500000
O O14 0.209491 0.674719 0.622160
O O15 0.218753 0.888716 0.625998
O O16 0.353982 0.000000 0.125260
O O17 0.334481 0.106288 0.000000
O O18 0.721041 0.500000 0.000000
#
# Coordination Sequence:
#
# PCOD8289857 Si02
#       7
#    16  16  16   8  16  16   8
#     4  11  22  35  51  70  99 136 170 210 258 305
#     4   9  19  35  52  73 105 142 171 200 252 313
#     4   9  16  28  53  84 105 127 166 213 255 300
#     4  11  21  34  55  80 101 127 172 224 260 286
#     4   9  15  27  48  74 102 128 162 206 253 301
#     4  10  20  32  48  70  99 136 173 208 246 296
#     4   9  14  25  48  73  97 127 157 201 259 302
#
# _framework density 17.902242000000001
#
# number of rings (size 3 to 8) (size 9 to 14) (size 15 to 20)
#    0.000    2.333    2.500    1.250    0.000    3.000 
#    0.000    3.333    1.833    0.000    0.000    0.000 
#    0.000    2.667    0.000    0.000    0.000    0.000 
#
# Total GULP energy -594636.105110 kJ/mol
# GULP energy per Si atom -12388.252190 kJ/mol
# Density = 1.786150 g / cm^3
# Si number density = 17.902242 Si / 1000 Ang^3
#
#
#
# Elastic Constant Matrix: (Units=GPa)
#
#
# Indices 1 2 3 4 5 6 
#
# 1 115.1443 55.1357 42.4727 0.0000 0.0000 0.0000
# 2 55.1357 109.4085 36.1179 0.0000 0.0000 0.0000
# 3 42.4727 36.1179 57.6591 0.0000 0.0000 0.0000
# 4 0.0000 0.0000 0.0000 15.3776 0.0000 0.0000
# 5 0.0000 0.0000 0.0000 0.0000 -15.2713 0.0000
# 6 0.0000 0.0000 0.0000 0.0000 0.0000 30.3342
#
#
#
# Elastic Compliance Matrix: (Units=1/GPa)
#
#
# Indices 1 2 3 4 5 6 
#
# 1 0.013427 -0.004414 -0.007125 0.000000 0.000000 0.000000
# 2 -0.004414 0.012974 -0.004875 0.000000 0.000000 0.000000
# 3 -0.007125 -0.004875 0.025646 0.000000 0.000000 0.000000
# 4 0.000000 0.000000 0.000000 0.065030 0.000000 0.000000
# 5 0.000000 0.000000 0.000000 0.000000 -0.065482 0.000000
# 6 0.000000 0.000000 0.000000 0.000000 0.000000 0.032966
#
#
# Mechanical properties :
#
#
# Convention : Reuss Voigt Hill
#
# Bulk Modulus (GPa) = 52.03756 61.07383 56.55569
# Shear Modulus (GPa) = 40.38928 15.98715 28.18821
#
# Velocity S-wave (km/s) = 4.75500 2.99159 3.97238
# Velocity P-wave (km/s) = 7.69918 6.79133 7.25946
#
# Compressibility (1/GPa) = 0.01921689
#
# Stress axis : x y z
#
# Youngs Moduli (GPa) = 74.47858 77.07718 38.99241
#
# Poissons Ratio (x) = 0.34022 0.27783
# Poissons Ratio (y) = 0.32875 0.19011
# Poissons Ratio (z) = 0.53068 0.37579
#
# Static dielectric constant tensor:
#      x y z
#    x 3.453740 0.000000 0.000000 
#    y 0.000000 3.621030 0.000000 
#    z 0.000000 0.000000 2.925160 
# 
# 
# High freq. dielectric constant tensor:
#      x y z
#    x 1.709350 0.000000 0.000000 
#    y 0.000000 1.681450 0.000000 
#    z 0.000000 0.000000 1.645460 
# 
# From -- ./inp_files/48790.got.cif
#   From: 2010.06.25/outbox.cif.g09.slc.cpg/sg71_25_cif.got.tgz:48790.got - 2010.06.28 04:59:45.
