data_PCOD8289869
_publ_section_title
;
Structure prediction by ZEFSAII (Michael W. Deem and Ramdas Pophale) SiO2 
 PCOD8289869
Probable space group: I M M M
;
_chemical_formula_sum "Si O2"
_cell_formula_units_Z 80
_cell_length_a 18.415905
_cell_length_b 9.240783
_cell_length_c 26.472527
_cell_angle_alpha 90.000000
_cell_angle_beta 90.000000
_cell_angle_gamma 90.000000
_cell_volume 4505.025336
_symmetry_space_group_name_H-M "I M M M"
_symmetry_group_IT_number 71
_symmetry_cell_setting 'orthorhombic'
loop_
_space_group_symop_operation_xyz
x,y,z
-x,-y,z
x,-y,-z
-x,y,-z
-x,-y,-z
x,y,-z
-x,y,z
x,-y,z
1/2+x,1/2+y,1/2+z
1/2-x,1/2-y,1/2+z
1/2+x,1/2-y,1/2-z
1/2-x,1/2+y,1/2-z
1/2-x,1/2-y,1/2-z
1/2+x,1/2+y,1/2-z
1/2-x,1/2+y,1/2+z
1/2+x,1/2-y,1/2+z
loop_
_atom_site_type_symbol
_atom_site_label
_atom_site_fract_x
_atom_site_fract_y
_atom_site_fract_z
Si Si1 0.917194 0.667299 0.558111
Si Si2 0.082953 0.168972 0.843152
Si Si3 0.788412 0.166240 0.599713
Si Si4 0.659968 0.665943 0.555917
Si Si5 0.211636 0.332091 0.795197
O O1 0.903132 0.709170 0.500000
O O2 0.898929 0.500000 0.567076
O O3 0.867271 0.762878 0.594360
O O4 0.000000 0.700472 0.573008
O O5 0.100601 0.206826 0.901714
O O6 0.133042 0.261836 0.805780
O O7 0.000000 0.212723 0.832807
O O8 0.096403 0.000000 0.832241
O O9 0.732237 0.240098 0.561559
O O10 0.763283 0.188453 0.656905
O O11 0.793498 0.000000 0.584538
O O12 0.626711 0.694173 0.500000
O O13 0.683881 0.500000 0.562134
O O14 0.200366 0.500000 0.781499
O O15 0.250000 0.250000 0.750000
#
# Coordination Sequence:
#
# PCOD8289869 Si02
#       5
#    16  16  16  16  16
#     4   9  18  32  49  70  98 132 167 201 239 287
#     4   9  18  33  53  77 105 135 166 203 246 289
#     4  10  20  32  48  72  99 126 161 206 250 293
#     4   9  17  29  47  72 102 137 172 201 233 280
#     4  10  21  37  56  76  98 127 165 208 253 300
#
# _framework density 17.757946
#
# number of rings (size 3 to 8) (size 9 to 14) (size 15 to 20)
#    0.000    2.600    0.000    2.400    0.000    6.800 
#    0.000    4.000    0.000    1.200    0.000    5.600 
#    0.000    0.000    0.000    0.000    0.000    0.000 
#
# Total GULP energy -496036.474572 kJ/mol
# GULP energy per Si atom -12400.911864 kJ/mol
# Density = 1.771753 g / cm^3
# Si number density = 17.757946 Si / 1000 Ang^3
#
#
#
# Elastic Constant Matrix: (Units=GPa)
#
#
# Indices 1 2 3 4 5 6 
#
# 1 132.5397 72.3401 54.4696 0.0000 0.0000 0.0000
# 2 72.3401 100.9198 51.8824 0.0000 0.0000 0.0000
# 3 54.4696 51.8824 83.7775 0.0000 0.0000 0.0000
# 4 0.0000 0.0000 0.0000 27.7981 0.0000 0.0000
# 5 0.0000 0.0000 0.0000 0.0000 19.7972 0.0000
# 6 0.0000 0.0000 0.0000 0.0000 0.0000 28.0990
#
#
#
# Elastic Compliance Matrix: (Units=1/GPa)
#
#
# Indices 1 2 3 4 5 6 
#
# 1 0.013253 -0.007438 -0.004010 0.000000 0.000000 0.000000
# 2 -0.007438 0.018712 -0.006752 0.000000 0.000000 0.000000
# 3 -0.004010 -0.006752 0.018725 0.000000 0.000000 0.000000
# 4 0.000000 0.000000 0.000000 0.035974 0.000000 0.000000
# 5 0.000000 0.000000 0.000000 0.000000 0.050512 0.000000
# 6 0.000000 0.000000 0.000000 0.000000 0.000000 0.035588
#
#
# Mechanical properties :
#
#
# Convention : Reuss Voigt Hill
#
# Bulk Modulus (GPa) = 69.98343 74.95792 72.47067
# Shear Modulus (GPa) = 23.37249 24.37519 23.87384
#
# Velocity S-wave (km/s) = 3.63184 3.70893 3.67059
# Velocity P-wave (km/s) = 7.55528 7.78743 7.67223
#
# Compressibility (1/GPa) = 0.01428910
#
# Stress axis : x y z
#
# Youngs Moduli (GPa) = 75.45684 53.44284 53.40428
#
# Poissons Ratio (x) = 0.39750 0.21416
# Poissons Ratio (y) = 0.56124 0.36058
# Poissons Ratio (z) = 0.30260 0.36084
#
# Static dielectric constant tensor:
#      x y z
#    x 3.244960 0.000000 0.000000 
#    y 0.000000 3.339000 0.000000 
#    z 0.000000 0.000000 3.181700 
# 
# 
# High freq. dielectric constant tensor:
#      x y z
#    x 1.683290 0.000000 0.000000 
#    y 0.000000 1.689470 0.000000 
#    z 0.000000 0.000000 1.674680 
# 
# From -- ./inp_files/8257.got.cif
#   From: 2010.06.25/outbox.cif.g09.slc.cpg/sg71_5_cif.got.tgz:8257.got - 2010.06.28 04:59:45.
