data_PCOD8289249
_publ_section_title
;
Structure prediction by ZEFSAII (Michael W. Deem and Ramdas Pophale) SiO2 
 PCOD8289249
Probable space group: I M M M
;
_chemical_formula_sum "Si O2"
_cell_formula_units_Z 80
_cell_length_a 10.717336
_cell_length_b 18.783375
_cell_length_c 22.052238
_cell_angle_alpha 90.000000
_cell_angle_beta 90.000000
_cell_angle_gamma 90.000000
_cell_volume 4439.286218
_symmetry_space_group_name_H-M "I M M M"
_symmetry_group_IT_number 71
_symmetry_cell_setting 'orthorhombic'
loop_
_space_group_symop_operation_xyz
x,y,z
-x,-y,z
x,-y,-z
-x,y,-z
-x,-y,-z
x,y,-z
-x,y,z
x,-y,z
1/2+x,1/2+y,1/2+z
1/2-x,1/2-y,1/2+z
1/2+x,1/2-y,1/2-z
1/2-x,1/2+y,1/2-z
1/2-x,1/2-y,1/2-z
1/2+x,1/2+y,1/2-z
1/2-x,1/2+y,1/2+z
1/2+x,1/2-y,1/2+z
loop_
_atom_site_type_symbol
_atom_site_label
_atom_site_fract_x
_atom_site_fract_y
_atom_site_fract_z
Si Si1 0.355172 0.318709 0.102695
Si Si2 0.649040 0.420773 0.000000
Si Si3 0.144754 0.666566 0.433317
Si Si4 0.214869 0.083671 0.155136
Si Si5 0.352867 0.688704 0.759813
Si Si6 0.000000 0.084201 0.933429
O O1 0.500000 0.313055 0.087823
O O2 0.298752 0.379952 0.059555
O O3 0.293523 0.241927 0.087137
O O4 0.332795 0.339729 0.172338
O O5 0.706121 0.500000 0.000000
O O6 0.500000 0.424854 0.000000
O O7 0.198064 0.642674 0.500000
O O8 0.159571 0.609125 0.378526
O O9 0.000000 0.678089 0.440584
O O10 0.182137 0.122495 0.217407
O O11 0.118673 0.109631 0.103895
O O12 0.214949 0.000000 0.168730
O O13 0.500000 0.712660 0.750372
O O14 0.250000 0.750000 0.750000
O O15 0.000000 0.000000 0.938945
O O16 0.000000 0.119585 0.000000
#
# Coordination Sequence:
#
# PCOD8289249 Si02
#       6
#    16   8  16  16  16   8
#     4   9  17  30  50  75 103 141 182 226 281 337
#     4   9  16  28  48  78 110 136 175 234 293 341
#     4  10  19  33  54  79 111 148 186 229 279 336
#     4  11  22  35  53  80 110 143 184 230 281 336
#     4  11  22  37  58  81 111 150 191 234 283 341
#     4   9  18  34  52  72 104 139 171 215 270 322
#
# _framework density 18.020914999999999
#
# number of rings (size 3 to 8) (size 9 to 14) (size 15 to 20)
#    0.000    2.000    4.000    0.600    0.000    2.400 
#    0.000    3.000    0.000    0.000    0.000    0.000 
#    0.000    0.800    0.000    0.000    0.000    0.000 
#
# Total GULP energy -495538.130895 kJ/mol
# GULP energy per Si atom -12388.453272 kJ/mol
# Density = 1.797990 g / cm^3
# Si number density = 18.020915 Si / 1000 Ang^3
#
#
#
# Elastic Constant Matrix: (Units=GPa)
#
#
# Indices 1 2 3 4 5 6 
#
# 1 40.2249 33.3359 36.4279 0.0000 0.0000 0.0000
# 2 33.3359 123.6222 70.4721 0.0000 0.0000 0.0000
# 3 36.4279 70.4721 162.4920 0.0000 0.0000 0.0000
# 4 0.0000 0.0000 0.0000 36.3916 0.0000 0.0000
# 5 0.0000 0.0000 0.0000 0.0000 27.9724 0.0000
# 6 0.0000 0.0000 0.0000 0.0000 0.0000 16.7006
#
#
#
# Elastic Compliance Matrix: (Units=1/GPa)
#
#
# Indices 1 2 3 4 5 6 
#
# 1 0.034778 -0.006554 -0.004954 0.000000 0.000000 0.000000
# 2 -0.006554 0.011981 -0.003727 0.000000 0.000000 0.000000
# 3 -0.004954 -0.003727 0.008881 0.000000 0.000000 0.000000
# 4 0.000000 0.000000 0.000000 0.027479 0.000000 0.000000
# 5 0.000000 0.000000 0.000000 0.000000 0.035749 0.000000
# 6 0.000000 0.000000 0.000000 0.000000 0.000000 0.059878
#
#
# Mechanical properties :
#
#
# Convention : Reuss Voigt Hill
#
# Bulk Modulus (GPa) = 39.72944 67.42343 53.57643
# Shear Modulus (GPa) = 22.97718 28.61982 25.79850
#
# Velocity S-wave (km/s) = 3.57463 3.98948 3.78774
# Velocity P-wave (km/s) = 6.25551 7.66267 6.99457
#
# Compressibility (1/GPa) = 0.02517025
#
# Stress axis : x y z
#
# Youngs Moduli (GPa) = 28.75347 83.46516 112.59868
#
# Poissons Ratio (x) = 0.54704 0.55784
# Poissons Ratio (y) = 0.18845 0.41963
# Poissons Ratio (z) = 0.14245 0.31106
#
# Static dielectric constant tensor:
#      x y z
#    x 3.142080 0.000000 0.000000 
#    y 0.000000 3.298900 0.000000 
#    z 0.000000 0.000000 3.633160 
# 
# 
# High freq. dielectric constant tensor:
#      x y z
#    x 1.658290 0.000000 0.000000 
#    y 0.000000 1.685810 0.000000 
#    z 0.000000 0.000000 1.719550 
# 
# From -- ./inp_files/51717.got.cif
#   From: 2010.06.25/outbox.cif.g09.slc.cpg/sg71_26_cif.got.tgz:51717.got - 2010.06.28 04:59:45.
