data_PCOD8289609
_publ_section_title
;
Structure prediction by ZEFSAII (Michael W. Deem and Ramdas Pophale) SiO2 
 PCOD8289609
Probable space group: I M M M
;
_chemical_formula_sum "Si O2"
_cell_formula_units_Z 64
_cell_length_a 7.462985
_cell_length_b 25.981387
_cell_length_c 17.900782
_cell_angle_alpha 90.000000
_cell_angle_beta 90.000000
_cell_angle_gamma 90.000000
_cell_volume 3470.938385
_symmetry_space_group_name_H-M "I M M M"
_symmetry_group_IT_number 71
_symmetry_cell_setting 'orthorhombic'
loop_
_space_group_symop_operation_xyz
x,y,z
-x,-y,z
x,-y,-z
-x,y,-z
-x,-y,-z
x,y,-z
-x,y,z
x,-y,z
1/2+x,1/2+y,1/2+z
1/2-x,1/2-y,1/2+z
1/2+x,1/2-y,1/2-z
1/2-x,1/2+y,1/2-z
1/2-x,1/2-y,1/2-z
1/2+x,1/2+y,1/2-z
1/2-x,1/2+y,1/2+z
1/2+x,1/2-y,1/2+z
loop_
_atom_site_type_symbol
_atom_site_label
_atom_site_fract_x
_atom_site_fract_y
_atom_site_fract_z
Si Si1 0.500000 0.167626 0.412053
Si Si2 0.287632 0.442104 0.579939
Si Si3 0.705095 0.594832 0.264852
Si Si4 0.298073 0.703483 0.195867
Si Si5 0.000000 0.557556 0.841357
O O1 0.500000 0.178240 0.500000
O O2 0.328348 0.196194 0.376115
O O3 0.500000 0.105408 0.399671
O O4 0.217398 0.419473 0.500000
O O5 0.500000 0.441524 0.579161
O O6 0.216386 0.500000 0.588923
O O7 0.218316 0.410109 0.650854
O O8 0.500000 0.575448 0.257487
O O9 0.725119 0.654399 0.248045
O O10 0.822271 0.560747 0.208907
O O11 0.500000 0.709293 0.165435
O O12 0.250000 0.750000 0.250000
O O13 0.000000 0.500000 0.879259
#
# Coordination Sequence:
#
# PCOD8289609 Si02
#       5
#     8  16  16  16   8
#     4  10  22  39  58  85 117 146 185 236 286 341
#     4   8  13  23  41  64  93 130 166 203 253 308
#     4   9  18  31  49  74 103 138 182 227 270 327
#     4  10  19  35  60  83 106 145 186 228 281 340
#     4  10  20  33  53  80 106 141 187 231 276 333
#
# _framework density 18.438817
#
# number of rings (size 3 to 8) (size 9 to 14) (size 15 to 20)
#    0.000    2.750    1.250    1.500    0.000    2.250 
#    0.000    1.875    0.000    2.250    0.000    7.000 
#    0.000    0.000    0.000    0.000    0.000    0.000 
#
# Total GULP energy -396479.771347 kJ/mol
# GULP energy per Si atom -12389.992855 kJ/mol
# Density = 1.839685 g / cm^3
# Si number density = 18.438817 Si / 1000 Ang^3
#
#
#
# Elastic Constant Matrix: (Units=GPa)
#
#
# Indices 1 2 3 4 5 6 
#
# 1 104.1318 36.9030 49.9354 0.0000 0.0000 0.0000
# 2 36.9030 84.3016 40.3722 0.0000 0.0000 0.0000
# 3 49.9354 40.3722 145.2627 -0.0001 0.0000 0.0000
# 4 0.0000 0.0000 -0.0001 18.1694 0.0000 0.0000
# 5 0.0000 0.0000 0.0000 0.0000 14.9520 0.0000
# 6 0.0000 0.0000 0.0000 0.0000 0.0000 12.0728
#
#
#
# Elastic Compliance Matrix: (Units=1/GPa)
#
#
# Indices 1 2 3 4 5 6 
#
# 1 0.012545 -0.003952 -0.003214 0.000000 0.000000 0.000000
# 2 -0.003952 0.014929 -0.002790 0.000000 0.000000 0.000000
# 3 -0.003214 -0.002790 0.008764 0.000000 0.000000 0.000000
# 4 0.000000 0.000000 0.000000 0.055038 0.000000 0.000000
# 5 0.000000 0.000000 0.000000 0.000000 0.066881 0.000000
# 6 0.000000 0.000000 0.000000 0.000000 0.000000 0.082831
#
#
# Mechanical properties :
#
#
# Convention : Reuss Voigt Hill
#
# Bulk Modulus (GPa) = 61.25726 65.34638 63.30182
# Shear Modulus (GPa) = 18.77282 22.80454 20.78868
#
# Velocity S-wave (km/s) = 3.19425 3.52059 3.36138
# Velocity P-wave (km/s) = 6.84824 7.21405 7.03352
#
# Compressibility (1/GPa) = 0.01632460
#
# Stress axis : x y z
#
# Youngs Moduli (GPa) = 79.71199 66.98522 114.09729
#
# Poissons Ratio (x) = 0.26475 0.36671
# Poissons Ratio (y) = 0.31506 0.31837
# Poissons Ratio (z) = 0.25620 0.18691
#
# Static dielectric constant tensor:
#      x y z
#    x 3.648140 0.000000 0.000000 
#    y 0.000000 3.359610 0.000000 
#    z 0.000000 0.000000 3.604490 
# 
# 
# High freq. dielectric constant tensor:
#      x y z
#    x 1.720190 0.000000 0.000000 
#    y 0.000000 1.701530 0.000000 
#    z 0.000000 0.000000 1.700150 
# 
# From -- ./inp_files/31211.got.cif
#   From: 2010.06.25/outbox.cif.g09.slc.cpg/sg71_16_cif.got.tgz:31211.got - 2010.06.28 04:59:45.
