data_PCOD8289879
_publ_section_title
;
Structure prediction by ZEFSAII (Michael W. Deem and Ramdas Pophale) SiO2 
 PCOD8289879
Probable space group: I M M M
;
_chemical_formula_sum "Si O2"
_cell_formula_units_Z 104
_cell_length_a 20.038210
_cell_length_b 32.641771
_cell_length_c 9.136825
_cell_angle_alpha 90.000000
_cell_angle_beta 90.000000
_cell_angle_gamma 90.000000
_cell_volume 5976.238819
_symmetry_space_group_name_H-M "I M M M"
_symmetry_group_IT_number 71
_symmetry_cell_setting 'orthorhombic'
loop_
_space_group_symop_operation_xyz
x,y,z
-x,-y,z
x,-y,-z
-x,y,-z
-x,-y,-z
x,y,-z
-x,y,z
x,-y,z
1/2+x,1/2+y,1/2+z
1/2-x,1/2-y,1/2+z
1/2+x,1/2-y,1/2-z
1/2-x,1/2+y,1/2-z
1/2-x,1/2-y,1/2-z
1/2+x,1/2+y,1/2-z
1/2-x,1/2+y,1/2+z
1/2+x,1/2-y,1/2+z
loop_
_atom_site_type_symbol
_atom_site_label
_atom_site_fract_x
_atom_site_fract_y
_atom_site_fract_z
Si Si1 0.632245 0.913816 0.332310
Si Si2 0.922738 0.823272 0.332583
Si Si3 0.176595 0.663594 0.672624
Si Si4 0.314123 0.373084 0.326533
Si Si5 0.500000 0.044277 0.326282
Si Si6 0.925435 0.730760 0.674092
Si Si7 0.229739 0.953474 0.668326
O O1 0.627057 0.898711 0.500000
O O2 0.638299 0.875834 0.226150
O O3 0.565469 0.933409 0.271084
O O4 0.691165 0.946762 0.315489
O O5 0.898349 0.827672 0.500000
O O6 0.882482 0.854188 0.230713
O O7 0.910877 0.777084 0.274864
O O8 0.000000 0.835198 0.319482
O O9 0.174173 0.665930 0.500000
O O10 0.253771 0.657682 0.724648
O O11 0.135498 0.702738 0.736906
O O12 0.315774 0.377066 0.500000
O O13 0.307881 0.419093 0.263238
O O14 0.500000 0.040965 0.500000
O O15 0.500000 0.000000 0.252951
O O16 0.926700 0.729225 0.500000
O O17 0.000000 0.717174 0.730332
O O18 0.207530 0.948068 0.500000
O O19 0.213082 0.000000 0.721632
#
# Coordination Sequence:
#
# PCOD8289879 Si02
#       7
#    16  16  16  16   8  16  16
#     4   9  17  28  43  65  92 123 161 205 247 284
#     4   9  18  34  55  75  94 122 163 202 235 281
#     4   9  18  31  46  68  97 129 165 200 238 285
#     4  10  20  32  48  74 105 130 154 192 246 297
#     4   9  16  26  41  61  87 121 161 205 251 291
#     4   8  15  29  49  70  93 128 171 207 236 274
#     4   9  17  31  51  71  92 124 166 203 234 278
#
# _framework density 17.402249999999999
#
# number of rings (size 3 to 8) (size 9 to 14) (size 15 to 20)
#    0.000    3.000    0.000    1.846    1.077    3.692 
#    0.000    0.769    0.000    3.231    0.000    3.231 
#    0.000    0.000    0.000    0.000    0.000    0.000 
#
# Total GULP energy -644362.294462 kJ/mol
# GULP energy per Si atom -12391.582586 kJ/mol
# Density = 1.736264 g / cm^3
# Si number density = 17.402250 Si / 1000 Ang^3
#
#
#
# Elastic Constant Matrix: (Units=GPa)
#
#
# Indices 1 2 3 4 5 6 
#
# 1 87.0966 63.9679 27.4858 -0.0003 0.0001 0.0001
# 2 63.9679 109.3230 27.7509 -0.0005 0.0003 0.0000
# 3 27.4858 27.7509 20.8870 0.0045 -0.0013 0.0000
# 4 -0.0003 -0.0005 0.0045 23.8361 -0.0006 0.0003
# 5 0.0001 0.0003 -0.0013 -0.0006 17.1656 -0.0003
# 6 0.0001 0.0000 0.0000 0.0003 -0.0003 16.9700
#
#
#
# Elastic Compliance Matrix: (Units=1/GPa)
#
#
# Indices 1 2 3 4 5 6 
#
# 1 0.024675 -0.009348 -0.020050 0.000004 -0.000001 0.000000
# 2 -0.009348 0.017344 -0.010742 0.000002 -0.000001 0.000000
# 3 -0.020050 -0.010742 0.088532 -0.000017 0.000007 0.000000
# 4 0.000004 0.000002 -0.000017 0.041953 0.000001 -0.000001
# 5 -0.000001 -0.000001 0.000007 0.000001 0.058256 0.000001
# 6 0.000000 0.000000 0.000000 -0.000001 0.000001 0.058927
#
#
# Mechanical properties :
#
#
# Convention : Reuss Voigt Hill
#
# Bulk Modulus (GPa) = 19.89201 50.63508 35.26354
# Shear Modulus (GPa) = 12.92911 18.13447 15.53179
#
# Velocity S-wave (km/s) = 2.72868 3.23162 2.99074
# Velocity P-wave (km/s) = 4.62419 6.56388 5.67748
#
# Compressibility (1/GPa) = 0.05027143
#
# Stress axis : x y z
#
# Youngs Moduli (GPa) = 40.52756 57.65723 11.29530
#
# Poissons Ratio (x) = 0.53900 0.22647
# Poissons Ratio (y) = 0.37886 0.12133
# Poissons Ratio (z) = 0.81256 0.61934
#
# Static dielectric constant tensor:
#      x y z
#    x 3.270340 0.000000 0.000000 
#    y 0.000000 3.319900 0.000000 
#    z 0.000000 0.000000 2.949650 
# 
# 
# High freq. dielectric constant tensor:
#      x y z
#    x 1.666710 0.000000 0.000000 
#    y 0.000000 1.670270 0.000000 
#    z 0.000000 0.000000 1.644600 
# 
# From -- ./inp_files/11468.got.cif
#   From: 2010.06.25/outbox.cif.g09.slc.cpg/sg71_6_cif.got.tgz:11468.got - 2010.06.28 04:59:45.
