data_PCOD8289564
_publ_section_title
;
Structure prediction by ZEFSAII (Michael W. Deem and Ramdas Pophale) SiO2 
 PCOD8289564
Probable space group: I M M M
;
_chemical_formula_sum "Si O2"
_cell_formula_units_Z 88
_cell_length_a 23.027235
_cell_length_b 9.292551
_cell_length_c 22.123172
_cell_angle_alpha 90.000000
_cell_angle_beta 90.000000
_cell_angle_gamma 90.000000
_cell_volume 4733.955185
_symmetry_space_group_name_H-M "I M M M"
_symmetry_group_IT_number 71
_symmetry_cell_setting 'orthorhombic'
loop_
_space_group_symop_operation_xyz
x,y,z
-x,-y,z
x,-y,-z
-x,y,-z
-x,-y,-z
x,y,-z
-x,y,z
x,-y,z
1/2+x,1/2+y,1/2+z
1/2-x,1/2-y,1/2+z
1/2+x,1/2-y,1/2-z
1/2-x,1/2+y,1/2-z
1/2-x,1/2-y,1/2-z
1/2+x,1/2+y,1/2-z
1/2-x,1/2+y,1/2+z
1/2+x,1/2-y,1/2+z
loop_
_atom_site_type_symbol
_atom_site_label
_atom_site_fract_x
_atom_site_fract_y
_atom_site_fract_z
Si Si1 0.063483 0.840203 0.570920
Si Si2 0.067228 0.670654 0.000000
Si Si3 0.563403 0.830469 0.739248
Si Si4 0.869428 0.669835 0.876949
Si Si5 0.765653 0.833185 0.811748
Si Si6 0.361429 0.837620 0.152548
O O1 0.069116 0.844439 0.500000
O O2 0.114870 0.742606 0.594540
O O3 0.000000 0.779073 0.589945
O O4 0.070747 0.000000 0.597540
O O5 0.104405 0.722079 0.941384
O O6 0.062971 0.500000 0.000000
O O7 0.000000 0.730554 0.000000
O O8 0.500000 0.762408 0.752410
O O9 0.580773 0.792440 0.671101
O O10 0.611225 0.767826 0.786036
O O11 0.560682 0.000000 0.746232
O O12 0.853947 0.500000 0.877982
O O13 0.812712 0.756595 0.854807
O O14 0.750000 0.750000 0.750000
O O15 0.707348 0.827602 0.850687
O O16 0.782959 0.000000 0.797820
O O17 0.383198 0.000000 0.148320
#
# Coordination Sequence:
#
# PCOD8289564 Si02
#       6
#    16   8  16  16  16  16
#     4   9  19  36  55  77 108 142 174 215 272 329
#     4   9  18  34  61  93 119 151 200 249 288 339
#     4   9  16  28  50  79 109 138 172 220 275 329
#     4  10  19  35  57  84 116 149 188 233 286 339
#     4  11  22  38  58  81 110 146 186 229 281 337
#     4  10  20  34  53  78 106 141 185 225 268 327
#
# _framework density 18.589106999999998
#
# number of rings (size 3 to 8) (size 9 to 14) (size 15 to 20)
#    0.000    2.273    1.818    2.182    0.000    5.091 
#    1.636    1.364    0.000    2.727    0.000    0.000 
#    0.000    0.000    0.000    0.000    0.000    0.000 
#
# Total GULP energy -545232.204052 kJ/mol
# GULP energy per Si atom -12391.641001 kJ/mol
# Density = 1.854680 g / cm^3
# Si number density = 18.589107 Si / 1000 Ang^3
#
#
#
# Elastic Constant Matrix: (Units=GPa)
#
#
# Indices 1 2 3 4 5 6 
#
# 1 125.8845 45.2244 59.0965 0.0000 0.0000 0.0000
# 2 45.2244 66.1861 39.7626 0.0000 0.0000 0.0000
# 3 59.0965 39.7626 85.9035 0.0000 0.0000 0.0000
# 4 0.0000 0.0000 0.0000 22.7244 0.0000 0.0000
# 5 0.0000 0.0000 0.0000 0.0000 36.7887 0.0000
# 6 0.0000 0.0000 0.0000 0.0000 0.0000 28.4949
#
#
#
# Elastic Compliance Matrix: (Units=1/GPa)
#
#
# Indices 1 2 3 4 5 6 
#
# 1 0.012731 -0.004762 -0.006554 0.000000 0.000000 0.000000
# 2 -0.004762 0.022710 -0.007236 0.000000 0.000000 0.000000
# 3 -0.006554 -0.007236 0.019499 0.000000 0.000000 0.000000
# 4 0.000000 0.000000 0.000000 0.044006 0.000000 0.000000
# 5 0.000000 0.000000 0.000000 0.000000 0.027182 0.000000
# 6 0.000000 0.000000 0.000000 0.000000 0.000000 0.035094
#
#
# Mechanical properties :
#
#
# Convention : Reuss Voigt Hill
#
# Bulk Modulus (GPa) = 56.06525 62.90456 59.48490
# Shear Modulus (GPa) = 24.47718 26.52763 25.50240
#
# Velocity S-wave (km/s) = 3.63264 3.78173 3.70794
# Velocity P-wave (km/s) = 6.91524 7.27885 7.09937
#
# Compressibility (1/GPa) = 0.01783636
#
# Stress axis : x y z
#
# Youngs Moduli (GPa) = 78.54616 44.03411 51.28350
#
# Poissons Ratio (x) = 0.20967 0.33613
# Poissons Ratio (y) = 0.37400 0.37109
# Poissons Ratio (z) = 0.51483 0.31864
#
# Static dielectric constant tensor:
#      x y z
#    x 3.658850 0.000000 0.000000 
#    y 0.000000 3.255990 0.000000 
#    z 0.000000 0.000000 3.390900 
# 
# 
# High freq. dielectric constant tensor:
#      x y z
#    x 1.731690 0.000000 0.000000 
#    y 0.000000 1.689370 0.000000 
#    z 0.000000 0.000000 1.719150 
# 
# From -- ./inp_files/12575.got.cif
#   From: 2010.06.25/outbox.cif.g09.slc.cpg/sg71_7_cif.got.tgz:12575.got - 2010.06.28 04:59:45.
