data_PCOD8289332
_publ_section_title
;
Structure prediction by ZEFSAII (Michael W. Deem and Ramdas Pophale) SiO2 
 PCOD8289332
Probable space group: I M M M
;
_chemical_formula_sum "Si O2"
_cell_formula_units_Z 88
_cell_length_a 25.337061
_cell_length_b 8.092418
_cell_length_c 21.570566
_cell_angle_alpha 90.000000
_cell_angle_beta 90.000000
_cell_angle_gamma 90.000000
_cell_volume 4422.787621
_symmetry_space_group_name_H-M "I M M M"
_symmetry_group_IT_number 71
_symmetry_cell_setting 'orthorhombic'
loop_
_space_group_symop_operation_xyz
x,y,z
-x,-y,z
x,-y,-z
-x,y,-z
-x,-y,-z
x,y,-z
-x,y,z
x,-y,z
1/2+x,1/2+y,1/2+z
1/2-x,1/2-y,1/2+z
1/2+x,1/2-y,1/2-z
1/2-x,1/2+y,1/2-z
1/2-x,1/2-y,1/2-z
1/2+x,1/2+y,1/2-z
1/2-x,1/2+y,1/2+z
1/2+x,1/2-y,1/2+z
loop_
_atom_site_type_symbol
_atom_site_label
_atom_site_fract_x
_atom_site_fract_y
_atom_site_fract_z
Si Si1 0.611729 0.694916 0.570034
Si Si2 0.086386 0.313315 0.353501
Si Si3 0.938057 0.000000 0.431999
Si Si4 0.000000 0.692987 0.256826
Si Si5 0.000000 0.694271 0.120013
Si Si6 0.299106 0.308867 0.664677
Si Si7 0.811456 0.186306 0.309332
O O1 0.626483 0.752725 0.500000
O O2 0.612274 0.500000 0.575031
O O3 0.552609 0.753056 0.584301
O O4 0.655133 0.765439 0.619341
O O5 0.069778 0.500000 0.375375
O O6 0.051872 0.253779 0.294675
O O7 0.147567 0.318516 0.335677
O O8 0.080570 0.173994 0.404768
O O9 0.913818 0.000000 0.500000
O O10 0.000000 0.000000 0.430886
O O11 0.000000 0.500000 0.246231
O O12 0.000000 0.777323 0.188875
O O13 0.000000 0.500000 0.125014
O O14 0.290027 0.500000 0.649013
O O15 0.244035 0.213362 0.655663
O O16 0.312832 0.281614 0.736132
O O17 0.830215 0.000000 0.323569
#
# Coordination Sequence:
#
# PCOD8289332 Si02
#       7
#    16  16   8   8   8  16  16
#     4  10  21  38  56  77 110 152 198 239 281 347
#     4  11  21  38  61  88 122 159 195 245 300 354
#     4  11  24  42  62  88 120 156 200 243 291 361
#     4   9  20  35  55  87 120 150 189 235 292 348
#     4  11  22  36  55  84 117 148 190 240 288 344
#     4   9  19  35  55  83 112 153 197 241 304 358
#     4  10  19  33  57  86 118 149 193 251 303 357
#
# _framework density 19.896954000000001
#
# number of rings (size 3 to 8) (size 9 to 14) (size 15 to 20)
#    0.000    1.909    1.818    2.182    0.000    3.273 
#    3.273    1.818    0.000    2.182    0.000    0.000 
#    0.000    0.000    0.000    0.000    0.000    0.000 
#
# Total GULP energy -545305.739425 kJ/mol
# GULP energy per Si atom -12393.312260 kJ/mol
# Density = 1.985167 g / cm^3
# Si number density = 19.896954 Si / 1000 Ang^3
#
#
#
# Elastic Constant Matrix: (Units=GPa)
#
#
# Indices 1 2 3 4 5 6 
#
# 1 140.5674 28.6557 63.9479 0.0000 0.0000 0.0000
# 2 28.6557 70.2984 45.7423 0.0000 0.0000 0.0000
# 3 63.9479 45.7423 118.0533 0.0000 0.0000 0.0000
# 4 0.0000 0.0000 0.0000 22.7202 0.0000 0.0000
# 5 0.0000 0.0000 0.0000 0.0000 21.8983 0.0000
# 6 0.0000 0.0000 0.0000 0.0000 0.0000 10.6716
#
#
#
# Elastic Compliance Matrix: (Units=1/GPa)
#
#
# Indices 1 2 3 4 5 6 
#
# 1 0.009466 -0.000698 -0.004857 0.000000 0.000000 0.000000
# 2 -0.000698 0.019072 -0.007012 0.000000 0.000000 0.000000
# 3 -0.004857 -0.007012 0.013819 0.000000 0.000000 0.000000
# 4 0.000000 0.000000 0.000000 0.044014 0.000000 0.000000
# 5 0.000000 0.000000 0.000000 0.000000 0.045666 0.000000
# 6 0.000000 0.000000 0.000000 0.000000 0.000000 0.093707
#
#
# Mechanical properties :
#
#
# Convention : Reuss Voigt Hill
#
# Bulk Modulus (GPa) = 58.06266 67.29009 62.67638
# Shear Modulus (GPa) = 19.48425 23.76290 21.62357
#
# Velocity S-wave (km/s) = 3.13270 3.45961 3.30021
# Velocity P-wave (km/s) = 6.50616 7.06054 6.78901
#
# Compressibility (1/GPa) = 0.01722277
#
# Stress axis : x y z
#
# Youngs Moduli (GPa) = 105.64168 52.43257 72.36623
#
# Poissons Ratio (x) = 0.03661 0.35149
# Poissons Ratio (y) = 0.07376 0.50741
# Poissons Ratio (z) = 0.51311 0.36764
#
# Static dielectric constant tensor:
#      x y z
#    x 3.866920 0.000000 0.000000 
#    y 0.000000 3.518330 0.000000 
#    z 0.000000 0.000000 3.830370 
# 
# 
# High freq. dielectric constant tensor:
#      x y z
#    x 1.784410 0.000000 0.000000 
#    y 0.000000 1.772360 0.000000 
#    z 0.000000 0.000000 1.760300 
# 
# From -- ./inp_files/55609.got.cif
#   From: 2010.06.25/outbox.cif.g09.slc.cpg/sg71_28_cif.got.tgz:55609.got - 2010.06.28 04:59:45.
