data_PCOD8289248
_publ_section_title
;
Structure prediction by ZEFSAII (Michael W. Deem and Ramdas Pophale) SiO2 
 PCOD8289248
Probable space group: I M M M
;
_chemical_formula_sum "Si O2"
_cell_formula_units_Z 104
_cell_length_a 20.728955
_cell_length_b 9.075616
_cell_length_c 28.614439
_cell_angle_alpha 90.000000
_cell_angle_beta 90.000000
_cell_angle_gamma 90.000000
_cell_volume 5383.178201
_symmetry_space_group_name_H-M "I M M M"
_symmetry_group_IT_number 71
_symmetry_cell_setting 'orthorhombic'
loop_
_space_group_symop_operation_xyz
x,y,z
-x,-y,z
x,-y,-z
-x,y,-z
-x,-y,-z
x,y,-z
-x,y,z
x,-y,z
1/2+x,1/2+y,1/2+z
1/2-x,1/2-y,1/2+z
1/2+x,1/2-y,1/2-z
1/2-x,1/2+y,1/2-z
1/2-x,1/2-y,1/2-z
1/2+x,1/2+y,1/2-z
1/2-x,1/2+y,1/2+z
1/2+x,1/2-y,1/2+z
loop_
_atom_site_type_symbol
_atom_site_label
_atom_site_fract_x
_atom_site_fract_y
_atom_site_fract_z
Si Si1 0.181935 0.167466 0.702235
Si Si2 0.254834 0.832115 0.054282
Si Si3 0.875401 0.673078 0.946538
Si Si4 0.500000 0.674032 0.053080
Si Si5 0.130540 0.170255 0.602507
Si Si6 0.170663 0.670911 0.795697
Si Si7 0.427821 0.330626 0.636831
O O1 0.134015 0.189124 0.658488
O O2 0.159026 0.276519 0.742728
O O3 0.255977 0.203094 0.687962
O O4 0.178204 0.000000 0.721063
O O5 0.194752 0.731090 0.068364
O O6 0.316679 0.775581 0.080970
O O7 0.239840 0.000000 0.068711
O O8 0.270230 0.818105 0.000000
O O9 0.877147 0.500000 0.937899
O O10 0.927293 0.751798 0.913685
O O11 0.891667 0.713835 0.000000
O O12 0.500000 0.500000 0.049479
O O13 0.562194 0.726263 0.082470
O O14 0.500000 0.739953 0.000000
O O15 0.143497 0.000000 0.588532
O O16 0.153413 0.500000 0.798995
O O17 0.122808 0.757684 0.828791
O O18 0.500000 0.314140 0.657366
O O19 0.408842 0.500000 0.630137
#
# Coordination Sequence:
#
# PCOD8289248 Si02
#       7
#    16  16  16   8  16  16  16
#     4   9  19  35  56  83 112 141 180 230 288 342
#     4  10  20  33  52  80 112 145 184 233 287 337
#     4  10  21  37  58  84 113 146 186 232 278 327
#     4   9  18  32  51  77 109 147 191 237 284 337
#     4  10  19  33  54  79 108 146 191 236 283 340
#     4  10  20  36  59  84 111 145 185 231 281 337
#     4  11  24  40  58  82 114 153 190 226 274 329
#
# _framework density 19.319441999999999
#
# number of rings (size 3 to 8) (size 9 to 14) (size 15 to 20)
#    0.000    2.077    0.000    3.231    0.000    6.462 
#    1.385    1.923    0.000    1.385    0.000    0.000 
#    0.000    0.000    0.000    0.000    0.000    0.000 
#
# Total GULP energy -644907.572962 kJ/mol
# GULP energy per Si atom -12402.068711 kJ/mol
# Density = 1.927547 g / cm^3
# Si number density = 19.319442 Si / 1000 Ang^3
#
#
#
# Elastic Constant Matrix: (Units=GPa)
#
#
# Indices 1 2 3 4 5 6 
#
# 1 80.9128 42.1646 63.0933 0.0000 0.0000 0.0000
# 2 42.1646 97.7092 49.6277 0.0000 0.0000 0.0000
# 3 63.0933 49.6277 100.6098 0.0000 0.0000 0.0000
# 4 0.0000 0.0000 0.0000 35.7525 0.0000 0.0000
# 5 0.0000 0.0000 0.0000 0.0000 27.7686 0.0000
# 6 0.0000 0.0000 0.0000 0.0000 0.0000 27.5824
#
#
#
# Elastic Compliance Matrix: (Units=1/GPa)
#
#
# Indices 1 2 3 4 5 6 
#
# 1 0.025201 -0.003800 -0.013929 0.000000 0.000000 0.000000
# 2 -0.003800 0.014229 -0.004635 0.000000 0.000000 0.000000
# 3 -0.013929 -0.004635 0.020961 0.000000 0.000000 0.000000
# 4 0.000000 0.000000 0.000000 0.027970 0.000000 0.000000
# 5 0.000000 0.000000 0.000000 0.000000 0.036012 0.000000
# 6 0.000000 0.000000 0.000000 0.000000 0.000000 0.036255
#
#
# Mechanical properties :
#
#
# Convention : Reuss Voigt Hill
#
# Bulk Modulus (GPa) = 63.85290 65.44477 64.64883
# Shear Modulus (GPa) = 23.74424 26.51046 25.12735
#
# Velocity S-wave (km/s) = 3.50956 3.70836 3.61033
# Velocity P-wave (km/s) = 7.03886 7.23081 7.13548
#
# Compressibility (1/GPa) = 0.01566100
#
# Stress axis : x y z
#
# Youngs Moduli (GPa) = 39.68129 70.28021 47.70766
#
# Poissons Ratio (x) = 0.26708 0.66453
# Poissons Ratio (y) = 0.15080 0.22115
# Poissons Ratio (z) = 0.55273 0.32578
#
# Static dielectric constant tensor:
#      x y z
#    x 3.504440 0.000000 0.000000 
#    y 0.000000 3.546470 0.000000 
#    z 0.000000 0.000000 3.633640 
# 
# 
# High freq. dielectric constant tensor:
#      x y z
#    x 1.742820 0.000000 0.000000 
#    y 0.000000 1.751700 0.000000 
#    z 0.000000 0.000000 1.755840 
# 
# From -- ./inp_files/66444.got.cif
#   From: 2010.06.25/outbox.cif.g09.slc.cpg/sg71_34_cif.got.tgz:66444.got - 2010.06.28 04:59:45.
