data_PCOD8289856
_publ_section_title
;
Structure prediction by ZEFSAII (Michael W. Deem and Ramdas Pophale) SiO2 
 PCOD8289856
Probable space group: I M M M
;
_chemical_formula_sum "Si O2"
_cell_formula_units_Z 88
_cell_length_a 9.456729
_cell_length_b 27.903456
_cell_length_c 18.772868
_cell_angle_alpha 90.000000
_cell_angle_beta 90.000000
_cell_angle_gamma 90.000000
_cell_volume 4953.698457
_symmetry_space_group_name_H-M "I M M M"
_symmetry_group_IT_number 71
_symmetry_cell_setting 'orthorhombic'
loop_
_space_group_symop_operation_xyz
x,y,z
-x,-y,z
x,-y,-z
-x,y,-z
-x,-y,-z
x,y,-z
-x,y,z
x,-y,z
1/2+x,1/2+y,1/2+z
1/2-x,1/2-y,1/2+z
1/2+x,1/2-y,1/2-z
1/2-x,1/2+y,1/2-z
1/2-x,1/2-y,1/2-z
1/2+x,1/2+y,1/2-z
1/2-x,1/2+y,1/2+z
1/2+x,1/2-y,1/2+z
loop_
_atom_site_type_symbol
_atom_site_label
_atom_site_fract_x
_atom_site_fract_y
_atom_site_fract_z
Si Si1 0.169508 0.654009 0.332637
Si Si2 0.339733 0.914638 0.630993
Si Si3 0.659711 0.190228 0.681920
Si Si4 0.345173 0.444196 0.000000
Si Si5 0.832951 0.773659 0.081781
Si Si6 0.332363 0.947538 0.216331
O O1 0.225724 0.680742 0.260377
O O2 0.248920 0.677689 0.399273
O O3 0.217385 0.597728 0.331427
O O4 0.000000 0.658074 0.339809
O O5 0.500000 0.931317 0.614473
O O6 0.333090 0.857609 0.635895
O O7 0.237729 0.929355 0.569197
O O8 0.281948 0.939396 0.702764
O O9 0.500000 0.205946 0.695195
O O10 0.729918 0.232344 0.634403
O O11 0.364720 0.500000 0.000000
O O12 0.500000 0.419509 0.000000
O O13 0.000000 0.781708 0.091992
O O14 0.799590 0.759916 0.000000
O O15 0.500000 0.947073 0.216489
O O16 0.276252 0.000000 0.189202
#
# Coordination Sequence:
#
# PCOD8289856 Si02
#       6
#    16  16  16   8  16  16
#     4   9  17  31  51  74  98 123 155 198 241 282
#     4   9  17  30  51  71  87 116 164 207 233 277
#     4   8  16  31  51  74  95 121 158 199 241 281
#     4  11  23  33  39  57  97 137 161 193 244 287
#     4  10  20  32  48  70  99 133 162 190 233 288
#     4   8  14  27  49  75  96 114 148 201 250 285
#
# _framework density 17.764505
#
# number of rings (size 3 to 8) (size 9 to 14) (size 15 to 20)
#    0.000    3.000    0.000    3.545    1.273    1.818 
#    0.000    4.545    0.000    2.182    0.000    3.818 
#    0.000    0.000    0.000    0.000    0.000    0.000 
#
# Total GULP energy -545145.766882 kJ/mol
# GULP energy per Si atom -12389.676520 kJ/mol
# Density = 1.772407 g / cm^3
# Si number density = 17.764505 Si / 1000 Ang^3
#
#
#
# Elastic Constant Matrix: (Units=GPa)
#
#
# Indices 1 2 3 4 5 6 
#
# 1 41.5198 16.6291 19.7079 0.0000 0.0000 0.0000
# 2 16.6291 109.0917 37.5699 0.0000 0.0000 0.0000
# 3 19.7079 37.5699 52.0501 0.0003 0.0000 0.0000
# 4 0.0000 0.0000 0.0003 13.8521 0.0000 0.0000
# 5 0.0000 0.0000 0.0000 0.0000 17.9454 0.0000
# 6 0.0000 0.0000 0.0000 0.0000 0.0000 21.1085
#
#
#
# Elastic Compliance Matrix: (Units=1/GPa)
#
#
# Indices 1 2 3 4 5 6 
#
# 1 0.029423 -0.000863 -0.010518 0.000000 0.000000 0.000000
# 2 -0.000863 0.012224 -0.008497 0.000000 0.000000 0.000000
# 3 -0.010518 -0.008497 0.029328 -0.000001 0.000000 0.000000
# 4 0.000000 0.000000 -0.000001 0.072191 0.000000 0.000000
# 5 0.000000 0.000000 0.000000 0.000000 0.055724 0.000000
# 6 0.000000 0.000000 0.000000 0.000000 0.000000 0.047374
#
#
# Mechanical properties :
#
#
# Convention : Reuss Voigt Hill
#
# Bulk Modulus (GPa) = 32.03066 38.94171 35.48619
# Shear Modulus (GPa) = 16.86762 19.16487 18.01624
#
# Velocity S-wave (km/s) = 3.08476 3.28812 3.18806
# Velocity P-wave (km/s) = 5.54594 6.03194 5.79404
#
# Compressibility (1/GPa) = 0.03122008
#
# Stress axis : x y z
#
# Youngs Moduli (GPa) = 33.98724 81.80402 34.09754
#
# Poissons Ratio (x) = 0.07058 0.35863
# Poissons Ratio (y) = 0.02933 0.28972
# Poissons Ratio (z) = 0.35747 0.69508
#
# Static dielectric constant tensor:
#      x y z
#    x 2.976880 0.000000 0.000000 
#    y 0.000000 3.678420 0.000000 
#    z 0.000000 0.000000 3.166560 
# 
# 
# High freq. dielectric constant tensor:
#      x y z
#    x 1.644820 0.000000 0.000000 
#    y 0.000000 1.697580 0.000000 
#    z 0.000000 0.000000 1.668350 
# 
# From -- ./inp_files/8814.got.cif
#   From: 2010.06.25/outbox.cif.g09.slc.cpg/sg71_5_cif.got.tgz:8814.got - 2010.06.28 04:59:45.
