data_PCOD8289563
_publ_section_title
;
Structure prediction by ZEFSAII (Michael W. Deem and Ramdas Pophale) SiO2 
 PCOD8289563
Probable space group: I M M M
;
_chemical_formula_sum "Si O2"
_cell_formula_units_Z 80
_cell_length_a 23.086204
_cell_length_b 8.963583
_cell_length_c 20.507332
_cell_angle_alpha 90.000000
_cell_angle_beta 90.000000
_cell_angle_gamma 90.000000
_cell_volume 4243.686915
_symmetry_space_group_name_H-M "I M M M"
_symmetry_group_IT_number 71
_symmetry_cell_setting 'orthorhombic'
loop_
_space_group_symop_operation_xyz
x,y,z
-x,-y,z
x,-y,-z
-x,y,-z
-x,-y,-z
x,y,-z
-x,y,z
x,-y,z
1/2+x,1/2+y,1/2+z
1/2-x,1/2-y,1/2+z
1/2+x,1/2-y,1/2-z
1/2-x,1/2+y,1/2-z
1/2-x,1/2-y,1/2-z
1/2+x,1/2+y,1/2-z
1/2-x,1/2+y,1/2+z
1/2+x,1/2-y,1/2+z
loop_
_atom_site_type_symbol
_atom_site_label
_atom_site_fract_x
_atom_site_fract_y
_atom_site_fract_z
Si Si1 0.115358 0.675567 0.873459
Si Si2 0.185391 0.323042 0.000000
Si Si3 0.500000 0.325140 0.181611
Si Si4 0.622422 0.323577 0.868614
Si Si5 0.188785 0.674696 0.252588
Si Si6 0.000000 0.822339 0.170230
Si Si7 0.816637 0.176752 0.500000
O O1 0.102217 0.500000 0.877343
O O2 0.150703 0.732288 0.936514
O O3 0.153520 0.718448 0.811450
O O4 0.055349 0.763337 0.869016
O O5 0.189906 0.500000 0.000000
O O6 0.251111 0.257136 0.000000
O O7 0.500000 0.500000 0.191800
O O8 0.444600 0.275811 0.139200
O O9 0.500000 0.257366 0.255239
O O10 0.631148 0.500000 0.859031
O O11 0.656579 0.235940 0.814623
O O12 0.647087 0.268105 0.937639
O O13 0.197305 0.500000 0.258717
O O14 0.250000 0.750000 0.250000
O O15 0.000000 0.000000 0.169476
O O16 0.812924 0.000000 0.500000
#
# Coordination Sequence:
#
# PCOD8289563 Si02
#       7
#    16   8   8  16  16   8   8
#     4  10  21  37  58  81 108 146 190 230 276 334
#     4   9  18  35  55  79 109 143 186 235 280 323
#     4   9  18  32  54  83 115 147 180 229 281 329
#     4  10  19  35  57  83 114 150 189 229 279 333
#     4  11  22  35  55  83 111 145 189 237 283 335
#     4  11  21  36  57  83 116 146 181 232 285 331
#     4   9  18  33  58  85 114 149 186 233 278 331
#
# _framework density 18.851531999999999
#
# number of rings (size 3 to 8) (size 9 to 14) (size 15 to 20)
#    0.000    2.000    2.000    2.100    0.000    4.800 
#    0.000    5.500    0.000    1.200    0.000    1.400 
#    0.000    0.000    0.000    0.000    0.000    0.000 
#
# Total GULP energy -496013.502398 kJ/mol
# GULP energy per Si atom -12400.337560 kJ/mol
# Density = 1.880862 g / cm^3
# Si number density = 18.851532 Si / 1000 Ang^3
#
#
#
# Elastic Constant Matrix: (Units=GPa)
#
#
# Indices 1 2 3 4 5 6 
#
# 1 265.2867 139.6665 176.6128 0.0000 0.0000 0.0000
# 2 139.6665 175.7818 148.4770 0.0000 0.0000 0.0000
# 3 176.6128 148.4770 271.7081 0.0000 0.0000 0.0000
# 4 0.0000 0.0000 0.0000 24.9553 0.0000 0.0000
# 5 0.0000 0.0000 0.0000 0.0000 42.5799 0.0000
# 6 0.0000 0.0000 0.0000 0.0000 0.0000 28.3631
#
#
#
# Elastic Compliance Matrix: (Units=1/GPa)
#
#
# Indices 1 2 3 4 5 6 
#
# 1 0.007645 -0.003486 -0.003064 0.000000 0.000000 0.000000
# 2 -0.003486 0.012155 -0.004377 0.000000 0.000000 0.000000
# 3 -0.003064 -0.004377 0.008064 0.000000 0.000000 0.000000
# 4 0.000000 0.000000 0.000000 0.040072 0.000000 0.000000
# 5 0.000000 0.000000 0.000000 0.000000 0.023485 0.000000
# 6 0.000000 0.000000 0.000000 0.000000 0.000000 0.035257
#
#
# Mechanical properties :
#
#
# Convention : Reuss Voigt Hill
#
# Bulk Modulus (GPa) = 166.37424 182.47660 174.42542
# Shear Modulus (GPa) = 33.21502 35.71435 34.46468
#
# Velocity S-wave (km/s) = 4.20209 4.35731 4.28040
# Velocity P-wave (km/s) = 10.58253 11.05992 10.82386
#
# Compressibility (1/GPa) = 0.00601055
#
# Stress axis : x y z
#
# Youngs Moduli (GPa) = 130.80939 82.26979 124.01039
#
# Poissons Ratio (x) = 0.28677 0.38001
# Poissons Ratio (y) = 0.45597 0.54273
# Poissons Ratio (z) = 0.40084 0.36005
#
# Static dielectric constant tensor:
#      x y z
#    x 4.076330 0.000000 0.000000 
#    y 0.000000 3.152950 0.000000 
#    z 0.000000 0.000000 3.643320 
# 
# 
# High freq. dielectric constant tensor:
#      x y z
#    x 1.752590 0.000000 0.000000 
#    y 0.000000 1.698750 0.000000 
#    z 0.000000 0.000000 1.740760 
# 
# From -- ./inp_files/55496.got.cif
#   From: 2010.06.25/outbox.cif.g09.slc.cpg/sg71_28_cif.got.tgz:55496.got - 2010.06.28 04:59:45.
