data_PCOD8289590
_publ_section_title
;
Structure prediction by ZEFSAII (Michael W. Deem and Ramdas Pophale) SiO2 
 PCOD8289590
Probable space group: I M M M
;
_chemical_formula_sum "Si O2"
_cell_formula_units_Z 88
_cell_length_a 29.312490
_cell_length_b 17.262581
_cell_length_c 9.096282
_cell_angle_alpha 90.000000
_cell_angle_beta 90.000000
_cell_angle_gamma 90.000000
_cell_volume 4602.802677
_symmetry_space_group_name_H-M "I M M M"
_symmetry_group_IT_number 71
_symmetry_cell_setting 'orthorhombic'
loop_
_space_group_symop_operation_xyz
x,y,z
-x,-y,z
x,-y,-z
-x,y,-z
-x,-y,-z
x,y,-z
-x,y,z
x,-y,z
1/2+x,1/2+y,1/2+z
1/2-x,1/2-y,1/2+z
1/2+x,1/2-y,1/2-z
1/2-x,1/2+y,1/2-z
1/2-x,1/2-y,1/2-z
1/2+x,1/2+y,1/2-z
1/2-x,1/2+y,1/2+z
1/2+x,1/2-y,1/2+z
loop_
_atom_site_type_symbol
_atom_site_label
_atom_site_fract_x
_atom_site_fract_y
_atom_site_fract_z
Si Si1 0.500000 0.911464 0.674358
Si Si2 0.825381 0.000000 0.825486
Si Si3 0.313224 0.808538 0.670762
Si Si4 0.928402 0.000000 0.824646
Si Si5 0.227816 0.854397 0.827190
Si Si6 0.551069 0.655454 0.165394
Si Si7 0.083359 0.696929 0.172666
O O1 0.500000 0.915517 0.500000
O O2 0.454259 0.865879 0.727877
O O3 0.500000 0.000000 0.737474
O O4 0.876689 0.000000 0.770861
O O5 0.800911 0.075201 0.760940
O O6 0.823933 0.000000 0.000000
O O7 0.303553 0.820100 0.500000
O O8 0.278360 0.862211 0.759488
O O9 0.301011 0.721003 0.719106
O O10 0.365375 0.832603 0.707705
O O11 0.950758 0.076397 0.757418
O O12 0.935082 0.000000 0.000000
O O13 0.233724 0.860126 0.000000
O O14 0.500000 0.688006 0.157698
O O15 0.580203 0.720955 0.246491
O O16 0.570025 0.641420 0.000000
O O17 0.076943 0.712879 0.000000
#
# Coordination Sequence:
#
# PCOD8289590 Si02
#       7
#     8   8  16   8  16  16  16
#     4   9  18  34  57  84 109 134 173 229 282 325
#     4   9  18  34  54  77 104 137 177 222 263 311
#     4   9  18  32  51  78 105 133 172 220 262 310
#     4  11  22  36  57  82 110 148 191 227 264 316
#     4   9  17  32  52  72 102 138 172 209 259 315
#     4  11  23  37  53  78 115 149 182 227 275 320
#     4  10  19  35  59  82 106 141 186 227 272 332
#
# _framework density 19.118786
#
# number of rings (size 3 to 8) (size 9 to 14) (size 15 to 20)
#    0.000    2.273    0.909    2.182    0.000    5.818 
#    1.636    5.909    0.000    1.091    0.000    0.000 
#    0.000    0.000    0.000    0.000    0.000    0.000 
#
# Total GULP energy -545456.720919 kJ/mol
# GULP energy per Si atom -12396.743657 kJ/mol
# Density = 1.907527 g / cm^3
# Si number density = 19.118786 Si / 1000 Ang^3
#
#
#
# Elastic Constant Matrix: (Units=GPa)
#
#
# Indices 1 2 3 4 5 6 
#
# 1 138.3582 34.1144 26.1149 0.0000 0.0000 0.0000
# 2 34.1144 78.6136 21.8441 0.0000 0.0000 0.0000
# 3 26.1149 21.8441 52.0105 0.0000 0.0000 0.0000
# 4 0.0000 0.0000 0.0000 18.5352 0.0000 0.0000
# 5 0.0000 0.0000 0.0000 0.0000 28.7131 0.0000
# 6 0.0000 0.0000 0.0000 0.0000 0.0000 45.2355
#
#
#
# Elastic Compliance Matrix: (Units=1/GPa)
#
#
# Indices 1 2 3 4 5 6 
#
# 1 0.008508 -0.002836 -0.003081 0.000000 0.000000 0.000000
# 2 -0.002836 0.015346 -0.005021 0.000000 0.000000 0.000000
# 3 -0.003081 -0.005021 0.022883 0.000000 0.000000 0.000000
# 4 0.000000 0.000000 0.000000 0.053951 0.000000 0.000000
# 5 0.000000 0.000000 0.000000 0.000000 0.034827 0.000000
# 6 0.000000 0.000000 0.000000 0.000000 0.000000 0.022107
#
#
# Mechanical properties :
#
#
# Convention : Reuss Voigt Hill
#
# Bulk Modulus (GPa) = 40.22407 48.12542 44.17474
# Shear Modulus (GPa) = 26.62594 30.95736 28.79165
#
# Velocity S-wave (km/s) = 3.73588 4.02831 3.88485
# Velocity P-wave (km/s) = 6.30030 6.84564 6.57862
#
# Compressibility (1/GPa) = 0.02486074
#
# Stress axis : x y z
#
# Youngs Moduli (GPa) = 117.53033 65.16167 43.70087
#
# Poissons Ratio (x) = 0.18481 0.13464
# Poissons Ratio (y) = 0.33333 0.21944
# Poissons Ratio (z) = 0.36211 0.32720
#
# Static dielectric constant tensor:
#      x y z
#    x 3.709060 0.000000 0.000000 
#    y 0.000000 3.504580 0.000000 
#    z 0.000000 0.000000 3.291260 
# 
# 
# High freq. dielectric constant tensor:
#      x y z
#    x 1.755460 0.000000 0.000000 
#    y 0.000000 1.731490 0.000000 
#    z 0.000000 0.000000 1.720380 
# 
# From -- ./inp_files/8935.got.cif
#   From: 2010.06.25/outbox.cif.g09.slc.cpg/sg71_5_cif.got.tgz:8935.got - 2010.06.28 04:59:45.
