data_PCOD8289345
_publ_section_title
;
Structure prediction by ZEFSAII (Michael W. Deem and Ramdas Pophale) SiO2 
 PCOD8289345
Probable space group: I M M M
;
_chemical_formula_sum "Si O2"
_cell_formula_units_Z 112
_cell_length_a 24.523673
_cell_length_b 27.443344
_cell_length_c 9.585741
_cell_angle_alpha 90.000000
_cell_angle_beta 90.000000
_cell_angle_gamma 90.000000
_cell_volume 6451.314833
_symmetry_space_group_name_H-M "I M M M"
_symmetry_group_IT_number 71
_symmetry_cell_setting 'orthorhombic'
loop_
_space_group_symop_operation_xyz
x,y,z
-x,-y,z
x,-y,-z
-x,y,-z
-x,-y,-z
x,y,-z
-x,y,z
x,-y,z
1/2+x,1/2+y,1/2+z
1/2-x,1/2-y,1/2+z
1/2+x,1/2-y,1/2-z
1/2-x,1/2+y,1/2-z
1/2-x,1/2-y,1/2-z
1/2+x,1/2+y,1/2-z
1/2-x,1/2+y,1/2+z
1/2+x,1/2-y,1/2+z
loop_
_atom_site_type_symbol
_atom_site_label
_atom_site_fract_x
_atom_site_fract_y
_atom_site_fract_z
Si Si1 0.845036 0.944373 0.661922
Si Si2 0.242818 0.134160 0.665789
Si Si3 0.661436 0.169621 0.831981
Si Si4 0.061355 0.899199 0.155829
Si Si5 0.438668 0.813616 0.655803
Si Si6 0.326463 0.722846 0.153462
Si Si7 0.059704 0.207103 0.250367
O O1 0.858371 0.937784 0.500000
O O2 0.791149 0.914158 0.701981
O O3 0.898039 0.925338 0.739869
O O4 0.833074 0.000000 0.702449
O O5 0.255151 0.137468 0.500000
O O6 0.298115 0.131544 0.756844
O O7 0.208238 0.180266 0.726935
O O8 0.600715 0.161553 0.770841
O O9 0.680677 0.223606 0.779534
O O10 0.660603 0.163708 0.000000
O O11 0.066740 0.840730 0.156456
O O12 0.000000 0.914646 0.198351
O O13 0.074893 0.917007 0.000000
O O14 0.422305 0.830974 0.500000
O O15 0.500000 0.830762 0.692578
O O16 0.435469 0.754880 0.654442
O O17 0.390404 0.708286 0.140975
O O18 0.302433 0.726436 0.000000
O O19 0.000000 0.206499 0.326254
#
# Coordination Sequence:
#
# PCOD8289345 Si02
#       7
#    16  16  16  16  16  16  16
#     4  10  22  39  56  72  91 120 161 209 257 301
#     4  10  19  34  51  67  92 124 159 199 244 293
#     4  10  20  31  46  72 101 127 160 196 234 281
#     4  10  20  33  50  72  96 123 159 206 258 305
#     4   9  17  30  48  70  99 135 168 195 228 273
#     4   9  17  29  44  67  95 126 161 199 242 286
#     4   9  16  27  44  68  95 126 166 206 243 287
#
# _framework density 17.360803000000001
#
# number of rings (size 3 to 8) (size 9 to 14) (size 15 to 20)
#    0.000    2.429    1.429    1.286    0.000    3.714 
#    0.000    6.429    0.000    0.000    0.000    0.000 
#    0.000    0.571    0.000    6.571    0.000    2.000 
#
# Total GULP energy -693888.387471 kJ/mol
# GULP energy per Si atom -12390.864062 kJ/mol
# Density = 1.732129 g / cm^3
# Si number density = 17.360803 Si / 1000 Ang^3
#
#
#
# Elastic Constant Matrix: (Units=GPa)
#
#
# Indices 1 2 3 4 5 6 
#
# 1 125.1333 51.3965 59.8965 0.0000 0.0000 0.0000
# 2 51.3965 56.9156 32.6976 0.0000 0.0000 0.0000
# 3 59.8965 32.6976 76.8571 0.0000 0.0000 0.0000
# 4 0.0000 0.0000 0.0000 12.9765 0.0000 0.0000
# 5 0.0000 0.0000 0.0000 0.0000 30.7787 0.0000
# 6 0.0000 0.0000 0.0000 0.0000 0.0000 18.0338
#
#
#
# Elastic Compliance Matrix: (Units=1/GPa)
#
#
# Indices 1 2 3 4 5 6 
#
# 1 0.015914 -0.009590 -0.008322 0.000000 0.000000 0.000000
# 2 -0.009590 0.029032 -0.004878 0.000000 0.000000 0.000000
# 3 -0.008322 -0.004878 0.021572 0.000000 0.000000 0.000000
# 4 0.000000 0.000000 0.000000 0.077062 0.000000 0.000000
# 5 0.000000 0.000000 0.000000 0.000000 0.032490 0.000000
# 6 0.000000 0.000000 0.000000 0.000000 0.000000 0.055451
#
#
# Mechanical properties :
#
#
# Convention : Reuss Voigt Hill
#
# Bulk Modulus (GPa) = 47.75894 60.76523 54.26208
# Shear Modulus (GPa) = 17.60071 20.01884 18.80977
#
# Velocity S-wave (km/s) = 3.18751 3.39942 3.29517
# Velocity P-wave (km/s) = 6.41220 7.10531 6.76764
#
# Compressibility (1/GPa) = 0.02093849
#
# Stress axis : x y z
#
# Youngs Moduli (GPa) = 62.83876 34.44509 46.35634
#
# Poissons Ratio (x) = 0.33031 0.38579
# Poissons Ratio (y) = 0.60259 0.22611
# Poissons Ratio (z) = 0.52296 0.16801
#
# Static dielectric constant tensor:
#      x y z
#    x 3.353780 0.000000 0.000000 
#    y 0.000000 2.985010 0.000000 
#    z 0.000000 0.000000 2.997800 
# 
# 
# High freq. dielectric constant tensor:
#      x y z
#    x 1.676120 0.000000 0.000000 
#    y 0.000000 1.624690 0.000000 
#    z 0.000000 0.000000 1.656820 
# 
# From -- ./inp_files/26264.got.cif
#   From: 2010.06.25/outbox.cif.g09.slc.cpg/sg71_14_cif.got.tgz:26264.got - 2010.06.28 04:59:45.
