data_PCOD8289987
_publ_section_title
;
Structure prediction by ZEFSAII (Michael W. Deem and Ramdas Pophale) SiO2 
 PCOD8289987
Probable space group: I M M M
;
_chemical_formula_sum "Si O2"
_cell_formula_units_Z 72
_cell_length_a 14.426517
_cell_length_b 33.562834
_cell_length_c 8.870860
_cell_angle_alpha 90.000000
_cell_angle_beta 90.000000
_cell_angle_gamma 90.000000
_cell_volume 4295.224242
_symmetry_space_group_name_H-M "I M M M"
_symmetry_group_IT_number 71
_symmetry_cell_setting 'orthorhombic'
loop_
_space_group_symop_operation_xyz
x,y,z
-x,-y,z
x,-y,-z
-x,y,-z
-x,-y,-z
x,y,-z
-x,y,z
x,-y,z
1/2+x,1/2+y,1/2+z
1/2-x,1/2-y,1/2+z
1/2+x,1/2-y,1/2-z
1/2-x,1/2+y,1/2-z
1/2-x,1/2-y,1/2-z
1/2+x,1/2+y,1/2-z
1/2-x,1/2+y,1/2+z
1/2+x,1/2-y,1/2+z
loop_
_atom_site_type_symbol
_atom_site_label
_atom_site_fract_x
_atom_site_fract_y
_atom_site_fract_z
Si Si1 0.711170 0.347696 0.176667
Si Si2 0.107984 0.777673 0.171120
Si Si3 0.389918 0.500000 0.169563
Si Si4 0.601125 0.811431 0.321598
Si Si5 0.105938 0.919796 0.177616
O O1 0.659103 0.307058 0.215254
O O2 0.819142 0.342582 0.225472
O O3 0.670107 0.383965 0.269898
O O4 0.700656 0.356530 0.000000
O O5 0.125445 0.733151 0.235147
O O6 0.000000 0.788196 0.173570
O O7 0.145740 0.782956 0.000000
O O8 0.500000 0.500000 0.174270
O O9 0.353428 0.460483 0.252525
O O10 0.351355 0.500000 0.000000
O O11 0.594834 0.808150 0.500000
O O12 0.500000 0.825186 0.257987
O O13 0.000000 0.912041 0.230723
O O14 0.110961 0.923758 0.000000
#
# Coordination Sequence:
#
# PCOD8289987 Si02
#       5
#    16  16   8  16  16
#     4  11  20  28  44  69  92 116 151 196 234 262
#     4   9  17  30  46  62  86 122 156 186 228 281
#     4   9  17  31  51  73  96 119 146 183 219 254
#     4   8  16  31  47  62  84 118 158 195 233 276
#     4  10  20  33  48  67  95 129 155 174 210 270
#
# _framework density 16.762803999999999
#
# number of rings (size 3 to 8) (size 9 to 14) (size 15 to 20)
#    0.000    2.556    0.000    4.333    0.000    5.778 
#    0.000    1.111    0.000    5.333    0.000    0.778 
#    0.000    6.222    0.000    0.000    0.000    0.000 
#
# Total GULP energy -446294.377647 kJ/mol
# GULP energy per Si atom -12397.066046 kJ/mol
# Density = 1.672465 g / cm^3
# Si number density = 16.762804 Si / 1000 Ang^3
#
#
#
# Elastic Constant Matrix: (Units=GPa)
#
#
# Indices 1 2 3 4 5 6 
#
# 1 79.0111 62.5996 26.0766 -0.0012 0.0021 0.0009
# 2 62.5996 103.9328 30.2972 -0.0022 -0.0009 0.0007
# 3 26.0766 30.2972 52.4982 -0.0039 0.0207 0.0062
# 4 -0.0012 -0.0022 -0.0039 30.1208 0.0033 0.0025
# 5 0.0021 -0.0009 0.0207 0.0033 16.0534 -0.0012
# 6 0.0009 0.0007 0.0062 0.0025 -0.0012 13.9334
#
#
#
# Elastic Compliance Matrix: (Units=1/GPa)
#
#
# Indices 1 2 3 4 5 6 
#
# 1 0.025061 -0.013784 -0.004493 -0.000001 0.000002 0.000001
# 2 -0.013784 0.019150 -0.004205 0.000000 0.000008 0.000002
# 3 -0.004493 -0.004205 0.023706 0.000003 -0.000030 -0.000010
# 4 -0.000001 0.000000 0.000003 0.033200 -0.000007 -0.000006
# 5 0.000002 0.000008 -0.000030 -0.000007 0.062292 0.000005
# 6 0.000001 0.000002 -0.000010 -0.000006 0.000005 0.071770
#
#
# Mechanical properties :
#
#
# Convention : Reuss Voigt Hill
#
# Bulk Modulus (GPa) = 43.56716 52.59876 48.08296
# Shear Modulus (GPa) = 17.37357 19.78609 18.57983
#
# Velocity S-wave (km/s) = 3.22286 3.43936 3.33287
# Velocity P-wave (km/s) = 6.31632 6.87158 6.59979
#
# Compressibility (1/GPa) = 0.02295307
#
# Stress axis : x y z
#
# Youngs Moduli (GPa) = 39.90339 52.21993 42.18272
#
# Poissons Ratio (x) = 0.71983 0.18952
# Poissons Ratio (y) = 0.55005 0.17736
# Poissons Ratio (z) = 0.17928 0.21956
#
# Static dielectric constant tensor:
#      x y z
#    x 3.359480 0.000000 0.000010 
#    y 0.000000 3.128840 -0.000010 
#    z 0.000010 -0.000010 3.040920 
# 
# 
# High freq. dielectric constant tensor:
#      x y z
#    x 1.627260 0.000000 0.000000 
#    y 0.000000 1.634080 0.000000 
#    z 0.000000 0.000000 1.637870 
# 
# From -- ./inp_files/6034.got.cif
#   From: 2010.06.25/outbox.cif.g09.slc.cpg/sg71_4_cif.got.tgz:6034.got - 2010.06.28 04:59:45.
