data_PCOD8289387
_publ_section_title
;
Structure prediction by ZEFSAII (Michael W. Deem and Ramdas Pophale) SiO2 
 PCOD8289387
Probable space group: I M M M
;
_chemical_formula_sum "Si O2"
_cell_formula_units_Z 96
_cell_length_a 28.046368
_cell_length_b 13.838791
_cell_length_c 13.135142
_cell_angle_alpha 90.000000
_cell_angle_beta 90.000000
_cell_angle_gamma 90.000000
_cell_volume 5098.114096
_symmetry_space_group_name_H-M "I M M M"
_symmetry_group_IT_number 71
_symmetry_cell_setting 'orthorhombic'
loop_
_space_group_symop_operation_xyz
x,y,z
-x,-y,z
x,-y,-z
-x,y,-z
-x,-y,-z
x,y,-z
-x,y,z
x,-y,z
1/2+x,1/2+y,1/2+z
1/2-x,1/2-y,1/2+z
1/2+x,1/2-y,1/2-z
1/2-x,1/2+y,1/2-z
1/2-x,1/2-y,1/2-z
1/2+x,1/2+y,1/2-z
1/2-x,1/2+y,1/2+z
1/2+x,1/2-y,1/2+z
loop_
_atom_site_type_symbol
_atom_site_label
_atom_site_fract_x
_atom_site_fract_y
_atom_site_fract_z
Si Si1 0.222582 0.195962 0.116206
Si Si2 0.716278 0.109002 0.286140
Si Si3 0.948092 0.804274 0.500000
Si Si4 0.586260 0.896087 0.000000
Si Si5 0.056972 0.798055 0.723468
Si Si6 0.377752 0.611370 0.615396
Si Si7 0.110396 0.393323 0.719566
O O1 0.258095 0.128470 0.179147
O O2 0.233729 0.309941 0.133764
O O3 0.168118 0.173690 0.148348
O O4 0.231408 0.168941 0.000000
O O5 0.659915 0.122174 0.276047
O O6 0.728640 0.000000 0.323640
O O7 0.953529 0.687440 0.500000
O O8 0.923770 0.831329 0.390674
O O9 0.000000 0.852149 0.500000
O O10 0.620171 0.886618 0.098450
O O11 0.559518 0.000000 0.000000
O O12 0.078857 0.868855 0.807461
O O13 0.072726 0.688885 0.751820
O O14 0.000000 0.804067 0.726724
O O15 0.393807 0.637519 0.500000
O O16 0.363317 0.500000 0.623006
O O17 0.089622 0.500000 0.747585
#
# Coordination Sequence:
#
# PCOD8289387 Si02
#       7
#    16  16   8   8  16  16  16
#     4  10  21  37  57  83 113 148 181 223 278 329
#     4  10  20  34  55  83 112 141 181 222 265 329
#     4   8  16  29  47  72 102 137 171 216 273 326
#     4   8  14  23  40  69 103 136 168 205 250 305
#     4  10  19  34  54  78 110 143 184 233 279 331
#     4  10  21  38  58  79 106 141 187 236 280 326
#     4   9  17  30  49  77 109 141 176 216 264 322
#
# _framework density 18.830490999999999
#
# number of rings (size 3 to 8) (size 9 to 14) (size 15 to 20)
#    0.000    2.500    1.667    0.500    1.167    2.500 
#    0.000    4.583    0.000    2.000    0.000    1.167 
#    0.000    0.000    0.000    0.000    0.000    0.000 
#
# Total GULP energy -594698.936186 kJ/mol
# GULP energy per Si atom -12389.561171 kJ/mol
# Density = 1.878763 g / cm^3
# Si number density = 18.830491 Si / 1000 Ang^3
#
#
#
# Elastic Constant Matrix: (Units=GPa)
#
#
# Indices 1 2 3 4 5 6 
#
# 1 54.9824 17.8414 22.7400 0.0000 0.0000 0.0000
# 2 17.8414 83.2164 26.1130 0.0000 0.0000 0.0000
# 3 22.7400 26.1130 70.9770 0.0000 0.0000 0.0000
# 4 0.0000 0.0000 0.0000 23.0100 0.0000 0.0000
# 5 0.0000 0.0000 0.0000 0.0000 24.6306 0.0000
# 6 0.0000 0.0000 0.0000 0.0000 0.0000 23.1828
#
#
#
# Elastic Compliance Matrix: (Units=1/GPa)
#
#
# Indices 1 2 3 4 5 6 
#
# 1 0.021516 -0.002770 -0.005874 0.000000 0.000000 0.000000
# 2 -0.002770 0.013942 -0.004242 0.000000 0.000000 0.000000
# 3 -0.005874 -0.004242 0.017532 0.000000 0.000000 0.000000
# 4 0.000000 0.000000 0.000000 0.043459 0.000000 0.000000
# 5 0.000000 0.000000 0.000000 0.000000 0.040600 0.000000
# 6 0.000000 0.000000 0.000000 0.000000 0.000000 0.043135
#
#
# Mechanical properties :
#
#
# Convention : Reuss Voigt Hill
#
# Bulk Modulus (GPa) = 36.74099 38.06272 37.40186
# Shear Modulus (GPa) = 23.25272 23.66345 23.45808
#
# Velocity S-wave (km/s) = 3.51785 3.54878 3.53335
# Velocity P-wave (km/s) = 6.00451 6.08679 6.04579
#
# Compressibility (1/GPa) = 0.02721756
#
# Stress axis : x y z
#
# Youngs Moduli (GPa) = 46.47719 71.72697 57.03918
#
# Poissons Ratio (x) = 0.19865 0.33507
# Poissons Ratio (y) = 0.12872 0.24196
# Poissons Ratio (z) = 0.27303 0.30426
#
# Static dielectric constant tensor:
#      x y z
#    x 3.144990 0.000000 0.000000 
#    y 0.000000 3.495650 0.000000 
#    z 0.000000 0.000000 3.434240 
# 
# 
# High freq. dielectric constant tensor:
#      x y z
#    x 1.704750 0.000000 0.000000 
#    y 0.000000 1.734730 0.000000 
#    z 0.000000 0.000000 1.721580 
# 
# From -- ./inp_files/29977.got.cif
#   From: 2010.06.25/outbox.cif.g09.slc.cpg/sg71_15_cif.got.tgz:29977.got - 2010.06.28 04:59:45.
