data_PCOD8289422
_publ_section_title
;
Structure prediction by ZEFSAII (Michael W. Deem and Ramdas Pophale) SiO2 
 PCOD8289422
Probable space group: I M M M
;
_chemical_formula_sum "Si O2"
_cell_formula_units_Z 88
_cell_length_a 28.117137
_cell_length_b 17.464156
_cell_length_c 9.414247
_cell_angle_alpha 90.000000
_cell_angle_beta 90.000000
_cell_angle_gamma 90.000000
_cell_volume 4622.791305
_symmetry_space_group_name_H-M "I M M M"
_symmetry_group_IT_number 71
_symmetry_cell_setting 'orthorhombic'
loop_
_space_group_symop_operation_xyz
x,y,z
-x,-y,z
x,-y,-z
-x,y,-z
-x,-y,-z
x,y,-z
-x,y,z
x,-y,z
1/2+x,1/2+y,1/2+z
1/2-x,1/2-y,1/2+z
1/2+x,1/2-y,1/2-z
1/2-x,1/2+y,1/2-z
1/2-x,1/2-y,1/2-z
1/2+x,1/2+y,1/2-z
1/2-x,1/2+y,1/2+z
1/2+x,1/2-y,1/2+z
loop_
_atom_site_type_symbol
_atom_site_label
_atom_site_fract_x
_atom_site_fract_y
_atom_site_fract_z
Si Si1 0.598319 0.588856 0.166267
Si Si2 0.791936 0.587351 0.664270
Si Si3 0.106911 0.650518 0.666979
Si Si4 0.204523 0.909007 0.656831
Si Si5 0.946666 0.500000 0.331287
Si Si6 0.054642 0.218891 0.834745
O O1 0.590067 0.500000 0.200840
O O2 0.651931 0.615396 0.208112
O O3 0.561930 0.636128 0.263030
O O4 0.589082 0.604962 0.000000
O O5 0.779463 0.588704 0.500000
O O6 0.802734 0.500000 0.712756
O O7 0.837287 0.639851 0.698262
O O8 0.746055 0.623079 0.742511
O O9 0.097293 0.664255 0.500000
O O10 0.079790 0.575444 0.723996
O O11 0.088740 0.721951 0.755558
O O12 0.213932 0.875680 0.500000
O O13 0.206036 0.000000 0.653361
O O14 0.945795 0.500000 0.500000
O O15 0.000000 0.500000 0.270543
O O16 0.000000 0.243775 0.814511
O O17 0.068364 0.214854 0.000000
#
# Coordination Sequence:
#
# PCOD8289422 Si02
#       6
#    16  16  16  16   8  16
#     4   9  19  38  63  87 108 135 178 226 268 323
#     4   9  16  28  49  80 114 144 179 223 266 312
#     4  10  19  34  55  80 109 144 188 230 268 315
#     4   8  15  29  51  80 111 140 172 213 264 321
#     4   9  16  28  51  79 103 135 185 237 274 307
#     4  11  25  41  55  77 111 145 178 223 279 332
#
# _framework density 19.036117999999998
#
# number of rings (size 3 to 8) (size 9 to 14) (size 15 to 20)
#    0.000    2.636    0.909    2.182    0.000    4.364 
#    0.000    5.000    0.000    1.636    0.000    0.000 
#    0.000    0.000    0.000    0.000    0.000    0.000 
#
# Total GULP energy -545529.760017 kJ/mol
# GULP energy per Si atom -12398.403637 kJ/mol
# Density = 1.899279 g / cm^3
# Si number density = 19.036118 Si / 1000 Ang^3
#
#
#
# Elastic Constant Matrix: (Units=GPa)
#
#
# Indices 1 2 3 4 5 6 
#
# 1 68.1429 21.5434 38.4232 0.0000 0.0000 0.0000
# 2 21.5434 73.9450 39.5126 0.0000 0.0000 0.0000
# 3 38.4232 39.5126 73.4479 0.0000 0.0000 0.0000
# 4 0.0000 0.0000 0.0000 21.4343 0.0000 0.0000
# 5 0.0000 0.0000 0.0000 0.0000 34.6528 0.0000
# 6 0.0000 0.0000 0.0000 0.0000 0.0000 25.7785
#
#
#
# Elastic Compliance Matrix: (Units=1/GPa)
#
#
# Indices 1 2 3 4 5 6 
#
# 1 0.020821 -0.000345 -0.010707 0.000000 0.000000 0.000000
# 2 -0.000345 0.018985 -0.010033 0.000000 0.000000 0.000000
# 3 -0.010707 -0.010033 0.024614 0.000000 0.000000 0.000000
# 4 0.000000 0.000000 0.000000 0.046654 0.000000 0.000000
# 5 0.000000 0.000000 0.000000 0.000000 0.028858 0.000000
# 6 0.000000 0.000000 0.000000 0.000000 0.000000 0.038792
#
#
# Mechanical properties :
#
#
# Convention : Reuss Voigt Hill
#
# Bulk Modulus (GPa) = 44.94246 46.05490 45.49868
# Shear Modulus (GPa) = 21.90004 24.11024 23.00514
#
# Velocity S-wave (km/s) = 3.39550 3.56273 3.48012
# Velocity P-wave (km/s) = 6.24763 6.41638 6.33257
#
# Compressibility (1/GPa) = 0.02225067
#
# Stress axis : x y z
#
# Youngs Moduli (GPa) = 48.02788 52.67262 40.62800
#
# Poissons Ratio (x) = 0.01817 0.43499
# Poissons Ratio (y) = 0.01657 0.40762
# Poissons Ratio (z) = 0.51422 0.52846
#
# Static dielectric constant tensor:
#      x y z
#    x 3.660810 0.000000 0.000000 
#    y 0.000000 3.267680 0.000000 
#    z 0.000000 0.000000 3.387830 
# 
# 
# High freq. dielectric constant tensor:
#      x y z
#    x 1.749270 0.000000 0.000000 
#    y 0.000000 1.721700 0.000000 
#    z 0.000000 0.000000 1.720140 
# 
# From -- ./inp_files/16643.got.cif
#   From: 2010.06.25/outbox.cif.g09.slc.cpg/sg71_9_cif.got.tgz:16643.got - 2010.06.28 04:59:45.
