data_PCOD8289605
_publ_section_title
;
Structure prediction by ZEFSAII (Michael W. Deem and Ramdas Pophale) SiO2 
 PCOD8289605
Probable space group: I M M M
;
_chemical_formula_sum "Si O2"
_cell_formula_units_Z 88
_cell_length_a 9.187036
_cell_length_b 17.697599
_cell_length_c 28.377200
_cell_angle_alpha 90.000000
_cell_angle_beta 90.000000
_cell_angle_gamma 90.000000
_cell_volume 4613.805790
_symmetry_space_group_name_H-M "I M M M"
_symmetry_group_IT_number 71
_symmetry_cell_setting 'orthorhombic'
loop_
_space_group_symop_operation_xyz
x,y,z
-x,-y,z
x,-y,-z
-x,y,-z
-x,-y,-z
x,y,-z
-x,y,z
x,-y,z
1/2+x,1/2+y,1/2+z
1/2-x,1/2-y,1/2+z
1/2+x,1/2-y,1/2-z
1/2-x,1/2+y,1/2-z
1/2-x,1/2-y,1/2-z
1/2+x,1/2+y,1/2-z
1/2-x,1/2+y,1/2+z
1/2+x,1/2-y,1/2+z
loop_
_atom_site_type_symbol
_atom_site_label
_atom_site_fract_x
_atom_site_fract_y
_atom_site_fract_z
Si Si1 0.668123 0.360362 0.403658
Si Si2 0.167406 0.087256 0.379192
Si Si3 0.337170 0.000000 0.055502
Si Si4 0.830721 0.299251 0.055381
Si Si5 0.334497 0.673607 0.701653
Si Si6 0.830709 0.348445 0.207547
O O1 0.500000 0.371359 0.417117
O O2 0.758327 0.425285 0.427687
O O3 0.723304 0.280090 0.423234
O O4 0.692570 0.367209 0.347779
O O5 0.239933 0.133944 0.421241
O O6 0.247859 0.099837 0.329699
O O7 0.000000 0.111986 0.373677
O O8 0.181149 0.000000 0.393216
O O9 0.500000 0.000000 0.075974
O O10 0.337602 0.000000 0.000000
O O11 0.000000 0.311932 0.067588
O O12 0.801061 0.299989 0.000000
O O13 0.500000 0.663512 0.719038
O O14 0.229850 0.635324 0.740094
O O15 0.299868 0.761779 0.694207
O O16 0.000000 0.369077 0.206290
#
# Coordination Sequence:
#
# PCOD8289605 Si02
#       6
#    16  16   8  16  16  16
#     4  10  20  39  64  88 116 153 195 239 291 354
#     4  11  24  40  58  83 119 161 201 243 292 348
#     4  11  25  41  57  85 123 157 195 245 296 347
#     4  10  21  39  64  91 116 147 194 247 296 350
#     4   9  18  34  59  89 118 148 187 235 288 347
#     4  10  19  35  59  87 117 150 191 237 287 344
#
# _framework density 19.073191000000001
#
# number of rings (size 3 to 8) (size 9 to 14) (size 15 to 20)
#    0.000    1.909    1.818    1.909    0.000    5.818 
#    1.636    1.818    0.000    0.000    0.000    0.000 
#    0.000    0.000    0.000    0.000    0.000    0.000 
#
# Total GULP energy -545798.798146 kJ/mol
# GULP energy per Si atom -12404.518140 kJ/mol
# Density = 1.902978 g / cm^3
# Si number density = 19.073191 Si / 1000 Ang^3
#
#
#
# Elastic Constant Matrix: (Units=GPa)
#
#
# Indices 1 2 3 4 5 6 
#
# 1 113.4936 60.6876 61.5052 0.0000 0.0000 0.0000
# 2 60.6876 93.8531 49.8659 0.0000 0.0000 0.0000
# 3 61.5052 49.8659 100.7589 0.0000 0.0000 0.0000
# 4 0.0000 0.0000 0.0000 23.3859 0.0000 0.0000
# 5 0.0000 0.0000 0.0000 0.0000 36.9456 0.0000
# 6 0.0000 0.0000 0.0000 0.0000 0.0000 30.8551
#
#
#
# Elastic Compliance Matrix: (Units=1/GPa)
#
#
# Indices 1 2 3 4 5 6 
#
# 1 0.015943 -0.006972 -0.006282 0.000000 0.000000 0.000000
# 2 -0.006972 0.017505 -0.004408 0.000000 0.000000 0.000000
# 3 -0.006282 -0.004408 0.015941 0.000000 0.000000 0.000000
# 4 0.000000 0.000000 0.000000 0.042761 0.000000 0.000000
# 5 0.000000 0.000000 0.000000 0.000000 0.027067 0.000000
# 6 0.000000 0.000000 0.000000 0.000000 0.000000 0.032410
#
#
# Mechanical properties :
#
#
# Convention : Reuss Voigt Hill
#
# Bulk Modulus (GPa) = 71.09037 72.46921 71.77979
# Shear Modulus (GPa) = 26.09106 27.30711 26.69908
#
# Velocity S-wave (km/s) = 3.70259 3.78789 3.74548
# Velocity P-wave (km/s) = 7.45870 7.56364 7.51135
#
# Compressibility (1/GPa) = 0.01406660
#
# Stress axis : x y z
#
# Youngs Moduli (GPa) = 62.72262 57.12733 62.73326
#
# Poissons Ratio (x) = 0.39827 0.39408
# Poissons Ratio (y) = 0.43728 0.27650
# Poissons Ratio (z) = 0.39401 0.25179
#
# Static dielectric constant tensor:
#      x y z
#    x 3.580300 0.000000 0.000000 
#    y 0.000000 3.349750 0.000000 
#    z 0.000000 0.000000 3.552760 
# 
# 
# High freq. dielectric constant tensor:
#      x y z
#    x 1.744150 0.000000 0.000000 
#    y 0.000000 1.730940 0.000000 
#    z 0.000000 0.000000 1.753380 
# 
# From -- ./inp_files/68022.got.cif
#   From: 2010.06.25/outbox.cif.g09.slc.cpg/sg71_35_cif.got.tgz:68022.got - 2010.06.28 04:59:45.
