data_PCOD8289027
_publ_section_title
;
Structure prediction by ZEFSAII (Michael W. Deem and Ramdas Pophale) SiO2 
 PCOD8289027
Probable space group: I M M M
;
_chemical_formula_sum "Si O2"
_cell_formula_units_Z 104
_cell_length_a 21.561474
_cell_length_b 13.425319
_cell_length_c 18.358090
_cell_angle_alpha 90.000000
_cell_angle_beta 90.000000
_cell_angle_gamma 90.000000
_cell_volume 5314.110191
_symmetry_space_group_name_H-M "I M M M"
_symmetry_group_IT_number 71
_symmetry_cell_setting 'orthorhombic'
loop_
_space_group_symop_operation_xyz
x,y,z
-x,-y,z
x,-y,-z
-x,y,-z
-x,-y,-z
x,y,-z
-x,y,z
x,-y,z
1/2+x,1/2+y,1/2+z
1/2-x,1/2-y,1/2+z
1/2+x,1/2-y,1/2-z
1/2-x,1/2+y,1/2-z
1/2-x,1/2-y,1/2-z
1/2+x,1/2+y,1/2-z
1/2-x,1/2+y,1/2+z
1/2+x,1/2-y,1/2+z
loop_
_atom_site_type_symbol
_atom_site_label
_atom_site_fract_x
_atom_site_fract_y
_atom_site_fract_z
Si Si1 0.732338 0.386962 0.665206
Si Si2 0.159563 0.384864 0.777057
Si Si3 0.568637 0.248924 0.185581
Si Si4 0.854589 0.888176 0.584124
Si Si5 0.000000 0.118151 0.922212
Si Si6 0.407559 0.386160 0.307312
Si Si7 0.278277 0.196186 0.583742
O O1 0.737810 0.500000 0.634814
O O2 0.777592 0.367712 0.732300
O O3 0.665045 0.364359 0.698480
O O4 0.743310 0.310529 0.598890
O O5 0.143395 0.500000 0.787598
O O6 0.104050 0.338391 0.729334
O O7 0.168820 0.336197 0.857520
O O8 0.500000 0.211815 0.158984
O O9 0.608096 0.296635 0.119956
O O10 0.556812 0.337599 0.241061
O O11 0.872597 0.883257 0.500000
O O12 0.781054 0.874202 0.595064
O O13 0.870566 0.000000 0.614788
O O14 0.937325 0.154982 0.882123
O O15 0.000000 0.000000 0.931502
O O16 0.000000 0.171812 0.000000
O O17 0.424192 0.500000 0.301761
O O18 0.302695 0.188330 0.500000
#
# Coordination Sequence:
#
# PCOD8289027 Si02
#       7
#    16  16  16  16   8  16  16
#     4  10  20  36  61  88 116 154 197 247 303 355
#     4  11  23  41  62  85 117 157 205 257 304 352
#     4  12  23  38  62  86 113 156 206 251 300 361
#     4  10  22  39  61  93 128 157 191 244 308 373
#     4   9  18  32  48  72 116 160 186 219 274 344
#     4  10  19  32  53  84 115 148 193 235 284 354
#     4  11  21  37  62  92 126 161 196 240 304 372
#
# _framework density 19.570539
#
# number of rings (size 3 to 8) (size 9 to 14) (size 15 to 20)
#    0.000    1.462    3.846    2.308    0.000    4.615 
#    0.000    2.308    0.000    0.462    0.000    2.154 
#    0.000    0.000    0.000    0.000    0.000    0.000 
#
# Total GULP energy -644410.166276 kJ/mol
# GULP energy per Si atom -12392.503198 kJ/mol
# Density = 1.952600 g / cm^3
# Si number density = 19.570539 Si / 1000 Ang^3
#
#
#
# Elastic Constant Matrix: (Units=GPa)
#
#
# Indices 1 2 3 4 5 6 
#
# 1 82.3020 31.0430 16.6360 0.0000 0.0000 0.0000
# 2 31.0430 101.8265 47.7689 0.0000 0.0000 0.0000
# 3 16.6360 47.7689 85.6094 0.0000 0.0000 0.0000
# 4 0.0000 0.0000 0.0000 24.9427 0.0000 0.0000
# 5 0.0000 0.0000 0.0000 0.0000 23.1445 0.0000
# 6 0.0000 0.0000 0.0000 0.0000 0.0000 13.1209
#
#
#
# Elastic Compliance Matrix: (Units=1/GPa)
#
#
# Indices 1 2 3 4 5 6 
#
# 1 0.013742 -0.003978 -0.000451 0.000000 0.000000 0.000000
# 2 -0.003978 0.014454 -0.007292 0.000000 0.000000 0.000000
# 3 -0.000451 -0.007292 0.015838 0.000000 0.000000 0.000000
# 4 0.000000 0.000000 0.000000 0.040092 0.000000 0.000000
# 5 0.000000 0.000000 0.000000 0.000000 0.043207 0.000000
# 6 0.000000 0.000000 0.000000 0.000000 0.000000 0.076214
#
#
# Mechanical properties :
#
#
# Convention : Reuss Voigt Hill
#
# Bulk Modulus (GPa) = 48.56301 51.18151 49.87226
# Shear Modulus (GPa) = 21.38099 23.86095 22.62097
#
# Velocity S-wave (km/s) = 3.30890 3.49553 3.40349
# Velocity P-wave (km/s) = 6.28225 6.51926 6.40185
#
# Compressibility (1/GPa) = 0.02059180
#
# Stress axis : x y z
#
# Youngs Moduli (GPa) = 72.77019 69.18355 63.14104
#
# Poissons Ratio (x) = 0.27521 0.02846
# Poissons Ratio (y) = 0.28947 0.46044
# Poissons Ratio (z) = 0.03280 0.50451
#
# Static dielectric constant tensor:
#      x y z
#    x 3.288390 0.000000 0.000000 
#    y 0.000000 3.657870 0.000000 
#    z 0.000000 0.000000 3.601410 
# 
# 
# High freq. dielectric constant tensor:
#      x y z
#    x 1.751260 0.000000 0.000000 
#    y 0.000000 1.758230 0.000000 
#    z 0.000000 0.000000 1.756340 
# 
# From -- ./inp_files/47305.got.cif
#   From: 2010.06.25/outbox.cif.g09.slc.cpg/sg71_24_cif.got.tgz:47305.got - 2010.06.28 04:59:45.
