data_PCOD8289541
_publ_section_title
;
Structure prediction by ZEFSAII (Michael W. Deem and Ramdas Pophale) SiO2 
 PCOD8289541
Probable space group: I M M M
;
_chemical_formula_sum "Si O2"
_cell_formula_units_Z 104
_cell_length_a 22.574527
_cell_length_b 9.320940
_cell_length_c 27.680557
_cell_angle_alpha 90.000000
_cell_angle_beta 90.000000
_cell_angle_gamma 90.000000
_cell_volume 5824.426869
_symmetry_space_group_name_H-M "I M M M"
_symmetry_group_IT_number 71
_symmetry_cell_setting 'orthorhombic'
loop_
_space_group_symop_operation_xyz
x,y,z
-x,-y,z
x,-y,-z
-x,y,-z
-x,-y,-z
x,y,-z
-x,y,z
x,-y,z
1/2+x,1/2+y,1/2+z
1/2-x,1/2-y,1/2+z
1/2+x,1/2-y,1/2-z
1/2-x,1/2+y,1/2-z
1/2-x,1/2-y,1/2-z
1/2+x,1/2+y,1/2-z
1/2-x,1/2+y,1/2+z
1/2+x,1/2-y,1/2+z
loop_
_atom_site_type_symbol
_atom_site_label
_atom_site_fract_x
_atom_site_fract_y
_atom_site_fract_z
Si Si1 0.271448 0.334346 0.555780
Si Si2 0.676334 0.167252 0.701935
Si Si3 0.334170 0.335653 0.101956
Si Si4 0.812123 0.838048 0.291731
Si Si5 0.500000 0.830704 0.554838
Si Si6 0.566093 0.841495 0.942996
Si Si7 0.876278 0.670076 0.899820
O O1 0.253194 0.320975 0.500000
O O2 0.278055 0.500000 0.571207
O O3 0.221054 0.261656 0.587665
O O4 0.332983 0.252624 0.563971
O O5 0.745023 0.211243 0.695735
O O6 0.654633 0.244846 0.750875
O O7 0.638353 0.217255 0.655349
O O8 0.667492 0.000000 0.709695
O O9 0.319804 0.500000 0.087799
O O10 0.347995 0.321782 0.158763
O O11 0.393166 0.284835 0.076037
O O12 0.811382 0.000000 0.272489
O O13 0.500000 0.765885 0.500000
O O14 0.442465 0.781468 0.585310
O O15 0.500000 0.000000 0.550201
O O16 0.500000 0.816254 0.922930
O O17 0.588900 0.000000 0.926713
O O18 0.565888 0.833686 0.000000
O O19 0.866559 0.500000 0.906190
#
# Coordination Sequence:
#
# PCOD8289541 Si02
#       7
#    16  16  16  16   8  16  16
#     4  11  23  35  49  75 109 142 175 213 262 316
#     4   9  17  31  51  75 102 134 169 210 259 313
#     4  11  21  34  53  79 107 137 173 217 265 311
#     4   9  18  32  49  75 106 133 166 209 261 315
#     4   9  18  32  55  83 107 139 179 221 272 323
#     4   9  19  36  55  75 104 141 177 213 255 308
#     4  10  19  35  56  79 106 137 178 223 268 320
#
# _framework density 17.855834000000002
#
# number of rings (size 3 to 8) (size 9 to 14) (size 15 to 20)
#    0.000    2.231    1.538    2.308    0.000    6.154 
#    0.000    1.154    1.692    1.385    0.000    0.000 
#    0.000    0.000    0.000    0.000    0.000    0.000 
#
# Total GULP energy -644709.630525 kJ/mol
# GULP energy per Si atom -12398.262125 kJ/mol
# Density = 1.781519 g / cm^3
# Si number density = 17.855834 Si / 1000 Ang^3
#
#
#
# Elastic Constant Matrix: (Units=GPa)
#
#
# Indices 1 2 3 4 5 6 
#
# 1 87.0528 34.6619 42.1732 0.0000 0.0000 0.0000
# 2 34.6619 71.8650 41.6183 0.0000 0.0000 0.0000
# 3 42.1732 41.6183 94.4680 0.0000 0.0000 0.0000
# 4 0.0000 0.0000 0.0000 32.0225 0.0000 0.0000
# 5 0.0000 0.0000 0.0000 0.0000 25.6465 0.0000
# 6 0.0000 0.0000 0.0000 0.0000 0.0000 23.6639
#
#
#
# Elastic Compliance Matrix: (Units=1/GPa)
#
#
# Indices 1 2 3 4 5 6 
#
# 1 0.015774 -0.004739 -0.004954 0.000000 0.000000 0.000000
# 2 -0.004739 0.020105 -0.006742 0.000000 0.000000 0.000000
# 3 -0.004954 -0.006742 0.015767 0.000000 0.000000 0.000000
# 4 0.000000 0.000000 0.000000 0.031228 0.000000 0.000000
# 5 0.000000 0.000000 0.000000 0.000000 0.038992 0.000000
# 6 0.000000 0.000000 0.000000 0.000000 0.000000 0.042258
#
#
# Mechanical properties :
#
#
# Convention : Reuss Voigt Hill
#
# Bulk Modulus (GPa) = 53.25782 54.47694 53.86738
# Shear Modulus (GPa) = 24.59977 25.26209 24.93093
#
# Velocity S-wave (km/s) = 3.71575 3.76544 3.74068
# Velocity P-wave (km/s) = 6.94985 7.03422 6.99216
#
# Compressibility (1/GPa) = 0.01877658
#
# Stress axis : x y z
#
# Youngs Moduli (GPa) = 63.39380 49.73892 63.42218
#
# Poissons Ratio (x) = 0.23572 0.31421
# Poissons Ratio (y) = 0.30044 0.42757
# Poissons Ratio (z) = 0.31407 0.33532
#
# Static dielectric constant tensor:
#      x y z
#    x 3.269450 0.000000 0.000000 
#    y 0.000000 3.307360 0.000000 
#    z 0.000000 0.000000 3.394940 
# 
# 
# High freq. dielectric constant tensor:
#      x y z
#    x 1.669370 0.000000 0.000000 
#    y 0.000000 1.686030 0.000000 
#    z 0.000000 0.000000 1.693760 
# 
# From -- ./inp_files/66852.got.cif
#   From: 2010.06.25/outbox.cif.g09.slc.cpg/sg71_34_cif.got.tgz:66852.got - 2010.06.28 04:59:45.
