data_PCOD8289245
_publ_section_title
;
Structure prediction by ZEFSAII (Michael W. Deem and Ramdas Pophale) SiO2 
 PCOD8289245
Probable space group: I M M M
;
_chemical_formula_sum "Si O2"
_cell_formula_units_Z 88
_cell_length_a 9.132739
_cell_length_b 19.411383
_cell_length_c 27.513423
_cell_angle_alpha 90.000000
_cell_angle_beta 90.000000
_cell_angle_gamma 90.000000
_cell_volume 4877.554718
_symmetry_space_group_name_H-M "I M M M"
_symmetry_group_IT_number 71
_symmetry_cell_setting 'orthorhombic'
loop_
_space_group_symop_operation_xyz
x,y,z
-x,-y,z
x,-y,-z
-x,y,-z
-x,-y,-z
x,y,-z
-x,y,z
x,-y,z
1/2+x,1/2+y,1/2+z
1/2-x,1/2-y,1/2+z
1/2+x,1/2-y,1/2-z
1/2-x,1/2+y,1/2-z
1/2-x,1/2-y,1/2-z
1/2+x,1/2+y,1/2-z
1/2-x,1/2+y,1/2+z
1/2+x,1/2-y,1/2+z
loop_
_atom_site_type_symbol
_atom_site_label
_atom_site_fract_x
_atom_site_fract_y
_atom_site_fract_z
Si Si1 0.831504 0.827193 0.056303
Si Si2 0.169013 0.311492 0.808680
Si Si3 0.168366 0.580433 0.631625
Si Si4 0.673230 0.823144 0.417117
Si Si5 0.330575 0.345605 0.714815
Si Si6 0.325066 0.922652 0.500000
O O1 0.738128 0.882067 0.085662
O O2 0.766344 0.750996 0.065891
O O3 0.000000 0.831345 0.074008
O O4 0.817559 0.845919 0.000000
O O5 0.218538 0.338881 0.861562
O O6 0.266708 0.350332 0.769131
O O7 0.196023 0.229700 0.807731
O O8 0.000000 0.328301 0.797838
O O9 0.186327 0.500000 0.622404
O O10 0.248985 0.599503 0.681497
O O11 0.000000 0.602532 0.636409
O O12 0.500000 0.820304 0.422309
O O13 0.734822 0.883115 0.452119
O O14 0.500000 0.364985 0.717124
O O15 0.500000 0.924318 0.500000
O O16 0.261210 0.000000 0.500000
#
# Coordination Sequence:
#
# PCOD8289245 Si02
#       6
#    16  16  16  16  16   8
#     4  10  19  34  57  81 105 140 187 231 269 316
#     4   9  17  30  51  78 108 140 174 221 272 314
#     4  11  24  39  54  75 109 147 180 225 282 334
#     4   9  15  28  49  75 109 144 178 219 262 309
#     4  10  19  33  54  79 105 137 179 224 269 320
#     4   9  16  26  46  78 112 143 172 208 261 317
#
# _framework density 18.041827999999999
#
# number of rings (size 3 to 8) (size 9 to 14) (size 15 to 20)
#    0.000    2.273    2.727    1.091    0.000    2.909 
#    0.000    2.727    0.000    3.273    0.000    0.000 
#    0.000    3.636    0.000    0.000    0.000    0.000 
#
# Total GULP energy -545649.178914 kJ/mol
# GULP energy per Si atom -12401.117703 kJ/mol
# Density = 1.800076 g / cm^3
# Si number density = 18.041828 Si / 1000 Ang^3
#
#
#
# Elastic Constant Matrix: (Units=GPa)
#
#
# Indices 1 2 3 4 5 6 
#
# 1 81.2219 47.9834 53.6834 0.0000 0.0000 0.0000
# 2 47.9834 98.3420 66.9946 0.0000 0.0000 0.0000
# 3 53.6834 66.9946 145.4265 0.0000 0.0000 0.0000
# 4 0.0000 0.0000 0.0000 29.2920 0.0000 0.0000
# 5 0.0000 0.0000 0.0000 0.0000 29.4800 0.0000
# 6 0.0000 0.0000 0.0000 0.0000 0.0000 18.4959
#
#
#
# Elastic Compliance Matrix: (Units=1/GPa)
#
#
# Indices 1 2 3 4 5 6 
#
# 1 0.018729 -0.006454 -0.003941 0.000000 0.000000 0.000000
# 2 -0.006454 0.017043 -0.005469 0.000000 0.000000 0.000000
# 3 -0.003941 -0.005469 0.010850 0.000000 0.000000 0.000000
# 4 0.000000 0.000000 0.000000 0.034139 0.000000 0.000000
# 5 0.000000 0.000000 0.000000 0.000000 0.033921 0.000000
# 6 0.000000 0.000000 0.000000 0.000000 0.000000 0.054066
#
#
# Mechanical properties :
#
#
# Convention : Reuss Voigt Hill
#
# Bulk Modulus (GPa) = 67.13273 73.59035 70.36154
# Shear Modulus (GPa) = 24.33775 25.87550 25.10662
#
# Velocity S-wave (km/s) = 3.67681 3.79119 3.73443
# Velocity P-wave (km/s) = 7.43744 7.74864 7.59463
#
# Compressibility (1/GPa) = 0.01489586
#
# Stress axis : x y z
#
# Youngs Moduli (GPa) = 53.39223 58.67381 92.16206
#
# Poissons Ratio (x) = 0.37868 0.36318
# Poissons Ratio (y) = 0.34459 0.50404
# Poissons Ratio (z) = 0.21040 0.32089
#
# Static dielectric constant tensor:
#      x y z
#    x 3.114400 0.000000 0.000000 
#    y 0.000000 3.216350 0.000000 
#    z 0.000000 0.000000 3.503330 
# 
# 
# High freq. dielectric constant tensor:
#      x y z
#    x 1.670330 0.000000 0.000000 
#    y 0.000000 1.678760 0.000000 
#    z 0.000000 0.000000 1.715440 
# 
# From -- ./inp_files/68012.got.cif
#   From: 2010.06.25/outbox.cif.g09.slc.cpg/sg71_35_cif.got.tgz:68012.got - 2010.06.28 04:59:45.
