data_PCOD8289726
_publ_section_title
;
Structure prediction by ZEFSAII (Michael W. Deem and Ramdas Pophale) SiO2 
 PCOD8289726
Probable space group: I M M M
;
_chemical_formula_sum "Si O2"
_cell_formula_units_Z 104
_cell_length_a 24.268278
_cell_length_b 26.538951
_cell_length_c 9.402024
_cell_angle_alpha 90.000000
_cell_angle_beta 90.000000
_cell_angle_gamma 90.000000
_cell_volume 6055.417189
_symmetry_space_group_name_H-M "I M M M"
_symmetry_group_IT_number 71
_symmetry_cell_setting 'orthorhombic'
loop_
_space_group_symop_operation_xyz
x,y,z
-x,-y,z
x,-y,-z
-x,y,-z
-x,-y,-z
x,y,-z
-x,y,z
x,-y,z
1/2+x,1/2+y,1/2+z
1/2-x,1/2-y,1/2+z
1/2+x,1/2-y,1/2-z
1/2-x,1/2+y,1/2-z
1/2-x,1/2-y,1/2-z
1/2+x,1/2+y,1/2-z
1/2-x,1/2+y,1/2+z
1/2+x,1/2-y,1/2+z
loop_
_atom_site_type_symbol
_atom_site_label
_atom_site_fract_x
_atom_site_fract_y
_atom_site_fract_z
Si Si1 0.939337 0.559823 0.840688
Si Si2 0.563600 0.404132 0.835556
Si Si3 0.336322 0.940784 0.164049
Si Si4 0.304463 0.237847 0.663957
Si Si5 0.232617 0.631428 0.160703
Si Si6 0.650575 0.679352 0.835123
Si Si7 0.565486 0.500000 0.660811
O O1 0.940057 0.500000 0.838006
O O2 0.892819 0.579918 0.733932
O O3 0.000000 0.579819 0.794076
O O4 0.925471 0.578834 0.000000
O O5 0.500000 0.392335 0.800957
O O6 0.597968 0.354480 0.796598
O O7 0.586713 0.450311 0.741926
O O8 0.571631 0.419126 0.000000
O O9 0.284345 0.913452 0.234935
O O10 0.328676 0.000000 0.188711
O O11 0.338585 0.926404 0.000000
O O12 0.298670 0.254774 0.500000
O O13 0.250000 0.250000 0.750000
O O14 0.311618 0.177408 0.673834
O O15 0.353374 0.269706 0.739483
O O16 0.293930 0.648925 0.203232
O O17 0.232740 0.610509 0.000000
O O18 0.650960 0.695335 0.000000
O O19 0.500000 0.500000 0.662968
O O20 0.588546 0.500000 0.500000
#
# Coordination Sequence:
#
# PCOD8289726 Si02
#       7
#    16  16  16  16  16  16   8
#     4   8  14  26  45  66  86 113 150 186 220 263
#     4   9  17  31  51  72  97 130 166 206 250 298
#     4  10  20  31  44  66  96 126 156 192 234 279
#     4   9  17  30  50  73  94 117 151 193 236 280
#     4   9  18  32  48  67  92 124 160 196 235 287
#     4   9  18  32  50  74  97 120 160 203 244 295
#     4   9  17  29  45  67  95 127 165 205 244 289
#
# _framework density 17.174703999999998
#
# number of rings (size 3 to 8) (size 9 to 14) (size 15 to 20)
#    0.000    3.000    0.000    2.538    0.000    5.846 
#    1.385    1.538    0.000    0.923    0.000    4.308 
#    0.000    0.000    0.000    0.000    0.000    0.000 
#
# Total GULP energy -644538.870196 kJ/mol
# GULP energy per Si atom -12394.978273 kJ/mol
# Density = 1.713561 g / cm^3
# Si number density = 17.174704 Si / 1000 Ang^3
#
#
#
# Elastic Constant Matrix: (Units=GPa)
#
#
# Indices 1 2 3 4 5 6 
#
# 1 63.4389 33.7485 36.4260 0.0000 0.0000 0.0000
# 2 33.7485 59.4087 45.8281 0.0000 0.0000 0.0000
# 3 36.4260 45.8281 100.7215 0.0000 0.0000 0.0000
# 4 0.0000 0.0000 0.0000 32.4229 0.0000 0.0000
# 5 0.0000 0.0000 0.0000 0.0000 21.7916 0.0000
# 6 0.0000 0.0000 0.0000 0.0000 0.0000 25.0115
#
#
#
# Elastic Compliance Matrix: (Units=1/GPa)
#
#
# Indices 1 2 3 4 5 6 
#
# 1 0.023466 -0.010453 -0.003731 0.000000 0.000000 0.000000
# 2 -0.010453 0.030592 -0.010139 0.000000 0.000000 0.000000
# 3 -0.003731 -0.010139 0.015891 0.000000 0.000000 0.000000
# 4 0.000000 0.000000 0.000000 0.030842 0.000000 0.000000
# 5 0.000000 0.000000 0.000000 0.000000 0.045889 0.000000
# 6 0.000000 0.000000 0.000000 0.000000 0.000000 0.039982
#
#
# Mechanical properties :
#
#
# Convention : Reuss Voigt Hill
#
# Bulk Modulus (GPa) = 46.93939 50.61935 48.77937
# Shear Modulus (GPa) = 20.62648 23.01629 21.82139
#
# Velocity S-wave (km/s) = 3.46928 3.66475 3.56835
# Velocity P-wave (km/s) = 6.59073 6.88799 6.74100
#
# Compressibility (1/GPa) = 0.02130407
#
# Stress axis : x y z
#
# Youngs Moduli (GPa) = 42.61516 32.68874 62.92980
#
# Poissons Ratio (x) = 0.34168 0.23476
# Poissons Ratio (y) = 0.44544 0.63804
# Poissons Ratio (z) = 0.15898 0.33143
#
# Static dielectric constant tensor:
#      x y z
#    x 3.141400 0.000000 0.000000 
#    y 0.000000 3.233370 0.000000 
#    z 0.000000 0.000000 3.367540 
# 
# 
# High freq. dielectric constant tensor:
#      x y z
#    x 1.638690 0.000000 0.000000 
#    y 0.000000 1.642430 0.000000 
#    z 0.000000 0.000000 1.668910 
# 
# From -- ./inp_files/13311.got.cif
#   From: 2010.06.25/outbox.cif.g09.slc.cpg/sg71_7_cif.got.tgz:13311.got - 2010.06.28 04:59:45.
