data_PCOD8289404
_publ_section_title
;
Structure prediction by ZEFSAII (Michael W. Deem and Ramdas Pophale) SiO2 
 PCOD8289404
Probable space group: I M M M
;
_chemical_formula_sum "Si O2"
_cell_formula_units_Z 96
_cell_length_a 23.964459
_cell_length_b 19.922357
_cell_length_c 11.869701
_cell_angle_alpha 90.000000
_cell_angle_beta 90.000000
_cell_angle_gamma 90.000000
_cell_volume 5666.933633
_symmetry_space_group_name_H-M "I M M M"
_symmetry_group_IT_number 71
_symmetry_cell_setting 'orthorhombic'
loop_
_space_group_symop_operation_xyz
x,y,z
-x,-y,z
x,-y,-z
-x,y,-z
-x,-y,-z
x,y,-z
-x,y,z
x,-y,z
1/2+x,1/2+y,1/2+z
1/2-x,1/2-y,1/2+z
1/2+x,1/2-y,1/2-z
1/2-x,1/2+y,1/2-z
1/2-x,1/2-y,1/2-z
1/2+x,1/2+y,1/2-z
1/2-x,1/2+y,1/2+z
1/2+x,1/2-y,1/2+z
loop_
_atom_site_type_symbol
_atom_site_label
_atom_site_fract_x
_atom_site_fract_y
_atom_site_fract_z
Si Si1 0.565834 0.318236 0.259312
Si Si2 0.860564 0.077927 0.368104
Si Si3 0.566480 0.879759 0.500000
Si Si4 0.876333 0.422907 0.225047
Si Si5 0.934079 0.772206 0.000000
Si Si6 0.564846 0.184480 0.869661
Si Si7 0.736870 0.079533 0.375816
O O1 0.500000 0.329633 0.248670
O O2 0.595186 0.381967 0.205208
O O3 0.585717 0.311967 0.388970
O O4 0.584347 0.250872 0.195305
O O5 0.870266 0.092066 0.500000
O O6 0.798107 0.101542 0.332190
O O7 0.869769 0.000000 0.340845
O O8 0.500000 0.883421 0.500000
O O9 0.588830 0.916944 0.389764
O O10 0.589288 0.803480 0.500000
O O11 0.877609 0.500000 0.264492
O O12 0.901712 0.379341 0.325084
O O13 0.812580 0.397204 0.206952
O O14 0.000000 0.765961 0.000000
O O15 0.500000 0.170534 0.847383
O O16 0.578448 0.194933 0.000000
O O17 0.725968 0.110500 0.500000
O O18 0.736065 0.000000 0.387471
#
# Coordination Sequence:
#
# PCOD8289404 Si02
#       7
#    16  16   8  16   8  16  16
#     4  10  19  34  55  77 102 133 165 202 251 303
#     4   9  18  33  55  80 104 130 164 206 248 296
#     4  11  19  30  49  77 104 128 166 215 254 289
#     4  11  20  31  51  75 101 133 171 215 252 291
#     4   9  18  33  53  73 101 137 163 194 251 311
#     4  10  21  35  50  70 102 141 172 201 247 306
#     4   8  15  30  50  73 100 132 165 201 254 301
#
# _framework density 16.940377999999999
#
# number of rings (size 3 to 8) (size 9 to 14) (size 15 to 20)
#    0.000    2.333    2.500    2.250    0.000    3.333 
#    0.000    2.917    1.833    1.500    0.000    0.000 
#    0.000    0.000    0.000    0.000    0.000    0.000 
#
# Total GULP energy -595122.987887 kJ/mol
# GULP energy per Si atom -12398.395581 kJ/mol
# Density = 1.690182 g / cm^3
# Si number density = 16.940378 Si / 1000 Ang^3
#
#
#
# Elastic Constant Matrix: (Units=GPa)
#
#
# Indices 1 2 3 4 5 6 
#
# 1 76.3196 47.0680 46.0892 0.0000 0.0000 0.0000
# 2 47.0680 85.0178 52.9404 0.0000 0.0000 0.0000
# 3 46.0892 52.9404 106.3457 0.0000 0.0000 0.0000
# 4 0.0000 0.0000 0.0000 28.0879 0.0000 0.0000
# 5 0.0000 0.0000 0.0000 0.0000 25.2648 0.0000
# 6 0.0000 0.0000 0.0000 0.0000 0.0000 4.9396
#
#
#
# Elastic Compliance Matrix: (Units=1/GPa)
#
#
# Indices 1 2 3 4 5 6 
#
# 1 0.021540 -0.008858 -0.004926 0.000000 0.000000 0.000000
# 2 -0.008858 0.020689 -0.006460 0.000000 0.000000 0.000000
# 3 -0.004926 -0.006460 0.014754 0.000000 0.000000 0.000000
# 4 0.000000 0.000000 0.000000 0.035603 0.000000 0.000000
# 5 0.000000 0.000000 0.000000 0.000000 0.039581 0.000000
# 6 0.000000 0.000000 0.000000 0.000000 0.000000 0.202446
#
#
# Mechanical properties :
#
#
# Convention : Reuss Voigt Hill
#
# Bulk Modulus (GPa) = 60.62313 62.20872 61.41592
# Shear Modulus (GPa) = 13.13718 19.76417 16.45068
#
# Velocity S-wave (km/s) = 2.78779 3.41939 3.11962
# Velocity P-wave (km/s) = 6.79899 7.23820 7.02203
#
# Compressibility (1/GPa) = 0.01649535
#
# Stress axis : x y z
#
# Youngs Moduli (GPa) = 46.42441 48.33453 67.77773
#
# Poissons Ratio (x) = 0.42815 0.33385
# Poissons Ratio (y) = 0.41123 0.43787
# Poissons Ratio (z) = 0.22867 0.31226
#
# Static dielectric constant tensor:
#      x y z
#    x 3.293970 0.000000 0.000000 
#    y 0.000000 2.996390 0.000000 
#    z 0.000000 0.000000 3.230010 
# 
# 
# High freq. dielectric constant tensor:
#      x y z
#    x 1.648330 0.000000 0.000000 
#    y 0.000000 1.637990 0.000000 
#    z 0.000000 0.000000 1.644160 
# 
# From -- ./inp_files/24283.got.cif
#   From: 2010.06.25/outbox.cif.g09.slc.cpg/sg71_13_cif.got.tgz:24283.got - 2010.06.28 04:59:45.
