data_PCOD8289617
_publ_section_title
;
Structure prediction by ZEFSAII (Michael W. Deem and Ramdas Pophale) SiO2 
 PCOD8289617
Probable space group: I M M M
;
_chemical_formula_sum "Si O2"
_cell_formula_units_Z 88
_cell_length_a 12.607023
_cell_length_b 16.911174
_cell_length_c 21.243671
_cell_angle_alpha 90.000000
_cell_angle_beta 90.000000
_cell_angle_gamma 90.000000
_cell_volume 4529.141301
_symmetry_space_group_name_H-M "I M M M"
_symmetry_group_IT_number 71
_symmetry_cell_setting 'orthorhombic'
loop_
_space_group_symop_operation_xyz
x,y,z
-x,-y,z
x,-y,-z
-x,y,-z
-x,-y,-z
x,y,-z
-x,y,z
x,-y,z
1/2+x,1/2+y,1/2+z
1/2-x,1/2-y,1/2+z
1/2+x,1/2-y,1/2-z
1/2-x,1/2+y,1/2-z
1/2-x,1/2-y,1/2-z
1/2+x,1/2+y,1/2-z
1/2-x,1/2+y,1/2+z
1/2+x,1/2-y,1/2+z
loop_
_atom_site_type_symbol
_atom_site_label
_atom_site_fract_x
_atom_site_fract_y
_atom_site_fract_z
Si Si1 0.796005 0.824505 0.284656
Si Si2 0.877891 0.223082 0.500000
Si Si3 0.000000 0.093881 0.072140
Si Si4 0.790745 0.408407 0.000000
Si Si5 0.881161 0.702952 0.629241
Si Si6 0.688717 0.593373 0.662712
Si Si7 0.881431 0.592528 0.866438
O O1 0.750000 0.750000 0.250000
O O2 0.879146 0.787461 0.333955
O O3 0.850657 0.883250 0.233460
O O4 0.700628 0.866657 0.320484
O O5 0.816688 0.140797 0.500000
O O6 0.848037 0.278246 0.441646
O O7 0.000000 0.198187 0.500000
O O8 0.103990 0.123080 0.110438
O O9 0.000000 0.000000 0.070414
O O10 0.000000 0.127132 0.000000
O O11 0.859787 0.386318 0.060920
O O12 0.757449 0.500000 0.000000
O O13 0.801577 0.635745 0.653512
O O14 0.000000 0.668306 0.634114
O O15 0.704978 0.500000 0.658048
O O16 0.871212 0.500000 0.855062
O O17 0.000000 0.622387 0.850109
#
# Coordination Sequence:
#
# PCOD8289617 Si02
#       7
#    16   8   8   8  16  16  16
#     4  10  21  37  56  83 119 157 197 239 290 354
#     4  10  20  38  58  82 117 155 198 246 300 355
#     4   9  20  40  64  88 118 151 187 247 310 356
#     4  10  19  35  60  88 120 155 201 249 296 359
#     4  10  22  39  60  85 120 160 197 245 300 353
#     4  10  22  40  63  91 119 152 201 249 299 363
#     4  10  20  36  60  89 121 156 196 248 305 358
#
# _framework density 19.429731
#
# number of rings (size 3 to 8) (size 9 to 14) (size 15 to 20)
#    0.000    2.091    1.818    0.818    2.545    4.545 
#    4.909    0.000    0.000    1.636    0.000    0.000 
#    0.000    0.000    0.000    0.000    0.000    0.000 
#
# Total GULP energy -545405.078947 kJ/mol
# GULP energy per Si atom -12395.569976 kJ/mol
# Density = 1.938551 g / cm^3
# Si number density = 19.429731 Si / 1000 Ang^3
#
#
#
# Elastic Constant Matrix: (Units=GPa)
#
#
# Indices 1 2 3 4 5 6 
#
# 1 87.2214 45.0152 42.6961 0.0000 0.0000 0.0000
# 2 45.0152 67.6648 41.4459 0.0000 0.0000 0.0000
# 3 42.6961 41.4459 145.6110 0.0000 0.0000 0.0000
# 4 0.0000 0.0000 0.0000 21.9499 0.0000 0.0000
# 5 0.0000 0.0000 0.0000 0.0000 -21.4743 0.0000
# 6 0.0000 0.0000 0.0000 0.0000 0.0000 30.3196
#
#
#
# Elastic Compliance Matrix: (Units=1/GPa)
#
#
# Indices 1 2 3 4 5 6 
#
# 1 0.018060 -0.010623 -0.002272 0.000000 0.000000 0.000000
# 2 -0.010623 0.024148 -0.003758 0.000000 0.000000 0.000000
# 3 -0.002272 -0.003758 0.008604 0.000000 0.000000 0.000000
# 4 0.000000 0.000000 0.000000 0.045558 0.000000 0.000000
# 5 0.000000 0.000000 0.000000 0.000000 -0.046567 0.000000
# 6 0.000000 0.000000 0.000000 0.000000 0.000000 0.032982
#
#
# Mechanical properties :
#
#
# Convention : Reuss Voigt Hill
#
# Bulk Modulus (GPa) = 57.12756 62.09018 59.60887
# Shear Modulus (GPa) = 41.00854 17.58171 29.29512
#
# Velocity S-wave (km/s) = 4.59912 3.01140 3.88718
# Velocity P-wave (km/s) = 7.59398 6.64206 7.13392
#
# Compressibility (1/GPa) = 0.01750469
#
# Stress axis : x y z
#
# Youngs Moduli (GPa) = 55.37171 41.41123 116.23126
#
# Poissons Ratio (x) = 0.43991 0.26406
# Poissons Ratio (y) = 0.58822 0.43685
# Poissons Ratio (z) = 0.12579 0.15564
#
# Static dielectric constant tensor:
#      x y z
#    x 3.497960 0.000000 0.000000 
#    y 0.000000 3.383500 0.000000 
#    z 0.000000 0.000000 5.492610 
# 
# 
# High freq. dielectric constant tensor:
#      x y z
#    x 1.750170 0.000000 0.000000 
#    y 0.000000 1.743910 0.000000 
#    z 0.000000 0.000000 1.778480 
# 
# From -- ./inp_files/24002.got.cif
#   From: 2010.06.25/outbox.cif.g09.slc.cpg/sg71_13_cif.got.tgz:24002.got - 2010.06.28 04:59:45.
