data_PCOD8289064
_publ_section_title
;
Structure prediction by ZEFSAII (Michael W. Deem and Ramdas Pophale) SiO2 
 PCOD8289064
Probable space group: I M M M
;
_chemical_formula_sum "Si O2"
_cell_formula_units_Z 96
_cell_length_a 19.664749
_cell_length_b 28.578657
_cell_length_c 9.231170
_cell_angle_alpha 90.000000
_cell_angle_beta 90.000000
_cell_angle_gamma 90.000000
_cell_volume 5187.844768
_symmetry_space_group_name_H-M "I M M M"
_symmetry_group_IT_number 71
_symmetry_cell_setting 'orthorhombic'
loop_
_space_group_symop_operation_xyz
x,y,z
-x,-y,z
x,-y,-z
-x,y,-z
-x,-y,-z
x,y,-z
-x,y,z
x,-y,z
1/2+x,1/2+y,1/2+z
1/2-x,1/2-y,1/2+z
1/2+x,1/2-y,1/2-z
1/2-x,1/2+y,1/2-z
1/2-x,1/2-y,1/2-z
1/2+x,1/2+y,1/2-z
1/2-x,1/2+y,1/2+z
1/2+x,1/2-y,1/2+z
loop_
_atom_site_type_symbol
_atom_site_label
_atom_site_fract_x
_atom_site_fract_y
_atom_site_fract_z
Si Si1 0.686731 0.397301 0.829887
Si Si2 0.684560 0.696994 0.663495
Si Si3 0.156331 0.715691 0.336557
Si Si4 0.925016 0.054993 0.840193
Si Si5 0.420715 0.876654 0.830287
Si Si6 0.673708 0.054153 0.671113
O O1 0.669197 0.349054 0.753062
O O2 0.626522 0.431832 0.786668
O O3 0.757739 0.419768 0.777470
O O4 0.687722 0.389002 0.000000
O O5 0.658108 0.691323 0.500000
O O6 0.764501 0.704856 0.667297
O O7 0.642600 0.739769 0.734643
O O8 0.132506 0.727400 0.500000
O O9 0.114752 0.671225 0.275582
O O10 0.000000 0.075928 0.806538
O O11 0.930150 0.000000 0.842423
O O12 0.900576 0.072651 0.000000
O O13 0.500000 0.873763 0.793330
O O14 0.389955 0.921181 0.747673
O O15 0.407014 0.883576 0.000000
O O16 0.664076 0.058192 0.500000
O O17 0.676888 0.000000 0.719728
#
# Coordination Sequence:
#
# PCOD8289064 Si02
#       6
#    16  16  16  16  16  16
#     4  11  21  34  55  83 114 147 185 229 277 326
#     4  10  19  32  55  82 108 139 179 222 271 326
#     4   9  18  34  54  79 108 138 176 222 274 327
#     4   9  19  36  56  78 107 144 183 223 272 330
#     4  10  21  38  59  82 110 145 186 233 284 338
#     4  10  22  38  55  79 112 148 189 236 281 328
#
# _framework density 18.504795000000001
#
# number of rings (size 3 to 8) (size 9 to 14) (size 15 to 20)
#    0.000    2.167    1.667    2.000    0.000    4.333 
#    0.000    3.333    0.000    3.000    0.000    0.000 
#    0.000    0.000    0.000    0.000    0.000    0.000 
#
# Total GULP energy -595205.378088 kJ/mol
# GULP energy per Si atom -12400.112043 kJ/mol
# Density = 1.846268 g / cm^3
# Si number density = 18.504795 Si / 1000 Ang^3
#
#
#
# Elastic Constant Matrix: (Units=GPa)
#
#
# Indices 1 2 3 4 5 6 
#
# 1 71.0966 45.9124 35.1343 0.0000 0.0000 0.0000
# 2 45.9124 118.5337 48.9408 0.0000 0.0000 0.0000
# 3 35.1343 48.9408 73.7005 0.0000 0.0000 0.0000
# 4 0.0000 0.0000 0.0000 36.4938 0.0000 0.0000
# 5 0.0000 0.0000 0.0000 0.0000 24.4850 0.0000
# 6 0.0000 0.0000 0.0000 0.0000 0.0000 27.5547
#
#
#
# Elastic Compliance Matrix: (Units=1/GPa)
#
#
# Indices 1 2 3 4 5 6 
#
# 1 0.020652 -0.005421 -0.006246 0.000000 0.000000 0.000000
# 2 -0.005421 0.013046 -0.006079 0.000000 0.000000 0.000000
# 3 -0.006246 -0.006079 0.020583 0.000000 0.000000 0.000000
# 4 0.000000 0.000000 0.000000 0.027402 0.000000 0.000000
# 5 0.000000 0.000000 0.000000 0.000000 0.040841 0.000000
# 6 0.000000 0.000000 0.000000 0.000000 0.000000 0.036291
#
#
# Mechanical properties :
#
#
# Convention : Reuss Voigt Hill
#
# Bulk Modulus (GPa) = 53.21950 58.14511 55.68231
# Shear Modulus (GPa) = 24.92893 26.59626 25.76260
#
# Velocity S-wave (km/s) = 3.67435 3.79524 3.73528
# Velocity P-wave (km/s) = 6.84276 7.12004 6.98278
#
# Compressibility (1/GPa) = 0.01879010
#
# Stress axis : x y z
#
# Youngs Moduli (GPa) = 48.42050 76.65183 48.58443
#
# Poissons Ratio (x) = 0.41550 0.30345
# Poissons Ratio (y) = 0.26247 0.29535
# Poissons Ratio (z) = 0.30242 0.46597
#
# Static dielectric constant tensor:
#      x y z
#    x 3.396480 0.000000 0.000000 
#    y 0.000000 3.481190 0.000000 
#    z 0.000000 0.000000 3.483670 
# 
# 
# High freq. dielectric constant tensor:
#      x y z
#    x 1.702610 0.000000 0.000000 
#    y 0.000000 1.723030 0.000000 
#    z 0.000000 0.000000 1.717310 
# 
# From -- ./inp_files/10812.got.cif
#   From: 2010.06.25/outbox.cif.g09.slc.cpg/sg71_6_cif.got.tgz:10812.got - 2010.06.28 04:59:45.
