data_PCOD8289017
_publ_section_title
;
Structure prediction by ZEFSAII (Michael W. Deem and Ramdas Pophale) SiO2 
 PCOD8289017
Probable space group: I M M M
;
_chemical_formula_sum "Si O2"
_cell_formula_units_Z 80
_cell_length_a 20.556485
_cell_length_b 9.314761
_cell_length_c 22.747695
_cell_angle_alpha 90.000000
_cell_angle_beta 90.000000
_cell_angle_gamma 90.000000
_cell_volume 4355.700085
_symmetry_space_group_name_H-M "I M M M"
_symmetry_group_IT_number 71
_symmetry_cell_setting 'orthorhombic'
loop_
_space_group_symop_operation_xyz
x,y,z
-x,-y,z
x,-y,-z
-x,y,-z
-x,-y,-z
x,y,-z
-x,y,z
x,-y,z
1/2+x,1/2+y,1/2+z
1/2-x,1/2-y,1/2+z
1/2+x,1/2-y,1/2-z
1/2-x,1/2+y,1/2-z
1/2-x,1/2-y,1/2-z
1/2+x,1/2+y,1/2-z
1/2-x,1/2+y,1/2+z
1/2+x,1/2-y,1/2+z
loop_
_atom_site_type_symbol
_atom_site_label
_atom_site_fract_x
_atom_site_fract_y
_atom_site_fract_z
Si Si1 0.115845 0.333539 0.376841
Si Si2 0.500000 0.329698 0.565114
Si Si3 0.375818 0.329324 0.363156
Si Si4 0.749546 0.329914 0.433504
Si Si5 0.424741 0.166208 0.745495
Si Si6 0.000000 0.839949 0.569088
O O1 0.104044 0.500000 0.392117
O O2 0.186112 0.280789 0.399006
O O3 0.109180 0.306288 0.307769
O O4 0.063680 0.242326 0.411241
O O5 0.500000 0.500000 0.561383
O O6 0.500000 0.262828 0.500000
O O7 0.563426 0.274796 0.598691
O O8 0.375073 0.500000 0.355082
O O9 0.311691 0.272206 0.396302
O O10 0.381920 0.258143 0.299475
O O11 0.748740 0.266547 0.500000
O O12 0.745341 0.500000 0.437239
O O13 0.500000 0.218070 0.747455
O O14 0.421444 0.000000 0.727698
O O15 0.000000 0.848337 0.500000
O O16 0.000000 0.000000 0.596398
#
# Coordination Sequence:
#
# PCOD8289017 Si02
#       6
#    16   8  16  16  16   8
#     4  10  20  37  59  80 104 145 189 223 266 320
#     4   9  16  27  47  74 102 133 172 217 264 313
#     4  10  19  32  53  81 108 139 178 220 271 325
#     4   9  18  33  55  83 111 137 177 232 273 312
#     4  10  20  35  53  76 108 141 179 228 270 313
#     4  11  23  36  53  82 114 141 176 227 278 323
#
# _framework density 18.366738000000002
#
# number of rings (size 3 to 8) (size 9 to 14) (size 15 to 20)
#    0.000    2.200    2.000    1.500    0.000    5.600 
#    0.000    1.000    0.000    4.200    0.000    0.000 
#    0.000    0.000    0.000    0.000    0.000    0.000 
#
# Total GULP energy -496041.393894 kJ/mol
# GULP energy per Si atom -12401.034847 kJ/mol
# Density = 1.832493 g / cm^3
# Si number density = 18.366738 Si / 1000 Ang^3
#
#
#
# Elastic Constant Matrix: (Units=GPa)
#
#
# Indices 1 2 3 4 5 6 
#
# 1 181.8088 44.2562 84.7444 0.0000 0.0000 0.0000
# 2 44.2562 43.4589 45.2039 0.0000 0.0000 0.0000
# 3 84.7444 45.2039 137.2528 0.0000 0.0000 0.0000
# 4 0.0000 0.0000 0.0000 24.6941 0.0000 0.0000
# 5 0.0000 0.0000 0.0000 0.0000 42.7270 0.0000
# 6 0.0000 0.0000 0.0000 0.0000 0.0000 11.8793
#
#
#
# Elastic Compliance Matrix: (Units=1/GPa)
#
#
# Indices 1 2 3 4 5 6 
#
# 1 0.008324 -0.004762 -0.003571 0.000000 0.000000 0.000000
# 2 -0.004762 0.037725 -0.009484 0.000000 0.000000 0.000000
# 3 -0.003571 -0.009484 0.012614 0.000000 0.000000 0.000000
# 4 0.000000 0.000000 0.000000 0.040496 0.000000 0.000000
# 5 0.000000 0.000000 0.000000 0.000000 0.023404 0.000000
# 6 0.000000 0.000000 0.000000 0.000000 0.000000 0.084180
#
#
# Mechanical properties :
#
#
# Convention : Reuss Voigt Hill
#
# Bulk Modulus (GPa) = 43.42514 78.99219 61.20866
# Shear Modulus (GPa) = 19.99561 28.41447 24.20504
#
# Velocity S-wave (km/s) = 3.30310 3.93754 3.63419
# Velocity P-wave (km/s) = 6.18401 7.98586 7.14199
#
# Compressibility (1/GPa) = 0.02302814
#
# Stress axis : x y z
#
# Youngs Moduli (GPa) = 120.13318 26.50760 79.27467
#
# Poissons Ratio (x) = 0.12624 0.28310
# Poissons Ratio (y) = 0.57211 0.75186
# Poissons Ratio (z) = 0.42901 0.25140
#
# Static dielectric constant tensor:
#      x y z
#    x 3.605460 0.000000 0.000000 
#    y 0.000000 3.096930 0.000000 
#    z 0.000000 0.000000 3.514030 
# 
# 
# High freq. dielectric constant tensor:
#      x y z
#    x 1.721410 0.000000 0.000000 
#    y 0.000000 1.673190 0.000000 
#    z 0.000000 0.000000 1.726480 
# 
# From -- ./inp_files/10717.got.cif
#   From: 2010.06.25/outbox.cif.g09.slc.cpg/sg71_6_cif.got.tgz:10717.got - 2010.06.28 04:59:45.
