data_PCOD8289095
_publ_section_title
;
Structure prediction by ZEFSAII (Michael W. Deem and Ramdas Pophale) SiO2 
 PCOD8289095
Probable space group: I M M M
;
_chemical_formula_sum "Si O2"
_cell_formula_units_Z 120
_cell_length_a 18.789825
_cell_length_b 20.510036
_cell_length_c 18.002815
_cell_angle_alpha 90.000000
_cell_angle_beta 90.000000
_cell_angle_gamma 90.000000
_cell_volume 6937.924614
_symmetry_space_group_name_H-M "I M M M"
_symmetry_group_IT_number 71
_symmetry_cell_setting 'orthorhombic'
loop_
_space_group_symop_operation_xyz
x,y,z
-x,-y,z
x,-y,-z
-x,y,-z
-x,-y,-z
x,y,-z
-x,y,z
x,-y,z
1/2+x,1/2+y,1/2+z
1/2-x,1/2-y,1/2+z
1/2+x,1/2-y,1/2-z
1/2-x,1/2+y,1/2-z
1/2-x,1/2-y,1/2-z
1/2+x,1/2+y,1/2-z
1/2-x,1/2+y,1/2+z
1/2+x,1/2-y,1/2+z
loop_
_atom_site_type_symbol
_atom_site_label
_atom_site_fract_x
_atom_site_fract_y
_atom_site_fract_z
Si Si1 0.078616 0.856417 0.279764
Si Si2 0.822362 0.314243 0.191341
Si Si3 0.080953 0.709864 0.678946
Si Si4 0.794283 0.831118 0.812478
Si Si5 0.081709 0.500000 0.588144
Si Si6 0.173725 0.623486 0.587128
Si Si7 0.369985 0.575851 0.080080
Si Si8 0.793731 0.425894 0.085129
O O1 0.091956 0.786405 0.316008
O O2 0.134079 0.869690 0.212546
O O3 0.083469 0.904024 0.349725
O O4 0.000000 0.862558 0.244708
O O5 0.890587 0.321407 0.244788
O O6 0.815326 0.241123 0.156622
O O7 0.750905 0.326478 0.237404
O O8 0.835906 0.370360 0.130384
O O9 0.128375 0.687202 0.608947
O O10 0.000000 0.688394 0.666096
O O11 0.751484 0.873004 0.873962
O O12 0.077068 0.500000 0.500000
O O13 0.126846 0.562320 0.615848
O O14 0.000000 0.500000 0.619855
O O15 0.187366 0.620593 0.500000
O O16 0.378767 0.500000 0.071434
O O17 0.288195 0.593657 0.094229
O O18 0.394238 0.607042 0.000000
O O19 0.807818 0.500000 0.114973
O O20 0.818463 0.422076 0.000000
#
# Coordination Sequence:
#
# PCOD8289095 Si02
#       8
#    16  16  16  16   8  16  16  16
#     4  10  19  33  50  67  99 139 166 202 250 292
#     4   9  16  31  50  67  98 132 160 206 253 284
#     4   9  19  33  49  72  99 128 163 200 247 304
#     4   9  18  32  47  72  97 124 169 211 247 292
#     4   9  18  34  52  70  99 131 150 181 249 315
#     4  10  20  33  52  74  97 126 159 204 252 297
#     4   9  18  31  46  68 101 134 163 198 241 293
#     4   9  17  29  48  74 101 131 165 201 243 291
#
# _framework density 17.296239
#
# number of rings (size 3 to 8) (size 9 to 14) (size 15 to 20)
#    0.000    2.733    1.333    2.000    0.000    2.400 
#    6.000    2.000    0.000    0.800    0.000    4.667 
#    0.000    1.600    0.000    0.000    0.000    0.000 
#
# Total GULP energy -743549.714917 kJ/mol
# GULP energy per Si atom -12392.495249 kJ/mol
# Density = 1.725687 g / cm^3
# Si number density = 17.296239 Si / 1000 Ang^3
#
#
#
# Elastic Constant Matrix: (Units=GPa)
#
#
# Indices 1 2 3 4 5 6 
#
# 1 93.0896 16.2756 39.8390 0.0000 0.0000 0.0000
# 2 16.2756 32.7544 29.3604 0.0000 0.0000 0.0000
# 3 39.8390 29.3604 70.3922 0.0000 0.0000 0.0000
# 4 0.0000 0.0000 0.0000 29.0902 0.0000 0.0000
# 5 0.0000 0.0000 0.0000 0.0000 25.2532 0.0000
# 6 0.0000 0.0000 0.0000 0.0000 0.0000 16.9740
#
#
#
# Elastic Compliance Matrix: (Units=1/GPa)
#
#
# Indices 1 2 3 4 5 6 
#
# 1 0.014177 0.000236 -0.008122 0.000000 0.000000 0.000000
# 2 0.000236 0.048765 -0.020473 0.000000 0.000000 0.000000
# 3 -0.008122 -0.020473 0.027342 0.000000 0.000000 0.000000
# 4 0.000000 0.000000 0.000000 0.034376 0.000000 0.000000
# 5 0.000000 0.000000 0.000000 0.000000 0.039599 0.000000
# 6 0.000000 0.000000 0.000000 0.000000 0.000000 0.058914
#
#
# Mechanical properties :
#
#
# Convention : Reuss Voigt Hill
#
# Bulk Modulus (GPa) = 29.79261 40.79847 35.29554
# Shear Modulus (GPa) = 17.17746 21.64756 19.41251
#
# Velocity S-wave (km/s) = 3.15482 3.54160 3.35379
# Velocity P-wave (km/s) = 5.52565 6.35320 5.95382
#
# Compressibility (1/GPa) = 0.03356538
#
# Stress axis : x y z
#
# Youngs Moduli (GPa) = 70.53678 20.50658 36.57367
#
# Poissons Ratio (x) = -0.00484 0.29705
# Poissons Ratio (y) = -0.01663 0.74878
# Poissons Ratio (z) = 0.57289 0.41983
#
# Static dielectric constant tensor:
#      x y z
#    x 3.324430 0.000000 0.000000 
#    y 0.000000 3.232410 0.000000 
#    z 0.000000 0.000000 3.016840 
# 
# 
# High freq. dielectric constant tensor:
#      x y z
#    x 1.655270 0.000000 0.000000 
#    y 0.000000 1.662550 0.000000 
#    z 0.000000 0.000000 1.642370 
# 
# From -- ./inp_files/46483.got.cif
#   From: 2010.06.25/outbox.cif.g09.slc.cpg/sg71_24_cif.got.tgz:46483.got - 2010.06.28 04:59:45.
