data_PCOD8289137
_publ_section_title
;
Structure prediction by ZEFSAII (Michael W. Deem and Ramdas Pophale) SiO2 
 PCOD8289137
Probable space group: I M M M
;
_chemical_formula_sum "Si O2"
_cell_formula_units_Z 88
_cell_length_a 24.943115
_cell_length_b 9.241986
_cell_length_c 24.519338
_cell_angle_alpha 90.000000
_cell_angle_beta 90.000000
_cell_angle_gamma 90.000000
_cell_volume 5652.293902
_symmetry_space_group_name_H-M "I M M M"
_symmetry_group_IT_number 71
_symmetry_cell_setting 'orthorhombic'
loop_
_space_group_symop_operation_xyz
x,y,z
-x,-y,z
x,-y,-z
-x,y,-z
-x,-y,-z
x,y,-z
-x,y,z
x,-y,z
1/2+x,1/2+y,1/2+z
1/2-x,1/2-y,1/2+z
1/2+x,1/2-y,1/2-z
1/2-x,1/2+y,1/2-z
1/2-x,1/2-y,1/2-z
1/2+x,1/2+y,1/2-z
1/2-x,1/2+y,1/2+z
1/2+x,1/2-y,1/2+z
loop_
_atom_site_type_symbol
_atom_site_label
_atom_site_fract_x
_atom_site_fract_y
_atom_site_fract_z
Si Si1 0.407613 0.171973 0.892545
Si Si2 0.938876 0.833527 0.284877
Si Si3 0.500000 0.344812 0.060142
Si Si4 0.829429 0.833566 0.237750
Si Si5 0.748675 0.835085 0.330904
Si Si6 0.307671 0.334147 0.937208
O O1 0.424150 0.226057 0.833124
O O2 0.448990 0.244647 0.932897
O O3 0.350424 0.222064 0.914219
O O4 0.410840 0.000000 0.894122
O O5 0.893581 0.802039 0.239093
O O6 0.000000 0.803850 0.264019
O O7 0.932917 0.000000 0.304376
O O8 0.500000 0.500000 0.094482
O O9 0.500000 0.401396 0.000000
O O10 0.800687 0.785120 0.294881
O O11 0.804305 0.751208 0.186364
O O12 0.818131 0.000000 0.226939
O O13 0.757753 0.813224 0.395838
O O14 0.736353 0.000000 0.317400
O O15 0.328985 0.500000 0.932979
O O16 0.291456 0.298360 0.000000
#
# Coordination Sequence:
#
# PCOD8289137 Si02
#       6
#    16  16   8  16  16  16
#     4  12  23  32  45  67  92 117 153 200 244 275
#     4  10  19  33  52  68  90 125 162 194 229 280
#     4  11  23  37  49  57  75 117 165 201 236 277
#     4   9  17  30  48  70  92 118 154 192 233 280
#     4   9  17  30  48  70  92 118 154 192 233 281
#     4  10  20  35  52  67  89 124 162 194 229 281
#
# _framework density 15.568899999999999
#
# number of rings (size 3 to 8) (size 9 to 14) (size 15 to 20)
#    0.000    1.909    2.727    2.455    0.000    4.727 
#    0.000    0.000    0.000    0.000    0.000    0.000 
#    0.000    0.727    0.000    9.091    0.000    0.000 
#
# Total GULP energy -545136.161313 kJ/mol
# GULP energy per Si atom -12389.458212 kJ/mol
# Density = 1.553346 g / cm^3
# Si number density = 15.568900 Si / 1000 Ang^3
#
#
#
# Elastic Constant Matrix: (Units=GPa)
#
#
# Indices 1 2 3 4 5 6 
#
# 1 107.4207 50.5647 57.1982 0.0000 0.0000 0.0000
# 2 50.5647 92.6055 38.7126 0.0000 0.0000 0.0000
# 3 57.1982 38.7126 65.4255 0.0000 0.0000 0.0000
# 4 0.0000 0.0000 0.0000 13.7665 0.0000 0.0000
# 5 0.0000 0.0000 0.0000 0.0000 22.9242 0.0000
# 6 0.0000 0.0000 0.0000 0.0000 0.0000 23.6314
#
#
#
# Elastic Compliance Matrix: (Units=1/GPa)
#
#
# Indices 1 2 3 4 5 6 
#
# 1 0.018725 -0.004492 -0.013713 0.000000 0.000000 0.000000
# 2 -0.004492 0.015425 -0.005200 0.000000 0.000000 0.000000
# 3 -0.013713 -0.005200 0.030350 0.000000 0.000000 0.000000
# 4 0.000000 0.000000 0.000000 0.072640 0.000000 0.000000
# 5 0.000000 0.000000 0.000000 0.000000 0.043622 0.000000
# 6 0.000000 0.000000 0.000000 0.000000 0.000000 0.042317
#
#
# Mechanical properties :
#
#
# Convention : Reuss Voigt Hill
#
# Bulk Modulus (GPa) = 56.52650 62.04476 59.28563
# Shear Modulus (GPa) = 18.13013 19.99618 19.06315
#
# Velocity S-wave (km/s) = 3.41619 3.58769 3.50299
# Velocity P-wave (km/s) = 7.20740 7.55647 7.38400
#
# Compressibility (1/GPa) = 0.01769082
#
# Stress axis : x y z
#
# Youngs Moduli (GPa) = 53.40404 64.82982 32.94939
#
# Poissons Ratio (x) = 0.29122 0.45182
# Poissons Ratio (y) = 0.23989 0.17133
# Poissons Ratio (z) = 0.73231 0.33711
#
# Static dielectric constant tensor:
#      x y z
#    x 3.039600 0.000000 0.000000 
#    y 0.000000 2.981340 0.000000 
#    z 0.000000 0.000000 2.839160 
# 
# 
# High freq. dielectric constant tensor:
#      x y z
#    x 1.579930 0.000000 0.000000 
#    y 0.000000 1.603370 0.000000 
#    z 0.000000 0.000000 1.565200 
# 
# From -- ./inp_files/51045.got.cif
#   From: 2010.06.25/outbox.cif.g09.slc.cpg/sg71_26_cif.got.tgz:51045.got - 2010.06.28 04:59:45.
