data_PCOD8289909
_publ_section_title
;
Structure prediction by ZEFSAII (Michael W. Deem and Ramdas Pophale) SiO2 
 PCOD8289909
Probable space group: I M M M
;
_chemical_formula_sum "Si O2"
_cell_formula_units_Z 88
_cell_length_a 32.476264
_cell_length_b 16.917276
_cell_length_c 9.113689
_cell_angle_alpha 90.000000
_cell_angle_beta 90.000000
_cell_angle_gamma 90.000000
_cell_volume 5007.151158
_symmetry_space_group_name_H-M "I M M M"
_symmetry_group_IT_number 71
_symmetry_cell_setting 'orthorhombic'
loop_
_space_group_symop_operation_xyz
x,y,z
-x,-y,z
x,-y,-z
-x,y,-z
-x,-y,-z
x,y,-z
-x,y,z
x,-y,z
1/2+x,1/2+y,1/2+z
1/2-x,1/2-y,1/2+z
1/2+x,1/2-y,1/2-z
1/2-x,1/2+y,1/2-z
1/2-x,1/2-y,1/2-z
1/2+x,1/2+y,1/2-z
1/2-x,1/2+y,1/2+z
1/2+x,1/2-y,1/2+z
loop_
_atom_site_type_symbol
_atom_site_label
_atom_site_fract_x
_atom_site_fract_y
_atom_site_fract_z
Si Si1 0.696183 0.189994 0.338625
Si Si2 0.732701 0.362951 0.337758
Si Si3 0.614431 0.269684 0.674312
Si Si4 0.451570 0.171045 0.172316
Si Si5 0.547847 0.000000 0.170354
Si Si6 0.344932 0.410822 0.168286
O O1 0.694299 0.150716 0.500000
O O2 0.719644 0.272588 0.350416
O O3 0.721253 0.131805 0.230894
O O4 0.650103 0.207229 0.279621
O O5 0.733781 0.401450 0.500000
O O6 0.700812 0.409646 0.236060
O O7 0.612597 0.280267 0.500000
O O8 0.571341 0.238465 0.736132
O O9 0.623662 0.355131 0.743756
O O10 0.500000 0.180827 0.201688
O O11 0.435402 0.084280 0.231440
O O12 0.442037 0.180772 0.000000
O O13 0.500000 0.000000 0.201854
O O14 0.556937 0.000000 0.000000
O O15 0.362034 0.500000 0.178541
O O16 0.342189 0.382160 0.000000
#
# Coordination Sequence:
#
# PCOD8289909 Si02
#       6
#    16  16  16  16   8  16
#     4   8  15  27  42  63  91 122 157 192 234 289
#     4   9  16  26  44  68  91 118 154 198 244 288
#     4  10  20  32  49  74 102 133 168 208 253 298
#     4   9  17  31  53  78 103 132 166 203 244 296
#     4   7  12  26  49  75  99 125 157 191 231 283
#     4  10  20  33  50  71  96 130 171 213 256 300
#
# _framework density 17.574864000000002
#
# number of rings (size 3 to 8) (size 9 to 14) (size 15 to 20)
#    0.000    3.000    0.000    3.818    0.000    6.909 
#    0.000    0.455    2.000    2.182    0.000    3.818 
#    0.000    0.000    0.000    0.000    0.000    0.000 
#
# Total GULP energy -545195.389995 kJ/mol
# GULP energy per Si atom -12390.804318 kJ/mol
# Density = 1.753486 g / cm^3
# Si number density = 17.574864 Si / 1000 Ang^3
#
#
#
# Elastic Constant Matrix: (Units=GPa)
#
#
# Indices 1 2 3 4 5 6 
#
# 1 78.7240 42.4155 47.1992 0.0000 0.0000 0.0000
# 2 42.4155 78.4339 47.6485 0.0000 0.0000 0.0000
# 3 47.1992 47.6485 107.9966 0.0000 0.0000 0.0000
# 4 0.0000 0.0000 0.0000 12.9507 0.0000 0.0000
# 5 0.0000 0.0000 0.0000 0.0000 27.3182 0.0000
# 6 0.0000 0.0000 0.0000 0.0000 0.0000 17.3165
#
#
#
# Elastic Compliance Matrix: (Units=1/GPa)
#
#
# Indices 1 2 3 4 5 6 
#
# 1 0.020010 -0.007525 -0.005425 0.000000 0.000000 0.000000
# 2 -0.007525 0.020248 -0.005645 0.000000 0.000000 0.000000
# 3 -0.005425 -0.005645 0.014121 0.000000 0.000000 0.000000
# 4 0.000000 0.000000 0.000000 0.077216 0.000000 0.000000
# 5 0.000000 0.000000 0.000000 0.000000 0.036606 0.000000
# 6 0.000000 0.000000 0.000000 0.000000 0.000000 0.057748
#
#
# Mechanical properties :
#
#
# Convention : Reuss Voigt Hill
#
# Bulk Modulus (GPa) = 58.17649 59.96457 59.07053
# Shear Modulus (GPa) = 18.59646 20.04317 19.31981
#
# Velocity S-wave (km/s) = 3.25642 3.38071 3.31915
# Velocity P-wave (km/s) = 6.87844 7.03083 6.95505
#
# Compressibility (1/GPa) = 0.01718908
#
# Stress axis : x y z
#
# Youngs Moduli (GPa) = 49.97600 49.38699 70.81660
#
# Poissons Ratio (x) = 0.37164 0.38418
# Poissons Ratio (y) = 0.37608 0.39974
# Poissons Ratio (z) = 0.27112 0.27878
#
# Static dielectric constant tensor:
#      x y z
#    x 3.114620 0.000000 0.000000 
#    y 0.000000 3.088310 0.000000 
#    z 0.000000 0.000000 3.360390 
# 
# 
# High freq. dielectric constant tensor:
#      x y z
#    x 1.654280 0.000000 0.000000 
#    y 0.000000 1.654560 0.000000 
#    z 0.000000 0.000000 1.680860 
# 
# From -- ./inp_files/16682.got.cif
#   From: 2010.06.25/outbox.cif.g09.slc.cpg/sg71_9_cif.got.tgz:16682.got - 2010.06.28 04:59:45.
