data_PCOD8289187
_publ_section_title
;
Structure prediction by ZEFSAII (Michael W. Deem and Ramdas Pophale) SiO2 
 PCOD8289187
Probable space group: I M M M
;
_chemical_formula_sum "Si O2"
_cell_formula_units_Z 120
_cell_length_a 27.569184
_cell_length_b 9.140362
_cell_length_c 27.506827
_cell_angle_alpha 90.000000
_cell_angle_beta 90.000000
_cell_angle_gamma 90.000000
_cell_volume 6931.509201
_symmetry_space_group_name_H-M "I M M M"
_symmetry_group_IT_number 71
_symmetry_cell_setting 'orthorhombic'
loop_
_space_group_symop_operation_xyz
x,y,z
-x,-y,z
x,-y,-z
-x,y,-z
-x,-y,-z
x,y,-z
-x,y,z
x,-y,z
1/2+x,1/2+y,1/2+z
1/2-x,1/2-y,1/2+z
1/2+x,1/2-y,1/2-z
1/2-x,1/2+y,1/2-z
1/2-x,1/2-y,1/2-z
1/2+x,1/2+y,1/2-z
1/2-x,1/2+y,1/2+z
1/2+x,1/2-y,1/2+z
loop_
_atom_site_type_symbol
_atom_site_label
_atom_site_fract_x
_atom_site_fract_y
_atom_site_fract_z
Si Si1 0.730720 0.666875 0.556285
Si Si2 0.798140 0.833759 0.296670
Si Si3 0.091684 0.337924 0.442886
Si Si4 0.556352 0.830222 0.555493
Si Si5 0.813150 0.671855 0.797137
Si Si6 0.819184 0.833011 0.403729
Si Si7 0.500000 0.663941 0.941900
Si Si8 0.135793 0.830253 0.115795
O O1 0.731256 0.707182 0.500000
O O2 0.747618 0.500000 0.565313
O O3 0.765813 0.776224 0.584291
O O4 0.676864 0.693113 0.575464
O O5 0.823847 0.729607 0.257362
O O6 0.742716 0.786606 0.308320
O O7 0.828560 0.819261 0.346184
O O8 0.798417 0.000000 0.276965
O O9 0.084801 0.349989 0.500000
O O10 0.091165 0.500000 0.419705
O O11 0.142292 0.261764 0.432517
O O12 0.047349 0.245032 0.420809
O O13 0.568044 0.782153 0.500000
O O14 0.500000 0.802221 0.566807
O O15 0.586669 0.736362 0.594053
O O16 0.569443 0.000000 0.562385
O O17 0.823050 0.500000 0.799880
O O18 0.849079 0.750626 0.834476
O O19 0.823476 0.000000 0.421096
O O20 0.500000 0.500000 0.921159
O O21 0.500000 0.662485 0.000000
O O22 0.127208 0.000000 0.127612
#
# Coordination Sequence:
#
# PCOD8289187 Si02
#       8
#    16  16  16  16  16  16   8  16
#     4  10  21  34  46  66 101 141 175 206 244 295
#     4   9  19  34  50  72 102 132 168 213 257 301
#     4  10  20  33  49  71 101 135 169 206 248 296
#     4   9  19  36  56  78 106 140 178 221 267 315
#     4  10  19  33  53  75 100 131 171 212 255 303
#     4  11  21  33  49  72 101 133 170 209 251 300
#     4   9  17  31  51  73  95 123 165 211 249 285
#     4  11  21  33  52  77 106 138 174 215 261 312
#
# _framework density 17.312246999999999
#
# number of rings (size 3 to 8) (size 9 to 14) (size 15 to 20)
#    0.000    2.067    1.333    3.000    0.000    6.667 
#    0.000    0.667    0.000    0.000    1.733    0.000 
#    0.000    0.000    0.000    0.000    0.000    0.000 
#
# Total GULP energy -744105.364716 kJ/mol
# GULP energy per Si atom -12401.756079 kJ/mol
# Density = 1.727284 g / cm^3
# Si number density = 17.312247 Si / 1000 Ang^3
#
#
#
# Elastic Constant Matrix: (Units=GPa)
#
#
# Indices 1 2 3 4 5 6 
#
# 1 75.3767 50.4888 29.8771 0.0000 0.0000 0.0000
# 2 50.4888 126.2120 46.4085 0.0000 0.0000 0.0000
# 3 29.8771 46.4085 73.9306 0.0000 0.0000 0.0000
# 4 0.0000 0.0000 0.0000 28.4283 0.0000 0.0000
# 5 0.0000 0.0000 0.0000 0.0000 20.8635 0.0000
# 6 0.0000 0.0000 0.0000 0.0000 0.0000 26.2073
#
#
#
# Elastic Compliance Matrix: (Units=1/GPa)
#
#
# Indices 1 2 3 4 5 6 
#
# 1 0.018893 -0.006176 -0.003758 0.000000 0.000000 0.000000
# 2 -0.006176 0.012320 -0.005238 0.000000 0.000000 0.000000
# 3 -0.003758 -0.005238 0.018333 0.000000 0.000000 0.000000
# 4 0.000000 0.000000 0.000000 0.035176 0.000000 0.000000
# 5 0.000000 0.000000 0.000000 0.000000 0.047931 0.000000
# 6 0.000000 0.000000 0.000000 0.000000 0.000000 0.038157
#
#
# Mechanical properties :
#
#
# Convention : Reuss Voigt Hill
#
# Bulk Modulus (GPa) = 52.07817 58.78536 55.43176
# Shear Modulus (GPa) = 24.09012 25.01615 24.55313
#
# Velocity S-wave (km/s) = 3.73434 3.80544 3.77005
# Velocity P-wave (km/s) = 6.98145 7.30329 7.14419
#
# Compressibility (1/GPa) = 0.01920190
#
# Stress axis : x y z
#
# Youngs Moduli (GPa) = 52.92921 81.17142 54.54699
#
# Poissons Ratio (x) = 0.50131 0.20501
# Poissons Ratio (y) = 0.32689 0.28569
# Poissons Ratio (z) = 0.19893 0.42514
#
# Static dielectric constant tensor:
#      x y z
#    x 3.036720 0.000000 0.000000 
#    y 0.000000 3.378150 0.000000 
#    z 0.000000 0.000000 3.087170 
# 
# 
# High freq. dielectric constant tensor:
#      x y z
#    x 1.649870 0.000000 0.000000 
#    y 0.000000 1.682880 0.000000 
#    z 0.000000 0.000000 1.651130 
# 
# From -- ./inp_files/67153.got.cif
#   From: 2010.06.25/outbox.cif.g09.slc.cpg/sg71_34_cif.got.tgz:67153.got - 2010.06.28 04:59:45.
