data_PCOD8289100
_publ_section_title
;
Structure prediction by ZEFSAII (Michael W. Deem and Ramdas Pophale) SiO2 
 PCOD8289100
Probable space group: I M M M
;
_chemical_formula_sum "Si O2"
_cell_formula_units_Z 80
_cell_length_a 10.749955
_cell_length_b 30.736732
_cell_length_c 13.084974
_cell_angle_alpha 90.000000
_cell_angle_beta 90.000000
_cell_angle_gamma 90.000000
_cell_volume 4323.517296
_symmetry_space_group_name_H-M "I M M M"
_symmetry_group_IT_number 71
_symmetry_cell_setting 'orthorhombic'
loop_
_space_group_symop_operation_xyz
x,y,z
-x,-y,z
x,-y,-z
-x,y,-z
-x,-y,-z
x,y,-z
-x,y,z
x,-y,z
1/2+x,1/2+y,1/2+z
1/2-x,1/2-y,1/2+z
1/2+x,1/2-y,1/2-z
1/2-x,1/2+y,1/2-z
1/2-x,1/2-y,1/2-z
1/2+x,1/2+y,1/2-z
1/2-x,1/2+y,1/2+z
1/2+x,1/2-y,1/2+z
loop_
_atom_site_type_symbol
_atom_site_label
_atom_site_fract_x
_atom_site_fract_y
_atom_site_fract_z
Si Si1 0.862428 0.754329 0.886054
Si Si2 0.856516 0.882625 0.387875
Si Si3 0.862376 0.601222 0.616549
Si Si4 0.286526 0.179977 0.247133
Si Si5 0.143097 0.050974 0.781616
O O1 0.776676 0.791368 0.839858
O O2 0.870026 0.710872 0.817607
O O3 0.000000 0.774053 0.891461
O O4 0.813758 0.742806 0.000000
O O5 0.791010 0.884876 0.500000
O O6 0.813008 0.841818 0.321841
O O7 0.830768 0.927769 0.328742
O O8 0.000000 0.875090 0.405112
O O9 0.844854 0.616567 0.500000
O O10 0.865224 0.643053 0.690262
O O11 0.747061 0.569007 0.640255
O O12 0.000000 0.578971 0.630098
O O13 0.000000 0.061536 0.818038
O O14 0.162546 0.000000 0.770294
#
# Coordination Sequence:
#
# PCOD8289100 Si02
#       5
#    16  16  16  16  16
#     4  10  20  32  48  71  98 130 169 211 253 298
#     4   9  17  30  50  75 101 131 169 211 253 298
#     4  10  21  36  54  76 102 134 171 210 254 303
#     4  10  19  33  50  70  99 133 168 208 254 300
#     4   9  19  35  54  78 106 134 166 206 252 301
#
# _framework density 18.503451999999999
#
# number of rings (size 3 to 8) (size 9 to 14) (size 15 to 20)
#    0.000    2.400    0.000    2.400    0.000    2.400 
#    0.000    4.000    0.000   15.000    0.000    5.600 
#    0.000    0.000    0.000    0.000    0.000    0.000 
#
# Total GULP energy -495695.911718 kJ/mol
# GULP energy per Si atom -12392.397793 kJ/mol
# Density = 1.846134 g / cm^3
# Si number density = 18.503452 Si / 1000 Ang^3
#
#
#
# Elastic Constant Matrix: (Units=GPa)
#
#
# Indices 1 2 3 4 5 6 
#
# 1 86.0817 35.1157 46.8986 0.0006 -0.0002 0.0002
# 2 35.1157 81.6649 32.0617 0.0003 -0.0002 0.0000
# 3 46.8986 32.0617 129.6695 0.0022 -0.0011 0.0004
# 4 0.0006 0.0003 0.0022 9.4012 -0.0003 0.0000
# 5 -0.0002 -0.0002 -0.0011 -0.0003 26.1117 0.0002
# 6 0.0002 0.0000 0.0004 0.0000 0.0002 18.4353
#
#
#
# Elastic Compliance Matrix: (Units=1/GPa)
#
#
# Indices 1 2 3 4 5 6 
#
# 1 0.016229 -0.005177 -0.004590 0.000000 0.000000 0.000000
# 2 -0.005177 0.015213 -0.001889 0.000000 0.000000 0.000000
# 3 -0.004590 -0.001889 0.009839 -0.000002 0.000000 0.000000
# 4 0.000000 0.000000 -0.000002 0.106369 0.000001 0.000000
# 5 0.000000 0.000000 0.000000 0.000001 0.038297 0.000000
# 6 0.000000 0.000000 0.000000 0.000000 0.000000 0.054244
#
#
# Mechanical properties :
#
#
# Convention : Reuss Voigt Hill
#
# Bulk Modulus (GPa) = 55.64869 58.39646 57.02257
# Shear Modulus (GPa) = 18.55346 23.01234 20.78290
#
# Velocity S-wave (km/s) = 3.16998 3.53041 3.35504
# Velocity P-wave (km/s) = 6.59837 6.94598 6.77440
#
# Compressibility (1/GPa) = 0.01796988
#
# Stress axis : x y z
#
# Youngs Moduli (GPa) = 61.61755 65.73427 101.63571
#
# Poissons Ratio (x) = 0.34028 0.46649
# Poissons Ratio (y) = 0.31897 0.19201
# Poissons Ratio (z) = 0.28281 0.12419
#
# Static dielectric constant tensor:
#      x y z
#    x 3.378160 0.000000 0.000000 
#    y 0.000000 3.277940 0.000000 
#    z 0.000000 0.000000 3.651660 
# 
# 
# High freq. dielectric constant tensor:
#      x y z
#    x 1.712740 0.000000 0.000000 
#    y 0.000000 1.707660 0.000000 
#    z 0.000000 0.000000 1.729380 
# 
# From -- ./inp_files/20108.got.cif
#   From: 2010.06.25/outbox.cif.g09.slc.cpg/sg71_11_cif.got.tgz:20108.got - 2010.06.28 04:59:45.
