data_PCOD8289104
_publ_section_title
;
Structure prediction by ZEFSAII (Michael W. Deem and Ramdas Pophale) SiO2 
 PCOD8289104
Probable space group: I M M M
;
_chemical_formula_sum "Si O2"
_cell_formula_units_Z 68
_cell_length_a 7.904468
_cell_length_b 25.268128
_cell_length_c 19.832156
_cell_angle_alpha 90.000000
_cell_angle_beta 90.000000
_cell_angle_gamma 90.000000
_cell_volume 3961.098516
_symmetry_space_group_name_H-M "I M M M"
_symmetry_group_IT_number 71
_symmetry_cell_setting 'orthorhombic'
loop_
_space_group_symop_operation_xyz
x,y,z
-x,-y,z
x,-y,-z
-x,y,-z
-x,-y,-z
x,y,-z
-x,y,z
x,-y,z
1/2+x,1/2+y,1/2+z
1/2-x,1/2-y,1/2+z
1/2+x,1/2-y,1/2-z
1/2-x,1/2+y,1/2-z
1/2-x,1/2-y,1/2-z
1/2+x,1/2+y,1/2-z
1/2-x,1/2+y,1/2+z
1/2+x,1/2-y,1/2+z
loop_
_atom_site_type_symbol
_atom_site_label
_atom_site_fract_x
_atom_site_fract_y
_atom_site_fract_z
Si Si1 0.695777 0.172173 0.748106
Si Si2 0.187248 0.713728 0.500000
Si Si3 0.000000 0.862762 0.000000
Si Si4 0.307685 0.942025 0.217510
Si Si5 0.500000 0.442854 0.382504
Si Si6 0.804452 0.246417 0.860621
O O1 0.500000 0.186118 0.755515
O O2 0.726440 0.109211 0.734997
O O3 0.781745 0.191987 0.817776
O O4 0.767280 0.204523 0.683948
O O5 0.328876 0.669563 0.500000
O O6 0.204987 0.747807 0.431418
O O7 0.000000 0.688190 0.500000
O O8 0.000000 0.896223 0.066244
O O9 0.500000 0.937581 0.188577
O O10 0.172273 0.938192 0.158930
O O11 0.286996 0.000000 0.254349
O O12 0.500000 0.500000 0.418852
O O13 0.000000 0.253092 0.879013
#
# Coordination Sequence:
#
# PCOD8289104 Si02
#       6
#    16   8   4  16   8  16
#     4   9  18  31  51  76 101 131 166 206 254 306
#     4  12  24  37  51  71 101 137 175 212 255 307
#     4  12  23  36  52  68  96 138 173 214 250 294
#     4   9  18  33  51  73 101 129 161 207 254 297
#     4  10  21  34  50  72  98 131 172 210 248 295
#     4  10  19  33  50  73 103 132 167 210 254 301
#
# _framework density 17.166955000000002
#
# number of rings (size 3 to 8) (size 9 to 14) (size 15 to 20)
#    0.000    2.118    1.176    2.294    1.647    3.765 
#    0.000    0.000    0.000    3.529    0.000    0.824 
#    0.000    6.588    0.000    0.000    0.000    0.000 
#
# Total GULP energy -421202.303176 kJ/mol
# GULP energy per Si atom -12388.303035 kJ/mol
# Density = 1.712788 g / cm^3
# Si number density = 17.166955 Si / 1000 Ang^3
#
#
#
# Elastic Constant Matrix: (Units=GPa)
#
#
# Indices 1 2 3 4 5 6 
#
# 1 88.4438 34.1116 29.6779 0.0000 0.0000 0.0000
# 2 34.1116 149.4531 57.1142 0.0000 0.0000 0.0000
# 3 29.6779 57.1142 101.5543 -0.0002 0.0000 0.0001
# 4 0.0000 0.0000 -0.0002 26.7564 0.0000 0.0000
# 5 0.0000 0.0000 0.0000 0.0000 18.8180 0.0000
# 6 0.0000 0.0000 0.0001 0.0000 0.0000 -23.0103
#
#
#
# Elastic Compliance Matrix: (Units=1/GPa)
#
#
# Indices 1 2 3 4 5 6 
#
# 1 0.012956 -0.001924 -0.002704 0.000000 0.000000 0.000000
# 2 -0.001924 0.008808 -0.004392 0.000000 0.000000 0.000000
# 3 -0.002704 -0.004392 0.013107 0.000000 0.000000 0.000000
# 4 0.000000 0.000000 0.000000 0.037374 0.000000 0.000000
# 5 0.000000 0.000000 0.000000 0.000000 0.053140 0.000000
# 6 0.000000 0.000000 0.000000 0.000000 0.000000 -0.043459
#
#
# Mechanical properties :
#
#
# Convention : Reuss Voigt Hill
#
# Bulk Modulus (GPa) = 59.41001 64.58430 61.99716
# Shear Modulus (GPa) = 47.35849 19.08266 33.22057
#
# Velocity S-wave (km/s) = 5.25803 3.33767 4.40380
# Velocity P-wave (km/s) = 8.45842 7.24958 7.87722
#
# Compressibility (1/GPa) = 0.01683218
#
# Stress axis : x y z
#
# Youngs Moduli (GPa) = 77.18431 113.52759 76.29413
#
# Poissons Ratio (x) = 0.21839 0.20633
# Poissons Ratio (y) = 0.14847 0.33506
# Poissons Ratio (z) = 0.20873 0.49858
#
# Static dielectric constant tensor:
#      x y z
#    x 3.317320 0.000000 0.000000 
#    y 0.000000 3.617360 0.000000 
#    z 0.000000 0.000000 3.113610 
# 
# 
# High freq. dielectric constant tensor:
#      x y z
#    x 1.682090 0.000000 0.000000 
#    y 0.000000 1.665660 0.000000 
#    z 0.000000 0.000000 1.621090 
# 
# From -- ./inp_files/42107.got.cif
#   From: 2010.06.25/outbox.cif.g09.slc.cpg/sg71_22_cif.got.tgz:42107.got - 2010.06.28 04:59:45.
