data_PCOD8289202
_publ_section_title
;
Structure prediction by ZEFSAII (Michael W. Deem and Ramdas Pophale) SiO2 
 PCOD8289202
Probable space group: I M M M
;
_chemical_formula_sum "Si O2"
_cell_formula_units_Z 104
_cell_length_a 9.313409
_cell_length_b 28.535281
_cell_length_c 21.124978
_cell_angle_alpha 90.000000
_cell_angle_beta 90.000000
_cell_angle_gamma 90.000000
_cell_volume 5614.189847
_symmetry_space_group_name_H-M "I M M M"
_symmetry_group_IT_number 71
_symmetry_cell_setting 'orthorhombic'
loop_
_space_group_symop_operation_xyz
x,y,z
-x,-y,z
x,-y,-z
-x,y,-z
-x,-y,-z
x,y,-z
-x,y,z
x,-y,z
1/2+x,1/2+y,1/2+z
1/2-x,1/2-y,1/2+z
1/2+x,1/2-y,1/2-z
1/2-x,1/2+y,1/2-z
1/2-x,1/2-y,1/2-z
1/2+x,1/2+y,1/2-z
1/2-x,1/2+y,1/2+z
1/2+x,1/2-y,1/2+z
loop_
_atom_site_type_symbol
_atom_site_label
_atom_site_fract_x
_atom_site_fract_y
_atom_site_fract_z
Si Si1 0.666193 0.552887 0.836433
Si Si2 0.829970 0.053276 0.000000
Si Si3 0.162261 0.718703 0.429926
Si Si4 0.336876 0.111151 0.425750
Si Si5 0.831036 0.190829 0.642323
Si Si6 0.831985 0.131896 0.242163
Si Si7 0.329024 0.628823 0.601193
O O1 0.500000 0.562322 0.852965
O O2 0.693499 0.500000 0.815144
O O3 0.760875 0.564987 0.897549
O O4 0.718355 0.585552 0.778961
O O5 0.779827 0.082116 0.062781
O O6 0.000000 0.049377 0.000000
O O7 0.765095 0.000000 0.000000
O O8 0.169724 0.742076 0.500000
O O9 0.211260 0.756072 0.376122
O O10 0.267114 0.674676 0.431916
O O11 0.000000 0.702000 0.415340
O O12 0.330453 0.106047 0.500000
O O13 0.500000 0.114317 0.401231
O O14 0.253297 0.157406 0.405006
O O15 0.789446 0.177835 0.715484
O O16 0.000000 0.182244 0.631502
O O17 0.762491 0.129690 0.172397
O O18 0.000000 0.131090 0.231193
O O19 0.500000 0.632454 0.599708
#
# Coordination Sequence:
#
# PCOD8289202 Si02
#       7
#    16   8  16  16  16  16  16
#     4   9  18  33  52  72  95 129 172 213 255 304
#     4   9  18  32  51  77 105 133 169 209 252 307
#     4  10  20  33  51  74 102 135 170 209 252 302
#     4  10  20  32  47  71 103 135 168 211 259 302
#     4   9  18  34  53  73  98 134 176 212 251 303
#     4   8  16  31  51  74 100 127 164 214 257 299
#     4  10  19  33  53  77 104 133 165 207 259 310
#
# _framework density 18.52449
#
# number of rings (size 3 to 8) (size 9 to 14) (size 15 to 20)
#    0.000    2.692    0.769    1.846    0.000    4.308 
#    0.000    7.692    0.000    0.923    0.000    0.000 
#    0.000    0.000    0.000    0.000    0.000    0.000 
#
# Total GULP energy -644434.034480 kJ/mol
# GULP energy per Si atom -12392.962202 kJ/mol
# Density = 1.848233 g / cm^3
# Si number density = 18.524490 Si / 1000 Ang^3
#
#
#
# Elastic Constant Matrix: (Units=GPa)
#
#
# Indices 1 2 3 4 5 6 
#
# 1 41.8167 29.1085 30.0426 0.0000 0.0000 0.0000
# 2 29.1085 132.9884 59.6042 0.0000 0.0000 0.0000
# 3 30.0426 59.6042 125.7587 -0.0002 0.0000 0.0000
# 4 0.0000 0.0000 -0.0002 23.0882 0.0000 0.0000
# 5 0.0000 0.0000 0.0000 0.0000 14.9395 0.0000
# 6 0.0000 0.0000 0.0000 0.0000 0.0000 17.9078
#
#
#
# Elastic Compliance Matrix: (Units=1/GPa)
#
#
# Indices 1 2 3 4 5 6 
#
# 1 0.030742 -0.004364 -0.005275 0.000000 0.000000 0.000000
# 2 -0.004364 0.010167 -0.003776 0.000000 0.000000 0.000000
# 3 -0.005275 -0.003776 0.011002 0.000000 0.000000 0.000000
# 4 0.000000 0.000000 0.000000 0.043312 0.000000 0.000000
# 5 0.000000 0.000000 0.000000 0.000000 0.066937 0.000000
# 6 0.000000 0.000000 0.000000 0.000000 0.000000 0.055842
#
#
# Mechanical properties :
#
#
# Convention : Reuss Voigt Hill
#
# Bulk Modulus (GPa) = 39.87420 59.78604 49.83012
# Shear Modulus (GPa) = 19.74776 23.30765 21.52770
#
# Velocity S-wave (km/s) = 3.26856 3.55097 3.41269
# Velocity P-wave (km/s) = 5.98469 7.01118 6.51817
#
# Compressibility (1/GPa) = 0.02507888
#
# Stress axis : x y z
#
# Youngs Moduli (GPa) = 32.52871 98.35561 90.89467
#
# Poissons Ratio (x) = 0.42926 0.47951
# Poissons Ratio (y) = 0.14197 0.34324
# Poissons Ratio (z) = 0.17160 0.37141
#
# Static dielectric constant tensor:
#      x y z
#    x 3.197070 0.000000 0.000000 
#    y 0.000000 3.512430 0.000000 
#    z 0.000000 0.000000 3.725960 
# 
# 
# High freq. dielectric constant tensor:
#      x y z
#    x 1.690000 0.000000 0.000000 
#    y 0.000000 1.713270 0.000000 
#    z 0.000000 0.000000 1.724340 
# 
# From -- ./inp_files/50889.got.cif
#   From: 2010.06.25/outbox.cif.g09.slc.cpg/sg71_26_cif.got.tgz:50889.got - 2010.06.28 04:59:45.
