data_PCOD8289071
_publ_section_title
;
Structure prediction by ZEFSAII (Michael W. Deem and Ramdas Pophale) SiO2 
 PCOD8289071
Probable space group: I M M M
;
_chemical_formula_sum "Si O2"
_cell_formula_units_Z 90
_cell_length_a 22.158770
_cell_length_b 11.374833
_cell_length_c 20.867923
_cell_angle_alpha 90.000000
_cell_angle_beta 90.000000
_cell_angle_gamma 90.000000
_cell_volume 5259.808160
_symmetry_space_group_name_H-M "I M M M"
_symmetry_group_IT_number 71
_symmetry_cell_setting 'orthorhombic'
loop_
_space_group_symop_operation_xyz
x,y,z
-x,-y,z
x,-y,-z
-x,y,-z
-x,-y,-z
x,y,-z
-x,y,z
x,-y,z
1/2+x,1/2+y,1/2+z
1/2-x,1/2-y,1/2+z
1/2+x,1/2-y,1/2-z
1/2-x,1/2+y,1/2-z
1/2-x,1/2-y,1/2-z
1/2+x,1/2+y,1/2-z
1/2-x,1/2+y,1/2+z
1/2+x,1/2-y,1/2+z
loop_
_atom_site_type_symbol
_atom_site_label
_atom_site_fract_x
_atom_site_fract_y
_atom_site_fract_z
Si Si1 0.724839 0.292669 0.153630
Si Si2 0.000000 0.640168 0.428090
Si Si3 0.614064 0.133090 0.852758
Si Si4 0.274804 0.000000 0.575793
Si Si5 0.430996 0.201581 0.282085
Si Si6 0.176452 0.865802 0.788491
Si Si7 0.000000 0.500000 0.000000
Si Si8 0.588717 0.000000 0.381743
O O1 0.671962 0.208660 0.129218
O O2 0.738524 0.385153 0.098098
O O3 0.783994 0.214095 0.164564
O O4 0.704436 0.360478 0.217538
O O5 0.941048 0.688934 0.392518
O O6 0.000000 0.500000 0.424543
O O7 0.000000 0.688237 0.500000
O O8 0.598146 0.133085 0.777686
O O9 0.627653 0.000000 0.873755
O O10 0.279660 0.000000 0.500000
O O11 0.339986 0.000000 0.608029
O O12 0.500000 0.238348 0.268239
O O13 0.392388 0.320089 0.292628
O O14 0.428980 0.117035 0.343143
O O15 0.177362 0.000000 0.812255
O O16 0.053259 0.500000 0.052234
#
# Coordination Sequence:
#
# PCOD8289071 Si02
#       8
#    16   8  16   8  16  16   2   8
#     4  10  21  35  54  83 112 147 188 230 283 341
#     4   9  18  31  49  75 108 139 182 230 272 331
#     4  10  19  32  55  84 112 148 185 231 292 333
#     4  12  24  40  58  83 118 156 193 228 279 348
#     4  11  20  32  56  84 116 144 184 242 289 346
#     4  10  20  34  56  82 116 143 182 238 295 337
#     4  12  24  36  60  88 118 152 190 250 276 350
#     4  12  22  36  56  90 113 143 190 243 294 332
#
# _framework density 17.110889
#
# number of rings (size 3 to 8) (size 9 to 14) (size 15 to 20)
#    0.000    1.511    5.778    0.533    0.000    1.067 
#    0.000    0.000    0.000    2.133    0.000    1.867 
#    0.000    0.000    0.000    0.000    0.000    0.000 
#
# Total GULP energy -557586.002362 kJ/mol
# GULP energy per Si atom -12390.800052 kJ/mol
# Density = 1.707194 g / cm^3
# Si number density = 17.110889 Si / 1000 Ang^3
#
#
#
# Elastic Constant Matrix: (Units=GPa)
#
#
# Indices 1 2 3 4 5 6 
#
# 1 129.0264 44.9505 15.9552 0.0000 0.0000 0.0000
# 2 44.9505 95.8720 18.7028 0.0000 0.0000 0.0000
# 3 15.9552 18.7028 68.2728 0.0000 0.0000 0.0000
# 4 0.0000 0.0000 0.0000 14.2116 0.0000 0.0000
# 5 0.0000 0.0000 0.0000 0.0000 23.3519 0.0000
# 6 0.0000 0.0000 0.0000 0.0000 0.0000 21.4963
#
#
#
# Elastic Compliance Matrix: (Units=1/GPa)
#
#
# Indices 1 2 3 4 5 6 
#
# 1 0.009333 -0.004173 -0.001038 0.000000 0.000000 0.000000
# 2 -0.004173 0.012886 -0.002555 0.000000 0.000000 0.000000
# 3 -0.001038 -0.002555 0.015589 0.000000 0.000000 0.000000
# 4 0.000000 0.000000 0.000000 0.070365 0.000000 0.000000
# 5 0.000000 0.000000 0.000000 0.000000 0.042823 0.000000
# 6 0.000000 0.000000 0.000000 0.000000 0.000000 0.046520
#
#
# Mechanical properties :
#
#
# Convention : Reuss Voigt Hill
#
# Bulk Modulus (GPa) = 44.89063 50.26535 47.57799
# Shear Modulus (GPa) = 22.67863 26.04948 24.36406
#
# Velocity S-wave (km/s) = 3.64454 3.90602 3.77754
# Velocity P-wave (km/s) = 6.63342 7.05568 6.84781
#
# Compressibility (1/GPa) = 0.02227637
#
# Stress axis : x y z
#
# Youngs Moduli (GPa) = 107.15181 77.60615 64.14582
#
# Poissons Ratio (x) = 0.32387 0.06657
# Poissons Ratio (y) = 0.44717 0.16387
# Poissons Ratio (z) = 0.11120 0.19826
#
# Static dielectric constant tensor:
#      x y z
#    x 3.436480 0.000000 0.000000 
#    y 0.000000 2.980140 0.000000 
#    z 0.000000 0.000000 3.055760 
# 
# 
# High freq. dielectric constant tensor:
#      x y z
#    x 1.681610 0.000000 0.000000 
#    y 0.000000 1.639010 0.000000 
#    z 0.000000 0.000000 1.644360 
# 
# From -- ./inp_files/25720.got.cif
#   From: 2010.06.25/outbox.cif.g09.slc.cpg/sg71_13_cif.got.tgz:25720.got - 2010.06.28 04:59:45.
