data_PCOD8289401
_publ_section_title
;
Structure prediction by ZEFSAII (Michael W. Deem and Ramdas Pophale) SiO2 
 PCOD8289401
Probable space group: I M M M
;
_chemical_formula_sum "Si O2"
_cell_formula_units_Z 64
_cell_length_a 8.901612
_cell_length_b 35.354039
_cell_length_c 11.057919
_cell_angle_alpha 90.000000
_cell_angle_beta 90.000000
_cell_angle_gamma 90.000000
_cell_volume 3480.014885
_symmetry_space_group_name_H-M "I M M M"
_symmetry_group_IT_number 71
_symmetry_cell_setting 'orthorhombic'
loop_
_space_group_symop_operation_xyz
x,y,z
-x,-y,z
x,-y,-z
-x,y,-z
-x,-y,-z
x,y,-z
-x,y,z
x,-y,z
1/2+x,1/2+y,1/2+z
1/2-x,1/2-y,1/2+z
1/2+x,1/2-y,1/2-z
1/2-x,1/2+y,1/2-z
1/2-x,1/2-y,1/2-z
1/2+x,1/2+y,1/2-z
1/2-x,1/2+y,1/2+z
1/2+x,1/2-y,1/2+z
loop_
_atom_site_type_symbol
_atom_site_label
_atom_site_fract_x
_atom_site_fract_y
_atom_site_fract_z
Si Si1 0.677861 0.928926 0.252298
Si Si2 0.163833 0.000000 0.639794
Si Si3 0.322752 0.273210 0.139398
Si Si4 0.169394 0.648630 0.139232
Si Si5 0.677734 0.042178 0.000000
O O1 0.500000 0.930981 0.268121
O O2 0.745310 0.962388 0.330484
O O3 0.736269 0.887681 0.291462
O O4 0.732545 0.934525 0.115318
O O5 0.136287 0.000000 0.500000
O O6 0.000000 0.000000 0.704783
O O7 0.500000 0.268449 0.149268
O O8 0.250000 0.250000 0.250000
O O9 0.278414 0.316404 0.164258
O O10 0.271362 0.261725 0.000000
O O11 0.000000 0.658774 0.183359
O O12 0.166623 0.637377 0.000000
O O13 0.500000 0.038085 0.000000
O O14 0.748569 0.000000 0.000000
#
# Coordination Sequence:
#
# PCOD8289401 Si02
#       5
#    16   8  16  16   8
#     4  10  19  34  55  76 102 139 182 221 263 320
#     4  11  23  34  47  72 104 135 172 225 278 319
#     4  10  21  38  61  87 116 151 187 226 277 335
#     4   9  18  33  54  80 109 141 179 225 273 322
#     4   9  16  30  52  76 102 136 178 222 264 306
#
# _framework density 18.390726999999998
#
# number of rings (size 3 to 8) (size 9 to 14) (size 15 to 20)
#    0.000    2.250    1.250    1.875    0.000    4.500 
#    2.250    3.750    0.000    0.000    0.000    0.000 
#    0.000    0.000    0.000    0.000    0.000    0.000 
#
# Total GULP energy -396596.383171 kJ/mol
# GULP energy per Si atom -12393.636974 kJ/mol
# Density = 1.834887 g / cm^3
# Si number density = 18.390727 Si / 1000 Ang^3
#
#
#
# Elastic Constant Matrix: (Units=GPa)
#
#
# Indices 1 2 3 4 5 6 
#
# 1 53.1480 40.1629 36.8930 -0.0004 -0.0001 -0.0041
# 2 40.1629 137.2621 81.5351 -0.0025 -0.0002 -0.0125
# 3 36.8930 81.5351 123.3199 -0.0020 -0.0002 -0.0334
# 4 -0.0004 -0.0025 -0.0020 35.0305 -0.0001 -0.0239
# 5 -0.0001 -0.0002 -0.0002 -0.0001 17.1100 0.0090
# 6 -0.0041 -0.0125 -0.0334 -0.0239 0.0090 -308.1485
#
#
#
# Elastic Compliance Matrix: (Units=1/GPa)
#
#
# Indices 1 2 3 4 5 6 
#
# 1 0.025558 -0.004835 -0.004449 0.000000 0.000000 0.000000
# 2 -0.004835 0.012912 -0.007090 0.000000 0.000000 0.000000
# 3 -0.004449 -0.007090 0.014128 0.000000 0.000000 -0.000001
# 4 0.000000 0.000000 0.000000 0.028547 0.000000 -0.000002
# 5 0.000000 0.000000 0.000000 0.000000 0.058445 0.000002
# 6 0.000000 0.000000 -0.000001 -0.000002 0.000002 -0.003245
#
#
# Mechanical properties :
#
#
# Convention : Reuss Voigt Hill
#
# Bulk Modulus (GPa) = 50.38290 70.10136 60.24213
# Shear Modulus (GPa) = 28.45604 -40.85900 -6.20148
#
# Velocity S-wave (km/s) = 3.93785 -4.71862 -1.83831
# Velocity P-wave (km/s) = 6.93764 2.91776 5.32185
#
# Compressibility (1/GPa) = 0.01984800
#
# Stress axis : x y z
#
# Youngs Moduli (GPa) = 39.12718 77.44776 70.78213
#
# Poissons Ratio (x) = 0.37450 0.31490
# Poissons Ratio (y) = 0.18920 0.50187
# Poissons Ratio (z) = 0.17407 0.54913
#
# Static dielectric constant tensor:
#      x y z
#    x 3.282980 0.000000 0.000000 
#    y 0.000000 3.383310 0.000000 
#    z 0.000000 0.000000 4.247820 
# 
# 
# High freq. dielectric constant tensor:
#      x y z
#    x 1.697860 0.000000 0.000000 
#    y 0.000000 1.712880 0.000000 
#    z 0.000000 0.000000 1.718080 
# 
# From -- ./inp_files/3806.got.cif
#   From: 2010.06.25/outbox.cif.g09.slc.cpg/sg71_2_cif.got.tgz:3806.got - 2010.06.28 04:59:45.
