data_PCOD8289750
_publ_section_title
;
Structure prediction by ZEFSAII (Michael W. Deem and Ramdas Pophale) SiO2 
 PCOD8289750
Probable space group: I M M M
;
_chemical_formula_sum "Si O2"
_cell_formula_units_Z 88
_cell_length_a 9.271111
_cell_length_b 27.651199
_cell_length_c 19.257264
_cell_angle_alpha 90.000000
_cell_angle_beta 90.000000
_cell_angle_gamma 90.000000
_cell_volume 4936.740883
_symmetry_space_group_name_H-M "I M M M"
_symmetry_group_IT_number 71
_symmetry_cell_setting 'orthorhombic'
loop_
_space_group_symop_operation_xyz
x,y,z
-x,-y,z
x,-y,-z
-x,y,-z
-x,-y,-z
x,y,-z
-x,y,z
x,-y,z
1/2+x,1/2+y,1/2+z
1/2-x,1/2-y,1/2+z
1/2+x,1/2-y,1/2-z
1/2-x,1/2+y,1/2-z
1/2-x,1/2-y,1/2-z
1/2+x,1/2+y,1/2-z
1/2-x,1/2+y,1/2+z
1/2+x,1/2-y,1/2+z
loop_
_atom_site_type_symbol
_atom_site_label
_atom_site_fract_x
_atom_site_fract_y
_atom_site_fract_z
Si Si1 0.661405 0.943116 0.500000
Si Si2 0.837249 0.917628 0.366099
Si Si3 0.166582 0.552921 0.264235
Si Si4 0.837424 0.809902 0.683839
Si Si5 0.332251 0.844505 0.813082
Si Si6 0.169940 0.269577 0.577521
O O1 0.500000 0.921144 0.500000
O O2 0.746357 0.924961 0.434150
O O3 0.653582 0.000000 0.500000
O O4 0.763261 0.946915 0.304134
O O5 0.837375 0.861086 0.352972
O O6 0.000000 0.937241 0.375339
O O7 0.189962 0.500000 0.300787
O O8 0.212273 0.598369 0.313221
O O9 0.000000 0.558791 0.242049
O O10 0.745932 0.812655 0.754302
O O11 0.768637 0.771954 0.628835
O O12 0.000000 0.794105 0.703854
O O13 0.500000 0.838867 0.796908
O O14 0.293726 0.821937 0.888245
O O15 0.239541 0.267035 0.500000
O O16 0.000000 0.262103 0.570381
#
# Coordination Sequence:
#
# PCOD8289750 Si02
#       6
#     8  16  16  16  16  16
#     4  11  23  35  45  59  87 127 161 191 234 279
#     4  10  20  31  46  68  91 116 154 198 233 273
#     4   9  17  30  47  66  91 121 152 189 235 280
#     4   9  18  31  49  70  93 123 153 189 235 279
#     4   9  17  30  49  71  93 121 158 195 227 272
#     4   9  17  29  48  71  95 124 156 189 230 283
#
# _framework density 17.825526
#
# number of rings (size 3 to 8) (size 9 to 14) (size 15 to 20)
#    0.000    2.636    0.000    1.909    1.273    4.000 
#    0.000    0.000    0.000    2.182    0.000    3.818 
#    0.000    0.000    0.000    9.091    0.000    9.455 
#
# Total GULP energy -545300.093281 kJ/mol
# GULP energy per Si atom -12393.183938 kJ/mol
# Density = 1.778495 g / cm^3
# Si number density = 17.825526 Si / 1000 Ang^3
#
#
#
# Elastic Constant Matrix: (Units=GPa)
#
#
# Indices 1 2 3 4 5 6 
#
# 1 56.4513 11.2876 24.1006 0.0001 0.0000 0.0000
# 2 11.2876 99.3166 51.0226 0.0001 0.0000 0.0000
# 3 24.1006 51.0226 94.1827 0.0003 0.0000 0.0000
# 4 0.0001 0.0001 0.0003 -4.7485 0.0000 0.0000
# 5 0.0000 0.0000 0.0000 0.0000 20.6180 0.0000
# 6 0.0000 0.0000 0.0000 0.0000 0.0000 16.1128
#
#
#
# Elastic Compliance Matrix: (Units=1/GPa)
#
#
# Indices 1 2 3 4 5 6 
#
# 1 0.019904 0.000491 -0.005359 0.000000 0.000000 0.000000
# 2 0.000491 0.013964 -0.007690 0.000000 0.000000 0.000000
# 3 -0.005359 -0.007690 0.016155 0.000001 0.000000 0.000000
# 4 0.000000 0.000000 0.000001 -0.210592 0.000000 0.000000
# 5 0.000000 0.000000 0.000000 0.000000 0.048501 0.000000
# 6 0.000000 0.000000 0.000000 0.000000 0.000000 0.062062
#
#
# Mechanical properties :
#
#
# Convention : Reuss Voigt Hill
#
# Bulk Modulus (GPa) = 40.15096 46.97467 43.56281
# Shear Modulus (GPa) = -301.46236 17.29912 -142.08162
#
# Velocity S-wave (km/s) = -13.01866 3.11861 -8.93755
# Velocity P-wave (km/s) = 14.26209 6.27514 9.05621
#
# Compressibility (1/GPa) = 0.02490600
#
# Stress axis : x y z
#
# Youngs Moduli (GPa) = 50.24048 71.61336 61.89904
#
# Poissons Ratio (x) = -0.03517 0.33174
# Poissons Ratio (y) = -0.02468 0.47603
# Poissons Ratio (z) = 0.26926 0.55074
#
# Static dielectric constant tensor:
#      x y z
#    x 3.367370 0.000000 0.000000 
#    y 0.000000 3.609090 0.000000 
#    z 0.000000 0.000000 3.555920 
# 
# 
# High freq. dielectric constant tensor:
#      x y z
#    x 1.673520 0.000000 0.000000 
#    y 0.000000 1.703920 0.000000 
#    z 0.000000 0.000000 1.662820 
# 
# From -- ./inp_files/8758.got.cif
#   From: 2010.06.25/outbox.cif.g09.slc.cpg/sg71_5_cif.got.tgz:8758.got - 2010.06.28 04:59:45.
