data_PCOD8289229
_publ_section_title
;
Structure prediction by ZEFSAII (Michael W. Deem and Ramdas Pophale) SiO2 
 PCOD8289229
Probable space group: I M M M
;
_chemical_formula_sum "Si O2"
_cell_formula_units_Z 96
_cell_length_a 13.418885
_cell_length_b 20.874418
_cell_length_c 19.408005
_cell_angle_alpha 90.000000
_cell_angle_beta 90.000000
_cell_angle_gamma 90.000000
_cell_volume 5436.403735
_symmetry_space_group_name_H-M "I M M M"
_symmetry_group_IT_number 71
_symmetry_cell_setting 'orthorhombic'
loop_
_space_group_symop_operation_xyz
x,y,z
-x,-y,z
x,-y,-z
-x,y,-z
-x,-y,-z
x,y,-z
-x,y,z
x,-y,z
1/2+x,1/2+y,1/2+z
1/2-x,1/2-y,1/2+z
1/2+x,1/2-y,1/2-z
1/2-x,1/2+y,1/2-z
1/2-x,1/2-y,1/2-z
1/2+x,1/2+y,1/2-z
1/2-x,1/2+y,1/2+z
1/2+x,1/2-y,1/2+z
loop_
_atom_site_type_symbol
_atom_site_label
_atom_site_fract_x
_atom_site_fract_y
_atom_site_fract_z
Si Si1 0.881281 0.500000 0.424163
Si Si2 0.780361 0.259471 0.645030
Si Si3 0.000000 0.928794 0.579844
Si Si4 0.708614 0.630689 0.078796
Si Si5 0.381741 0.316862 0.266992
Si Si6 0.883268 0.617027 0.663409
Si Si7 0.248677 0.924133 0.281889
O O1 0.834563 0.500000 0.500000
O O2 0.840466 0.438692 0.384469
O O3 0.000000 0.500000 0.427285
O O4 0.771592 0.207119 0.584005
O O5 0.671758 0.288712 0.664354
O O6 0.839159 0.226681 0.706892
O O7 0.850675 0.318499 0.624129
O O8 0.095258 0.886588 0.599854
O O9 0.000000 0.942308 0.500000
O O10 0.000000 0.000000 0.615941
O O11 0.771217 0.592517 0.137207
O O12 0.734225 0.609057 0.000000
O O13 0.500000 0.311617 0.275976
O O14 0.351193 0.390354 0.248815
O O15 0.839490 0.608071 0.740107
O O16 0.000000 0.614281 0.671955
O O17 0.241095 0.000000 0.271637
#
# Coordination Sequence:
#
# PCOD8289229 Si02
#       7
#     8  16   8  16  16  16  16
#     4   9  18  32  50  76 104 132 165 208 268 334
#     4   9  19  31  50  75  98 132 174 213 265 324
#     4   9  18  32  48  68 102 147 179 207 265 315
#     4  10  21  34  48  73 108 142 181 221 260 317
#     4   9  18  33  50  73 102 130 168 223 272 312
#     4  10  19  33  54  77 107 139 174 220 269 321
#     4  10  20  32  51  78 105 142 186 219 262 323
#
# _framework density 17.658733000000002
#
# number of rings (size 3 to 8) (size 9 to 14) (size 15 to 20)
#    0.000    2.500    0.833    2.000    5.833    2.000 
#    0.000    0.000    0.000    2.000    0.000    1.167 
#    0.000    3.333    0.000    0.000    0.000    0.000 
#
# Total GULP energy -594725.055136 kJ/mol
# GULP energy per Si atom -12390.105315 kJ/mol
# Density = 1.761854 g / cm^3
# Si number density = 17.658733 Si / 1000 Ang^3
#
#
#
# Elastic Constant Matrix: (Units=GPa)
#
#
# Indices 1 2 3 4 5 6 
#
# 1 82.4692 25.4763 23.8888 0.0000 0.0000 0.0000
# 2 25.4763 118.1872 10.2463 0.0000 0.0000 0.0000
# 3 23.8888 10.2463 70.2738 0.0000 0.0000 0.0000
# 4 0.0000 0.0000 0.0000 24.7382 0.0000 0.0000
# 5 0.0000 0.0000 0.0000 0.0000 17.0271 0.0000
# 6 0.0000 0.0000 0.0000 0.0000 0.0000 18.4508
#
#
#
# Elastic Compliance Matrix: (Units=1/GPa)
#
#
# Indices 1 2 3 4 5 6 
#
# 1 0.014244 -0.002685 -0.004451 0.000000 0.000000 0.000000
# 2 -0.002685 0.009075 -0.000411 0.000000 0.000000 0.000000
# 3 -0.004451 -0.000411 0.015803 0.000000 0.000000 0.000000
# 4 0.000000 0.000000 0.000000 0.040423 0.000000 0.000000
# 5 0.000000 0.000000 0.000000 0.000000 0.058730 0.000000
# 6 0.000000 0.000000 0.000000 0.000000 0.000000 0.054198
#
#
# Mechanical properties :
#
#
# Convention : Reuss Voigt Hill
#
# Bulk Modulus (GPa) = 41.61357 43.35033 42.48195
# Shear Modulus (GPa) = 23.19364 26.13115 24.66239
#
# Velocity S-wave (km/s) = 3.62807 3.85097 3.74118
# Velocity P-wave (km/s) = 6.41616 6.66150 6.53998
#
# Compressibility (1/GPa) = 0.02403062
#
# Stress axis : x y z
#
# Youngs Moduli (GPa) = 70.20343 110.18744 63.27943
#
# Poissons Ratio (x) = 0.29581 0.28164
# Poissons Ratio (y) = 0.18847 0.02598
# Poissons Ratio (z) = 0.31246 0.04525
#
# Static dielectric constant tensor:
#      x y z
#    x 3.131010 0.000000 0.000000 
#    y 0.000000 3.723910 0.000000 
#    z 0.000000 0.000000 3.241320 
# 
# 
# High freq. dielectric constant tensor:
#      x y z
#    x 1.651230 0.000000 0.000000 
#    y 0.000000 1.703640 0.000000 
#    z 0.000000 0.000000 1.662990 
# 
# From -- ./inp_files/52149.got.cif
#   From: 2010.06.25/outbox.cif.g09.slc.cpg/sg71_27_cif.got.tgz:52149.got - 2010.06.28 04:59:45.
