data_PCOD8289262
_publ_section_title
;
Structure prediction by ZEFSAII (Michael W. Deem and Ramdas Pophale) SiO2 
 PCOD8289262
Probable space group: I M M M
;
_chemical_formula_sum "Si O2"
_cell_formula_units_Z 104
_cell_length_a 9.618198
_cell_length_b 26.498509
_cell_length_c 22.654187
_cell_angle_alpha 90.000000
_cell_angle_beta 90.000000
_cell_angle_gamma 90.000000
_cell_volume 5773.825209
_symmetry_space_group_name_H-M "I M M M"
_symmetry_group_IT_number 71
_symmetry_cell_setting 'orthorhombic'
loop_
_space_group_symop_operation_xyz
x,y,z
-x,-y,z
x,-y,-z
-x,y,-z
-x,-y,-z
x,y,-z
-x,y,z
x,-y,z
1/2+x,1/2+y,1/2+z
1/2-x,1/2-y,1/2+z
1/2+x,1/2-y,1/2-z
1/2-x,1/2+y,1/2-z
1/2-x,1/2-y,1/2-z
1/2+x,1/2+y,1/2-z
1/2-x,1/2+y,1/2+z
1/2+x,1/2-y,1/2+z
loop_
_atom_site_type_symbol
_atom_site_label
_atom_site_fract_x
_atom_site_fract_y
_atom_site_fract_z
Si Si1 0.344926 0.082605 0.127412
Si Si2 0.159516 0.000000 0.069597
Si Si3 0.345148 0.371456 0.165730
Si Si4 0.335303 0.703235 0.934484
Si Si5 0.843577 0.693372 0.375347
Si Si6 0.160284 0.441559 0.239755
Si Si7 0.846339 0.794161 0.770738
O O1 0.500000 0.058684 0.121507
O O2 0.346668 0.137721 0.095414
O O3 0.307902 0.085057 0.197434
O O4 0.232151 0.049696 0.094143
O O5 0.000000 0.000000 0.090500
O O6 0.172549 0.000000 0.000000
O O7 0.500000 0.391955 0.149499
O O8 0.279069 0.339588 0.110720
O O9 0.247019 0.417358 0.185558
O O10 0.359538 0.334304 0.219878
O O11 0.500000 0.699863 0.934869
O O12 0.292789 0.760598 0.916644
O O13 0.274759 0.692748 0.000000
O O14 0.728690 0.682531 0.326536
O O15 0.000000 0.706039 0.350825
O O16 0.202571 0.500000 0.245001
O O17 0.000000 0.434772 0.222458
O O18 0.750000 0.750000 0.750000
O O19 0.000000 0.774362 0.787941
#
# Coordination Sequence:
#
# PCOD8289262 Si02
#       7
#    16   8  16  16  16  16  16
#     4  10  20  35  57  82 108 139 182 231 274 324
#     4  11  25  41  55  73 105 151 194 231 272 315
#     4  10  20  33  53  81 107 139 181 221 269 325
#     4   9  18  34  54  77 109 145 180 218 261 316
#     4  10  19  33  54  82 110 138 175 220 271 322
#     4  10  20  35  55  81 111 139 170 220 285 335
#     4  11  20  30  48  77 110 142 176 215 262 315
#
# _framework density 18.012321
#
# number of rings (size 3 to 8) (size 9 to 14) (size 15 to 20)
#    0.000    1.923    3.846    0.692    0.000    3.385 
#    0.000    1.538    0.000    2.308    0.000    3.231 
#    0.000    0.000    0.000    0.000    0.000    0.000 
#
# Total GULP energy -644332.108067 kJ/mol
# GULP energy per Si atom -12391.002078 kJ/mol
# Density = 1.797132 g / cm^3
# Si number density = 18.012321 Si / 1000 Ang^3
#
#
#
# Elastic Constant Matrix: (Units=GPa)
#
#
# Indices 1 2 3 4 5 6 
#
# 1 95.4655 37.3700 38.6267 0.0000 0.0000 0.0000
# 2 37.3700 89.4119 31.4287 0.0000 0.0000 0.0000
# 3 38.6267 31.4287 90.7953 0.0000 0.0000 0.0000
# 4 0.0000 0.0000 0.0000 14.5835 0.0000 0.0000
# 5 0.0000 0.0000 0.0000 0.0000 19.8780 0.0000
# 6 0.0000 0.0000 0.0000 0.0000 0.0000 26.8529
#
#
#
# Elastic Compliance Matrix: (Units=1/GPa)
#
#
# Indices 1 2 3 4 5 6 
#
# 1 0.013947 -0.004262 -0.004458 0.000000 0.000000 0.000000
# 2 -0.004262 0.014036 -0.003045 0.000000 0.000000 0.000000
# 3 -0.004458 -0.003045 0.013965 0.000000 0.000000 0.000000
# 4 0.000000 0.000000 0.000000 0.068571 0.000000 0.000000
# 5 0.000000 0.000000 0.000000 0.000000 0.050307 0.000000
# 6 0.000000 0.000000 0.000000 0.000000 0.000000 0.037240
#
#
# Mechanical properties :
#
#
# Convention : Reuss Voigt Hill
#
# Bulk Modulus (GPa) = 54.29929 54.50262 54.40095
# Shear Modulus (GPa) = 21.95529 23.47937 22.71733
#
# Velocity S-wave (km/s) = 3.49507 3.61434 3.55521
# Velocity P-wave (km/s) = 6.81897 6.90957 6.86442
#
# Compressibility (1/GPa) = 0.01841645
#
# Stress axis : x y z
#
# Youngs Moduli (GPa) = 71.69854 71.24517 71.60998
#
# Poissons Ratio (x) = 0.30366 0.31925
# Poissons Ratio (y) = 0.30560 0.21807
# Poissons Ratio (z) = 0.31964 0.21696
#
# Static dielectric constant tensor:
#      x y z
#    x 2.170290 0.000000 0.000000 
#    y 0.000000 3.378880 0.000000 
#    z 0.000000 0.000000 3.695840 
# 
# 
# High freq. dielectric constant tensor:
#      x y z
#    x 1.686490 0.000000 0.000000 
#    y 0.000000 1.697360 0.000000 
#    z 0.000000 0.000000 1.671180 
# 
# From -- ./inp_files/13263.got.cif
#   From: 2010.06.25/outbox.cif.g09.slc.cpg/sg71_7_cif.got.tgz:13263.got - 2010.06.28 04:59:45.
