data_PCOD8289136
_publ_section_title
;
Structure prediction by ZEFSAII (Michael W. Deem and Ramdas Pophale) SiO2 
 PCOD8289136
Probable space group: I M M M
;
_chemical_formula_sum "Si O2"
_cell_formula_units_Z 56
_cell_length_a 19.136725
_cell_length_b 13.360818
_cell_length_c 12.966484
_cell_angle_alpha 90.000000
_cell_angle_beta 90.000000
_cell_angle_gamma 90.000000
_cell_volume 3315.300450
_symmetry_space_group_name_H-M "I M M M"
_symmetry_group_IT_number 71
_symmetry_cell_setting 'orthorhombic'
loop_
_space_group_symop_operation_xyz
x,y,z
-x,-y,z
x,-y,-z
-x,y,-z
-x,-y,-z
x,y,-z
-x,y,z
x,-y,z
1/2+x,1/2+y,1/2+z
1/2-x,1/2-y,1/2+z
1/2+x,1/2-y,1/2-z
1/2-x,1/2+y,1/2-z
1/2-x,1/2-y,1/2-z
1/2+x,1/2+y,1/2-z
1/2-x,1/2+y,1/2+z
1/2+x,1/2-y,1/2+z
loop_
_atom_site_type_symbol
_atom_site_label
_atom_site_fract_x
_atom_site_fract_y
_atom_site_fract_z
Si Si1 0.292580 0.500000 0.617490
Si Si2 0.862533 0.500000 0.687317
Si Si3 0.419398 0.207306 0.118477
Si Si4 0.804862 0.834960 0.723361
Si Si5 0.276858 0.000000 0.615816
O O1 0.318974 0.500000 0.500000
O O2 0.208468 0.500000 0.620996
O O3 0.321128 0.599181 0.674725
O O4 0.908239 0.596318 0.661591
O O5 0.843552 0.500000 0.808570
O O6 0.500000 0.236300 0.130123
O O7 0.376644 0.288179 0.183746
O O8 0.395038 0.211125 0.000000
O O9 0.750000 0.750000 0.750000
O O10 0.771157 0.903024 0.634401
O O11 0.305604 0.000000 0.500000
#
# Coordination Sequence:
#
# PCOD8289136 Si02
#       5
#     8   8  16  16   8
#     4  10  20  33  57  82 107 139 180 228 268 307
#     4  10  19  33  51  84 114 136 173 221 267 326
#     4  11  21  34  55  82 113 144 173 217 275 326
#     4  10  19  35  53  81 109 140 179 224 260 313
#     4  10  20  33  54  79 108 139 177 226 266 302
#
# _framework density 16.891380000000002
#
# number of rings (size 3 to 8) (size 9 to 14) (size 15 to 20)
#    0.000    2.000    5.714    2.571    0.000    2.286 
#    0.000    2.857    0.000   12.857    0.000    0.000 
#    0.000    0.000    0.000    0.000    0.000    0.000 
#
# Total GULP energy -347208.898394 kJ/mol
# GULP energy per Si atom -12400.317800 kJ/mol
# Density = 1.685293 g / cm^3
# Si number density = 16.891380 Si / 1000 Ang^3
#
#
#
# Elastic Constant Matrix: (Units=GPa)
#
#
# Indices 1 2 3 4 5 6 
#
# 1 78.7828 42.1044 44.7073 0.0000 0.0000 0.0000
# 2 42.1044 127.1209 58.5623 0.0000 0.0000 0.0000
# 3 44.7073 58.5623 153.5998 0.0000 0.0000 0.0000
# 4 0.0000 0.0000 0.0000 13.9701 0.0000 0.0000
# 5 0.0000 0.0000 0.0000 0.0000 24.2006 0.0000
# 6 0.0000 0.0000 0.0000 0.0000 0.0000 28.8199
#
#
#
# Elastic Compliance Matrix: (Units=1/GPa)
#
#
# Indices 1 2 3 4 5 6 
#
# 1 0.016729 -0.004000 -0.003344 0.000000 0.000000 0.000000
# 2 -0.004000 0.010499 -0.002839 0.000000 0.000000 0.000000
# 3 -0.003344 -0.002839 0.008566 0.000000 0.000000 0.000000
# 4 0.000000 0.000000 0.000000 0.071582 0.000000 0.000000
# 5 0.000000 0.000000 0.000000 0.000000 0.041321 0.000000
# 6 0.000000 0.000000 0.000000 0.000000 0.000000 0.034698
#
#
# Mechanical properties :
#
#
# Convention : Reuss Voigt Hill
#
# Bulk Modulus (GPa) = 64.81676 72.25015 68.53345
# Shear Modulus (GPa) = 23.93450 27.67340 25.80395
#
# Velocity S-wave (km/s) = 3.76834 4.05200 3.91274
# Velocity P-wave (km/s) = 7.57561 8.04723 7.81498
#
# Compressibility (1/GPa) = 0.01542811
#
# Stress axis : x y z
#
# Youngs Moduli (GPa) = 59.77774 95.24533 116.74065
#
# Poissons Ratio (x) = 0.38101 0.39037
# Poissons Ratio (y) = 0.23913 0.33138
# Poissons Ratio (z) = 0.19989 0.27037
#
# Static dielectric constant tensor:
#      x y z
#    x 2.913690 0.000000 0.000000 
#    y 0.000000 3.699840 0.000000 
#    z 0.000000 0.000000 3.174930 
# 
# 
# High freq. dielectric constant tensor:
#      x y z
#    x 1.625540 0.000000 0.000000 
#    y 0.000000 1.667880 0.000000 
#    z 0.000000 0.000000 1.649850 
# 
# From -- ./inp_files/35788.got.cif
#   From: 2010.06.25/outbox.cif.g09.slc.cpg/sg71_18_cif.got.tgz:35788.got - 2010.06.28 04:59:45.
