data_PCOD8289414
_publ_section_title
;
Structure prediction by ZEFSAII (Michael W. Deem and Ramdas Pophale) SiO2 
 PCOD8289414
Probable space group: I M M M
;
_chemical_formula_sum "Si O2"
_cell_formula_units_Z 104
_cell_length_a 14.601613
_cell_length_b 15.695521
_cell_length_c 25.347795
_cell_angle_alpha 90.000000
_cell_angle_beta 90.000000
_cell_angle_gamma 90.000000
_cell_volume 5809.205718
_symmetry_space_group_name_H-M "I M M M"
_symmetry_group_IT_number 71
_symmetry_cell_setting 'orthorhombic'
loop_
_space_group_symop_operation_xyz
x,y,z
-x,-y,z
x,-y,-z
-x,y,-z
-x,-y,-z
x,y,-z
-x,y,z
x,-y,z
1/2+x,1/2+y,1/2+z
1/2-x,1/2-y,1/2+z
1/2+x,1/2-y,1/2-z
1/2-x,1/2+y,1/2-z
1/2-x,1/2-y,1/2-z
1/2+x,1/2+y,1/2-z
1/2-x,1/2+y,1/2+z
1/2+x,1/2-y,1/2+z
loop_
_atom_site_type_symbol
_atom_site_label
_atom_site_fract_x
_atom_site_fract_y
_atom_site_fract_z
Si Si1 0.608319 0.094824 0.500000
Si Si2 0.603331 0.098909 0.938981
Si Si3 0.606011 0.186846 0.394022
Si Si4 0.677598 0.406748 0.732138
Si Si5 0.741331 0.814589 0.861112
Si Si6 0.139428 0.594771 0.788139
Si Si7 0.098627 0.249776 0.283926
O O1 0.500000 0.086981 0.500000
O O2 0.641156 0.144861 0.448167
O O3 0.651763 0.000000 0.500000
O O4 0.500000 0.121532 0.920162
O O5 0.677809 0.152574 0.907766
O O6 0.622418 0.000000 0.929143
O O7 0.614609 0.122146 0.000000
O O8 0.500000 0.216657 0.397949
O O9 0.669495 0.268542 0.383934
O O10 0.617390 0.117187 0.348361
O O11 0.629197 0.500000 0.730832
O O12 0.725828 0.392509 0.675478
O O13 0.751997 0.405588 0.778812
O O14 0.607951 0.329990 0.743870
O O15 0.681235 0.749530 0.825609
O O16 0.099520 0.500000 0.776528
O O17 0.093804 0.663560 0.749673
O O18 0.000000 0.240783 0.312544
#
# Coordination Sequence:
#
# PCOD8289414 Si02
#       7
#     8  16  16  16  16  16  16
#     4   9  20  36  52  76 104 133 172 220 276 329
#     4   9  19  36  58  84 110 138 177 223 274 328
#     4  11  21  34  54  78 109 142 178 221 266 320
#     4  10  20  35  52  74 107 146 183 220 263 317
#     4  11  20  35  53  82 111 142 177 225 272 318
#     4  10  19  34  55  78 106 140 177 222 274 320
#     4  11  21  35  52  78 112 143 180 224 268 323
#
# _framework density 17.902619000000001
#
# number of rings (size 3 to 8) (size 9 to 14) (size 15 to 20)
#    0.000    1.769    3.077    3.231    1.077    2.769 
#    0.000    0.000    0.000    1.385    0.000    1.077 
#    0.000    1.231    0.000    0.000    0.000    0.000 
#
# Total GULP energy -644594.002783 kJ/mol
# GULP energy per Si atom -12396.038515 kJ/mol
# Density = 1.786187 g / cm^3
# Si number density = 17.902619 Si / 1000 Ang^3
#
#
#
# Elastic Constant Matrix: (Units=GPa)
#
#
# Indices 1 2 3 4 5 6 
#
# 1 84.9450 53.0986 40.7450 0.0000 0.0000 0.0000
# 2 53.0986 125.3202 40.7406 0.0000 0.0000 0.0000
# 3 40.7450 40.7406 96.6793 0.0000 0.0000 0.0000
# 4 0.0000 0.0000 0.0000 24.3056 0.0000 0.0000
# 5 0.0000 0.0000 0.0000 0.0000 18.7191 0.0000
# 6 0.0000 0.0000 0.0000 0.0000 0.0000 11.5644
#
#
#
# Elastic Compliance Matrix: (Units=1/GPa)
#
#
# Indices 1 2 3 4 5 6 
#
# 1 0.017909 -0.005949 -0.005041 0.000000 0.000000 0.000000
# 2 -0.005949 0.011223 -0.002222 0.000000 0.000000 0.000000
# 3 -0.005041 -0.002222 0.013404 0.000000 0.000000 0.000000
# 4 0.000000 0.000000 0.000000 0.041143 0.000000 0.000000
# 5 0.000000 0.000000 0.000000 0.000000 0.053421 0.000000
# 6 0.000000 0.000000 0.000000 0.000000 0.000000 0.086472
#
#
# Mechanical properties :
#
#
# Convention : Reuss Voigt Hill
#
# Bulk Modulus (GPa) = 62.06547 64.01255 63.03901
# Shear Modulus (GPa) = 19.57969 22.40852 20.99410
#
# Velocity S-wave (km/s) = 3.31067 3.54176 3.42816
# Velocity P-wave (km/s) = 7.02550 7.24976 7.13851
#
# Compressibility (1/GPa) = 0.01611202
#
# Stress axis : x y z
#
# Youngs Moduli (GPa) = 55.83754 89.10530 74.60410
#
# Poissons Ratio (x) = 0.53013 0.37605
# Poissons Ratio (y) = 0.33220 0.16576
# Poissons Ratio (z) = 0.28145 0.19798
#
# Static dielectric constant tensor:
#      x y z
#    x 3.194500 0.000000 0.000000 
#    y 0.000000 3.344840 0.000000 
#    z 0.000000 0.000000 3.309530 
# 
# 
# High freq. dielectric constant tensor:
#      x y z
#    x 1.683580 0.000000 0.000000 
#    y 0.000000 1.690930 0.000000 
#    z 0.000000 0.000000 1.685260 
# 
# From -- ./inp_files/59911.got.cif
#   From: 2010.06.25/outbox.cif.g09.slc.cpg/sg71_30_cif.got.tgz:59911.got - 2010.06.28 04:59:45.
