data_PCOD8289685
_publ_section_title
;
Structure prediction by ZEFSAII (Michael W. Deem and Ramdas Pophale) SiO2 
 PCOD8289685
Probable space group: I M M M
;
_chemical_formula_sum "Si O2"
_cell_formula_units_Z 64
_cell_length_a 24.198161
_cell_length_b 18.316061
_cell_length_c 7.519579
_cell_angle_alpha 90.000000
_cell_angle_beta 90.000000
_cell_angle_gamma 90.000000
_cell_volume 3332.790154
_symmetry_space_group_name_H-M "I M M M"
_symmetry_group_IT_number 71
_symmetry_cell_setting 'orthorhombic'
loop_
_space_group_symop_operation_xyz
x,y,z
-x,-y,z
x,-y,-z
-x,y,-z
-x,-y,-z
x,y,-z
-x,y,z
x,-y,z
1/2+x,1/2+y,1/2+z
1/2-x,1/2-y,1/2+z
1/2+x,1/2-y,1/2-z
1/2-x,1/2+y,1/2-z
1/2-x,1/2-y,1/2-z
1/2+x,1/2+y,1/2-z
1/2-x,1/2+y,1/2+z
1/2+x,1/2-y,1/2+z
loop_
_atom_site_type_symbol
_atom_site_label
_atom_site_fract_x
_atom_site_fract_y
_atom_site_fract_z
Si Si1 0.000000 0.331534 0.303587
Si Si2 0.500000 0.659084 0.194925
Si Si3 0.689845 0.585459 0.500000
Si Si4 0.880542 0.838428 0.291650
Si Si5 0.681874 0.914475 0.000000
Si Si6 0.119662 0.670268 0.200314
O O1 0.055585 0.355711 0.202377
O O2 0.000000 0.367071 0.500000
O O3 0.000000 0.245379 0.321934
O O4 0.441571 0.636929 0.285607
O O5 0.500000 0.623574 0.000000
O O6 0.678419 0.500000 0.500000
O O7 0.664672 0.619058 0.679191
O O8 0.753870 0.605210 0.500000
O O9 0.874355 0.858278 0.500000
O O10 0.872928 0.752180 0.270467
O O11 0.655481 0.882316 0.822231
O O12 0.671334 0.000000 0.000000
O O13 0.142130 0.664067 0.000000
#
# Coordination Sequence:
#
# PCOD8289685 Si02
#       6
#     8   8   8  16   8  16
#     4   9  15  31  59  91 127 152 185 241 307 358
#     4   7  14  28  56  89 121 148 184 234 298 358
#     4  11  26  43  59  85 120 163 209 254 305 354
#     4  10  19  38  63  92 120 156 198 247 299 360
#     4  11  26  45  59  81 124 165 203 256 309 350
#     4  11  20  37  64  95 119 155 202 248 296 361
#
# _framework density 19.203128
#
# number of rings (size 3 to 8) (size 9 to 14) (size 15 to 20)
#    0.000    2.000    3.750    1.875    0.000    3.500 
#    0.000    5.000    0.000    3.750    0.000    0.000 
#    0.000    0.000    0.000    0.000    0.000    0.000 
#
# Total GULP energy -396561.223566 kJ/mol
# GULP energy per Si atom -12392.538236 kJ/mol
# Density = 1.915942 g / cm^3
# Si number density = 19.203128 Si / 1000 Ang^3
#
#
#
# Elastic Constant Matrix: (Units=GPa)
#
#
# Indices 1 2 3 4 5 6 
#
# 1 154.4024 73.9100 62.0503 0.0000 0.0000 0.0000
# 2 73.9100 64.8709 36.3103 0.0000 0.0000 0.0000
# 3 62.0503 36.3103 137.4078 0.0000 0.0000 0.0000
# 4 0.0000 0.0000 0.0000 20.7319 0.0000 0.0000
# 5 0.0000 0.0000 0.0000 0.0000 37.0805 0.0000
# 6 0.0000 0.0000 0.0000 0.0000 0.0000 -45.9449
#
#
#
# Elastic Compliance Matrix: (Units=1/GPa)
#
#
# Indices 1 2 3 4 5 6 
#
# 1 0.015028 -0.015637 -0.002654 0.000000 0.000000 0.000000
# 2 -0.015637 0.034361 -0.002019 0.000000 0.000000 0.000000
# 3 -0.002654 -0.002019 0.009010 0.000000 0.000000 0.000000
# 4 0.000000 0.000000 0.000000 0.048235 0.000000 0.000000
# 5 0.000000 0.000000 0.000000 0.000000 0.026968 0.000000
# 6 0.000000 0.000000 0.000000 0.000000 0.000000 -0.021765
#
#
# Mechanical properties :
#
#
# Convention : Reuss Voigt Hill
#
# Bulk Modulus (GPa) = 56.24579 77.91361 67.07970
# Shear Modulus (GPa) = 31.56911 14.66751 23.11831
#
# Velocity S-wave (km/s) = 4.05897 2.76671 3.47347
# Velocity P-wave (km/s) = 7.16383 7.13216 7.14801
#
# Compressibility (1/GPa) = 0.01777911
#
# Stress axis : x y z
#
# Youngs Moduli (GPa) = 66.54102 29.10314 110.99084
#
# Poissons Ratio (x) = 0.45507 0.29462
# Poissons Ratio (y) = 1.04047 0.22406
# Poissons Ratio (z) = 0.17663 0.05875
#
# Static dielectric constant tensor:
#      x y z
#    x 3.830730 0.000000 0.000000 
#    y 0.000000 3.139120 0.000000 
#    z 0.000000 0.000000 -30.032210 
# 
# 
# High freq. dielectric constant tensor:
#      x y z
#    x 1.756830 0.000000 0.000000 
#    y 0.000000 1.706400 0.000000 
#    z 0.000000 0.000000 1.753270 
# 
# From -- ./inp_files/9575.got.cif
#   From: 2010.06.25/outbox.cif.g09.slc.cpg/sg71_5_cif.got.tgz:9575.got - 2010.06.28 04:59:45.
