data_PCOD8289781
_publ_section_title
;
Structure prediction by ZEFSAII (Michael W. Deem and Ramdas Pophale) SiO2 
 PCOD8289781
Probable space group: I M M M
;
_chemical_formula_sum "Si O2"
_cell_formula_units_Z 96
_cell_length_a 32.058802
_cell_length_b 13.492709
_cell_length_c 13.510163
_cell_angle_alpha 90.000000
_cell_angle_beta 90.000000
_cell_angle_gamma 90.000000
_cell_volume 5843.957273
_symmetry_space_group_name_H-M "I M M M"
_symmetry_group_IT_number 71
_symmetry_cell_setting 'orthorhombic'
loop_
_space_group_symop_operation_xyz
x,y,z
-x,-y,z
x,-y,-z
-x,y,-z
-x,-y,-z
x,y,-z
-x,y,z
x,-y,z
1/2+x,1/2+y,1/2+z
1/2-x,1/2-y,1/2+z
1/2+x,1/2-y,1/2-z
1/2-x,1/2+y,1/2-z
1/2-x,1/2-y,1/2-z
1/2+x,1/2+y,1/2-z
1/2-x,1/2+y,1/2+z
1/2+x,1/2-y,1/2+z
loop_
_atom_site_type_symbol
_atom_site_label
_atom_site_fract_x
_atom_site_fract_y
_atom_site_fract_z
Si Si1 0.835869 0.883562 0.885666
Si Si2 0.125532 0.202663 0.291655
Si Si3 0.294334 0.610276 0.882388
Si Si4 0.047095 0.885664 0.614835
Si Si5 0.661049 0.112069 0.885486
Si Si6 0.248613 0.695750 0.616244
O O1 0.870373 0.821435 0.825284
O O2 0.790986 0.850614 0.838993
O O3 0.841529 0.000000 0.868703
O O4 0.840841 0.855198 0.000000
O O5 0.158543 0.133398 0.349149
O O6 0.078391 0.180154 0.321700
O O7 0.133696 0.317938 0.314988
O O8 0.281296 0.500000 0.846620
O O9 0.261449 0.693182 0.841158
O O10 0.294466 0.617017 0.000000
O O11 0.056153 0.867280 0.500000
O O12 0.000000 0.853203 0.641263
O O13 0.053885 0.000000 0.641893
O O14 0.709926 0.123951 0.860296
O O15 0.647383 0.000000 0.863977
O O16 0.653142 0.141305 0.000000
O O17 0.256251 0.701928 0.500000
#
# Coordination Sequence:
#
# PCOD8289781 Si02
#       6
#    16  16  16  16  16  16
#     4  10  20  32  45  61  85 120 160 197 227 256
#     4  11  19  29  46  66  88 116 152 188 222 264
#     4   9  16  25  40  65  93 116 142 182 230 274
#     4   9  17  29  47  72  98 119 138 166 215 282
#     4   9  17  29  46  68  93 120 149 182 223 272
#     4   8  15  28  42  57  83 121 157 186 221 265
#
# _framework density 16.427225
#
# number of rings (size 3 to 8) (size 9 to 14) (size 15 to 20)
#    0.000    2.667    0.000    5.000    0.000    6.000 
#    0.000    2.500    0.000    2.500    0.000    4.667 
#    0.000    0.000    0.000    1.500    0.000    0.333 
#
# Total GULP energy -595078.405006 kJ/mol
# GULP energy per Si atom -12397.466771 kJ/mol
# Density = 1.638984 g / cm^3
# Si number density = 16.427225 Si / 1000 Ang^3
#
#
#
# Elastic Constant Matrix: (Units=GPa)
#
#
# Indices 1 2 3 4 5 6 
#
# 1 88.1119 38.1600 33.9857 0.0000 0.0000 0.0000
# 2 38.1600 108.9221 39.9678 0.0000 0.0000 0.0000
# 3 33.9857 39.9678 52.1232 0.0000 0.0000 0.0000
# 4 0.0000 0.0000 0.0000 19.9193 0.0000 0.0000
# 5 0.0000 0.0000 0.0000 0.0000 21.1875 0.0000
# 6 0.0000 0.0000 0.0000 0.0000 0.0000 16.1924
#
#
#
# Elastic Compliance Matrix: (Units=1/GPa)
#
#
# Indices 1 2 3 4 5 6 
#
# 1 0.015605 -0.002412 -0.008325 0.000000 0.000000 0.000000
# 2 -0.002412 0.013148 -0.008509 0.000000 0.000000 0.000000
# 3 -0.008325 -0.008509 0.031138 0.000000 0.000000 0.000000
# 4 0.000000 0.000000 0.000000 0.050203 0.000000 0.000000
# 5 0.000000 0.000000 0.000000 0.000000 0.047198 0.000000
# 6 0.000000 0.000000 0.000000 0.000000 0.000000 0.061757
#
#
# Mechanical properties :
#
#
# Convention : Reuss Voigt Hill
#
# Bulk Modulus (GPa) = 46.73243 52.59826 49.66535
# Shear Modulus (GPa) = 18.89105 20.59609 19.74357
#
# Velocity S-wave (km/s) = 3.39482 3.54471 3.47058
# Velocity P-wave (km/s) = 6.62392 6.98869 6.80875
#
# Compressibility (1/GPa) = 0.02139841
#
# Stress axis : x y z
#
# Youngs Moduli (GPa) = 64.08184 76.05499 32.11464
#
# Poissons Ratio (x) = 0.18346 0.26736
# Poissons Ratio (y) = 0.15458 0.27327
# Poissons Ratio (z) = 0.53349 0.64717
#
# Static dielectric constant tensor:
#      x y z
#    x 2.847010 0.000000 0.000000 
#    y 0.000000 3.265980 0.000000 
#    z 0.000000 0.000000 3.044630 
# 
# 
# High freq. dielectric constant tensor:
#      x y z
#    x 1.593010 0.000000 0.000000 
#    y 0.000000 1.628970 0.000000 
#    z 0.000000 0.000000 1.628530 
# 
# From -- ./inp_files/41004.got.cif
#   From: 2010.06.25/outbox.cif.g09.slc.cpg/sg71_21_cif.got.tgz:41004.got - 2010.06.28 04:59:45.
