data_PCOD8289397
_publ_section_title
;
Structure prediction by ZEFSAII (Michael W. Deem and Ramdas Pophale) SiO2 
 PCOD8289397
Probable space group: I M M M
;
_chemical_formula_sum "Si O2"
_cell_formula_units_Z 104
_cell_length_a 23.066070
_cell_length_b 25.046971
_cell_length_c 8.974197
_cell_angle_alpha 90.000000
_cell_angle_beta 90.000000
_cell_angle_gamma 90.000000
_cell_volume 5184.709376
_symmetry_space_group_name_H-M "I M M M"
_symmetry_group_IT_number 71
_symmetry_cell_setting 'orthorhombic'
loop_
_space_group_symop_operation_xyz
x,y,z
-x,-y,z
x,-y,-z
-x,y,-z
-x,-y,-z
x,y,-z
-x,y,z
x,-y,z
1/2+x,1/2+y,1/2+z
1/2-x,1/2-y,1/2+z
1/2+x,1/2-y,1/2-z
1/2-x,1/2+y,1/2-z
1/2-x,1/2-y,1/2-z
1/2+x,1/2+y,1/2-z
1/2-x,1/2+y,1/2+z
1/2+x,1/2-y,1/2+z
loop_
_atom_site_type_symbol
_atom_site_label
_atom_site_fract_x
_atom_site_fract_y
_atom_site_fract_z
Si Si1 0.568453 0.000000 0.177123
Si Si2 0.147802 0.589066 0.177037
Si Si3 0.000000 0.756975 0.164258
Si Si4 0.601982 0.441322 0.176368
Si Si5 0.500000 0.367258 0.823135
Si Si6 0.201013 0.783604 0.675587
Si Si7 0.222809 0.902329 0.676739
Si Si8 0.619420 0.208974 0.669030
O O1 0.601035 0.947962 0.241111
O O2 0.500000 0.000000 0.223716
O O3 0.574160 0.000000 0.000000
O O4 0.214137 0.575541 0.229892
O O5 0.137027 0.650290 0.225504
O O6 0.140015 0.581233 0.000000
O O7 0.051293 0.715056 0.183327
O O8 0.000000 0.805551 0.279578
O O9 0.000000 0.783503 0.000000
O O10 0.578792 0.500000 0.220230
O O11 0.557499 0.397116 0.241158
O O12 0.668102 0.436275 0.237901
O O13 0.604510 0.434055 0.000000
O O14 0.500000 0.371183 0.000000
O O15 0.205334 0.781634 0.500000
O O16 0.250000 0.750000 0.750000
O O17 0.209332 0.843159 0.735899
O O18 0.141422 0.757279 0.727983
O O19 0.224878 0.902443 0.500000
O O20 0.642426 0.216401 0.500000
#
# Coordination Sequence:
#
# PCOD8289397 Si02
#       8
#     8  16   8  16   8  16  16  16
#     4  11  27  47  63  85 119 150 185 240 302 359
#     4  10  21  39  64  88 112 147 194 240 285 347
#     4  10  22  37  57  82 115 152 183 233 292 341
#     4   9  17  29  51  81 113 145 187 241 289 324
#     4  10  19  34  54  82 115 151 194 235 275 339
#     4  11  20  34  55  83 120 157 191 233 286 345
#     4   9  18  32  52  84 118 148 188 240 288 333
#     4  10  21  38  58  85 116 149 195 242 287 351
#
# _framework density 20.058983000000001
#
# number of rings (size 3 to 8) (size 9 to 14) (size 15 to 20)
#    0.000    2.077    1.538    1.846    2.154    4.000 
#    0.000    0.000    0.000    1.846    0.000    0.000 
#    0.000    0.000    0.000    0.000    0.000    0.000 
#
# Total GULP energy -644407.176363 kJ/mol
# GULP energy per Si atom -12392.445699 kJ/mol
# Density = 2.001333 g / cm^3
# Si number density = 20.058983 Si / 1000 Ang^3
#
#
#
# Elastic Constant Matrix: (Units=GPa)
#
#
# Indices 1 2 3 4 5 6 
#
# 1 151.9940 41.6207 23.6258 0.0000 0.0000 0.0000
# 2 41.6207 85.2954 17.6383 0.0000 0.0000 0.0000
# 3 23.6258 17.6383 36.9883 0.0000 0.0000 0.0000
# 4 0.0000 0.0000 0.0000 26.3443 0.0000 0.0000
# 5 0.0000 0.0000 0.0000 0.0000 24.0796 0.0000
# 6 0.0000 0.0000 0.0000 0.0000 0.0000 36.8797
#
#
#
# Elastic Compliance Matrix: (Units=1/GPa)
#
#
# Indices 1 2 3 4 5 6 
#
# 1 0.008005 -0.003161 -0.003606 0.000000 0.000000 0.000000
# 2 -0.003161 0.014254 -0.004779 0.000000 0.000000 0.000000
# 3 -0.003606 -0.004779 0.031618 0.000000 0.000000 0.000000
# 4 0.000000 0.000000 0.000000 0.037959 0.000000 0.000000
# 5 0.000000 0.000000 0.000000 0.000000 0.041529 0.000000
# 6 0.000000 0.000000 0.000000 0.000000 0.000000 0.027115
#
#
# Mechanical properties :
#
#
# Convention : Reuss Voigt Hill
#
# Bulk Modulus (GPa) = 32.48149 48.89415 40.68782
# Shear Modulus (GPa) = 25.79542 30.22024 28.00783
#
# Velocity S-wave (km/s) = 3.58994 3.88567 3.74073
# Velocity P-wave (km/s) = 5.78029 6.67527 6.24384
#
# Compressibility (1/GPa) = 0.03078677
#
# Stress axis : x y z
#
# Youngs Moduli (GPa) = 124.91914 70.15414 31.62792
#
# Poissons Ratio (x) = 0.22172 0.11405
# Poissons Ratio (y) = 0.39481 0.15114
# Poissons Ratio (z) = 0.45047 0.33524
#
# Static dielectric constant tensor:
#      x y z
#    x 3.872880 0.000000 0.000000 
#    y 0.000000 3.547790 0.000000 
#    z 0.000000 0.000000 2.989940 
# 
# 
# High freq. dielectric constant tensor:
#      x y z
#    x 1.806620 0.000000 0.000000 
#    y 0.000000 1.788150 0.000000 
#    z 0.000000 0.000000 1.732830 
# 
# From -- ./inp_files/11218.got.cif
#   From: 2010.06.25/outbox.cif.g09.slc.cpg/sg71_6_cif.got.tgz:11218.got - 2010.06.28 04:59:45.
