data_PCOD8289981
_publ_section_title
;
Structure prediction by ZEFSAII (Michael W. Deem and Ramdas Pophale) SiO2 
 PCOD8289981
Probable space group: I M M M
;
_chemical_formula_sum "Si O2"
_cell_formula_units_Z 80
_cell_length_a 32.801030
_cell_length_b 8.567816
_cell_length_c 19.011130
_cell_angle_alpha 90.000000
_cell_angle_beta 90.000000
_cell_angle_gamma 90.000000
_cell_volume 5342.758503
_symmetry_space_group_name_H-M "I M M M"
_symmetry_group_IT_number 71
_symmetry_cell_setting 'orthorhombic'
loop_
_space_group_symop_operation_xyz
x,y,z
-x,-y,z
x,-y,-z
-x,y,-z
-x,-y,-z
x,y,-z
-x,y,z
x,-y,z
1/2+x,1/2+y,1/2+z
1/2-x,1/2-y,1/2+z
1/2+x,1/2-y,1/2-z
1/2-x,1/2+y,1/2-z
1/2-x,1/2-y,1/2-z
1/2+x,1/2+y,1/2-z
1/2-x,1/2+y,1/2+z
1/2+x,1/2-y,1/2+z
loop_
_atom_site_type_symbol
_atom_site_label
_atom_site_fract_x
_atom_site_fract_y
_atom_site_fract_z
Si Si1 0.045938 0.682365 0.081370
Si Si2 0.670810 0.820527 0.500000
Si Si3 0.313179 0.818612 0.724121
Si Si4 0.257468 0.818056 0.000000
Si Si5 0.624814 0.680291 0.627446
Si Si6 0.730121 0.682503 0.147506
O O1 0.053492 0.500000 0.093057
O O2 0.076718 0.780199 0.130682
O O3 0.000000 0.727712 0.103486
O O4 0.053344 0.726651 0.000000
O O5 0.709206 0.706946 0.500000
O O6 0.643902 0.790954 0.568271
O O7 0.685977 0.000000 0.500000
O O8 0.353051 0.721562 0.700783
O O9 0.301956 0.771298 0.803228
O O10 0.276129 0.776008 0.671298
O O11 0.323630 0.000000 0.721593
O O12 0.277420 0.739498 0.068439
O O13 0.267364 0.000000 0.000000
O O14 0.631336 0.500000 0.608837
O O15 0.721888 0.500000 0.154063
#
# Coordination Sequence:
#
# PCOD8289981 Si02
#       6
#    16   8  16   8  16  16
#     4   9  18  32  48  64  86 117 150 185 227 271
#     4  12  22  32  43  61  86 116 154 192 227 264
#     4  10  20  33  48  64  88 118 149 186 227 270
#     4  12  22  32  48  67  89 116 151 189 228 271
#     4  12  22  31  46  67  89 115 149 191 231 270
#     4  10  20  33  48  65  89 117 148 187 228 267
#
# _framework density 14.973539000000001
#
# number of rings (size 3 to 8) (size 9 to 14) (size 15 to 20)
#    0.000    1.400    3.000    5.400    0.000    2.000 
#    0.000    1.000    0.000    0.000    0.000    0.000 
#    0.000    0.000    0.000    0.900    0.000   16.600 
#
# Total GULP energy -496155.473997 kJ/mol
# GULP energy per Si atom -12403.886850 kJ/mol
# Density = 1.493946 g / cm^3
# Si number density = 14.973539 Si / 1000 Ang^3
#
#
#
# Elastic Constant Matrix: (Units=GPa)
#
#
# Indices 1 2 3 4 5 6 
#
# 1 81.2369 29.1393 34.7366 0.0000 0.0000 0.0000
# 2 29.1393 66.6514 21.8537 0.0000 0.0000 0.0000
# 3 34.7366 21.8537 84.2409 0.0000 0.0000 0.0000
# 4 0.0000 0.0000 0.0000 24.0295 0.0000 0.0000
# 5 0.0000 0.0000 0.0000 0.0000 23.1868 0.0000
# 6 0.0000 0.0000 0.0000 0.0000 0.0000 22.7919
#
#
#
# Elastic Compliance Matrix: (Units=1/GPa)
#
#
# Indices 1 2 3 4 5 6 
#
# 1 0.016592 -0.005476 -0.005421 0.000000 0.000000 0.000000
# 2 -0.005476 0.018206 -0.002465 0.000000 0.000000 0.000000
# 3 -0.005421 -0.002465 0.014745 0.000000 0.000000 0.000000
# 4 0.000000 0.000000 0.000000 0.041616 0.000000 0.000000
# 5 0.000000 0.000000 0.000000 0.000000 0.043128 0.000000
# 6 0.000000 0.000000 0.000000 0.000000 0.000000 0.043875
#
#
# Mechanical properties :
#
#
# Convention : Reuss Voigt Hill
#
# Bulk Modulus (GPa) = 43.82318 44.84313 44.33315
# Shear Modulus (GPa) = 23.53023 23.76163 23.64593
#
# Velocity S-wave (km/s) = 3.96846 3.98792 3.97820
# Velocity P-wave (km/s) = 7.09428 7.15667 7.12555
#
# Compressibility (1/GPa) = 0.02281898
#
# Stress axis : x y z
#
# Youngs Moduli (GPa) = 60.26989 54.92752 67.81747
#
# Poissons Ratio (x) = 0.30081 0.36764
# Poissons Ratio (y) = 0.33006 0.16715
# Poissons Ratio (z) = 0.32672 0.13538
#
# Static dielectric constant tensor:
#      x y z
#    x 2.806730 0.000000 0.000000 
#    y 0.000000 2.885440 0.000000 
#    z 0.000000 0.000000 2.789320 
# 
# 
# High freq. dielectric constant tensor:
#      x y z
#    x 1.545280 0.000000 0.000000 
#    y 0.000000 1.589050 0.000000 
#    z 0.000000 0.000000 1.545900 
# 
# From -- ./inp_files/8697.got.cif
#   From: 2010.06.25/outbox.cif.g09.slc.cpg/sg71_5_cif.got.tgz:8697.got - 2010.06.28 04:59:45.
