data_PCOD8289194
_publ_section_title
;
Structure prediction by ZEFSAII (Michael W. Deem and Ramdas Pophale) SiO2 
 PCOD8289194
Probable space group: I M M M
;
_chemical_formula_sum "Si O2"
_cell_formula_units_Z 104
_cell_length_a 27.857252
_cell_length_b 9.333467
_cell_length_c 21.335905
_cell_angle_alpha 90.000000
_cell_angle_beta 90.000000
_cell_angle_gamma 90.000000
_cell_volume 5547.436480
_symmetry_space_group_name_H-M "I M M M"
_symmetry_group_IT_number 71
_symmetry_cell_setting 'orthorhombic'
loop_
_space_group_symop_operation_xyz
x,y,z
-x,-y,z
x,-y,-z
-x,y,-z
-x,-y,-z
x,y,-z
-x,y,z
x,-y,z
1/2+x,1/2+y,1/2+z
1/2-x,1/2-y,1/2+z
1/2+x,1/2-y,1/2-z
1/2-x,1/2+y,1/2-z
1/2-x,1/2-y,1/2-z
1/2+x,1/2+y,1/2-z
1/2-x,1/2+y,1/2+z
1/2+x,1/2-y,1/2+z
loop_
_atom_site_type_symbol
_atom_site_label
_atom_site_fract_x
_atom_site_fract_y
_atom_site_fract_z
Si Si1 0.191534 0.836167 0.799265
Si Si2 0.800415 0.667891 0.322517
Si Si3 0.945900 0.163569 0.642646
Si Si4 0.943751 0.658534 0.240424
Si Si5 0.445478 0.330315 0.500000
Si Si6 0.402336 0.333857 0.370211
Si Si7 0.146358 0.164721 0.571169
O O1 0.176992 0.737594 0.740174
O O2 0.243819 0.796996 0.825154
O O3 0.154031 0.809226 0.855735
O O4 0.189632 0.000000 0.775819
O O5 0.811209 0.500000 0.321173
O O6 0.822273 0.734712 0.384832
O O7 0.923792 0.257715 0.699069
O O8 0.910547 0.185156 0.583944
O O9 0.000000 0.209615 0.622967
O O10 0.945730 0.000000 0.666231
O O11 0.920345 0.500000 0.237847
O O12 0.933883 0.744164 0.177548
O O13 0.000000 0.645977 0.248584
O O14 0.448096 0.500000 0.500000
O O15 0.500000 0.267918 0.500000
O O16 0.415697 0.276982 0.439431
O O17 0.416425 0.500000 0.362935
O O18 0.156275 0.211127 0.500000
O O19 0.161229 0.000000 0.582802
#
# Coordination Sequence:
#
# PCOD8289194 Si02
#       7
#    16  16  16  16   8  16  16
#     4   9  19  35  55  80 105 132 168 215 267 310
#     4  10  20  35  55  80 106 136 172 213 261 314
#     4   9  18  33  53  76 101 132 172 216 257 300
#     4  10  20  32  48  74 106 136 167 208 259 309
#     4   9  18  32  51  75 101 131 169 213 258 305
#     4  10  19  33  53  76 100 131 173 216 258 307
#     4  10  21  36  53  75 105 140 174 210 255 305
#
# _framework density 18.747399000000001
#
# number of rings (size 3 to 8) (size 9 to 14) (size 15 to 20)
#    0.000    2.385    0.000    2.308    0.000    7.692 
#    1.385    1.923    0.000    1.385    0.000    3.231 
#    0.000    0.000    0.000    0.000    0.000    0.000 
#
# Total GULP energy -644802.859861 kJ/mol
# GULP energy per Si atom -12400.054997 kJ/mol
# Density = 1.870473 g / cm^3
# Si number density = 18.747399 Si / 1000 Ang^3
#
#
#
# Elastic Constant Matrix: (Units=GPa)
#
#
# Indices 1 2 3 4 5 6 
#
# 1 80.4773 39.5056 62.2812 0.0000 0.0000 0.0000
# 2 39.5056 84.6798 58.1449 0.0000 0.0000 0.0000
# 3 62.2812 58.1449 142.6360 0.0000 0.0000 0.0000
# 4 0.0000 0.0000 0.0000 17.6642 0.0000 0.0000
# 5 0.0000 0.0000 0.0000 0.0000 29.6525 0.0000
# 6 0.0000 0.0000 0.0000 0.0000 0.0000 24.6960
#
#
#
# Elastic Compliance Matrix: (Units=1/GPa)
#
#
# Indices 1 2 3 4 5 6 
#
# 1 0.019994 -0.004629 -0.006843 0.000000 0.000000 0.000000
# 2 -0.004629 0.017471 -0.005101 0.000000 0.000000 0.000000
# 3 -0.006843 -0.005101 0.012078 0.000000 0.000000 0.000000
# 4 0.000000 0.000000 0.000000 0.056612 0.000000 0.000000
# 5 0.000000 0.000000 0.000000 0.000000 0.033724 0.000000
# 6 0.000000 0.000000 0.000000 0.000000 0.000000 0.040492
#
#
# Mechanical properties :
#
#
# Convention : Reuss Voigt Hill
#
# Bulk Modulus (GPa) = 60.98529 69.73960 65.36245
# Shear Modulus (GPa) = 22.83272 24.25996 23.54634
#
# Velocity S-wave (km/s) = 3.49365 3.60119 3.54782
# Velocity P-wave (km/s) = 6.99105 7.38727 7.19189
#
# Compressibility (1/GPa) = 0.01639740
#
# Stress axis : x y z
#
# Youngs Moduli (GPa) = 50.01436 57.23709 82.79291
#
# Poissons Ratio (x) = 0.26495 0.56659
# Poissons Ratio (y) = 0.23151 0.42231
# Poissons Ratio (z) = 0.34227 0.29196
#
# Static dielectric constant tensor:
#      x y z
#    x 3.532740 0.000000 0.000000 
#    y 0.000000 3.529620 0.000000 
#    z 0.000000 0.000000 3.389330 
# 
# 
# High freq. dielectric constant tensor:
#      x y z
#    x 1.735250 0.000000 0.000000 
#    y 0.000000 1.719540 0.000000 
#    z 0.000000 0.000000 1.715130 
# 
# From -- ./inp_files/16985.got.cif
#   From: 2010.06.25/outbox.cif.g09.slc.cpg/sg71_9_cif.got.tgz:16985.got - 2010.06.28 04:59:45.
