data_PCOD8289757
_publ_section_title
;
Structure prediction by ZEFSAII (Michael W. Deem and Ramdas Pophale) SiO2 
 PCOD8289757
Probable space group: I M M M
;
_chemical_formula_sum "Si O2"
_cell_formula_units_Z 64
_cell_length_a 40.464718
_cell_length_b 9.494146
_cell_length_c 9.547122
_cell_angle_alpha 90.000000
_cell_angle_beta 90.000000
_cell_angle_gamma 90.000000
_cell_volume 3667.793668
_symmetry_space_group_name_H-M "I M M M"
_symmetry_group_IT_number 71
_symmetry_cell_setting 'orthorhombic'
loop_
_space_group_symop_operation_xyz
x,y,z
-x,-y,z
x,-y,-z
-x,y,-z
-x,-y,-z
x,y,-z
-x,y,z
x,-y,z
1/2+x,1/2+y,1/2+z
1/2-x,1/2-y,1/2+z
1/2+x,1/2-y,1/2-z
1/2-x,1/2+y,1/2-z
1/2-x,1/2-y,1/2-z
1/2+x,1/2+y,1/2-z
1/2-x,1/2+y,1/2+z
1/2+x,1/2-y,1/2+z
loop_
_atom_site_type_symbol
_atom_site_label
_atom_site_fract_x
_atom_site_fract_y
_atom_site_fract_z
Si Si1 0.225002 0.839545 0.161074
Si Si2 0.963473 0.157789 0.666299
Si Si3 0.149496 0.163140 0.161696
Si Si4 0.402278 0.836955 0.834365
O O1 0.250000 0.750000 0.250000
O O2 0.187359 0.792796 0.188059
O O3 0.229406 0.000000 0.207052
O O4 0.234273 0.818710 0.000000
O O5 0.963764 0.159782 0.500000
O O6 0.936179 0.266746 0.722480
O O7 0.000000 0.201848 0.721622
O O8 0.954764 0.000000 0.719188
O O9 0.128277 0.262665 0.260470
O O10 0.143712 0.000000 0.201751
O O11 0.139904 0.188002 0.000000
O O12 0.403081 0.000000 0.792351
O O13 0.398304 0.816072 0.000000
#
# Coordination Sequence:
#
# PCOD8289757 Si02
#       4
#    16  16  16  16
#     4   9  19  35  53  74  99 126 159 199 241 287
#     4   8  14  26  45  68  94 126 163 200 238 282
#     4   9  19  36  54  70  93 129 168 201 237 284
#     4  10  20  31  46  73 104 130 159 198 244 290
#
# _framework density 17.449180999999999
#
# number of rings (size 3 to 8) (size 9 to 14) (size 15 to 20)
#    0.000    3.000    0.000    3.000    0.000    5.000 
#    0.000   10.000    0.000    0.750    0.000    5.250 
#    0.000    0.000    0.000    0.000    0.000    0.000 
#
# Total GULP energy -396699.569195 kJ/mol
# GULP energy per Si atom -12396.861537 kJ/mol
# Density = 1.740947 g / cm^3
# Si number density = 17.449181 Si / 1000 Ang^3
#
#
#
# Elastic Constant Matrix: (Units=GPa)
#
#
# Indices 1 2 3 4 5 6 
#
# 1 112.9263 73.5457 38.8662 0.0000 0.0000 0.0000
# 2 73.5457 110.4174 38.8232 0.0000 0.0000 0.0000
# 3 38.8662 38.8232 32.9697 0.0000 0.0000 0.0000
# 4 0.0000 0.0000 0.0000 28.5482 0.0000 0.0000
# 5 0.0000 0.0000 0.0000 0.0000 22.9119 0.0000
# 6 0.0000 0.0000 0.0000 0.0000 0.0000 36.4241
#
#
#
# Elastic Compliance Matrix: (Units=1/GPa)
#
#
# Indices 1 2 3 4 5 6 
#
# 1 0.018122 -0.007780 -0.012201 0.000000 0.000000 0.000000
# 2 -0.007780 0.018796 -0.012961 0.000000 0.000000 0.000000
# 3 -0.012201 -0.012961 0.059976 0.000000 0.000000 0.000000
# 4 0.000000 0.000000 0.000000 0.035029 0.000000 0.000000
# 5 0.000000 0.000000 0.000000 0.000000 0.043645 0.000000
# 6 0.000000 0.000000 0.000000 0.000000 0.000000 0.027454
#
#
# Mechanical properties :
#
#
# Convention : Reuss Voigt Hill
#
# Bulk Modulus (GPa) = 32.24887 62.08708 47.16797
# Shear Modulus (GPa) = 17.90550 24.58205 21.24378
#
# Velocity S-wave (km/s) = 3.20684 3.75744 3.49301
# Velocity P-wave (km/s) = 5.67745 7.38129 6.58471
#
# Compressibility (1/GPa) = 0.03100884
#
# Stress axis : x y z
#
# Youngs Moduli (GPa) = 55.18222 53.20261 16.67330
#
# Poissons Ratio (x) = 0.41394 0.20343
# Poissons Ratio (y) = 0.42934 0.21610
# Poissons Ratio (z) = 0.67328 0.68957
#
# Static dielectric constant tensor:
#      x y z
#    x 3.425070 0.000000 0.000000 
#    y 0.000000 3.277690 0.000000 
#    z 0.000000 0.000000 2.908790 
# 
# 
# High freq. dielectric constant tensor:
#      x y z
#    x 1.686390 0.000000 0.000000 
#    y 0.000000 1.674550 0.000000 
#    z 0.000000 0.000000 1.642060 
# 
# From -- ./inp_files/3715.got.cif
#   From: 2010.06.25/outbox.cif.g09.slc.cpg/sg71_2_cif.got.tgz:3715.got - 2010.06.28 04:59:45.
