data_PCOD8289204
_publ_section_title
;
Structure prediction by ZEFSAII (Michael W. Deem and Ramdas Pophale) SiO2 
 PCOD8289204
Probable space group: I M M M
;
_chemical_formula_sum "Si O2"
_cell_formula_units_Z 104
_cell_length_a 12.530838
_cell_length_b 22.229819
_cell_length_c 21.875308
_cell_angle_alpha 90.000000
_cell_angle_beta 90.000000
_cell_angle_gamma 90.000000
_cell_volume 6093.547748
_symmetry_space_group_name_H-M "I M M M"
_symmetry_group_IT_number 71
_symmetry_cell_setting 'orthorhombic'
loop_
_space_group_symop_operation_xyz
x,y,z
-x,-y,z
x,-y,-z
-x,y,-z
-x,-y,-z
x,y,-z
-x,y,z
x,-y,z
1/2+x,1/2+y,1/2+z
1/2-x,1/2-y,1/2+z
1/2+x,1/2-y,1/2-z
1/2-x,1/2+y,1/2-z
1/2-x,1/2-y,1/2-z
1/2+x,1/2+y,1/2-z
1/2-x,1/2+y,1/2+z
1/2+x,1/2-y,1/2+z
loop_
_atom_site_type_symbol
_atom_site_label
_atom_site_fract_x
_atom_site_fract_y
_atom_site_fract_z
Si Si1 0.378274 0.289577 0.793866
Si Si2 0.619573 0.932244 0.177568
Si Si3 0.764620 0.177758 0.176702
Si Si4 0.618558 0.934055 0.678185
Si Si5 0.876607 0.754583 0.931598
Si Si6 0.124362 0.929124 0.500000
Si Si7 0.768489 0.146849 0.396809
O O1 0.500000 0.274142 0.783099
O O2 0.321034 0.225774 0.800024
O O3 0.340444 0.330069 0.735938
O O4 0.363889 0.324175 0.857839
O O5 0.500000 0.918198 0.151953
O O6 0.706268 0.883574 0.154746
O O7 0.616007 0.928000 0.249797
O O8 0.653676 0.000000 0.157060
O O9 0.833348 0.198698 0.118410
O O10 0.500000 0.924752 0.651545
O O11 0.693070 0.883368 0.652449
O O12 0.661020 0.000000 0.659010
O O13 0.803069 0.695265 0.932224
O O14 0.000000 0.738380 0.916477
O O15 0.868509 0.782594 0.000000
O O16 0.180479 0.901761 0.441048
O O17 0.000000 0.912355 0.500000
O O18 0.143048 0.000000 0.500000
#
# Coordination Sequence:
#
# PCOD8289204 Si02
#       7
#    16  16  16  16  16   8  16
#     4  10  20  31  49  77 102 131 170 217 262 302
#     4   9  17  31  53  80 109 136 163 203 257 314
#     4  10  19  33  53  77 105 132 167 211 263 317
#     4   9  17  29  48  75 104 134 169 210 256 302
#     4  10  21  36  55  77 102 134 170 213 265 315
#     4  11  24  38  51  69 101 151 195 218 248 299
#     4  11  19  35  53  71 101 138 177 223 255 296
#
# _framework density 17.067233000000002
#
# number of rings (size 3 to 8) (size 9 to 14) (size 15 to 20)
#    0.000    2.077    2.308    3.231    0.000    0.000 
#    0.000    0.000    0.000    5.077    0.000    2.154 
#    0.000    0.000    0.000    0.000    0.000    0.000 
#
# Total GULP energy -644543.177071 kJ/mol
# GULP energy per Si atom -12395.061098 kJ/mol
# Density = 1.702839 g / cm^3
# Si number density = 17.067233 Si / 1000 Ang^3
#
#
#
# Elastic Constant Matrix: (Units=GPa)
#
#
# Indices 1 2 3 4 5 6 
#
# 1 89.8040 33.1917 44.6174 0.0000 0.0000 0.0000
# 2 33.1917 76.8578 29.5993 0.0000 0.0000 0.0000
# 3 44.6174 29.5993 67.4200 0.0000 0.0000 0.0000
# 4 0.0000 0.0000 0.0000 26.4318 0.0000 0.0000
# 5 0.0000 0.0000 0.0000 0.0000 18.7986 0.0000
# 6 0.0000 0.0000 0.0000 0.0000 0.0000 -1.6628
#
#
#
# Elastic Compliance Matrix: (Units=1/GPa)
#
#
# Indices 1 2 3 4 5 6 
#
# 1 0.017428 -0.003712 -0.009904 0.000000 0.000000 0.000000
# 2 -0.003712 0.016449 -0.004765 0.000000 0.000000 0.000000
# 3 -0.009904 -0.004765 0.023478 0.000000 0.000000 0.000000
# 4 0.000000 0.000000 0.000000 0.037833 0.000000 0.000000
# 5 0.000000 0.000000 0.000000 0.000000 0.053195 0.000000
# 6 0.000000 0.000000 0.000000 0.000000 0.000000 -0.601399
#
#
# Mechanical properties :
#
#
# Convention : Reuss Voigt Hill
#
# Bulk Modulus (GPa) = 48.55847 49.87762 49.21805
# Shear Modulus (GPa) = -12.21334 17.15843 2.47254
#
# Velocity S-wave (km/s) = -2.67798 3.17415 1.20493
# Velocity P-wave (km/s) = 4.35327 6.53615 5.55303
#
# Compressibility (1/GPa) = 0.02059373
#
# Stress axis : x y z
#
# Youngs Moduli (GPa) = 57.37934 60.79282 42.59233
#
# Poissons Ratio (x) = 0.22568 0.42182
# Poissons Ratio (y) = 0.21301 0.20295
# Poissons Ratio (z) = 0.56826 0.28968
#
# Static dielectric constant tensor:
#      x y z
#    x 3.291930 0.000000 0.000000 
#    y 0.000000 3.257440 0.000000 
#    z 0.000000 0.000000 3.045770 
# 
# 
# High freq. dielectric constant tensor:
#      x y z
#    x 1.662570 0.000000 0.000000 
#    y 0.000000 1.649190 0.000000 
#    z 0.000000 0.000000 1.643540 
# 
# From -- ./inp_files/59039.got.cif
#   From: 2010.06.25/outbox.cif.g09.slc.cpg/sg71_30_cif.got.tgz:59039.got - 2010.06.28 04:59:45.
