data_PCOD8289678
_publ_section_title
;
Structure prediction by ZEFSAII (Michael W. Deem and Ramdas Pophale) SiO2 
 PCOD8289678
Probable space group: I M M M
;
_chemical_formula_sum "Si O2"
_cell_formula_units_Z 52
_cell_length_a 23.301794
_cell_length_b 10.293986
_cell_length_c 10.656511
_cell_angle_alpha 90.000000
_cell_angle_beta 90.000000
_cell_angle_gamma 90.000000
_cell_volume 2556.159617
_symmetry_space_group_name_H-M "I M M M"
_symmetry_group_IT_number 71
_symmetry_cell_setting 'orthorhombic'
loop_
_space_group_symop_operation_xyz
x,y,z
-x,-y,z
x,-y,-z
-x,y,-z
-x,-y,-z
x,y,-z
-x,y,z
x,-y,z
1/2+x,1/2+y,1/2+z
1/2-x,1/2-y,1/2+z
1/2+x,1/2-y,1/2-z
1/2-x,1/2+y,1/2-z
1/2-x,1/2-y,1/2-z
1/2+x,1/2+y,1/2-z
1/2-x,1/2+y,1/2+z
1/2+x,1/2-y,1/2+z
loop_
_atom_site_type_symbol
_atom_site_label
_atom_site_fract_x
_atom_site_fract_y
_atom_site_fract_z
Si Si1 0.061967 0.850312 0.500000
Si Si2 0.302353 0.500000 0.355568
Si Si3 0.320291 0.000000 0.761568
Si Si4 0.658618 0.000000 0.500000
Si Si5 0.123094 0.776363 0.753566
Si Si6 0.065860 0.723683 0.000000
O O1 0.096036 0.817630 0.624283
O O2 0.000000 0.777493 0.500000
O O3 0.049855 0.000000 0.500000
O O4 0.322749 0.500000 0.500000
O O5 0.233159 0.500000 0.354804
O O6 0.323229 0.630462 0.285654
O O7 0.358986 0.871817 0.774749
O O8 0.298234 0.000000 0.617283
O O9 0.615569 0.881132 0.500000
O O10 0.077374 0.798307 0.868301
O O11 0.000000 0.673234 0.000000
#
# Coordination Sequence:
#
# PCOD8289678 Si02
#       6
#     8   8   8   4  16   8
#     4  11  24  42  65  93 129 169 208 256 315 377
#     4  12  24  42  62  93 125 168 211 259 306 373
#     4  10  24  41  67  89 130 163 204 262 317 364
#     4   8  19  38  60  92 120 156 207 246 306 380
#     4  11  23  43  63  96 124 163 211 255 310 376
#     4  10  19  37  63  90 123 159 199 255 306 357
#
# _framework density 20.343019000000002
#
# number of rings (size 3 to 8) (size 9 to 14) (size 15 to 20)
#    0.000    1.385    3.077    2.077    2.154    1.231 
#    0.000    3.846    0.000    0.000    0.000    0.000 
#    0.000    0.000    0.000    0.000    0.000    0.000 
#
# Total GULP energy -322100.528087 kJ/mol
# GULP energy per Si atom -12388.481849 kJ/mol
# Density = 2.029672 g / cm^3
# Si number density = 20.343019 Si / 1000 Ang^3
#
#
#
# Elastic Constant Matrix: (Units=GPa)
#
#
# Indices 1 2 3 4 5 6 
#
# 1 94.2554 31.2195 52.6151 0.0000 0.0000 0.0000
# 2 31.2195 108.7597 29.7538 0.0000 0.0000 0.0000
# 3 52.6151 29.7538 175.3591 0.0000 0.0000 0.0000
# 4 0.0000 0.0000 0.0000 64.9518 0.0000 0.0000
# 5 0.0000 0.0000 0.0000 0.0000 31.1699 0.0000
# 6 0.0000 0.0000 0.0000 0.0000 0.0000 24.1513
#
#
#
# Elastic Compliance Matrix: (Units=1/GPa)
#
#
# Indices 1 2 3 4 5 6 
#
# 1 0.013573 -0.002917 -0.003577 0.000000 0.000000 0.000000
# 2 -0.002917 0.010269 -0.000867 0.000000 0.000000 0.000000
# 3 -0.003577 -0.000867 0.006923 0.000000 0.000000 0.000000
# 4 0.000000 0.000000 0.000000 0.015396 0.000000 0.000000
# 5 0.000000 0.000000 0.000000 0.000000 0.032082 0.000000
# 6 0.000000 0.000000 0.000000 0.000000 0.000000 0.041406
#
#
# Mechanical properties :
#
#
# Convention : Reuss Voigt Hill
#
# Bulk Modulus (GPa) = 62.33892 67.28343 64.81117
# Shear Modulus (GPa) = 35.78591 41.70699 38.74645
#
# Velocity S-wave (km/s) = 4.19874 4.53281 4.36897
# Velocity P-wave (km/s) = 7.36317 7.78084 7.57488
#
# Compressibility (1/GPa) = 0.01604134
#
# Stress axis : x y z
#
# Youngs Moduli (GPa) = 73.67711 97.37831 144.44452
#
# Poissons Ratio (x) = 0.28409 0.51673
# Poissons Ratio (y) = 0.21494 0.12524
# Poissons Ratio (z) = 0.26357 0.08443
#
# Static dielectric constant tensor:
#      x y z
#    x 3.412210 0.000000 0.000000 
#    y 0.000000 3.831040 0.000000 
#    z 0.000000 0.000000 4.283560 
# 
# 
# High freq. dielectric constant tensor:
#      x y z
#    x 1.781620 0.000000 0.000000 
#    y 0.000000 1.794570 0.000000 
#    z 0.000000 0.000000 1.817960 
# 
# From -- ./inp_files/13956.got.cif
#   From: 2010.06.25/outbox.cif.g09.slc.cpg/sg71_7_cif.got.tgz:13956.got - 2010.06.28 04:59:45.
