data_PCOD8289526
_publ_section_title
;
Structure prediction by ZEFSAII (Michael W. Deem and Ramdas Pophale) SiO2 
 PCOD8289526
Probable space group: I M M M
;
_chemical_formula_sum "Si O2"
_cell_formula_units_Z 120
_cell_length_a 14.197319
_cell_length_b 31.884181
_cell_length_c 14.908416
_cell_angle_alpha 90.000000
_cell_angle_beta 90.000000
_cell_angle_gamma 90.000000
_cell_volume 6748.591012
_symmetry_space_group_name_H-M "I M M M"
_symmetry_group_IT_number 71
_symmetry_cell_setting 'orthorhombic'
loop_
_space_group_symop_operation_xyz
x,y,z
-x,-y,z
x,-y,-z
-x,y,-z
-x,-y,-z
x,y,-z
-x,y,z
x,-y,z
1/2+x,1/2+y,1/2+z
1/2-x,1/2-y,1/2+z
1/2+x,1/2-y,1/2-z
1/2-x,1/2+y,1/2-z
1/2-x,1/2-y,1/2-z
1/2+x,1/2+y,1/2-z
1/2-x,1/2+y,1/2+z
1/2+x,1/2-y,1/2+z
loop_
_atom_site_type_symbol
_atom_site_label
_atom_site_fract_x
_atom_site_fract_y
_atom_site_fract_z
Si Si1 0.100990 0.950900 0.000000
Si Si2 0.893005 0.259909 0.651385
Si Si3 0.109429 0.825717 0.900844
Si Si4 0.389852 0.852214 0.898034
Si Si5 0.731953 0.680558 0.098530
Si Si6 0.887988 0.048528 0.195273
Si Si7 0.893375 0.265202 0.139015
Si Si8 0.729399 0.377724 0.267581
O O1 0.150219 0.939940 0.094179
O O2 0.000000 0.927475 0.000000
O O3 0.081175 0.000000 0.000000
O O4 0.861627 0.302944 0.602473
O O5 0.833300 0.219694 0.624511
O O6 0.880825 0.269503 0.755330
O O7 0.000000 0.248868 0.626070
O O8 0.151004 0.778950 0.892517
O O9 0.152209 0.855092 0.827061
O O10 0.000000 0.822993 0.879333
O O11 0.130773 0.843938 0.000000
O O12 0.500000 0.858112 0.872613
O O13 0.328323 0.877448 0.823152
O O14 0.370359 0.868625 0.000000
O O15 0.837905 0.697544 0.091529
O O16 0.732877 0.643597 0.170665
O O17 0.702565 0.663132 0.000000
O O18 0.815708 0.076355 0.253993
O O19 0.000000 0.059109 0.206589
O O20 0.871287 0.000000 0.219511
O O21 0.000000 0.269547 0.106751
#
# Coordination Sequence:
#
# PCOD8289526 Si02
#       8
#     8  16  16  16  16  16  16  16
#     4   7  12  26  48  76 105 127 149 179 224 296
#     4  10  19  35  53  68  98 145 183 213 253 301
#     4  10  20  31  47  75 106 134 166 206 254 308
#     4  10  21  35  51  73 102 140 182 214 243 292
#     4  12  24  35  50  74 103 137 181 228 267 301
#     4   9  19  35  55  80 109 136 162 198 251 319
#     4  10  19  35  53  69  99 140 177 215 261 306
#     4  12  22  34  53  76 101 134 171 216 263 306
#
# _framework density 17.781490000000002
#
# number of rings (size 3 to 8) (size 9 to 14) (size 15 to 20)
#    0.000    1.800    2.667    3.600    1.867    2.133 
#    0.000    0.000    0.000    0.800    0.000    1.867 
#    0.000    0.000    0.000    2.400    0.000    0.000 
#
# Total GULP energy -743445.030463 kJ/mol
# GULP energy per Si atom -12390.750508 kJ/mol
# Density = 1.774102 g / cm^3
# Si number density = 17.781490 Si / 1000 Ang^3
#
#
#
# Elastic Constant Matrix: (Units=GPa)
#
#
# Indices 1 2 3 4 5 6 
#
# 1 71.8450 45.9457 22.4468 0.0000 0.0002 0.0001
# 2 45.9457 76.5902 29.8810 -0.0001 -0.0005 0.0000
# 3 22.4468 29.8810 72.3066 -0.0031 0.0017 0.0002
# 4 0.0000 -0.0001 -0.0031 11.5947 0.0005 0.0001
# 5 0.0002 -0.0005 0.0017 0.0005 3.6747 -0.0002
# 6 0.0001 0.0000 0.0002 0.0001 -0.0002 24.0495
#
#
#
# Elastic Compliance Matrix: (Units=1/GPa)
#
#
# Indices 1 2 3 4 5 6 
#
# 1 0.022755 -0.012989 -0.001696 -0.000001 -0.000002 0.000000
# 2 -0.012989 0.022980 -0.005464 -0.000001 0.000006 0.000000
# 3 -0.001696 -0.005464 0.016615 0.000004 -0.000008 0.000000
# 4 -0.000001 -0.000001 0.000004 0.086246 -0.000012 0.000000
# 5 -0.000002 0.000006 -0.000008 -0.000012 0.272130 0.000003
# 6 0.000000 0.000000 0.000000 0.000000 0.000003 0.041581
#
#
# Mechanical properties :
#
#
# Convention : Reuss Voigt Hill
#
# Bulk Modulus (GPa) = 45.34945 46.36543 45.85744
# Shear Modulus (GPa) = 9.80473 16.02831 12.91652
#
# Velocity S-wave (km/s) = 2.35074 3.00560 2.69811
# Velocity P-wave (km/s) = 5.73821 6.17872 5.96253
#
# Compressibility (1/GPa) = 0.02205098
#
# Stress axis : x y z
#
# Youngs Moduli (GPa) = 43.94544 43.51538 60.18707
#
# Poissons Ratio (x) = 0.56522 0.10210
# Poissons Ratio (y) = 0.57081 0.32889
# Poissons Ratio (z) = 0.07455 0.23779
#
# Static dielectric constant tensor:
#      x y z
#    x 3.397550 0.000000 0.000000 
#    y 0.000000 3.142970 0.000000 
#    z 0.000000 0.000000 3.638770 
# 
# 
# High freq. dielectric constant tensor:
#      x y z
#    x 1.687380 0.000000 0.000000 
#    y 0.000000 1.649780 0.000000 
#    z 0.000000 0.000000 1.679240 
# 
# From -- ./inp_files/35456.got.cif
#   From: 2010.06.25/outbox.cif.g09.slc.cpg/sg71_18_cif.got.tgz:35456.got - 2010.06.28 04:59:45.
