data_PCOD8289917
_publ_section_title
;
Structure prediction by ZEFSAII (Michael W. Deem and Ramdas Pophale) SiO2 
 PCOD8289917
Probable space group: I M M M
;
_chemical_formula_sum "Si O2"
_cell_formula_units_Z 88
_cell_length_a 9.262259
_cell_length_b 27.702480
_cell_length_c 18.296419
_cell_angle_alpha 90.000000
_cell_angle_beta 90.000000
_cell_angle_gamma 90.000000
_cell_volume 4694.633228
_symmetry_space_group_name_H-M "I M M M"
_symmetry_group_IT_number 71
_symmetry_cell_setting 'orthorhombic'
loop_
_space_group_symop_operation_xyz
x,y,z
-x,-y,z
x,-y,-z
-x,y,-z
-x,-y,-z
x,y,-z
-x,y,z
x,-y,z
1/2+x,1/2+y,1/2+z
1/2-x,1/2-y,1/2+z
1/2+x,1/2-y,1/2-z
1/2-x,1/2+y,1/2-z
1/2-x,1/2-y,1/2-z
1/2+x,1/2+y,1/2-z
1/2-x,1/2+y,1/2+z
1/2+x,1/2-y,1/2+z
loop_
_atom_site_type_symbol
_atom_site_label
_atom_site_fract_x
_atom_site_fract_y
_atom_site_fract_z
Si Si1 0.832860 0.293119 0.669702
Si Si2 0.668399 0.105922 0.413066
Si Si3 0.157930 0.860526 0.914974
Si Si4 0.839251 0.446959 0.412956
Si Si5 0.831134 0.818161 0.687941
Si Si6 0.670497 0.000000 0.579915
O O1 0.764519 0.315400 0.596638
O O2 0.806231 0.236460 0.661336
O O3 0.748218 0.320798 0.734397
O O4 0.000000 0.305616 0.678249
O O5 0.698757 0.110047 0.500000
O O6 0.500000 0.115968 0.397129
O O7 0.762734 0.145264 0.370356
O O8 0.713342 0.051703 0.383265
O O9 0.228515 0.908415 0.879105
O O10 0.000000 0.851809 0.879506
O O11 0.140266 0.868682 0.000000
O O12 0.841757 0.444044 0.500000
O O13 0.789087 0.500000 0.387195
O O14 0.000000 0.435941 0.383105
O O15 0.000000 0.830084 0.696788
O O16 0.500000 0.000000 0.570694
O O17 0.742549 0.000000 0.500000
#
# Coordination Sequence:
#
# PCOD8289917 Si02
#       6
#    16  16  16  16  16   8
#     4  10  21  37  55  72  96 135 177 214 257 312
#     4   9  17  31  54  82 110 141 176 212 251 302
#     4  10  20  32  49  75 104 132 164 209 261 304
#     4   8  14  26  45  68  94 126 163 199 238 291
#     4  10  21  36  54  76 102 133 170 214 263 312
#     4   7  12  26  49  77 107 139 174 207 242 293
#
# _framework density 18.744807999999999
#
# number of rings (size 3 to 8) (size 9 to 14) (size 15 to 20)
#    0.000    2.818    0.000    3.273    0.000    4.727 
#    0.000    5.909    2.000    1.636    0.000    0.000 
#    0.000    0.000    0.000    0.000    0.000    0.000 
#
# Total GULP energy -545113.451140 kJ/mol
# GULP energy per Si atom -12388.942071 kJ/mol
# Density = 1.870214 g / cm^3
# Si number density = 18.744808 Si / 1000 Ang^3
#
#
#
# Elastic Constant Matrix: (Units=GPa)
#
#
# Indices 1 2 3 4 5 6 
#
# 1 125.1807 79.5178 35.0787 0.0000 0.0000 0.0000
# 2 79.5178 125.1856 41.4656 0.0001 0.0000 0.0000
# 3 35.0787 41.4656 31.8161 0.0009 0.0000 0.0001
# 4 0.0000 0.0001 0.0009 18.0552 0.0000 0.0000
# 5 0.0000 0.0000 0.0000 0.0000 26.7633 0.0001
# 6 0.0000 0.0000 0.0001 0.0000 0.0001 33.6987
#
#
#
# Elastic Compliance Matrix: (Units=1/GPa)
#
#
# Indices 1 2 3 4 5 6 
#
# 1 0.014195 -0.006744 -0.006861 0.000000 0.000000 0.000000
# 2 -0.006744 0.017260 -0.015059 0.000001 0.000000 0.000000
# 3 -0.006861 -0.015059 0.058622 -0.000003 0.000000 0.000000
# 4 0.000000 0.000001 -0.000003 0.055386 0.000000 0.000000
# 5 0.000000 0.000000 0.000000 0.000000 0.037365 0.000000
# 6 0.000000 0.000000 0.000000 0.000000 0.000000 0.029675
#
#
# Mechanical properties :
#
#
# Convention : Reuss Voigt Hill
#
# Bulk Modulus (GPa) = 30.53612 66.03405 48.28509
# Shear Modulus (GPa) = 17.80958 24.11147 20.96052
#
# Velocity S-wave (km/s) = 3.08572 3.59039 3.34758
# Velocity P-wave (km/s) = 5.38715 7.24516 6.38411
#
# Compressibility (1/GPa) = 0.03274810
#
# Stress axis : x y z
#
# Youngs Moduli (GPa) = 70.44655 57.93713 17.05838
#
# Poissons Ratio (x) = 0.39073 0.11704
# Poissons Ratio (y) = 0.47510 0.25689
# Poissons Ratio (z) = 0.48336 0.87249
#
# Static dielectric constant tensor:
#      x y z
#    x 3.613870 0.000000 0.000000 
#    y 0.000000 3.711710 0.000000 
#    z 0.000000 0.000000 3.060010 
# 
# 
# High freq. dielectric constant tensor:
#      x y z
#    x 1.727030 0.000000 0.000000 
#    y 0.000000 1.741940 0.000000 
#    z 0.000000 0.000000 1.685560 
# 
# From -- ./inp_files/51058.got.cif
#   From: 2010.06.25/outbox.cif.g09.slc.cpg/sg71_26_cif.got.tgz:51058.got - 2010.06.28 04:59:45.
