data_PCOD8289125
_publ_section_title
;
Structure prediction by ZEFSAII (Michael W. Deem and Ramdas Pophale) SiO2 
 PCOD8289125
Probable space group: I M M M
;
_chemical_formula_sum "Si O2"
_cell_formula_units_Z 88
_cell_length_a 30.266679
_cell_length_b 9.252244
_cell_length_c 17.642176
_cell_angle_alpha 90.000000
_cell_angle_beta 90.000000
_cell_angle_gamma 90.000000
_cell_volume 4940.421449
_symmetry_space_group_name_H-M "I M M M"
_symmetry_group_IT_number 71
_symmetry_cell_setting 'orthorhombic'
loop_
_space_group_symop_operation_xyz
x,y,z
-x,-y,z
x,-y,-z
-x,y,-z
-x,-y,-z
x,y,-z
-x,y,z
x,-y,z
1/2+x,1/2+y,1/2+z
1/2-x,1/2-y,1/2+z
1/2+x,1/2-y,1/2-z
1/2-x,1/2+y,1/2-z
1/2-x,1/2-y,1/2-z
1/2+x,1/2+y,1/2-z
1/2-x,1/2+y,1/2+z
1/2+x,1/2-y,1/2+z
loop_
_atom_site_type_symbol
_atom_site_label
_atom_site_fract_x
_atom_site_fract_y
_atom_site_fract_z
Si Si1 0.914190 0.838009 0.130842
Si Si2 0.293076 0.167688 0.274830
Si Si3 0.184465 0.840584 0.915011
Si Si4 0.549426 0.155193 0.500000
Si Si5 0.950272 0.671267 0.415164
Si Si6 0.889187 0.329416 0.722411
O O1 0.867864 0.846379 0.088476
O O2 0.944616 0.747254 0.075709
O O3 0.912837 0.758169 0.211319
O O4 0.932969 0.000000 0.143367
O O5 0.250000 0.250000 0.250000
O O6 0.299145 0.212915 0.361706
O O7 0.336436 0.207008 0.223861
O O8 0.283111 0.000000 0.270803
O O9 0.203143 0.000000 0.891347
O O10 0.199736 0.802997 0.000000
O O11 0.500000 0.106145 0.500000
O O12 0.576469 0.000000 0.500000
O O13 0.938512 0.729011 0.500000
O O14 0.950321 0.500000 0.416422
O O15 0.912519 0.723391 0.355818
O O16 0.000000 0.724686 0.392305
O O17 0.896163 0.500000 0.736081
#
# Coordination Sequence:
#
# PCOD8289125 Si02
#       6
#    16  16  16   8  16  16
#     4  10  19  33  51  72  98 130 168 208 254 308
#     4  10  20  33  49  72 103 138 174 214 259 307
#     4   9  17  32  53  74  95 124 164 207 254 307
#     4  11  23  35  47  67  99 137 173 211 253 293
#     4   8  14  27  50  78 104 130 164 210 262 316
#     4   9  18  32  51  77 104 134 172 213 260 314
#
# _framework density 17.812245999999998
#
# number of rings (size 3 to 8) (size 9 to 14) (size 15 to 20)
#    0.000    2.636    0.909    1.909    0.000    3.273 
#    0.000    2.727    0.000    3.818    0.000    1.273 
#    0.000    0.000    0.000    0.000    0.000    0.000 
#
# Total GULP energy -545160.584349 kJ/mol
# GULP energy per Si atom -12390.013281 kJ/mol
# Density = 1.777170 g / cm^3
# Si number density = 17.812246 Si / 1000 Ang^3
#
#
#
# Elastic Constant Matrix: (Units=GPa)
#
#
# Indices 1 2 3 4 5 6 
#
# 1 93.8518 46.2282 69.5155 0.0000 0.0000 0.0000
# 2 46.2282 83.9618 53.3278 0.0000 0.0000 0.0000
# 3 69.5155 53.3278 130.4859 0.0000 0.0000 0.0000
# 4 0.0000 0.0000 0.0000 23.6698 0.0000 0.0000
# 5 0.0000 0.0000 0.0000 0.0000 19.4651 0.0000
# 6 0.0000 0.0000 0.0000 0.0000 0.0000 19.1877
#
#
#
# Elastic Compliance Matrix: (Units=1/GPa)
#
#
# Indices 1 2 3 4 5 6 
#
# 1 0.019338 -0.005543 -0.008037 0.000000 0.000000 0.000000
# 2 -0.005543 0.017674 -0.004270 0.000000 0.000000 0.000000
# 3 -0.008037 -0.004270 0.013691 0.000000 0.000000 0.000000
# 4 0.000000 0.000000 0.000000 0.042248 0.000000 0.000000
# 5 0.000000 0.000000 0.000000 0.000000 0.051374 0.000000
# 6 0.000000 0.000000 0.000000 0.000000 0.000000 0.052117
#
#
# Mechanical properties :
#
#
# Convention : Reuss Voigt Hill
#
# Bulk Modulus (GPa) = 66.65437 71.82695 69.24066
# Shear Modulus (GPa) = 21.08434 21.74641 21.41537
#
# Velocity S-wave (km/s) = 3.44423 3.49788 3.47116
# Velocity P-wave (km/s) = 7.30196 7.53164 7.41769
#
# Compressibility (1/GPa) = 0.01500277
#
# Stress axis : x y z
#
# Youngs Moduli (GPa) = 51.71093 56.57966 73.04254
#
# Poissons Ratio (x) = 0.31360 0.58705
# Poissons Ratio (y) = 0.28661 0.31192
# Poissons Ratio (z) = 0.41561 0.24162
#
# Static dielectric constant tensor:
#      x y z
#    x 3.335670 0.000000 0.000000 
#    y 0.000000 2.766690 0.000000 
#    z 0.000000 0.000000 3.267390 
# 
# 
# High freq. dielectric constant tensor:
#      x y z
#    x 1.670750 0.000000 0.000000 
#    y 0.000000 1.681870 0.000000 
#    z 0.000000 0.000000 1.687270 
# 
# From -- ./inp_files/49224.got.cif
#   From: 2010.06.25/outbox.cif.g09.slc.cpg/sg71_25_cif.got.tgz:49224.got - 2010.06.28 04:59:45.
