data_PCOD8289798
_publ_section_title
;
Structure prediction by ZEFSAII (Michael W. Deem and Ramdas Pophale) SiO2 
 PCOD8289798
Probable space group: I M M M
;
_chemical_formula_sum "Si O2"
_cell_formula_units_Z 72
_cell_length_a 13.090841
_cell_length_b 8.911736
_cell_length_c 33.108061
_cell_angle_alpha 90.000000
_cell_angle_beta 90.000000
_cell_angle_gamma 90.000000
_cell_volume 3862.456553
_symmetry_space_group_name_H-M "I M M M"
_symmetry_group_IT_number 71
_symmetry_cell_setting 'orthorhombic'
loop_
_space_group_symop_operation_xyz
x,y,z
-x,-y,z
x,-y,-z
-x,y,-z
-x,-y,-z
x,y,-z
-x,y,z
x,-y,z
1/2+x,1/2+y,1/2+z
1/2-x,1/2-y,1/2+z
1/2+x,1/2-y,1/2-z
1/2-x,1/2+y,1/2-z
1/2-x,1/2-y,1/2-z
1/2+x,1/2+y,1/2-z
1/2-x,1/2+y,1/2+z
1/2+x,1/2-y,1/2+z
loop_
_atom_site_type_symbol
_atom_site_label
_atom_site_fract_x
_atom_site_fract_y
_atom_site_fract_z
Si Si1 0.813350 0.673549 0.189625
Si Si2 0.614776 0.677868 0.608616
Si Si3 0.500000 0.164012 0.952133
Si Si4 0.887074 0.170608 0.267239
Si Si5 0.720244 0.179834 0.954571
O O1 0.833919 0.500000 0.180298
O O2 0.850636 0.770122 0.152377
O O3 0.875972 0.719488 0.229315
O O4 0.693600 0.708567 0.197516
O O5 0.500000 0.735580 0.599270
O O6 0.617747 0.500000 0.607926
O O7 0.691974 0.743654 0.574886
O O8 0.607991 0.244423 0.940320
O O9 0.500000 0.000000 0.931601
O O10 0.500000 0.145141 0.000000
O O11 0.000000 0.191686 0.285758
O O12 0.869241 0.000000 0.252041
O O13 0.715708 0.000000 0.953488
O O14 0.745956 0.234489 0.000000
#
# Coordination Sequence:
#
# PCOD8289798 Si02
#       5
#    16  16   8  16  16
#     4  10  20  33  50  72  97 126 161 197 235 285
#     4  10  20  32  46  68 100 132 161 197 241 286
#     4   7  10  20  40  64  89 115 147 193 243 281
#     4   9  18  34  54  72  93 123 158 198 243 285
#     4   8  14  26  45  68  93 123 160 200 241 282
#
# _framework density 18.640986999999999
#
# number of rings (size 3 to 8) (size 9 to 14) (size 15 to 20)
#    0.000    3.000    0.000    2.667    0.000    4.889 
#    2.000    2.222    0.000    0.667    0.000    1.556 
#    0.000    2.667    0.000    0.000    0.000    0.000 
#
# Total GULP energy -446093.304529 kJ/mol
# GULP energy per Si atom -12391.480681 kJ/mol
# Density = 1.859856 g / cm^3
# Si number density = 18.640987 Si / 1000 Ang^3
#
#
#
# Elastic Constant Matrix: (Units=GPa)
#
#
# Indices 1 2 3 4 5 6 
#
# 1 190.4076 18.6871 66.5030 0.0000 0.0000 0.0000
# 2 18.6871 4.1151 5.4254 0.0000 0.0000 0.0000
# 3 66.5030 5.4254 71.4414 0.0000 0.0000 0.0000
# 4 0.0000 0.0000 0.0000 8.3243 0.0000 0.0000
# 5 0.0000 0.0000 0.0000 0.0000 21.5453 0.0000
# 6 0.0000 0.0000 0.0000 0.0000 0.0000 16.9046
#
#
#
# Elastic Compliance Matrix: (Units=1/GPa)
#
#
# Indices 1 2 3 4 5 6 
#
# 1 0.012774 -0.047041 -0.008319 0.000000 0.000000 0.000000
# 2 -0.047041 0.443275 0.010126 0.000000 0.000000 0.000000
# 3 -0.008319 0.010126 0.020972 0.000000 0.000000 0.000000
# 4 0.000000 0.000000 0.000000 0.120130 0.000000 0.000000
# 5 0.000000 0.000000 0.000000 0.000000 0.046414 0.000000
# 6 0.000000 0.000000 0.000000 0.000000 0.000000 0.059155
#
#
# Mechanical properties :
#
#
# Convention : Reuss Voigt Hill
#
# Bulk Modulus (GPa) = 2.58696 49.68833 26.13765
# Shear Modulus (GPa) = 5.42277 21.04476 13.23376
#
# Velocity S-wave (km/s) = 1.70745 3.36363 2.66734
# Velocity P-wave (km/s) = 2.29738 6.46519 4.85163
#
# Compressibility (1/GPa) = 0.38655412
#
# Stress axis : x y z
#
# Youngs Moduli (GPa) = 78.28396 2.25594 47.68234
#
# Poissons Ratio (x) = 0.10612 0.39665
# Poissons Ratio (y) = 3.68254 -0.48283
# Poissons Ratio (z) = 0.65122 -0.02284
#
# Static dielectric constant tensor:
#      x y z
#    x 4.052160 0.000000 0.000000 
#    y 0.000000 3.029360 0.000000 
#    z 0.000000 0.000000 3.203160 
# 
# 
# High freq. dielectric constant tensor:
#      x y z
#    x 1.748780 0.000000 0.000000 
#    y 0.000000 1.679150 0.000000 
#    z 0.000000 0.000000 1.696520 
# 
# From -- ./inp_files/65159.got.cif
#   From: 2010.06.25/outbox.cif.g09.slc.cpg/sg71_33_cif.got.tgz:65159.got - 2010.06.28 04:59:45.
