data_PCOD8289052
_publ_section_title
;
Structure prediction by ZEFSAII (Michael W. Deem and Ramdas Pophale) SiO2 
 PCOD8289052
Probable space group: I M M M
;
_chemical_formula_sum "Si O2"
_cell_formula_units_Z 120
_cell_length_a 26.955150
_cell_length_b 27.477969
_cell_length_c 8.886909
_cell_angle_alpha 90.000000
_cell_angle_beta 90.000000
_cell_angle_gamma 90.000000
_cell_volume 6582.291560
_symmetry_space_group_name_H-M "I M M M"
_symmetry_group_IT_number 71
_symmetry_cell_setting 'orthorhombic'
loop_
_space_group_symop_operation_xyz
x,y,z
-x,-y,z
x,-y,-z
-x,y,-z
-x,-y,-z
x,y,-z
-x,y,z
x,-y,z
1/2+x,1/2+y,1/2+z
1/2-x,1/2-y,1/2+z
1/2+x,1/2-y,1/2-z
1/2-x,1/2+y,1/2-z
1/2-x,1/2-y,1/2-z
1/2+x,1/2+y,1/2-z
1/2-x,1/2+y,1/2+z
1/2+x,1/2-y,1/2+z
loop_
_atom_site_type_symbol
_atom_site_label
_atom_site_fract_x
_atom_site_fract_y
_atom_site_fract_z
Si Si1 0.556599 0.812027 0.824240
Si Si2 0.408451 0.389844 0.676544
Si Si3 0.791667 0.446619 0.821359
Si Si4 0.820113 0.056630 0.673518
Si Si5 0.500000 0.443903 0.822494
Si Si6 0.853107 0.644168 0.178304
Si Si7 0.299961 0.766309 0.173208
Si Si8 0.602102 0.289429 0.828181
O O1 0.500000 0.823618 0.783467
O O2 0.590472 0.850554 0.735199
O O3 0.569567 0.756943 0.776482
O O4 0.568059 0.818264 0.000000
O O5 0.415715 0.395200 0.500000
O O6 0.355318 0.410744 0.723985
O O7 0.451031 0.419528 0.758451
O O8 0.412358 0.333340 0.719977
O O9 0.806459 0.500000 0.757416
O O10 0.735871 0.433006 0.770071
O O11 0.831287 0.407232 0.763024
O O12 0.791358 0.448740 0.000000
O O13 0.827150 0.072314 0.500000
O O14 0.833577 0.000000 0.693316
O O15 0.500000 0.500000 0.774423
O O16 0.500000 0.437403 0.000000
O O17 0.818798 0.685851 0.244731
O O18 0.851789 0.647600 0.000000
O O19 0.250000 0.750000 0.250000
O O20 0.339814 0.723035 0.188847
O O21 0.290286 0.779067 0.000000
O O22 0.589520 0.303734 0.000000
#
# Coordination Sequence:
#
# PCOD8289052 Si02
#       8
#    16  16  16  16   8  16  16  16
#     4   9  19  37  59  80 105 142 183 224 271 326
#     4  12  25  37  54  83 112 136 169 228 290 325
#     4   8  16  32  55  82 111 145 185 223 259 312
#     4   9  18  35  57  77 101 141 187 221 258 321
#     4  11  25  45  65  79  97 139 191 229 272 339
#     4  10  19  32  54  84 112 142 181 225 277 325
#     4  10  21  36  54  77 110 148 184 222 266 319
#     4   9  20  37  55  76 103 143 185 217 259 323
#
# _framework density 18.230733000000001
#
# number of rings (size 3 to 8) (size 9 to 14) (size 15 to 20)
#    0.000    2.333    0.000    4.200    2.800    5.333 
#    0.000    0.667    0.000    3.600    0.000    2.800 
#    0.000    0.000    0.000    0.000    0.000    0.000 
#
# Total GULP energy -744063.902808 kJ/mol
# GULP energy per Si atom -12401.065047 kJ/mol
# Density = 1.818924 g / cm^3
# Si number density = 18.230733 Si / 1000 Ang^3
#
#
#
# Elastic Constant Matrix: (Units=GPa)
#
#
# Indices 1 2 3 4 5 6 
#
# 1 126.0023 71.4463 43.2529 0.0000 0.0000 0.0000
# 2 71.4463 116.9745 43.2986 0.0000 0.0000 0.0000
# 3 43.2529 43.2986 61.8402 0.0000 0.0000 0.0000
# 4 0.0000 0.0000 0.0000 23.0417 0.0000 0.0000
# 5 0.0000 0.0000 0.0000 0.0000 21.5626 0.0000
# 6 0.0000 0.0000 0.0000 0.0000 0.0000 24.5077
#
#
#
# Elastic Compliance Matrix: (Units=1/GPa)
#
#
# Indices 1 2 3 4 5 6 
#
# 1 0.013124 -0.006234 -0.004814 0.000000 0.000000 0.000000
# 2 -0.006234 0.014501 -0.005793 0.000000 0.000000 0.000000
# 3 -0.004814 -0.005793 0.023594 0.000000 0.000000 0.000000
# 4 0.000000 0.000000 0.000000 0.043400 0.000000 0.000000
# 5 0.000000 0.000000 0.000000 0.000000 0.046377 0.000000
# 6 0.000000 0.000000 0.000000 0.000000 0.000000 0.040803
#
#
# Mechanical properties :
#
#
# Convention : Reuss Voigt Hill
#
# Bulk Modulus (GPa) = 57.02437 68.97917 63.00177
# Shear Modulus (GPa) = 22.59118 23.61035 23.10076
#
# Velocity S-wave (km/s) = 3.52402 3.60263 3.56354
# Velocity P-wave (km/s) = 6.92138 7.43130 7.18086
#
# Compressibility (1/GPa) = 0.01753636
#
# Stress axis : x y z
#
# Youngs Moduli (GPa) = 76.19834 68.96305 42.38353
#
# Poissons Ratio (x) = 0.42989 0.20405
# Poissons Ratio (y) = 0.47499 0.24552
# Poissons Ratio (z) = 0.36686 0.39949
#
# Static dielectric constant tensor:
#      x y z
#    x 3.464020 0.000000 0.000000 
#    y 0.000000 3.547850 0.000000 
#    z 0.000000 0.000000 3.249630 
# 
# 
# High freq. dielectric constant tensor:
#      x y z
#    x 1.709490 0.000000 0.000000 
#    y 0.000000 1.702140 0.000000 
#    z 0.000000 0.000000 1.695690 
# 
# From -- ./inp_files/15676.got.cif
#   From: 2010.06.25/outbox.cif.g09.slc.cpg/sg71_8_cif.got.tgz:15676.got - 2010.06.28 04:59:45.
