data_PCOD8289438
_publ_section_title
;
Structure prediction by ZEFSAII (Michael W. Deem and Ramdas Pophale) SiO2 
 PCOD8289438
Probable space group: I M M M
;
_chemical_formula_sum "Si O2"
_cell_formula_units_Z 104
_cell_length_a 20.755657
_cell_length_b 29.837344
_cell_length_c 9.027583
_cell_angle_alpha 90.000000
_cell_angle_beta 90.000000
_cell_angle_gamma 90.000000
_cell_volume 5590.725078
_symmetry_space_group_name_H-M "I M M M"
_symmetry_group_IT_number 71
_symmetry_cell_setting 'orthorhombic'
loop_
_space_group_symop_operation_xyz
x,y,z
-x,-y,z
x,-y,-z
-x,y,-z
-x,-y,-z
x,y,-z
-x,y,z
x,-y,z
1/2+x,1/2+y,1/2+z
1/2-x,1/2-y,1/2+z
1/2+x,1/2-y,1/2-z
1/2-x,1/2+y,1/2-z
1/2-x,1/2-y,1/2-z
1/2+x,1/2+y,1/2-z
1/2-x,1/2+y,1/2+z
1/2+x,1/2-y,1/2+z
loop_
_atom_site_type_symbol
_atom_site_label
_atom_site_fract_x
_atom_site_fract_y
_atom_site_fract_z
Si Si1 0.500000 0.947024 0.165019
Si Si2 0.863553 0.870733 0.674003
Si Si3 0.128902 0.448691 0.824732
Si Si4 0.924276 0.049795 0.165423
Si Si5 0.812398 0.272297 0.175011
Si Si6 0.425801 0.279653 0.824755
Si Si7 0.278759 0.128683 0.673918
O O1 0.563037 0.931119 0.252303
O O2 0.500000 0.000000 0.156297
O O3 0.500000 0.926127 0.000000
O O4 0.857968 0.867379 0.500000
O O5 0.895030 0.917578 0.714199
O O6 0.907237 0.829575 0.730467
O O7 0.792381 0.868593 0.746024
O O8 0.145907 0.500000 0.778345
O O9 0.183689 0.414888 0.763603
O O10 0.120275 0.445185 0.000000
O O11 0.000000 0.049244 0.185244
O O12 0.896756 0.000000 0.194476
O O13 0.905677 0.065772 0.000000
O O14 0.750000 0.250000 0.250000
O O15 0.879306 0.254346 0.239959
O O16 0.814906 0.325143 0.211231
O O17 0.808102 0.263142 0.000000
O O18 0.500000 0.270185 0.781152
O O19 0.415210 0.274231 0.000000
O O20 0.271846 0.122196 0.500000
#
# Coordination Sequence:
#
# PCOD8289438 Si02
#       7
#     8  16  16  16  16  16  16
#     4   9  17  31  51  75 105 139 173 215 265 315
#     4  10  19  34  56  80 106 139 180 224 272 321
#     4   9  17  32  55  79 103 137 179 219 264 319
#     4   9  19  35  51  71 106 146 180 220 268 315
#     4  11  21  38  61  82 111 149 188 229 279 336
#     4  10  21  38  59  84 115 146 182 234 285 329
#     4   9  19  35  55  80 108 137 175 223 267 314
#
# _framework density 18.602238
#
# number of rings (size 3 to 8) (size 9 to 14) (size 15 to 20)
#    0.000    2.385    1.538    1.615    0.000    3.692 
#    1.385    4.615    0.000    1.846    0.000    0.000 
#    0.000    0.000    0.000    0.000    0.000    0.000 
#
# Total GULP energy -644644.651809 kJ/mol
# GULP energy per Si atom -12397.012535 kJ/mol
# Density = 1.855990 g / cm^3
# Si number density = 18.602238 Si / 1000 Ang^3
#
#
#
# Elastic Constant Matrix: (Units=GPa)
#
#
# Indices 1 2 3 4 5 6 
#
# 1 119.8815 66.0279 38.1157 0.0000 0.0000 0.0000
# 2 66.0279 117.2041 30.5273 0.0000 0.0000 0.0000
# 3 38.1157 30.5273 38.3538 0.0000 0.0000 0.0000
# 4 0.0000 0.0000 0.0000 25.5671 0.0000 0.0000
# 5 0.0000 0.0000 0.0000 0.0000 23.6009 0.0000
# 6 0.0000 0.0000 0.0000 0.0000 0.0000 35.9187
#
#
#
# Elastic Compliance Matrix: (Units=1/GPa)
#
#
# Indices 1 2 3 4 5 6 
#
# 1 0.014643 -0.005625 -0.010075 0.000000 0.000000 0.000000
# 2 -0.005625 0.012924 -0.004697 0.000000 0.000000 0.000000
# 3 -0.010075 -0.004697 0.039824 0.000000 0.000000 0.000000
# 4 0.000000 0.000000 0.000000 0.039113 0.000000 0.000000
# 5 0.000000 0.000000 0.000000 0.000000 0.042371 0.000000
# 6 0.000000 0.000000 0.000000 0.000000 0.000000 0.027841
#
#
# Mechanical properties :
#
#
# Convention : Reuss Voigt Hill
#
# Bulk Modulus (GPa) = 37.59744 60.53124 49.06434
# Shear Modulus (GPa) = 22.08721 26.40192 24.24456
#
# Velocity S-wave (km/s) = 3.44952 3.77143 3.61406
# Velocity P-wave (km/s) = 6.01005 7.18160 6.62178
#
# Compressibility (1/GPa) = 0.02659755
#
# Stress axis : x y z
#
# Youngs Moduli (GPa) = 68.29201 77.37274 25.11063
#
# Poissons Ratio (x) = 0.43523 0.25299
# Poissons Ratio (y) = 0.38415 0.11794
# Poissons Ratio (z) = 0.68803 0.36341
#
# Static dielectric constant tensor:
#      x y z
#    x 3.586420 0.000000 0.000000 
#    y 0.000000 3.608110 0.000000 
#    z 0.000000 0.000000 3.288490 
# 
# 
# High freq. dielectric constant tensor:
#      x y z
#    x 1.725800 0.000000 0.000000 
#    y 0.000000 1.722010 0.000000 
#    z 0.000000 0.000000 1.701300 
# 
# From -- ./inp_files/11494.got.cif
#   From: 2010.06.25/outbox.cif.g09.slc.cpg/sg71_6_cif.got.tgz:11494.got - 2010.06.28 04:59:45.
