data_PCOD8289662
_publ_section_title
;
Structure prediction by ZEFSAII (Michael W. Deem and Ramdas Pophale) SiO2 
 PCOD8289662
Probable space group: I M M M
;
_chemical_formula_sum "Si O2"
_cell_formula_units_Z 120
_cell_length_a 19.408438
_cell_length_b 13.485311
_cell_length_c 23.422558
_cell_angle_alpha 90.000000
_cell_angle_beta 90.000000
_cell_angle_gamma 90.000000
_cell_volume 6130.358524
_symmetry_space_group_name_H-M "I M M M"
_symmetry_group_IT_number 71
_symmetry_cell_setting 'orthorhombic'
loop_
_space_group_symop_operation_xyz
x,y,z
-x,-y,z
x,-y,-z
-x,y,-z
-x,-y,-z
x,y,-z
-x,y,z
x,-y,z
1/2+x,1/2+y,1/2+z
1/2-x,1/2-y,1/2+z
1/2+x,1/2-y,1/2-z
1/2-x,1/2+y,1/2-z
1/2-x,1/2-y,1/2-z
1/2+x,1/2+y,1/2-z
1/2-x,1/2+y,1/2+z
1/2+x,1/2-y,1/2+z
loop_
_atom_site_type_symbol
_atom_site_label
_atom_site_fract_x
_atom_site_fract_y
_atom_site_fract_z
Si Si1 0.280329 0.391323 0.361411
Si Si2 0.580562 0.500000 0.934347
Si Si3 0.078515 0.282672 0.255910
Si Si4 0.678336 0.386649 0.766983
Si Si5 0.627983 0.293484 0.063370
Si Si6 0.380959 0.888384 0.137850
Si Si7 0.290781 0.212545 0.436123
Si Si8 0.179049 0.613437 0.174430
O O1 0.295636 0.500000 0.386249
O O2 0.315902 0.376201 0.300833
O O3 0.199699 0.376585 0.350642
O O4 0.312663 0.316737 0.407594
O O5 0.500000 0.500000 0.927835
O O6 0.609167 0.601676 0.905361
O O7 0.605883 0.500000 0.000000
O O8 0.116046 0.186548 0.284312
O O9 0.079866 0.370197 0.302690
O O10 0.117712 0.319976 0.199376
O O11 0.000000 0.256172 0.239581
O O12 0.661071 0.500000 0.784598
O O13 0.748226 0.350812 0.798507
O O14 0.595395 0.196553 0.093446
O O15 0.709305 0.288039 0.060106
O O16 0.595475 0.293623 0.000000
O O17 0.398858 0.000000 0.115800
O O18 0.322434 0.200945 0.500000
O O19 0.318186 0.125927 0.394361
O O20 0.164870 0.500000 0.190178
#
# Coordination Sequence:
#
# PCOD8289662 Si02
#       8
#    16   8  16  16  16  16  16  16
#     4   9  16  31  58  86 113 143 180 230 282 342
#     4   9  18  34  54  72 102 150 197 233 274 340
#     4  12  24  38  57  84 119 151 188 241 293 348
#     4  10  19  36  63  88 112 146 189 236 289 350
#     4   9  19  34  54  82 113 147 188 236 289 341
#     4  10  20  35  55  81 113 149 188 231 285 338
#     4  10  20  33  53  84 118 146 183 239 290 336
#     4  11  22  37  60  85 112 153 197 237 288 347
#
# _framework density 19.574712000000002
#
# number of rings (size 3 to 8) (size 9 to 14) (size 15 to 20)
#    0.000    1.933    2.667    2.400    0.933    2.667 
#    1.200    2.667    0.000    0.400    0.000    3.733 
#    0.000    2.133    0.000    0.000    0.000    0.000 
#
# Total GULP energy -743810.178439 kJ/mol
# GULP energy per Si atom -12396.836307 kJ/mol
# Density = 1.953016 g / cm^3
# Si number density = 19.574712 Si / 1000 Ang^3
#
#
#
# Elastic Constant Matrix: (Units=GPa)
#
#
# Indices 1 2 3 4 5 6 
#
# 1 69.1593 36.7998 16.0361 0.0000 0.0000 0.0000
# 2 36.7998 139.0561 32.0288 0.0000 0.0000 0.0000
# 3 16.0361 32.0288 88.0873 0.0000 0.0000 0.0000
# 4 0.0000 0.0000 0.0000 28.2037 0.0000 0.0000
# 5 0.0000 0.0000 0.0000 0.0000 5.7843 0.0000
# 6 0.0000 0.0000 0.0000 0.0000 0.0000 12.4311
#
#
#
# Elastic Compliance Matrix: (Units=1/GPa)
#
#
# Indices 1 2 3 4 5 6 
#
# 1 0.017032 -0.004140 -0.001595 0.000000 0.000000 0.000000
# 2 -0.004140 0.008855 -0.002466 0.000000 0.000000 0.000000
# 3 -0.001595 -0.002466 0.012539 0.000000 0.000000 0.000000
# 4 0.000000 0.000000 0.000000 0.035456 0.000000 0.000000
# 5 0.000000 0.000000 0.000000 0.000000 0.172882 0.000000
# 6 0.000000 0.000000 0.000000 0.000000 0.000000 0.080443
#
#
# Mechanical properties :
#
#
# Convention : Reuss Voigt Hill
#
# Bulk Modulus (GPa) = 45.40519 51.78132 48.59325
# Shear Modulus (GPa) = 14.24695 23.37970 18.81332
#
# Velocity S-wave (km/s) = 2.70075 3.45973 3.10353
# Velocity P-wave (km/s) = 5.74209 6.51692 6.14174
#
# Compressibility (1/GPa) = 0.02202392
#
# Stress axis : x y z
#
# Youngs Moduli (GPa) = 58.71251 112.93146 79.74825
#
# Poissons Ratio (x) = 0.46753 0.12723
# Poissons Ratio (y) = 0.24307 0.19666
# Poissons Ratio (z) = 0.09367 0.27849
#
# Static dielectric constant tensor:
#      x y z
#    x 3.104400 0.000000 0.000000 
#    y 0.000000 3.979000 0.000000 
#    z 0.000000 0.000000 3.677830 
# 
# 
# High freq. dielectric constant tensor:
#      x y z
#    x 1.707630 0.000000 0.000000 
#    y 0.000000 1.784440 0.000000 
#    z 0.000000 0.000000 1.751690 
# 
# From -- ./inp_files/55115.got.cif
#   From: 2010.06.25/outbox.cif.g09.slc.cpg/sg71_28_cif.got.tgz:55115.got - 2010.06.28 04:59:45.
