data_PCOD8289863
_publ_section_title
;
Structure prediction by ZEFSAII (Michael W. Deem and Ramdas Pophale) SiO2 
 PCOD8289863
Probable space group: I M M M
;
_chemical_formula_sum "Si O2"
_cell_formula_units_Z 96
_cell_length_a 24.739375
_cell_length_b 24.866447
_cell_length_c 9.036805
_cell_angle_alpha 90.000000
_cell_angle_beta 90.000000
_cell_angle_gamma 90.000000
_cell_volume 5559.264928
_symmetry_space_group_name_H-M "I M M M"
_symmetry_group_IT_number 71
_symmetry_cell_setting 'orthorhombic'
loop_
_space_group_symop_operation_xyz
x,y,z
-x,-y,z
x,-y,-z
-x,y,-z
-x,-y,-z
x,y,-z
-x,y,z
x,-y,z
1/2+x,1/2+y,1/2+z
1/2-x,1/2-y,1/2+z
1/2+x,1/2-y,1/2-z
1/2-x,1/2+y,1/2-z
1/2-x,1/2-y,1/2-z
1/2+x,1/2+y,1/2-z
1/2-x,1/2+y,1/2+z
1/2+x,1/2-y,1/2+z
loop_
_atom_site_type_symbol
_atom_site_label
_atom_site_fract_x
_atom_site_fract_y
_atom_site_fract_z
Si Si1 0.755505 0.193596 0.328451
Si Si2 0.935758 0.500000 0.166882
Si Si3 0.359791 0.685899 0.672708
Si Si4 0.136166 0.687621 0.832298
Si Si5 0.935729 0.000000 0.832708
Si Si6 0.436120 0.606767 0.829476
Si Si7 0.437790 0.106378 0.172946
O O1 0.769921 0.202111 0.500000
O O2 0.750000 0.250000 0.250000
O O3 0.804695 0.162481 0.247824
O O4 0.697280 0.164380 0.311673
O O5 0.914061 0.446588 0.247369
O O6 0.000000 0.500000 0.173859
O O7 0.913790 0.500000 0.000000
O O8 0.357847 0.672603 0.500000
O O9 0.365593 0.749173 0.703706
O O10 0.410893 0.657627 0.746838
O O11 0.096118 0.658102 0.721095
O O12 0.116584 0.677371 0.000000
O O13 0.914322 0.947570 0.747079
O O14 0.000000 0.000000 0.833285
O O15 0.912995 0.000000 0.000000
O O16 0.500000 0.612161 0.812834
O O17 0.418314 0.605805 0.000000
O O18 0.500000 0.116596 0.217099
O O19 0.431370 0.097153 0.000000
#
# Coordination Sequence:
#
# PCOD8289863 Si02
#       7
#    16   8  16  16   8  16  16
#     4   9  17  31  50  71  95 125 164 205 243 287
#     4   9  17  31  51  70  91 124 163 199 236 282
#     4  10  20  33  50  73 100 131 166 203 244 290
#     4   9  19  33  49  71  98 129 163 198 239 288
#     4   9  17  31  51  72  95 126 165 205 242 286
#     4  10  20  33  50  73 101 132 165 202 245 292
#     4  10  20  32  48  72 100 128 160 199 240 283
#
# _framework density 17.268470000000001
#
# number of rings (size 3 to 8) (size 9 to 14) (size 15 to 20)
#    0.000    2.500    0.000    3.500    0.000    8.667 
#    0.000    3.333    0.000    1.000    0.000    1.167 
#    0.000    0.000    0.000    0.000    0.000    0.000 
#
# Total GULP energy -595111.301292 kJ/mol
# GULP energy per Si atom -12398.152110 kJ/mol
# Density = 1.722917 g / cm^3
# Si number density = 17.268470 Si / 1000 Ang^3
#
#
#
# Elastic Constant Matrix: (Units=GPa)
#
#
# Indices 1 2 3 4 5 6 
#
# 1 63.0321 41.0096 52.1531 0.0000 0.0000 0.0000
# 2 41.0096 76.3806 53.6167 0.0000 0.0000 0.0000
# 3 52.1531 53.6167 136.7885 0.0000 0.0000 0.0000
# 4 0.0000 0.0000 0.0000 33.9909 0.0000 0.0000
# 5 0.0000 0.0000 0.0000 0.0000 31.3166 0.0000
# 6 0.0000 0.0000 0.0000 0.0000 0.0000 4.1757
#
#
#
# Elastic Compliance Matrix: (Units=1/GPa)
#
#
# Indices 1 2 3 4 5 6 
#
# 1 0.028163 -0.010462 -0.006637 0.000000 0.000000 0.000000
# 2 -0.010462 0.021949 -0.004614 0.000000 0.000000 0.000000
# 3 -0.006637 -0.004614 0.011650 0.000000 0.000000 0.000000
# 4 0.000000 0.000000 0.000000 0.029420 0.000000 0.000000
# 5 0.000000 0.000000 0.000000 0.000000 0.031932 0.000000
# 6 0.000000 0.000000 0.000000 0.000000 0.000000 0.239482
#
#
# Mechanical properties :
#
#
# Convention : Reuss Voigt Hill
#
# Bulk Modulus (GPa) = 54.54125 63.30666 58.92395
# Shear Modulus (GPa) = 12.13199 22.52475 17.32837
#
# Velocity S-wave (km/s) = 2.65344 3.61555 3.17119
# Velocity P-wave (km/s) = 6.40629 7.35999 6.89964
#
# Compressibility (1/GPa) = 0.01833475
#
# Stress axis : x y z
#
# Youngs Moduli (GPa) = 35.50731 45.56075 85.83977
#
# Poissons Ratio (x) = 0.47667 0.56971
# Poissons Ratio (y) = 0.37149 0.39609
# Poissons Ratio (z) = 0.23566 0.21023
#
# Static dielectric constant tensor:
#      x y z
#    x 3.251720 0.000000 0.000000 
#    y 0.000000 3.053820 0.000000 
#    z 0.000000 0.000000 3.433120 
# 
# 
# High freq. dielectric constant tensor:
#      x y z
#    x 1.649310 0.000000 0.000000 
#    y 0.000000 1.645410 0.000000 
#    z 0.000000 0.000000 1.686520 
# 
# From -- ./inp_files/12881.got.cif
#   From: 2010.06.25/outbox.cif.g09.slc.cpg/sg71_7_cif.got.tgz:12881.got - 2010.06.28 04:59:45.
