data_PCOD8289580
_publ_section_title
;
Structure prediction by ZEFSAII (Michael W. Deem and Ramdas Pophale) SiO2 
 PCOD8289580
Probable space group: I M M M
;
_chemical_formula_sum "Si O2"
_cell_formula_units_Z 88
_cell_length_a 14.027352
_cell_length_b 14.665293
_cell_length_c 22.302807
_cell_angle_alpha 90.000000
_cell_angle_beta 90.000000
_cell_angle_gamma 90.000000
_cell_volume 4588.027007
_symmetry_space_group_name_H-M "I M M M"
_symmetry_group_IT_number 71
_symmetry_cell_setting 'orthorhombic'
loop_
_space_group_symop_operation_xyz
x,y,z
-x,-y,z
x,-y,-z
-x,y,-z
-x,-y,-z
x,y,-z
-x,y,z
x,-y,z
1/2+x,1/2+y,1/2+z
1/2-x,1/2-y,1/2+z
1/2+x,1/2-y,1/2-z
1/2-x,1/2+y,1/2-z
1/2-x,1/2-y,1/2-z
1/2+x,1/2+y,1/2-z
1/2-x,1/2+y,1/2+z
1/2+x,1/2-y,1/2+z
loop_
_atom_site_type_symbol
_atom_site_label
_atom_site_fract_x
_atom_site_fract_y
_atom_site_fract_z
Si Si1 0.391495 0.653956 0.723382
Si Si2 0.779252 0.395876 0.639607
Si Si3 0.894317 0.363902 0.754724
Si Si4 0.730463 0.403263 0.833833
Si Si5 0.000000 0.104899 0.570241
Si Si6 0.813426 0.220960 0.430301
O O1 0.500000 0.617768 0.714731
O O2 0.325242 0.616823 0.669461
O O3 0.388122 0.761862 0.721449
O O4 0.354003 0.625353 0.788737
O O5 0.787394 0.500000 0.616487
O O6 0.861711 0.371884 0.686311
O O7 0.803405 0.328647 0.583732
O O8 0.825124 0.422723 0.795662
O O9 0.000000 0.403907 0.759658
O O10 0.701826 0.500000 0.863822
O O11 0.758812 0.330622 0.885544
O O12 0.910617 0.168133 0.589377
O O13 0.000000 0.093849 0.500000
O O14 0.000000 0.000000 0.597248
O O15 0.790005 0.205825 0.500000
#
# Coordination Sequence:
#
# PCOD8289580 Si02
#       6
#    16  16  16  16   8  16
#     4  10  19  35  60  86 116 148 183 238 298 344
#     4  11  22  37  58  85 116 153 195 233 284 344
#     4  10  19  35  58  83 114 148 182 230 288 346
#     4  11  21  34  56  85 113 144 184 229 289 351
#     4   9  20  38  59  81 107 147 194 236 282 329
#     4  11  23  40  56  79 116 152 193 239 275 326
#
# _framework density 19.180357999999998
#
# number of rings (size 3 to 8) (size 9 to 14) (size 15 to 20)
#    0.000    1.545    3.636    3.818    2.545    4.364 
#    0.000    0.000    0.000    3.818    0.000    2.545 
#    0.000    0.000    0.000    0.000    0.000    0.000 
#
# Total GULP energy -545112.095034 kJ/mol
# GULP energy per Si atom -12388.911251 kJ/mol
# Density = 1.913670 g / cm^3
# Si number density = 19.180358 Si / 1000 Ang^3
#
#
#
# Elastic Constant Matrix: (Units=GPa)
#
#
# Indices 1 2 3 4 5 6 
#
# 1 111.3079 27.5248 24.4061 0.0000 0.0000 0.0000
# 2 27.5248 114.3982 24.8169 0.0000 0.0000 0.0000
# 3 24.4061 24.8169 83.5159 0.0000 0.0000 0.0000
# 4 0.0000 0.0000 0.0000 16.4981 0.0000 0.0000
# 5 0.0000 0.0000 0.0000 0.0000 13.5710 0.0000
# 6 0.0000 0.0000 0.0000 0.0000 0.0000 -76.7970
#
#
#
# Elastic Compliance Matrix: (Units=1/GPa)
#
#
# Indices 1 2 3 4 5 6 
#
# 1 0.009967 -0.001888 -0.002352 0.000000 0.000000 0.000000
# 2 -0.001888 0.009701 -0.002331 0.000000 0.000000 0.000000
# 3 -0.002352 -0.002331 0.013354 0.000000 0.000000 0.000000
# 4 0.000000 0.000000 0.000000 0.060613 0.000000 0.000000
# 5 0.000000 0.000000 0.000000 0.000000 0.073686 0.000000
# 6 0.000000 0.000000 0.000000 0.000000 0.000000 -0.013021
#
#
# Mechanical properties :
#
#
# Convention : Reuss Voigt Hill
#
# Bulk Modulus (GPa) = 50.30051 51.41305 50.85678
# Shear Modulus (GPa) = 28.72451 6.15271 17.43861
#
# Velocity S-wave (km/s) = 3.87408 1.79298 3.01855
# Velocity P-wave (km/s) = 6.80392 5.58118 6.22266
#
# Compressibility (1/GPa) = 0.01988051
#
# Stress axis : x y z
#
# Youngs Moduli (GPa) = 100.33569 103.07881 74.88593
#
# Poissons Ratio (x) = 0.19460 0.17610
# Poissons Ratio (y) = 0.18942 0.17456
# Poissons Ratio (z) = 0.23595 0.24028
#
# Static dielectric constant tensor:
#      x y z
#    x 3.691120 0.000000 0.000000 
#    y 0.000000 3.735680 0.000000 
#    z 0.000000 0.000000 3.191750 
# 
# 
# High freq. dielectric constant tensor:
#      x y z
#    x 1.735480 0.000000 0.000000 
#    y 0.000000 1.769660 0.000000 
#    z 0.000000 0.000000 1.714520 
# 
# From -- ./inp_files/34374.got.cif
#   From: 2010.06.25/outbox.cif.g09.slc.cpg/sg71_18_cif.got.tgz:34374.got - 2010.06.28 04:59:45.
