data_PCOD8289926
_publ_section_title
;
Structure prediction by ZEFSAII (Michael W. Deem and Ramdas Pophale) SiO2 
 PCOD8289926
Probable space group: I M M M
;
_chemical_formula_sum "Si O2"
_cell_formula_units_Z 64
_cell_length_a 9.523853
_cell_length_b 40.398699
_cell_length_c 9.487422
_cell_angle_alpha 90.000000
_cell_angle_beta 90.000000
_cell_angle_gamma 90.000000
_cell_volume 3650.297670
_symmetry_space_group_name_H-M "I M M M"
_symmetry_group_IT_number 71
_symmetry_cell_setting 'orthorhombic'
loop_
_space_group_symop_operation_xyz
x,y,z
-x,-y,z
x,-y,-z
-x,y,-z
-x,-y,-z
x,y,-z
-x,y,z
x,-y,z
1/2+x,1/2+y,1/2+z
1/2-x,1/2-y,1/2+z
1/2+x,1/2-y,1/2-z
1/2-x,1/2+y,1/2-z
1/2-x,1/2-y,1/2-z
1/2+x,1/2+y,1/2-z
1/2-x,1/2+y,1/2+z
1/2+x,1/2-y,1/2+z
loop_
_atom_site_type_symbol
_atom_site_label
_atom_site_fract_x
_atom_site_fract_y
_atom_site_fract_z
Si Si1 0.660978 0.776110 0.334975
Si Si2 0.338970 0.461450 0.160972
Si Si3 0.333154 0.150310 0.656219
Si Si4 0.834165 0.589187 0.662594
O O1 0.678240 0.769275 0.500000
O O2 0.500000 0.772334 0.288291
O O3 0.750000 0.750000 0.250000
O O4 0.717294 0.813053 0.297977
O O5 0.500000 0.451633 0.190069
O O6 0.315614 0.500000 0.190640
O O7 0.238611 0.442038 0.266095
O O8 0.298613 0.452928 0.000000
O O9 0.275133 0.141599 0.500000
O O10 0.500000 0.150692 0.651148
O O11 0.277882 0.122989 0.765870
O O12 0.791115 0.590510 0.500000
O O13 0.000000 0.585232 0.683020
#
# Coordination Sequence:
#
# PCOD8289926 Si02
#       4
#    16  16  16  16
#     4   9  18  32  50  73  99 127 162 202 242 287
#     4   9  19  36  55  73  95 127 166 202 237 283
#     4   8  15  30  50  69  93 128 166 201 238 282
#     4  10  20  32  49  76 104 127 157 199 244 289
#
# _framework density 17.532817999999999
#
# number of rings (size 3 to 8) (size 9 to 14) (size 15 to 20)
#    0.000    3.000    0.000    3.000    0.000    4.500 
#    0.000    7.500    0.000    1.500    0.000    0.000 
#    0.000    0.000    0.000    0.000    0.000    0.000 
#
# Total GULP energy -396723.703920 kJ/mol
# GULP energy per Si atom -12397.615747 kJ/mol
# Density = 1.749291 g / cm^3
# Si number density = 17.532818 Si / 1000 Ang^3
#
#
#
# Elastic Constant Matrix: (Units=GPa)
#
#
# Indices 1 2 3 4 5 6 
#
# 1 44.8948 47.1160 49.4712 0.0009 -0.0001 -0.0004
# 2 47.1160 124.4323 87.0103 0.0040 0.0014 0.0014
# 3 49.4712 87.0103 125.3835 0.0064 0.0027 0.0028
# 4 0.0009 0.0040 0.0064 37.1912 0.0021 0.0017
# 5 -0.0001 0.0014 0.0027 0.0021 28.9140 0.0032
# 6 -0.0004 0.0014 0.0028 0.0017 0.0032 29.5975
#
#
#
# Elastic Compliance Matrix: (Units=1/GPa)
#
#
# Indices 1 2 3 4 5 6 
#
# 1 0.043815 -0.008746 -0.011218 0.000002 0.000002 0.000002
# 2 -0.008746 0.017358 -0.008595 0.000000 0.000000 0.000000
# 3 -0.011218 -0.008595 0.018366 -0.000002 -0.000001 -0.000001
# 4 0.000002 0.000000 -0.000002 0.026888 -0.000002 -0.000002
# 5 0.000002 0.000000 -0.000001 -0.000002 0.034585 -0.000004
# 6 0.000002 0.000000 -0.000001 -0.000002 -0.000004 0.033787
#
#
# Mechanical properties :
#
#
# Convention : Reuss Voigt Hill
#
# Bulk Modulus (GPa) = 44.60121 73.54506 59.07313
# Shear Modulus (GPa) = 20.88631 26.54808 23.71719
#
# Velocity S-wave (km/s) = 3.45522 3.89549 3.68194
# Velocity P-wave (km/s) = 6.43522 7.89121 7.20011
#
# Compressibility (1/GPa) = 0.02242092
#
# Stress axis : x y z
#
# Youngs Moduli (GPa) = 22.82344 57.60937 54.44736
#
# Poissons Ratio (x) = 0.50384 0.61080
# Poissons Ratio (y) = 0.19961 0.46798
# Poissons Ratio (z) = 0.25604 0.49516
#
# Static dielectric constant tensor:
#      x y z
#    x 2.974610 0.000000 0.000000 
#    y 0.000000 3.401930 0.000000 
#    z 0.000000 0.000000 3.298450 
# 
# 
# High freq. dielectric constant tensor:
#      x y z
#    x 1.646840 0.000000 0.000000 
#    y 0.000000 1.689040 0.000000 
#    z 0.000000 0.000000 1.678020 
# 
# From -- ./inp_files/3694.got.cif
#   From: 2010.06.25/outbox.cif.g09.slc.cpg/sg71_2_cif.got.tgz:3694.got - 2010.06.28 04:59:45.
