data_PCOD8289709
_publ_section_title
;
Structure prediction by ZEFSAII (Michael W. Deem and Ramdas Pophale) SiO2 
 PCOD8289709
Probable space group: I M M M
;
_chemical_formula_sum "Si O2"
_cell_formula_units_Z 88
_cell_length_a 21.394052
_cell_length_b 9.390655
_cell_length_c 31.865137
_cell_angle_alpha 90.000000
_cell_angle_beta 90.000000
_cell_angle_gamma 90.000000
_cell_volume 6401.838626
_symmetry_space_group_name_H-M "I M M M"
_symmetry_group_IT_number 71
_symmetry_cell_setting 'orthorhombic'
loop_
_space_group_symop_operation_xyz
x,y,z
-x,-y,z
x,-y,-z
-x,y,-z
-x,-y,-z
x,y,-z
-x,y,z
x,-y,z
1/2+x,1/2+y,1/2+z
1/2-x,1/2-y,1/2+z
1/2+x,1/2-y,1/2-z
1/2-x,1/2+y,1/2-z
1/2-x,1/2-y,1/2-z
1/2+x,1/2+y,1/2-z
1/2-x,1/2+y,1/2+z
1/2+x,1/2-y,1/2+z
loop_
_atom_site_type_symbol
_atom_site_label
_atom_site_fract_x
_atom_site_fract_y
_atom_site_fract_z
Si Si1 0.325280 0.831389 0.619436
Si Si2 0.070190 0.669533 0.815872
Si Si3 0.268534 0.656768 0.188816
Si Si4 0.877887 0.833124 0.951192
Si Si5 0.000000 0.659623 0.049204
Si Si6 0.156997 0.657694 0.745149
O O1 0.386850 0.782211 0.645317
O O2 0.263160 0.789495 0.645577
O O3 0.323172 0.738758 0.576623
O O4 0.326848 0.000000 0.609656
O O5 0.071004 0.500000 0.813671
O O6 0.099311 0.725648 0.771633
O O7 0.000000 0.729825 0.821793
O O8 0.296247 0.500000 0.181743
O O9 0.215999 0.651840 0.224253
O O10 0.326631 0.753512 0.203368
O O11 0.940042 0.749442 0.937044
O O12 0.885746 0.000000 0.941315
O O13 0.862085 0.809116 0.000000
O O14 0.000000 0.500000 0.070196
O O15 0.000000 0.639230 0.000000
O O16 0.139736 0.500000 0.729479
#
# Coordination Sequence:
#
# PCOD8289709 Si02
#       6
#    16  16  16  16   8  16
#     4   9  17  27  40  56  70  91 124 155 183 219
#     4   8  14  24  37  54  74  93 118 153 185 212
#     4   8  14  24  36  52  72  89 112 148 181 208
#     4  10  20  31  40  52  72  93 114 149 194 228
#     4   9  17  29  43  53  61  83 119 149 175 217
#     4   8  13  22  37  53  68  90 117 141 173 218
#
# _framework density 13.74605
#
# number of rings (size 3 to 8) (size 9 to 14) (size 15 to 20)
#    0.000    3.364    0.000    3.000    1.273    2.909 
#    0.000    2.727    0.000    1.636    0.000    0.000 
#    0.000    0.000    0.000    0.000    0.000    0.909 
#
# Total GULP energy -545167.594613 kJ/mol
# GULP energy per Si atom -12390.172605 kJ/mol
# Density = 1.371476 g / cm^3
# Si number density = 13.746050 Si / 1000 Ang^3
#
#
#
# Elastic Constant Matrix: (Units=GPa)
#
#
# Indices 1 2 3 4 5 6 
#
# 1 24.4794 14.8295 25.5668 0.0000 0.0000 0.0000
# 2 14.8295 63.5838 41.5043 0.0000 0.0000 0.0000
# 3 25.5668 41.5043 74.0703 0.0000 0.0000 0.0000
# 4 0.0000 0.0000 0.0000 22.3326 0.0000 0.0000
# 5 0.0000 0.0000 0.0000 0.0000 21.4512 0.0000
# 6 0.0000 0.0000 0.0000 0.0000 0.0000 14.7967
#
#
#
# Elastic Compliance Matrix: (Units=1/GPa)
#
#
# Indices 1 2 3 4 5 6 
#
# 1 0.063905 -0.000798 -0.021611 0.000000 0.000000 0.000000
# 2 -0.000798 0.024807 -0.013625 0.000000 0.000000 0.000000
# 3 -0.021611 -0.013625 0.028595 0.000000 0.000000 0.000000
# 4 0.000000 0.000000 0.000000 0.044778 0.000000 0.000000
# 5 0.000000 0.000000 0.000000 0.000000 0.046618 0.000000
# 6 0.000000 0.000000 0.000000 0.000000 0.000000 0.067583
#
#
# Mechanical properties :
#
#
# Convention : Reuss Voigt Hill
#
# Bulk Modulus (GPa) = 22.10471 36.21496 29.15983
# Shear Modulus (GPa) = 13.75775 17.06496 15.41136
#
# Velocity S-wave (km/s) = 3.16706 3.52724 3.35199
# Velocity P-wave (km/s) = 5.43041 6.55679 6.02000
#
# Compressibility (1/GPa) = 0.04523924
#
# Stress axis : x y z
#
# Youngs Moduli (GPa) = 15.64823 40.31126 34.97153
#
# Poissons Ratio (x) = 0.03216 0.75577
# Poissons Ratio (y) = 0.01248 0.47648
# Poissons Ratio (z) = 0.33817 0.54924
#
# Static dielectric constant tensor:
#      x y z
#    x 2.606320 0.000000 0.000000 
#    y 0.000000 2.768840 0.000000 
#    z 0.000000 0.000000 2.665620 
# 
# 
# High freq. dielectric constant tensor:
#      x y z
#    x 1.477730 0.000000 0.000000 
#    y 0.000000 1.516520 0.000000 
#    z 0.000000 0.000000 1.507490 
# 
# From -- ./inp_files/13523.got.cif
#   From: 2010.06.25/outbox.cif.g09.slc.cpg/sg71_7_cif.got.tgz:13523.got - 2010.06.28 04:59:45.
