data_PCOD8289737
_publ_section_title
;
Structure prediction by ZEFSAII (Michael W. Deem and Ramdas Pophale) SiO2 
 PCOD8289737
Probable space group: I M M M
;
_chemical_formula_sum "Si O2"
_cell_formula_units_Z 88
_cell_length_a 27.174581
_cell_length_b 20.330656
_cell_length_c 9.023897
_cell_angle_alpha 90.000000
_cell_angle_beta 90.000000
_cell_angle_gamma 90.000000
_cell_volume 4985.496069
_symmetry_space_group_name_H-M "I M M M"
_symmetry_group_IT_number 71
_symmetry_cell_setting 'orthorhombic'
loop_
_space_group_symop_operation_xyz
x,y,z
-x,-y,z
x,-y,-z
-x,y,-z
-x,-y,-z
x,y,-z
-x,y,z
x,-y,z
1/2+x,1/2+y,1/2+z
1/2-x,1/2-y,1/2+z
1/2+x,1/2-y,1/2-z
1/2-x,1/2+y,1/2-z
1/2-x,1/2-y,1/2-z
1/2+x,1/2+y,1/2-z
1/2-x,1/2+y,1/2+z
1/2+x,1/2-y,1/2+z
loop_
_atom_site_type_symbol
_atom_site_label
_atom_site_fract_x
_atom_site_fract_y
_atom_site_fract_z
Si Si1 0.763797 0.000000 0.334440
Si Si2 0.723982 0.643143 0.169107
Si Si3 0.827441 0.359156 0.325294
Si Si4 0.057437 0.131171 0.827478
Si Si5 0.941460 0.000000 0.667190
Si Si6 0.166807 0.500000 0.670893
Si Si7 0.869142 0.777192 0.325852
O O1 0.794958 0.067100 0.317484
O O2 0.738816 0.000000 0.500000
O O3 0.724777 0.000000 0.202034
O O4 0.774531 0.655840 0.254844
O O5 0.680546 0.688123 0.233878
O O6 0.734187 0.662924 0.000000
O O7 0.818022 0.364679 0.500000
O O8 0.851477 0.428819 0.264524
O O9 0.865232 0.300480 0.289221
O O10 0.084237 0.194875 0.761184
O O11 0.000000 0.141071 0.795860
O O12 0.077860 0.065149 0.749721
O O13 0.068848 0.124818 0.000000
O O14 0.920767 0.000000 0.500000
O O15 0.000000 0.000000 0.669425
O O16 0.154079 0.500000 0.500000
O O17 0.876366 0.790421 0.500000
#
# Coordination Sequence:
#
# PCOD8289737 Si02
#       7
#     8  16  16  16   8   8  16
#     4   8  14  25  39  56  82 117 152 184 218 259
#     4   9  17  28  42  62  90 122 155 191 230 275
#     4   9  17  29  45  66  92 122 157 194 233 281
#     4  10  21  36  52  71  95 122 155 195 235 276
#     4   9  17  32  55  76  94 122 157 192 231 272
#     4   8  14  26  43  61  85 118 152 189 230 270
#     4  10  20  31  45  68  94 122 157 194 236 285
#
# _framework density 17.651202999999999
#
# number of rings (size 3 to 8) (size 9 to 14) (size 15 to 20)
#    0.000    2.818    0.000    1.364    0.000    4.364 
#    0.000    1.818    0.000    2.182    0.000    0.636 
#    0.000    5.091    0.000    0.000    0.000    0.000 
#
# Total GULP energy -545135.652022 kJ/mol
# GULP energy per Si atom -12389.446637 kJ/mol
# Density = 1.761103 g / cm^3
# Si number density = 17.651203 Si / 1000 Ang^3
#
#
#
# Elastic Constant Matrix: (Units=GPa)
#
#
# Indices 1 2 3 4 5 6 
#
# 1 47.5826 50.6544 33.8929 0.0000 0.0000 0.0000
# 2 50.6544 162.2233 45.3333 0.0000 0.0000 0.0000
# 3 33.8929 45.3333 58.9306 0.0000 0.0000 0.0000
# 4 0.0000 0.0000 0.0000 21.5565 0.0000 0.0000
# 5 0.0000 0.0000 0.0000 0.0000 23.1924 0.0000
# 6 0.0000 0.0000 0.0000 0.0000 0.0000 21.4299
#
#
#
# Elastic Compliance Matrix: (Units=1/GPa)
#
#
# Indices 1 2 3 4 5 6 
#
# 1 0.042836 -0.008268 -0.018276 0.000000 0.000000 0.000000
# 2 -0.008268 0.009448 -0.002513 0.000000 0.000000 0.000000
# 3 -0.018276 -0.002513 0.029413 0.000000 0.000000 0.000000
# 4 0.000000 0.000000 0.000000 0.046390 0.000000 0.000000
# 5 0.000000 0.000000 0.000000 0.000000 0.043118 0.000000
# 6 0.000000 0.000000 0.000000 0.000000 0.000000 0.046664
#
#
# Mechanical properties :
#
#
# Convention : Reuss Voigt Hill
#
# Bulk Modulus (GPa) = 42.40262 58.72196 50.56229
# Shear Modulus (GPa) = 17.61531 22.49283 20.05407
#
# Velocity S-wave (km/s) = 3.16249 3.57360 3.37431
# Velocity P-wave (km/s) = 6.11635 7.09702 6.62486
#
# Compressibility (1/GPa) = 0.02358345
#
# Stress axis : x y z
#
# Youngs Moduli (GPa) = 23.34482 105.83806 33.99837
#
# Poissons Ratio (x) = 0.87512 0.62135
# Poissons Ratio (y) = 0.19303 0.08543
# Poissons Ratio (z) = 0.42664 0.26596
#
# Static dielectric constant tensor:
#      x y z
#    x 2.787020 0.000000 0.000000 
#    y 0.000000 3.840800 0.000000 
#    z 0.000000 0.000000 3.246990 
# 
# 
# High freq. dielectric constant tensor:
#      x y z
#    x 1.624020 0.000000 0.000000 
#    y 0.000000 1.704110 0.000000 
#    z 0.000000 0.000000 1.678210 
# 
# From -- ./inp_files/16894.got.cif
#   From: 2010.06.25/outbox.cif.g09.slc.cpg/sg71_9_cif.got.tgz:16894.got - 2010.06.28 04:59:45.
