data_PCOD8289360
_publ_section_title
;
Structure prediction by ZEFSAII (Michael W. Deem and Ramdas Pophale) SiO2 
 PCOD8289360
Probable space group: I M M M
;
_chemical_formula_sum "Si O2"
_cell_formula_units_Z 88
_cell_length_a 18.462696
_cell_length_b 9.199477
_cell_length_c 27.416924
_cell_angle_alpha 90.000000
_cell_angle_beta 90.000000
_cell_angle_gamma 90.000000
_cell_volume 4656.686327
_symmetry_space_group_name_H-M "I M M M"
_symmetry_group_IT_number 71
_symmetry_cell_setting 'orthorhombic'
loop_
_space_group_symop_operation_xyz
x,y,z
-x,-y,z
x,-y,-z
-x,y,-z
-x,-y,-z
x,y,-z
-x,y,z
x,-y,z
1/2+x,1/2+y,1/2+z
1/2-x,1/2-y,1/2+z
1/2+x,1/2-y,1/2-z
1/2-x,1/2+y,1/2-z
1/2-x,1/2-y,1/2-z
1/2+x,1/2+y,1/2-z
1/2-x,1/2+y,1/2+z
1/2+x,1/2-y,1/2+z
loop_
_atom_site_type_symbol
_atom_site_label
_atom_site_fract_x
_atom_site_fract_y
_atom_site_fract_z
Si Si1 0.083126 0.831630 0.756346
Si Si2 0.836110 0.833817 0.851642
Si Si3 0.149077 0.832366 0.416295
Si Si4 0.814148 0.666609 0.054539
Si Si5 0.917713 0.657884 0.500000
Si Si6 0.176436 0.327967 0.321466
O O1 0.098837 0.807435 0.813766
O O2 0.139930 0.732426 0.727463
O O3 0.000000 0.786093 0.745960
O O4 0.096454 0.000000 0.742515
O O5 0.854866 0.749823 0.901780
O O6 0.761335 0.784766 0.825049
O O7 0.828642 0.000000 0.867331
O O8 0.229147 0.814633 0.437411
O O9 0.096365 0.754404 0.453077
O O10 0.136059 0.750545 0.365671
O O11 0.127432 0.000000 0.409877
O O12 0.837826 0.500000 0.058020
O O13 0.833412 0.726523 0.000000
O O14 0.875763 0.500000 0.500000
O O15 0.000000 0.617002 0.500000
O O16 0.164686 0.500000 0.323665
#
# Coordination Sequence:
#
# PCOD8289360 Si02
#       6
#    16  16  16  16   8  16
#     4  10  21  37  55  75 104 141 178 216 260 315
#     4   9  19  34  53  80 107 135 174 217 263 310
#     4  10  19  34  53  73  99 132 172 213 256 307
#     4   9  17  31  52  79 106 130 163 209 259 307
#     4  11  23  35  47  67  99 137 174 215 260 303
#     4  10  20  34  54  80 106 133 171 220 267 310
#
# _framework density 18.897558
#
# number of rings (size 3 to 8) (size 9 to 14) (size 15 to 20)
#    0.000    2.273    0.909    1.909    0.000    4.364 
#    0.000    0.000    0.000    0.545    0.000    3.818 
#    0.000    0.000    0.000    0.000    0.000    0.000 
#
# Total GULP energy -545465.960505 kJ/mol
# GULP energy per Si atom -12396.953648 kJ/mol
# Density = 1.885455 g / cm^3
# Si number density = 18.897558 Si / 1000 Ang^3
#
#
#
# Elastic Constant Matrix: (Units=GPa)
#
#
# Indices 1 2 3 4 5 6 
#
# 1 34.8184 21.9611 21.1568 0.0000 0.0000 0.0000
# 2 21.9611 91.1373 52.1601 0.0000 0.0000 0.0000
# 3 21.1568 52.1601 120.9435 0.0000 0.0000 0.0000
# 4 0.0000 0.0000 0.0000 33.4344 0.0000 0.0000
# 5 0.0000 0.0000 0.0000 0.0000 -2.1900 0.0000
# 6 0.0000 0.0000 0.0000 0.0000 0.0000 17.7441
#
#
#
# Elastic Compliance Matrix: (Units=1/GPa)
#
#
# Indices 1 2 3 4 5 6 
#
# 1 0.034823 -0.006512 -0.003283 0.000000 0.000000 0.000000
# 2 -0.006512 0.015786 -0.005669 0.000000 0.000000 0.000000
# 3 -0.003283 -0.005669 0.011288 0.000000 0.000000 0.000000
# 4 0.000000 0.000000 0.000000 0.029909 0.000000 0.000000
# 5 0.000000 0.000000 0.000000 0.000000 -0.456619 0.000000
# 6 0.000000 0.000000 0.000000 0.000000 0.000000 0.056357
#
#
# Mechanical properties :
#
#
# Convention : Reuss Voigt Hill
#
# Bulk Modulus (GPa) = 32.29137 48.60613 40.44875
# Shear Modulus (GPa) = -18.71221 19.90577 0.59678
#
# Velocity S-wave (km/s) = -3.15015 3.24906 0.56257
# Velocity P-wave (km/s) = 1.97319 6.31283 4.67682
#
# Compressibility (1/GPa) = 0.03096802
#
# Stress axis : x y z
#
# Youngs Moduli (GPa) = 28.71684 63.34645 88.59314
#
# Poissons Ratio (x) = 0.41252 0.29086
# Poissons Ratio (y) = 0.18701 0.50224
# Poissons Ratio (z) = 0.09428 0.35911
#
# Static dielectric constant tensor:
#      x y z
#    x 3.122980 0.000000 0.000000 
#    y 0.000000 3.492880 0.000000 
#    z 0.000000 0.000000 3.533500 
# 
# 
# High freq. dielectric constant tensor:
#      x y z
#    x 1.695950 0.000000 0.000000 
#    y 0.000000 1.738890 0.000000 
#    z 0.000000 0.000000 1.744520 
# 
# From -- ./inp_files/10406.got.cif
#   From: 2010.06.25/outbox.cif.g09.slc.cpg/sg71_6_cif.got.tgz:10406.got - 2010.06.28 04:59:45.
