data_PCOD8289529
_publ_section_title
;
Structure prediction by ZEFSAII (Michael W. Deem and Ramdas Pophale) SiO2 
 PCOD8289529
Probable space group: I M M M
;
_chemical_formula_sum "Si O2"
_cell_formula_units_Z 56
_cell_length_a 7.705216
_cell_length_b 10.308170
_cell_length_c 37.262565
_cell_angle_alpha 90.000000
_cell_angle_beta 90.000000
_cell_angle_gamma 90.000000
_cell_volume 2959.641693
_symmetry_space_group_name_H-M "I M M M"
_symmetry_group_IT_number 71
_symmetry_cell_setting 'orthorhombic'
loop_
_space_group_symop_operation_xyz
x,y,z
-x,-y,z
x,-y,-z
-x,y,-z
-x,-y,-z
x,y,-z
-x,y,z
x,-y,z
1/2+x,1/2+y,1/2+z
1/2-x,1/2-y,1/2+z
1/2+x,1/2-y,1/2-z
1/2-x,1/2+y,1/2-z
1/2-x,1/2-y,1/2-z
1/2+x,1/2+y,1/2-z
1/2-x,1/2+y,1/2+z
1/2+x,1/2-y,1/2+z
loop_
_atom_site_type_symbol
_atom_site_label
_atom_site_fract_x
_atom_site_fract_y
_atom_site_fract_z
Si Si1 0.197659 0.153708 0.908353
Si Si2 0.500000 0.154113 0.040092
Si Si3 0.792530 0.000000 0.783733
Si Si4 0.200309 0.768187 0.168559
Si Si5 0.295497 0.500000 0.796863
O O1 0.325163 0.202041 0.939921
O O2 0.273631 0.216047 0.871664
O O3 0.000000 0.198791 0.917113
O O4 0.204535 0.000000 0.903667
O O5 0.500000 0.000000 0.038483
O O6 0.500000 0.213119 0.000000
O O7 0.717170 0.872474 0.803844
O O8 0.717627 0.000000 0.743311
O O9 0.000000 0.000000 0.782175
O O10 0.228933 0.624132 0.182077
O O11 0.000000 0.803245 0.165863
O O12 0.500000 0.500000 0.795937
#
# Coordination Sequence:
#
# PCOD8289529 Si02
#       5
#    16   8   8  16   8
#     4   9  17  31  53  77 102 141 184 217 265 323
#     4   9  18  30  48  79 117 141 169 221 271 325
#     4   9  18  35  55  73  99 136 182 228 276 322
#     4  10  19  35  55  72 100 142 182 225 268 322
#     4  11  23  33  47  77 109 136 175 229 278 322
#
# _framework density 18.921209999999999
#
# number of rings (size 3 to 8) (size 9 to 14) (size 15 to 20)
#    0.000    2.429    1.429    1.286    2.000    0.571 
#    0.000    5.000    0.000    0.000    0.000    2.000 
#    0.000    4.571    0.000    0.000    0.000    0.000 
#
# Total GULP energy -347125.710386 kJ/mol
# GULP energy per Si atom -12397.346799 kJ/mol
# Density = 1.887814 g / cm^3
# Si number density = 18.921210 Si / 1000 Ang^3
#
#
#
# Elastic Constant Matrix: (Units=GPa)
#
#
# Indices 1 2 3 4 5 6 
#
# 1 69.0170 7.6886 57.4019 0.0000 0.0000 0.0000
# 2 7.6886 92.9411 50.0680 0.0000 0.0000 0.0000
# 3 57.4019 50.0680 191.8762 0.0000 0.0000 0.0000
# 4 0.0000 0.0000 0.0000 -6.7272 0.0000 0.0000
# 5 0.0000 0.0000 0.0000 0.0000 21.8222 0.0000
# 6 0.0000 0.0000 0.0000 0.0000 0.0000 5.3231
#
#
#
# Elastic Compliance Matrix: (Units=1/GPa)
#
#
# Indices 1 2 3 4 5 6 
#
# 1 0.019539 0.001783 -0.006311 0.000000 0.000000 0.000000
# 2 0.001783 0.012682 -0.003843 0.000000 0.000000 0.000000
# 3 -0.006311 -0.003843 0.008102 0.000000 0.000000 0.000000
# 4 0.000000 0.000000 0.000000 -0.148650 0.000000 0.000000
# 5 0.000000 0.000000 0.000000 0.000000 0.045825 0.000000
# 6 0.000000 0.000000 0.000000 0.000000 0.000000 0.187861
#
#
# Mechanical properties :
#
#
# Convention : Reuss Voigt Hill
#
# Bulk Modulus (GPa) = 42.40303 64.90568 53.65435
# Shear Modulus (GPa) = 33.34200 19.99534 26.66867
#
# Velocity S-wave (km/s) = 4.20235 3.25432 3.75835
# Velocity P-wave (km/s) = 6.78272 6.96408 6.87400
#
# Compressibility (1/GPa) = 0.02358322
#
# Stress axis : x y z
#
# Youngs Moduli (GPa) = 51.17928 78.85142 123.42158
#
# Poissons Ratio (x) = -0.14061 0.77887
# Poissons Ratio (y) = -0.09126 0.47427
# Poissons Ratio (z) = 0.32298 0.30300
#
# Static dielectric constant tensor:
#      x y z
#    x 3.489830 0.000000 0.000000 
#    y 0.000000 3.057310 0.000000 
#    z 0.000000 0.000000 3.758810 
# 
# 
# High freq. dielectric constant tensor:
#      x y z
#    x 1.730040 0.000000 0.000000 
#    y 0.000000 1.698030 0.000000 
#    z 0.000000 0.000000 1.738910 
# 
# From -- ./inp_files/67654.got.cif
#   From: 2010.06.25/outbox.cif.g09.slc.cpg/sg71_34_cif.got.tgz:67654.got - 2010.06.28 04:59:45.
