data_PCOD8289417
_publ_section_title
;
Structure prediction by ZEFSAII (Michael W. Deem and Ramdas Pophale) SiO2 
 PCOD8289417
Probable space group: I M M M
;
_chemical_formula_sum "Si O2"
_cell_formula_units_Z 96
_cell_length_a 19.769012
_cell_length_b 8.939270
_cell_length_c 29.156532
_cell_angle_alpha 90.000000
_cell_angle_beta 90.000000
_cell_angle_gamma 90.000000
_cell_volume 5152.557960
_symmetry_space_group_name_H-M "I M M M"
_symmetry_group_IT_number 71
_symmetry_cell_setting 'orthorhombic'
loop_
_space_group_symop_operation_xyz
x,y,z
-x,-y,z
x,-y,-z
-x,y,-z
-x,-y,-z
x,y,-z
-x,y,z
x,-y,z
1/2+x,1/2+y,1/2+z
1/2-x,1/2-y,1/2+z
1/2+x,1/2-y,1/2-z
1/2-x,1/2+y,1/2-z
1/2-x,1/2-y,1/2-z
1/2+x,1/2+y,1/2-z
1/2-x,1/2+y,1/2+z
1/2+x,1/2-y,1/2+z
loop_
_atom_site_type_symbol
_atom_site_label
_atom_site_fract_x
_atom_site_fract_y
_atom_site_fract_z
Si Si1 0.072458 0.322705 0.551102
Si Si2 0.578880 0.824313 0.366499
Si Si3 0.307380 0.834345 0.800639
Si Si4 0.796345 0.679043 0.401087
Si Si5 0.848576 0.166021 0.218395
Si Si6 0.657723 0.677541 0.446777
O O1 0.072947 0.258614 0.500000
O O2 0.080840 0.500000 0.550223
O O3 0.136406 0.252115 0.576413
O O4 0.000000 0.279901 0.574388
O O5 0.500000 0.789513 0.358922
O O6 0.620982 0.755173 0.324474
O O7 0.600783 0.753671 0.415186
O O8 0.593458 0.000000 0.367856
O O9 0.299974 0.754432 0.849921
O O10 0.231753 0.846074 0.782351
O O11 0.360301 0.748521 0.767159
O O12 0.338618 0.000000 0.805832
O O13 0.794514 0.500000 0.399973
O O14 0.730701 0.734977 0.428870
O O15 0.880976 0.000000 0.218563
O O16 0.648228 0.725308 0.500000
O O17 0.651077 0.500000 0.441491
#
# Coordination Sequence:
#
# PCOD8289417 Si02
#       6
#    16  16  16  16  16  16
#     4   8  13  21  36  62  97 136 172 203 243 297
#     4  11  24  40  57  77 106 143 181 226 282 339
#     4   9  17  30  51  78 108 136 169 213 261 313
#     4   9  15  27  46  72 105 141 176 216 261 306
#     4  10  19  34  55  79 104 134 174 215 260 317
#     4  10  20  35  56  81 107 139 185 234 276 323
#
# _framework density 18.631523000000001
#
# number of rings (size 3 to 8) (size 9 to 14) (size 15 to 20)
#    0.000    2.500    1.667    2.000    0.000    4.667 
#    0.000    2.500    0.000    3.000    0.000    0.000 
#    0.000    0.667    0.000    9.167    0.000    8.333 
#
# Total GULP energy -594725.126084 kJ/mol
# GULP energy per Si atom -12390.106793 kJ/mol
# Density = 1.858912 g / cm^3
# Si number density = 18.631523 Si / 1000 Ang^3
#
#
#
# Elastic Constant Matrix: (Units=GPa)
#
#
# Indices 1 2 3 4 5 6 
#
# 1 62.6741 27.4308 32.5223 0.0000 0.0000 0.0000
# 2 27.4308 64.3366 45.9804 0.0000 0.0000 0.0000
# 3 32.5223 45.9804 135.6120 0.0000 0.0000 0.0000
# 4 0.0000 0.0000 0.0000 25.1193 0.0000 0.0000
# 5 0.0000 0.0000 0.0000 0.0000 25.0958 0.0000
# 6 0.0000 0.0000 0.0000 0.0000 0.0000 15.1361
#
#
#
# Elastic Compliance Matrix: (Units=1/GPa)
#
#
# Indices 1 2 3 4 5 6 
#
# 1 0.020262 -0.006818 -0.002547 0.000000 0.000000 0.000000
# 2 -0.006818 0.022809 -0.006098 0.000000 0.000000 0.000000
# 3 -0.002547 -0.006098 0.010053 0.000000 0.000000 0.000000
# 4 0.000000 0.000000 0.000000 0.039810 0.000000 0.000000
# 5 0.000000 0.000000 0.000000 0.000000 0.039847 0.000000
# 6 0.000000 0.000000 0.000000 0.000000 0.000000 0.066067
#
#
# Mechanical properties :
#
#
# Convention : Reuss Voigt Hill
#
# Bulk Modulus (GPa) = 45.05523 52.72110 48.88816
# Shear Modulus (GPa) = 21.08163 23.51621 22.29892
#
# Velocity S-wave (km/s) = 3.36743 3.55656 3.46329
# Velocity P-wave (km/s) = 6.27329 6.72485 6.50299
#
# Compressibility (1/GPa) = 0.02219498
#
# Stress axis : x y z
#
# Youngs Moduli (GPa) = 49.35456 43.84290 99.47710
#
# Poissons Ratio (x) = 0.29893 0.25340
# Poissons Ratio (y) = 0.33651 0.60665
# Poissons Ratio (z) = 0.12572 0.26737
#
# Static dielectric constant tensor:
#      x y z
#    x 3.414290 0.000000 0.000000 
#    y 0.000000 3.263620 0.000000 
#    z 0.000000 0.000000 3.630110 
# 
# 
# High freq. dielectric constant tensor:
#      x y z
#    x 1.709960 0.000000 0.000000 
#    y 0.000000 1.685440 0.000000 
#    z 0.000000 0.000000 1.732290 
# 
# From -- ./inp_files/66337.got.cif
#   From: 2010.06.25/outbox.cif.g09.slc.cpg/sg71_34_cif.got.tgz:66337.got - 2010.06.28 04:59:45.
