data_PCOD8289301
_publ_section_title
;
Structure prediction by ZEFSAII (Michael W. Deem and Ramdas Pophale) SiO2 
 PCOD8289301
Probable space group: I M M M
;
_chemical_formula_sum "Si O2"
_cell_formula_units_Z 104
_cell_length_a 20.745412
_cell_length_b 28.188013
_cell_length_c 9.179723
_cell_angle_alpha 90.000000
_cell_angle_beta 90.000000
_cell_angle_gamma 90.000000
_cell_volume 5368.044456
_symmetry_space_group_name_H-M "I M M M"
_symmetry_group_IT_number 71
_symmetry_cell_setting 'orthorhombic'
loop_
_space_group_symop_operation_xyz
x,y,z
-x,-y,z
x,-y,-z
-x,y,-z
-x,-y,-z
x,y,-z
-x,y,z
x,-y,z
1/2+x,1/2+y,1/2+z
1/2-x,1/2-y,1/2+z
1/2+x,1/2-y,1/2-z
1/2-x,1/2+y,1/2-z
1/2-x,1/2-y,1/2-z
1/2+x,1/2+y,1/2-z
1/2-x,1/2+y,1/2+z
1/2+x,1/2-y,1/2+z
loop_
_atom_site_type_symbol
_atom_site_label
_atom_site_fract_x
_atom_site_fract_y
_atom_site_fract_z
Si Si1 0.301477 0.776015 0.155221
Si Si2 0.000000 0.240358 0.170567
Si Si3 0.606952 0.308958 0.158320
Si Si4 0.865977 0.101597 0.172354
Si Si5 0.500000 0.151061 0.675297
Si Si6 0.734088 0.052542 0.827936
Si Si7 0.130915 0.629903 0.674583
Si Si8 0.500000 0.446890 0.327686
O O1 0.250000 0.750000 0.250000
O O2 0.352860 0.736695 0.120783
O O3 0.334201 0.821830 0.229376
O O4 0.270758 0.792551 0.000000
O O5 0.057854 0.208246 0.221729
O O6 0.000000 0.294199 0.231047
O O7 0.000000 0.243525 0.000000
O O8 0.646718 0.350884 0.235425
O O9 0.578286 0.325700 0.000000
O O10 0.806273 0.068170 0.217076
O O11 0.934739 0.079675 0.223427
O O12 0.865966 0.112131 0.000000
O O13 0.500000 0.146664 0.500000
O O14 0.437140 0.125192 0.742076
O O15 0.677434 0.087292 0.772239
O O16 0.721973 0.000000 0.762629
O O17 0.730138 0.051181 0.000000
O O18 0.119351 0.630399 0.500000
O O19 0.500000 0.500000 0.261314
O O20 0.500000 0.450287 0.500000
#
# Coordination Sequence:
#
# PCOD8289301 Si02
#       8
#    16   8  16  16   8  16  16   8
#     4  10  21  34  51  77 109 147 184 221 269 326
#     4  11  22  36  55  79 108 147 190 230 277 334
#     4  11  22  35  52  77 113 149 183 222 269 332
#     4  10  19  33  55  83 118 154 195 241 282 333
#     4  11  23  38  59  86 112 143 187 241 298 358
#     4   9  18  34  59  88 114 147 195 249 296 340
#     4  10  20  37  59  82 112 150 194 241 295 355
#     4   9  17  30  52  82 111 144 189 240 287 326
#
# _framework density 19.373906999999999
#
# number of rings (size 3 to 8) (size 9 to 14) (size 15 to 20)
#    0.000    1.923    1.538    2.769    0.000    6.154 
#    0.000    1.154    0.000    6.000    0.000    0.000 
#    0.000    0.000    0.000    0.000    0.000    0.000 
#
# Total GULP energy -644315.027994 kJ/mol
# GULP energy per Si atom -12390.673615 kJ/mol
# Density = 1.932981 g / cm^3
# Si number density = 19.373907 Si / 1000 Ang^3
#
#
#
# Elastic Constant Matrix: (Units=GPa)
#
#
# Indices 1 2 3 4 5 6 
#
# 1 140.2496 64.3779 37.0401 0.0000 0.0000 0.0000
# 2 64.3779 145.7187 30.7774 0.0000 0.0000 0.0000
# 3 37.0401 30.7774 53.3264 0.0000 0.0000 0.0000
# 4 0.0000 0.0000 0.0000 23.3790 0.0000 0.0000
# 5 0.0000 0.0000 0.0000 0.0000 25.3604 0.0000
# 6 0.0000 0.0000 0.0000 0.0000 0.0000 31.3405
#
#
#
# Elastic Compliance Matrix: (Units=1/GPa)
#
#
# Indices 1 2 3 4 5 6 
#
# 1 0.009993 -0.003358 -0.005003 0.000000 0.000000 0.000000
# 2 -0.003358 0.008944 -0.002829 0.000000 0.000000 0.000000
# 3 -0.005003 -0.002829 0.023860 0.000000 0.000000 0.000000
# 4 0.000000 0.000000 0.000000 0.042774 0.000000 0.000000
# 5 0.000000 0.000000 0.000000 0.000000 0.039432 0.000000
# 6 0.000000 0.000000 0.000000 0.000000 0.000000 0.031908
#
#
# Mechanical properties :
#
#
# Convention : Reuss Voigt Hill
#
# Bulk Modulus (GPa) = 48.98047 67.07618 58.02833
# Shear Modulus (GPa) = 26.86791 29.82259 28.34525
#
# Velocity S-wave (km/s) = 3.72803 3.92767 3.82915
# Velocity P-wave (km/s) = 6.62325 7.43410 7.04036
#
# Compressibility (1/GPa) = 0.02041630
#
# Stress axis : x y z
#
# Youngs Moduli (GPa) = 100.07139 111.80997 41.91062
#
# Poissons Ratio (x) = 0.37548 0.20967
# Poissons Ratio (y) = 0.33606 0.11858
# Poissons Ratio (z) = 0.50064 0.31635
#
# Static dielectric constant tensor:
#      x y z
#    x 3.469580 0.000000 0.000000 
#    y 0.000000 3.730880 0.000000 
#    z 0.000000 0.000000 2.943890 
# 
# 
# High freq. dielectric constant tensor:
#      x y z
#    x 1.755650 0.000000 0.000000 
#    y 0.000000 1.755430 0.000000 
#    z 0.000000 0.000000 1.728040 
# 
# From -- ./inp_files/11173.got.cif
#   From: 2010.06.25/outbox.cif.g09.slc.cpg/sg71_6_cif.got.tgz:11173.got - 2010.06.28 04:59:45.
