data_PCOD8289705
_publ_section_title
;
Structure prediction by ZEFSAII (Michael W. Deem and Ramdas Pophale) SiO2 
 PCOD8289705
Probable space group: I M M M
;
_chemical_formula_sum "Si O2"
_cell_formula_units_Z 72
_cell_length_a 10.653036
_cell_length_b 18.356129
_cell_length_c 20.889893
_cell_angle_alpha 90.000000
_cell_angle_beta 90.000000
_cell_angle_gamma 90.000000
_cell_volume 4084.987305
_symmetry_space_group_name_H-M "I M M M"
_symmetry_group_IT_number 71
_symmetry_cell_setting 'orthorhombic'
loop_
_space_group_symop_operation_xyz
x,y,z
-x,-y,z
x,-y,-z
-x,y,-z
-x,-y,-z
x,y,-z
-x,y,z
x,-y,z
1/2+x,1/2+y,1/2+z
1/2-x,1/2-y,1/2+z
1/2+x,1/2-y,1/2-z
1/2-x,1/2+y,1/2-z
1/2-x,1/2-y,1/2-z
1/2+x,1/2+y,1/2-z
1/2-x,1/2+y,1/2+z
1/2+x,1/2-y,1/2+z
loop_
_atom_site_type_symbol
_atom_site_label
_atom_site_fract_x
_atom_site_fract_y
_atom_site_fract_z
Si Si1 0.640782 0.191350 0.000000
Si Si2 0.746367 0.342704 0.625517
Si Si3 0.355785 0.183583 0.638454
Si Si4 0.500000 0.586126 0.573614
Si Si5 0.140327 0.308318 0.000000
Si Si6 0.851388 0.418444 0.250170
O O1 0.659949 0.145138 0.934975
O O2 0.500000 0.224868 0.000000
O O3 0.752356 0.248783 0.000000
O O4 0.724392 0.257570 0.640835
O O5 0.618083 0.382866 0.610761
O O6 0.810953 0.378823 0.685801
O O7 0.500000 0.202017 0.655428
O O8 0.346118 0.147194 0.566701
O O9 0.299028 0.126350 0.688977
O O10 0.500000 0.500000 0.578400
O O11 0.500000 0.612208 0.500000
O O12 0.000000 0.271371 0.000000
O O13 0.794803 0.500000 0.247654
O O14 0.000000 0.421972 0.246928
#
# Coordination Sequence:
#
# PCOD8289705 Si02
#       6
#     8  16  16   8   8  16
#     4  10  20  30  50  80 109 135 172 214 256 308
#     4  11  19  34  54  74 105 135 182 216 257 310
#     4   9  17  31  54  79 100 132 176 218 263 311
#     4  11  22  34  52  80 105 136 174 218 264 310
#     4   8  16  30  55  80 105 131 169 224 266 304
#     4  10  21  35  49  71 107 143 172 213 269 319
#
# _framework density 17.625513000000002
#
# number of rings (size 3 to 8) (size 9 to 14) (size 15 to 20)
#    0.000    2.111    2.222    2.000    1.556    0.000 
#    0.000    0.556    2.444    6.000    0.000    0.000 
#    0.000   14.222    0.000    0.000    0.000    0.000 
#
# Total GULP energy -446098.137048 kJ/mol
# GULP energy per Si atom -12391.614918 kJ/mol
# Density = 1.758540 g / cm^3
# Si number density = 17.625513 Si / 1000 Ang^3
#
#
#
# Elastic Constant Matrix: (Units=GPa)
#
#
# Indices 1 2 3 4 5 6 
#
# 1 58.8853 10.8838 25.1746 0.0000 0.0000 0.0000
# 2 10.8838 91.0466 74.2933 0.0000 0.0000 0.0000
# 3 25.1746 74.2933 168.8702 0.0000 0.0000 0.0000
# 4 0.0000 0.0000 0.0000 11.1323 0.0000 0.0000
# 5 0.0000 0.0000 0.0000 0.0000 25.7833 0.0000
# 6 0.0000 0.0000 0.0000 0.0000 0.0000 0.5405
#
#
#
# Elastic Compliance Matrix: (Units=1/GPa)
#
#
# Indices 1 2 3 4 5 6 
#
# 1 0.018138 0.000060 -0.002730 0.000000 0.000000 0.000000
# 2 0.000060 0.017135 -0.007547 0.000000 0.000000 0.000000
# 3 -0.002730 -0.007547 0.009649 0.000000 0.000000 0.000000
# 4 0.000000 0.000000 0.000000 0.089829 0.000000 -0.000002
# 5 0.000000 0.000000 0.000000 0.000000 0.038785 0.000000
# 6 0.000000 0.000000 0.000000 -0.000002 0.000000 1.850153
#
#
# Mechanical properties :
#
#
# Convention : Reuss Voigt Hill
#
# Bulk Modulus (GPa) = 40.83889 59.94505 50.39197
# Shear Modulus (GPa) = 2.43631 21.38791 11.91211
#
# Velocity S-wave (km/s) = 1.17697 3.48726 2.60252
# Velocity P-wave (km/s) = 5.00676 7.09217 6.13867
#
# Compressibility (1/GPa) = 0.02448647
#
# Stress axis : x y z
#
# Youngs Moduli (GPa) = 55.13170 58.36116 103.63719
#
# Poissons Ratio (x) = -0.00348 0.28295
# Poissons Ratio (y) = -0.00328 0.78217
# Poissons Ratio (z) = 0.15052 0.44046
#
# Static dielectric constant tensor:
#      x y z
#    x 3.072300 0.000000 0.000000 
#    y 0.000000 3.223640 0.000000 
#    z 0.000000 0.000000 3.832860 
# 
# 
# High freq. dielectric constant tensor:
#      x y z
#    x 1.666650 0.000000 0.000000 
#    y 0.000000 1.651780 0.000000 
#    z 0.000000 0.000000 1.706240 
# 
# From -- ./inp_files/9991.got.cif
#   From: 2010.06.25/outbox.cif.g09.slc.cpg/sg71_5_cif.got.tgz:9991.got - 2010.06.28 04:59:45.
