data_PCOD8289372
_publ_section_title
;
Structure prediction by ZEFSAII (Michael W. Deem and Ramdas Pophale) SiO2 
 PCOD8289372
Probable space group: I M M M
;
_chemical_formula_sum "Si O2"
_cell_formula_units_Z 80
_cell_length_a 19.516838
_cell_length_b 13.405319
_cell_length_c 17.229034
_cell_angle_alpha 90.000000
_cell_angle_beta 90.000000
_cell_angle_gamma 90.000000
_cell_volume 4507.622504
_symmetry_space_group_name_H-M "I M M M"
_symmetry_group_IT_number 71
_symmetry_cell_setting 'orthorhombic'
loop_
_space_group_symop_operation_xyz
x,y,z
-x,-y,z
x,-y,-z
-x,y,-z
-x,-y,-z
x,y,-z
-x,y,z
x,-y,z
1/2+x,1/2+y,1/2+z
1/2-x,1/2-y,1/2+z
1/2+x,1/2-y,1/2-z
1/2-x,1/2+y,1/2-z
1/2-x,1/2-y,1/2-z
1/2+x,1/2+y,1/2-z
1/2-x,1/2+y,1/2+z
1/2+x,1/2-y,1/2+z
loop_
_atom_site_type_symbol
_atom_site_label
_atom_site_fract_x
_atom_site_fract_y
_atom_site_fract_z
Si Si1 0.202873 0.304663 0.854023
Si Si2 0.576682 0.325283 0.000000
Si Si3 0.576697 0.886611 0.708473
Si Si4 0.307422 0.615087 0.737782
Si Si5 0.724041 0.612115 0.000000
Si Si6 0.923113 0.220086 0.671606
O O1 0.127243 0.353158 0.861232
O O2 0.236947 0.361806 0.781668
O O3 0.192870 0.186192 0.838289
O O4 0.249304 0.323636 0.928160
O O5 0.641353 0.400551 0.000000
O O6 0.584593 0.260830 0.078913
O O7 0.500000 0.376876 0.000000
O O8 0.500000 0.867346 0.677671
O O9 0.592730 0.824380 0.786464
O O10 0.588272 0.000000 0.732259
O O11 0.310653 0.500000 0.711472
O O12 0.371028 0.636990 0.795778
O O13 0.754567 0.500000 0.000000
O O14 0.000000 0.182486 0.690591
#
# Coordination Sequence:
#
# PCOD8289372 Si02
#       6
#    16   8  16  16   8  16
#     4  10  21  34  51  76 103 128 171 215 251 303
#     4  10  20  33  47  71 110 143 169 206 248 297
#     4   9  17  32  53  74  98 133 174 215 258 300
#     4  10  19  34  54  73  98 135 171 210 254 297
#     4  12  22  35  54  77 106 138 167 205 259 302
#     4   9  18  31  49  75 106 136 170 210 249 301
#
# _framework density 17.747713999999998
#
# number of rings (size 3 to 8) (size 9 to 14) (size 15 to 20)
#    0.000    2.200    2.000    1.800    0.000    0.600 
#    0.000    3.500    0.000    6.000    0.000    0.000 
#    0.000    6.400    0.000    0.000    0.000    0.000 
#
# Total GULP energy -495655.549365 kJ/mol
# GULP energy per Si atom -12391.388734 kJ/mol
# Density = 1.770732 g / cm^3
# Si number density = 17.747714 Si / 1000 Ang^3
#
#
#
# Elastic Constant Matrix: (Units=GPa)
#
#
# Indices 1 2 3 4 5 6 
#
# 1 118.0286 52.3201 38.1964 0.0000 0.0000 0.0000
# 2 52.3201 122.2790 31.8723 0.0000 0.0000 0.0000
# 3 38.1964 31.8723 68.6359 0.0000 0.0000 0.0000
# 4 0.0000 0.0000 0.0000 11.9823 0.0000 0.0000
# 5 0.0000 0.0000 0.0000 0.0000 26.3004 0.0000
# 6 0.0000 0.0000 0.0000 0.0000 0.0000 22.7736
#
#
#
# Elastic Compliance Matrix: (Units=1/GPa)
#
#
# Indices 1 2 3 4 5 6 
#
# 1 0.011676 -0.003757 -0.004753 0.000000 0.000000 0.000000
# 2 -0.003757 0.010513 -0.002791 0.000000 0.000000 0.000000
# 3 -0.004753 -0.002791 0.018511 0.000000 0.000000 0.000000
# 4 0.000000 0.000000 0.000000 0.083457 0.000000 0.000000
# 5 0.000000 0.000000 0.000000 0.000000 0.038022 0.000000
# 6 0.000000 0.000000 0.000000 0.000000 0.000000 0.043910
#
#
# Mechanical properties :
#
#
# Convention : Reuss Voigt Hill
#
# Bulk Modulus (GPa) = 55.25641 61.52456 58.39049
# Shear Modulus (GPa) = 21.30155 24.64823 22.97489
#
# Velocity S-wave (km/s) = 3.46821 3.73072 3.60186
# Velocity P-wave (km/s) = 6.87313 7.30063 7.09010
#
# Compressibility (1/GPa) = 0.01809745
#
# Stress axis : x y z
#
# Youngs Moduli (GPa) = 85.64436 95.11976 54.02198
#
# Poissons Ratio (x) = 0.35737 0.25678
# Poissons Ratio (y) = 0.32177 0.15078
# Poissons Ratio (z) = 0.40709 0.26549
#
# Static dielectric constant tensor:
#      x y z
#    x 3.717580 0.000000 0.000000 
#    y 0.000000 3.128790 0.000000 
#    z 0.000000 0.000000 3.076850 
# 
# 
# High freq. dielectric constant tensor:
#      x y z
#    x 1.714800 0.000000 0.000000 
#    y 0.000000 1.667770 0.000000 
#    z 0.000000 0.000000 1.653070 
# 
# From -- ./inp_files/44820.got.cif
#   From: 2010.06.25/outbox.cif.g09.slc.cpg/sg71_23_cif.got.tgz:44820.got - 2010.06.28 04:59:45.
