data_PCOD8289615
_publ_section_title
;
Structure prediction by ZEFSAII (Michael W. Deem and Ramdas Pophale) SiO2 
 PCOD8289615
Probable space group: I M M M
;
_chemical_formula_sum "Si O2"
_cell_formula_units_Z 88
_cell_length_a 19.314238
_cell_length_b 13.933301
_cell_length_c 17.752919
_cell_angle_alpha 90.000000
_cell_angle_beta 90.000000
_cell_angle_gamma 90.000000
_cell_volume 4777.507412
_symmetry_space_group_name_H-M "I M M M"
_symmetry_group_IT_number 71
_symmetry_cell_setting 'orthorhombic'
loop_
_space_group_symop_operation_xyz
x,y,z
-x,-y,z
x,-y,-z
-x,y,-z
-x,-y,-z
x,y,-z
-x,y,z
x,-y,z
1/2+x,1/2+y,1/2+z
1/2-x,1/2-y,1/2+z
1/2+x,1/2-y,1/2-z
1/2-x,1/2+y,1/2-z
1/2-x,1/2-y,1/2-z
1/2+x,1/2+y,1/2-z
1/2-x,1/2+y,1/2+z
1/2+x,1/2-y,1/2+z
loop_
_atom_site_type_symbol
_atom_site_label
_atom_site_fract_x
_atom_site_fract_y
_atom_site_fract_z
Si Si1 0.659709 0.804176 0.636411
Si Si2 0.081662 0.391346 0.000000
Si Si3 0.640939 0.109968 0.202433
Si Si4 0.698925 0.393483 0.314632
Si Si5 0.808246 0.889828 0.360896
Si Si6 0.921597 0.748920 0.585041
O O1 0.606373 0.835968 0.573619
O O2 0.632422 0.843732 0.715671
O O3 0.660293 0.687857 0.637345
O O4 0.735647 0.842850 0.615776
O O5 0.110609 0.500000 0.000000
O O6 0.000000 0.391077 0.000000
O O7 0.719370 0.119956 0.174443
O O8 0.592859 0.162417 0.142254
O O9 0.617456 0.000000 0.207876
O O10 0.676042 0.500000 0.341792
O O11 0.679721 0.378567 0.227760
O O12 0.871029 0.838636 0.402900
O O13 0.806682 0.000000 0.386200
O O14 0.911725 0.710249 0.500000
O O15 0.000000 0.785002 0.597988
#
# Coordination Sequence:
#
# PCOD8289615 Si02
#       6
#    16   8  16  16  16  16
#     4  11  19  38  64  88 115 148 189 234 286 340
#     4  11  26  42  57  89 126 148 180 235 289 339
#     4  10  19  36  60  85 112 149 194 237 287 340
#     4   9  17  33  62  93 115 138 187 248 283 325
#     4  10  19  35  60  88 114 148 194 239 283 337
#     4  11  24  38  52  79 120 157 193 241 285 329
#
# _framework density 18.419647000000001
#
# number of rings (size 3 to 8) (size 9 to 14) (size 15 to 20)
#    0.000    1.727    3.636    3.818    1.273    2.182 
#    0.000    2.273    0.000    1.091    0.000    0.000 
#    0.000    0.000    0.000    0.000    0.000    0.000 
#
# Total GULP energy -545677.081263 kJ/mol
# GULP energy per Si atom -12401.751847 kJ/mol
# Density = 1.837772 g / cm^3
# Si number density = 18.419647 Si / 1000 Ang^3
#
#
#
# Elastic Constant Matrix: (Units=GPa)
#
#
# Indices 1 2 3 4 5 6 
#
# 1 82.2007 43.3154 54.6480 0.0000 0.0000 0.0000
# 2 43.3154 147.0784 55.9017 0.0000 0.0000 0.0000
# 3 54.6480 55.9017 88.9505 0.0000 0.0000 0.0000
# 4 0.0000 0.0000 0.0000 22.5210 0.0000 0.0000
# 5 0.0000 0.0000 0.0000 0.0000 29.2487 0.0000
# 6 0.0000 0.0000 0.0000 0.0000 0.0000 22.2916
#
#
#
# Elastic Compliance Matrix: (Units=1/GPa)
#
#
# Indices 1 2 3 4 5 6 
#
# 1 0.020873 -0.001673 -0.011773 0.000000 0.000000 0.000000
# 2 -0.001673 0.009067 -0.004670 0.000000 0.000000 0.000000
# 3 -0.011773 -0.004670 0.021410 0.000000 0.000000 0.000000
# 4 0.000000 0.000000 0.000000 0.044403 0.000000 0.000000
# 5 0.000000 0.000000 0.000000 0.000000 0.034190 0.000000
# 6 0.000000 0.000000 0.000000 0.000000 0.000000 0.044860
#
#
# Mechanical properties :
#
#
# Convention : Reuss Voigt Hill
#
# Bulk Modulus (GPa) = 66.14342 69.55107 67.84725
# Shear Modulus (GPa) = 23.14023 25.76990 24.45507
#
# Velocity S-wave (km/s) = 3.54825 3.74444 3.64766
# Velocity P-wave (km/s) = 7.26456 7.51901 7.39288
#
# Compressibility (1/GPa) = 0.01511866
#
# Stress axis : x y z
#
# Youngs Moduli (GPa) = 47.90799 110.29137 46.70712
#
# Poissons Ratio (x) = 0.18449 0.54986
# Poissons Ratio (y) = 0.08014 0.21814
# Poissons Ratio (z) = 0.56400 0.51511
#
# Static dielectric constant tensor:
#      x y z
#    x 3.197370 0.000000 0.000000 
#    y 0.000000 3.628060 0.000000 
#    z 0.000000 0.000000 3.293430 
# 
# 
# High freq. dielectric constant tensor:
#      x y z
#    x 1.694530 0.000000 0.000000 
#    y 0.000000 1.727600 0.000000 
#    z 0.000000 0.000000 1.705240 
# 
# From -- ./inp_files/44697.got.cif
#   From: 2010.06.25/outbox.cif.g09.slc.cpg/sg71_23_cif.got.tgz:44697.got - 2010.06.28 04:59:45.
