data_PCOD8289591
_publ_section_title
;
Structure prediction by ZEFSAII (Michael W. Deem and Ramdas Pophale) SiO2 
 PCOD8289591
Probable space group: I M M M
;
_chemical_formula_sum "Si O2"
_cell_formula_units_Z 88
_cell_length_a 15.233257
_cell_length_b 21.331550
_cell_length_c 14.221284
_cell_angle_alpha 90.000000
_cell_angle_beta 90.000000
_cell_angle_gamma 90.000000
_cell_volume 4621.191778
_symmetry_space_group_name_H-M "I M M M"
_symmetry_group_IT_number 71
_symmetry_cell_setting 'orthorhombic'
loop_
_space_group_symop_operation_xyz
x,y,z
-x,-y,z
x,-y,-z
-x,y,-z
-x,-y,-z
x,y,-z
-x,y,z
x,-y,z
1/2+x,1/2+y,1/2+z
1/2-x,1/2-y,1/2+z
1/2+x,1/2-y,1/2-z
1/2-x,1/2+y,1/2-z
1/2-x,1/2-y,1/2-z
1/2+x,1/2+y,1/2-z
1/2-x,1/2+y,1/2+z
1/2+x,1/2-y,1/2+z
loop_
_atom_site_type_symbol
_atom_site_label
_atom_site_fract_x
_atom_site_fract_y
_atom_site_fract_z
Si Si1 0.000000 0.926372 0.107591
Si Si2 0.592672 0.751684 0.160992
Si Si3 0.143081 0.130774 0.241845
Si Si4 0.273854 0.286202 0.400310
Si Si5 0.266178 0.927776 0.608009
Si Si6 0.099767 0.677424 0.845783
O O1 0.086087 0.906645 0.165677
O O2 0.000000 0.000000 0.099785
O O3 0.000000 0.898378 0.000000
O O4 0.500000 0.759725 0.104697
O O5 0.584413 0.684650 0.212205
O O6 0.678715 0.752590 0.097021
O O7 0.599084 0.808485 0.235110
O O8 0.221976 0.164919 0.185036
O O9 0.184652 0.087313 0.322612
O O10 0.285102 0.321504 0.500000
O O11 0.348065 0.233170 0.396643
O O12 0.237114 0.914622 0.500000
O O13 0.352315 0.888136 0.633970
O O14 0.291905 0.000000 0.621906
O O15 0.000000 0.674077 0.885071
#
# Coordination Sequence:
#
# PCOD8289591 Si02
#       6
#     8  16  16  16  16  16
#     4  11  24  40  61  89 119 153 197 245 289 344
#     4  10  19  35  59  82 113 148 188 238 293 350
#     4  11  20  40  57  83 118 152 189 238 294 342
#     4  11  21  34  58  88 117 149 189 238 297 359
#     4  11  23  38  58  82 112 155 201 240 285 347
#     4  10  20  36  56  82 118 153 188 239 295 349
#
# _framework density 19.042705999999999
#
# number of rings (size 3 to 8) (size 9 to 14) (size 15 to 20)
#    0.000    1.364    4.545    2.727    1.273    2.182 
#    0.000    1.364    0.000    1.636    0.000    0.000 
#    0.000    2.909    0.000    0.000    0.000    0.000 
#
# Total GULP energy -545241.823430 kJ/mol
# GULP energy per Si atom -12391.859623 kJ/mol
# Density = 1.899936 g / cm^3
# Si number density = 19.042706 Si / 1000 Ang^3
#
#
#
# Elastic Constant Matrix: (Units=GPa)
#
#
# Indices 1 2 3 4 5 6 
#
# 1 151.2175 33.5573 49.9939 0.0000 0.0000 0.0000
# 2 33.5573 94.8140 42.6109 -0.0001 0.0000 0.0000
# 3 49.9939 42.6109 96.7056 -0.0001 -0.0001 0.0000
# 4 0.0000 -0.0001 -0.0001 21.8860 0.0000 0.0000
# 5 0.0000 0.0000 -0.0001 0.0000 -27.9298 0.0000
# 6 0.0000 0.0000 0.0000 0.0000 0.0000 16.6364
#
#
#
# Elastic Compliance Matrix: (Units=1/GPa)
#
#
# Indices 1 2 3 4 5 6 
#
# 1 0.008089 -0.001226 -0.003641 0.000000 0.000000 0.000000
# 2 -0.001226 0.013337 -0.005243 0.000000 0.000000 0.000000
# 3 -0.003641 -0.005243 0.014533 0.000000 0.000000 0.000000
# 4 0.000000 0.000000 0.000000 0.045691 0.000000 0.000000
# 5 0.000000 0.000000 0.000000 0.000000 -0.035804 0.000000
# 6 0.000000 0.000000 0.000000 0.000000 0.000000 0.060109
#
#
# Mechanical properties :
#
#
# Convention : Reuss Voigt Hill
#
# Bulk Modulus (GPa) = 63.53874 66.11793 64.82834
# Shear Modulus (GPa) = 38.04512 16.55685 27.30099
#
# Velocity S-wave (km/s) = 4.47462 2.95186 3.79049
# Velocity P-wave (km/s) = 7.75469 6.81280 7.29895
#
# Compressibility (1/GPa) = 0.01573843
#
# Stress axis : x y z
#
# Youngs Moduli (GPa) = 123.62417 74.97845 68.80799
#
# Poissons Ratio (x) = 0.09196 0.25056
# Poissons Ratio (y) = 0.15162 0.36074
# Poissons Ratio (z) = 0.45016 0.39309
#
# Static dielectric constant tensor:
#      x y z
#    x 3.619240 0.000000 0.000000 
#    y 0.000000 3.318550 0.000000 
#    z 0.000000 0.000000 3.569450 
# 
# 
# High freq. dielectric constant tensor:
#      x y z
#    x 1.749780 0.000000 0.000000 
#    y 0.000000 1.717110 0.000000 
#    z 0.000000 0.000000 1.741770 
# 
# From -- ./inp_files/34430.got.cif
#   From: 2010.06.25/outbox.cif.g09.slc.cpg/sg71_18_cif.got.tgz:34430.got - 2010.06.28 04:59:45.
