data_PCOD8289331
_publ_section_title
;
Structure prediction by ZEFSAII (Michael W. Deem and Ramdas Pophale) SiO2 
 PCOD8289331
Probable space group: I M M M
;
_chemical_formula_sum "Si O2"
_cell_formula_units_Z 88
_cell_length_a 19.247709
_cell_length_b 23.518489
_cell_length_c 10.317886
_cell_angle_alpha 90.000000
_cell_angle_beta 90.000000
_cell_angle_gamma 90.000000
_cell_volume 4670.670015
_symmetry_space_group_name_H-M "I M M M"
_symmetry_group_IT_number 71
_symmetry_cell_setting 'orthorhombic'
loop_
_space_group_symop_operation_xyz
x,y,z
-x,-y,z
x,-y,-z
-x,y,-z
-x,-y,-z
x,y,-z
-x,y,z
x,-y,z
1/2+x,1/2+y,1/2+z
1/2-x,1/2-y,1/2+z
1/2+x,1/2-y,1/2-z
1/2-x,1/2+y,1/2-z
1/2-x,1/2-y,1/2-z
1/2+x,1/2+y,1/2-z
1/2-x,1/2+y,1/2+z
1/2+x,1/2-y,1/2+z
loop_
_atom_site_type_symbol
_atom_site_label
_atom_site_fract_x
_atom_site_fract_y
_atom_site_fract_z
Si Si1 0.841650 0.262408 0.855888
Si Si2 0.577706 0.432964 0.500000
Si Si3 0.303152 0.678297 0.854684
Si Si4 0.078812 0.630283 0.853281
Si Si5 0.818642 0.935273 0.777295
Si Si6 0.836103 0.435726 0.357879
O O1 0.776672 0.304560 0.830494
O O2 0.848614 0.212921 0.749855
O O3 0.909588 0.301853 0.844982
O O4 0.836196 0.234913 0.000000
O O5 0.571791 0.500000 0.500000
O O6 0.500000 0.405652 0.500000
O O7 0.619352 0.414859 0.628596
O O8 0.314616 0.610554 0.838716
O O9 0.326719 0.694663 0.000000
O O10 0.130041 0.599944 0.755370
O O11 0.000000 0.616658 0.814497
O O12 0.094820 0.609188 0.000000
O O13 0.746980 0.932498 0.855338
O O14 0.830798 0.000000 0.724371
O O15 0.859350 0.412995 0.500000
O O16 0.861614 0.500000 0.339406
#
# Coordination Sequence:
#
# PCOD8289331 Si02
#       6
#    16   8  16  16  16  16
#     4   9  19  35  54  78 107 145 191 237 280 328
#     4   9  18  34  56  84 115 145 181 225 277 339
#     4  10  20  34  55  84 112 141 184 232 282 338
#     4  10  21  38  57  79 112 153 197 241 283 330
#     4  10  19  33  57  86 115 146 185 232 278 333
#     4  10  20  34  54  82 115 150 192 238 282 331
#
# _framework density 18.840979999999998
#
# number of rings (size 3 to 8) (size 9 to 14) (size 15 to 20)
#    0.000    2.273    2.727    0.000    1.273    2.182 
#    0.000    4.545    0.000    1.636    0.000    2.545 
#    0.000    0.000    0.000    0.000    0.000    0.000 
#
# Total GULP energy -545375.774387 kJ/mol
# GULP energy per Si atom -12394.903963 kJ/mol
# Density = 1.879810 g / cm^3
# Si number density = 18.840980 Si / 1000 Ang^3
#
#
#
# Elastic Constant Matrix: (Units=GPa)
#
#
# Indices 1 2 3 4 5 6 
#
# 1 74.5112 22.7975 40.7489 0.0000 0.0000 0.0000
# 2 22.7975 89.3661 59.9135 0.0000 0.0000 0.0000
# 3 40.7489 59.9135 127.3548 0.0000 0.0000 0.0000
# 4 0.0000 0.0000 0.0000 33.3326 0.0000 0.0000
# 5 0.0000 0.0000 0.0000 0.0000 18.3112 0.0000
# 6 0.0000 0.0000 0.0000 0.0000 0.0000 16.9717
#
#
#
# Elastic Compliance Matrix: (Units=1/GPa)
#
#
# Indices 1 2 3 4 5 6 
#
# 1 0.016324 -0.000968 -0.004768 0.000000 0.000000 0.000000
# 2 -0.000968 0.016403 -0.007407 0.000000 0.000000 0.000000
# 3 -0.004768 -0.007407 0.012862 0.000000 0.000000 0.000000
# 4 0.000000 0.000000 0.000000 0.030001 0.000000 0.000000
# 5 0.000000 0.000000 0.000000 0.000000 0.054611 0.000000
# 6 0.000000 0.000000 0.000000 0.000000 0.000000 0.058922
#
#
# Mechanical properties :
#
#
# Convention : Reuss Voigt Hill
#
# Bulk Modulus (GPa) = 51.80291 59.79465 55.79878
# Shear Modulus (GPa) = 22.53850 24.90791 23.72321
#
# Velocity S-wave (km/s) = 3.46244 3.63989 3.55227
# Velocity P-wave (km/s) = 6.59842 7.03352 6.81944
#
# Compressibility (1/GPa) = 0.01930394
#
# Stress axis : x y z
#
# Youngs Moduli (GPa) = 61.25797 60.96604 77.74756
#
# Poissons Ratio (x) = 0.05901 0.37069
# Poissons Ratio (y) = 0.05929 0.57586
# Poissons Ratio (z) = 0.29207 0.45157
#
# Static dielectric constant tensor:
#      x y z
#    x 3.440140 0.000000 0.000000 
#    y 0.000000 3.402980 0.000000 
#    z 0.000000 0.000000 3.409730 
# 
# 
# High freq. dielectric constant tensor:
#      x y z
#    x 1.706930 0.000000 0.000000 
#    y 0.000000 1.723780 0.000000 
#    z 0.000000 0.000000 1.730350 
# 
# From -- ./inp_files/10478.got.cif
#   From: 2010.06.25/outbox.cif.g09.slc.cpg/sg71_6_cif.got.tgz:10478.got - 2010.06.28 04:59:45.
