data_PCOD8289326
_publ_section_title
;
Structure prediction by ZEFSAII (Michael W. Deem and Ramdas Pophale) SiO2 
 PCOD8289326
Probable space group: I M M M
;
_chemical_formula_sum "Si O2"
_cell_formula_units_Z 72
_cell_length_a 7.932751
_cell_length_b 20.746425
_cell_length_c 22.363224
_cell_angle_alpha 90.000000
_cell_angle_beta 90.000000
_cell_angle_gamma 90.000000
_cell_volume 3680.454955
_symmetry_space_group_name_H-M "I M M M"
_symmetry_group_IT_number 71
_symmetry_cell_setting 'orthorhombic'
loop_
_space_group_symop_operation_xyz
x,y,z
-x,-y,z
x,-y,-z
-x,y,-z
-x,-y,-z
x,y,-z
-x,y,z
x,-y,z
1/2+x,1/2+y,1/2+z
1/2-x,1/2-y,1/2+z
1/2+x,1/2-y,1/2-z
1/2-x,1/2+y,1/2-z
1/2-x,1/2-y,1/2-z
1/2+x,1/2+y,1/2-z
1/2-x,1/2+y,1/2+z
1/2+x,1/2-y,1/2+z
loop_
_atom_site_type_symbol
_atom_site_label
_atom_site_fract_x
_atom_site_fract_y
_atom_site_fract_z
Si Si1 0.686059 0.235593 0.623694
Si Si2 0.812988 0.631705 0.219473
Si Si3 0.810064 0.118601 0.151592
Si Si4 0.500000 0.571372 0.161908
Si Si5 0.500000 0.676221 0.066538
Si Si6 0.199787 0.000000 0.931085
O O1 0.500000 0.212501 0.602021
O O2 0.720986 0.202698 0.689455
O O3 0.688351 0.312323 0.620756
O O4 0.830833 0.216157 0.578135
O O5 0.807909 0.630391 0.291162
O O6 0.669658 0.582629 0.199233
O O7 0.000000 0.607851 0.200605
O O8 0.000000 0.099233 0.171507
O O9 0.739085 0.063792 0.105810
O O10 0.500000 0.500000 0.138567
O O11 0.500000 0.611706 0.102827
O O12 0.500000 0.652399 0.000000
O O13 0.000000 0.000000 0.935607
O O14 0.271957 0.000000 0.000000
#
# Coordination Sequence:
#
# PCOD8289326 Si02
#       6
#    16  16  16   8   8   8
#     4   9  20  36  56  87 116 145 186 236 292 341
#     4  10  20  34  57  87 118 146 181 236 291 347
#     4  10  19  33  57  83 113 153 192 232 288 334
#     4  10  22  39  58  84 119 149 184 232 284 350
#     4  10  22  39  60  85 112 148 193 237 283 337
#     4   9  20  36  53  77 111 154 203 238 268 326
#
# _framework density 19.562798000000001
#
# number of rings (size 3 to 8) (size 9 to 14) (size 15 to 20)
#    0.000    2.333    1.111    0.667    3.111    2.000 
#    0.000    2.222    0.000    0.667    0.000    6.222 
#    0.000    0.000    0.000    0.000    0.000    0.000 
#
# Total GULP energy -445992.894486 kJ/mol
# GULP energy per Si atom -12388.691513 kJ/mol
# Density = 1.951827 g / cm^3
# Si number density = 19.562798 Si / 1000 Ang^3
#
#
#
# Elastic Constant Matrix: (Units=GPa)
#
#
# Indices 1 2 3 4 5 6 
#
# 1 120.6207 34.6254 28.7792 0.0000 0.0002 0.0000
# 2 34.6254 116.1350 26.4441 0.0000 -0.0010 0.0000
# 3 28.7792 26.4441 84.2299 0.0000 -0.0003 0.0000
# 4 0.0000 0.0000 0.0000 10.3273 -0.0008 0.0000
# 5 0.0002 -0.0010 -0.0003 -0.0008-3070.5546 0.0007
# 6 0.0000 0.0000 0.0000 0.0000 0.0007 -30.8553
#
#
#
# Elastic Compliance Matrix: (Units=1/GPa)
#
#
# Indices 1 2 3 4 5 6 
#
# 1 0.009550 -0.002266 -0.002551 0.000000 0.000000 0.000000
# 2 -0.002266 0.009811 -0.002306 0.000000 0.000000 0.000000
# 3 -0.002551 -0.002306 0.013468 0.000000 0.000000 0.000000
# 4 0.000000 0.000000 0.000000 0.096831 0.000000 0.000000
# 5 0.000000 0.000000 0.000000 0.000000 -0.000326 0.000000
# 6 0.000000 0.000000 0.000000 0.000000 0.000000 -0.032409
#
#
# Mechanical properties :
#
#
# Convention : Reuss Voigt Hill
#
# Bulk Modulus (GPa) = 53.81602 55.63147 54.72374
# Shear Modulus (GPa) = 42.60154 -602.80741 -280.10294
#
# Velocity S-wave (km/s) = 4.67163 -17.57295 -11.97883
# Velocity P-wave (km/s) = 7.52781 19.57666 12.77846
#
# Compressibility (1/GPa) = 0.01858183
#
# Stress axis : x y z
#
# Youngs Moduli (GPa) = 104.71473 101.92195 74.25011
#
# Poissons Ratio (x) = 0.23098 0.18944
# Poissons Ratio (y) = 0.23731 0.17122
# Poissons Ratio (z) = 0.26717 0.23503
#
# Static dielectric constant tensor:
#      x y z
#    x 3.653170 0.000000 0.000000 
#    y 0.000000 3.513690 0.000000 
#    z 0.000000 0.000000 3.393770 
# 
# 
# High freq. dielectric constant tensor:
#      x y z
#    x 1.767530 0.000000 0.000000 
#    y 0.000000 1.753300 0.000000 
#    z 0.000000 0.000000 1.739840 
# 
# From -- ./inp_files/50222.got.cif
#   From: 2010.06.25/outbox.cif.g09.slc.cpg/sg71_26_cif.got.tgz:50222.got - 2010.06.28 04:59:45.
