data_PCOD8289145
_publ_section_title
;
Structure prediction by ZEFSAII (Michael W. Deem and Ramdas Pophale) SiO2 
 PCOD8289145
Probable space group: I M M M
;
_chemical_formula_sum "Si O2"
_cell_formula_units_Z 96
_cell_length_a 29.805972
_cell_length_b 9.016404
_cell_length_c 19.161855
_cell_angle_alpha 90.000000
_cell_angle_beta 90.000000
_cell_angle_gamma 90.000000
_cell_volume 5149.608365
_symmetry_space_group_name_H-M "I M M M"
_symmetry_group_IT_number 71
_symmetry_cell_setting 'orthorhombic'
loop_
_space_group_symop_operation_xyz
x,y,z
-x,-y,z
x,-y,-z
-x,y,-z
-x,-y,-z
x,y,-z
-x,y,z
x,-y,z
1/2+x,1/2+y,1/2+z
1/2-x,1/2-y,1/2+z
1/2+x,1/2-y,1/2-z
1/2-x,1/2+y,1/2-z
1/2-x,1/2-y,1/2-z
1/2+x,1/2+y,1/2-z
1/2-x,1/2+y,1/2+z
1/2+x,1/2-y,1/2+z
loop_
_atom_site_type_symbol
_atom_site_label
_atom_site_fract_x
_atom_site_fract_y
_atom_site_fract_z
Si Si1 0.881028 0.172919 0.667510
Si Si2 0.201871 0.825312 0.422195
Si Si3 0.550678 0.835346 0.081421
Si Si4 0.376406 0.823957 0.311795
Si Si5 0.225450 0.326005 0.814745
Si Si6 0.949656 0.323773 0.078530
O O1 0.837168 0.237314 0.627975
O O2 0.922902 0.203292 0.618018
O O3 0.890822 0.260782 0.737794
O O4 0.876090 0.000000 0.684159
O O5 0.199895 0.753898 0.500000
O O6 0.249222 0.785538 0.386596
O O7 0.195277 0.000000 0.429102
O O8 0.500000 0.826573 0.108164
O O9 0.570001 0.000000 0.098889
O O10 0.553422 0.804983 0.000000
O O11 0.325435 0.770275 0.326339
O O12 0.411168 0.760270 0.369774
O O13 0.379215 0.000000 0.309862
O O14 0.227098 0.500000 0.799387
O O15 0.250000 0.250000 0.750000
O O16 0.947972 0.500000 0.079482
O O17 0.000000 0.271642 0.101378
O O18 0.939482 0.266529 0.000000
#
# Coordination Sequence:
#
# PCOD8289145 Si02
#       6
#    16  16  16  16  16  16
#     4  11  21  33  51  75 106 142 176 215 258 312
#     4   9  18  32  50  73 100 133 172 215 265 312
#     4   9  19  36  55  74 100 135 173 216 265 311
#     4  10  20  32  52  80 105 136 178 219 264 321
#     4  10  19  33  52  73 102 137 173 217 264 314
#     4   8  15  30  52  78 107 135 167 215 272 322
#
# _framework density 18.642194
#
# number of rings (size 3 to 8) (size 9 to 14) (size 15 to 20)
#    0.000    2.500    1.667    2.000    0.000    2.667 
#    0.000    5.833    0.000    2.000    0.000    3.500 
#    0.000    0.000    0.000    0.000    0.000    0.000 
#
# Total GULP energy -594998.565748 kJ/mol
# GULP energy per Si atom -12395.803453 kJ/mol
# Density = 1.859976 g / cm^3
# Si number density = 18.642194 Si / 1000 Ang^3
#
#
#
# Elastic Constant Matrix: (Units=GPa)
#
#
# Indices 1 2 3 4 5 6 
#
# 1 143.9726 21.1225 73.0519 0.0000 0.0000 0.0000
# 2 21.1225 12.4967 14.7099 0.0000 0.0000 0.0000
# 3 73.0519 14.7099 105.8117 0.0000 0.0000 0.0000
# 4 0.0000 0.0000 0.0000 18.9328 0.0000 0.0000
# 5 0.0000 0.0000 0.0000 0.0000 30.3851 0.0000
# 6 0.0000 0.0000 0.0000 0.0000 0.0000 20.8781
#
#
#
# Elastic Compliance Matrix: (Units=1/GPa)
#
#
# Indices 1 2 3 4 5 6 
#
# 1 0.012191 -0.012791 -0.006638 0.000000 0.000000 0.000000
# 2 -0.012791 0.109100 -0.006336 0.000000 0.000000 0.000000
# 3 -0.006638 -0.006336 0.014914 0.000000 0.000000 0.000000
# 4 0.000000 0.000000 0.000000 0.052818 0.000000 0.000000
# 5 0.000000 0.000000 0.000000 0.000000 0.032911 0.000000
# 6 0.000000 0.000000 0.000000 0.000000 0.000000 0.047897
#
#
# Mechanical properties :
#
#
# Convention : Reuss Voigt Hill
#
# Bulk Modulus (GPa) = 11.80998 53.33883 32.57441
# Shear Modulus (GPa) = 14.30262 24.26565 19.28413
#
# Velocity S-wave (km/s) = 2.77287 3.61176 3.21975
# Velocity P-wave (km/s) = 4.07438 6.78727 5.59766
#
# Compressibility (1/GPa) = 0.08467411
#
# Stress axis : x y z
#
# Youngs Moduli (GPa) = 82.03062 9.16593 67.04912
#
# Poissons Ratio (x) = 0.11724 0.44508
# Poissons Ratio (y) = 1.04928 0.42481
# Poissons Ratio (z) = 0.54452 0.05807
#
# Static dielectric constant tensor:
#      x y z
#    x 3.711250 0.000000 0.000000 
#    y 0.000000 3.039370 0.000000 
#    z 0.000000 0.000000 3.558370 
# 
# 
# High freq. dielectric constant tensor:
#      x y z
#    x 1.733900 0.000000 0.000000 
#    y 0.000000 1.680550 0.000000 
#    z 0.000000 0.000000 1.726580 
# 
# From -- ./inp_files/48758.got.cif
#   From: 2010.06.25/outbox.cif.g09.slc.cpg/sg71_25_cif.got.tgz:48758.got - 2010.06.28 04:59:45.
