data_PCOD8289614
_publ_section_title
;
Structure prediction by ZEFSAII (Michael W. Deem and Ramdas Pophale) SiO2 
 PCOD8289614
Probable space group: I M M M
;
_chemical_formula_sum "Si O2"
_cell_formula_units_Z 88
_cell_length_a 28.902027
_cell_length_b 17.617421
_cell_length_c 8.883728
_cell_angle_alpha 90.000000
_cell_angle_beta 90.000000
_cell_angle_gamma 90.000000
_cell_volume 4523.409315
_symmetry_space_group_name_H-M "I M M M"
_symmetry_group_IT_number 71
_symmetry_cell_setting 'orthorhombic'
loop_
_space_group_symop_operation_xyz
x,y,z
-x,-y,z
x,-y,-z
-x,y,-z
-x,-y,-z
x,y,-z
-x,y,z
x,-y,z
1/2+x,1/2+y,1/2+z
1/2-x,1/2-y,1/2+z
1/2+x,1/2-y,1/2-z
1/2-x,1/2+y,1/2-z
1/2-x,1/2-y,1/2-z
1/2+x,1/2+y,1/2-z
1/2-x,1/2+y,1/2+z
1/2+x,1/2-y,1/2+z
loop_
_atom_site_type_symbol
_atom_site_label
_atom_site_fract_x
_atom_site_fract_y
_atom_site_fract_z
Si Si1 0.500000 0.914257 0.821955
Si Si2 0.804486 0.000000 0.172982
Si Si3 0.317257 0.788093 0.828865
Si Si4 0.899842 0.000000 0.324649
Si Si5 0.234301 0.862559 0.329953
Si Si6 0.447021 0.640243 0.331251
Si Si7 0.076622 0.704031 0.323301
O O1 0.453793 0.868621 0.769824
O O2 0.500000 0.000000 0.752466
O O3 0.500000 0.921045 0.000000
O O4 0.773777 0.926762 0.206582
O O5 0.845956 0.000000 0.290623
O O6 0.820998 0.000000 0.000000
O O7 0.284082 0.827965 0.709460
O O8 0.307452 0.698102 0.817760
O O9 0.369666 0.807897 0.781529
O O10 0.307474 0.815643 0.000000
O O11 0.920160 0.076794 0.259300
O O12 0.909232 0.000000 0.500000
O O13 0.236641 0.894700 0.500000
O O14 0.426803 0.643397 0.500000
O O15 0.500000 0.615433 0.332918
O O16 0.442428 0.722183 0.258076
O O17 0.070510 0.717689 0.500000
#
# Coordination Sequence:
#
# PCOD8289614 Si02
#       7
#     8   8  16   8  16  16  16
#     4   9  18  34  57  86 117 148 189 245 300 349
#     4  12  24  39  59  84 118 154 191 238 292 343
#     4   9  19  35  56  84 112 147 192 241 291 344
#     4  12  25  39  58  85 118 158 201 239 286 349
#     4  10  20  36  57  81 115 152 192 237 286 344
#     4  11  23  38  57  84 120 157 199 248 297 344
#     4  10  19  35  60  86 115 153 201 246 295 356
#
# _framework density 19.454353000000001
#
# number of rings (size 3 to 8) (size 9 to 14) (size 15 to 20)
#    0.000    1.727    0.909    4.091    0.000    5.091 
#    1.636    0.000    0.000    1.091    0.000    0.000 
#    0.000    0.000    0.000    0.000    0.000    0.000 
#
# Total GULP energy -545638.851589 kJ/mol
# GULP energy per Si atom -12400.882991 kJ/mol
# Density = 1.941007 g / cm^3
# Si number density = 19.454353 Si / 1000 Ang^3
#
#
#
# Elastic Constant Matrix: (Units=GPa)
#
#
# Indices 1 2 3 4 5 6 
#
# 1 111.8013 47.2521 30.1926 0.0000 0.0000 0.0000
# 2 47.2521 130.1409 42.2629 0.0000 0.0000 0.0000
# 3 30.1926 42.2629 83.0912 0.0000 0.0000 0.0000
# 4 0.0000 0.0000 0.0000 17.0219 0.0000 0.0000
# 5 0.0000 0.0000 0.0000 0.0000 26.7219 0.0000
# 6 0.0000 0.0000 0.0000 0.0000 0.0000 23.4358
#
#
#
# Elastic Compliance Matrix: (Units=1/GPa)
#
#
# Indices 1 2 3 4 5 6 
#
# 1 0.010933 -0.003210 -0.002340 0.000000 0.000000 0.000000
# 2 -0.003210 0.010147 -0.003995 0.000000 0.000000 0.000000
# 3 -0.002340 -0.003995 0.014917 0.000000 0.000000 0.000000
# 4 0.000000 0.000000 0.000000 0.058748 0.000000 0.000000
# 5 0.000000 0.000000 0.000000 0.000000 0.037422 0.000000
# 6 0.000000 0.000000 0.000000 0.000000 0.000000 0.042670
#
#
# Mechanical properties :
#
#
# Convention : Reuss Voigt Hill
#
# Bulk Modulus (GPa) = 59.14416 62.71653 60.93034
# Shear Modulus (GPa) = 25.05496 27.12432 26.08964
#
# Velocity S-wave (km/s) = 3.59260 3.73802 3.66603
# Velocity P-wave (km/s) = 6.90482 7.13710 7.02192
#
# Compressibility (1/GPa) = 0.01690784
#
# Stress axis : x y z
#
# Youngs Moduli (GPa) = 91.46678 98.55541 67.03714
#
# Poissons Ratio (x) = 0.31632 0.15688
# Poissons Ratio (y) = 0.29357 0.26779
# Poissons Ratio (z) = 0.21405 0.39369
#
# Static dielectric constant tensor:
#      x y z
#    x 3.609520 0.000000 0.000000 
#    y 0.000000 2.818700 0.000000 
#    z 0.000000 0.000000 3.483810 
# 
# 
# High freq. dielectric constant tensor:
#      x y z
#    x 1.762970 0.000000 0.000000 
#    y 0.000000 1.753550 0.000000 
#    z 0.000000 0.000000 1.753180 
# 
# From -- ./inp_files/16740.got.cif
#   From: 2010.06.25/outbox.cif.g09.slc.cpg/sg71_9_cif.got.tgz:16740.got - 2010.06.28 04:59:45.
