data_PCOD8289410
_publ_section_title
;
Structure prediction by ZEFSAII (Michael W. Deem and Ramdas Pophale) SiO2 
 PCOD8289410
Probable space group: I M M M
;
_chemical_formula_sum "Si O2"
_cell_formula_units_Z 80
_cell_length_a 21.948101
_cell_length_b 23.394878
_cell_length_c 8.117285
_cell_angle_alpha 90.000000
_cell_angle_beta 90.000000
_cell_angle_gamma 90.000000
_cell_volume 4168.007860
_symmetry_space_group_name_H-M "I M M M"
_symmetry_group_IT_number 71
_symmetry_cell_setting 'orthorhombic'
loop_
_space_group_symop_operation_xyz
x,y,z
-x,-y,z
x,-y,-z
-x,y,-z
-x,-y,-z
x,y,-z
-x,y,z
x,-y,z
1/2+x,1/2+y,1/2+z
1/2-x,1/2-y,1/2+z
1/2+x,1/2-y,1/2-z
1/2-x,1/2+y,1/2-z
1/2-x,1/2-y,1/2-z
1/2+x,1/2+y,1/2-z
1/2-x,1/2+y,1/2+z
1/2+x,1/2-y,1/2+z
loop_
_atom_site_type_symbol
_atom_site_label
_atom_site_fract_x
_atom_site_fract_y
_atom_site_fract_z
Si Si1 0.705778 0.830109 0.306105
Si Si2 0.000000 0.567691 0.316173
Si Si3 0.429790 0.367350 0.683699
Si Si4 0.370559 0.936283 0.307649
Si Si5 0.162882 0.212338 0.688487
Si Si6 0.427697 0.437022 0.000000
O O1 0.694838 0.823149 0.500000
O O2 0.679439 0.890886 0.240183
O O3 0.776894 0.823900 0.262246
O O4 0.670232 0.779625 0.214611
O O5 0.061720 0.588535 0.227128
O O6 0.000000 0.500000 0.314332
O O7 0.000000 0.592624 0.500000
O O8 0.421149 0.394488 0.500000
O O9 0.500000 0.352125 0.714116
O O10 0.391754 0.308910 0.695293
O O11 0.404858 0.408119 0.829966
O O12 0.361776 0.942399 0.500000
O O13 0.361003 0.000000 0.227527
O O14 0.145384 0.200730 0.500000
O O15 0.399059 0.500000 0.000000
O O16 0.500000 0.439560 0.000000
#
# Coordination Sequence:
#
# PCOD8289410 Si02
#       6
#    16   8  16  16  16   8
#     4   9  19  34  53  77 105 140 185 225 273 329
#     4   9  17  29  47  71 101 135 169 209 261 314
#     4  10  20  35  57  83 113 148 184 230 281 327
#     4   9  17  32  53  75 102 137 177 218 265 324
#     4  10  19  34  55  77 108 144 184 229 277 328
#     4   9  18  34  56  82 112 146 183 222 272 334
#
# _framework density 19.193821
#
# number of rings (size 3 to 8) (size 9 to 14) (size 15 to 20)
#    0.000    2.600    1.000    0.900    0.000    3.200 
#    1.800    3.000    0.000    0.000    0.000    0.000 
#    0.000    0.000    0.000    0.000    0.000    0.000 
#
# Total GULP energy -495756.579340 kJ/mol
# GULP energy per Si atom -12393.914483 kJ/mol
# Density = 1.915014 g / cm^3
# Si number density = 19.193821 Si / 1000 Ang^3
#
#
#
# Elastic Constant Matrix: (Units=GPa)
#
#
# Indices 1 2 3 4 5 6 
#
# 1 77.1875 63.0303 30.5024 0.0000 0.0000 0.0000
# 2 63.0303 109.9095 38.9517 0.0000 0.0000 0.0000
# 3 30.5024 38.9517 86.1004 0.0000 0.0000 0.0000
# 4 0.0000 0.0000 0.0000 21.8234 0.0000 0.0000
# 5 0.0000 0.0000 0.0000 0.0000 20.2699 0.0000
# 6 0.0000 0.0000 0.0000 0.0000 0.0000 25.9680
#
#
#
# Elastic Compliance Matrix: (Units=1/GPa)
#
#
# Indices 1 2 3 4 5 6 
#
# 1 0.024926 -0.013297 -0.002815 0.000000 0.000000 0.000000
# 2 -0.013297 0.017929 -0.003400 0.000000 0.000000 0.000000
# 3 -0.002815 -0.003400 0.014150 0.000000 0.000000 0.000000
# 4 0.000000 0.000000 0.000000 0.045822 0.000000 0.000000
# 5 0.000000 0.000000 0.000000 0.000000 0.049334 0.000000
# 6 0.000000 0.000000 0.000000 0.000000 0.000000 0.038509
#
#
# Mechanical properties :
#
#
# Convention : Reuss Voigt Hill
#
# Bulk Modulus (GPa) = 55.61603 59.79624 57.70614
# Shear Modulus (GPa) = 21.21452 22.99311 22.10381
#
# Velocity S-wave (km/s) = 3.32818 3.46489 3.39722
# Velocity P-wave (km/s) = 6.61876 6.87232 6.74673
#
# Compressibility (1/GPa) = 0.01798043
#
# Stress axis : x y z
#
# Youngs Moduli (GPa) = 40.11916 55.77621 70.67175
#
# Poissons Ratio (x) = 0.74164 0.19894
# Poissons Ratio (y) = 0.53345 0.24031
# Poissons Ratio (z) = 0.11293 0.18966
#
# Static dielectric constant tensor:
#      x y z
#    x 3.494940 0.000000 0.000000 
#    y 0.000000 3.622110 0.000000 
#    z 0.000000 0.000000 3.538930 
# 
# 
# High freq. dielectric constant tensor:
#      x y z
#    x 1.735390 0.000000 0.000000 
#    y 0.000000 1.726020 0.000000 
#    z 0.000000 0.000000 1.747580 
# 
# From -- ./inp_files/8398.got.cif
#   From: 2010.06.25/outbox.cif.g09.slc.cpg/sg71_5_cif.got.tgz:8398.got - 2010.06.28 04:59:45.
