data_PCOD8289648
_publ_section_title
;
Structure prediction by ZEFSAII (Michael W. Deem and Ramdas Pophale) SiO2 
 PCOD8289648
Probable space group: I M M M
;
_chemical_formula_sum "Si O2"
_cell_formula_units_Z 96
_cell_length_a 23.274829
_cell_length_b 22.494972
_cell_length_c 9.924658
_cell_angle_alpha 90.000000
_cell_angle_beta 90.000000
_cell_angle_gamma 90.000000
_cell_volume 5196.219710
_symmetry_space_group_name_H-M "I M M M"
_symmetry_group_IT_number 71
_symmetry_cell_setting 'orthorhombic'
loop_
_space_group_symop_operation_xyz
x,y,z
-x,-y,z
x,-y,-z
-x,y,-z
-x,-y,-z
x,y,-z
-x,y,z
x,-y,z
1/2+x,1/2+y,1/2+z
1/2-x,1/2-y,1/2+z
1/2+x,1/2-y,1/2-z
1/2-x,1/2+y,1/2-z
1/2-x,1/2-y,1/2-z
1/2+x,1/2+y,1/2-z
1/2-x,1/2+y,1/2+z
1/2+x,1/2-y,1/2+z
loop_
_atom_site_type_symbol
_atom_site_label
_atom_site_fract_x
_atom_site_fract_y
_atom_site_fract_z
Si Si1 0.564609 0.327247 0.852908
Si Si2 0.878485 0.397877 0.157735
Si Si3 0.868198 0.069199 0.262705
Si Si4 0.245395 0.567413 0.847486
Si Si5 0.433114 0.227858 0.653271
Si Si6 0.068298 0.500000 0.340871
Si Si7 0.063849 0.069719 0.000000
O O1 0.500000 0.345012 0.808144
O O2 0.602525 0.386987 0.869236
O O3 0.591400 0.280047 0.748074
O O4 0.564086 0.296894 0.000000
O O5 0.810176 0.393416 0.187344
O O6 0.901853 0.333021 0.189319
O O7 0.908244 0.442532 0.262078
O O8 0.889456 0.416421 0.000000
O O9 0.799812 0.081698 0.252066
O O10 0.898785 0.089637 0.126087
O O11 0.879120 0.000000 0.300781
O O12 0.224611 0.500000 0.827158
O O13 0.266783 0.578028 0.000000
O O14 0.421290 0.247078 0.500000
O O15 0.500000 0.217401 0.681524
O O16 0.087243 0.500000 0.500000
O O17 0.000000 0.500000 0.331010
O O18 0.000000 0.099755 0.000000
O O19 0.055423 0.000000 0.000000
#
# Coordination Sequence:
#
# PCOD8289648 Si02
#       7
#    16  16  16  16  16   8   8
#     4  10  21  35  53  78 108 143 181 225 281 337
#     4  10  19  36  59  83 108 146 195 235 273 331
#     4  10  20  34  53  80 110 143 181 226 276 336
#     4   9  17  32  54  79 109 143 181 228 279 326
#     4   9  19  35  56  79 105 141 184 232 282 332
#     4  11  23  35  51  85 123 151 179 230 295 338
#     4   9  18  32  50  76 108 142 178 223 275 325
#
# _framework density 18.474969999999999
#
# number of rings (size 3 to 8) (size 9 to 14) (size 15 to 20)
#    0.000    2.333    0.833    1.750    1.167    4.000 
#    1.500    3.333    0.000    0.000    0.000    0.000 
#    0.000    0.000    0.000    0.000    0.000    0.000 
#
# Total GULP energy -594937.520514 kJ/mol
# GULP energy per Si atom -12394.531677 kJ/mol
# Density = 1.843292 g / cm^3
# Si number density = 18.474970 Si / 1000 Ang^3
#
#
#
# Elastic Constant Matrix: (Units=GPa)
#
#
# Indices 1 2 3 4 5 6 
#
# 1 109.8750 55.6197 49.7340 0.0000 0.0000 0.0000
# 2 55.6197 110.6049 55.0369 0.0000 0.0000 0.0000
# 3 49.7340 55.0369 100.6556 0.0000 0.0000 0.0000
# 4 0.0000 0.0000 0.0000 21.4808 0.0000 0.0000
# 5 0.0000 0.0000 0.0000 0.0000 25.1019 0.0000
# 6 0.0000 0.0000 0.0000 0.0000 0.0000 19.5151
#
#
#
# Elastic Compliance Matrix: (Units=1/GPa)
#
#
# Indices 1 2 3 4 5 6 
#
# 1 0.013286 -0.004691 -0.004000 0.000000 0.000000 0.000000
# 2 -0.004691 0.014077 -0.005379 0.000000 0.000000 0.000000
# 3 -0.004000 -0.005379 0.014852 0.000000 0.000000 0.000000
# 4 0.000000 0.000000 0.000000 0.046553 0.000000 0.000000
# 5 0.000000 0.000000 0.000000 0.000000 0.039838 0.000000
# 6 0.000000 0.000000 0.000000 0.000000 0.000000 0.051242
#
#
# Mechanical properties :
#
#
# Convention : Reuss Voigt Hill
#
# Bulk Modulus (GPa) = 71.04478 71.32410 71.18444
# Shear Modulus (GPa) = 23.50944 23.93589 23.72267
#
# Velocity S-wave (km/s) = 3.57108 3.60333 3.58724
# Velocity P-wave (km/s) = 7.45263 7.48342 7.46804
#
# Compressibility (1/GPa) = 0.01407563
#
# Stress axis : x y z
#
# Youngs Moduli (GPa) = 75.26518 71.03893 67.32899
#
# Poissons Ratio (x) = 0.33324 0.26931
# Poissons Ratio (y) = 0.35307 0.36217
# Poissons Ratio (z) = 0.30105 0.38213
#
# Static dielectric constant tensor:
#      x y z
#    x 3.386610 0.000000 0.000000 
#    y 0.000000 3.264950 0.000000 
#    z 0.000000 0.000000 3.484190 
# 
# 
# High freq. dielectric constant tensor:
#      x y z
#    x 1.714260 0.000000 0.000000 
#    y 0.000000 1.702110 0.000000 
#    z 0.000000 0.000000 1.713500 
# 
# From -- ./inp_files/12921.got.cif
#   From: 2010.06.25/outbox.cif.g09.slc.cpg/sg71_7_cif.got.tgz:12921.got - 2010.06.28 04:59:45.
