data_PCOD8289767
_publ_section_title
;
Structure prediction by ZEFSAII (Michael W. Deem and Ramdas Pophale) SiO2 
 PCOD8289767
Probable space group: I M M M
;
_chemical_formula_sum "Si O2"
_cell_formula_units_Z 88
_cell_length_a 13.075076
_cell_length_b 13.258283
_cell_length_c 29.423854
_cell_angle_alpha 90.000000
_cell_angle_beta 90.000000
_cell_angle_gamma 90.000000
_cell_volume 5100.715065
_symmetry_space_group_name_H-M "I M M M"
_symmetry_group_IT_number 71
_symmetry_cell_setting 'orthorhombic'
loop_
_space_group_symop_operation_xyz
x,y,z
-x,-y,z
x,-y,-z
-x,y,-z
-x,-y,-z
x,y,-z
-x,y,z
x,-y,z
1/2+x,1/2+y,1/2+z
1/2-x,1/2-y,1/2+z
1/2+x,1/2-y,1/2-z
1/2-x,1/2+y,1/2-z
1/2-x,1/2-y,1/2-z
1/2+x,1/2+y,1/2-z
1/2-x,1/2+y,1/2+z
1/2+x,1/2-y,1/2+z
loop_
_atom_site_type_symbol
_atom_site_label
_atom_site_fract_x
_atom_site_fract_y
_atom_site_fract_z
Si Si1 0.500000 0.884248 0.053493
Si Si2 0.118734 0.886059 0.647820
Si Si3 0.883691 0.117711 0.052391
Si Si4 0.702054 0.116086 0.796098
Si Si5 0.693843 0.194855 0.894774
Si Si6 0.614842 0.305953 0.754998
O O1 0.602896 0.833263 0.071478
O O2 0.500000 0.000000 0.068440
O O3 0.500000 0.870906 0.000000
O O4 0.186831 0.813471 0.616625
O O5 0.146065 0.869559 0.700525
O O6 0.000000 0.859563 0.640081
O O7 0.144431 0.000000 0.633793
O O8 0.804452 0.179304 0.082939
O O9 0.000000 0.143809 0.067152
O O10 0.861678 0.000000 0.059494
O O11 0.867007 0.147207 0.000000
O O12 0.679926 0.128723 0.849368
O O13 0.628341 0.186575 0.765500
O O14 0.817407 0.153720 0.786532
O O15 0.684350 0.000000 0.782356
O O16 0.500000 0.326804 0.739737
#
# Coordination Sequence:
#
# PCOD8289767 Si02
#       6
#     8  16  16  16  16  16
#     4  11  22  34  51  77 109 139 164 202 263 327
#     4   9  17  32  53  73  99 136 173 209 253 305
#     4   9  18  33  52  73 100 135 169 200 244 306
#     4  10  20  31  48  75 104 132 166 211 256 297
#     4  11  20  33  51  79 104 130 169 212 257 306
#     4   9  19  34  49  70  99 136 176 206 245 301
#
# _framework density 17.252483000000002
#
# number of rings (size 3 to 8) (size 9 to 14) (size 15 to 20)
#    0.000    2.273    0.909    3.273    1.273    3.636 
#    0.000    0.000    0.000    3.273    0.000    1.273 
#    0.000    0.000    0.000    0.000    0.000    0.000 
#
# Total GULP energy -545611.352720 kJ/mol
# GULP energy per Si atom -12400.258016 kJ/mol
# Density = 1.721322 g / cm^3
# Si number density = 17.252483 Si / 1000 Ang^3
#
#
#
# Elastic Constant Matrix: (Units=GPa)
#
#
# Indices 1 2 3 4 5 6 
#
# 1 80.9970 25.3700 23.6095 0.0000 0.0000 0.0000
# 2 25.3700 104.6058 27.3725 0.0000 0.0000 0.0000
# 3 23.6095 27.3725 43.4215 0.0000 0.0000 0.0000
# 4 0.0000 0.0000 0.0000 19.8481 0.0000 0.0000
# 5 0.0000 0.0000 0.0000 0.0000 27.8734 0.0000
# 6 0.0000 0.0000 0.0000 0.0000 0.0000 21.5549
#
#
#
# Elastic Compliance Matrix: (Units=1/GPa)
#
#
# Indices 1 2 3 4 5 6 
#
# 1 0.014947 -0.001795 -0.006996 0.000000 0.000000 0.000000
# 2 -0.001795 0.011664 -0.006377 0.000000 0.000000 0.000000
# 3 -0.006996 -0.006377 0.030854 0.000000 0.000000 0.000000
# 4 0.000000 0.000000 0.000000 0.050383 0.000000 0.000000
# 5 0.000000 0.000000 0.000000 0.000000 0.035877 0.000000
# 6 0.000000 0.000000 0.000000 0.000000 0.000000 0.046393
#
#
# Mechanical properties :
#
#
# Convention : Reuss Voigt Hill
#
# Bulk Modulus (GPa) = 36.85957 42.41426 39.63691
# Shear Modulus (GPa) = 21.78689 24.03343 22.91016
#
# Velocity S-wave (km/s) = 3.55748 3.73640 3.64804
# Velocity P-wave (km/s) = 6.18752 6.57663 6.38504
#
# Compressibility (1/GPa) = 0.02713000
#
# Stress axis : x y z
#
# Youngs Moduli (GPa) = 66.90084 85.73690 32.41072
#
# Poissons Ratio (x) = 0.15386 0.22675
# Poissons Ratio (y) = 0.12005 0.20668
# Poissons Ratio (z) = 0.46805 0.54674
#
# Static dielectric constant tensor:
#      x y z
#    x 3.233080 0.000000 0.000000 
#    y 0.000000 3.183750 0.000000 
#    z 0.000000 0.000000 3.077470 
# 
# 
# High freq. dielectric constant tensor:
#      x y z
#    x 1.667060 0.000000 0.000000 
#    y 0.000000 1.657910 0.000000 
#    z 0.000000 0.000000 1.654150 
# 
# From -- ./inp_files/28619.got.cif
#   From: 2010.06.25/outbox.cif.g09.slc.cpg/sg71_15_cif.got.tgz:28619.got - 2010.06.28 04:59:45.
