data_PCOD8289895
_publ_section_title
;
Structure prediction by ZEFSAII (Michael W. Deem and Ramdas Pophale) SiO2 
 PCOD8289895
Probable space group: I M M M
;
_chemical_formula_sum "Si O2"
_cell_formula_units_Z 104
_cell_length_a 9.006630
_cell_length_b 32.206922
_cell_length_c 20.300945
_cell_angle_alpha 90.000000
_cell_angle_beta 90.000000
_cell_angle_gamma 90.000000
_cell_volume 5888.813468
_symmetry_space_group_name_H-M "I M M M"
_symmetry_group_IT_number 71
_symmetry_cell_setting 'orthorhombic'
loop_
_space_group_symop_operation_xyz
x,y,z
-x,-y,z
x,-y,-z
-x,y,-z
-x,-y,-z
x,y,-z
-x,y,z
x,-y,z
1/2+x,1/2+y,1/2+z
1/2-x,1/2-y,1/2+z
1/2+x,1/2-y,1/2-z
1/2-x,1/2+y,1/2-z
1/2-x,1/2-y,1/2-z
1/2+x,1/2+y,1/2-z
1/2-x,1/2+y,1/2+z
1/2+x,1/2-y,1/2+z
loop_
_atom_site_type_symbol
_atom_site_label
_atom_site_fract_x
_atom_site_fract_y
_atom_site_fract_z
Si Si1 0.672215 0.048043 0.000000
Si Si2 0.329780 0.688819 0.074086
Si Si3 0.175049 0.954645 0.262308
Si Si4 0.168674 0.573892 0.362888
Si Si5 0.173950 0.134244 0.695364
Si Si6 0.668654 0.167077 0.819512
Si Si7 0.825046 0.225644 0.924887
O O1 0.744053 0.067026 0.934146
O O2 0.500000 0.060011 0.000000
O O3 0.702633 0.000000 0.000000
O O4 0.500000 0.703118 0.084523
O O5 0.288193 0.651274 0.122976
O O6 0.223970 0.727385 0.089072
O O7 0.304831 0.672096 0.000000
O O8 0.238364 0.952375 0.189044
O O9 0.232433 0.913913 0.302573
O O10 0.000000 0.952691 0.257802
O O11 0.222946 0.000000 0.292842
O O12 0.174942 0.622315 0.351198
O O13 0.000000 0.556989 0.360484
O O14 0.252001 0.164415 0.748496
O O15 0.000000 0.135698 0.711015
O O16 0.500000 0.182403 0.808937
O O17 0.748838 0.197407 0.870218
O O18 0.000000 0.222225 0.915826
O O19 0.778612 0.212948 0.000000
#
# Coordination Sequence:
#
# PCOD8289895 Si02
#       7
#     8  16  16  16  16  16  16
#     4   9  16  26  41  61  85 115 153 197 243 281
#     4   9  18  34  55  76  96 124 162 201 244 292
#     4   9  17  30  48  69  95 126 157 191 236 289
#     4   9  18  30  45  65  89 122 161 202 242 280
#     4   9  18  33  52  73 100 129 160 201 245 292
#     4  10  20  32  49  72  98 129 168 208 244 286
#     4  10  21  35  51  72  99 132 167 202 245 294
#
# _framework density 17.660602000000001
#
# number of rings (size 3 to 8) (size 9 to 14) (size 15 to 20)
#    0.000    2.692    0.000    1.385    1.077    3.692 
#    0.000    0.385    0.000    1.846    0.000    3.231 
#    0.000    0.000    0.000   11.538    0.000   12.000 
#
# Total GULP energy -644468.415832 kJ/mol
# GULP energy per Si atom -12393.623381 kJ/mol
# Density = 1.762041 g / cm^3
# Si number density = 17.660602 Si / 1000 Ang^3
#
#
#
# Elastic Constant Matrix: (Units=GPa)
#
#
# Indices 1 2 3 4 5 6 
#
# 1 43.4869 35.4232 34.6220 0.0000 0.0000 0.0000
# 2 35.4232 94.8442 66.8092 0.0000 0.0000 0.0000
# 3 34.6220 66.8092 115.8314 -0.0002 0.0000 0.0000
# 4 0.0000 0.0000 -0.0002 18.0837 0.0000 0.0000
# 5 0.0000 0.0000 0.0000 0.0000 30.9437 0.0000
# 6 0.0000 0.0000 0.0000 0.0000 0.0000 20.0319
#
#
#
# Elastic Compliance Matrix: (Units=1/GPa)
#
#
# Indices 1 2 3 4 5 6 
#
# 1 0.034606 -0.009497 -0.004866 0.000000 0.000000 0.000000
# 2 -0.009497 0.020365 -0.008908 0.000000 0.000000 0.000000
# 3 -0.004866 -0.008908 0.015225 0.000000 0.000000 0.000000
# 4 0.000000 0.000000 0.000000 0.055299 0.000000 0.000000
# 5 0.000000 0.000000 0.000000 0.000000 0.032317 0.000000
# 6 0.000000 0.000000 0.000000 0.000000 0.000000 0.049920
#
#
# Mechanical properties :
#
#
# Convention : Reuss Voigt Hill
#
# Bulk Modulus (GPa) = 42.27440 58.65235 50.46337
# Shear Modulus (GPa) = 19.07248 21.63240 20.35244
#
# Velocity S-wave (km/s) = 3.28982 3.50365 3.39841
# Velocity P-wave (km/s) = 6.19836 7.04630 6.63589
#
# Compressibility (1/GPa) = 0.02365498
#
# Stress axis : x y z
#
# Youngs Moduli (GPa) = 28.89713 49.10310 65.68006
#
# Poissons Ratio (x) = 0.46635 0.31958
# Poissons Ratio (y) = 0.27444 0.58505
# Poissons Ratio (z) = 0.14061 0.43739
#
# Static dielectric constant tensor:
#      x y z
#    x 3.297110 0.000000 0.000000 
#    y 0.000000 3.480170 0.000000 
#    z 0.000000 0.000000 3.343590 
# 
# 
# High freq. dielectric constant tensor:
#      x y z
#    x 1.673300 0.000000 0.000000 
#    y 0.000000 1.682460 0.000000 
#    z 0.000000 0.000000 1.673730 
# 
# From -- ./inp_files/51144.got.cif
#   From: 2010.06.25/outbox.cif.g09.slc.cpg/sg71_26_cif.got.tgz:51144.got - 2010.06.28 04:59:45.
