data_PCOD8289265
_publ_section_title
;
Structure prediction by ZEFSAII (Michael W. Deem and Ramdas Pophale) SiO2 
 PCOD8289265
Probable space group: I M M M
;
_chemical_formula_sum "Si O2"
_cell_formula_units_Z 88
_cell_length_a 19.641481
_cell_length_b 8.889387
_cell_length_c 25.209492
_cell_angle_alpha 90.000000
_cell_angle_beta 90.000000
_cell_angle_gamma 90.000000
_cell_volume 4401.595602
_symmetry_space_group_name_H-M "I M M M"
_symmetry_group_IT_number 71
_symmetry_cell_setting 'orthorhombic'
loop_
_space_group_symop_operation_xyz
x,y,z
-x,-y,z
x,-y,-z
-x,y,-z
-x,-y,-z
x,y,-z
-x,y,z
x,-y,z
1/2+x,1/2+y,1/2+z
1/2-x,1/2-y,1/2+z
1/2+x,1/2-y,1/2-z
1/2-x,1/2+y,1/2-z
1/2-x,1/2-y,1/2-z
1/2+x,1/2+y,1/2-z
1/2-x,1/2+y,1/2+z
1/2+x,1/2-y,1/2+z
loop_
_atom_site_type_symbol
_atom_site_label
_atom_site_fract_x
_atom_site_fract_y
_atom_site_fract_z
Si Si1 0.077128 0.329682 0.241041
Si Si2 0.424367 0.668699 0.633852
Si Si3 0.318613 0.326321 0.910512
Si Si4 0.829760 0.666094 0.059005
Si Si5 0.802977 0.823929 0.291515
Si Si6 0.579227 0.679867 0.000000
O O1 0.103495 0.500000 0.249426
O O2 0.083625 0.291112 0.179476
O O3 0.120853 0.209739 0.272999
O O4 0.000000 0.312461 0.261061
O O5 0.500000 0.680343 0.609089
O O6 0.411152 0.500000 0.655605
O O7 0.368796 0.704566 0.589966
O O8 0.335456 0.500000 0.900999
O O9 0.250333 0.298995 0.943713
O O10 0.303211 0.256273 0.851736
O O11 0.381433 0.259807 0.946396
O O12 0.841806 0.500000 0.084481
O O13 0.858958 0.668111 0.000000
O O14 0.750000 0.750000 0.250000
O O15 0.786814 0.000000 0.291472
O O16 0.583091 0.500000 0.000000
O O17 0.500000 0.735025 0.000000
#
# Coordination Sequence:
#
# PCOD8289265 Si02
#       6
#    16  16  16  16  16   8
#     4  10  21  38  58  79 108 147 189 232 285 348
#     4  10  21  36  54  78 109 143 182 232 283 332
#     4   9  18  33  52  79 113 146 184 232 285 338
#     4  10  19  33  55  78 107 146 186 228 274 332
#     4  11  22  35  56  86 120 154 193 241 291 350
#     4   9  16  30  54  82 112 145 184 234 291 343
#
# _framework density 19.992750999999998
#
# number of rings (size 3 to 8) (size 9 to 14) (size 15 to 20)
#    0.000    2.091    0.909    2.727    0.000    5.091 
#    0.000    4.545    0.000    0.000    0.000    0.000 
#    0.000    5.091    0.000    0.000    0.000    0.000 
#
# Total GULP energy -545207.917397 kJ/mol
# GULP energy per Si atom -12391.089032 kJ/mol
# Density = 1.994725 g / cm^3
# Si number density = 19.992751 Si / 1000 Ang^3
#
#
#
# Elastic Constant Matrix: (Units=GPa)
#
#
# Indices 1 2 3 4 5 6 
#
# 1 84.7585 28.2066 51.5819 0.0000 0.0000 0.0000
# 2 28.2066 47.0523 20.6395 0.0000 0.0000 0.0000
# 3 51.5819 20.6395 113.8691 0.0000 0.0000 0.0000
# 4 0.0000 0.0000 0.0000 23.1706 0.0000 0.0000
# 5 0.0000 0.0000 0.0000 0.0000 37.7741 0.0000
# 6 0.0000 0.0000 0.0000 0.0000 0.0000 27.9197
#
#
#
# Elastic Compliance Matrix: (Units=1/GPa)
#
#
# Indices 1 2 3 4 5 6 
#
# 1 0.018803 -0.008187 -0.007034 0.000000 0.000000 0.000000
# 2 -0.008187 0.026653 -0.001123 0.000000 0.000000 0.000000
# 3 -0.007034 -0.001123 0.012172 0.000000 0.000000 0.000000
# 4 0.000000 0.000000 0.000000 0.043158 0.000000 0.000000
# 5 0.000000 0.000000 0.000000 0.000000 0.026473 0.000000
# 6 0.000000 0.000000 0.000000 0.000000 0.000000 0.035817
#
#
# Mechanical properties :
#
#
# Convention : Reuss Voigt Hill
#
# Bulk Modulus (GPa) = 40.09310 49.61510 44.85410
# Shear Modulus (GPa) = 24.50062 27.45635 25.97848
#
# Velocity S-wave (km/s) = 3.50448 3.70985 3.60862
# Velocity P-wave (km/s) = 6.03925 6.57427 6.31243
#
# Compressibility (1/GPa) = 0.02494195
#
# Stress axis : x y z
#
# Youngs Moduli (GPa) = 53.18212 37.51921 82.15729
#
# Poissons Ratio (x) = 0.30716 0.57788
# Poissons Ratio (y) = 0.43539 0.09222
# Poissons Ratio (z) = 0.37408 0.04212
#
# Static dielectric constant tensor:
#      x y z
#    x 3.731310 0.000000 0.000000 
#    y 0.000000 3.362270 0.000000 
#    z 0.000000 0.000000 3.722940 
# 
# 
# High freq. dielectric constant tensor:
#      x y z
#    x 1.785640 0.000000 0.000000 
#    y 0.000000 1.748070 0.000000 
#    z 0.000000 0.000000 1.778610 
# 
# From -- ./inp_files/10438.got.cif
#   From: 2010.06.25/outbox.cif.g09.slc.cpg/sg71_6_cif.got.tgz:10438.got - 2010.06.28 04:59:45.
