data_PCOD8289703
_publ_section_title
;
Structure prediction by ZEFSAII (Michael W. Deem and Ramdas Pophale) SiO2 
 PCOD8289703
Probable space group: I M M M
;
_chemical_formula_sum "Si O2"
_cell_formula_units_Z 96
_cell_length_a 14.377728
_cell_length_b 24.942598
_cell_length_c 16.547660
_cell_angle_alpha 90.000000
_cell_angle_beta 90.000000
_cell_angle_gamma 90.000000
_cell_volume 5934.286908
_symmetry_space_group_name_H-M "I M M M"
_symmetry_group_IT_number 71
_symmetry_cell_setting 'orthorhombic'
loop_
_space_group_symop_operation_xyz
x,y,z
-x,-y,z
x,-y,-z
-x,y,-z
-x,-y,-z
x,y,-z
-x,y,z
x,-y,z
1/2+x,1/2+y,1/2+z
1/2-x,1/2-y,1/2+z
1/2+x,1/2-y,1/2-z
1/2-x,1/2+y,1/2-z
1/2-x,1/2-y,1/2-z
1/2+x,1/2+y,1/2-z
1/2-x,1/2+y,1/2+z
1/2+x,1/2-y,1/2+z
loop_
_atom_site_type_symbol
_atom_site_label
_atom_site_fract_x
_atom_site_fract_y
_atom_site_fract_z
Si Si1 0.391860 0.561498 0.657170
Si Si2 0.229660 0.800336 0.590349
Si Si3 0.394783 0.797187 0.124321
Si Si4 0.105976 0.266624 0.199899
Si Si5 0.392039 0.653879 0.777830
Si Si6 0.291990 0.561102 0.500000
Si Si7 0.103607 0.388252 0.500000
O O1 0.500000 0.565590 0.635544
O O2 0.363316 0.500000 0.677366
O O3 0.366962 0.598553 0.733358
O O4 0.336043 0.586245 0.580956
O O5 0.244585 0.823115 0.500000
O O6 0.173800 0.745031 0.584129
O O7 0.330098 0.789118 0.629069
O O8 0.171372 0.843594 0.642151
O O9 0.500000 0.776206 0.110436
O O10 0.375982 0.802649 0.220116
O O11 0.380672 0.853838 0.081010
O O12 0.131217 0.204894 0.220874
O O13 0.000000 0.271260 0.169886
O O14 0.500000 0.655630 0.803460
O O15 0.323162 0.500000 0.500000
O O16 0.180379 0.565487 0.500000
O O17 0.000000 0.413591 0.500000
#
# Coordination Sequence:
#
# PCOD8289703 Si02
#       7
#    16  16  16  16  16   8   8
#     4   9  18  33  51  71  95 123 155 191 233 281
#     4  11  20  28  46  68  93 126 152 193 229 273
#     4   9  17  30  46  65  88 122 158 187 220 270
#     4   9  19  32  44  64  95 127 157 189 226 267
#     4   9  18  31  48  69  93 122 156 192 229 271
#     4  10  21  31  48  71  95 126 157 196 235 274
#     4  10  20  30  47  70  94 127 162 191 227 271
#
# _framework density 16.177175999999999
#
# number of rings (size 3 to 8) (size 9 to 14) (size 15 to 20)
#    0.000    2.500    0.833    3.750    4.667    2.500 
#    0.000    0.000    0.000    0.500    0.000    2.333 
#    0.000    0.000    0.000    1.500    0.000    0.000 
#
# Total GULP energy -595087.352778 kJ/mol
# GULP energy per Si atom -12397.653183 kJ/mol
# Density = 1.614036 g / cm^3
# Si number density = 16.177176 Si / 1000 Ang^3
#
#
#
# Elastic Constant Matrix: (Units=GPa)
#
#
# Indices 1 2 3 4 5 6 
#
# 1 85.9923 26.1156 61.3356 0.0000 0.0000 0.0000
# 2 26.1156 42.6024 42.1862 0.0007 -0.0002 0.0000
# 3 61.3356 42.1862 121.6818 0.0006 -0.0001 0.0000
# 4 0.0000 0.0007 0.0006 17.0759 -0.0001 0.0000
# 5 0.0000 -0.0002 -0.0001 -0.0001 21.0734 0.0000
# 6 0.0000 0.0000 0.0000 0.0000 0.0000 20.0516
#
#
#
# Elastic Compliance Matrix: (Units=1/GPa)
#
#
# Indices 1 2 3 4 5 6 
#
# 1 0.018439 -0.003197 -0.008186 0.000000 0.000000 0.000000
# 2 -0.003197 0.036298 -0.010973 -0.000001 0.000000 0.000000
# 3 -0.008186 -0.010973 0.016149 0.000000 0.000000 0.000000
# 4 0.000000 -0.000001 0.000000 0.058562 0.000000 0.000000
# 5 0.000000 0.000000 0.000000 0.000000 0.047453 0.000000
# 6 0.000000 0.000000 0.000000 0.000000 0.000000 0.049871
#
#
# Mechanical properties :
#
#
# Convention : Reuss Voigt Hill
#
# Bulk Modulus (GPa) = 38.20597 56.61682 47.41140
# Shear Modulus (GPa) = 17.84387 19.68279 18.76333
#
# Velocity S-wave (km/s) = 3.32479 3.49191 3.40937
# Velocity P-wave (km/s) = 6.19737 7.16462 6.69848
#
# Compressibility (1/GPa) = 0.02617392
#
# Stress axis : x y z
#
# Youngs Moduli (GPa) = 54.23407 27.54946 61.92513
#
# Poissons Ratio (x) = 0.08808 0.50691
# Poissons Ratio (y) = 0.17339 0.67949
# Poissons Ratio (z) = 0.44395 0.30229
#
# Static dielectric constant tensor:
#      x y z
#    x 3.119730 0.000000 0.000000 
#    y 0.000000 2.789500 0.000000 
#    z 0.000000 0.000000 3.103530 
# 
# 
# High freq. dielectric constant tensor:
#      x y z
#    x 1.632650 0.000000 0.000000 
#    y 0.000000 1.580150 0.000000 
#    z 0.000000 0.000000 1.615330 
# 
# From -- ./inp_files/34783.got.cif
#   From: 2010.06.25/outbox.cif.g09.slc.cpg/sg71_18_cif.got.tgz:34783.got - 2010.06.28 04:59:45.
