data_PCOD8289730
_publ_section_title
;
Structure prediction by ZEFSAII (Michael W. Deem and Ramdas Pophale) SiO2 
 PCOD8289730
Probable space group: I M M M
;
_chemical_formula_sum "Si O2"
_cell_formula_units_Z 80
_cell_length_a 20.701683
_cell_length_b 29.108900
_cell_length_c 7.735884
_cell_angle_alpha 90.000000
_cell_angle_beta 90.000000
_cell_angle_gamma 90.000000
_cell_volume 4661.668610
_symmetry_space_group_name_H-M "I M M M"
_symmetry_group_IT_number 71
_symmetry_cell_setting 'orthorhombic'
loop_
_space_group_symop_operation_xyz
x,y,z
-x,-y,z
x,-y,-z
-x,y,-z
-x,-y,-z
x,y,-z
-x,y,z
x,-y,z
1/2+x,1/2+y,1/2+z
1/2-x,1/2-y,1/2+z
1/2+x,1/2-y,1/2-z
1/2-x,1/2+y,1/2-z
1/2-x,1/2-y,1/2-z
1/2+x,1/2+y,1/2-z
1/2-x,1/2+y,1/2+z
1/2+x,1/2-y,1/2+z
loop_
_atom_site_type_symbol
_atom_site_label
_atom_site_fract_x
_atom_site_fract_y
_atom_site_fract_z
Si Si1 0.240597 0.380831 0.803273
Si Si2 0.571560 0.751756 0.298510
Si Si3 0.931188 0.420487 0.500000
Si Si4 0.201889 0.209876 0.306224
Si Si5 0.904795 0.645327 0.805996
Si Si6 0.287238 0.948036 0.000000
O O1 0.286509 0.340583 0.721566
O O2 0.171700 0.356674 0.804407
O O3 0.240499 0.423953 0.672735
O O4 0.259016 0.397281 0.000000
O O5 0.586083 0.747755 0.500000
O O6 0.500000 0.732424 0.251713
O O7 0.626697 0.722574 0.205124
O O8 0.574470 0.804504 0.240803
O O9 0.934400 0.390488 0.326663
O O10 0.865826 0.450274 0.500000
O O11 0.000000 0.448666 0.500000
O O12 0.221912 0.200180 0.500000
O O13 0.250000 0.250000 0.250000
O O14 0.931473 0.635536 0.000000
O O15 0.261583 0.000000 0.000000
#
# Coordination Sequence:
#
# PCOD8289730 Si02
#       6
#    16  16   8  16  16   8
#     4   9  19  34  52  76  99 127 171 215 259 309
#     4  10  20  31  44  67 103 142 178 211 248 294
#     4  10  20  31  48  70  96 129 171 216 262 306
#     4  11  21  31  50  74 103 141 176 213 256 307
#     4   9  17  31  46  65  96 133 172 211 248 293
#     4  10  22  37  56  74  95 130 170 223 277 308
#
# _framework density 17.161238000000001
#
# number of rings (size 3 to 8) (size 9 to 14) (size 15 to 20)
#    0.000    2.200    2.000    1.200    4.200    2.200 
#    0.000    0.000    0.000    0.000    0.000    5.600 
#    0.000    1.600    0.000    4.400    0.000    0.000 
#
# Total GULP energy -495567.645547 kJ/mol
# GULP energy per Si atom -12389.191139 kJ/mol
# Density = 1.712218 g / cm^3
# Si number density = 17.161238 Si / 1000 Ang^3
#
#
#
# Elastic Constant Matrix: (Units=GPa)
#
#
# Indices 1 2 3 4 5 6 
#
# 1 71.3982 35.2181 14.7796 0.0000 0.0000 0.0000
# 2 35.2181 103.3614 42.9303 0.0000 0.0000 0.0000
# 3 14.7796 42.9303 78.1608 0.0000 0.0000 0.0000
# 4 0.0000 0.0000 0.0000 15.7343 0.0000 0.0000
# 5 0.0000 0.0000 0.0000 0.0000 46.8213 0.0000
# 6 0.0000 0.0000 0.0000 0.0000 0.0000 3.8352
#
#
#
# Elastic Compliance Matrix: (Units=1/GPa)
#
#
# Indices 1 2 3 4 5 6 
#
# 1 0.016836 -0.005719 -0.000042 0.000000 0.000000 0.000000
# 2 -0.005719 0.014477 -0.006870 0.000000 0.000000 0.000000
# 3 -0.000042 -0.006870 0.016576 0.000000 0.000000 0.000000
# 4 0.000000 0.000000 0.000000 0.063555 0.000000 0.000000
# 5 0.000000 0.000000 0.000000 0.000000 0.021358 0.000000
# 6 0.000000 0.000000 0.000000 0.000000 0.000000 0.260744
#
#
# Mechanical properties :
#
#
# Convention : Reuss Voigt Hill
#
# Bulk Modulus (GPa) = 44.19801 48.75293 46.47547
# Shear Modulus (GPa) = 11.72748 23.94432 17.83590
#
# Velocity S-wave (km/s) = 2.61697 3.73937 3.22734
# Velocity P-wave (km/s) = 5.91116 6.86398 6.40531
#
# Compressibility (1/GPa) = 0.02262545
#
# Stress axis : x y z
#
# Youngs Moduli (GPa) = 59.39799 69.07625 60.32969
#
# Poissons Ratio (x) = 0.39503 0.00256
# Poissons Ratio (y) = 0.33968 0.41447
# Poissons Ratio (z) = 0.00252 0.47456
#
# Static dielectric constant tensor:
#      x y z
#    x 4.174850 0.000000 0.000000 
#    y 0.000000 3.237850 0.000000 
#    z 0.000000 0.000000 3.445590 
# 
# 
# High freq. dielectric constant tensor:
#      x y z
#    x 1.649000 0.000000 0.000000 
#    y 0.000000 1.621190 0.000000 
#    z 0.000000 0.000000 1.674140 
# 
# From -- ./inp_files/8412.got.cif
#   From: 2010.06.25/outbox.cif.g09.slc.cpg/sg71_5_cif.got.tgz:8412.got - 2010.06.28 04:59:45.
