data_PCOD8289037
_publ_section_title
;
Structure prediction by ZEFSAII (Michael W. Deem and Ramdas Pophale) SiO2 
 PCOD8289037
Probable space group: I M M M
;
_chemical_formula_sum "Si O2"
_cell_formula_units_Z 80
_cell_length_a 21.638062
_cell_length_b 9.269921
_cell_length_c 21.736322
_cell_angle_alpha 90.000000
_cell_angle_beta 90.000000
_cell_angle_gamma 90.000000
_cell_volume 4359.939400
_symmetry_space_group_name_H-M "I M M M"
_symmetry_group_IT_number 71
_symmetry_cell_setting 'orthorhombic'
loop_
_space_group_symop_operation_xyz
x,y,z
-x,-y,z
x,-y,-z
-x,y,-z
-x,-y,-z
x,y,-z
-x,y,z
x,-y,z
1/2+x,1/2+y,1/2+z
1/2-x,1/2-y,1/2+z
1/2+x,1/2-y,1/2-z
1/2-x,1/2+y,1/2-z
1/2-x,1/2-y,1/2-z
1/2+x,1/2+y,1/2-z
1/2-x,1/2+y,1/2+z
1/2+x,1/2-y,1/2+z
loop_
_atom_site_type_symbol
_atom_site_label
_atom_site_fract_x
_atom_site_fract_y
_atom_site_fract_z
Si Si1 0.927574 0.339994 0.500000
Si Si2 0.369766 0.668157 0.890668
Si Si3 0.000000 0.328958 0.931833
Si Si4 0.735103 0.829830 0.569446
Si Si5 0.571643 0.331200 0.239750
Si Si6 0.117370 0.671664 0.855705
O O1 0.897833 0.500000 0.500000
O O2 0.908226 0.256040 0.439580
O O3 0.000000 0.352471 0.500000
O O4 0.378397 0.500000 0.905563
O O5 0.297999 0.713141 0.895759
O O6 0.396266 0.708105 0.824360
O O7 0.939731 0.274056 0.896623
O O8 0.000000 0.500000 0.935881
O O9 0.000000 0.261582 0.000000
O O10 0.734017 0.764364 0.500000
O O11 0.678786 0.769919 0.610455
O O12 0.728075 0.000000 0.563965
O O13 0.500000 0.281358 0.238896
O O14 0.576515 0.500000 0.254110
O O15 0.611179 0.244078 0.289438
O O16 0.118014 0.500000 0.847137
#
# Coordination Sequence:
#
# PCOD8289037 Si02
#       6
#     8  16   8  16  16  16
#     4  11  23  37  55  85 117 142 177 232 286 324
#     4  10  20  37  60  81 105 147 191 225 270 330
#     4   9  16  28  49  79 107 136 181 228 267 321
#     4   9  17  32  56  84 109 136 180 236 276 318
#     4  10  21  36  53  76 109 146 186 229 271 325
#     4  10  19  32  54  81 108 142 182 226 281 330
#
# _framework density 18.348879
#
# number of rings (size 3 to 8) (size 9 to 14) (size 15 to 20)
#    0.000    2.200    2.000    1.500    0.000    5.600 
#    0.000    1.000    0.000    2.400    0.000    0.000 
#    0.000    0.000    0.000    0.000    0.000    0.000 
#
# Total GULP energy -496020.373275 kJ/mol
# GULP energy per Si atom -12400.509332 kJ/mol
# Density = 1.830712 g / cm^3
# Si number density = 18.348879 Si / 1000 Ang^3
#
#
#
# Elastic Constant Matrix: (Units=GPa)
#
#
# Indices 1 2 3 4 5 6 
#
# 1 132.9622 29.0384 76.1737 0.0000 0.0000 0.0000
# 2 29.0384 36.9548 50.5179 0.0000 0.0000 0.0000
# 3 76.1737 50.5179 164.1273 0.0000 0.0000 0.0000
# 4 0.0000 0.0000 0.0000 44.7262 0.0000 0.0000
# 5 0.0000 0.0000 0.0000 0.0000 41.4002 0.0000
# 6 0.0000 0.0000 0.0000 0.0000 0.0000 15.5383
#
#
#
# Elastic Compliance Matrix: (Units=1/GPa)
#
#
# Indices 1 2 3 4 5 6 
#
# 1 0.010401 -0.002717 -0.003991 0.000000 0.000000 0.000000
# 2 -0.002717 0.047427 -0.013337 0.000000 0.000000 0.000000
# 3 -0.003991 -0.013337 0.012050 0.000000 0.000000 0.000000
# 4 0.000000 0.000000 0.000000 0.022358 0.000000 0.000000
# 5 0.000000 0.000000 0.000000 0.000000 0.024154 0.000000
# 6 0.000000 0.000000 0.000000 0.000000 0.000000 0.064357
#
#
# Mechanical properties :
#
#
# Convention : Reuss Voigt Hill
#
# Bulk Modulus (GPa) = 33.57057 71.72268 52.64663
# Shear Modulus (GPa) = 21.66701 32.22057 26.94379
#
# Velocity S-wave (km/s) = 3.44006 4.19501 3.83615
# Velocity P-wave (km/s) = 5.84073 7.91437 6.95526
#
# Compressibility (1/GPa) = 0.02978799
#
# Stress axis : x y z
#
# Youngs Moduli (GPa) = 96.14791 21.08520 82.98780
#
# Poissons Ratio (x) = 0.05729 0.33118
# Poissons Ratio (y) = 0.26126 1.10678
# Poissons Ratio (z) = 0.38370 0.28121
#
# Static dielectric constant tensor:
#      x y z
#    x 3.593980 0.000000 0.000000 
#    y 0.000000 3.071230 0.000000 
#    z 0.000000 0.000000 3.590760 
# 
# 
# High freq. dielectric constant tensor:
#      x y z
#    x 1.724600 0.000000 0.000000 
#    y 0.000000 1.672790 0.000000 
#    z 0.000000 0.000000 1.723500 
# 
# From -- ./inp_files/50390.got.cif
#   From: 2010.06.25/outbox.cif.g09.slc.cpg/sg71_26_cif.got.tgz:50390.got - 2010.06.28 04:59:45.
