data_PCOD8289466
_publ_section_title
;
Structure prediction by ZEFSAII (Michael W. Deem and Ramdas Pophale) SiO2 
 PCOD8289466
Probable space group: I M M M
;
_chemical_formula_sum "Si O2"
_cell_formula_units_Z 80
_cell_length_a 20.486680
_cell_length_b 23.027423
_cell_length_c 8.806119
_cell_angle_alpha 90.000000
_cell_angle_beta 90.000000
_cell_angle_gamma 90.000000
_cell_volume 4154.334598
_symmetry_space_group_name_H-M "I M M M"
_symmetry_group_IT_number 71
_symmetry_cell_setting 'orthorhombic'
loop_
_space_group_symop_operation_xyz
x,y,z
-x,-y,z
x,-y,-z
-x,y,-z
-x,-y,-z
x,y,-z
-x,y,z
x,-y,z
1/2+x,1/2+y,1/2+z
1/2-x,1/2-y,1/2+z
1/2+x,1/2-y,1/2-z
1/2-x,1/2+y,1/2-z
1/2-x,1/2-y,1/2-z
1/2+x,1/2+y,1/2-z
1/2-x,1/2+y,1/2+z
1/2+x,1/2-y,1/2+z
loop_
_atom_site_type_symbol
_atom_site_label
_atom_site_fract_x
_atom_site_fract_y
_atom_site_fract_z
Si Si1 0.500000 0.566322 0.319563
Si Si2 0.253861 0.435959 0.680580
Si Si3 0.876017 0.375497 0.322376
Si Si4 0.000000 0.433881 0.179096
Si Si5 0.822019 0.250006 0.678116
Si Si6 0.374496 0.361939 0.680668
O O1 0.500000 0.500000 0.254947
O O2 0.500000 0.562747 0.500000
O O3 0.437161 0.602026 0.261677
O O4 0.256119 0.436051 0.500000
O O5 0.264767 0.500000 0.746833
O O6 0.184806 0.412822 0.737996
O O7 0.311271 0.395614 0.742191
O O8 0.888485 0.385197 0.500000
O O9 0.860435 0.308919 0.285071
O O10 0.938008 0.397687 0.232505
O O11 0.000000 0.500000 0.245175
O O12 0.000000 0.436560 0.000000
O O13 0.812172 0.241438 0.500000
O O14 0.750000 0.250000 0.750000
O O15 0.870326 0.201317 0.745019
O O16 0.375457 0.355084 0.500000
#
# Coordination Sequence:
#
# PCOD8289466 Si02
#       6
#     8  16  16   8  16  16
#     4   9  18  33  57  88 120 155 196 241 282 331
#     4   9  16  29  53  82 110 145 194 242 278 326
#     4  10  21  38  60  84 111 153 201 237 278 341
#     4  11  25  42  59  86 122 153 184 235 300 351
#     4  11  22  38  60  87 117 150 193 242 290 341
#     4  10  19  34  56  86 120 153 192 237 289 340
#
# _framework density 19.256993999999999
#
# number of rings (size 3 to 8) (size 9 to 14) (size 15 to 20)
#    0.000    2.000    2.000    2.100    0.000    6.400 
#    0.000    2.500    0.000    3.000    0.000    0.000 
#    0.000    0.000    0.000    0.000    0.000    0.000 
#
# Total GULP energy -495982.179393 kJ/mol
# GULP energy per Si atom -12399.554485 kJ/mol
# Density = 1.921316 g / cm^3
# Si number density = 19.256994 Si / 1000 Ang^3
#
#
#
# Elastic Constant Matrix: (Units=GPa)
#
#
# Indices 1 2 3 4 5 6 
#
# 1 148.6970 62.6111 37.6034 0.0000 0.0000 0.0000
# 2 62.6111 144.4094 43.2378 0.0000 0.0000 0.0000
# 3 37.6034 43.2378 47.6323 0.0000 0.0000 0.0000
# 4 0.0000 0.0000 0.0000 28.7114 0.0000 0.0000
# 5 0.0000 0.0000 0.0000 0.0000 15.5203 0.0000
# 6 0.0000 0.0000 0.0000 0.0000 0.0000 36.6100
#
#
#
# Elastic Compliance Matrix: (Units=1/GPa)
#
#
# Indices 1 2 3 4 5 6 
#
# 1 0.008985 -0.002433 -0.004884 0.000000 0.000000 0.000000
# 2 -0.002433 0.010168 -0.007309 0.000000 0.000000 0.000000
# 3 -0.004884 -0.007309 0.031485 0.000000 0.000000 0.000000
# 4 0.000000 0.000000 0.000000 0.034829 0.000000 0.000000
# 5 0.000000 0.000000 0.000000 0.000000 0.064432 0.000000
# 6 0.000000 0.000000 0.000000 0.000000 0.000000 0.027315
#
#
# Mechanical properties :
#
#
# Convention : Reuss Voigt Hill
#
# Bulk Modulus (GPa) = 46.76289 69.73814 58.25051
# Shear Modulus (GPa) = 23.40870 29.32077 26.36473
#
# Velocity S-wave (km/s) = 3.49032 3.90629 3.70415
# Velocity P-wave (km/s) = 6.37020 7.52586 6.97201
#
# Compressibility (1/GPa) = 0.02138448
#
# Stress axis : x y z
#
# Youngs Moduli (GPa) = 111.29948 98.34668 31.76105
#
# Poissons Ratio (x) = 0.23928 0.15514
# Poissons Ratio (y) = 0.27080 0.23215
# Poissons Ratio (z) = 0.54364 0.71884
#
# Static dielectric constant tensor:
#      x y z
#    x 3.638140 0.000000 0.000000 
#    y 0.000000 3.832540 0.000000 
#    z 0.000000 0.000000 3.150390 
# 
# 
# High freq. dielectric constant tensor:
#      x y z
#    x 1.757500 0.000000 0.000000 
#    y 0.000000 1.770260 0.000000 
#    z 0.000000 0.000000 1.711840 
# 
# From -- ./inp_files/10294.got.cif
#   From: 2010.06.25/outbox.cif.g09.slc.cpg/sg71_6_cif.got.tgz:10294.got - 2010.06.28 04:59:45.
