data_PCOD8289994
_publ_section_title
;
Structure prediction by ZEFSAII (Michael W. Deem and Ramdas Pophale) SiO2 
 PCOD8289994
Probable space group: I M M M
;
_chemical_formula_sum "Si O2"
_cell_formula_units_Z 72
_cell_length_a 8.743814
_cell_length_b 31.485370
_cell_length_c 14.484433
_cell_angle_alpha 90.000000
_cell_angle_beta 90.000000
_cell_angle_gamma 90.000000
_cell_volume 3987.596546
_symmetry_space_group_name_H-M "I M M M"
_symmetry_group_IT_number 71
_symmetry_cell_setting 'orthorhombic'
loop_
_space_group_symop_operation_xyz
x,y,z
-x,-y,z
x,-y,-z
-x,y,-z
-x,-y,-z
x,y,-z
-x,y,z
x,-y,z
1/2+x,1/2+y,1/2+z
1/2-x,1/2-y,1/2+z
1/2+x,1/2-y,1/2-z
1/2-x,1/2+y,1/2-z
1/2-x,1/2-y,1/2-z
1/2+x,1/2+y,1/2-z
1/2-x,1/2+y,1/2+z
1/2+x,1/2-y,1/2+z
loop_
_atom_site_type_symbol
_atom_site_label
_atom_site_fract_x
_atom_site_fract_y
_atom_site_fract_z
Si Si1 0.680815 0.759862 0.500000
Si Si2 0.179937 0.867751 0.199630
Si Si3 0.180955 0.289372 0.196580
Si Si4 0.320820 0.665230 0.500000
Si Si5 0.680155 0.952384 0.190470
Si Si6 0.332603 0.547833 0.500000
O O1 0.500000 0.755096 0.500000
O O2 0.734115 0.785733 0.590099
O O3 0.754418 0.712320 0.500000
O O4 0.256512 0.832924 0.263612
O O5 0.236258 0.913339 0.241953
O O6 0.000000 0.864578 0.210795
O O7 0.229568 0.860680 0.091963
O O8 0.250000 0.250000 0.250000
O O9 0.000000 0.288083 0.206904
O O10 0.500000 0.672268 0.500000
O O11 0.500000 0.948782 0.203173
O O12 0.734666 0.000000 0.221848
O O13 0.726651 0.942583 0.086126
O O14 0.384814 0.500000 0.500000
O O15 0.500000 0.573167 0.500000
#
# Coordination Sequence:
#
# PCOD8289994 Si02
#       6
#     8  16  16   8  16   8
#     4   9  18  35  55  73 103 143 176 208 257 314
#     4  11  21  34  53  77 106 140 179 222 267 319
#     4  11  21  36  56  78 105 139 178 219 263 313
#     4   9  17  31  49  72 103 141 179 211 254 311
#     4  10  20  33  48  69 100 137 179 224 264 311
#     4   9  16  27  44  66  95 134 175 214 261 312
#
# _framework density 18.055990000000001
#
# number of rings (size 3 to 8) (size 9 to 14) (size 15 to 20)
#    0.000    1.889    2.222    3.000    0.000    3.556 
#    0.000    5.000    0.000    0.000    0.000    0.778 
#    0.000    6.222    0.000    0.000    0.000    0.000 
#
# Total GULP energy -446020.821146 kJ/mol
# GULP energy per Si atom -12389.467254 kJ/mol
# Density = 1.801489 g / cm^3
# Si number density = 18.055990 Si / 1000 Ang^3
#
#
#
# Elastic Constant Matrix: (Units=GPa)
#
#
# Indices 1 2 3 4 5 6 
#
# 1 68.7070 42.9262 34.2008 0.0000 0.0000 0.0000
# 2 42.9262 169.0670 59.8618 0.0003 0.0000 0.0000
# 3 34.2008 59.8618 92.0959 0.0009 0.0002 0.0001
# 4 0.0000 0.0003 0.0009 29.8393 0.0001 0.0000
# 5 0.0000 0.0000 0.0002 0.0001 19.7606 0.0001
# 6 0.0000 0.0000 0.0001 0.0000 0.0001 32.0250
#
#
#
# Elastic Compliance Matrix: (Units=1/GPa)
#
#
# Indices 1 2 3 4 5 6 
#
# 1 0.018970 -0.003016 -0.005084 0.000000 0.000000 0.000000
# 2 -0.003016 0.008163 -0.004186 0.000000 0.000000 0.000000
# 3 -0.005084 -0.004186 0.015467 0.000000 0.000000 0.000000
# 4 0.000000 0.000000 0.000000 0.033513 0.000000 0.000000
# 5 0.000000 0.000000 0.000000 0.000000 0.050606 0.000000
# 6 0.000000 0.000000 0.000000 0.000000 0.000000 0.031226
#
#
# Mechanical properties :
#
#
# Convention : Reuss Voigt Hill
#
# Bulk Modulus (GPa) = 55.47089 67.09417 61.28253
# Shear Modulus (GPa) = 26.52178 29.18374 27.85276
#
# Velocity S-wave (km/s) = 3.83673 4.02467 3.93183
# Velocity P-wave (km/s) = 7.10040 7.67052 7.39096
#
# Compressibility (1/GPa) = 0.01802748
#
# Stress axis : x y z
#
# Youngs Moduli (GPa) = 52.71540 122.50951 64.65449
#
# Poissons Ratio (x) = 0.36953 0.32871
# Poissons Ratio (y) = 0.15901 0.27061
# Poissons Ratio (z) = 0.26801 0.51277
#
# Static dielectric constant tensor:
#      x y z
#    x 3.248570 0.000000 0.000000 
#    y 0.000000 3.768320 0.000000 
#    z 0.000000 0.000000 2.778170 
# 
# 
# High freq. dielectric constant tensor:
#      x y z
#    x 1.693630 0.000000 0.000000 
#    y 0.000000 1.722720 0.000000 
#    z 0.000000 0.000000 1.650000 
# 
# From -- ./inp_files/31681.got.cif
#   From: 2010.06.25/outbox.cif.g09.slc.cpg/sg71_16_cif.got.tgz:31681.got - 2010.06.28 04:59:45.
