data_PCOD8289444
_publ_section_title
;
Structure prediction by ZEFSAII (Michael W. Deem and Ramdas Pophale) SiO2 
 PCOD8289444
Probable space group: I M M M
;
_chemical_formula_sum "Si O2"
_cell_formula_units_Z 96
_cell_length_a 19.979060
_cell_length_b 9.243928
_cell_length_c 28.353970
_cell_angle_alpha 90.000000
_cell_angle_beta 90.000000
_cell_angle_gamma 90.000000
_cell_volume 5236.552727
_symmetry_space_group_name_H-M "I M M M"
_symmetry_group_IT_number 71
_symmetry_cell_setting 'orthorhombic'
loop_
_space_group_symop_operation_xyz
x,y,z
-x,-y,z
x,-y,-z
-x,y,-z
-x,-y,-z
x,y,-z
-x,y,z
x,-y,z
1/2+x,1/2+y,1/2+z
1/2-x,1/2-y,1/2+z
1/2+x,1/2-y,1/2-z
1/2-x,1/2+y,1/2-z
1/2-x,1/2-y,1/2-z
1/2+x,1/2+y,1/2-z
1/2-x,1/2+y,1/2+z
1/2+x,1/2-y,1/2+z
loop_
_atom_site_type_symbol
_atom_site_label
_atom_site_fract_x
_atom_site_fract_y
_atom_site_fract_z
Si Si1 0.807013 0.334474 0.698452
Si Si2 0.191001 0.666916 0.591379
Si Si3 0.845970 0.830389 0.784643
Si Si4 0.179883 0.669613 0.053942
Si Si5 0.922521 0.668143 0.134349
Si Si6 0.927008 0.841984 0.445006
O O1 0.817069 0.500000 0.714052
O O2 0.828752 0.304812 0.645369
O O3 0.853592 0.236447 0.732209
O O4 0.729003 0.292223 0.699674
O O5 0.206144 0.500000 0.581300
O O6 0.255355 0.753400 0.574555
O O7 0.125938 0.716715 0.563810
O O8 0.897179 0.759151 0.821097
O O9 0.860919 0.000000 0.782957
O O10 0.194216 0.500000 0.055714
O O11 0.116553 0.711751 0.086487
O O12 0.165560 0.719118 0.000000
O O13 0.911479 0.500000 0.146142
O O14 0.000000 0.704485 0.125483
O O15 0.934784 0.857639 0.500000
O O16 0.000000 0.800088 0.423550
O O17 0.904264 0.000000 0.424685
#
# Coordination Sequence:
#
# PCOD8289444 Si02
#       6
#    16  16  16  16  16  16
#     4   9  19  34  53  79 110 139 173 217 267 321
#     4  11  21  34  54  83 114 143 177 224 277 326
#     4  10  19  34  56  81 106 137 178 221 266 321
#     4  10  21  36  55  80 110 146 190 235 277 326
#     4  10  21  37  57  80 110 149 189 232 283 332
#     4   9  19  36  55  75 104 143 183 221 264 318
#
# _framework density 18.332671000000001
#
# number of rings (size 3 to 8) (size 9 to 14) (size 15 to 20)
#    0.000    2.167    1.667    2.000    0.000    5.667 
#    0.000    3.333    0.000    1.000    0.000    2.333 
#    0.000    0.000    0.000    0.000    0.000    0.000 
#
# Total GULP energy -595090.716611 kJ/mol
# GULP energy per Si atom -12397.723263 kJ/mol
# Density = 1.829094 g / cm^3
# Si number density = 18.332671 Si / 1000 Ang^3
#
#
#
# Elastic Constant Matrix: (Units=GPa)
#
#
# Indices 1 2 3 4 5 6 
#
# 1 114.7974 50.3791 56.9899 0.0000 0.0000 0.0000
# 2 50.3791 64.6459 52.0276 0.0000 0.0000 0.0000
# 3 56.9899 52.0276 92.5386 0.0000 0.0000 0.0000
# 4 0.0000 0.0000 0.0000 29.0267 0.0000 0.0000
# 5 0.0000 0.0000 0.0000 0.0000 26.8633 0.0000
# 6 0.0000 0.0000 0.0000 0.0000 0.0000 14.8788
#
#
#
# Elastic Compliance Matrix: (Units=1/GPa)
#
#
# Indices 1 2 3 4 5 6 
#
# 1 0.014245 -0.007380 -0.004623 0.000000 0.000000 0.000000
# 2 -0.007380 0.032077 -0.013489 0.000000 0.000000 0.000000
# 3 -0.004623 -0.013489 0.021238 0.000000 0.000000 0.000000
# 4 0.000000 0.000000 0.000000 0.034451 0.000000 0.000000
# 5 0.000000 0.000000 0.000000 0.000000 0.037226 0.000000
# 6 0.000000 0.000000 0.000000 0.000000 0.000000 0.067210
#
#
# Mechanical properties :
#
#
# Convention : Reuss Voigt Hill
#
# Bulk Modulus (GPa) = 60.33727 65.64167 62.98947
# Shear Modulus (GPa) = 19.01460 21.65946 20.33703
#
# Velocity S-wave (km/s) = 3.22405 3.44098 3.33428
# Velocity P-wave (km/s) = 6.84421 7.18823 7.01833
#
# Compressibility (1/GPa) = 0.01657350
#
# Stress axis : x y z
#
# Youngs Moduli (GPa) = 70.19940 31.17532 47.08628
#
# Poissons Ratio (x) = 0.23009 0.21770
# Poissons Ratio (y) = 0.51810 0.63515
# Poissons Ratio (z) = 0.32456 0.42053
#
# Static dielectric constant tensor:
#      x y z
#    x 3.292010 0.000000 0.000000 
#    y 0.000000 3.387820 0.000000 
#    z 0.000000 0.000000 3.513970 
# 
# 
# High freq. dielectric constant tensor:
#      x y z
#    x 1.698360 0.000000 0.000000 
#    y 0.000000 1.711820 0.000000 
#    z 0.000000 0.000000 1.713280 
# 
# From -- ./inp_files/14817.got.cif
#   From: 2010.06.25/outbox.cif.g09.slc.cpg/sg71_8_cif.got.tgz:14817.got - 2010.06.28 04:59:45.
