data_PCOD8289960
_publ_section_title
;
Structure prediction by ZEFSAII (Michael W. Deem and Ramdas Pophale) SiO2 
 PCOD8289960
Probable space group: I M M M
;
_chemical_formula_sum "Si O2"
_cell_formula_units_Z 64
_cell_length_a 7.655638
_cell_length_b 25.891790
_cell_length_c 17.578078
_cell_angle_alpha 90.000000
_cell_angle_beta 90.000000
_cell_angle_gamma 90.000000
_cell_volume 3484.294478
_symmetry_space_group_name_H-M "I M M M"
_symmetry_group_IT_number 71
_symmetry_cell_setting 'orthorhombic'
loop_
_space_group_symop_operation_xyz
x,y,z
-x,-y,z
x,-y,-z
-x,y,-z
-x,-y,-z
x,y,-z
-x,y,z
x,-y,z
1/2+x,1/2+y,1/2+z
1/2-x,1/2-y,1/2+z
1/2+x,1/2-y,1/2-z
1/2-x,1/2+y,1/2-z
1/2-x,1/2-y,1/2-z
1/2+x,1/2+y,1/2-z
1/2-x,1/2+y,1/2+z
1/2+x,1/2-y,1/2+z
loop_
_atom_site_type_symbol
_atom_site_label
_atom_site_fract_x
_atom_site_fract_y
_atom_site_fract_z
Si Si1 0.500000 0.832226 0.089999
Si Si2 0.700599 0.296768 0.695532
Si Si3 0.500000 0.057178 0.834893
Si Si4 0.809026 0.905956 0.260845
Si Si5 0.700350 0.060692 0.416750
O O1 0.328625 0.803214 0.123024
O O2 0.500000 0.894324 0.107149
O O3 0.500000 0.825082 0.000000
O O4 0.500000 0.291790 0.666838
O O5 0.750000 0.250000 0.750000
O O6 0.732044 0.346402 0.747358
O O7 0.669086 0.058192 0.780818
O O8 0.500000 0.000000 0.875296
O O9 0.811495 0.912212 0.351610
O O10 0.000000 0.920967 0.228706
O O11 0.767770 0.078737 0.500000
O O12 0.500000 0.076848 0.406587
O O13 0.723270 0.000000 0.408847
#
# Coordination Sequence:
#
# PCOD8289960 Si02
#       5
#     8  16   8  16  16
#     4  10  22  39  60  89 121 150 189 238 288 343
#     4  10  20  37  62  86 110 146 187 233 285 341
#     4  10  20  35  55  80 112 149 189 233 280 333
#     4  10  20  32  51  79 106 138 186 234 276 332
#     4   9  17  29  45  67 100 140 178 219 266 314
#
# _framework density 18.368136
#
# number of rings (size 3 to 8) (size 9 to 14) (size 15 to 20)
#    0.000    2.250    2.500    1.500    0.000    3.250 
#    0.000    2.500    0.000    0.000    0.000    7.000 
#    0.000    0.000    0.000    0.000    0.000    0.000 
#
# Total GULP energy -396621.440553 kJ/mol
# GULP energy per Si atom -12394.420017 kJ/mol
# Density = 1.832633 g / cm^3
# Si number density = 18.368136 Si / 1000 Ang^3
#
#
#
# Elastic Constant Matrix: (Units=GPa)
#
#
# Indices 1 2 3 4 5 6 
#
# 1 124.3024 45.5031 51.1704 0.0000 0.0000 0.0000
# 2 45.5031 78.2522 34.1840 0.0000 0.0000 0.0000
# 3 51.1704 34.1840 116.8963 0.0001 0.0000 0.0000
# 4 0.0000 0.0000 0.0001 18.6498 0.0000 0.0000
# 5 0.0000 0.0000 0.0000 0.0000 21.9111 0.0000
# 6 0.0000 0.0000 0.0000 0.0000 0.0000 13.7112
#
#
#
# Elastic Compliance Matrix: (Units=1/GPa)
#
#
# Indices 1 2 3 4 5 6 
#
# 1 0.011333 -0.005071 -0.003478 0.000000 0.000000 0.000000
# 2 -0.005071 0.016919 -0.002728 0.000000 0.000000 0.000000
# 3 -0.003478 -0.002728 0.010875 0.000000 0.000000 0.000000
# 4 0.000000 0.000000 0.000000 0.053620 0.000000 0.000000
# 5 0.000000 0.000000 0.000000 0.000000 0.045639 0.000000
# 6 0.000000 0.000000 0.000000 0.000000 0.000000 0.072933
#
#
# Mechanical properties :
#
#
# Convention : Reuss Voigt Hill
#
# Bulk Modulus (GPa) = 60.33702 64.57401 62.45552
# Shear Modulus (GPa) = 20.88580 23.42733 22.15657
#
# Velocity S-wave (km/s) = 3.37570 3.57520 3.47688
# Velocity P-wave (km/s) = 6.93642 7.23011 7.08478
#
# Compressibility (1/GPa) = 0.01657357
#
# Stress axis : x y z
#
# Youngs Moduli (GPa) = 88.23884 59.10345 91.95505
#
# Poissons Ratio (x) = 0.29969 0.31983
# Poissons Ratio (y) = 0.44743 0.25087
# Poissons Ratio (z) = 0.30690 0.16124
#
# Static dielectric constant tensor:
#      x y z
#    x 3.696750 0.000000 0.000000 
#    y 0.000000 3.302990 0.000000 
#    z 0.000000 0.000000 3.197160 
# 
# 
# High freq. dielectric constant tensor:
#      x y z
#    x 1.727080 0.000000 0.000000 
#    y 0.000000 1.701990 0.000000 
#    z 0.000000 0.000000 1.689250 
# 
# From -- ./inp_files/5544.got.cif
#   From: 2010.06.25/outbox.cif.g09.slc.cpg/sg71_3_cif.got.tgz:5544.got - 2010.06.28 04:59:45.
