data_PCOD8289041
_publ_section_title
;
Structure prediction by ZEFSAII (Michael W. Deem and Ramdas Pophale) SiO2 
 PCOD8289041
Probable space group: I M M M
;
_chemical_formula_sum "Si O2"
_cell_formula_units_Z 88
_cell_length_a 7.462160
_cell_length_b 20.064797
_cell_length_c 27.503697
_cell_angle_alpha 90.000000
_cell_angle_beta 90.000000
_cell_angle_gamma 90.000000
_cell_volume 4118.038493
_symmetry_space_group_name_H-M "I M M M"
_symmetry_group_IT_number 71
_symmetry_cell_setting 'orthorhombic'
loop_
_space_group_symop_operation_xyz
x,y,z
-x,-y,z
x,-y,-z
-x,y,-z
-x,-y,-z
x,y,-z
-x,y,z
x,-y,z
1/2+x,1/2+y,1/2+z
1/2-x,1/2-y,1/2+z
1/2+x,1/2-y,1/2-z
1/2-x,1/2+y,1/2-z
1/2-x,1/2-y,1/2-z
1/2+x,1/2+y,1/2-z
1/2-x,1/2+y,1/2+z
1/2+x,1/2-y,1/2+z
loop_
_atom_site_type_symbol
_atom_site_label
_atom_site_fract_x
_atom_site_fract_y
_atom_site_fract_z
Si Si1 0.000000 0.920677 0.557913
Si Si2 0.213131 0.426881 0.602215
Si Si3 0.788736 0.293178 0.444887
Si Si4 0.703431 0.834855 0.611719
Si Si5 0.287910 0.926663 0.210661
Si Si6 0.290524 0.816103 0.720238
O O1 0.175768 0.887451 0.581960
O O2 0.000000 0.905904 0.500000
O O3 0.000000 0.000000 0.567986
O O4 0.280928 0.500000 0.583755
O O5 0.285021 0.366746 0.568957
O O6 0.286719 0.413914 0.656553
O O7 0.000000 0.427544 0.602143
O O8 0.735775 0.279725 0.500000
O O9 0.694071 0.236886 0.413520
O O10 0.000000 0.288444 0.436054
O O11 0.500000 0.863438 0.613734
O O12 0.787013 0.820837 0.665487
O O13 0.500000 0.917857 0.209307
O O14 0.201019 0.875252 0.248446
O O15 0.233320 0.000000 0.228630
O O16 0.500000 0.825665 0.715408
O O17 0.250000 0.750000 0.750000
#
# Coordination Sequence:
#
# PCOD8289041 Si02
#       6
#     8  16  16  16  16  16
#     4  11  26  48  72  96 125 167 219 277 345 410
#     4   8  14  25  45  77 115 155 199 246 295 351
#     4  10  19  32  54  81 113 157 203 251 308 368
#     4  11  24  41  64  95 128 165 211 267 328 392
#     4   8  14  27  47  71 103 144 186 227 279 345
#     4  10  21  34  56  88 121 161 203 248 304 369
#
# _framework density 21.369399000000001
#
# number of rings (size 3 to 8) (size 9 to 14) (size 15 to 20)
#    0.000    2.455    0.909    2.727    1.273    4.364 
#    0.000    4.545    0.000    0.545    0.000    6.364 
#    0.000    0.000    0.000    0.000    0.000    0.000 
#
# Total GULP energy -545285.212150 kJ/mol
# GULP energy per Si atom -12392.845731 kJ/mol
# Density = 2.132076 g / cm^3
# Si number density = 21.369399 Si / 1000 Ang^3
#
#
#
# Elastic Constant Matrix: (Units=GPa)
#
#
# Indices 1 2 3 4 5 6 
#
# 1 60.4295 18.6837 22.7513 0.0000 0.0000 0.0000
# 2 18.6837 132.8103 46.5400 0.0000 0.0000 0.0000
# 3 22.7513 46.5400 108.1662 0.0000 0.0000 0.0000
# 4 0.0000 0.0000 0.0000 47.8466 0.0000 0.0000
# 5 0.0000 0.0000 0.0000 0.0000 16.7053 0.0000
# 6 0.0000 0.0000 0.0000 0.0000 0.0000 14.2935
#
#
#
# Elastic Compliance Matrix: (Units=1/GPa)
#
#
# Indices 1 2 3 4 5 6 
#
# 1 0.018201 -0.001435 -0.003211 0.000000 0.000000 0.000000
# 2 -0.001435 0.008980 -0.003562 0.000000 0.000000 0.000000
# 3 -0.003211 -0.003562 0.011453 0.000000 0.000000 0.000000
# 4 0.000000 0.000000 0.000000 0.020900 0.000000 0.000000
# 5 0.000000 0.000000 0.000000 0.000000 0.059861 0.000000
# 6 0.000000 0.000000 0.000000 0.000000 0.000000 0.069962
#
#
# Mechanical properties :
#
#
# Convention : Reuss Voigt Hill
#
# Bulk Modulus (GPa) = 45.00915 53.03953 49.02434
# Shear Modulus (GPa) = 23.45461 29.99782 26.72622
#
# Velocity S-wave (km/s) = 3.31657 3.75076 3.54033
# Velocity P-wave (km/s) = 5.98116 6.60544 6.30104
#
# Compressibility (1/GPa) = 0.02221770
#
# Stress axis : x y z
#
# Youngs Moduli (GPa) = 54.94264 111.36401 87.31483
#
# Poissons Ratio (x) = 0.15985 0.28034
# Poissons Ratio (y) = 0.07886 0.31099
# Poissons Ratio (z) = 0.17640 0.39664
#
# Static dielectric constant tensor:
#      x y z
#    x 3.536670 0.000000 0.000000 
#    y 0.000000 4.125040 0.000000 
#    z 0.000000 0.000000 4.113950 
# 
# 
# High freq. dielectric constant tensor:
#      x y z
#    x 1.815210 0.000000 0.000000 
#    y 0.000000 1.843500 0.000000 
#    z 0.000000 0.000000 1.841930 
# 
# From -- ./inp_files/57532.got.cif
#   From: 2010.06.25/outbox.cif.g09.slc.cpg/sg71_29_cif.got.tgz:57532.got - 2010.06.28 04:59:45.
