data_PCOD8289325
_publ_section_title
;
Structure prediction by ZEFSAII (Michael W. Deem and Ramdas Pophale) SiO2 
 PCOD8289325
Probable space group: I M M M
;
_chemical_formula_sum "Si O2"
_cell_formula_units_Z 96
_cell_length_a 15.847375
_cell_length_b 14.199273
_cell_length_c 20.062151
_cell_angle_alpha 90.000000
_cell_angle_beta 90.000000
_cell_angle_gamma 90.000000
_cell_volume 4514.409372
_symmetry_space_group_name_H-M "I M M M"
_symmetry_group_IT_number 71
_symmetry_cell_setting 'orthorhombic'
loop_
_space_group_symop_operation_xyz
x,y,z
-x,-y,z
x,-y,-z
-x,y,-z
-x,-y,-z
x,y,-z
-x,y,z
x,-y,z
1/2+x,1/2+y,1/2+z
1/2-x,1/2-y,1/2+z
1/2+x,1/2-y,1/2-z
1/2-x,1/2+y,1/2-z
1/2-x,1/2-y,1/2-z
1/2+x,1/2+y,1/2-z
1/2-x,1/2+y,1/2+z
1/2+x,1/2-y,1/2+z
loop_
_atom_site_type_symbol
_atom_site_label
_atom_site_fract_x
_atom_site_fract_y
_atom_site_fract_z
Si Si1 0.857681 0.605227 0.216207
Si Si2 0.837038 0.891159 0.289381
Si Si3 0.909149 0.608481 0.364606
Si Si4 0.237160 0.108837 0.922048
Si Si5 0.096445 0.888598 0.572283
Si Si6 0.405167 0.706410 0.663103
O O1 0.872443 0.500000 0.187095
O O2 0.759449 0.622580 0.230610
O O3 0.905188 0.618928 0.285414
O O4 0.892835 0.680462 0.163443
O O5 0.851642 0.849307 0.364114
O O6 0.892505 0.832151 0.237833
O O7 0.865261 0.000000 0.285446
O O8 0.909240 0.500000 0.385867
O O9 0.827533 0.654751 0.400494
O O10 0.000000 0.652992 0.387639
O O11 0.159942 0.161629 0.888002
O O12 0.233306 0.000000 0.898831
O O13 0.225479 0.119954 0.000000
O O14 0.129852 0.849896 0.500000
O O15 0.000000 0.858356 0.582032
O O16 0.105404 0.000000 0.571138
O O17 0.500000 0.682652 0.639380
#
# Coordination Sequence:
#
# PCOD8289325 Si02
#       6
#    16  16  16  16  16  16
#     4  10  21  39  61  86 119 155 198 259 313 356
#     4  10  19  33  56  86 120 156 198 246 303 369
#     4   9  17  33  60  91 122 158 199 244 303 370
#     4  10  22  40  61  90 128 165 203 251 307 368
#     4   8  14  26  46  75 113 154 191 229 282 352
#     4  12  24  37  60  90 120 160 209 255 302 360
#
# _framework density 21.265239999999999
#
# number of rings (size 3 to 8) (size 9 to 14) (size 15 to 20)
#    0.000    2.167    1.667    2.500    0.000    3.667 
#    0.000    3.333    0.000    1.500    0.000    1.167 
#    0.000    0.000    0.000    0.000    0.000    0.000 
#
# Total GULP energy -595000.395582 kJ/mol
# GULP energy per Si atom -12395.841575 kJ/mol
# Density = 2.121684 g / cm^3
# Si number density = 21.265240 Si / 1000 Ang^3
#
#
#
# Elastic Constant Matrix: (Units=GPa)
#
#
# Indices 1 2 3 4 5 6 
#
# 1 174.9282 45.2272 59.8961 0.0000 0.0000 0.0000
# 2 45.2272 75.1161 35.0992 0.0000 0.0000 0.0000
# 3 59.8961 35.0992 88.1404 0.0000 0.0000 0.0000
# 4 0.0000 0.0000 0.0000 18.8342 0.0000 0.0000
# 5 0.0000 0.0000 0.0000 0.0000 14.5658 0.0000
# 6 0.0000 0.0000 0.0000 0.0000 0.0000 -0.5678
#
#
#
# Elastic Compliance Matrix: (Units=1/GPa)
#
#
# Indices 1 2 3 4 5 6 
#
# 1 0.007889 -0.002758 -0.004263 0.000000 0.000000 0.000000
# 2 -0.002758 0.017321 -0.005023 0.000000 0.000000 0.000000
# 3 -0.004263 -0.005023 0.016243 0.000000 0.000000 0.000000
# 4 0.000000 0.000000 0.000000 0.053095 0.000000 0.000000
# 5 0.000000 0.000000 0.000000 0.000000 0.068654 0.000000
# 6 0.000000 0.000000 0.000000 0.000000 0.000000 -1.761175
#
#
# Mechanical properties :
#
#
# Convention : Reuss Voigt Hill
#
# Bulk Modulus (GPa) = 57.58938 68.73664 63.16301
# Shear Modulus (GPa) = -3.18858 19.76392 8.28767
#
# Velocity S-wave (km/s) = -1.22584 3.05191 1.97630
# Velocity P-wave (km/s) = 5.01365 6.69422 5.91393
#
# Compressibility (1/GPa) = 0.01736431
#
# Stress axis : x y z
#
# Youngs Moduli (GPa) = 126.75232 57.73489 61.56644
#
# Poissons Ratio (x) = 0.15925 0.26245
# Poissons Ratio (y) = 0.34962 0.30925
# Poissons Ratio (z) = 0.54033 0.29000
#
# Static dielectric constant tensor:
#      x y z
#    x 3.949310 0.000000 0.000000 
#    y 0.000000 3.824060 0.000000 
#    z 0.000000 0.000000 6.567090 
# 
# 
# High freq. dielectric constant tensor:
#      x y z
#    x 1.834650 0.000000 0.000000 
#    y 0.000000 1.827730 0.000000 
#    z 0.000000 0.000000 1.811550 
# 
# From -- ./inp_files/37826.got.cif
#   From: 2010.06.25/outbox.cif.g09.slc.cpg/sg71_19_cif.got.tgz:37826.got - 2010.06.28 04:59:45.
