data_PCOD8289099
_publ_section_title
;
Structure prediction by ZEFSAII (Michael W. Deem and Ramdas Pophale) SiO2 
 PCOD8289099
Probable space group: I M M M
;
_chemical_formula_sum "Si O2"
_cell_formula_units_Z 88
_cell_length_a 17.871990
_cell_length_b 9.556285
_cell_length_c 28.962323
_cell_angle_alpha 90.000000
_cell_angle_beta 90.000000
_cell_angle_gamma 90.000000
_cell_volume 4946.470220
_symmetry_space_group_name_H-M "I M M M"
_symmetry_group_IT_number 71
_symmetry_cell_setting 'orthorhombic'
loop_
_space_group_symop_operation_xyz
x,y,z
-x,-y,z
x,-y,-z
-x,y,-z
-x,-y,-z
x,y,-z
-x,y,z
x,-y,z
1/2+x,1/2+y,1/2+z
1/2-x,1/2-y,1/2+z
1/2+x,1/2-y,1/2-z
1/2-x,1/2+y,1/2-z
1/2-x,1/2-y,1/2-z
1/2+x,1/2+y,1/2-z
1/2-x,1/2+y,1/2+z
1/2+x,1/2-y,1/2+z
loop_
_atom_site_type_symbol
_atom_site_label
_atom_site_fract_x
_atom_site_fract_y
_atom_site_fract_z
Si Si1 0.210547 0.833976 0.051827
Si Si2 0.088943 0.155149 0.220494
Si Si3 0.914020 0.340286 0.303454
Si Si4 0.500000 0.339925 0.054584
Si Si5 0.416506 0.667145 0.381131
Si Si6 0.633342 0.163127 0.904204
O O1 0.140709 0.772414 0.080835
O O2 0.287002 0.788305 0.076299
O O3 0.205040 0.000000 0.050339
O O4 0.207571 0.772157 0.000000
O O5 0.120951 0.251486 0.261440
O O6 0.110664 0.215740 0.169951
O O7 0.000000 0.150009 0.223388
O O8 0.122624 0.000000 0.227352
O O9 0.908496 0.500000 0.287823
O O10 0.865996 0.311622 0.349280
O O11 0.000000 0.299136 0.314247
O O12 0.500000 0.500000 0.073000
O O13 0.427254 0.260113 0.071982
O O14 0.500000 0.337498 0.000000
O O15 0.500000 0.723994 0.392338
O O16 0.417740 0.500000 0.381347
O O17 0.615916 0.000000 0.915342
#
# Coordination Sequence:
#
# PCOD8289099 Si02
#       6
#    16  16  16   8  16  16
#     4   9  17  28  45  69  94 125 164 204 246 289
#     4   8  14  25  43  66  92 125 159 189 232 285
#     4   9  16  27  43  65  92 122 158 198 239 277
#     4  11  23  35  49  71  97 127 167 209 246 287
#     4   8  14  26  44  68  98 127 158 197 242 293
#     4  10  19  33  50  70  97 129 166 204 245 289
#
# _framework density 17.790464
#
# number of rings (size 3 to 8) (size 9 to 14) (size 15 to 20)
#    0.000    3.000    0.909    1.909    0.000    2.545 
#    0.000    2.727    0.000    1.091    0.000    0.000 
#    0.000    0.000    0.000   10.909    0.000   10.909 
#
# Total GULP energy -545402.887141 kJ/mol
# GULP energy per Si atom -12395.520162 kJ/mol
# Density = 1.774997 g / cm^3
# Si number density = 17.790464 Si / 1000 Ang^3
#
#
#
# Elastic Constant Matrix: (Units=GPa)
#
#
# Indices 1 2 3 4 5 6 
#
# 1 104.6929 37.6518 78.0767 0.0000 0.0000 0.0000
# 2 37.6518 50.1807 47.8989 0.0000 0.0000 0.0000
# 3 78.0767 47.8989 165.0212 0.0000 0.0000 0.0000
# 4 0.0000 0.0000 0.0000 21.9776 0.0000 0.0000
# 5 0.0000 0.0000 0.0000 0.0000 38.3304 0.0000
# 6 0.0000 0.0000 0.0000 0.0000 0.0000 6.0518
#
#
#
# Elastic Compliance Matrix: (Units=1/GPa)
#
#
# Indices 1 2 3 4 5 6 
#
# 1 0.016245 -0.006712 -0.005738 0.000000 0.000000 0.000000
# 2 -0.006712 0.030339 -0.005630 0.000000 0.000000 0.000000
# 3 -0.005738 -0.005630 0.010409 0.000000 0.000000 0.000000
# 4 0.000000 0.000000 0.000000 0.045501 0.000000 0.000000
# 5 0.000000 0.000000 0.000000 0.000000 0.026089 0.000000
# 6 0.000000 0.000000 0.000000 0.000000 0.000000 0.165241
#
#
# Mechanical properties :
#
#
# Convention : Reuss Voigt Hill
#
# Bulk Modulus (GPa) = 48.00338 71.90552 59.95445
# Shear Modulus (GPa) = 14.84004 23.68978 19.26491
#
# Velocity S-wave (km/s) = 2.89131 3.65307 3.29428
# Velocity P-wave (km/s) = 6.17960 7.63538 6.94573
#
# Compressibility (1/GPa) = 0.02083187
#
# Stress axis : x y z
#
# Youngs Moduli (GPa) = 61.55906 32.96141 96.07318
#
# Poissons Ratio (x) = 0.22124 0.55123
# Poissons Ratio (y) = 0.41318 0.54093
# Poissons Ratio (z) = 0.35320 0.18559
#
# Static dielectric constant tensor:
#      x y z
#    x 3.218890 0.000000 0.000000 
#    y 0.000000 3.058170 0.000000 
#    z 0.000000 0.000000 3.622850 
# 
# 
# High freq. dielectric constant tensor:
#      x y z
#    x 1.667270 0.000000 0.000000 
#    y 0.000000 1.640990 0.000000 
#    z 0.000000 0.000000 1.703620 
# 
# From -- ./inp_files/70359.got.cif
#   From: 2010.06.25/outbox.cif.g09.slc.cpg/sg71_36_cif.got.tgz:70359.got - 2010.06.28 04:59:45.
