data_PCOD8289293
_publ_section_title
;
Structure prediction by ZEFSAII (Michael W. Deem and Ramdas Pophale) SiO2 
 PCOD8289293
Probable space group: I M M M
;
_chemical_formula_sum "Si O2"
_cell_formula_units_Z 64
_cell_length_a 10.807814
_cell_length_b 33.314825
_cell_length_c 8.578843
_cell_angle_alpha 90.000000
_cell_angle_beta 90.000000
_cell_angle_gamma 90.000000
_cell_volume 3088.901917
_symmetry_space_group_name_H-M "I M M M"
_symmetry_group_IT_number 71
_symmetry_cell_setting 'orthorhombic'
loop_
_space_group_symop_operation_xyz
x,y,z
-x,-y,z
x,-y,-z
-x,y,-z
-x,-y,-z
x,y,-z
-x,y,z
x,-y,z
1/2+x,1/2+y,1/2+z
1/2-x,1/2-y,1/2+z
1/2+x,1/2-y,1/2-z
1/2-x,1/2+y,1/2-z
1/2-x,1/2-y,1/2-z
1/2+x,1/2+y,1/2-z
1/2-x,1/2+y,1/2+z
1/2+x,1/2-y,1/2+z
loop_
_atom_site_type_symbol
_atom_site_label
_atom_site_fract_x
_atom_site_fract_y
_atom_site_fract_z
Si Si1 0.358589 0.500000 0.169101
Si Si2 0.500000 0.287413 0.315074
Si Si3 0.000000 0.696077 0.815605
Si Si4 0.500000 0.955267 0.682124
Si Si5 0.746838 0.419334 0.815229
Si Si6 0.241098 0.834825 0.816920
O O1 0.500000 0.500000 0.135956
O O2 0.323970 0.458509 0.254127
O O3 0.287101 0.500000 0.000000
O O4 0.500000 0.290538 0.500000
O O5 0.500000 0.241780 0.255497
O O6 0.627242 0.307671 0.251895
O O7 0.873606 0.675334 0.758650
O O8 0.000000 0.693211 0.000000
O O9 0.500000 0.962405 0.500000
O O10 0.612912 0.927594 0.732761
O O11 0.500000 0.000000 0.760555
O O12 0.701570 0.380068 0.725357
O O13 0.724499 0.413421 0.000000
O O14 0.255210 0.829289 0.000000
#
# Coordination Sequence:
#
# PCOD8289293 Si02
#       6
#     8   8   8   8  16  16
#     4   9  18  31  50  78 113 151 197 250 292 330
#     4   9  22  42  64  88 120 159 197 240 294 360
#     4  11  22  42  67  91 116 151 202 249 293 355
#     4   9  15  28  50  74  99 135 185 236 283 324
#     4  10  19  33  55  82 112 150 198 246 289 339
#     4  11  23  40  61  89 125 160 193 241 303 360
#
# _framework density 20.719335999999998
#
# number of rings (size 3 to 8) (size 9 to 14) (size 15 to 20)
#    0.000    2.000    1.250    2.625    1.750    1.000 
#    0.000    6.250    0.000    1.500    0.000    0.000 
#    0.000    0.000    0.000    0.000    0.000    0.000 
#
# Total GULP energy -396549.990932 kJ/mol
# GULP energy per Si atom -12392.187217 kJ/mol
# Density = 2.067218 g / cm^3
# Si number density = 20.719336 Si / 1000 Ang^3
#
#
#
# Elastic Constant Matrix: (Units=GPa)
#
#
# Indices 1 2 3 4 5 6 
#
# 1 126.6405 50.9587 21.0468 -0.0027 -0.0024 -0.0010
# 2 50.9587 164.2321 23.1462 -0.0041 0.0043 0.0043
# 3 21.0468 23.1462 43.4776 -0.0149 0.0134 0.0129
# 4 -0.0027 -0.0041 -0.0149 20.6955 0.0002 0.0046
# 5 -0.0024 0.0043 0.0134 0.0002 5.4083 -0.0119
# 6 -0.0010 0.0043 0.0129 0.0046 -0.0119 27.2808
#
#
#
# Elastic Compliance Matrix: (Units=1/GPa)
#
#
# Indices 1 2 3 4 5 6 
#
# 1 0.009430 -0.002468 -0.003251 -0.000002 0.000014 0.000002
# 2 -0.002468 0.007229 -0.002654 -0.000001 0.000000 0.000000
# 3 -0.003251 -0.002654 0.025987 0.000018 -0.000064 -0.000012
# 4 -0.000002 -0.000001 0.000018 0.048320 -0.000002 -0.000008
# 5 0.000014 0.000000 -0.000064 -0.000002 0.184902 0.000081
# 6 0.000002 0.000000 -0.000012 -0.000008 0.000081 0.036656
#
#
# Mechanical properties :
#
#
# Convention : Reuss Voigt Hill
#
# Bulk Modulus (GPa) = 38.60962 58.29484 48.45223
# Shear Modulus (GPa) = 14.79724 26.62349 20.71037
#
# Velocity S-wave (km/s) = 2.67531 3.58852 3.16502
# Velocity P-wave (km/s) = 5.31207 6.73547 6.06567
#
# Compressibility (1/GPa) = 0.02590028
#
# Stress axis : x y z
#
# Youngs Moduli (GPa) = 106.04859 138.33870 38.48093
#
# Poissons Ratio (x) = 0.34138 0.12510
# Poissons Ratio (y) = 0.26169 0.10212
# Poissons Ratio (z) = 0.34477 0.36711
#
# Static dielectric constant tensor:
#      x y z
#    x 3.670120 0.000010 0.000000 
#    y 0.000010 4.050670 -0.000010 
#    z 0.000000 -0.000010 3.249110 
# 
# 
# High freq. dielectric constant tensor:
#      x y z
#    x 1.824540 0.000000 0.000000 
#    y 0.000000 1.832200 0.000000 
#    z 0.000000 0.000000 1.758970 
# 
# From -- ./inp_files/3826.got.cif
#   From: 2010.06.25/outbox.cif.g09.slc.cpg/sg71_2_cif.got.tgz:3826.got - 2010.06.28 04:59:45.
