data_PCOD8289177
_publ_section_title
;
Structure prediction by ZEFSAII (Michael W. Deem and Ramdas Pophale) SiO2 
 PCOD8289177
Probable space group: I M M M
;
_chemical_formula_sum "Si O2"
_cell_formula_units_Z 112
_cell_length_a 17.295794
_cell_length_b 17.968318
_cell_length_c 19.051206
_cell_angle_alpha 90.000000
_cell_angle_beta 90.000000
_cell_angle_gamma 90.000000
_cell_volume 5920.663819
_symmetry_space_group_name_H-M "I M M M"
_symmetry_group_IT_number 71
_symmetry_cell_setting 'orthorhombic'
loop_
_space_group_symop_operation_xyz
x,y,z
-x,-y,z
x,-y,-z
-x,y,-z
-x,-y,-z
x,y,-z
-x,y,z
x,-y,z
1/2+x,1/2+y,1/2+z
1/2-x,1/2-y,1/2+z
1/2+x,1/2-y,1/2-z
1/2-x,1/2+y,1/2-z
1/2-x,1/2-y,1/2-z
1/2+x,1/2+y,1/2-z
1/2-x,1/2+y,1/2+z
1/2+x,1/2-y,1/2+z
loop_
_atom_site_type_symbol
_atom_site_label
_atom_site_fract_x
_atom_site_fract_y
_atom_site_fract_z
Si Si1 0.867053 0.663858 0.421516
Si Si2 0.088774 0.414219 0.715012
Si Si3 0.909399 0.083255 0.865163
Si Si4 0.589693 0.353831 0.776796
Si Si5 0.411715 0.669310 0.075126
Si Si6 0.306267 0.292680 0.421206
Si Si7 0.329786 0.219315 0.718405
O O1 0.876864 0.631076 0.500000
O O2 0.903112 0.605764 0.367146
O O3 0.910420 0.742174 0.414982
O O4 0.777410 0.675364 0.402784
O O5 0.112378 0.500000 0.725780
O O6 0.148640 0.365221 0.761672
O O7 0.000000 0.401175 0.738634
O O8 0.878646 0.091708 0.784260
O O9 0.866113 0.139095 0.916603
O O10 0.000000 0.102131 0.867859
O O11 0.892234 0.000000 0.890842
O O12 0.500000 0.366834 0.788010
O O13 0.627966 0.367417 0.854841
O O14 0.602681 0.269517 0.751517
O O15 0.500000 0.643498 0.070427
O O16 0.370740 0.647463 0.000000
O O17 0.309131 0.259408 0.500000
O O18 0.327887 0.227525 0.366238
O O19 0.250000 0.250000 0.750000
#
# Coordination Sequence:
#
# PCOD8289177 Si02
#       7
#    16  16  16  16  16  16  16
#     4  10  19  33  52  78 112 148 182 219 268 330
#     4  11  23  37  55  82 118 158 194 231 281 340
#     4   9  19  34  50  70  99 135 175 221 275 334
#     4   9  16  28  48  70  94 131 177 223 267 317
#     4   9  15  24  44  72 100 132 171 213 255 303
#     4  10  21  35  55  82 109 139 180 230 282 335
#     4  11  19  35  56  78 105 142 188 231 272 318
#
# _framework density 18.916796999999999
#
# number of rings (size 3 to 8) (size 9 to 14) (size 15 to 20)
#    0.000    2.143    2.857    0.857    0.000    2.857 
#    0.000    2.857    0.000    0.857    0.000    4.000 
#    0.000    6.000    0.000    0.286    0.000    1.429 
#
# Total GULP energy -693816.008332 kJ/mol
# GULP energy per Si atom -12389.571577 kJ/mol
# Density = 1.887374 g / cm^3
# Si number density = 18.916797 Si / 1000 Ang^3
#
#
#
# Elastic Constant Matrix: (Units=GPa)
#
#
# Indices 1 2 3 4 5 6 
#
# 1 49.1190 26.7913 23.6507 0.0000 0.0000 0.0000
# 2 26.7913 63.1073 24.1238 0.0000 0.0000 0.0000
# 3 23.6507 24.1238 122.0431 0.0000 0.0000 0.0000
# 4 0.0000 0.0000 0.0000 20.4159 0.0000 0.0000
# 5 0.0000 0.0000 0.0000 0.0000 22.5963 0.0000
# 6 0.0000 0.0000 0.0000 0.0000 0.0000 16.8345
#
#
#
# Elastic Compliance Matrix: (Units=1/GPa)
#
#
# Indices 1 2 3 4 5 6 
#
# 1 0.027661 -0.010486 -0.003288 0.000000 0.000000 0.000000
# 2 -0.010486 0.021117 -0.002142 0.000000 0.000000 0.000000
# 3 -0.003288 -0.002142 0.009254 0.000000 0.000000 0.000000
# 4 0.000000 0.000000 0.000000 0.048981 0.000000 0.000000
# 5 0.000000 0.000000 0.000000 0.000000 0.044255 0.000000
# 6 0.000000 0.000000 0.000000 0.000000 0.000000 0.059402
#
#
# Mechanical properties :
#
#
# Convention : Reuss Voigt Hill
#
# Bulk Modulus (GPa) = 38.16745 42.60012 40.38378
# Shear Modulus (GPa) = 19.90160 22.61626 21.25893
#
# Velocity S-wave (km/s) = 3.24707 3.46145 3.35597
# Velocity P-wave (km/s) = 5.85476 6.20839 6.03416
#
# Compressibility (1/GPa) = 0.02620034
#
# Stress axis : x y z
#
# Youngs Moduli (GPa) = 36.15142 47.35593 108.05758
#
# Poissons Ratio (x) = 0.49660 0.35526
# Poissons Ratio (y) = 0.37910 0.23145
# Poissons Ratio (z) = 0.11885 0.10143
#
# Static dielectric constant tensor:
#      x y z
#    x 3.421420 0.000000 0.000000 
#    y 0.000000 3.227960 0.000000 
#    z 0.000000 0.000000 4.191840 
# 
# 
# High freq. dielectric constant tensor:
#      x y z
#    x 1.724640 0.000000 0.000000 
#    y 0.000000 1.688130 0.000000 
#    z 0.000000 0.000000 1.749320 
# 
# From -- ./inp_files/46391.got.cif
#   From: 2010.06.25/outbox.cif.g09.slc.cpg/sg71_24_cif.got.tgz:46391.got - 2010.06.28 04:59:45.
