data_PCOD8289549
_publ_section_title
;
Structure prediction by ZEFSAII (Michael W. Deem and Ramdas Pophale) SiO2 
 PCOD8289549
Probable space group: I M M M
;
_chemical_formula_sum "Si O2"
_cell_formula_units_Z 88
_cell_length_a 17.971786
_cell_length_b 9.414522
_cell_length_c 28.845632
_cell_angle_alpha 90.000000
_cell_angle_beta 90.000000
_cell_angle_gamma 90.000000
_cell_volume 4880.559052
_symmetry_space_group_name_H-M "I M M M"
_symmetry_group_IT_number 71
_symmetry_cell_setting 'orthorhombic'
loop_
_space_group_symop_operation_xyz
x,y,z
-x,-y,z
x,-y,-z
-x,y,-z
-x,-y,-z
x,y,-z
-x,y,z
x,-y,z
1/2+x,1/2+y,1/2+z
1/2-x,1/2-y,1/2+z
1/2+x,1/2-y,1/2-z
1/2-x,1/2+y,1/2-z
1/2-x,1/2-y,1/2-z
1/2+x,1/2+y,1/2-z
1/2-x,1/2+y,1/2+z
1/2+x,1/2-y,1/2+z
loop_
_atom_site_type_symbol
_atom_site_label
_atom_site_fract_x
_atom_site_fract_y
_atom_site_fract_z
Si Si1 0.789194 0.168848 0.052085
Si Si2 0.343758 0.334761 0.288335
Si Si3 0.917026 0.830808 0.118427
Si Si4 0.635112 0.166174 0.902300
Si Si5 0.500000 0.664576 0.054725
Si Si6 0.827605 0.662630 0.701365
O O1 0.859666 0.231111 0.080417
O O2 0.713478 0.217526 0.076737
O O3 0.793159 0.000000 0.051507
O O4 0.791916 0.230413 0.000000
O O5 0.356266 0.500000 0.279254
O O6 0.394994 0.278171 0.330185
O O7 0.259339 0.299970 0.302724
O O8 0.366789 0.255285 0.241176
O O9 0.000000 0.776567 0.106499
O O10 0.912792 0.000000 0.117698
O O11 0.572394 0.260089 0.925425
O O12 0.633685 0.195544 0.847456
O O13 0.621121 0.000000 0.912977
O O14 0.500000 0.500000 0.069484
O O15 0.500000 0.682741 0.000000
O O16 0.838310 0.500000 0.715490
#
# Coordination Sequence:
#
# PCOD8289549 Si02
#       6
#    16  16  16  16   8  16
#     4   9  16  27  47  74 100 130 172 215 252 300
#     4   9  16  29  48  72 103 137 172 208 252 305
#     4   9  16  27  44  69 104 140 170 207 254 302
#     4  10  19  35  57  78 102 136 177 217 260 312
#     4  11  25  41  55  77 109 137 167 217 274 325
#     4   9  17  30  51  75 100 131 171 217 256 296
#
# _framework density 18.030722000000001
#
# number of rings (size 3 to 8) (size 9 to 14) (size 15 to 20)
#    0.000    2.636    1.818    0.818    0.000    2.545 
#    1.636    1.818    0.000    0.000    0.000    0.000 
#    0.000    0.000    0.000    5.455    0.000    5.455 
#
# Total GULP energy -545550.182909 kJ/mol
# GULP energy per Si atom -12398.867793 kJ/mol
# Density = 1.798968 g / cm^3
# Si number density = 18.030722 Si / 1000 Ang^3
#
#
#
# Elastic Constant Matrix: (Units=GPa)
#
#
# Indices 1 2 3 4 5 6 
#
# 1 129.0379 40.2324 71.9863 0.0000 0.0000 0.0000
# 2 40.2324 46.7314 46.5170 0.0000 0.0000 0.0000
# 3 71.9863 46.5170 139.6605 0.0000 0.0000 0.0000
# 4 0.0000 0.0000 0.0000 25.2257 0.0000 0.0000
# 5 0.0000 0.0000 0.0000 0.0000 25.1192 0.0000
# 6 0.0000 0.0000 0.0000 0.0000 0.0000 12.8878
#
#
#
# Elastic Compliance Matrix: (Units=1/GPa)
#
#
# Indices 1 2 3 4 5 6 
#
# 1 0.011980 -0.006234 -0.004098 0.000000 0.000000 0.000000
# 2 -0.006234 0.035257 -0.008530 0.000000 0.000000 0.000000
# 3 -0.004098 -0.008530 0.012114 0.000000 0.000000 0.000000
# 4 0.000000 0.000000 0.000000 0.039642 0.000000 0.000000
# 5 0.000000 0.000000 0.000000 0.000000 0.039810 0.000000
# 6 0.000000 0.000000 0.000000 0.000000 0.000000 0.077593
#
#
# Mechanical properties :
#
#
# Convention : Reuss Voigt Hill
#
# Bulk Modulus (GPa) = 46.24143 70.32236 58.28190
# Shear Modulus (GPa) = 19.13304 23.09281 21.11292
#
# Velocity S-wave (km/s) = 3.26104 3.58264 3.42561
# Velocity P-wave (km/s) = 6.31512 7.49665 6.93111
#
# Compressibility (1/GPa) = 0.02162563
#
# Stress axis : x y z
#
# Youngs Moduli (GPa) = 83.47412 28.36348 82.55109
#
# Poissons Ratio (x) = 0.17682 0.33833
# Poissons Ratio (y) = 0.52039 0.70414
# Poissons Ratio (z) = 0.34211 0.24193
#
# Static dielectric constant tensor:
#      x y z
#    x 3.478560 0.000000 0.000000 
#    y 0.000000 2.948860 0.000000 
#    z 0.000000 0.000000 3.594800 
# 
# 
# High freq. dielectric constant tensor:
#      x y z
#    x 1.693980 0.000000 0.000000 
#    y 0.000000 1.648560 0.000000 
#    z 0.000000 0.000000 1.713600 
# 
# From -- ./inp_files/16649.got.cif
#   From: 2010.06.25/outbox.cif.g09.slc.cpg/sg71_9_cif.got.tgz:16649.got - 2010.06.28 04:59:45.
