data_PCOD8289234
_publ_section_title
;
Structure prediction by ZEFSAII (Michael W. Deem and Ramdas Pophale) SiO2 
 PCOD8289234
Probable space group: I M M M
;
_chemical_formula_sum "Si O2"
_cell_formula_units_Z 80
_cell_length_a 12.205539
_cell_length_b 10.585193
_cell_length_c 32.961624
_cell_angle_alpha 90.000000
_cell_angle_beta 90.000000
_cell_angle_gamma 90.000000
_cell_volume 4258.575436
_symmetry_space_group_name_H-M "I M M M"
_symmetry_group_IT_number 71
_symmetry_cell_setting 'orthorhombic'
loop_
_space_group_symop_operation_xyz
x,y,z
-x,-y,z
x,-y,-z
-x,y,-z
-x,-y,-z
x,y,-z
-x,y,z
x,-y,z
1/2+x,1/2+y,1/2+z
1/2-x,1/2-y,1/2+z
1/2+x,1/2-y,1/2-z
1/2-x,1/2+y,1/2-z
1/2-x,1/2-y,1/2-z
1/2+x,1/2+y,1/2-z
1/2-x,1/2+y,1/2+z
1/2+x,1/2-y,1/2+z
loop_
_atom_site_type_symbol
_atom_site_label
_atom_site_fract_x
_atom_site_fract_y
_atom_site_fract_z
Si Si1 0.776193 0.646489 0.308453
Si Si2 0.622166 0.500000 0.047888
Si Si3 0.626128 0.860121 0.277166
Si Si4 0.764949 0.736982 0.952183
Si Si5 0.380528 0.855591 0.109274
Si Si6 0.000000 0.641464 0.048016
O O1 0.735073 0.500000 0.313222
O O2 0.677034 0.743777 0.301776
O O3 0.859253 0.658997 0.271002
O O4 0.835083 0.700484 0.348674
O O5 0.500000 0.500000 0.067149
O O6 0.691892 0.380852 0.062101
O O7 0.612659 0.500000 0.000000
O O8 0.500000 0.856669 0.288089
O O9 0.673944 0.000000 0.289296
O O10 0.709139 0.848686 0.926959
O O11 0.891068 0.716742 0.938485
O O12 0.757162 0.765074 0.000000
O O13 0.500000 0.794163 0.098026
O O14 0.401402 0.000000 0.118000
O O15 0.000000 0.500000 0.066851
O O16 0.000000 0.626944 0.000000
#
# Coordination Sequence:
#
# PCOD8289234 Si02
#       6
#    16   8  16  16  16   8
#     4   9  18  34  55  78 106 143 182 216 260 323
#     4   9  16  27  47  75 103 130 167 217 267 313
#     4   9  17  32  56  82 107 137 176 222 269 318
#     4  10  19  33  54  78 103 136 180 222 266 316
#     4  10  21  37  55  76 106 143 180 218 264 319
#     4   9  16  32  55  75  97 133 178 221 267 325
#
# _framework density 18.785623999999999
#
# number of rings (size 3 to 8) (size 9 to 14) (size 15 to 20)
#    0.000    2.600    1.000    1.200    0.000    4.400 
#    3.600    1.500    0.000    3.000    0.000    0.000 
#    0.000    0.000    0.000    0.000    0.000    0.000 
#
# Total GULP energy -495620.359423 kJ/mol
# GULP energy per Si atom -12390.508986 kJ/mol
# Density = 1.874287 g / cm^3
# Si number density = 18.785624 Si / 1000 Ang^3
#
#
#
# Elastic Constant Matrix: (Units=GPa)
#
#
# Indices 1 2 3 4 5 6 
#
# 1 148.4839 42.0817 51.3010 0.0000 0.0000 0.0000
# 2 42.0817 65.6218 27.5958 0.0000 0.0000 0.0000
# 3 51.3010 27.5958 75.5868 0.0000 0.0000 0.0000
# 4 0.0000 0.0000 0.0000 23.2121 0.0000 0.0000
# 5 0.0000 0.0000 0.0000 0.0000 23.3778 0.0000
# 6 0.0000 0.0000 0.0000 0.0000 0.0000 21.2146
#
#
#
# Elastic Compliance Matrix: (Units=1/GPa)
#
#
# Indices 1 2 3 4 5 6 
#
# 1 0.009629 -0.004048 -0.005058 0.000000 0.000000 0.000000
# 2 -0.004048 0.019705 -0.004446 0.000000 0.000000 0.000000
# 3 -0.005058 -0.004446 0.018286 0.000000 0.000000 0.000000
# 4 0.000000 0.000000 0.000000 0.043081 0.000000 0.000000
# 5 0.000000 0.000000 0.000000 0.000000 0.042776 0.000000
# 6 0.000000 0.000000 0.000000 0.000000 0.000000 0.047137
#
#
# Mechanical properties :
#
#
# Convention : Reuss Voigt Hill
#
# Bulk Modulus (GPa) = 48.74372 59.07218 53.90795
# Shear Modulus (GPa) = 23.30384 24.80848 24.05616
#
# Velocity S-wave (km/s) = 3.52592 3.63796 3.58238
# Velocity P-wave (km/s) = 6.52532 7.01142 6.77273
#
# Compressibility (1/GPa) = 0.02051546
#
# Stress axis : x y z
#
# Youngs Moduli (GPa) = 103.84829 50.74923 54.68748
#
# Poissons Ratio (x) = 0.20545 0.27658
# Poissons Ratio (y) = 0.42041 0.24316
# Poissons Ratio (z) = 0.52522 0.22565
#
# Static dielectric constant tensor:
#      x y z
#    x 3.679350 0.000000 0.000000 
#    y 0.000000 3.493720 0.000000 
#    z 0.000000 0.000000 3.168680 
# 
# 
# High freq. dielectric constant tensor:
#      x y z
#    x 1.733420 0.000000 0.000000 
#    y 0.000000 1.719450 0.000000 
#    z 0.000000 0.000000 1.707420 
# 
# From -- ./inp_files/69018.got.cif
#   From: 2010.06.25/outbox.cif.g09.slc.cpg/sg71_35_cif.got.tgz:69018.got - 2010.06.28 04:59:45.
