data_PCOD8289958
_publ_section_title
;
Structure prediction by ZEFSAII (Michael W. Deem and Ramdas Pophale) SiO2 
 PCOD8289958
Probable space group: I M M M
;
_chemical_formula_sum "Si O2"
_cell_formula_units_Z 96
_cell_length_a 20.688897
_cell_length_b 11.856253
_cell_length_c 22.148846
_cell_angle_alpha 90.000000
_cell_angle_beta 90.000000
_cell_angle_gamma 90.000000
_cell_volume 5432.952388
_symmetry_space_group_name_H-M "I M M M"
_symmetry_group_IT_number 71
_symmetry_cell_setting 'orthorhombic'
loop_
_space_group_symop_operation_xyz
x,y,z
-x,-y,z
x,-y,-z
-x,y,-z
-x,-y,-z
x,y,-z
-x,y,z
x,-y,z
1/2+x,1/2+y,1/2+z
1/2-x,1/2-y,1/2+z
1/2+x,1/2-y,1/2-z
1/2-x,1/2+y,1/2-z
1/2-x,1/2-y,1/2-z
1/2+x,1/2+y,1/2-z
1/2-x,1/2+y,1/2+z
1/2+x,1/2-y,1/2+z
loop_
_atom_site_type_symbol
_atom_site_label
_atom_site_fract_x
_atom_site_fract_y
_atom_site_fract_z
Si Si1 0.430080 0.127702 0.791614
Si Si2 0.923342 0.500000 0.069105
Si Si3 0.138058 0.133501 0.566332
Si Si4 0.319780 0.633109 0.302663
Si Si5 0.189901 0.759204 0.325131
Si Si6 0.425103 0.197601 0.342295
Si Si7 0.500000 0.377643 0.071370
O O1 0.500000 0.186603 0.804941
O O2 0.372934 0.181777 0.829306
O O3 0.416169 0.130913 0.720049
O O4 0.433724 0.000000 0.812582
O O5 0.900764 0.386341 0.104263
O O6 0.000000 0.500000 0.068926
O O7 0.896320 0.500000 0.000000
O O8 0.157062 0.180255 0.500000
O O9 0.192953 0.168006 0.613765
O O10 0.067725 0.184249 0.588053
O O11 0.131899 0.000000 0.563496
O O12 0.324361 0.500000 0.314416
O O13 0.252825 0.682217 0.326861
O O14 0.318847 0.656990 0.231222
O O15 0.379506 0.691542 0.338223
O O16 0.500000 0.234605 0.352500
O O17 0.500000 0.500000 0.103815
O O18 0.500000 0.395103 0.000000
#
# Coordination Sequence:
#
# PCOD8289958 Si02
#       7
#    16   8  16  16  16  16   8
#     4   9  16  28  48  73 101 131 167 210 253 295
#     4   9  16  30  56  86 110 128 160 214 268 320
#     4   9  17  31  50  73 103 134 168 213 260 304
#     4  10  21  36  51  74 106 140 174 214 264 320
#     4  10  20  32  51  75  99 138 177 216 256 307
#     4   9  17  32  54  78 103 133 165 209 264 313
#     4   7  12  24  44  68  95 131 161 195 254 302
#
# _framework density 17.66995
#
# number of rings (size 3 to 8) (size 9 to 14) (size 15 to 20)
#    0.000    2.833    0.833    2.000    1.167    0.333 
#    3.000    0.833    0.000    3.500    0.000    3.500 
#    0.000    0.000    0.000    0.000    0.000    0.000 
#
# Total GULP energy -594657.582482 kJ/mol
# GULP energy per Si atom -12388.699635 kJ/mol
# Density = 1.762973 g / cm^3
# Si number density = 17.669950 Si / 1000 Ang^3
#
#
#
# Elastic Constant Matrix: (Units=GPa)
#
#
# Indices 1 2 3 4 5 6 
#
# 1 102.1878 51.5867 44.9124 0.0000 0.0000 0.0000
# 2 51.5867 87.6467 39.9112 0.0000 0.0000 0.0000
# 3 44.9124 39.9112 85.7073 0.0000 0.0000 0.0000
# 4 0.0000 0.0000 0.0000 21.0390 0.0000 0.0000
# 5 0.0000 0.0000 0.0000 0.0000 18.9301 0.0000
# 6 0.0000 0.0000 0.0000 0.0000 0.0000 23.0333
#
#
#
# Elastic Compliance Matrix: (Units=1/GPa)
#
#
# Indices 1 2 3 4 5 6 
#
# 1 0.015377 -0.006830 -0.004878 0.000000 0.000000 0.000000
# 2 -0.006830 0.017513 -0.004576 0.000000 0.000000 0.000000
# 3 -0.004878 -0.004576 0.016355 0.000000 0.000000 0.000000
# 4 0.000000 0.000000 0.000000 0.047531 0.000000 0.000000
# 5 0.000000 0.000000 0.000000 0.000000 0.052826 0.000000
# 6 0.000000 0.000000 0.000000 0.000000 0.000000 0.043415
#
#
# Mechanical properties :
#
#
# Convention : Reuss Voigt Hill
#
# Bulk Modulus (GPa) = 59.96035 60.92915 60.44475
# Shear Modulus (GPa) = 21.63147 21.87590 21.75369
#
# Velocity S-wave (km/s) = 3.50265 3.52238 3.51253
# Velocity P-wave (km/s) = 7.09685 7.14839 7.12267
#
# Compressibility (1/GPa) = 0.01667769
#
# Stress axis : x y z
#
# Youngs Moduli (GPa) = 65.03017 57.09985 61.14418
#
# Poissons Ratio (x) = 0.38997 0.29825
# Poissons Ratio (y) = 0.44413 0.27982
# Poissons Ratio (z) = 0.31720 0.26132
#
# Static dielectric constant tensor:
#      x y z
#    x 3.454030 0.000000 0.000000 
#    y 0.000000 3.030360 0.000000 
#    z 0.000000 0.000000 3.172290 
# 
# 
# High freq. dielectric constant tensor:
#      x y z
#    x 1.686630 0.000000 0.000000 
#    y 0.000000 1.658610 0.000000 
#    z 0.000000 0.000000 1.662850 
# 
# From -- ./inp_files/61281.got.cif
#   From: 2010.06.25/outbox.cif.g09.slc.cpg/sg71_31_cif.got.tgz:61281.got - 2010.06.28 04:59:45.
