data_PCOD8289355
_publ_section_title
;
Structure prediction by ZEFSAII (Michael W. Deem and Ramdas Pophale) SiO2 
 PCOD8289355
Probable space group: I M M M
;
_chemical_formula_sum "Si O2"
_cell_formula_units_Z 104
_cell_length_a 32.386973
_cell_length_b 8.787000
_cell_length_c 20.237990
_cell_angle_alpha 90.000000
_cell_angle_beta 90.000000
_cell_angle_gamma 90.000000
_cell_volume 5759.414860
_symmetry_space_group_name_H-M "I M M M"
_symmetry_group_IT_number 71
_symmetry_cell_setting 'orthorhombic'
loop_
_space_group_symop_operation_xyz
x,y,z
-x,-y,z
x,-y,-z
-x,y,-z
-x,-y,-z
x,y,-z
-x,y,z
x,-y,z
1/2+x,1/2+y,1/2+z
1/2-x,1/2-y,1/2+z
1/2+x,1/2-y,1/2-z
1/2-x,1/2+y,1/2-z
1/2-x,1/2-y,1/2-z
1/2+x,1/2+y,1/2-z
1/2-x,1/2+y,1/2+z
1/2+x,1/2-y,1/2+z
loop_
_atom_site_type_symbol
_atom_site_label
_atom_site_fract_x
_atom_site_fract_y
_atom_site_fract_z
Si Si1 0.282827 0.321912 0.075557
Si Si2 0.153983 0.321193 0.323717
Si Si3 0.570748 0.672792 0.144624
Si Si4 0.134042 0.180417 0.812807
Si Si5 0.544498 0.673188 0.292335
Si Si6 0.500000 0.834407 0.075726
Si Si7 0.196519 0.174878 0.074826
O O1 0.289370 0.500000 0.086434
O O2 0.309500 0.231763 0.128583
O O3 0.235348 0.281206 0.089618
O O4 0.294428 0.274922 0.000000
O O5 0.156838 0.500000 0.314827
O O6 0.111378 0.275129 0.357739
O O7 0.157318 0.246932 0.251078
O O8 0.583348 0.500000 0.127837
O O9 0.547123 0.682848 0.213685
O O10 0.540489 0.736966 0.089988
O O11 0.086949 0.247298 0.821248
O O12 0.159186 0.225779 0.877850
O O13 0.130978 0.000000 0.801412
O O14 0.500000 0.750660 0.313322
O O15 0.542570 0.500000 0.316547
O O16 0.500000 0.000000 0.112843
O O17 0.500000 0.869936 0.000000
O O18 0.209157 0.000000 0.088276
O O19 0.180749 0.196588 0.000000
#
# Coordination Sequence:
#
# PCOD8289355 Si02
#       7
#    16  16  16  16  16   8  16
#     4  10  21  37  56  76  99 134 178 218 261 319
#     4  11  22  35  53  78 107 136 169 219 272 316
#     4  10  19  34  53  71  95 132 174 216 261 309
#     4   9  18  32  52  78 107 139 176 217 262 315
#     4   8  13  25  48  74  96 125 166 207 247 295
#     4  11  23  35  47  69 101 135 174 219 264 309
#     4   9  18  34  55  78 105 138 175 216 264 315
#
# _framework density 18.057390000000002
#
# number of rings (size 3 to 8) (size 9 to 14) (size 15 to 20)
#    0.000    2.385    0.769    3.462    0.000    3.385 
#    0.000    0.000    0.000    0.462    0.000    3.231 
#    0.000    0.000    0.000    7.846    0.000    9.231 
#
# Total GULP energy -644499.143459 kJ/mol
# GULP energy per Si atom -12394.214297 kJ/mol
# Density = 1.801629 g / cm^3
# Si number density = 18.057390 Si / 1000 Ang^3
#
#
#
# Elastic Constant Matrix: (Units=GPa)
#
#
# Indices 1 2 3 4 5 6 
#
# 1 122.9461 33.9794 71.1960 0.0000 0.0000 0.0000
# 2 33.9794 63.5682 32.9630 0.0000 0.0000 0.0000
# 3 71.1960 32.9630 91.4469 0.0000 0.0000 0.0000
# 4 0.0000 0.0000 0.0000 18.6244 0.0000 0.0000
# 5 0.0000 0.0000 0.0000 0.0000 21.1464 0.0000
# 6 0.0000 0.0000 0.0000 0.0000 0.0000 23.4115
#
#
#
# Elastic Compliance Matrix: (Units=1/GPa)
#
#
# Indices 1 2 3 4 5 6 
#
# 1 0.015111 -0.002431 -0.010888 0.000000 0.000000 0.000000
# 2 -0.002431 0.019739 -0.005222 0.000000 0.000000 0.000000
# 3 -0.010888 -0.005222 0.021295 0.000000 0.000000 0.000000
# 4 0.000000 0.000000 0.000000 0.053693 0.000000 0.000000
# 5 0.000000 0.000000 0.000000 0.000000 0.047289 0.000000
# 6 0.000000 0.000000 0.000000 0.000000 0.000000 0.042714
#
#
# Mechanical properties :
#
#
# Convention : Reuss Voigt Hill
#
# Bulk Modulus (GPa) = 52.46312 61.58199 57.02256
# Shear Modulus (GPa) = 20.55271 21.95798 21.25534
#
# Velocity S-wave (km/s) = 3.37736 3.49092 3.43461
# Velocity P-wave (km/s) = 6.65773 7.10114 6.88301
#
# Compressibility (1/GPa) = 0.01906101
#
# Stress axis : x y z
#
# Youngs Moduli (GPa) = 66.17849 50.66205 46.96033
#
# Poissons Ratio (x) = 0.12317 0.51131
# Poissons Ratio (y) = 0.16089 0.24523
# Poissons Ratio (z) = 0.72055 0.26457
#
# Static dielectric constant tensor:
#      x y z
#    x 3.609000 0.000000 0.000000 
#    y 0.000000 3.254580 0.000000 
#    z 0.000000 0.000000 3.186280 
# 
# 
# High freq. dielectric constant tensor:
#      x y z
#    x 1.708930 0.000000 0.000000 
#    y 0.000000 1.688340 0.000000 
#    z 0.000000 0.000000 1.675350 
# 
# From -- ./inp_files/56743.got.cif
#   From: 2010.06.25/outbox.cif.g09.slc.cpg/sg71_29_cif.got.tgz:56743.got - 2010.06.28 04:59:45.
