data_PCOD8289860
_publ_section_title
;
Structure prediction by ZEFSAII (Michael W. Deem and Ramdas Pophale) SiO2 
 PCOD8289860
Probable space group: I M M M
;
_chemical_formula_sum "Si O2"
_cell_formula_units_Z 104
_cell_length_a 9.736227
_cell_length_b 24.759578
_cell_length_c 24.205473
_cell_angle_alpha 90.000000
_cell_angle_beta 90.000000
_cell_angle_gamma 90.000000
_cell_volume 5835.089246
_symmetry_space_group_name_H-M "I M M M"
_symmetry_group_IT_number 71
_symmetry_cell_setting 'orthorhombic'
loop_
_space_group_symop_operation_xyz
x,y,z
-x,-y,z
x,-y,-z
-x,y,-z
-x,-y,-z
x,y,-z
-x,y,z
x,-y,z
1/2+x,1/2+y,1/2+z
1/2-x,1/2-y,1/2+z
1/2+x,1/2-y,1/2-z
1/2-x,1/2+y,1/2-z
1/2-x,1/2-y,1/2-z
1/2+x,1/2+y,1/2-z
1/2-x,1/2+y,1/2+z
1/2+x,1/2-y,1/2+z
loop_
_atom_site_type_symbol
_atom_site_label
_atom_site_fract_x
_atom_site_fract_y
_atom_site_fract_z
Si Si1 0.842608 0.149500 0.563754
Si Si2 0.842637 0.937688 0.653343
Si Si3 0.000000 0.937022 0.938564
Si Si4 0.729531 0.937253 0.126041
Si Si5 0.850873 0.341254 0.437750
Si Si6 0.153725 0.436689 0.251538
Si Si7 0.843457 0.252016 0.934229
O O1 0.812966 0.135785 0.500000
O O2 0.812527 0.095180 0.597708
O O3 0.739462 0.195419 0.586278
O O4 0.000000 0.168895 0.571900
O O5 0.746655 0.913526 0.701978
O O6 0.000000 0.931095 0.672784
O O7 0.808530 0.000000 0.640508
O O8 0.872215 0.919856 0.901643
O O9 0.000000 0.000000 0.948448
O O10 0.000000 0.909143 0.000000
O O11 0.625773 0.896303 0.096843
O O12 0.730959 0.924552 0.191039
O O13 0.689552 0.000000 0.114942
O O14 0.808621 0.357203 0.500000
O O15 0.736422 0.301039 0.411991
O O16 0.000000 0.311872 0.437427
O O17 0.140021 0.500000 0.243508
O O18 0.000000 0.411009 0.250884
O O19 0.000000 0.252722 0.911592
O O20 0.841102 0.251120 0.000000
#
# Coordination Sequence:
#
# PCOD8289860 Si02
#       7
#    16  16   8  16  16  16  16
#     4   9  17  31  52  77 105 135 165 200 246 300
#     4   9  18  31  50  77 107 136 166 203 246 295
#     4   9  18  30  44  68 100 130 161 203 254 302
#     4  10  20  32  49  71  98 134 171 209 253 305
#     4  10  20  32  48  71  99 130 164 208 258 303
#     4   9  18  32  49  69  97 134 175 214 250 292
#     4   9  18  32  50  71  96 129 169 209 247 295
#
# _framework density 17.823207
#
# number of rings (size 3 to 8) (size 9 to 14) (size 15 to 20)
#    0.000    2.692    0.000    1.385    2.154    4.615 
#    0.000    2.308    0.000    0.923    0.000    4.308 
#    0.000    0.000    0.000    0.000    0.000    0.000 
#
# Total GULP energy -644429.461175 kJ/mol
# GULP energy per Si atom -12392.874253 kJ/mol
# Density = 1.778264 g / cm^3
# Si number density = 17.823207 Si / 1000 Ang^3
#
#
#
# Elastic Constant Matrix: (Units=GPa)
#
#
# Indices 1 2 3 4 5 6 
#
# 1 119.7375 46.3977 53.0962 0.0000 0.0000 0.0000
# 2 46.3977 87.6906 46.3031 0.0000 0.0000 0.0000
# 3 53.0962 46.3031 97.1545 0.0000 0.0000 0.0000
# 4 0.0000 0.0000 0.0000 10.9242 0.0000 0.0000
# 5 0.0000 0.0000 0.0000 0.0000 24.8122 0.0000
# 6 0.0000 0.0000 0.0000 0.0000 0.0000 22.7380
#
#
#
# Elastic Compliance Matrix: (Units=1/GPa)
#
#
# Indices 1 2 3 4 5 6 
#
# 1 0.011913 -0.003829 -0.004686 0.000000 0.000000 0.000000
# 2 -0.003829 0.016469 -0.005757 0.000000 0.000000 0.000000
# 3 -0.004686 -0.005757 0.015597 0.000000 0.000000 0.000000
# 4 0.000000 0.000000 0.000000 0.091540 0.000000 0.000000
# 5 0.000000 0.000000 0.000000 0.000000 0.040303 0.000000
# 6 0.000000 0.000000 0.000000 0.000000 0.000000 0.043979
#
#
# Mechanical properties :
#
#
# Convention : Reuss Voigt Hill
#
# Bulk Modulus (GPa) = 64.77962 66.24184 65.51073
# Shear Modulus (GPa) = 19.72465 22.28060 21.00262
#
# Velocity S-wave (km/s) = 3.33029 3.53950 3.43649
# Velocity P-wave (km/s) = 7.15628 7.34512 7.25132
#
# Compressibility (1/GPa) = 0.01543695
#
# Stress axis : x y z
#
# Youngs Moduli (GPa) = 83.94031 60.71883 64.11397
#
# Poissons Ratio (x) = 0.23250 0.30042
# Poissons Ratio (y) = 0.32142 0.36907
# Poissons Ratio (z) = 0.39333 0.34953
#
# Static dielectric constant tensor:
#      x y z
#    x 3.621450 0.000000 0.000000 
#    y 0.000000 3.084640 0.000000 
#    z 0.000000 0.000000 3.135850 
# 
# 
# High freq. dielectric constant tensor:
#      x y z
#    x 1.702740 0.000000 0.000000 
#    y 0.000000 1.665250 0.000000 
#    z 0.000000 0.000000 1.662600 
# 
# From -- ./inp_files/63566.got.cif
#   From: 2010.06.25/outbox.cif.g09.slc.cpg/sg71_32_cif.got.tgz:63566.got - 2010.06.28 04:59:45.
