data_PCOD8289484
_publ_section_title
;
Structure prediction by ZEFSAII (Michael W. Deem and Ramdas Pophale) SiO2 
 PCOD8289484
Probable space group: I M M M
;
_chemical_formula_sum "Si O2"
_cell_formula_units_Z 100
_cell_length_a 22.808769
_cell_length_b 7.733590
_cell_length_c 29.097475
_cell_angle_alpha 90.000000
_cell_angle_beta 90.000000
_cell_angle_gamma 90.000000
_cell_volume 5132.610340
_symmetry_space_group_name_H-M "I M M M"
_symmetry_group_IT_number 71
_symmetry_cell_setting 'orthorhombic'
loop_
_space_group_symop_operation_xyz
x,y,z
-x,-y,z
x,-y,-z
-x,y,-z
-x,-y,-z
x,y,-z
-x,y,z
x,-y,z
1/2+x,1/2+y,1/2+z
1/2-x,1/2-y,1/2+z
1/2+x,1/2-y,1/2-z
1/2-x,1/2+y,1/2-z
1/2-x,1/2-y,1/2-z
1/2+x,1/2+y,1/2-z
1/2-x,1/2+y,1/2+z
1/2+x,1/2-y,1/2+z
loop_
_atom_site_type_symbol
_atom_site_label
_atom_site_fract_x
_atom_site_fract_y
_atom_site_fract_z
Si Si1 0.221721 0.793116 0.315473
Si Si2 0.064620 0.296714 0.447927
Si Si3 0.159033 0.803294 0.774246
Si Si4 0.315857 0.304333 0.087352
Si Si5 0.433442 0.807413 0.342320
Si Si6 0.146620 0.000000 0.000000
Si Si7 0.569107 0.500000 0.590760
Si Si8 0.257005 0.209334 0.500000
O O1 0.175985 0.729663 0.276195
O O2 0.284954 0.711558 0.307256
O O3 0.200981 0.715731 0.364401
O O4 0.226090 0.000000 0.313767
O O5 0.069999 0.229680 0.500000
O O6 0.074598 0.500000 0.446089
O O7 0.114132 0.205480 0.417976
O O8 0.000000 0.248146 0.428612
O O9 0.105356 0.698538 0.796178
O O10 0.138484 0.000000 0.770670
O O11 0.295828 0.500000 0.091302
O O12 0.280827 0.226729 0.044017
O O13 0.500000 0.766405 0.327619
O O14 0.412433 0.669814 0.380343
O O15 0.428001 0.000000 0.363721
O O16 0.183829 0.821759 0.000000
O O17 0.105322 0.000000 0.044195
O O18 0.500000 0.500000 0.579251
O O19 0.269032 0.000000 0.500000
#
# Coordination Sequence:
#
# PCOD8289484 Si02
#       8
#    16  16  16  16  16   4   8   8
#     4   9  20  35  53  79 114 151 185 231 292 347
#     4   9  18  32  51  73  97 133 183 235 280 326
#     4  10  19  34  57  84 112 147 192 236 284 347
#     4  10  20  35  52  76 112 149 186 237 290 344
#     4  10  21  38  63  90 118 154 195 241 293 344
#     4  12  27  40  64  90 119 166 194 238 306 346
#     4  10  23  44  64  92 122 155 203 245 285 354
#     4  10  24  39  56  88 121 152 201 245 294 353
#
# _framework density 19.483263999999998
#
# number of rings (size 3 to 8) (size 9 to 14) (size 15 to 20)
#    0.000    2.240    1.600    1.080    3.360    2.240 
#    0.000    1.600    0.000    7.200    0.000    0.000 
#    0.000    0.000    0.000    0.000    0.000    0.000 
#
# Total GULP energy -619826.931688 kJ/mol
# GULP energy per Si atom -12396.538634 kJ/mol
# Density = 1.943892 g / cm^3
# Si number density = 19.483264 Si / 1000 Ang^3
#
#
#
# Elastic Constant Matrix: (Units=GPa)
#
#
# Indices 1 2 3 4 5 6 
#
# 1 103.5087 28.4667 75.4893 0.0000 0.0000 0.0000
# 2 28.4667 68.6171 29.9630 0.0000 0.0000 0.0000
# 3 75.4893 29.9630 158.2300 0.0000 0.0000 0.0000
# 4 0.0000 0.0000 0.0000 11.9524 0.0000 0.0000
# 5 0.0000 0.0000 0.0000 0.0000 21.0410 0.0000
# 6 0.0000 0.0000 0.0000 0.0000 0.0000 29.6868
#
#
#
# Elastic Compliance Matrix: (Units=1/GPa)
#
#
# Indices 1 2 3 4 5 6 
#
# 1 0.015551 -0.003501 -0.006756 0.000000 0.000000 0.000000
# 2 -0.003501 0.016676 -0.001487 0.000000 0.000000 0.000000
# 3 -0.006756 -0.001487 0.009825 0.000000 0.000000 0.000000
# 4 0.000000 0.000000 0.000000 0.083665 0.000000 0.000000
# 5 0.000000 0.000000 0.000000 0.000000 0.047526 0.000000
# 6 0.000000 0.000000 0.000000 0.000000 0.000000 0.033685
#
#
# Mechanical properties :
#
#
# Convention : Reuss Voigt Hill
#
# Bulk Modulus (GPa) = 53.87367 66.46597 60.16982
# Shear Modulus (GPa) = 21.13218 25.63183 23.38201
#
# Velocity S-wave (km/s) = 3.29695 3.63103 3.46801
# Velocity P-wave (km/s) = 6.49650 7.19497 6.85464
#
# Compressibility (1/GPa) = 0.01856194
#
# Stress axis : x y z
#
# Youngs Moduli (GPa) = 64.30309 59.96750 101.78239
#
# Poissons Ratio (x) = 0.20997 0.68767
# Poissons Ratio (y) = 0.22515 0.15138
# Poissons Ratio (z) = 0.43445 0.08919
#
# Static dielectric constant tensor:
#      x y z
#    x 3.537190 0.000000 0.000000 
#    y 0.000000 3.492920 0.000000 
#    z 0.000000 0.000000 3.682810 
# 
# 
# High freq. dielectric constant tensor:
#      x y z
#    x 1.756440 0.000000 0.000000 
#    y 0.000000 1.757940 0.000000 
#    z 0.000000 0.000000 1.747070 
# 
# From -- ./inp_files/70810.got.cif
#   From: 2010.06.25/outbox.cif.g09.slc.cpg/sg71_36_cif.got.tgz:70810.got - 2010.06.28 04:59:45.
