data_PCOD8289247
_publ_section_title
;
Structure prediction by ZEFSAII (Michael W. Deem and Ramdas Pophale) SiO2 
 PCOD8289247
Probable space group: I M M M
;
_chemical_formula_sum "Si O2"
_cell_formula_units_Z 96
_cell_length_a 8.732937
_cell_length_b 23.474515
_cell_length_c 25.582970
_cell_angle_alpha 90.000000
_cell_angle_beta 90.000000
_cell_angle_gamma 90.000000
_cell_volume 5244.546217
_symmetry_space_group_name_H-M "I M M M"
_symmetry_group_IT_number 71
_symmetry_cell_setting 'orthorhombic'
loop_
_space_group_symop_operation_xyz
x,y,z
-x,-y,z
x,-y,-z
-x,y,-z
-x,-y,-z
x,y,-z
-x,y,z
x,-y,z
1/2+x,1/2+y,1/2+z
1/2-x,1/2-y,1/2+z
1/2+x,1/2-y,1/2-z
1/2-x,1/2+y,1/2-z
1/2-x,1/2-y,1/2-z
1/2+x,1/2+y,1/2-z
1/2-x,1/2+y,1/2+z
1/2+x,1/2-y,1/2+z
loop_
_atom_site_type_symbol
_atom_site_label
_atom_site_fract_x
_atom_site_fract_y
_atom_site_fract_z
Si Si1 0.679597 0.249372 0.807302
Si Si2 0.824250 0.065936 0.256956
Si Si3 0.180092 0.362453 0.153735
Si Si4 0.681886 0.063703 0.441940
Si Si5 0.322023 0.636190 0.653832
Si Si6 0.318344 0.563506 0.558007
O O1 0.500000 0.253658 0.800257
O O2 0.750000 0.250000 0.750000
O O3 0.736609 0.302336 0.841302
O O4 0.723908 0.192473 0.837553
O O5 0.713910 0.097453 0.297130
O O6 0.795960 0.091260 0.199885
O O7 0.000000 0.074926 0.274296
O O8 0.779156 0.000000 0.255383
O O9 0.245155 0.392503 0.101246
O O10 0.000000 0.351624 0.150570
O O11 0.735436 0.083068 0.500000
O O12 0.500000 0.062304 0.439159
O O13 0.744579 0.000000 0.430039
O O14 0.500000 0.653191 0.649105
O O15 0.256129 0.607568 0.601003
O O16 0.269221 0.584301 0.500000
O O17 0.500000 0.560724 0.562707
O O18 0.252571 0.500000 0.568370
#
# Coordination Sequence:
#
# PCOD8289247 Si02
#       6
#    16  16  16  16  16  16
#     4  12  24  39  56  75 103 142 182 224 271 323
#     4  10  20  32  49  76 110 143 173 214 269 324
#     4  11  21  34  55  81 107 139 180 224 268 316
#     4   8  15  30  53  81 111 140 172 215 265 312
#     4  10  19  33  54  79 108 142 180 220 265 316
#     4   8  14  27  51  83 114 142 176 219 263 308
#
# _framework density 18.304728999999998
#
# number of rings (size 3 to 8) (size 9 to 14) (size 15 to 20)
#    0.000    2.167    1.667    4.000    0.000    3.000 
#    0.000    0.833    0.000    9.000    0.000    7.000 
#    0.000    0.000    0.000    0.000    0.000    0.000 
#
# Total GULP energy -595179.253668 kJ/mol
# GULP energy per Si atom -12399.567785 kJ/mol
# Density = 1.826307 g / cm^3
# Si number density = 18.304729 Si / 1000 Ang^3
#
#
#
# Elastic Constant Matrix: (Units=GPa)
#
#
# Indices 1 2 3 4 5 6 
#
# 1 62.6726 33.3280 29.5232 0.0000 0.0000 0.0000
# 2 33.3280 121.7346 56.8711 0.0000 0.0000 0.0000
# 3 29.5232 56.8711 127.5575 0.0000 0.0000 0.0000
# 4 0.0000 0.0000 0.0000 28.9745 0.0000 0.0000
# 5 0.0000 0.0000 0.0000 0.0000 6.1070 0.0000
# 6 0.0000 0.0000 0.0000 0.0000 0.0000 26.6650
#
#
#
# Elastic Compliance Matrix: (Units=1/GPa)
#
#
# Indices 1 2 3 4 5 6 
#
# 1 0.019372 -0.004053 -0.002677 0.000000 0.000000 0.000000
# 2 -0.004053 0.011224 -0.004066 0.000000 0.000000 0.000000
# 3 -0.002677 -0.004066 0.010272 0.000000 0.000000 0.000000
# 4 0.000000 0.000000 0.000000 0.034513 0.000000 0.000000
# 5 0.000000 0.000000 0.000000 0.000000 0.163747 0.000000
# 6 0.000000 0.000000 0.000000 0.000000 0.000000 0.037502
#
#
# Mechanical properties :
#
#
# Convention : Reuss Voigt Hill
#
# Bulk Modulus (GPa) = 51.87707 61.26770 56.57239
# Shear Modulus (GPa) = 16.41242 25.16546 20.78894
#
# Velocity S-wave (km/s) = 2.99761 3.71186 3.37369
# Velocity P-wave (km/s) = 6.35478 7.20515 6.79328
#
# Compressibility (1/GPa) = 0.01927634
#
# Stress axis : x y z
#
# Youngs Moduli (GPa) = 51.62037 89.09656 97.35299
#
# Poissons Ratio (x) = 0.36113 0.26057
# Poissons Ratio (y) = 0.20923 0.39583
# Poissons Ratio (z) = 0.13817 0.36226
#
# Static dielectric constant tensor:
#      x y z
#    x 3.069750 0.000000 0.000000 
#    y 0.000000 3.569710 0.000000 
#    z 0.000000 0.000000 3.640100 
# 
# 
# High freq. dielectric constant tensor:
#      x y z
#    x 1.676780 0.000000 0.000000 
#    y 0.000000 1.714520 0.000000 
#    z 0.000000 0.000000 1.714470 
# 
# From -- ./inp_files/10873.got.cif
#   From: 2010.06.25/outbox.cif.g09.slc.cpg/sg71_6_cif.got.tgz:10873.got - 2010.06.28 04:59:45.
