data_PCOD8289297
_publ_section_title
;
Structure prediction by ZEFSAII (Michael W. Deem and Ramdas Pophale) SiO2 
 PCOD8289297
Probable space group: I M M M
;
_chemical_formula_sum "Si O2"
_cell_formula_units_Z 120
_cell_length_a 9.158948
_cell_length_b 30.077783
_cell_length_c 24.022403
_cell_angle_alpha 90.000000
_cell_angle_beta 90.000000
_cell_angle_gamma 90.000000
_cell_volume 6617.712008
_symmetry_space_group_name_H-M "I M M M"
_symmetry_group_IT_number 71
_symmetry_cell_setting 'orthorhombic'
loop_
_space_group_symop_operation_xyz
x,y,z
-x,-y,z
x,-y,-z
-x,y,-z
-x,-y,-z
x,y,-z
-x,y,z
x,-y,z
1/2+x,1/2+y,1/2+z
1/2-x,1/2-y,1/2+z
1/2+x,1/2-y,1/2-z
1/2-x,1/2+y,1/2-z
1/2-x,1/2-y,1/2-z
1/2+x,1/2+y,1/2-z
1/2-x,1/2+y,1/2+z
1/2+x,1/2-y,1/2+z
loop_
_atom_site_type_symbol
_atom_site_label
_atom_site_fract_x
_atom_site_fract_y
_atom_site_fract_z
Si Si1 0.170250 0.000000 0.935098
Si Si2 0.826261 0.627999 0.163804
Si Si3 0.832522 0.244536 0.063874
Si Si4 0.326925 0.049941 0.742694
Si Si5 0.828636 0.164867 0.563872
Si Si6 0.163733 0.326533 0.368661
Si Si7 0.334406 0.795716 0.746201
Si Si8 0.169540 0.427950 0.634237
O O1 0.240333 0.956132 0.909509
O O2 0.000000 0.000000 0.921908
O O3 0.204103 0.000000 0.000000
O O4 0.768036 0.584383 0.196376
O O5 0.748283 0.628669 0.103625
O O6 0.776388 0.672213 0.197289
O O7 0.000000 0.626505 0.156080
O O8 0.735693 0.287011 0.078692
O O9 0.782054 0.203421 0.100805
O O10 0.000000 0.255969 0.078032
O O11 0.813001 0.230638 0.000000
O O12 0.500000 0.053387 0.743820
O O13 0.268178 0.063133 0.803752
O O14 0.274798 0.000000 0.727352
O O15 0.793678 0.152013 0.500000
O O16 0.000000 0.165869 0.575457
O O17 0.181418 0.323191 0.302646
O O18 0.193033 0.377325 0.384294
O O19 0.000000 0.312126 0.386767
O O20 0.500000 0.782697 0.733735
O O21 0.250000 0.750000 0.750000
O O22 0.000000 0.441730 0.631650
#
# Coordination Sequence:
#
# PCOD8289297 Si02
#       8
#     8  16  16  16  16  16  16  16
#     4  11  25  41  55  77 111 145 180 231 288 329
#     4  10  19  33  55  83 111 138 175 219 268 327
#     4  10  21  36  53  74 103 143 188 229 271 318
#     4   9  16  31  59  87 109 137 174 222 276 324
#     4  10  21  37  56  78 107 143 182 223 263 308
#     4  10  20  34  53  78 108 140 178 224 272 321
#     4  10  20  32  47  73 110 144 174 213 262 315
#     4  10  19  36  61  81 103 140 184 227 271 326
#
# _framework density 18.133154999999999
#
# number of rings (size 3 to 8) (size 9 to 14) (size 15 to 20)
#    0.000    2.067    2.000    1.800    0.000    6.400 
#    0.000    3.333    0.000    0.400    0.000    2.800 
#    0.000    0.000    0.000    0.000    0.000    0.000 
#
# Total GULP energy -744088.570087 kJ/mol
# GULP energy per Si atom -12401.476168 kJ/mol
# Density = 1.809188 g / cm^3
# Si number density = 18.133155 Si / 1000 Ang^3
#
#
#
# Elastic Constant Matrix: (Units=GPa)
#
#
# Indices 1 2 3 4 5 6 
#
# 1 66.5448 43.5406 51.6949 0.0000 0.0000 0.0000
# 2 43.5406 101.3166 57.5908 0.0000 0.0000 0.0000
# 3 51.6949 57.5908 107.4978 0.0000 0.0000 0.0000
# 4 0.0000 0.0000 0.0000 32.0306 0.0000 0.0000
# 5 0.0000 0.0000 0.0000 0.0000 29.7698 0.0000
# 6 0.0000 0.0000 0.0000 0.0000 0.0000 22.4421
#
#
#
# Elastic Compliance Matrix: (Units=1/GPa)
#
#
# Indices 1 2 3 4 5 6 
#
# 1 0.026232 -0.005899 -0.009454 0.000000 0.000000 0.000000
# 2 -0.005899 0.015518 -0.005477 0.000000 0.000000 0.000000
# 3 -0.009454 -0.005477 0.016783 0.000000 0.000000 0.000000
# 4 0.000000 0.000000 0.000000 0.031220 0.000000 0.000000
# 5 0.000000 0.000000 0.000000 0.000000 0.033591 0.000000
# 6 0.000000 0.000000 0.000000 0.000000 0.000000 0.044559
#
#
# Mechanical properties :
#
#
# Convention : Reuss Voigt Hill
#
# Bulk Modulus (GPa) = 59.26723 64.55689 61.91206
# Shear Modulus (GPa) = 23.23542 25.01736 24.12639
#
# Velocity S-wave (km/s) = 3.58352 3.71839 3.65158
# Velocity P-wave (km/s) = 7.06240 7.35623 7.21081
#
# Compressibility (1/GPa) = 0.01687273
#
# Stress axis : x y z
#
# Youngs Moduli (GPa) = 38.12179 64.43955 59.58300
#
# Poissons Ratio (x) = 0.38013 0.56332
# Poissons Ratio (y) = 0.22488 0.32634
# Poissons Ratio (z) = 0.36042 0.35294
#
# Static dielectric constant tensor:
#      x y z
#    x 3.255080 0.000000 0.000000 
#    y 0.000000 3.404930 0.000000 
#    z 0.000000 0.000000 3.427620 
# 
# 
# High freq. dielectric constant tensor:
#      x y z
#    x 1.685850 0.000000 0.000000 
#    y 0.000000 1.697930 0.000000 
#    z 0.000000 0.000000 1.705530 
# 
# From -- ./inp_files/63816.got.cif
#   From: 2010.06.25/outbox.cif.g09.slc.cpg/sg71_32_cif.got.tgz:63816.got - 2010.06.28 04:59:45.
