data_PCOD8289069
_publ_section_title
;
Structure prediction by ZEFSAII (Michael W. Deem and Ramdas Pophale) SiO2 
 PCOD8289069
Probable space group: I M M M
;
_chemical_formula_sum "Si O2"
_cell_formula_units_Z 120
_cell_length_a 22.183345
_cell_length_b 12.397330
_cell_length_c 23.069193
_cell_angle_alpha 90.000000
_cell_angle_beta 90.000000
_cell_angle_gamma 90.000000
_cell_volume 6344.356776
_symmetry_space_group_name_H-M "I M M M"
_symmetry_group_IT_number 71
_symmetry_cell_setting 'orthorhombic'
loop_
_space_group_symop_operation_xyz
x,y,z
-x,-y,z
x,-y,-z
-x,y,-z
-x,-y,-z
x,y,-z
-x,y,z
x,-y,z
1/2+x,1/2+y,1/2+z
1/2-x,1/2-y,1/2+z
1/2+x,1/2-y,1/2-z
1/2-x,1/2+y,1/2-z
1/2-x,1/2-y,1/2-z
1/2+x,1/2+y,1/2-z
1/2-x,1/2+y,1/2+z
1/2+x,1/2-y,1/2+z
loop_
_atom_site_type_symbol
_atom_site_label
_atom_site_fract_x
_atom_site_fract_y
_atom_site_fract_z
Si Si1 0.431356 0.000000 0.431214
Si Si2 0.613897 0.773666 0.433435
Si Si3 0.155766 0.194894 0.754319
Si Si4 0.568345 0.374779 0.344663
Si Si5 0.749199 0.788291 0.934201
Si Si6 0.853725 0.876677 0.435766
Si Si7 0.434349 0.622153 0.837570
Si Si8 0.278120 0.121102 0.189406
O O1 0.399850 0.108249 0.406039
O O2 0.500000 0.000000 0.410108
O O3 0.425716 0.000000 0.500000
O O4 0.596062 0.776180 0.500000
O O5 0.572369 0.677080 0.408297
O O6 0.683223 0.746946 0.422861
O O7 0.112673 0.207393 0.810046
O O8 0.113316 0.121156 0.714428
O O9 0.216467 0.136688 0.774840
O O10 0.170902 0.303458 0.718667
O O11 0.500000 0.370164 0.320872
O O12 0.590660 0.500000 0.344444
O O13 0.710179 0.680700 0.930031
O O14 0.729640 0.863918 0.880280
O O15 0.741896 0.840022 0.000000
O O16 0.880546 0.866096 0.500000
O O17 0.903090 0.822010 0.393432
O O18 0.840772 0.000000 0.418344
O O19 0.500000 0.677093 0.823757
O O20 0.447700 0.500000 0.854099
O O21 0.300713 0.000000 0.198963
#
# Coordination Sequence:
#
# PCOD8289069 Si02
#       8
#     8  16  16  16  16  16  16  16
#     4   9  18  34  54  76 112 158 197 239 284 340
#     4  10  21  36  57  85 116 155 201 244 294 346
#     4  11  22  39  57  81 113 148 186 230 280 339
#     4  11  23  39  60  84 114 152 194 243 291 340
#     4  10  20  36  58  86 114 146 186 235 292 341
#     4   9  18  32  52  82 117 144 175 227 283 336
#     4  10  19  32  55  83 110 147 188 224 273 337
#     4  11  23  40  61  84 112 146 187 235 288 345
#
# _framework density 18.914446999999999
#
# number of rings (size 3 to 8) (size 9 to 14) (size 15 to 20)
#    0.000    1.800    2.667    2.000    0.933    2.667 
#    1.200    3.333    0.000    1.200    0.000    0.000 
#    0.000    2.133    0.000    0.000    0.000    0.000 
#
# Total GULP energy -743321.668059 kJ/mol
# GULP energy per Si atom -12388.694468 kJ/mol
# Density = 1.887140 g / cm^3
# Si number density = 18.914447 Si / 1000 Ang^3
#
#
#
# Elastic Constant Matrix: (Units=GPa)
#
#
# Indices 1 2 3 4 5 6 
#
# 1 89.7404 34.7121 31.5567 0.0000 0.0000 0.0000
# 2 34.7121 95.0563 41.0782 0.0000 0.0000 0.0000
# 3 31.5567 41.0782 83.7173 0.0000 0.0000 0.0000
# 4 0.0000 0.0000 0.0000 23.1200 0.0000 0.0000
# 5 0.0000 0.0000 0.0000 0.0000 13.1870 0.0000
# 6 0.0000 0.0000 0.0000 0.0000 0.0000 19.0910
#
#
#
# Elastic Compliance Matrix: (Units=1/GPa)
#
#
# Indices 1 2 3 4 5 6 
#
# 1 0.013716 -0.003521 -0.003442 0.000000 0.000000 0.000000
# 2 -0.003521 0.014255 -0.005667 0.000000 0.000000 0.000000
# 3 -0.003442 -0.005667 0.016023 0.000000 0.000000 0.000000
# 4 0.000000 0.000000 0.000000 0.043253 0.000000 0.000000
# 5 0.000000 0.000000 0.000000 0.000000 0.075832 0.000000
# 6 0.000000 0.000000 0.000000 0.000000 0.000000 0.052381
#
#
# Mechanical properties :
#
#
# Convention : Reuss Voigt Hill
#
# Bulk Modulus (GPa) = 53.38298 53.68980 53.53639
# Shear Modulus (GPa) = 20.24576 21.82408 21.03492
#
# Velocity S-wave (km/s) = 3.27523 3.40049 3.33845
# Velocity P-wave (km/s) = 6.52591 6.62307 6.57467
#
# Compressibility (1/GPa) = 0.01873256
#
# Stress axis : x y z
#
# Youngs Moduli (GPa) = 72.90924 70.15079 62.40876
#
# Poissons Ratio (x) = 0.24700 0.21483
# Poissons Ratio (y) = 0.25671 0.35369
# Poissons Ratio (z) = 0.25098 0.39757
#
# Static dielectric constant tensor:
#      x y z
#    x 3.642980 0.000000 0.000000 
#    y 0.000000 3.306820 0.000000 
#    z 0.000000 0.000000 3.818200 
# 
# 
# High freq. dielectric constant tensor:
#      x y z
#    x 1.737230 0.000000 0.000000 
#    y 0.000000 1.704100 0.000000 
#    z 0.000000 0.000000 1.744370 
# 
# From -- ./inp_files/61365.got.cif
#   From: 2010.06.25/outbox.cif.g09.slc.cpg/sg71_31_cif.got.tgz:61365.got - 2010.06.28 04:59:45.
