data_PCOD8289298
_publ_section_title
;
Structure prediction by ZEFSAII (Michael W. Deem and Ramdas Pophale) SiO2 
 PCOD8289298
Probable space group: I M M M
;
_chemical_formula_sum "Si O2"
_cell_formula_units_Z 104
_cell_length_a 8.999964
_cell_length_b 27.870331
_cell_length_c 22.431988
_cell_angle_alpha 90.000000
_cell_angle_beta 90.000000
_cell_angle_gamma 90.000000
_cell_volume 5626.659868
_symmetry_space_group_name_H-M "I M M M"
_symmetry_group_IT_number 71
_symmetry_cell_setting 'orthorhombic'
loop_
_space_group_symop_operation_xyz
x,y,z
-x,-y,z
x,-y,-z
-x,y,-z
-x,-y,-z
x,y,-z
-x,y,z
x,-y,z
1/2+x,1/2+y,1/2+z
1/2-x,1/2-y,1/2+z
1/2+x,1/2-y,1/2-z
1/2-x,1/2+y,1/2-z
1/2-x,1/2-y,1/2-z
1/2+x,1/2+y,1/2-z
1/2-x,1/2+y,1/2+z
1/2+x,1/2-y,1/2+z
loop_
_atom_site_type_symbol
_atom_site_label
_atom_site_fract_x
_atom_site_fract_y
_atom_site_fract_z
Si Si1 0.170301 0.945327 0.776332
Si Si2 0.824133 0.600260 0.616696
Si Si3 0.327719 0.612495 0.839128
Si Si4 0.322932 0.556498 0.500000
Si Si5 0.664925 0.056331 0.433593
Si Si6 0.173846 0.704984 0.184395
Si Si7 0.325619 0.199280 0.821742
O O1 0.277165 0.936897 0.832290
O O2 0.223930 0.911905 0.722471
O O3 0.000000 0.934247 0.794631
O O4 0.187320 0.000000 0.755257
O O5 0.741130 0.584672 0.556781
O O6 0.774847 0.653612 0.638659
O O7 0.000000 0.597519 0.606266
O O8 0.500000 0.625114 0.837203
O O9 0.294542 0.576844 0.892786
O O10 0.235136 0.660347 0.852702
O O11 0.275416 0.500000 0.500000
O O12 0.500000 0.560638 0.500000
O O13 0.684827 0.077170 0.500000
O O14 0.500000 0.069847 0.409356
O O15 0.684744 0.000000 0.434818
O O16 0.244588 0.752789 0.155619
O O17 0.221902 0.694133 0.252654
O O18 0.000000 0.709696 0.177062
O O19 0.500000 0.206816 0.827652
#
# Coordination Sequence:
#
# PCOD8289298 Si02
#       7
#    16  16  16   8  16  16  16
#     4  10  21  35  51  77 114 150 183 223 274 331
#     4  11  22  38  60  85 112 145 188 237 287 337
#     4  11  21  33  53  81 114 148 183 226 277 329
#     4  11  25  43  61  83 115 155 197 239 286 347
#     4   9  19  36  56  77 105 144 187 229 273 324
#     4  10  19  33  55  83 114 146 183 222 271 331
#     4   9  19  35  55  82 113 142 178 225 276 330
#
# _framework density 18.483436000000001
#
# number of rings (size 3 to 8) (size 9 to 14) (size 15 to 20)
#    0.000    1.923    1.538    3.000    0.000    6.462 
#    0.000    0.769    1.692    0.000    0.000    0.000 
#    0.000    0.000    0.000    0.000    0.000    0.000 
#
# Total GULP energy -644797.497812 kJ/mol
# GULP energy per Si atom -12399.951881 kJ/mol
# Density = 1.844137 g / cm^3
# Si number density = 18.483436 Si / 1000 Ang^3
#
#
#
# Elastic Constant Matrix: (Units=GPa)
#
#
# Indices 1 2 3 4 5 6 
#
# 1 47.4031 46.6118 30.7351 0.0000 0.0000 0.0000
# 2 46.6118 112.9363 44.3507 0.0000 0.0000 0.0000
# 3 30.7351 44.3507 81.4592 -0.0001 0.0000 0.0000
# 4 0.0000 0.0000 -0.0001 24.9675 0.0000 0.0000
# 5 0.0000 0.0000 0.0000 0.0000 31.7680 0.0000
# 6 0.0000 0.0000 0.0000 0.0000 0.0000 34.9582
#
#
#
# Elastic Compliance Matrix: (Units=1/GPa)
#
#
# Indices 1 2 3 4 5 6 
#
# 1 0.038831 -0.013067 -0.007537 0.000000 0.000000 0.000000
# 2 -0.013067 0.015660 -0.003596 0.000000 0.000000 0.000000
# 3 -0.007537 -0.003596 0.017078 0.000000 0.000000 0.000000
# 4 0.000000 0.000000 0.000000 0.040052 0.000000 0.000000
# 5 0.000000 0.000000 0.000000 0.000000 0.031478 0.000000
# 6 0.000000 0.000000 0.000000 0.000000 0.000000 0.028606
#
#
# Mechanical properties :
#
#
# Convention : Reuss Voigt Hill
#
# Bulk Modulus (GPa) = 43.16063 53.91044 48.53554
# Shear Modulus (GPa) = 21.94649 26.34547 24.14598
#
# Velocity S-wave (km/s) = 3.44955 3.77948 3.61828
# Velocity P-wave (km/s) = 6.26638 6.94811 6.61603
#
# Compressibility (1/GPa) = 0.02316926
#
# Stress axis : x y z
#
# Youngs Moduli (GPa) = 25.75240 63.85831 58.55639
#
# Poissons Ratio (x) = 0.83443 0.44134
# Poissons Ratio (y) = 0.33650 0.21055
# Poissons Ratio (z) = 0.19410 0.22962
#
# Static dielectric constant tensor:
#      x y z
#    x 3.377640 0.000000 0.000000 
#    y 0.000000 3.492870 0.000000 
#    z 0.000000 0.000000 3.288180 
# 
# 
# High freq. dielectric constant tensor:
#      x y z
#    x 1.721610 0.000000 0.000000 
#    y 0.000000 1.724350 0.000000 
#    z 0.000000 0.000000 1.694190 
# 
# From -- ./inp_files/50906.got.cif
#   From: 2010.06.25/outbox.cif.g09.slc.cpg/sg71_26_cif.got.tgz:50906.got - 2010.06.28 04:59:45.
