data_PCOD8289403
_publ_section_title
;
Structure prediction by ZEFSAII (Michael W. Deem and Ramdas Pophale) SiO2 
 PCOD8289403
Probable space group: I M M M
;
_chemical_formula_sum "Si O2"
_cell_formula_units_Z 88
_cell_length_a 17.835928
_cell_length_b 9.100674
_cell_length_c 29.252112
_cell_angle_alpha 90.000000
_cell_angle_beta 90.000000
_cell_angle_gamma 90.000000
_cell_volume 4748.172579
_symmetry_space_group_name_H-M "I M M M"
_symmetry_group_IT_number 71
_symmetry_cell_setting 'orthorhombic'
loop_
_space_group_symop_operation_xyz
x,y,z
-x,-y,z
x,-y,-z
-x,y,-z
-x,-y,-z
x,y,-z
-x,y,z
x,-y,z
1/2+x,1/2+y,1/2+z
1/2-x,1/2-y,1/2+z
1/2+x,1/2-y,1/2-z
1/2-x,1/2+y,1/2-z
1/2-x,1/2-y,1/2-z
1/2+x,1/2+y,1/2-z
1/2-x,1/2+y,1/2+z
1/2+x,1/2-y,1/2+z
loop_
_atom_site_type_symbol
_atom_site_label
_atom_site_fract_x
_atom_site_fract_y
_atom_site_fract_z
Si Si1 0.209637 0.829218 0.052768
Si Si2 0.089100 0.338719 0.206582
Si Si3 0.916176 0.325355 0.303695
Si Si4 0.500000 0.330373 0.053895
Si Si5 0.414861 0.824848 0.392086
Si Si6 0.638411 0.173596 0.899592
O O1 0.137249 0.740935 0.068963
O O2 0.281912 0.775446 0.080872
O O3 0.194234 0.000000 0.061012
O O4 0.224294 0.793448 0.000000
O O5 0.126062 0.500000 0.205332
O O6 0.113857 0.259265 0.254596
O O7 0.110056 0.260364 0.158299
O O8 0.000000 0.354082 0.208442
O O9 0.918682 0.500000 0.298094
O O10 0.863326 0.279938 0.345983
O O11 0.000000 0.266857 0.314621
O O12 0.500000 0.500000 0.068439
O O13 0.426116 0.254614 0.073080
O O14 0.500000 0.310046 0.000000
O O15 0.500000 0.777212 0.403192
O O16 0.408369 0.000000 0.391733
O O17 0.625660 0.000000 0.905755
#
# Coordination Sequence:
#
# PCOD8289403 Si02
#       6
#    16  16  16   8  16  16
#     4  10  22  37  51  71 102 137 170 213 267 308
#     4   7  11  22  44  75 104 125 155 200 246 297
#     4   8  12  22  46  78 102 125 164 207 243 284
#     4  11  23  35  49  73 105 139 175 217 264 303
#     4   9  18  34  56  79 100 128 168 209 252 310
#     4  10  19  34  55  77 100 133 179 217 247 296
#
# _framework density 18.533446999999999
#
# number of rings (size 3 to 8) (size 9 to 14) (size 15 to 20)
#    0.000    3.000    0.909    3.000    0.000    3.273 
#    0.000    2.727    0.000    1.091    0.000    0.000 
#    0.000    0.000    0.000    0.000    0.000    0.000 
#
# Total GULP energy -545080.257159 kJ/mol
# GULP energy per Si atom -12388.187663 kJ/mol
# Density = 1.849126 g / cm^3
# Si number density = 18.533447 Si / 1000 Ang^3
#
#
#
# Elastic Constant Matrix: (Units=GPa)
#
#
# Indices 1 2 3 4 5 6 
#
# 1 95.5500 27.1428 48.8870 0.0000 0.0000 0.0000
# 2 27.1428 28.4059 20.2054 0.0000 0.0000 0.0000
# 3 48.8870 20.2054 97.6552 0.0000 0.0000 0.0000
# 4 0.0000 0.0000 0.0000 17.3378 0.0000 0.0000
# 5 0.0000 0.0000 0.0000 0.0000 28.6686 0.0000
# 6 0.0000 0.0000 0.0000 0.0000 0.0000 17.4491
#
#
#
# Elastic Compliance Matrix: (Units=1/GPa)
#
#
# Indices 1 2 3 4 5 6 
#
# 1 0.016918 -0.011892 -0.006009 0.000000 0.000000 0.000000
# 2 -0.011892 0.049638 -0.004317 0.000000 0.000000 0.000000
# 3 -0.006009 -0.004317 0.014141 0.000000 0.000000 0.000000
# 4 0.000000 0.000000 0.000000 0.057678 0.000000 0.000000
# 5 0.000000 0.000000 0.000000 0.000000 0.034881 0.000000
# 6 0.000000 0.000000 0.000000 0.000000 0.000000 0.057310
#
#
# Mechanical properties :
#
#
# Convention : Reuss Voigt Hill
#
# Bulk Modulus (GPa) = 27.57730 46.00905 36.79318
# Shear Modulus (GPa) = 17.41621 21.04947 19.23284
#
# Velocity S-wave (km/s) = 3.06881 3.37375 3.22489
# Velocity P-wave (km/s) = 5.24107 6.32891 5.81050
#
# Compressibility (1/GPa) = 0.03626171
#
# Stress axis : x y z
#
# Youngs Moduli (GPa) = 59.10800 20.14597 70.71389
#
# Poissons Ratio (x) = 0.23957 0.42492
# Poissons Ratio (y) = 0.70289 0.30529
# Poissons Ratio (z) = 0.35518 0.08697
#
# Static dielectric constant tensor:
#      x y z
#    x 3.219920 0.000000 0.000000 
#    y 0.000000 2.957750 0.000000 
#    z 0.000000 0.000000 3.983940 
# 
# 
# High freq. dielectric constant tensor:
#      x y z
#    x 1.692600 0.000000 0.000000 
#    y 0.000000 1.667900 0.000000 
#    z 0.000000 0.000000 1.748120 
# 
# From -- ./inp_files/8848.got.cif
#   From: 2010.06.25/outbox.cif.g09.slc.cpg/sg71_5_cif.got.tgz:8848.got - 2010.06.28 04:59:45.
