data_PCOD8289146
_publ_section_title
;
Structure prediction by ZEFSAII (Michael W. Deem and Ramdas Pophale) SiO2 
 PCOD8289146
Probable space group: I M M M
;
_chemical_formula_sum "Si O2"
_cell_formula_units_Z 80
_cell_length_a 18.117609
_cell_length_b 12.881776
_cell_length_c 19.089227
_cell_angle_alpha 90.000000
_cell_angle_beta 90.000000
_cell_angle_gamma 90.000000
_cell_volume 4455.177055
_symmetry_space_group_name_H-M "I M M M"
_symmetry_group_IT_number 71
_symmetry_cell_setting 'orthorhombic'
loop_
_space_group_symop_operation_xyz
x,y,z
-x,-y,z
x,-y,-z
-x,y,-z
-x,-y,-z
x,y,-z
-x,y,z
x,-y,z
1/2+x,1/2+y,1/2+z
1/2-x,1/2-y,1/2+z
1/2+x,1/2-y,1/2-z
1/2-x,1/2+y,1/2-z
1/2-x,1/2-y,1/2-z
1/2+x,1/2+y,1/2-z
1/2-x,1/2+y,1/2+z
1/2+x,1/2-y,1/2+z
loop_
_atom_site_type_symbol
_atom_site_label
_atom_site_fract_x
_atom_site_fract_y
_atom_site_fract_z
Si Si1 0.585959 0.289010 0.080338
Si Si2 0.913363 0.615100 0.921341
Si Si3 0.186602 0.248195 0.831982
Si Si4 0.701822 0.882703 0.080082
Si Si5 0.677492 0.619373 0.799307
O O1 0.500000 0.277101 0.098849
O O2 0.625162 0.178131 0.091415
O O3 0.624313 0.370125 0.133062
O O4 0.596440 0.328078 0.000000
O O5 0.892800 0.500000 0.892582
O O6 0.880731 0.707477 0.875765
O O7 0.000000 0.630462 0.920981
O O8 0.882231 0.625789 0.000000
O O9 0.232388 0.162062 0.873653
O O10 0.238839 0.346188 0.815240
O O11 0.150512 0.193971 0.763796
O O12 0.686306 0.000000 0.103672
O O13 0.727935 0.875711 0.000000
O O14 0.677036 0.500000 0.775778
#
# Coordination Sequence:
#
# PCOD8289146 Si02
#       5
#    16  16  16  16  16
#     4   9  19  35  52  72  99 130 168 213 255 296
#     4   9  18  33  54  79 104 131 164 202 246 294
#     4  10  19  33  52  73 103 132 163 206 249 294
#     4   9  17  30  51  77 101 129 164 199 242 296
#     4  10  21  34  50  73  99 132 170 206 250 300
#
# _framework density 17.956638000000002
#
# number of rings (size 3 to 8) (size 9 to 14) (size 15 to 20)
#    0.000    2.600    0.000    2.400    0.000    2.800 
#    0.000    4.000    0.000    1.800    0.000    7.000 
#    0.000    0.000    0.000    0.000    0.000    0.000 
#
# Total GULP energy -495915.677323 kJ/mol
# GULP energy per Si atom -12397.891933 kJ/mol
# Density = 1.791577 g / cm^3
# Si number density = 17.956638 Si / 1000 Ang^3
#
#
#
# Elastic Constant Matrix: (Units=GPa)
#
#
# Indices 1 2 3 4 5 6 
#
# 1 61.5337 42.2880 46.6596 0.0000 0.0000 0.0000
# 2 42.2880 101.2097 47.6501 0.0000 0.0000 0.0000
# 3 46.6596 47.6501 95.4160 0.0000 0.0000 0.0000
# 4 0.0000 0.0000 0.0000 24.3866 0.0000 0.0000
# 5 0.0000 0.0000 0.0000 0.0000 26.4687 0.0000
# 6 0.0000 0.0000 0.0000 0.0000 0.0000 20.3531
#
#
#
# Elastic Compliance Matrix: (Units=1/GPa)
#
#
# Indices 1 2 3 4 5 6 
#
# 1 0.029360 -0.007201 -0.010761 0.000000 0.000000 0.000000
# 2 -0.007201 0.014684 -0.003812 0.000000 0.000000 0.000000
# 3 -0.010761 -0.003812 0.017646 0.000000 0.000000 0.000000
# 4 0.000000 0.000000 0.000000 0.041006 0.000000 0.000000
# 5 0.000000 0.000000 0.000000 0.000000 0.037780 0.000000
# 6 0.000000 0.000000 0.000000 0.000000 0.000000 0.049132
#
#
# Mechanical properties :
#
#
# Convention : Reuss Voigt Hill
#
# Bulk Modulus (GPa) = 55.11953 59.03943 57.07948
# Shear Modulus (GPa) = 20.90264 22.34581 21.62423
#
# Velocity S-wave (km/s) = 3.41554 3.53148 3.47399
# Velocity P-wave (km/s) = 6.80566 7.04122 6.92444
#
# Compressibility (1/GPa) = 0.01814239
#
# Stress axis : x y z
#
# Youngs Moduli (GPa) = 34.05999 68.10258 56.66899
#
# Poissons Ratio (x) = 0.49040 0.60983
# Poissons Ratio (y) = 0.24526 0.21600
# Poissons Ratio (z) = 0.36653 0.25958
#
# Static dielectric constant tensor:
#      x y z
#    x 3.093540 0.000000 0.000000 
#    y 0.000000 3.241070 0.000000 
#    z 0.000000 0.000000 3.511130 
# 
# 
# High freq. dielectric constant tensor:
#      x y z
#    x 1.678340 0.000000 0.000000 
#    y 0.000000 1.693210 0.000000 
#    z 0.000000 0.000000 1.702750 
# 
# From -- ./inp_files/44615.got.cif
#   From: 2010.06.25/outbox.cif.g09.slc.cpg/sg71_23_cif.got.tgz:44615.got - 2010.06.28 04:59:45.
