data_PCOD8289576
_publ_section_title
;
Structure prediction by ZEFSAII (Michael W. Deem and Ramdas Pophale) SiO2 
 PCOD8289576
Probable space group: I M M M
;
_chemical_formula_sum "Si O2"
_cell_formula_units_Z 64
_cell_length_a 22.338748
_cell_length_b 8.752324
_cell_length_c 16.596148
_cell_angle_alpha 90.000000
_cell_angle_beta 90.000000
_cell_angle_gamma 90.000000
_cell_volume 3244.811813
_symmetry_space_group_name_H-M "I M M M"
_symmetry_group_IT_number 71
_symmetry_cell_setting 'orthorhombic'
loop_
_space_group_symop_operation_xyz
x,y,z
-x,-y,z
x,-y,-z
-x,y,-z
-x,-y,-z
x,y,-z
-x,y,z
x,-y,z
1/2+x,1/2+y,1/2+z
1/2-x,1/2-y,1/2+z
1/2+x,1/2-y,1/2-z
1/2-x,1/2+y,1/2-z
1/2-x,1/2-y,1/2-z
1/2+x,1/2+y,1/2-z
1/2-x,1/2+y,1/2+z
1/2+x,1/2-y,1/2+z
loop_
_atom_site_type_symbol
_atom_site_label
_atom_site_fract_x
_atom_site_fract_y
_atom_site_fract_z
Si Si1 0.144964 0.181343 0.351594
Si Si2 0.385602 0.320542 0.326187
Si Si3 0.273518 0.174757 0.594947
Si Si4 0.000000 0.680492 0.090982
Si Si5 0.067640 0.817482 0.500000
O O1 0.121925 0.238736 0.265218
O O2 0.212820 0.238546 0.364609
O O3 0.101219 0.246730 0.420741
O O4 0.145175 0.000000 0.356801
O O5 0.397466 0.500000 0.328884
O O6 0.326887 0.282755 0.377128
O O7 0.441639 0.235927 0.363440
O O8 0.265494 0.186402 0.500000
O O9 0.286911 0.000000 0.620745
O O10 0.000000 0.500000 0.089365
O O11 0.000000 0.745806 0.000000
O O12 0.000000 0.754489 0.500000
O O13 0.068014 0.000000 0.500000
#
# Coordination Sequence:
#
# PCOD8289576 Si02
#       5
#    16  16  16   8   8
#     4   9  18  33  53  84 117 149 189 232 278 331
#     4  11  23  36  57  88 118 144 182 239 294 335
#     4  10  19  35  58  82 113 154 197 232 271 332
#     4  11  25  45  63  80 107 150 196 229 273 341
#     4   9  16  28  52  82 114 149 188 233 274 322
#
# _framework density 19.723794999999999
#
# number of rings (size 3 to 8) (size 9 to 14) (size 15 to 20)
#    0.000    2.000    1.250    2.625    1.750    4.500 
#    0.000    1.250    0.000    0.000    0.000    0.875 
#    0.000    0.000    0.000    0.000    0.000    0.000 
#
# Total GULP energy -396878.341477 kJ/mol
# GULP energy per Si atom -12402.448171 kJ/mol
# Density = 1.967890 g / cm^3
# Si number density = 19.723795 Si / 1000 Ang^3
#
#
#
# Elastic Constant Matrix: (Units=GPa)
#
#
# Indices 1 2 3 4 5 6 
#
# 1 176.3738 23.0896 78.4869 0.0000 0.0000 0.0000
# 2 23.0896 33.7499 29.0629 0.0000 0.0000 0.0000
# 3 78.4869 29.0629 139.6462 0.0000 0.0000 0.0000
# 4 0.0000 0.0000 0.0000 20.4611 0.0000 0.0000
# 5 0.0000 0.0000 0.0000 0.0000 38.9458 0.0000
# 6 0.0000 0.0000 0.0000 0.0000 0.0000 133.3361
#
#
#
# Elastic Compliance Matrix: (Units=1/GPa)
#
#
# Indices 1 2 3 4 5 6 
#
# 1 0.007656 -0.001867 -0.003915 0.000000 0.000000 0.000000
# 2 -0.001867 0.036555 -0.006558 0.000000 0.000000 0.000000
# 3 -0.003915 -0.006558 0.010726 0.000000 0.000000 0.000000
# 4 0.000000 0.000000 0.000000 0.048873 0.000000 0.000000
# 5 0.000000 0.000000 0.000000 0.000000 0.025677 0.000000
# 6 0.000000 0.000000 0.000000 0.000000 0.000000 0.007500
#
#
# Mechanical properties :
#
#
# Convention : Reuss Voigt Hill
#
# Bulk Modulus (GPa) = 33.05020 67.89429 50.47225
# Shear Modulus (GPa) = 29.11177 53.15730 41.13454
#
# Velocity S-wave (km/s) = 3.84601 5.19705 4.57171
# Velocity P-wave (km/s) = 6.04278 8.39701 7.31522
#
# Compressibility (1/GPa) = 0.03025700
#
# Stress axis : x y z
#
# Youngs Moduli (GPa) = 130.61370 27.35637 93.23139
#
# Poissons Ratio (x) = 0.05107 0.36496
# Poissons Ratio (y) = 0.24385 0.61145
# Poissons Ratio (z) = 0.51129 0.17941
#
# Static dielectric constant tensor:
#      x y z
#    x 4.177990 0.000000 0.000000 
#    y 0.000000 3.230700 0.000000 
#    z 0.000000 0.000000 3.895000 
# 
# 
# High freq. dielectric constant tensor:
#      x y z
#    x 1.785270 0.000000 0.000000 
#    y 0.000000 1.726990 0.000000 
#    z 0.000000 0.000000 1.786380 
# 
# From -- ./inp_files/5510.got.cif
#   From: 2010.06.25/outbox.cif.g09.slc.cpg/sg71_3_cif.got.tgz:5510.got - 2010.06.28 04:59:45.
