data_PCOD8289456
_publ_section_title
;
Structure prediction by ZEFSAII (Michael W. Deem and Ramdas Pophale) SiO2 
 PCOD8289456
Probable space group: I M M M
;
_chemical_formula_sum "Si O2"
_cell_formula_units_Z 104
_cell_length_a 26.058850
_cell_length_b 8.373761
_cell_length_c 21.992788
_cell_angle_alpha 90.000000
_cell_angle_beta 90.000000
_cell_angle_gamma 90.000000
_cell_volume 4799.059066
_symmetry_space_group_name_H-M "I M M M"
_symmetry_group_IT_number 71
_symmetry_cell_setting 'orthorhombic'
loop_
_space_group_symop_operation_xyz
x,y,z
-x,-y,z
x,-y,-z
-x,y,-z
-x,-y,-z
x,y,-z
-x,y,z
x,-y,z
1/2+x,1/2+y,1/2+z
1/2-x,1/2-y,1/2+z
1/2+x,1/2-y,1/2-z
1/2-x,1/2+y,1/2-z
1/2-x,1/2-y,1/2-z
1/2+x,1/2+y,1/2-z
1/2-x,1/2+y,1/2+z
1/2+x,1/2-y,1/2+z
loop_
_atom_site_type_symbol
_atom_site_label
_atom_site_fract_x
_atom_site_fract_y
_atom_site_fract_z
Si Si1 0.256874 0.313273 0.068138
Si Si2 0.390792 0.320694 0.434066
Si Si3 0.000000 0.177132 0.101780
Si Si4 0.890946 0.814271 0.269131
Si Si5 0.557181 0.811071 0.000000
Si Si6 0.500000 0.183241 0.273497
Si Si7 0.634644 0.185216 0.102043
Si Si8 0.326650 0.181448 0.338517
O O1 0.245434 0.500000 0.067224
O O2 0.315641 0.284403 0.083817
O O3 0.221536 0.241345 0.123387
O O4 0.244713 0.243380 0.000000
O O5 0.365822 0.288438 0.500000
O O6 0.376364 0.500000 0.411182
O O7 0.451467 0.302783 0.441491
O O8 0.372905 0.187952 0.386598
O O9 0.000000 0.310029 0.154045
O O10 0.000000 0.000000 0.132751
O O11 0.948132 0.769551 0.248436
O O12 0.879186 0.711409 0.328307
O O13 0.845321 0.778926 0.220521
O O14 0.888746 0.000000 0.284945
O O15 0.587534 0.754443 0.939802
O O16 0.500000 0.734287 0.000000
O O17 0.552024 0.000000 0.000000
O O18 0.500000 0.000000 0.251189
O O19 0.646276 0.000000 0.089956
O O20 0.315882 0.000000 0.318189
#
# Coordination Sequence:
#
# PCOD8289456 Si02
#       8
#    16  16   8  16   8   8  16  16
#     4  10  22  42  67  94 131 174 214 268 330 384
#     4  10  20  34  54  83 120 163 211 267 327 386
#     4  10  19  34  56  82 118 164 207 260 325 387
#     4  12  26  44  65  94 131 173 215 267 328 390
#     4   9  20  40  67 103 139 167 202 257 320 379
#     4  12  24  41  65  92 126 171 217 268 322 386
#     4  11  23  42  70 102 132 169 213 262 317 388
#     4  11  23  40  62  90 124 169 222 274 325 380
#
# _framework density 21.670915000000001
#
# number of rings (size 3 to 8) (size 9 to 14) (size 15 to 20)
#    0.000    1.308    2.308    3.692    1.077    3.692 
#    0.000    0.000    0.000    3.231    0.000    0.000 
#    0.000    0.000    0.000    0.000    0.000    0.000 
#
# Total GULP energy -644483.181545 kJ/mol
# GULP energy per Si atom -12393.907337 kJ/mol
# Density = 2.162159 g / cm^3
# Si number density = 21.670915 Si / 1000 Ang^3
#
#
#
# Elastic Constant Matrix: (Units=GPa)
#
#
# Indices 1 2 3 4 5 6 
#
# 1 138.5315 8.5270 52.8527 0.0000 0.0000 0.0000
# 2 8.5270 41.9682 2.5555 0.0000 0.0000 0.0000
# 3 52.8527 2.5555 135.9021 0.0000 0.0000 0.0000
# 4 0.0000 0.0000 0.0000 20.6094 0.0000 0.0000
# 5 0.0000 0.0000 0.0000 0.0000 -152.4019 0.0000
# 6 0.0000 0.0000 0.0000 0.0000 0.0000 27.2680
#
#
#
# Elastic Compliance Matrix: (Units=1/GPa)
#
#
# Indices 1 2 3 4 5 6 
#
# 1 0.008575 -0.001541 -0.003306 0.000000 0.000000 0.000000
# 2 -0.001541 0.024132 0.000145 0.000000 0.000000 0.000000
# 3 -0.003306 0.000145 0.008641 0.000000 0.000000 0.000000
# 4 0.000000 0.000000 0.000000 0.048522 0.000000 0.000000
# 5 0.000000 0.000000 0.000000 0.000000 -0.006562 0.000000
# 6 0.000000 0.000000 0.000000 0.000000 0.000000 0.036673
#
#
# Mechanical properties :
#
#
# Convention : Reuss Voigt Hill
#
# Bulk Modulus (GPa) = 31.30356 49.36359 40.33357
# Shear Modulus (GPa) = 35.70631 -4.07381 15.81625
#
# Velocity S-wave (km/s) = 4.06354 -1.37256 2.70448
# Velocity P-wave (km/s) = 6.04093 4.50736 5.32959
#
# Compressibility (1/GPa) = 0.03194525
#
# Stress axis : x y z
#
# Youngs Moduli (GPa) = 116.62325 41.43916 115.72595
#
# Poissons Ratio (x) = 0.06385 0.38256
# Poissons Ratio (y) = 0.17970 -0.01683
# Poissons Ratio (z) = 0.38552 -0.00603
#
# Static dielectric constant tensor:
#      x y z
#    x 4.051600 0.000000 0.000000 
#    y 0.000000 3.702300 0.000000 
#    z 0.000000 0.000000 3.984440 
# 
# 
# High freq. dielectric constant tensor:
#      x y z
#    x 1.858080 0.000000 0.000000 
#    y 0.000000 1.830920 0.000000 
#    z 0.000000 0.000000 1.856680 
# 
# From -- ./inp_files/56315.got.cif
#   From: 2010.06.25/outbox.cif.g09.slc.cpg/sg71_29_cif.got.tgz:56315.got - 2010.06.28 04:59:45.
