data_PCOD8289762
_publ_section_title
;
Structure prediction by ZEFSAII (Michael W. Deem and Ramdas Pophale) SiO2 
 PCOD8289762
Probable space group: I M M M
;
_chemical_formula_sum "Si O2"
_cell_formula_units_Z 88
_cell_length_a 9.630500
_cell_length_b 15.123869
_cell_length_c 34.196819
_cell_angle_alpha 90.000000
_cell_angle_beta 90.000000
_cell_angle_gamma 90.000000
_cell_volume 4980.781064
_symmetry_space_group_name_H-M "I M M M"
_symmetry_group_IT_number 71
_symmetry_cell_setting 'orthorhombic'
loop_
_space_group_symop_operation_xyz
x,y,z
-x,-y,z
x,-y,-z
-x,y,-z
-x,-y,-z
x,y,-z
-x,y,z
x,-y,z
1/2+x,1/2+y,1/2+z
1/2-x,1/2-y,1/2+z
1/2+x,1/2-y,1/2-z
1/2-x,1/2+y,1/2-z
1/2-x,1/2-y,1/2-z
1/2+x,1/2+y,1/2-z
1/2-x,1/2+y,1/2+z
1/2+x,1/2-y,1/2+z
loop_
_atom_site_type_symbol
_atom_site_label
_atom_site_fract_x
_atom_site_fract_y
_atom_site_fract_z
Si Si1 0.665044 0.308308 0.955135
Si Si2 0.845977 0.895003 0.257824
Si Si3 0.840002 0.601073 0.171363
Si Si4 0.834732 0.901606 0.172082
Si Si5 0.149708 0.000000 0.454223
Si Si6 0.337769 0.253756 0.387543
O O1 0.500000 0.303187 0.947567
O O2 0.725146 0.407123 0.944371
O O3 0.748509 0.241426 0.927336
O O4 0.698339 0.283557 0.000000
O O5 0.744867 0.860639 0.291793
O O6 0.786290 0.867600 0.215071
O O7 0.000000 0.855344 0.264920
O O8 0.853712 0.000000 0.258815
O O9 0.798619 0.500000 0.160818
O O10 0.807671 0.661062 0.133939
O O11 0.000000 0.608114 0.183478
O O12 0.782247 0.833983 0.139218
O O13 0.000000 0.904429 0.172922
O O14 0.776113 0.000000 0.162840
O O15 0.120926 0.000000 0.500000
O O16 0.000000 0.000000 0.432803
O O17 0.500000 0.264562 0.397626
#
# Coordination Sequence:
#
# PCOD8289762 Si02
#       6
#    16  16  16  16   8  16
#     4   9  18  33  51  70  94 123 154 189 228 271
#     4   8  14  27  47  66  85 118 163 199 225 261
#     4   9  18  30  41  61  99 133 150 177 228 282
#     4   8  15  30  50  69  90 118 157 204 241 267
#     4   7  12  26  47  67  87 117 153 181 211 257
#     4  10  20  31  47  71  95 123 156 190 234 281
#
# _framework density 17.667912000000001
#
# number of rings (size 3 to 8) (size 9 to 14) (size 15 to 20)
#    0.000    3.364    0.000    2.182    1.273    1.818 
#    0.000    0.909    0.000    3.818    0.000    3.818 
#    0.000    0.000    0.000    0.000    0.000    0.000 
#
# Total GULP energy -545168.509402 kJ/mol
# GULP energy per Si atom -12390.193395 kJ/mol
# Density = 1.762770 g / cm^3
# Si number density = 17.667912 Si / 1000 Ang^3
#
#
#
# Elastic Constant Matrix: (Units=GPa)
#
#
# Indices 1 2 3 4 5 6 
#
# 1 48.3582 23.0222 51.3027 0.0000 0.0000 0.0000
# 2 23.0222 54.7002 37.9445 0.0000 0.0000 0.0000
# 3 51.3027 37.9445 115.7074 0.0000 0.0000 0.0000
# 4 0.0000 0.0000 0.0000 26.7881 0.0000 0.0000
# 5 0.0000 0.0000 0.0000 0.0000 33.8572 0.0000
# 6 0.0000 0.0000 0.0000 0.0000 0.0000 8.3081
#
#
#
# Elastic Compliance Matrix: (Units=1/GPa)
#
#
# Indices 1 2 3 4 5 6 
#
# 1 0.040482 -0.005938 -0.016002 0.000000 0.000000 0.000000
# 2 -0.005938 0.024536 -0.005413 0.000000 0.000000 0.000000
# 3 -0.016002 -0.005413 0.017513 0.000000 0.000000 0.000000
# 4 0.000000 0.000000 0.000000 0.037330 0.000000 0.000000
# 5 0.000000 0.000000 0.000000 0.000000 0.029536 0.000000
# 6 0.000000 0.000000 0.000000 0.000000 0.000000 0.120365
#
#
# Mechanical properties :
#
#
# Convention : Reuss Voigt Hill
#
# Bulk Modulus (GPa) = 35.93987 49.25607 42.59797
# Shear Modulus (GPa) = 14.98165 20.89045 17.93605
#
# Velocity S-wave (km/s) = 2.91513 3.44233 3.18964
# Velocity P-wave (km/s) = 5.63176 6.61353 6.14229
#
# Compressibility (1/GPa) = 0.02782425
#
# Stress axis : x y z
#
# Youngs Moduli (GPa) = 24.70233 40.75685 57.10165
#
# Poissons Ratio (x) = 0.24201 0.91373
# Poissons Ratio (y) = 0.14668 0.30911
# Poissons Ratio (z) = 0.39528 0.22063
#
# Static dielectric constant tensor:
#      x y z
#    x 3.052240 0.000000 0.000000 
#    y 0.000000 3.343660 0.000000 
#    z 0.000000 0.000000 3.245430 
# 
# 
# High freq. dielectric constant tensor:
#      x y z
#    x 1.650950 0.000000 0.000000 
#    y 0.000000 1.663280 0.000000 
#    z 0.000000 0.000000 1.677420 
# 
# From -- ./inp_files/22288.got.cif
#   From: 2010.06.25/outbox.cif.g09.slc.cpg/sg71_12_cif.got.tgz:22288.got - 2010.06.28 04:59:45.
