data_PCOD8289056
_publ_section_title
;
Structure prediction by ZEFSAII (Michael W. Deem and Ramdas Pophale) SiO2 
 PCOD8289056
Probable space group: I M M M
;
_chemical_formula_sum "Si O2"
_cell_formula_units_Z 112
_cell_length_a 14.197445
_cell_length_b 14.953981
_cell_length_c 27.204083
_cell_angle_alpha 90.000000
_cell_angle_beta 90.000000
_cell_angle_gamma 90.000000
_cell_volume 5775.653234
_symmetry_space_group_name_H-M "I M M M"
_symmetry_group_IT_number 71
_symmetry_cell_setting 'orthorhombic'
loop_
_space_group_symop_operation_xyz
x,y,z
-x,-y,z
x,-y,-z
-x,y,-z
-x,-y,-z
x,y,-z
-x,y,z
x,-y,z
1/2+x,1/2+y,1/2+z
1/2-x,1/2-y,1/2+z
1/2+x,1/2-y,1/2-z
1/2-x,1/2+y,1/2-z
1/2-x,1/2-y,1/2-z
1/2+x,1/2+y,1/2-z
1/2-x,1/2+y,1/2+z
1/2+x,1/2-y,1/2+z
loop_
_atom_site_type_symbol
_atom_site_label
_atom_site_fract_x
_atom_site_fract_y
_atom_site_fract_z
Si Si1 0.238560 0.401110 0.444624
Si Si2 0.893593 0.758646 0.556757
Si Si3 0.894429 0.638392 0.056231
Si Si4 0.111075 0.239313 0.780053
Si Si5 0.603753 0.683772 0.389668
Si Si6 0.280014 0.403879 0.115234
Si Si7 0.747858 0.393316 0.771323
O O1 0.277166 0.384684 0.500000
O O2 0.197076 0.500000 0.439164
O O3 0.152411 0.336553 0.432412
O O4 0.321298 0.391413 0.404343
O O5 0.886298 0.786084 0.500000
O O6 0.841161 0.831549 0.588186
O O7 0.000000 0.752707 0.574986
O O8 0.889743 0.743778 0.066910
O O9 0.824267 0.587465 0.092343
O O10 0.000000 0.601829 0.065615
O O11 0.863700 0.622318 0.000000
O O12 0.127050 0.232734 0.838548
O O13 0.159092 0.331941 0.760296
O O14 0.159381 0.150061 0.757465
O O15 0.000000 0.241142 0.766436
O O16 0.500000 0.639807 0.387286
O O17 0.329609 0.500000 0.108562
O O18 0.274753 0.380438 0.171957
O O19 0.762102 0.500000 0.757862
#
# Coordination Sequence:
#
# PCOD8289056 Si02
#       7
#    16  16  16  16  16  16  16
#     4  10  20  34  54  80 110 146 188 233 285 344
#     4  10  21  37  55  75 104 144 191 242 290 334
#     4  10  19  32  54  85 120 154 186 221 267 331
#     4  10  21  39  62  86 114 150 193 239 289 346
#     4  10  19  34  57  84 115 151 185 223 278 342
#     4  11  22  37  58  83 114 152 190 230 282 341
#     4  10  22  39  60  87 116 149 192 241 290 345
#
# _framework density 19.391746999999999
#
# number of rings (size 3 to 8) (size 9 to 14) (size 15 to 20)
#    0.000    1.857    2.857    0.857    0.000    4.857 
#    0.000    7.857    0.000    0.000    0.000    4.000 
#    0.000    0.000    0.000    0.000    0.000    0.000 
#
# Total GULP energy -694154.998746 kJ/mol
# GULP energy per Si atom -12395.624978 kJ/mol
# Density = 1.934761 g / cm^3
# Si number density = 19.391747 Si / 1000 Ang^3
#
#
#
# Elastic Constant Matrix: (Units=GPa)
#
#
# Indices 1 2 3 4 5 6 
#
# 1 120.4818 61.0052 35.6166 0.0000 0.0000 0.0000
# 2 61.0052 133.8718 30.4988 0.0000 0.0000 0.0000
# 3 35.6166 30.4988 58.7392 0.0000 0.0000 0.0000
# 4 0.0000 0.0000 0.0000 17.4300 0.0000 0.0000
# 5 0.0000 0.0000 0.0000 0.0000 19.4993 0.0000
# 6 0.0000 0.0000 0.0000 0.0000 0.0000 -47.6588
#
#
#
# Elastic Compliance Matrix: (Units=1/GPa)
#
#
# Indices 1 2 3 4 5 6 
#
# 1 0.011965 -0.004309 -0.005018 0.000000 0.000000 0.000000
# 2 -0.004309 0.010024 -0.002592 0.000000 0.000000 0.000000
# 3 -0.005018 -0.002592 0.021413 0.000000 0.000000 0.000000
# 4 0.000000 0.000000 0.000000 0.057372 0.000000 0.000000
# 5 0.000000 0.000000 0.000000 0.000000 0.051284 0.000000
# 6 0.000000 0.000000 0.000000 0.000000 0.000000 -0.020982
#
#
# Mechanical properties :
#
#
# Convention : Reuss Voigt Hill
#
# Bulk Modulus (GPa) = 51.11327 63.03711 57.07519
# Shear Modulus (GPa) = 30.97220 10.25224 20.61222
#
# Velocity S-wave (km/s) = 4.00082 2.30182 3.26381
# Velocity P-wave (km/s) = 6.91068 6.29621 6.61059
#
# Compressibility (1/GPa) = 0.01956439
#
# Stress axis : x y z
#
# Youngs Moduli (GPa) = 83.57433 99.75965 46.70157
#
# Poissons Ratio (x) = 0.42991 0.23433
# Poissons Ratio (y) = 0.36016 0.12104
# Poissons Ratio (z) = 0.41935 0.25855
#
# Static dielectric constant tensor:
#      x y z
#    x 3.644690 0.000000 0.000000 
#    y 0.000000 3.604430 0.000000 
#    z 0.000000 0.000000 3.519020 
# 
# 
# High freq. dielectric constant tensor:
#      x y z
#    x 1.750190 0.000000 0.000000 
#    y 0.000000 1.755830 0.000000 
#    z 0.000000 0.000000 1.749740 
# 
# From -- ./inp_files/34903.got.cif
#   From: 2010.06.25/outbox.cif.g09.slc.cpg/sg71_18_cif.got.tgz:34903.got - 2010.06.28 04:59:45.
