data_PCOD8289211
_publ_section_title
;
Structure prediction by ZEFSAII (Michael W. Deem and Ramdas Pophale) SiO2 
 PCOD8289211
Probable space group: I M M M
;
_chemical_formula_sum "Si O2"
_cell_formula_units_Z 80
_cell_length_a 22.459131
_cell_length_b 17.699447
_cell_length_c 11.646582
_cell_angle_alpha 90.000000
_cell_angle_beta 90.000000
_cell_angle_gamma 90.000000
_cell_volume 4629.681712
_symmetry_space_group_name_H-M "I M M M"
_symmetry_group_IT_number 71
_symmetry_cell_setting 'orthorhombic'
loop_
_space_group_symop_operation_xyz
x,y,z
-x,-y,z
x,-y,-z
-x,y,-z
-x,-y,-z
x,y,-z
-x,y,z
x,-y,z
1/2+x,1/2+y,1/2+z
1/2-x,1/2-y,1/2+z
1/2+x,1/2-y,1/2-z
1/2-x,1/2+y,1/2-z
1/2-x,1/2-y,1/2-z
1/2+x,1/2+y,1/2-z
1/2-x,1/2+y,1/2+z
1/2+x,1/2-y,1/2+z
loop_
_atom_site_type_symbol
_atom_site_label
_atom_site_fract_x
_atom_site_fract_y
_atom_site_fract_z
Si Si1 0.429606 0.323021 0.000000
Si Si2 0.068587 0.291803 0.867579
Si Si3 0.069487 0.655924 0.500000
Si Si4 0.877917 0.583141 0.277809
Si Si5 0.773754 0.500000 0.636798
Si Si6 0.930611 0.865469 0.747657
Si Si7 0.637807 0.500000 0.635970
O O1 0.410427 0.368507 0.885780
O O2 0.500000 0.313693 0.000000
O O3 0.400449 0.239331 0.000000
O O4 0.111952 0.359029 0.826539
O O5 0.083597 0.217316 0.795748
O O6 0.000000 0.315835 0.847946
O O7 0.081871 0.274915 0.000000
O O8 0.086563 0.610400 0.612043
O O9 0.000000 0.667667 0.500000
O O10 0.902651 0.500000 0.242222
O O11 0.807697 0.574447 0.312083
O O12 0.779051 0.500000 0.500000
O O13 0.705958 0.500000 0.677810
O O14 0.000000 0.885267 0.762767
O O15 0.893053 0.925506 0.817258
O O16 0.632581 0.500000 0.500000
#
# Coordination Sequence:
#
# PCOD8289211 Si02
#       7
#     8  16   8  16   8  16   8
#     4   9  18  32  56  86 117 139 161 215 281 326
#     4  10  20  33  52  81 118 149 175 214 271 331
#     4  11  17  28  54  88 112 137 175 220 274 321
#     4  10  19  33  53  77 111 147 182 226 260 312
#     4   9  20  39  54  77 104 144 188 233 268 296
#     4  10  20  36  59  87 112 136 172 223 276 328
#     4  11  23  39  61  78 105 144 184 222 268 327
#
# _framework density 17.279806000000001
#
# number of rings (size 3 to 8) (size 9 to 14) (size 15 to 20)
#    0.600    1.400    3.000    1.800    0.000    4.400 
#    0.000    3.500    4.400    0.000    0.000    0.000 
#    0.000    0.000    0.000    0.000    0.000    0.000 
#
# Total GULP energy -495819.923005 kJ/mol
# GULP energy per Si atom -12395.498075 kJ/mol
# Density = 1.724048 g / cm^3
# Si number density = 17.279806 Si / 1000 Ang^3
#
#
#
# Elastic Constant Matrix: (Units=GPa)
#
#
# Indices 1 2 3 4 5 6 
#
# 1 86.1212 50.9465 40.7407 0.0000 0.0000 0.0000
# 2 50.9465 90.6060 40.4061 0.0000 0.0000 0.0000
# 3 40.7407 40.4061 111.6664 0.0000 0.0000 0.0000
# 4 0.0000 0.0000 0.0000 39.9312 0.0000 0.0000
# 5 0.0000 0.0000 0.0000 0.0000 21.8903 0.0000
# 6 0.0000 0.0000 0.0000 0.0000 0.0000 13.2392
#
#
#
# Elastic Compliance Matrix: (Units=1/GPa)
#
#
# Indices 1 2 3 4 5 6 
#
# 1 0.018516 -0.008822 -0.003563 0.000000 0.000000 0.000000
# 2 -0.008822 0.017364 -0.003064 0.000000 0.000000 0.000000
# 3 -0.003563 -0.003064 0.011364 0.000000 0.000000 0.000000
# 4 0.000000 0.000000 0.000000 0.025043 0.000000 0.000000
# 5 0.000000 0.000000 0.000000 0.000000 0.045682 0.000000
# 6 0.000000 0.000000 0.000000 0.000000 0.000000 0.075533
#
#
# Mechanical properties :
#
#
# Convention : Reuss Voigt Hill
#
# Bulk Modulus (GPa) = 61.18251 61.39780 61.29015
# Shear Modulus (GPa) = 21.75322 25.43215 23.59268
#
# Velocity S-wave (km/s) = 3.55192 3.84055 3.69905
# Velocity P-wave (km/s) = 7.23224 7.43472 7.33418
#
# Compressibility (1/GPa) = 0.01634454
#
# Stress axis : x y z
#
# Youngs Moduli (GPa) = 54.00683 57.59022 87.99677
#
# Poissons Ratio (x) = 0.50808 0.31355
# Poissons Ratio (y) = 0.47647 0.26965
# Poissons Ratio (z) = 0.19243 0.17648
#
# Static dielectric constant tensor:
#      x y z
#    x 3.029980 0.000000 0.000000 
#    y 0.000000 3.244830 0.000000 
#    z 0.000000 0.000000 3.282450 
# 
# 
# High freq. dielectric constant tensor:
#      x y z
#    x 1.632300 0.000000 0.000000 
#    y 0.000000 1.668490 0.000000 
#    z 0.000000 0.000000 1.677040 
# 
# From -- ./inp_files/25595.got.cif
#   From: 2010.06.25/outbox.cif.g09.slc.cpg/sg71_13_cif.got.tgz:25595.got - 2010.06.28 04:59:45.
