data_PCOD8289227
_publ_section_title
;
Structure prediction by ZEFSAII (Michael W. Deem and Ramdas Pophale) SiO2 
 PCOD8289227
Probable space group: I M M M
;
_chemical_formula_sum "Si O2"
_cell_formula_units_Z 104
_cell_length_a 13.922338
_cell_length_b 31.368593
_cell_length_c 13.787834
_cell_angle_alpha 90.000000
_cell_angle_beta 90.000000
_cell_angle_gamma 90.000000
_cell_volume 6021.480144
_symmetry_space_group_name_H-M "I M M M"
_symmetry_group_IT_number 71
_symmetry_cell_setting 'orthorhombic'
loop_
_space_group_symop_operation_xyz
x,y,z
-x,-y,z
x,-y,-z
-x,y,-z
-x,-y,-z
x,y,-z
-x,y,z
x,-y,z
1/2+x,1/2+y,1/2+z
1/2-x,1/2-y,1/2+z
1/2+x,1/2-y,1/2-z
1/2-x,1/2+y,1/2-z
1/2-x,1/2-y,1/2-z
1/2+x,1/2+y,1/2-z
1/2-x,1/2+y,1/2+z
1/2+x,1/2-y,1/2+z
loop_
_atom_site_type_symbol
_atom_site_label
_atom_site_fract_x
_atom_site_fract_y
_atom_site_fract_z
Si Si1 0.614103 0.500000 0.391592
Si Si2 0.112192 0.750677 0.109811
Si Si3 0.798707 0.048730 0.389170
Si Si4 0.222991 0.163478 0.113917
Si Si5 0.389008 0.172966 0.743557
Si Si6 0.606557 0.092462 0.610448
Si Si7 0.112846 0.085654 0.210393
O O1 0.500000 0.500000 0.390417
O O2 0.655284 0.500000 0.500000
O O3 0.651981 0.457450 0.339744
O O4 0.165610 0.793820 0.137767
O O5 0.146142 0.713915 0.182855
O O6 0.000000 0.759654 0.120604
O O7 0.137381 0.736573 0.000000
O O8 0.825721 0.059038 0.500000
O O9 0.684967 0.055801 0.370600
O O10 0.862314 0.080693 0.324190
O O11 0.823589 0.000000 0.363546
O O12 0.329209 0.168383 0.157781
O O13 0.167082 0.125066 0.163978
O O14 0.231821 0.154480 0.000000
O O15 0.500000 0.177135 0.773216
O O16 0.369590 0.132224 0.677569
O O17 0.611480 0.108924 0.500000
O O18 0.500000 0.073969 0.633176
O O19 0.000000 0.092550 0.195371
#
# Coordination Sequence:
#
# PCOD8289227 Si02
#       7
#     8  16  16  16  16  16  16
#     4   9  18  32  51  73  94 125 173 221 257 292
#     4   9  18  33  54  80 105 130 166 212 259 306
#     4  10  20  34  53  78 107 137 169 208 261 321
#     4  11  22  35  52  76 105 138 176 216 257 301
#     4  10  19  33  54  77 104 136 170 210 257 308
#     4   9  17  31  53  79 103 130 168 213 257 302
#     4  11  21  35  53  74 102 136 174 216 261 307
#
# _framework density 17.271502000000002
#
# number of rings (size 3 to 8) (size 9 to 14) (size 15 to 20)
#    0.000    2.077    2.308    1.846    0.000    4.308 
#    0.000    2.308    0.000    0.000    0.000    2.154 
#    0.000    4.923    0.000    0.000    0.000    0.000 
#
# Total GULP energy -644799.419943 kJ/mol
# GULP energy per Si atom -12399.988845 kJ/mol
# Density = 1.723219 g / cm^3
# Si number density = 17.271502 Si / 1000 Ang^3
#
#
#
# Elastic Constant Matrix: (Units=GPa)
#
#
# Indices 1 2 3 4 5 6 
#
# 1 65.8938 40.9561 46.5999 -0.0002 0.0002 0.0000
# 2 40.9561 83.5045 53.1330 -0.0002 0.0001 0.0001
# 3 46.5999 53.1330 105.8981 -0.0010 0.0013 0.0009
# 4 -0.0002 -0.0002 -0.0010 28.1470 0.0002 0.0002
# 5 0.0002 0.0001 0.0013 0.0002 27.0384 -0.0001
# 6 0.0000 0.0001 0.0009 0.0002 -0.0001 23.1930
#
#
#
# Elastic Compliance Matrix: (Units=1/GPa)
#
#
# Indices 1 2 3 4 5 6 
#
# 1 0.025029 -0.007738 -0.007131 0.000000 0.000000 0.000000
# 2 -0.007738 0.019984 -0.006622 0.000000 0.000000 0.000000
# 3 -0.007131 -0.006622 0.015903 0.000000 -0.000001 -0.000001
# 4 0.000000 0.000000 0.000000 0.035528 0.000000 0.000000
# 5 0.000000 0.000000 -0.000001 0.000000 0.036984 0.000000
# 6 0.000000 0.000000 -0.000001 0.000000 0.000000 0.043116
#
#
# Mechanical properties :
#
#
# Convention : Reuss Voigt Hill
#
# Bulk Modulus (GPa) = 55.75963 59.63051 57.69507
# Shear Modulus (GPa) = 22.17248 23.31618 22.74433
#
# Velocity S-wave (km/s) = 3.58685 3.67819 3.63281
# Velocity P-wave (km/s) = 7.03621 7.25528 7.14659
#
# Compressibility (1/GPa) = 0.01793412
#
# Stress axis : x y z
#
# Youngs Moduli (GPa) = 39.95398 50.04017 62.87980
#
# Poissons Ratio (x) = 0.38722 0.44841
# Poissons Ratio (y) = 0.30917 0.41636
# Poissons Ratio (z) = 0.28492 0.33134
#
# Static dielectric constant tensor:
#      x y z
#    x 3.151230 0.000000 0.000000 
#    y 0.000000 3.239860 0.000000 
#    z 0.000000 0.000000 3.254140 
# 
# 
# High freq. dielectric constant tensor:
#      x y z
#    x 1.657640 0.000000 0.000000 
#    y 0.000000 1.668680 0.000000 
#    z 0.000000 0.000000 1.668000 
# 
# From -- ./inp_files/22674.got.cif
#   From: 2010.06.25/outbox.cif.g09.slc.cpg/sg71_12_cif.got.tgz:22674.got - 2010.06.28 04:59:45.
