data_PCOD8289521
_publ_section_title
;
Structure prediction by ZEFSAII (Michael W. Deem and Ramdas Pophale) SiO2 
 PCOD8289521
Probable space group: I M M M
;
_chemical_formula_sum "Si O2"
_cell_formula_units_Z 88
_cell_length_a 13.117825
_cell_length_b 17.704103
_cell_length_c 17.232234
_cell_angle_alpha 90.000000
_cell_angle_beta 90.000000
_cell_angle_gamma 90.000000
_cell_volume 4002.002391
_symmetry_space_group_name_H-M "I M M M"
_symmetry_group_IT_number 71
_symmetry_cell_setting 'orthorhombic'
loop_
_space_group_symop_operation_xyz
x,y,z
-x,-y,z
x,-y,-z
-x,y,-z
-x,-y,-z
x,y,-z
-x,y,z
x,-y,z
1/2+x,1/2+y,1/2+z
1/2-x,1/2-y,1/2+z
1/2+x,1/2-y,1/2-z
1/2-x,1/2+y,1/2-z
1/2-x,1/2-y,1/2-z
1/2+x,1/2+y,1/2-z
1/2-x,1/2+y,1/2+z
1/2+x,1/2-y,1/2+z
loop_
_atom_site_type_symbol
_atom_site_label
_atom_site_fract_x
_atom_site_fract_y
_atom_site_fract_z
Si Si1 0.690572 0.089264 0.160701
Si Si2 0.500000 0.176227 0.854784
Si Si3 0.885597 0.586864 0.828636
Si Si4 0.801336 0.142938 0.586519
Si Si5 0.000000 0.158301 0.336056
Si Si6 0.500000 0.250085 0.305556
Si Si7 0.685206 0.712367 0.410539
O O1 0.595092 0.126166 0.115360
O O2 0.674196 0.111348 0.250521
O O3 0.790891 0.130496 0.126581
O O4 0.699458 0.000000 0.145379
O O5 0.500000 0.262500 0.886063
O O6 0.500000 0.182775 0.759638
O O7 0.911140 0.500000 0.821202
O O8 0.805984 0.601601 0.897291
O O9 0.000000 0.625174 0.844644
O O10 0.832878 0.121085 0.500000
O O11 0.895428 0.115218 0.640747
O O12 0.783839 0.233281 0.595709
O O13 0.000000 0.171046 0.243213
O O14 0.400232 0.245736 0.359170
O O15 0.649167 0.702982 0.500000
#
# Coordination Sequence:
#
# PCOD8289521 Si02
#       7
#    16   8  16  16   8   8  16
#     4  11  21  38  61  89 124 162 208 259 310 369
#     4  10  19  34  62  90 115 149 200 259 311 366
#     4  10  22  39  63  94 127 162 207 260 318 383
#     4  11  23  38  60  89 128 167 203 255 318 383
#     4  10  21  38  63  90 122 159 206 260 311 369
#     4  10  21  36  63  89 117 157 205 275 317 366
#     4  11  23  38  57  90 127 165 215 261 314 380
#
# _framework density 21.988993000000001
#
# number of rings (size 3 to 8) (size 9 to 14) (size 15 to 20)
#    0.545    0.909    2.727    3.000    1.273    3.273 
#    0.000    2.273    0.000    6.545    0.000    0.000 
#    0.000    0.000    0.000    0.000    0.000    0.000 
#
# Total GULP energy -545170.109423 kJ/mol
# GULP energy per Si atom -12390.229760 kJ/mol
# Density = 2.193894 g / cm^3
# Si number density = 21.988993 Si / 1000 Ang^3
#
#
#
# Elastic Constant Matrix: (Units=GPa)
#
#
# Indices 1 2 3 4 5 6 
#
# 1 131.7637 13.5377 45.6469 0.0000 0.0000 0.0000
# 2 13.5377 41.8939 4.2504 0.0000 0.0000 0.0000
# 3 45.6469 4.2504 93.1421 0.0000 0.0000 0.0000
# 4 0.0000 0.0000 0.0000 21.7972 0.0000 0.0000
# 5 0.0000 0.0000 0.0000 0.0000 29.2739 0.0000
# 6 0.0000 0.0000 0.0000 0.0000 0.0000 32.3339
#
#
#
# Elastic Compliance Matrix: (Units=1/GPa)
#
#
# Indices 1 2 3 4 5 6 
#
# 1 0.009412 -0.002585 -0.004495 0.000000 0.000000 0.000000
# 2 -0.002585 0.024691 0.000140 0.000000 0.000000 0.000000
# 3 -0.004495 0.000140 0.012933 0.000000 0.000000 0.000000
# 4 0.000000 0.000000 0.000000 0.045877 0.000000 0.000000
# 5 0.000000 0.000000 0.000000 0.000000 0.034160 0.000000
# 6 0.000000 0.000000 0.000000 0.000000 0.000000 0.030927
#
#
# Mechanical properties :
#
#
# Convention : Reuss Voigt Hill
#
# Bulk Modulus (GPa) = 30.16026 43.74108 36.95067
# Shear Modulus (GPa) = 27.33254 30.23865 28.78559
#
# Velocity S-wave (km/s) = 3.52946 3.71235 3.62206
# Velocity P-wave (km/s) = 5.50956 6.18958 5.85944
#
# Compressibility (1/GPa) = 0.03315621
#
# Stress axis : x y z
#
# Youngs Moduli (GPa) = 106.24663 40.50047 77.32388
#
# Poissons Ratio (x) = 0.10471 0.34755
# Poissons Ratio (y) = 0.27469 -0.01085
# Poissons Ratio (z) = 0.47754 -0.00568
#
# Static dielectric constant tensor:
#      x y z
#    x 3.805100 0.000000 0.000000 
#    y 0.000000 3.727330 0.000000 
#    z 0.000000 0.000000 3.681730 
# 
# 
# High freq. dielectric constant tensor:
#      x y z
#    x 1.867710 0.000000 0.000000 
#    y 0.000000 1.850890 0.000000 
#    z 0.000000 0.000000 1.842980 
# 
# From -- ./inp_files/43370.got.cif
#   From: 2010.06.25/outbox.cif.g09.slc.cpg/sg71_22_cif.got.tgz:43370.got - 2010.06.28 04:59:45.
