data_PCOD8289690
_publ_section_title
;
Structure prediction by ZEFSAII (Michael W. Deem and Ramdas Pophale) SiO2 
 PCOD8289690
Probable space group: I M M M
;
_chemical_formula_sum "Si O2"
_cell_formula_units_Z 80
_cell_length_a 32.776079
_cell_length_b 18.856449
_cell_length_c 8.904449
_cell_angle_alpha 90.000000
_cell_angle_beta 90.000000
_cell_angle_gamma 90.000000
_cell_volume 5503.309775
_symmetry_space_group_name_H-M "I M M M"
_symmetry_group_IT_number 71
_symmetry_cell_setting 'orthorhombic'
loop_
_space_group_symop_operation_xyz
x,y,z
-x,-y,z
x,-y,-z
-x,y,-z
-x,-y,-z
x,y,-z
-x,y,z
x,-y,z
1/2+x,1/2+y,1/2+z
1/2-x,1/2-y,1/2+z
1/2+x,1/2-y,1/2-z
1/2-x,1/2+y,1/2-z
1/2-x,1/2-y,1/2-z
1/2+x,1/2+y,1/2-z
1/2-x,1/2+y,1/2+z
1/2+x,1/2-y,1/2+z
loop_
_atom_site_type_symbol
_atom_site_label
_atom_site_fract_x
_atom_site_fract_y
_atom_site_fract_z
Si Si1 0.546389 0.918991 0.325543
Si Si2 0.690149 0.783217 0.675108
Si Si3 0.257064 0.500000 0.176659
Si Si4 0.378664 0.140874 0.825985
Si Si5 0.328851 0.000000 0.827907
Si Si6 0.264817 0.641860 0.674904
O O1 0.557555 0.913168 0.500000
O O2 0.500000 0.894754 0.296498
O O3 0.575158 0.866038 0.232485
O O4 0.552227 0.000000 0.270670
O O5 0.693324 0.801413 0.500000
O O6 0.644665 0.796641 0.736637
O O7 0.701104 0.701277 0.706602
O O8 0.721032 0.834323 0.762672
O O9 0.209563 0.500000 0.218759
O O10 0.278945 0.430232 0.244047
O O11 0.262658 0.500000 0.000000
O O12 0.356120 0.067605 0.791387
O O13 0.379325 0.160802 0.000000
O O14 0.313574 0.000000 0.000000
O O15 0.258919 0.626908 0.500000
#
# Coordination Sequence:
#
# PCOD8289690 Si02
#       6
#    16  16   8  16   8  16
#     4   9  18  31  45  61  83 111 144 183 221 257
#     4  10  20  32  46  63  83 111 145 180 219 261
#     4  12  22  30  46  65  83 112 147 182 219 261
#     4  11  20  30  45  62  85 114 144 183 222 259
#     4  10  20  30  39  59  86 113 146 183 220 253
#     4  10  20  33  46  61  85 112 141 181 222 258
#
# _framework density 14.536707
#
# number of rings (size 3 to 8) (size 9 to 14) (size 15 to 20)
#    0.000    1.800    3.000    3.300    0.000    3.600 
#    0.000    1.000    0.000    0.000    0.000    0.000 
#    0.000    0.000    0.000    0.900    0.000   17.400 
#
# Total GULP energy -496102.502892 kJ/mol
# GULP energy per Si atom -12402.562572 kJ/mol
# Density = 1.450362 g / cm^3
# Si number density = 14.536707 Si / 1000 Ang^3
#
#
#
# Elastic Constant Matrix: (Units=GPa)
#
#
# Indices 1 2 3 4 5 6 
#
# 1 75.7542 34.4429 36.7127 0.0000 0.0000 0.0000
# 2 34.4429 83.5019 48.5629 0.0000 0.0000 0.0000
# 3 36.7127 48.5629 94.4311 0.0000 0.0000 0.0000
# 4 0.0000 0.0000 0.0000 22.0118 0.0000 0.0000
# 5 0.0000 0.0000 0.0000 0.0000 23.8798 0.0000
# 6 0.0000 0.0000 0.0000 0.0000 0.0000 23.1289
#
#
#
# Elastic Compliance Matrix: (Units=1/GPa)
#
#
# Indices 1 2 3 4 5 6 
#
# 1 0.017439 -0.004637 -0.004395 0.000000 0.000000 0.000000
# 2 -0.004637 0.018319 -0.007618 0.000000 0.000000 0.000000
# 3 -0.004395 -0.007618 0.016216 0.000000 0.000000 0.000000
# 4 0.000000 0.000000 0.000000 0.045430 0.000000 0.000000
# 5 0.000000 0.000000 0.000000 0.000000 0.041876 0.000000
# 6 0.000000 0.000000 0.000000 0.000000 0.000000 0.043236
#
#
# Mechanical properties :
#
#
# Convention : Reuss Voigt Hill
#
# Bulk Modulus (GPa) = 53.55185 54.79156 54.17171
# Shear Modulus (GPa) = 22.51827 22.73534 22.62680
#
# Velocity S-wave (km/s) = 3.94008 3.95903 3.94957
# Velocity P-wave (km/s) = 7.59065 7.65978 7.62530
#
# Compressibility (1/GPa) = 0.01867349
#
# Stress axis : x y z
#
# Youngs Moduli (GPa) = 57.34291 54.58812 61.66669
#
# Poissons Ratio (x) = 0.25313 0.27103
# Poissons Ratio (y) = 0.26590 0.46978
# Poissons Ratio (z) = 0.25203 0.41586
#
# Static dielectric constant tensor:
#      x y z
#    x 2.680150 0.000000 0.000000 
#    y 0.000000 2.822560 0.000000 
#    z 0.000000 0.000000 2.886540 
# 
# 
# High freq. dielectric constant tensor:
#      x y z
#    x 1.527390 0.000000 0.000000 
#    y 0.000000 1.532760 0.000000 
#    z 0.000000 0.000000 1.571500 
# 
# From -- ./inp_files/16800.got.cif
#   From: 2010.06.25/outbox.cif.g09.slc.cpg/sg71_9_cif.got.tgz:16800.got - 2010.06.28 04:59:45.
