data_PCOD8289289
_publ_section_title
;
Structure prediction by ZEFSAII (Michael W. Deem and Ramdas Pophale) SiO2 
 PCOD8289289
Probable space group: I M M M
;
_chemical_formula_sum "Si O2"
_cell_formula_units_Z 80
_cell_length_a 9.307338
_cell_length_b 21.439771
_cell_length_c 21.943584
_cell_angle_alpha 90.000000
_cell_angle_beta 90.000000
_cell_angle_gamma 90.000000
_cell_volume 4378.780643
_symmetry_space_group_name_H-M "I M M M"
_symmetry_group_IT_number 71
_symmetry_cell_setting 'orthorhombic'
loop_
_space_group_symop_operation_xyz
x,y,z
-x,-y,z
x,-y,-z
-x,y,-z
-x,-y,-z
x,y,-z
-x,y,z
x,-y,z
1/2+x,1/2+y,1/2+z
1/2-x,1/2-y,1/2+z
1/2+x,1/2-y,1/2-z
1/2-x,1/2+y,1/2-z
1/2-x,1/2-y,1/2-z
1/2+x,1/2+y,1/2-z
1/2-x,1/2+y,1/2+z
1/2+x,1/2-y,1/2+z
loop_
_atom_site_type_symbol
_atom_site_label
_atom_site_fract_x
_atom_site_fract_y
_atom_site_fract_z
Si Si1 0.329312 0.500000 0.432376
Si Si2 0.670045 0.570501 0.767468
Si Si3 0.666707 0.772208 0.070530
Si Si4 0.332989 0.367830 0.107658
Si Si5 0.839883 0.426724 0.000000
Si Si6 0.329457 0.620424 0.360814
O O1 0.500000 0.500000 0.432963
O O2 0.264559 0.500000 0.500000
O O3 0.273232 0.561338 0.398803
O O4 0.500000 0.564708 0.764669
O O5 0.734684 0.500000 0.768761
O O6 0.719880 0.609929 0.825962
O O7 0.722873 0.608930 0.708396
O O8 0.500000 0.789982 0.074879
O O9 0.696779 0.704963 0.099352
O O10 0.757537 0.818718 0.111546
O O11 0.717693 0.773478 0.000000
O O12 0.500000 0.383416 0.097200
O O13 0.243066 0.406183 0.059657
O O14 0.849119 0.500000 0.000000
O O15 0.000000 0.397568 0.000000
O O16 0.500000 0.628600 0.365277
#
# Coordination Sequence:
#
# PCOD8289289 Si02
#       6
#     8  16  16  16   8  16
#     4   9  16  28  49  77 107 138 179 228 274 321
#     4   9  17  32  56  85 111 138 183 240 279 319
#     4  10  21  37  53  76 112 148 185 232 277 324
#     4  10  20  37  60  81 107 151 194 226 271 332
#     4  11  23  37  55  85 119 144 179 236 289 325
#     4  10  19  33  55  82 110 142 183 230 280 329
#
# _framework density 18.269926999999999
#
# number of rings (size 3 to 8) (size 9 to 14) (size 15 to 20)
#    0.000    2.200    2.000    1.500    0.000    4.400 
#    0.000    1.500    0.000    3.000    0.000    0.000 
#    0.000    0.000    0.000    0.000    0.000    0.000 
#
# Total GULP energy -495993.043732 kJ/mol
# GULP energy per Si atom -12399.826093 kJ/mol
# Density = 1.822834 g / cm^3
# Si number density = 18.269927 Si / 1000 Ang^3
#
#
#
# Elastic Constant Matrix: (Units=GPa)
#
#
# Indices 1 2 3 4 5 6 
#
# 1 44.1905 47.1882 48.4642 0.0000 0.0000 0.0000
# 2 47.1882 124.8315 88.3480 0.0000 0.0000 0.0000
# 3 48.4642 88.3480 199.6526 0.0000 0.0000 0.0000
# 4 0.0000 0.0000 0.0000 42.2471 0.0000 0.0000
# 5 0.0000 0.0000 0.0000 0.0000 21.9984 0.0000
# 6 0.0000 0.0000 0.0000 0.0000 0.0000 19.3509
#
#
#
# Elastic Compliance Matrix: (Units=1/GPa)
#
#
# Indices 1 2 3 4 5 6 
#
# 1 0.040491 -0.012157 -0.004449 0.000000 0.000000 0.000000
# 2 -0.012157 0.015314 -0.003825 0.000000 0.000000 0.000000
# 3 -0.004449 -0.003825 0.007781 0.000000 0.000000 0.000000
# 4 0.000000 0.000000 0.000000 0.023670 0.000000 0.000000
# 5 0.000000 0.000000 0.000000 0.000000 0.045458 0.000000
# 6 0.000000 0.000000 0.000000 0.000000 0.000000 0.051677
#
#
# Mechanical properties :
#
#
# Convention : Reuss Voigt Hill
#
# Bulk Modulus (GPa) = 44.00956 81.85282 62.93119
# Shear Modulus (GPa) = 21.47502 29.03091 25.25297
#
# Velocity S-wave (km/s) = 3.43217 3.99055 3.72185
# Velocity P-wave (km/s) = 6.31247 8.13215 7.27939
#
# Compressibility (1/GPa) = 0.02272234
#
# Stress axis : x y z
#
# Youngs Moduli (GPa) = 24.69710 65.30065 128.51054
#
# Poissons Ratio (x) = 0.79387 0.57176
# Poissons Ratio (y) = 0.30025 0.49160
# Poissons Ratio (z) = 0.10988 0.24980
#
# Static dielectric constant tensor:
#      x y z
#    x 3.082560 0.000000 0.000000 
#    y 0.000000 3.462230 0.000000 
#    z 0.000000 0.000000 3.731870 
# 
# 
# High freq. dielectric constant tensor:
#      x y z
#    x 1.669960 0.000000 0.000000 
#    y 0.000000 1.717710 0.000000 
#    z 0.000000 0.000000 1.725470 
# 
# From -- ./inp_files/50387.got.cif
#   From: 2010.06.25/outbox.cif.g09.slc.cpg/sg71_26_cif.got.tgz:50387.got - 2010.06.28 04:59:45.
