data_PCOD8289982
_publ_section_title
;
Structure prediction by ZEFSAII (Michael W. Deem and Ramdas Pophale) SiO2 
 PCOD8289982
Probable space group: I M M M
;
_chemical_formula_sum "Si O2"
_cell_formula_units_Z 104
_cell_length_a 33.850208
_cell_length_b 9.163203
_cell_length_c 17.906718
_cell_angle_alpha 90.000000
_cell_angle_beta 90.000000
_cell_angle_gamma 90.000000
_cell_volume 5554.240027
_symmetry_space_group_name_H-M "I M M M"
_symmetry_group_IT_number 71
_symmetry_cell_setting 'orthorhombic'
loop_
_space_group_symop_operation_xyz
x,y,z
-x,-y,z
x,-y,-z
-x,y,-z
-x,-y,-z
x,y,-z
-x,y,z
x,-y,z
1/2+x,1/2+y,1/2+z
1/2-x,1/2-y,1/2+z
1/2+x,1/2-y,1/2-z
1/2-x,1/2+y,1/2-z
1/2-x,1/2-y,1/2-z
1/2+x,1/2+y,1/2-z
1/2-x,1/2+y,1/2+z
1/2+x,1/2-y,1/2+z
loop_
_atom_site_type_symbol
_atom_site_label
_atom_site_fract_x
_atom_site_fract_y
_atom_site_fract_z
Si Si1 0.781056 0.668591 0.346851
Si Si2 0.297622 0.168941 0.323760
Si Si3 0.076042 0.335823 0.410812
Si Si4 0.627043 0.825891 0.415646
Si Si5 0.500000 0.335512 0.088992
Si Si6 0.457949 0.163534 0.411292
Si Si7 0.150266 0.161492 0.586724
O O1 0.779378 0.500000 0.369465
O O2 0.737625 0.734532 0.356520
O O3 0.799338 0.691356 0.264829
O O4 0.808867 0.754178 0.403510
O O5 0.338340 0.227145 0.360119
O O6 0.289842 0.000000 0.344263
O O7 0.076298 0.339761 0.500000
O O8 0.075222 0.500000 0.378796
O O9 0.114573 0.255092 0.377869
O O10 0.038177 0.249017 0.380443
O O11 0.636353 0.770892 0.500000
O O12 0.584087 0.763172 0.386372
O O13 0.624401 0.000000 0.415433
O O14 0.500000 0.500000 0.120503
O O15 0.500000 0.337850 0.000000
O O16 0.456176 0.157701 0.500000
O O17 0.500000 0.241749 0.386643
O O18 0.459503 0.000000 0.379021
O O19 0.141710 0.143472 0.500000
O O20 0.152042 0.000000 0.623737
#
# Coordination Sequence:
#
# PCOD8289982 Si02
#       7
#    16  16  16  16   8  16  16
#     4  10  20  33  48  65  88 121 156 194 236 283
#     4   9  18  32  48  67  91 121 157 193 228 273
#     4   9  16  26  41  63  91 119 147 183 230 280
#     4   8  13  22  39  64  92 120 150 184 222 263
#     4   9  15  23  37  59  89 123 155 185 220 267
#     4   7   9  14  27  52  87 120 144 169 206 252
#     4  10  20  33  49  69  91 115 149 195 243 292
#
# _framework density 18.724433999999999
#
# number of rings (size 3 to 8) (size 9 to 14) (size 15 to 20)
#    0.000    3.154    0.000    3.000    0.000    4.923 
#    0.000    1.538    0.000    0.000    2.000    0.000 
#    0.000    0.615    0.000    3.846    0.000    3.077 
#
# Total GULP energy -644258.167963 kJ/mol
# GULP energy per Si atom -12389.580153 kJ/mol
# Density = 1.868182 g / cm^3
# Si number density = 18.724434 Si / 1000 Ang^3
#
#
#
# Elastic Constant Matrix: (Units=GPa)
#
#
# Indices 1 2 3 4 5 6 
#
# 1 189.5926 62.3780 30.8325 0.0000 0.0000 0.0000
# 2 62.3780 112.7293 8.4448 0.0000 0.0000 0.0000
# 3 30.8325 8.4448 18.4389 0.0000 0.0000 0.0000
# 4 0.0000 0.0000 0.0000 12.0211 0.0000 0.0000
# 5 0.0000 0.0000 0.0000 0.0000 12.7261 0.0000
# 6 0.0000 0.0000 0.0000 0.0000 0.0000 26.8526
#
#
#
# Elastic Compliance Matrix: (Units=1/GPa)
#
#
# Indices 1 2 3 4 5 6 
#
# 1 0.008573 -0.003800 -0.012595 0.000000 0.000000 0.000000
# 2 -0.003800 0.010871 0.001376 0.000000 0.000000 0.000000
# 3 -0.012595 0.001376 0.074664 0.000000 0.000000 0.000000
# 4 0.000000 0.000000 0.000000 0.083187 0.000000 0.000000
# 5 0.000000 0.000000 0.000000 0.000000 0.078579 0.000000
# 6 0.000000 0.000000 0.000000 0.000000 0.000000 0.037240
#
#
# Mechanical properties :
#
#
# Convention : Reuss Voigt Hill
#
# Bulk Modulus (GPa) = 15.60819 58.23016 36.91917
# Shear Modulus (GPa) = 14.51346 24.92699 19.72023
#
# Velocity S-wave (km/s) = 2.78710 3.65259 3.24880
# Velocity P-wave (km/s) = 4.32563 6.99676 5.81660
#
# Compressibility (1/GPa) = 0.06406894
#
# Stress axis : x y z
#
# Youngs Moduli (GPa) = 116.64425 91.99110 13.39342
#
# Poissons Ratio (x) = 0.34960 0.16869
# Poissons Ratio (y) = 0.44329 -0.01843
# Poissons Ratio (z) = 1.46913 -0.12659
#
# Static dielectric constant tensor:
#      x y z
#    x 3.927240 0.000000 0.000000 
#    y 0.000000 3.292600 0.000000 
#    z 0.000000 0.000000 2.910530 
# 
# 
# High freq. dielectric constant tensor:
#      x y z
#    x 1.752540 0.000000 0.000000 
#    y 0.000000 1.698190 0.000000 
#    z 0.000000 0.000000 1.665440 
# 
# From -- ./inp_files/62321.got.cif
#   From: 2010.06.25/outbox.cif.g09.slc.cpg/sg71_32_cif.got.tgz:62321.got - 2010.06.28 04:59:45.
