data_PCOD8289603
_publ_section_title
;
Structure prediction by ZEFSAII (Michael W. Deem and Ramdas Pophale) SiO2 
 PCOD8289603
Probable space group: I M M M
;
_chemical_formula_sum "Si O2"
_cell_formula_units_Z 88
_cell_length_a 13.432947
_cell_length_b 19.568059
_cell_length_c 16.482381
_cell_angle_alpha 90.000000
_cell_angle_beta 90.000000
_cell_angle_gamma 90.000000
_cell_volume 4332.504269
_symmetry_space_group_name_H-M "I M M M"
_symmetry_group_IT_number 71
_symmetry_cell_setting 'orthorhombic'
loop_
_space_group_symop_operation_xyz
x,y,z
-x,-y,z
x,-y,-z
-x,y,-z
-x,-y,-z
x,y,-z
-x,y,z
x,-y,z
1/2+x,1/2+y,1/2+z
1/2-x,1/2-y,1/2+z
1/2+x,1/2-y,1/2-z
1/2-x,1/2+y,1/2-z
1/2-x,1/2-y,1/2-z
1/2+x,1/2+y,1/2-z
1/2-x,1/2+y,1/2+z
1/2+x,1/2-y,1/2+z
loop_
_atom_site_type_symbol
_atom_site_label
_atom_site_fract_x
_atom_site_fract_y
_atom_site_fract_z
Si Si1 0.884282 0.000000 0.596120
Si Si2 0.293857 0.778101 0.091905
Si Si3 0.886390 0.143835 0.840991
Si Si4 0.609347 0.138593 0.768942
Si Si5 0.300930 0.638610 0.168541
Si Si6 0.607402 0.000000 0.140821
Si Si7 0.179124 0.000000 0.090239
O O1 0.828256 0.066057 0.630529
O O2 0.875415 0.000000 0.500000
O O3 0.000000 0.000000 0.623409
O O4 0.180729 0.802136 0.110071
O O5 0.367711 0.814382 0.153822
O O6 0.311349 0.697045 0.100774
O O7 0.320982 0.799007 0.000000
O O8 0.871898 0.154312 0.745023
O O9 0.856753 0.066130 0.861360
O O10 0.000000 0.157855 0.865100
O O11 0.500000 0.158301 0.735805
O O12 0.686498 0.145067 0.695996
O O13 0.614567 0.062046 0.798284
O O14 0.500000 0.000000 0.093971
O O15 0.700800 0.000000 0.080159
O O16 0.133145 0.000000 0.000000
#
# Coordination Sequence:
#
# PCOD8289603 Si02
#       7
#     8  16  16  16  16   8   8
#     4  11  24  42  67  97 125 155 196 251 314 368
#     4  11  24  39  58  88 124 159 199 252 308 359
#     4  11  23  39  61  89 122 164 208 246 293 360
#     4  10  21  38  62  89 118 160 205 247 296 355
#     4  11  22  41  65  88 119 158 204 253 303 360
#     4  10  19  35  59  86 117 152 197 241 288 350
#     4  12  22  36  58  89 127 160 196 245 300 356
#
# _framework density 20.311579999999999
#
# number of rings (size 3 to 8) (size 9 to 14) (size 15 to 20)
#    0.000    1.182    3.636    5.182    0.000    6.000 
#    0.000    1.818    0.000    2.182    0.000    0.000 
#    0.000    0.000    0.000    0.000    0.000    0.000 
#
# Total GULP energy -545540.893072 kJ/mol
# GULP energy per Si atom -12398.656661 kJ/mol
# Density = 2.026535 g / cm^3
# Si number density = 20.311580 Si / 1000 Ang^3
#
#
#
# Elastic Constant Matrix: (Units=GPa)
#
#
# Indices 1 2 3 4 5 6 
#
# 1 115.9338 16.0562 19.2956 0.0000 0.0000 0.0000
# 2 16.0562 125.0546 25.6321 0.0000 0.0000 0.0000
# 3 19.2956 25.6321 83.9392 0.0001 0.0000 0.0000
# 4 0.0000 0.0000 0.0001 31.1323 0.0000 0.0000
# 5 0.0000 0.0000 0.0000 0.0000 6.2463 0.0000
# 6 0.0000 0.0000 0.0000 0.0000 0.0000 25.7977
#
#
#
# Elastic Compliance Matrix: (Units=1/GPa)
#
#
# Indices 1 2 3 4 5 6 
#
# 1 0.009040 -0.000784 -0.001839 0.000000 0.000000 0.000000
# 2 -0.000784 0.008598 -0.002445 0.000000 0.000000 0.000000
# 3 -0.001839 -0.002445 0.013083 0.000000 0.000000 0.000000
# 4 0.000000 0.000000 0.000000 0.032121 0.000000 0.000000
# 5 0.000000 0.000000 0.000000 0.000000 0.160095 0.000000
# 6 0.000000 0.000000 0.000000 0.000000 0.000000 0.038763
#
#
# Mechanical properties :
#
#
# Convention : Reuss Voigt Hill
#
# Bulk Modulus (GPa) = 48.57834 49.65507 49.11671
# Shear Modulus (GPa) = 17.94056 30.23151 24.08603
#
# Velocity S-wave (km/s) = 2.97521 3.86215 3.44732
# Velocity P-wave (km/s) = 5.98088 6.66243 6.33084
#
# Compressibility (1/GPa) = 0.02058530
#
# Stress axis : x y z
#
# Youngs Moduli (GPa) = 110.61694 116.30095 76.43601
#
# Poissons Ratio (x) = 0.09116 0.14055
# Poissons Ratio (y) = 0.08670 0.18692
# Poissons Ratio (z) = 0.20340 0.28441
#
# Static dielectric constant tensor:
#      x y z
#    x 4.060880 0.000000 0.000000 
#    y 0.000000 4.313890 0.000000 
#    z 0.000000 0.000000 3.464740 
# 
# 
# High freq. dielectric constant tensor:
#      x y z
#    x 1.799270 0.000000 0.000000 
#    y 0.000000 1.809960 0.000000 
#    z 0.000000 0.000000 1.775470 
# 
# From -- ./inp_files/44733.got.cif
#   From: 2010.06.25/outbox.cif.g09.slc.cpg/sg71_23_cif.got.tgz:44733.got - 2010.06.28 04:59:45.
