data_PCOD8289406
_publ_section_title
;
Structure prediction by ZEFSAII (Michael W. Deem and Ramdas Pophale) SiO2 
 PCOD8289406
Probable space group: I M M M
;
_chemical_formula_sum "Si O2"
_cell_formula_units_Z 120
_cell_length_a 15.453544
_cell_length_b 15.467497
_cell_length_c 27.743868
_cell_angle_alpha 90.000000
_cell_angle_beta 90.000000
_cell_angle_gamma 90.000000
_cell_volume 6631.551444
_symmetry_space_group_name_H-M "I M M M"
_symmetry_group_IT_number 71
_symmetry_cell_setting 'orthorhombic'
loop_
_space_group_symop_operation_xyz
x,y,z
-x,-y,z
x,-y,-z
-x,y,-z
-x,-y,-z
x,y,-z
-x,y,z
x,-y,z
1/2+x,1/2+y,1/2+z
1/2-x,1/2-y,1/2+z
1/2+x,1/2-y,1/2-z
1/2-x,1/2+y,1/2-z
1/2-x,1/2-y,1/2-z
1/2+x,1/2+y,1/2-z
1/2-x,1/2+y,1/2+z
1/2+x,1/2-y,1/2+z
loop_
_atom_site_type_symbol
_atom_site_label
_atom_site_fract_x
_atom_site_fract_y
_atom_site_fract_z
Si Si1 0.625385 0.096820 0.724909
Si Si2 0.404545 0.203368 0.361798
Si Si3 0.251617 0.676055 0.349051
Si Si4 0.397029 0.904706 0.552871
Si Si5 0.500000 0.594364 0.556813
Si Si6 0.688468 0.603428 0.445105
Si Si7 0.189799 0.904475 0.754932
Si Si8 0.403570 0.249601 0.795542
O O1 0.584133 0.122214 0.673944
O O2 0.729177 0.102051 0.718847
O O3 0.590248 0.162841 0.764628
O O4 0.595339 0.000000 0.738842
O O5 0.500000 0.245720 0.369983
O O6 0.338026 0.269767 0.339517
O O7 0.361520 0.167113 0.410881
O O8 0.246271 0.639096 0.404036
O O9 0.266932 0.603369 0.308396
O O10 0.165040 0.732654 0.338907
O O11 0.367052 0.875328 0.500000
O O12 0.500000 0.907934 0.556770
O O13 0.359515 0.000000 0.564403
O O14 0.500000 0.500000 0.582050
O O15 0.500000 0.580773 0.500000
O O16 0.408199 0.641045 0.569615
O O17 0.714356 0.632457 0.500000
O O18 0.686189 0.500000 0.443407
O O19 0.123098 0.830051 0.738888
O O20 0.145957 0.000000 0.751777
O O21 0.500000 0.268635 0.816495
#
# Coordination Sequence:
#
# PCOD8289406 Si02
#       8
#    16  16  16  16   8  16  16  16
#     4  10  19  34  55  77 104 135 170 216 270 327
#     4  11  20  29  46  72 104 136 171 210 255 314
#     4  11  21  35  52  80 109 140 180 230 270 322
#     4   8  15  28  43  62  93 131 167 200 239 296
#     4   7  12  26  46  70 102 140 181 217 251 307
#     4   9  18  33  53  76 107 147 185 222 268 326
#     4  10  20  37  57  76 103 141 179 225 278 323
#     4  11  22  39  56  76 107 141 184 234 276 322
#
# _framework density 18.095313000000001
#
# number of rings (size 3 to 8) (size 9 to 14) (size 15 to 20)
#    0.000    2.200    2.667    3.200    0.933    2.933 
#    0.000    0.000    0.000    0.400    0.000    0.933 
#    0.000    0.000    0.000    2.667    0.000    0.133 
#
# Total GULP energy -743294.689374 kJ/mol
# GULP energy per Si atom -12388.244823 kJ/mol
# Density = 1.805413 g / cm^3
# Si number density = 18.095313 Si / 1000 Ang^3
#
#
#
# Elastic Constant Matrix: (Units=GPa)
#
#
# Indices 1 2 3 4 5 6 
#
# 1 89.1602 27.5083 32.9005 0.0000 0.0000 0.0000
# 2 27.5083 70.7055 17.9829 0.0000 0.0000 0.0000
# 3 32.9005 17.9829 85.5246 0.0000 0.0000 0.0000
# 4 0.0000 0.0000 0.0000 22.7935 0.0000 0.0000
# 5 0.0000 0.0000 0.0000 0.0000 21.9112 0.0000
# 6 0.0000 0.0000 0.0000 0.0000 0.0000 13.1343
#
#
#
# Elastic Compliance Matrix: (Units=1/GPa)
#
#
# Indices 1 2 3 4 5 6 
#
# 1 0.014251 -0.004385 -0.004560 0.000000 0.000000 0.000000
# 2 -0.004385 0.016291 -0.001739 0.000000 0.000000 0.000000
# 3 -0.004560 -0.001739 0.013812 0.000000 0.000000 0.000000
# 4 0.000000 0.000000 0.000000 0.043872 0.000000 0.000000
# 5 0.000000 0.000000 0.000000 0.000000 0.045639 0.000000
# 6 0.000000 0.000000 0.000000 0.000000 0.000000 0.076136
#
#
# Mechanical properties :
#
#
# Convention : Reuss Voigt Hill
#
# Bulk Modulus (GPa) = 43.50206 44.68600 44.09403
# Shear Modulus (GPa) = 20.91764 22.70103 21.80934
#
# Velocity S-wave (km/s) = 3.40364 3.54577 3.47543
# Velocity P-wave (km/s) = 6.28801 6.44296 6.36596
#
# Compressibility (1/GPa) = 0.02298742
#
# Stress axis : x y z
#
# Youngs Moduli (GPa) = 70.16867 61.38255 72.39820
#
# Poissons Ratio (x) = 0.26914 0.33017
# Poissons Ratio (y) = 0.30767 0.12588
# Poissons Ratio (z) = 0.32000 0.10673
#
# Static dielectric constant tensor:
#      x y z
#    x 3.201210 0.000000 0.000000 
#    y 0.000000 3.389900 0.000000 
#    z 0.000000 0.000000 3.411350 
# 
# 
# High freq. dielectric constant tensor:
#      x y z
#    x 1.660450 0.000000 0.000000 
#    y 0.000000 1.705900 0.000000 
#    z 0.000000 0.000000 1.688970 
# 
# From -- ./inp_files/70149.got.cif
#   From: 2010.06.25/outbox.cif.g09.slc.cpg/sg71_36_cif.got.tgz:70149.got - 2010.06.28 04:59:45.
