data_PCOD8289634
_publ_section_title
;
Structure prediction by ZEFSAII (Michael W. Deem and Ramdas Pophale) SiO2 
 PCOD8289634
Probable space group: I M M M
;
_chemical_formula_sum "Si O2"
_cell_formula_units_Z 84
_cell_length_a 34.407427
_cell_length_b 11.845147
_cell_length_c 11.125654
_cell_angle_alpha 90.000000
_cell_angle_beta 90.000000
_cell_angle_gamma 90.000000
_cell_volume 4534.383012
_symmetry_space_group_name_H-M "I M M M"
_symmetry_group_IT_number 71
_symmetry_cell_setting 'orthorhombic'
loop_
_space_group_symop_operation_xyz
x,y,z
-x,-y,z
x,-y,-z
-x,y,-z
-x,-y,-z
x,y,-z
-x,y,z
x,-y,z
1/2+x,1/2+y,1/2+z
1/2-x,1/2-y,1/2+z
1/2+x,1/2-y,1/2-z
1/2-x,1/2+y,1/2-z
1/2-x,1/2-y,1/2-z
1/2+x,1/2+y,1/2-z
1/2-x,1/2+y,1/2+z
1/2+x,1/2-y,1/2+z
loop_
_atom_site_type_symbol
_atom_site_label
_atom_site_fract_x
_atom_site_fract_y
_atom_site_fract_z
Si Si1 0.565374 0.500000 0.000000
Si Si2 0.500000 0.125218 0.639609
Si Si3 0.644715 0.128096 0.362067
Si Si4 0.595324 0.500000 0.251224
Si Si5 0.043017 0.240438 0.500000
Si Si6 0.677824 0.500000 0.635152
Si Si7 0.927045 0.752578 0.757755
Si Si8 0.279115 0.268571 0.638951
O O1 0.595532 0.500000 0.891511
O O2 0.536698 0.606037 0.000000
O O3 0.500000 0.106351 0.500000
O O4 0.538285 0.194534 0.671438
O O5 0.500000 0.000000 0.700940
O O6 0.631610 0.135183 0.500000
O O7 0.614653 0.201207 0.286599
O O8 0.687812 0.175081 0.345198
O O9 0.644163 0.000000 0.315149
O O10 0.640267 0.500000 0.282724
O O11 0.573275 0.614269 0.294623
O O12 0.066962 0.274775 0.617370
O O13 0.000000 0.296429 0.500000
O O14 0.661702 0.500000 0.500000
O O15 0.703925 0.607995 0.660488
O O16 0.262026 0.259809 0.500000
O O17 0.250000 0.250000 0.750000
#
# Coordination Sequence:
#
# PCOD8289634 Si02
#       8
#     4   8  16   8   8   8  16  16
#     4   8  19  32  56  82 116 148 200 228 284 342
#     4  11  24  40  58  81 112 150 198 245 290 340
#     4  10  21  39  62  83 114 154 197 238 285 344
#     4  10  20  36  59  89 115 150 194 238 291 351
#     4  10  19  36  56  80 116 154 188 236 288 346
#     4  10  20  38  62  86 125 159 187 241 309 353
#     4  11  21  38  60  85 115 151 195 239 291 349
#     4  10  22  41  63  91 122 158 196 241 297 357
#
# _framework density 18.525122
#
# number of rings (size 3 to 8) (size 9 to 14) (size 15 to 20)
#    0.000    1.810    2.857    1.286    1.333    2.667 
#    3.429    2.857    0.000    0.000    0.000    0.000 
#    0.000    0.000    0.000    0.000    0.000    0.000 
#
# Total GULP energy -520562.822669 kJ/mol
# GULP energy per Si atom -12394.352921 kJ/mol
# Density = 1.848296 g / cm^3
# Si number density = 18.525122 Si / 1000 Ang^3
#
#
#
# Elastic Constant Matrix: (Units=GPa)
#
#
# Indices 1 2 3 4 5 6 
#
# 1 101.7636 47.6522 62.9711 0.0000 0.0000 0.0000
# 2 47.6522 143.2894 45.9062 0.0000 0.0000 0.0000
# 3 62.9711 45.9062 103.3451 0.0000 0.0000 0.0000
# 4 0.0000 0.0000 0.0000 25.2360 0.0000 0.0000
# 5 0.0000 0.0000 0.0000 0.0000 35.8940 0.0000
# 6 0.0000 0.0000 0.0000 0.0000 0.0000 27.1096
#
#
#
# Elastic Compliance Matrix: (Units=1/GPa)
#
#
# Indices 1 2 3 4 5 6 
#
# 1 0.016600 -0.002658 -0.008934 0.000000 0.000000 0.000000
# 2 -0.002658 0.008563 -0.002184 0.000000 0.000000 0.000000
# 3 -0.008934 -0.002184 0.016090 0.000000 0.000000 0.000000
# 4 0.000000 0.000000 0.000000 0.039626 0.000000 0.000000
# 5 0.000000 0.000000 0.000000 0.000000 0.027860 0.000000
# 6 0.000000 0.000000 0.000000 0.000000 0.000000 0.036887
#
#
# Mechanical properties :
#
#
# Convention : Reuss Voigt Hill
#
# Bulk Modulus (GPa) = 72.98995 73.49524 73.24260
# Shear Modulus (GPa) = 28.13037 30.43917 29.28477
#
# Velocity S-wave (km/s) = 3.90102 4.05795 3.98026
# Velocity P-wave (km/s) = 7.73154 7.85591 7.79397
#
# Compressibility (1/GPa) = 0.01370052
#
# Stress axis : x y z
#
# Youngs Moduli (GPa) = 60.24198 116.78810 62.15021
#
# Poissons Ratio (x) = 0.31045 0.55524
# Poissons Ratio (y) = 0.16014 0.13572
# Poissons Ratio (z) = 0.53820 0.25504
#
# Static dielectric constant tensor:
#      x y z
#    x 3.212030 0.000000 0.000000 
#    y 0.000000 3.786090 0.000000 
#    z 0.000000 0.000000 3.558320 
# 
# 
# High freq. dielectric constant tensor:
#      x y z
#    x 1.709980 0.000000 0.000000 
#    y 0.000000 1.735470 0.000000 
#    z 0.000000 0.000000 1.717840 
# 
# From -- ./inp_files/29824.got.cif
#   From: 2010.06.25/outbox.cif.g09.slc.cpg/sg71_15_cif.got.tgz:29824.got - 2010.06.28 04:59:45.
