data_PCOD8289259
_publ_section_title
;
Structure prediction by ZEFSAII (Michael W. Deem and Ramdas Pophale) SiO2 
 PCOD8289259
Probable space group: I M M M
;
_chemical_formula_sum "Si O2"
_cell_formula_units_Z 88
_cell_length_a 27.267966
_cell_length_b 9.090507
_cell_length_c 19.351610
_cell_angle_alpha 90.000000
_cell_angle_beta 90.000000
_cell_angle_gamma 90.000000
_cell_volume 4796.870039
_symmetry_space_group_name_H-M "I M M M"
_symmetry_group_IT_number 71
_symmetry_cell_setting 'orthorhombic'
loop_
_space_group_symop_operation_xyz
x,y,z
-x,-y,z
x,-y,-z
-x,y,-z
-x,-y,-z
x,y,-z
-x,y,z
x,-y,z
1/2+x,1/2+y,1/2+z
1/2-x,1/2-y,1/2+z
1/2+x,1/2-y,1/2-z
1/2-x,1/2+y,1/2-z
1/2-x,1/2-y,1/2-z
1/2+x,1/2+y,1/2-z
1/2-x,1/2+y,1/2+z
1/2+x,1/2-y,1/2+z
loop_
_atom_site_type_symbol
_atom_site_label
_atom_site_fract_x
_atom_site_fract_y
_atom_site_fract_z
Si Si1 0.716272 0.327928 0.654597
Si Si2 0.055341 0.667614 0.189108
Si Si3 0.810338 0.829643 0.308811
Si Si4 0.000000 0.328607 0.581322
Si Si5 0.078577 0.172626 0.328451
Si Si6 0.365914 0.170808 0.578187
O O1 0.719214 0.500000 0.642910
O O2 0.771113 0.264131 0.648290
O O3 0.692024 0.285265 0.728106
O O4 0.683416 0.258998 0.594698
O O5 0.068092 0.500000 0.210950
O O6 0.061150 0.773263 0.254103
O O7 0.090035 0.723469 0.127480
O O8 0.000000 0.677911 0.161267
O O9 0.863932 0.792898 0.338478
O O10 0.797041 0.000000 0.317627
O O11 0.048912 0.255427 0.611914
O O12 0.000000 0.500000 0.600942
O O13 0.000000 0.302253 0.500000
O O14 0.067768 0.000000 0.333477
O O15 0.381872 0.205239 0.500000
O O16 0.354457 0.000000 0.589095
#
# Coordination Sequence:
#
# PCOD8289259 Si02
#       6
#    16  16  16   8  16  16
#     4  10  19  33  54  81 111 144 187 235 282 334
#     4  10  20  34  55  83 113 149 193 237 282 331
#     4   9  19  34  54  83 113 142 181 231 283 334
#     4  11  25  43  61  85 118 151 184 225 277 338
#     4  11  21  36  60  88 116 146 185 232 280 336
#     4  10  21  36  54  78 114 158 197 236 284 337
#
# _framework density 18.345296000000001
#
# number of rings (size 3 to 8) (size 9 to 14) (size 15 to 20)
#    0.000    1.909    2.727    1.364    0.000    3.636 
#    0.000    2.727    0.000    1.091    0.000    2.545 
#    0.000    0.000    0.000    0.000    0.000    0.000 
#
# Total GULP energy -545762.887894 kJ/mol
# GULP energy per Si atom -12403.701998 kJ/mol
# Density = 1.830354 g / cm^3
# Si number density = 18.345296 Si / 1000 Ang^3
#
#
#
# Elastic Constant Matrix: (Units=GPa)
#
#
# Indices 1 2 3 4 5 6 
#
# 1 133.4525 62.5309 61.3063 0.0000 0.0000 0.0000
# 2 62.5309 86.2755 52.0806 0.0000 0.0000 0.0000
# 3 61.3063 52.0806 97.2146 0.0000 0.0000 0.0000
# 4 0.0000 0.0000 0.0000 22.0980 0.0000 0.0000
# 5 0.0000 0.0000 0.0000 0.0000 29.5425 0.0000
# 6 0.0000 0.0000 0.0000 0.0000 0.0000 30.1804
#
#
#
# Elastic Compliance Matrix: (Units=1/GPa)
#
#
# Indices 1 2 3 4 5 6 
#
# 1 0.012548 -0.006382 -0.004494 0.000000 0.000000 0.000000
# 2 -0.006382 0.020376 -0.006892 0.000000 0.000000 0.000000
# 3 -0.004494 -0.006892 0.016813 0.000000 0.000000 0.000000
# 4 0.000000 0.000000 0.000000 0.045253 0.000000 0.000000
# 5 0.000000 0.000000 0.000000 0.000000 0.033850 0.000000
# 6 0.000000 0.000000 0.000000 0.000000 0.000000 0.033134
#
#
# Mechanical properties :
#
#
# Convention : Reuss Voigt Hill
#
# Bulk Modulus (GPa) = 70.41332 74.30868 72.36100
# Shear Modulus (GPa) = 24.72270 25.76584 25.24427
#
# Velocity S-wave (km/s) = 3.67499 3.75172 3.71356
# Velocity P-wave (km/s) = 7.51485 7.70459 7.61031
#
# Compressibility (1/GPa) = 0.01420186
#
# Stress axis : x y z
#
# Youngs Moduli (GPa) = 79.69296 49.07675 59.47812
#
# Poissons Ratio (x) = 0.31319 0.26732
# Poissons Ratio (y) = 0.50857 0.40991
# Poissons Ratio (z) = 0.35817 0.33822
#
# Static dielectric constant tensor:
#      x y z
#    x 3.598650 0.000000 0.000000 
#    y 0.000000 3.407190 0.000000 
#    z 0.000000 0.000000 3.184800 
# 
# 
# High freq. dielectric constant tensor:
#      x y z
#    x 1.723590 0.000000 0.000000 
#    y 0.000000 1.715600 0.000000 
#    z 0.000000 0.000000 1.687070 
# 
# From -- ./inp_files/8806.got.cif
#   From: 2010.06.25/outbox.cif.g09.slc.cpg/sg71_5_cif.got.tgz:8806.got - 2010.06.28 04:59:45.
