data_PCOD8289127
_publ_section_title
;
Structure prediction by ZEFSAII (Michael W. Deem and Ramdas Pophale) SiO2 
 PCOD8289127
Probable space group: I M M M
;
_chemical_formula_sum "Si O2"
_cell_formula_units_Z 100
_cell_length_a 7.669111
_cell_length_b 24.005601
_cell_length_c 27.756866
_cell_angle_alpha 90.000000
_cell_angle_beta 90.000000
_cell_angle_gamma 90.000000
_cell_volume 5110.083960
_symmetry_space_group_name_H-M "I M M M"
_symmetry_group_IT_number 71
_symmetry_cell_setting 'orthorhombic'
loop_
_space_group_symop_operation_xyz
x,y,z
-x,-y,z
x,-y,-z
-x,y,-z
-x,-y,-z
x,y,-z
-x,y,z
x,-y,z
1/2+x,1/2+y,1/2+z
1/2-x,1/2-y,1/2+z
1/2+x,1/2-y,1/2-z
1/2-x,1/2+y,1/2-z
1/2-x,1/2-y,1/2-z
1/2+x,1/2+y,1/2-z
1/2-x,1/2+y,1/2+z
1/2+x,1/2-y,1/2+z
loop_
_atom_site_type_symbol
_atom_site_label
_atom_site_fract_x
_atom_site_fract_y
_atom_site_fract_z
Si Si1 0.000000 0.500000 0.368424
Si Si2 0.205327 0.679395 0.154512
Si Si3 0.197485 0.828266 0.923486
Si Si4 0.203595 0.114626 0.257269
Si Si5 0.000000 0.407705 0.448094
Si Si6 0.703270 0.201815 0.551710
Si Si7 0.701319 0.702343 0.683396
Si Si8 0.291142 0.500000 0.710845
O O1 0.000000 0.446828 0.402298
O O2 0.179028 0.500000 0.337949
O O3 0.250233 0.625656 0.186731
O O4 0.282053 0.671735 0.099858
O O5 0.285573 0.735513 0.179515
O O6 0.000000 0.688580 0.149021
O O7 0.326904 0.870704 0.948199
O O8 0.237731 0.767187 0.943349
O O9 0.227312 0.830352 0.866254
O O10 0.000000 0.845849 0.936262
O O11 0.291004 0.163815 0.224701
O O12 0.000000 0.115745 0.248760
O O13 0.269456 0.053662 0.241873
O O14 0.000000 0.439290 0.500000
O O15 0.786402 0.181913 0.500000
O O16 0.500000 0.188889 0.549573
O O17 0.500000 0.709902 0.696085
O O18 0.500000 0.500000 0.699232
#
# Coordination Sequence:
#
# PCOD8289127 Si02
#       8
#     4  16  16  16   8  16  16   8
#     4  12  27  44  60  76 100 138 179 234 284 322
#     4   9  17  28  46  75 106 134 167 207 255 317
#     4   9  18  35  56  77 105 141 181 217 260 315
#     4  10  19  33  51  73 102 132 166 214 266 318
#     4  12  25  38  54  80 106 136 182 232 277 315
#     4   8  14  28  50  74 105 145 179 208 250 308
#     4   8  15  30  50  73 104 138 168 205 255 316
#     4  10  24  43  63  81  99 135 185 228 273 323
#
# _framework density 19.56915
#
# number of rings (size 3 to 8) (size 9 to 14) (size 15 to 20)
#    0.000    2.720    0.000    3.960    1.120    2.880 
#    7.200    0.000    0.000    1.440    0.000    0.560 
#    0.000    4.480    0.000    0.000    0.000    0.000 
#
# Total GULP energy -619432.434048 kJ/mol
# GULP energy per Si atom -12388.648681 kJ/mol
# Density = 1.952461 g / cm^3
# Si number density = 19.569150 Si / 1000 Ang^3
#
#
#
# Elastic Constant Matrix: (Units=GPa)
#
#
# Indices 1 2 3 4 5 6 
#
# 1 48.9067 21.6985 19.0239 0.0000 0.0000 0.0000
# 2 21.6985 76.4171 71.0028 0.0000 0.0000 0.0000
# 3 19.0239 71.0028 175.5628 0.0000 0.0000 0.0000
# 4 0.0000 0.0000 0.0000 37.9086 0.0000 0.0000
# 5 0.0000 0.0000 0.0000 0.0000 3.1960 0.0000
# 6 0.0000 0.0000 0.0000 0.0000 0.0000 21.9650
#
#
#
# Elastic Compliance Matrix: (Units=1/GPa)
#
#
# Indices 1 2 3 4 5 6 
#
# 1 0.023401 -0.006870 0.000243 0.000000 0.000000 0.000000
# 2 -0.006870 0.022981 -0.008550 0.000000 0.000000 0.000000
# 3 0.000243 -0.008550 0.009127 0.000000 0.000000 0.000000
# 4 0.000000 0.000000 0.000000 0.026379 0.000000 0.000000
# 5 0.000000 0.000000 0.000000 0.000000 0.312890 0.000000
# 6 0.000000 0.000000 0.000000 0.000000 0.000000 0.045527
#
#
# Mechanical properties :
#
#
# Convention : Reuss Voigt Hill
#
# Bulk Modulus (GPa) = 39.75380 58.25966 49.00673
# Shear Modulus (GPa) = 10.43746 25.22469 17.83107
#
# Velocity S-wave (km/s) = 2.31197 3.59416 3.02186
# Velocity P-wave (km/s) = 5.24267 6.86002 6.10514
#
# Compressibility (1/GPa) = 0.02515483
#
# Stress axis : x y z
#
# Youngs Moduli (GPa) = 42.73361 43.51475 109.56059
#
# Poissons Ratio (x) = 0.29896 -0.02660
# Poissons Ratio (y) = 0.29359 0.93670
# Poissons Ratio (z) = -0.01038 0.37203
#
# Static dielectric constant tensor:
#      x y z
#    x 3.276350 0.000000 0.000000 
#    y 0.000000 3.426670 0.000000 
#    z 0.000000 0.000000 3.968100 
# 
# 
# High freq. dielectric constant tensor:
#      x y z
#    x 1.740650 0.000000 0.000000 
#    y 0.000000 1.713140 0.000000 
#    z 0.000000 0.000000 1.778940 
# 
# From -- ./inp_files/68311.got.cif
#   From: 2010.06.25/outbox.cif.g09.slc.cpg/sg71_35_cif.got.tgz:68311.got - 2010.06.28 04:59:45.
