data_PCOD8289243
_publ_section_title
;
Structure prediction by ZEFSAII (Michael W. Deem and Ramdas Pophale) SiO2 
 PCOD8289243
Probable space group: I M M M
;
_chemical_formula_sum "Si O2"
_cell_formula_units_Z 96
_cell_length_a 28.068749
_cell_length_b 18.211664
_cell_length_c 10.962940
_cell_angle_alpha 90.000000
_cell_angle_beta 90.000000
_cell_angle_gamma 90.000000
_cell_volume 5604.020603
_symmetry_space_group_name_H-M "I M M M"
_symmetry_group_IT_number 71
_symmetry_cell_setting 'orthorhombic'
loop_
_space_group_symop_operation_xyz
x,y,z
-x,-y,z
x,-y,-z
-x,y,-z
-x,-y,-z
x,y,-z
-x,y,z
x,-y,z
1/2+x,1/2+y,1/2+z
1/2-x,1/2-y,1/2+z
1/2+x,1/2-y,1/2-z
1/2-x,1/2+y,1/2-z
1/2-x,1/2-y,1/2-z
1/2+x,1/2+y,1/2-z
1/2-x,1/2+y,1/2+z
1/2+x,1/2-y,1/2+z
loop_
_atom_site_type_symbol
_atom_site_label
_atom_site_fract_x
_atom_site_fract_y
_atom_site_fract_z
Si Si1 0.395906 0.866974 0.260368
Si Si2 0.946356 0.081143 0.644948
Si Si3 0.556237 0.915242 0.500000
Si Si4 0.800056 0.582556 0.138244
Si Si5 0.883564 0.786313 0.358198
Si Si6 0.772701 0.205135 0.360731
Si Si7 0.447329 0.000000 0.859228
O O1 0.424020 0.871472 0.385686
O O2 0.339537 0.880611 0.275660
O O3 0.402960 0.786226 0.207140
O O4 0.417530 0.927848 0.171668
O O5 0.943826 0.081336 0.500000
O O6 0.911469 0.143713 0.697672
O O7 0.000000 0.098540 0.688682
O O8 0.930861 0.000000 0.692549
O O9 0.500000 0.912454 0.500000
O O10 0.574513 0.000000 0.500000
O O11 0.790413 0.500000 0.182397
O O12 0.750004 0.624420 0.147480
O O13 0.819890 0.584072 0.000000
O O14 0.894733 0.776313 0.500000
O O15 0.828279 0.800979 0.334268
O O16 0.763696 0.237027 0.500000
O O17 0.750000 0.250000 0.250000
O O18 0.500000 0.000000 0.793454
O O19 0.456920 0.000000 0.000000
#
# Coordination Sequence:
#
# PCOD8289243 Si02
#       7
#    16  16   8  16  16  16   8
#     4  12  20  34  54  74 105 141 181 224 271 313
#     4   8  15  30  52  77 106 137 169 211 266 322
#     4  11  22  36  54  76 103 141 189 237 269 301
#     4  10  19  33  54  79 102 135 180 221 265 316
#     4  10  21  34  53  82 112 141 175 218 270 326
#     4  10  20  35  54  77 107 140 175 220 270 318
#     4  11  24  37  49  71 105 148 187 221 270 325
#
# _framework density 17.130557
#
# number of rings (size 3 to 8) (size 9 to 14) (size 15 to 20)
#    0.000    1.833    4.167    1.500    0.000    2.000 
#    0.000    5.000    0.000    0.000    0.000    0.583 
#    0.000    2.000    0.000    0.000    0.000    0.000 
#
# Total GULP energy -595020.135193 kJ/mol
# GULP energy per Si atom -12396.252817 kJ/mol
# Density = 1.709157 g / cm^3
# Si number density = 17.130557 Si / 1000 Ang^3
#
#
#
# Elastic Constant Matrix: (Units=GPa)
#
#
# Indices 1 2 3 4 5 6 
#
# 1 105.7717 75.3562 37.7510 0.0000 0.0000 0.0000
# 2 75.3562 158.8296 45.8426 0.0000 0.0000 0.0000
# 3 37.7510 45.8426 65.0300 0.0000 0.0000 0.0000
# 4 0.0000 0.0000 0.0000 17.4795 0.0000 0.0000
# 5 0.0000 0.0000 0.0000 0.0000 19.9750 0.0000
# 6 0.0000 0.0000 0.0000 0.0000 0.0000 32.6037
#
#
#
# Elastic Compliance Matrix: (Units=1/GPa)
#
#
# Indices 1 2 3 4 5 6 
#
# 1 0.015367 -0.005921 -0.004747 0.000000 0.000000 0.000000
# 2 -0.005921 0.010185 -0.003743 0.000000 0.000000 0.000000
# 3 -0.004747 -0.003743 0.020772 0.000000 0.000000 0.000000
# 4 0.000000 0.000000 0.000000 0.057210 0.000000 0.000000
# 5 0.000000 0.000000 0.000000 0.000000 0.050063 0.000000
# 6 0.000000 0.000000 0.000000 0.000000 0.000000 0.030671
#
#
# Mechanical properties :
#
#
# Convention : Reuss Voigt Hill
#
# Bulk Modulus (GPa) = 57.13415 71.94786 64.54101
# Shear Modulus (GPa) = 22.83907 25.39042 24.11474
#
# Velocity S-wave (km/s) = 3.65531 3.85407 3.75601
# Velocity P-wave (km/s) = 7.15819 7.86741 7.52116
#
# Compressibility (1/GPa) = 0.01750267
#
# Stress axis : x y z
#
# Youngs Moduli (GPa) = 65.07629 98.17953 48.14190
#
# Poissons Ratio (x) = 0.58128 0.22852
# Poissons Ratio (y) = 0.38529 0.18020
# Poissons Ratio (z) = 0.30891 0.36750
#
# Static dielectric constant tensor:
#      x y z
#    x 3.354510 0.000000 0.000000 
#    y 0.000000 3.350370 0.000000 
#    z 0.000000 0.000000 3.043850 
# 
# 
# High freq. dielectric constant tensor:
#      x y z
#    x 1.671390 0.000000 0.000000 
#    y 0.000000 1.661730 0.000000 
#    z 0.000000 0.000000 1.635990 
# 
# From -- ./inp_files/29954.got.cif
#   From: 2010.06.25/outbox.cif.g09.slc.cpg/sg71_15_cif.got.tgz:29954.got - 2010.06.28 04:59:45.
