data_PCOD8289427
_publ_section_title
;
Structure prediction by ZEFSAII (Michael W. Deem and Ramdas Pophale) SiO2 
 PCOD8289427
Probable space group: I M M M
;
_chemical_formula_sum "Si O2"
_cell_formula_units_Z 120
_cell_length_a 21.248144
_cell_length_b 23.184675
_cell_length_c 13.678069
_cell_angle_alpha 90.000000
_cell_angle_beta 90.000000
_cell_angle_gamma 90.000000
_cell_volume 6738.245091
_symmetry_space_group_name_H-M "I M M M"
_symmetry_group_IT_number 71
_symmetry_cell_setting 'orthorhombic'
loop_
_space_group_symop_operation_xyz
x,y,z
-x,-y,z
x,-y,-z
-x,y,-z
-x,-y,-z
x,y,-z
-x,y,z
x,-y,z
1/2+x,1/2+y,1/2+z
1/2-x,1/2-y,1/2+z
1/2+x,1/2-y,1/2-z
1/2-x,1/2+y,1/2-z
1/2-x,1/2-y,1/2-z
1/2+x,1/2+y,1/2-z
1/2-x,1/2+y,1/2+z
1/2+x,1/2-y,1/2+z
loop_
_atom_site_type_symbol
_atom_site_label
_atom_site_fract_x
_atom_site_fract_y
_atom_site_fract_z
Si Si1 0.823107 0.935202 0.612773
Si Si2 0.204376 0.778486 0.114626
Si Si3 0.000000 0.433781 0.884707
Si Si4 0.571251 0.732994 0.286672
Si Si5 0.259607 0.836964 0.704401
Si Si6 0.571979 0.348911 0.109568
Si Si7 0.400066 0.860585 0.724878
Si Si8 0.571231 0.063893 0.110493
O O1 0.804215 0.938098 0.500000
O O2 0.776352 0.892014 0.665311
O O3 0.892532 0.909078 0.627912
O O4 0.820600 0.000000 0.657878
O O5 0.128352 0.775335 0.135709
O O6 0.236194 0.827125 0.183865
O O7 0.245852 0.721328 0.139533
O O8 0.212638 0.793757 0.000000
O O9 0.937387 0.402614 0.847164
O O10 0.000000 0.500000 0.849222
O O11 0.000000 0.429174 0.000000
O O12 0.500000 0.713358 0.322583
O O13 0.592065 0.699340 0.188322
O O14 0.564375 0.800188 0.261371
O O15 0.331313 0.852014 0.685333
O O16 0.500000 0.365258 0.122103
O O17 0.586570 0.324963 0.000000
O O18 0.389472 0.890096 0.829706
O O19 0.500000 0.063785 0.151642
O O20 0.600359 0.000000 0.120983
O O21 0.572073 0.084695 0.000000
#
# Coordination Sequence:
#
# PCOD8289427 Si02
#       8
#    16  16   8  16  16  16  16  16
#     4  10  20  35  57  83 113 149 187 226 272 333
#     4  10  21  38  59  81 113 152 186 231 290 343
#     4  11  24  40  57  79 113 157 197 236 282 326
#     4  10  19  34  55  85 113 141 186 233 284 341
#     4  10  22  38  54  83 114 146 190 233 278 336
#     4   9  18  33  55  83 117 147 175 224 286 341
#     4  11  21  35  54  77 110 143 183 233 279 328
#     4   9  17  30  49  71  96 130 173 219 267 316
#
# _framework density 17.808790999999999
#
# number of rings (size 3 to 8) (size 9 to 14) (size 15 to 20)
#    0.000    2.067    2.667    1.200    0.000    5.333 
#    0.000    4.000    0.000    0.400    0.000    0.000 
#    0.000    2.133    0.000    0.000    0.000    0.000 
#
# Total GULP energy -743450.926268 kJ/mol
# GULP energy per Si atom -12390.848771 kJ/mol
# Density = 1.776826 g / cm^3
# Si number density = 17.808791 Si / 1000 Ang^3
#
#
#
# Elastic Constant Matrix: (Units=GPa)
#
#
# Indices 1 2 3 4 5 6 
#
# 1 73.7687 37.4571 34.4019 0.0000 0.0000 0.0000
# 2 37.4571 119.0053 48.8691 0.0000 0.0000 0.0000
# 3 34.4019 48.8691 85.0168 0.0000 0.0000 0.0000
# 4 0.0000 0.0000 0.0000 14.6251 0.0000 0.0000
# 5 0.0000 0.0000 0.0000 0.0000 19.9271 0.0000
# 6 0.0000 0.0000 0.0000 0.0000 0.0000 23.1225
#
#
#
# Elastic Compliance Matrix: (Units=1/GPa)
#
#
# Indices 1 2 3 4 5 6 
#
# 1 0.017728 -0.003448 -0.005192 0.000000 0.000000 0.000000
# 2 -0.003448 0.011670 -0.005313 0.000000 0.000000 0.000000
# 3 -0.005192 -0.005313 0.016917 0.000000 0.000000 0.000000
# 4 0.000000 0.000000 0.000000 0.068376 0.000000 0.000000
# 5 0.000000 0.000000 0.000000 0.000000 0.050183 0.000000
# 6 0.000000 0.000000 0.000000 0.000000 0.000000 0.043248
#
#
# Mechanical properties :
#
#
# Convention : Reuss Voigt Hill
#
# Bulk Modulus (GPa) = 54.31838 57.69412 56.00625
# Shear Modulus (GPa) = 20.64727 22.00577 21.32652
#
# Velocity S-wave (km/s) = 3.40867 3.51902 3.46429
# Velocity P-wave (km/s) = 6.78669 6.99844 6.89338
#
# Compressibility (1/GPa) = 0.01840998
#
# Stress axis : x y z
#
# Youngs Moduli (GPa) = 56.40890 85.69023 59.11183
#
# Poissons Ratio (x) = 0.29545 0.30688
# Poissons Ratio (y) = 0.19449 0.31405
# Poissons Ratio (z) = 0.29285 0.45526
#
# Static dielectric constant tensor:
#      x y z
#    x 3.464950 0.000000 0.000000 
#    y 0.000000 3.363910 0.000000 
#    z 0.000000 0.000000 3.219510 
# 
# 
# High freq. dielectric constant tensor:
#      x y z
#    x 1.691650 0.000000 0.000000 
#    y 0.000000 1.682440 0.000000 
#    z 0.000000 0.000000 1.677630 
# 
# From -- ./inp_files/38407.got.cif
#   From: 2010.06.25/outbox.cif.g09.slc.cpg/sg71_20_cif.got.tgz:38407.got - 2010.06.28 04:59:45.
