data_PCOD8289011
_publ_section_title
;
Structure prediction by ZEFSAII (Michael W. Deem and Ramdas Pophale) SiO2 
 PCOD8289011
Probable space group: I M M M
;
_chemical_formula_sum "Si O2"
_cell_formula_units_Z 104
_cell_length_a 28.101300
_cell_length_b 21.093960
_cell_length_c 9.187693
_cell_angle_alpha 90.000000
_cell_angle_beta 90.000000
_cell_angle_gamma 90.000000
_cell_volume 5446.167631
_symmetry_space_group_name_H-M "I M M M"
_symmetry_group_IT_number 71
_symmetry_cell_setting 'orthorhombic'
loop_
_space_group_symop_operation_xyz
x,y,z
-x,-y,z
x,-y,-z
-x,y,-z
-x,-y,-z
x,y,-z
-x,y,z
x,-y,z
1/2+x,1/2+y,1/2+z
1/2-x,1/2-y,1/2+z
1/2+x,1/2-y,1/2-z
1/2-x,1/2+y,1/2-z
1/2-x,1/2-y,1/2-z
1/2+x,1/2+y,1/2-z
1/2-x,1/2+y,1/2+z
1/2+x,1/2-y,1/2+z
loop_
_atom_site_type_symbol
_atom_site_label
_atom_site_fract_x
_atom_site_fract_y
_atom_site_fract_z
Si Si1 0.387145 0.877635 0.171878
Si Si2 0.445636 0.000000 0.172881
Si Si3 0.554604 0.755332 0.167737
Si Si4 0.852297 0.928549 0.832467
Si Si5 0.552703 0.632625 0.332588
Si Si6 0.197995 0.817306 0.668601
Si Si7 0.309307 0.190295 0.330973
O O1 0.418151 0.817501 0.217995
O O2 0.337309 0.868664 0.256854
O O3 0.416057 0.938993 0.227334
O O4 0.377158 0.881990 0.000000
O O5 0.500000 0.000000 0.235426
O O6 0.449090 0.000000 0.000000
O O7 0.500000 0.767973 0.204958
O O8 0.573619 0.694366 0.252883
O O9 0.563156 0.740913 0.000000
O O10 0.909350 0.923210 0.806825
O O11 0.824085 0.881816 0.728226
O O12 0.837232 0.000000 0.793272
O O13 0.839882 0.912481 0.000000
O O14 0.548568 0.650756 0.500000
O O15 0.500000 0.612965 0.272971
O O16 0.184653 0.808855 0.500000
O O17 0.254093 0.823673 0.692501
O O18 0.176923 0.756438 0.752664
O O19 0.322868 0.195659 0.500000
#
# Coordination Sequence:
#
# PCOD8289011 Si02
#       7
#    16   8  16  16  16  16  16
#     4  10  19  32  53  80 107 141 184 226 270 322
#     4   9  18  34  55  79 111 151 193 233 274 327
#     4   9  17  29  47  73 103 134 171 217 265 309
#     4  10  21  36  54  78 108 144 181 216 259 310
#     4   9  18  32  50  74 104 137 173 213 257 308
#     4  10  21  38  59  82 107 139 178 222 273 327
#     4  10  21  37  58  82 108 137 172 222 280 330
#
# _framework density 19.095997000000001
#
# number of rings (size 3 to 8) (size 9 to 14) (size 15 to 20)
#    0.000    2.385    0.000    2.308    0.000    8.000 
#    1.385    1.923    0.000    1.846    0.000    3.231 
#    0.000    0.000    0.000    0.000    0.000    0.000 
#
# Total GULP energy -644777.514437 kJ/mol
# GULP energy per Si atom -12399.567585 kJ/mol
# Density = 1.905253 g / cm^3
# Si number density = 19.095997 Si / 1000 Ang^3
#
#
#
# Elastic Constant Matrix: (Units=GPa)
#
#
# Indices 1 2 3 4 5 6 
#
# 1 76.2366 56.7688 42.9837 0.0000 0.0000 0.0000
# 2 56.7688 106.9436 44.2524 0.0000 0.0000 0.0000
# 3 42.9837 44.2524 69.2952 0.0000 0.0000 0.0000
# 4 0.0000 0.0000 0.0000 27.0150 0.0000 0.0000
# 5 0.0000 0.0000 0.0000 0.0000 28.8555 0.0000
# 6 0.0000 0.0000 0.0000 0.0000 0.0000 31.7262
#
#
#
# Elastic Compliance Matrix: (Units=1/GPa)
#
#
# Indices 1 2 3 4 5 6 
#
# 1 0.025874 -0.009641 -0.009893 0.000000 0.000000 0.000000
# 2 -0.009641 0.016302 -0.004430 0.000000 0.000000 0.000000
# 3 -0.009893 -0.004430 0.023396 0.000000 0.000000 0.000000
# 4 0.000000 0.000000 0.000000 0.037017 0.000000 0.000000
# 5 0.000000 0.000000 0.000000 0.000000 0.034655 0.000000
# 6 0.000000 0.000000 0.000000 0.000000 0.000000 0.031520
#
#
# Mechanical properties :
#
#
# Convention : Reuss Voigt Hill
#
# Bulk Modulus (GPa) = 56.67502 60.05394 58.36448
# Shear Modulus (GPa) = 22.46460 24.75069 23.60764
#
# Velocity S-wave (km/s) = 3.43359 3.60407 3.51987
# Velocity P-wave (km/s) = 6.74262 6.98826 6.86654
#
# Compressibility (1/GPa) = 0.01764446
#
# Stress axis : x y z
#
# Youngs Moduli (GPa) = 38.64902 61.34370 42.74164
#
# Poissons Ratio (x) = 0.59142 0.42283
# Poissons Ratio (y) = 0.37262 0.18934
# Poissons Ratio (z) = 0.38234 0.27175
#
# Static dielectric constant tensor:
#      x y z
#    x 3.691900 0.000000 0.000000 
#    y 0.000000 3.573150 0.000000 
#    z 0.000000 0.000000 3.368450 
# 
# 
# High freq. dielectric constant tensor:
#      x y z
#    x 1.754530 0.000000 0.000000 
#    y 0.000000 1.731600 0.000000 
#    z 0.000000 0.000000 1.728140 
# 
# From -- ./inp_files/16983.got.cif
#   From: 2010.06.25/outbox.cif.g09.slc.cpg/sg71_9_cif.got.tgz:16983.got - 2010.06.28 04:59:45.
