data_PCOD8289383
_publ_section_title
;
Structure prediction by ZEFSAII (Michael W. Deem and Ramdas Pophale) SiO2 
 PCOD8289383
Probable space group: I M M M
;
_chemical_formula_sum "Si O2"
_cell_formula_units_Z 96
_cell_length_a 25.025316
_cell_length_b 23.678607
_cell_length_c 8.805198
_cell_angle_alpha 90.000000
_cell_angle_beta 90.000000
_cell_angle_gamma 90.000000
_cell_volume 5217.648830
_symmetry_space_group_name_H-M "I M M M"
_symmetry_group_IT_number 71
_symmetry_cell_setting 'orthorhombic'
loop_
_space_group_symop_operation_xyz
x,y,z
-x,-y,z
x,-y,-z
-x,y,-z
-x,-y,-z
x,y,-z
-x,y,z
x,-y,z
1/2+x,1/2+y,1/2+z
1/2-x,1/2-y,1/2+z
1/2+x,1/2-y,1/2-z
1/2-x,1/2+y,1/2-z
1/2-x,1/2-y,1/2-z
1/2+x,1/2+y,1/2-z
1/2-x,1/2+y,1/2+z
1/2+x,1/2-y,1/2+z
loop_
_atom_site_type_symbol
_atom_site_label
_atom_site_fract_x
_atom_site_fract_y
_atom_site_fract_z
Si Si1 0.249535 0.688940 0.678463
Si Si2 0.060279 0.195078 0.674962
Si Si3 0.850211 0.614685 0.679330
Si Si4 0.657510 0.619823 0.822803
Si Si5 0.437765 0.811241 0.323857
Si Si6 0.184431 0.500000 0.180456
Si Si7 0.194602 0.000000 0.320822
O O1 0.247343 0.696090 0.500000
O O2 0.250000 0.750000 0.750000
O O3 0.198301 0.654072 0.736886
O O4 0.302823 0.657261 0.725631
O O5 0.065090 0.213771 0.500000
O O6 0.097554 0.141265 0.709487
O O7 0.079139 0.248200 0.774478
O O8 0.000000 0.176719 0.716264
O O9 0.848609 0.605866 0.500000
O O10 0.905807 0.642902 0.727149
O O11 0.846505 0.554452 0.759552
O O12 0.662329 0.555217 0.765626
O O13 0.672671 0.625375 0.000000
O O14 0.424030 0.818716 0.500000
O O15 0.500000 0.821076 0.289245
O O16 0.245171 0.500000 0.245311
O O17 0.183531 0.500000 0.000000
O O18 0.198650 0.000000 0.500000
#
# Coordination Sequence:
#
# PCOD8289383 Si02
#       7
#    16  16  16  16  16   8   8
#     4  11  23  35  51  78 110 140 175 221 273 325
#     4   9  18  33  54  80 111 146 182 225 277 327
#     4  11  23  38  56  81 112 144 180 224 273 327
#     4  10  19  34  54  77 107 143 185 225 268 323
#     4  10  21  37  58  83 110 142 182 226 271 324
#     4  11  21  37  60  81 107 147 186 226 271 321
#     4   9  18  33  54  78 105 143 185 224 268 315
#
# _framework density 18.399093000000001
#
# number of rings (size 3 to 8) (size 9 to 14) (size 15 to 20)
#    0.000    1.833    1.667    2.750    0.000    7.667 
#    0.000    1.250    0.000    5.000    0.000    0.000 
#    0.000    4.000    0.000    0.000    0.000    0.000 
#
# Total GULP energy -595368.392521 kJ/mol
# GULP energy per Si atom -12403.508178 kJ/mol
# Density = 1.835722 g / cm^3
# Si number density = 18.399093 Si / 1000 Ang^3
#
#
#
# Elastic Constant Matrix: (Units=GPa)
#
#
# Indices 1 2 3 4 5 6 
#
# 1 95.8280 66.0852 26.0358 0.0000 0.0000 0.0000
# 2 66.0852 157.1031 33.7113 0.0000 0.0000 0.0000
# 3 26.0358 33.7113 49.7373 0.0000 0.0000 0.0000
# 4 0.0000 0.0000 0.0000 28.5049 0.0000 0.0000
# 5 0.0000 0.0000 0.0000 0.0000 26.8803 0.0000
# 6 0.0000 0.0000 0.0000 0.0000 0.0000 30.1832
#
#
#
# Elastic Compliance Matrix: (Units=1/GPa)
#
#
# Indices 1 2 3 4 5 6 
#
# 1 0.015451 -0.005575 -0.004310 0.000000 0.000000 0.000000
# 2 -0.005575 0.009460 -0.003494 0.000000 0.000000 0.000000
# 3 -0.004310 -0.003494 0.024729 0.000000 0.000000 0.000000
# 4 0.000000 0.000000 0.000000 0.035082 0.000000 0.000000
# 5 0.000000 0.000000 0.000000 0.000000 0.037202 0.000000
# 6 0.000000 0.000000 0.000000 0.000000 0.000000 0.033131
#
#
# Mechanical properties :
#
#
# Convention : Reuss Voigt Hill
#
# Bulk Modulus (GPa) = 43.69779 61.59256 52.64518
# Shear Modulus (GPa) = 26.39385 28.90276 27.64830
#
# Velocity S-wave (km/s) = 3.79161 3.96773 3.88067
# Velocity P-wave (km/s) = 6.55515 7.38506 6.98244
#
# Compressibility (1/GPa) = 0.02288445
#
# Stress axis : x y z
#
# Youngs Moduli (GPa) = 64.72265 105.71013 40.43754
#
# Poissons Ratio (x) = 0.58928 0.17427
# Poissons Ratio (y) = 0.36080 0.14128
# Poissons Ratio (z) = 0.27892 0.36932
#
# Static dielectric constant tensor:
#      x y z
#    x 3.403210 0.000000 0.000000 
#    y 0.000000 3.460740 0.000000 
#    z 0.000000 0.000000 3.348480 
# 
# 
# High freq. dielectric constant tensor:
#      x y z
#    x 1.713050 0.000000 0.000000 
#    y 0.000000 1.716370 0.000000 
#    z 0.000000 0.000000 1.710160 
# 
# From -- ./inp_files/12906.got.cif
#   From: 2010.06.25/outbox.cif.g09.slc.cpg/sg71_7_cif.got.tgz:12906.got - 2010.06.28 04:59:45.
