data_PCOD8289315
_publ_section_title
;
Structure prediction by ZEFSAII (Michael W. Deem and Ramdas Pophale) SiO2 
 PCOD8289315
Probable space group: I M M M
;
_chemical_formula_sum "Si O2"
_cell_formula_units_Z 88
_cell_length_a 16.747350
_cell_length_b 16.339754
_cell_length_c 16.947634
_cell_angle_alpha 90.000000
_cell_angle_beta 90.000000
_cell_angle_gamma 90.000000
_cell_volume 4637.679016
_symmetry_space_group_name_H-M "I M M M"
_symmetry_group_IT_number 71
_symmetry_cell_setting 'orthorhombic'
loop_
_space_group_symop_operation_xyz
x,y,z
-x,-y,z
x,-y,-z
-x,y,-z
-x,-y,-z
x,y,-z
-x,y,z
x,-y,z
1/2+x,1/2+y,1/2+z
1/2-x,1/2-y,1/2+z
1/2+x,1/2-y,1/2-z
1/2-x,1/2+y,1/2-z
1/2-x,1/2-y,1/2-z
1/2+x,1/2+y,1/2-z
1/2-x,1/2+y,1/2+z
1/2+x,1/2-y,1/2+z
loop_
_atom_site_type_symbol
_atom_site_label
_atom_site_fract_x
_atom_site_fract_y
_atom_site_fract_z
Si Si1 0.186503 0.695437 0.205988
Si Si2 0.594625 0.356704 0.000000
Si Si3 0.093953 0.594795 0.337025
Si Si4 0.904848 0.000000 0.911160
Si Si5 0.405598 0.653751 0.687997
Si Si6 0.594451 0.169130 0.000000
Si Si7 0.175835 0.906427 0.342910
O O1 0.250000 0.750000 0.250000
O O2 0.135513 0.643164 0.267208
O O3 0.128844 0.758324 0.158421
O O4 0.236124 0.634736 0.148862
O O5 0.629425 0.401969 0.075509
O O6 0.500000 0.365674 0.000000
O O7 0.622325 0.262745 0.000000
O O8 0.115038 0.500000 0.328328
O O9 0.127948 0.625533 0.421381
O O10 0.000000 0.611473 0.330916
O O11 0.872407 0.918696 0.867767
O O12 0.000000 0.000000 0.909563
O O13 0.871703 0.000000 0.000000
O O14 0.500000 0.657738 0.685073
O O15 0.377944 0.638549 0.777461
O O16 0.500000 0.160920 0.000000
O O17 0.187562 0.000000 0.318004
#
# Coordination Sequence:
#
# PCOD8289315 Si02
#       7
#    16   8  16   8  16   8  16
#     4  10  21  35  53  75 112 152 189 229 282 350
#     4  11  23  37  59  87 112 147 197 243 288 347
#     4  10  19  33  56  84 113 150 198 244 287 345
#     4   9  18  34  58  87 113 137 177 234 285 338
#     4  10  19  35  60  85 111 147 187 234 290 346
#     4   9  17  31  51  81 117 148 182 236 297 336
#     4  11  22  37  56  79 115 150 189 240 293 348
#
# _framework density 18.975007999999999
#
# number of rings (size 3 to 8) (size 9 to 14) (size 15 to 20)
#    0.000    1.909    0.909    4.364    0.000    4.000 
#    1.636    0.000    6.000    0.000    0.000    0.000 
#    0.000    4.364    0.000    0.000    0.000    0.000 
#
# Total GULP energy -545543.168140 kJ/mol
# GULP energy per Si atom -12398.708367 kJ/mol
# Density = 1.893182 g / cm^3
# Si number density = 18.975008 Si / 1000 Ang^3
#
#
#
# Elastic Constant Matrix: (Units=GPa)
#
#
# Indices 1 2 3 4 5 6 
#
# 1 69.0762 56.2447 29.7921 0.0000 0.0000 0.0000
# 2 56.2447 118.4732 22.0940 0.0000 0.0000 0.0000
# 3 29.7921 22.0940 79.1852 0.0000 0.0000 0.0000
# 4 0.0000 0.0000 0.0000 32.9724 0.0000 0.0000
# 5 0.0000 0.0000 0.0000 0.0000 22.3130 0.0000
# 6 0.0000 0.0000 0.0000 0.0000 0.0000 34.3059
#
#
#
# Elastic Compliance Matrix: (Units=1/GPa)
#
#
# Indices 1 2 3 4 5 6 
#
# 1 0.026731 -0.011408 -0.006874 0.000000 0.000000 0.000000
# 2 -0.011408 0.013773 0.000449 0.000000 0.000000 0.000000
# 3 -0.006874 0.000449 0.015089 0.000000 0.000000 0.000000
# 4 0.000000 0.000000 0.000000 0.030328 0.000000 0.000000
# 5 0.000000 0.000000 0.000000 0.000000 0.044817 0.000000
# 6 0.000000 0.000000 0.000000 0.000000 0.000000 0.029150
#
#
# Mechanical properties :
#
#
# Convention : Reuss Voigt Hill
#
# Bulk Modulus (GPa) = 50.18246 53.66623 51.92435
# Shear Modulus (GPa) = 24.72850 28.49184 26.61017
#
# Velocity S-wave (km/s) = 3.61392 3.87918 3.74890
# Velocity P-wave (km/s) = 6.62706 6.95759 6.79434
#
# Compressibility (1/GPa) = 0.01992728
#
# Stress axis : x y z
#
# Youngs Moduli (GPa) = 37.41039 72.60580 66.27159
#
# Poissons Ratio (x) = 0.82831 0.45554
# Poissons Ratio (y) = 0.42679 -0.02978
# Poissons Ratio (z) = 0.25715 -0.03262
#
# Static dielectric constant tensor:
#      x y z
#    x 3.582980 0.000000 0.000000 
#    y 0.000000 4.175680 0.000000 
#    z 0.000000 0.000000 3.283830 
# 
# 
# High freq. dielectric constant tensor:
#      x y z
#    x 1.727080 0.000000 0.000000 
#    y 0.000000 1.759180 0.000000 
#    z 0.000000 0.000000 1.714690 
# 
# From -- ./inp_files/45894.got.cif
#   From: 2010.06.25/outbox.cif.g09.slc.cpg/sg71_23_cif.got.tgz:45894.got - 2010.06.28 04:59:45.
