data_PCOD8289647
_publ_section_title
;
Structure prediction by ZEFSAII (Michael W. Deem and Ramdas Pophale) SiO2 
 PCOD8289647
Probable space group: I M M M
;
_chemical_formula_sum "Si O2"
_cell_formula_units_Z 92
_cell_length_a 16.772504
_cell_length_b 22.823843
_cell_length_c 12.568743
_cell_angle_alpha 90.000000
_cell_angle_beta 90.000000
_cell_angle_gamma 90.000000
_cell_volume 4811.478189
_symmetry_space_group_name_H-M "I M M M"
_symmetry_group_IT_number 71
_symmetry_cell_setting 'orthorhombic'
loop_
_space_group_symop_operation_xyz
x,y,z
-x,-y,z
x,-y,-z
-x,y,-z
-x,-y,-z
x,y,-z
-x,y,z
x,-y,z
1/2+x,1/2+y,1/2+z
1/2-x,1/2-y,1/2+z
1/2+x,1/2-y,1/2-z
1/2-x,1/2+y,1/2-z
1/2-x,1/2-y,1/2-z
1/2+x,1/2+y,1/2-z
1/2-x,1/2+y,1/2+z
1/2+x,1/2-y,1/2+z
loop_
_atom_site_type_symbol
_atom_site_label
_atom_site_fract_x
_atom_site_fract_y
_atom_site_fract_z
Si Si1 0.908453 0.770369 0.718840
Si Si2 0.243177 0.376897 0.500000
Si Si3 0.590212 0.794404 0.000000
Si Si4 0.907926 0.674709 0.879997
Si Si5 0.411334 0.500000 0.333865
Si Si6 0.169440 0.888791 0.778925
Si Si7 0.300989 0.066592 0.620397
Si Si8 0.772180 0.000000 0.000000
O O1 0.898842 0.746599 0.600845
O O2 0.870237 0.723031 0.800869
O O3 0.861171 0.830539 0.722895
O O4 0.000000 0.782101 0.750064
O O5 0.161061 0.341528 0.500000
O O6 0.298667 0.368616 0.604416
O O7 0.214290 0.444425 0.500000
O O8 0.500000 0.822516 0.000000
O O9 0.874263 0.610111 0.860333
O O10 0.000000 0.668491 0.853528
O O11 0.891635 0.696573 0.000000
O O12 0.500000 0.500000 0.386362
O O13 0.401988 0.562676 0.274901
O O14 0.332537 0.500000 0.403341
O O15 0.236631 0.917389 0.707279
O O16 0.267098 0.073850 0.500000
O O17 0.330440 0.000000 0.638780
#
# Coordination Sequence:
#
# PCOD8289647 Si02
#       8
#    16   8   8  16   8  16  16   4
#     4  10  22  39  58  83 115 150 190 235 280 337
#     4  10  22  37  59  86 114 148 187 236 290 333
#     4  10  22  40  58  80 116 156 191 229 276 337
#     4   9  19  36  58  84 113 145 184 233 287 339
#     4  10  19  36  59  81 110 148 184 224 280 338
#     4  11  22  38  58  85 115 146 189 236 285 335
#     4  10  21  37  57  82 115 150 187 233 280 332
#     4   8  19  36  55  86 116 140 180 236 281 328
#
# _framework density 19.120943
#
# number of rings (size 3 to 8) (size 9 to 14) (size 15 to 20)
#    0.000    2.087    0.870    1.696    2.435    3.130 
#    0.000    2.826    0.000    0.522    0.000    0.000 
#    0.000    0.000    0.000    0.000    0.000    0.000 
#
# Total GULP energy -569950.374148 kJ/mol
# GULP energy per Si atom -12390.225525 kJ/mol
# Density = 1.907742 g / cm^3
# Si number density = 19.120943 Si / 1000 Ang^3
#
#
#
# Elastic Constant Matrix: (Units=GPa)
#
#
# Indices 1 2 3 4 5 6 
#
# 1 64.9993 49.7868 26.0995 0.0000 0.0000 0.0000
# 2 49.7868 148.1446 46.1926 0.0000 0.0000 0.0000
# 3 26.0995 46.1926 99.5737 0.0001 0.0000 0.0000
# 4 0.0000 0.0000 0.0001 14.6508 0.0000 0.0000
# 5 0.0000 0.0000 0.0000 0.0000 24.3364 0.0000
# 6 0.0000 0.0000 0.0000 0.0000 0.0000 26.3851
#
#
#
# Elastic Compliance Matrix: (Units=1/GPa)
#
#
# Indices 1 2 3 4 5 6 
#
# 1 0.021297 -0.006333 -0.002644 0.000000 0.000000 0.000000
# 2 -0.006333 0.009775 -0.002875 0.000000 0.000000 0.000000
# 3 -0.002644 -0.002875 0.012070 0.000000 0.000000 0.000000
# 4 0.000000 0.000000 0.000000 0.068255 0.000000 0.000000
# 5 0.000000 0.000000 0.000000 0.000000 0.041091 0.000000
# 6 0.000000 0.000000 0.000000 0.000000 0.000000 0.037900
#
#
# Mechanical properties :
#
#
# Convention : Reuss Voigt Hill
#
# Bulk Modulus (GPa) = 51.44629 61.87506 56.66068
# Shear Modulus (GPa) = 22.66843 25.78371 24.22607
#
# Velocity S-wave (km/s) = 3.44689 3.67611 3.56334
# Velocity P-wave (km/s) = 6.54259 7.10271 6.82840
#
# Compressibility (1/GPa) = 0.01943775
#
# Stress axis : x y z
#
# Youngs Moduli (GPa) = 46.95427 102.30434 82.85336
#
# Poissons Ratio (x) = 0.64787 0.21910
# Poissons Ratio (y) = 0.29735 0.23817
# Poissons Ratio (z) = 0.12417 0.29409
#
# Static dielectric constant tensor:
#      x y z
#    x 3.353600 0.000000 0.000000 
#    y 0.000000 3.920150 0.000000 
#    z 0.000000 0.000000 3.912480 
# 
# 
# High freq. dielectric constant tensor:
#      x y z
#    x 1.726590 0.000000 0.000000 
#    y 0.000000 1.758840 0.000000 
#    z 0.000000 0.000000 1.750430 
# 
# From -- ./inp_files/24295.got.cif
#   From: 2010.06.25/outbox.cif.g09.slc.cpg/sg71_13_cif.got.tgz:24295.got - 2010.06.28 04:59:45.
