data_PCOD8289696
_publ_section_title
;
Structure prediction by ZEFSAII (Michael W. Deem and Ramdas Pophale) SiO2 
 PCOD8289696
Probable space group: I M M M
;
_chemical_formula_sum "Si O2"
_cell_formula_units_Z 104
_cell_length_a 27.639558
_cell_length_b 9.454701
_cell_length_c 23.714805
_cell_angle_alpha 90.000000
_cell_angle_beta 90.000000
_cell_angle_gamma 90.000000
_cell_volume 6197.241931
_symmetry_space_group_name_H-M "I M M M"
_symmetry_group_IT_number 71
_symmetry_cell_setting 'orthorhombic'
loop_
_space_group_symop_operation_xyz
x,y,z
-x,-y,z
x,-y,-z
-x,y,-z
-x,-y,-z
x,y,-z
-x,y,z
x,-y,z
1/2+x,1/2+y,1/2+z
1/2-x,1/2-y,1/2+z
1/2+x,1/2-y,1/2-z
1/2-x,1/2+y,1/2-z
1/2-x,1/2-y,1/2-z
1/2+x,1/2+y,1/2-z
1/2-x,1/2+y,1/2+z
1/2+x,1/2-y,1/2+z
loop_
_atom_site_type_symbol
_atom_site_label
_atom_site_fract_x
_atom_site_fract_y
_atom_site_fract_z
Si Si1 0.053383 0.658217 0.567073
Si Si2 0.500000 0.160383 0.433076
Si Si3 0.140231 0.156771 0.433430
Si Si4 0.298871 0.837528 0.750378
Si Si5 0.823941 0.164115 0.151666
Si Si6 0.907767 0.836099 0.934863
Si Si7 0.213892 0.658654 0.374622
O O1 0.055843 0.658101 0.500000
O O2 0.063635 0.500000 0.589560
O O3 0.093864 0.761892 0.592558
O O4 0.000000 0.708837 0.586813
O O5 0.500000 0.160793 0.500000
O O6 0.452264 0.242320 0.411880
O O7 0.500000 0.000000 0.409388
O O8 0.135922 0.149497 0.500000
O O9 0.189814 0.235316 0.418505
O O10 0.141008 0.000000 0.407226
O O11 0.250000 0.750000 0.750000
O O12 0.335794 0.760225 0.706974
O O13 0.315831 0.832683 0.815461
O O14 0.290473 0.000000 0.731372
O O15 0.860900 0.202813 0.101925
O O16 0.770038 0.201712 0.130907
O O17 0.827636 0.000000 0.169160
O O18 0.922185 0.000000 0.927959
O O19 0.895563 0.801431 0.000000
O O20 0.210402 0.500000 0.399021
#
# Coordination Sequence:
#
# PCOD8289696 Si02
#       7
#    16   8  16  16  16  16  16
#     4   8  14  26  44  63  82 108 144 182 218 259
#     4   9  17  29  45  67  95 125 159 197 234 275
#     4  10  20  30  41  63  93 122 151 183 224 271
#     4   9  17  30  48  68  89 115 151 193 231 268
#     4   9  18  31  48  71  94 119 155 194 232 273
#     4   9  17  30  48  70  97 128 160 193 232 281
#     4   9  18  31  46  65  90 122 157 189 225 273
#
# _framework density 16.781658
#
# number of rings (size 3 to 8) (size 9 to 14) (size 15 to 20)
#    0.000    3.000    0.000    2.538    0.000    6.462 
#    0.000    3.077    0.000    1.846    2.000    0.000 
#    0.000    0.000    0.000    0.000    0.000    0.000 
#
# Total GULP energy -644479.878779 kJ/mol
# GULP energy per Si atom -12393.843823 kJ/mol
# Density = 1.674346 g / cm^3
# Si number density = 16.781658 Si / 1000 Ang^3
#
#
#
# Elastic Constant Matrix: (Units=GPa)
#
#
# Indices 1 2 3 4 5 6 
#
# 1 104.9291 58.9113 34.2762 0.0000 0.0000 0.0000
# 2 58.9113 105.2546 28.8153 0.0000 0.0000 0.0000
# 3 34.2762 28.8153 38.7473 0.0000 0.0000 0.0000
# 4 0.0000 0.0000 0.0000 25.4885 0.0000 0.0000
# 5 0.0000 0.0000 0.0000 0.0000 9.5692 0.0000
# 6 0.0000 0.0000 0.0000 0.0000 0.0000 23.4176
#
#
#
# Elastic Compliance Matrix: (Units=1/GPa)
#
#
# Indices 1 2 3 4 5 6 
#
# 1 0.016318 -0.006506 -0.009597 0.000000 0.000000 0.000000
# 2 -0.006506 0.014523 -0.005046 0.000000 0.000000 0.000000
# 3 -0.009597 -0.005046 0.038050 0.000000 0.000000 0.000000
# 4 0.000000 0.000000 0.000000 0.039233 0.000000 0.000000
# 5 0.000000 0.000000 0.000000 0.000000 0.104501 0.000000
# 6 0.000000 0.000000 0.000000 0.000000 0.000000 0.042703
#
#
# Mechanical properties :
#
#
# Convention : Reuss Voigt Hill
#
# Bulk Modulus (GPa) = 37.60121 54.77074 46.18598
# Shear Modulus (GPa) = 16.31377 20.15694 18.23535
#
# Velocity S-wave (km/s) = 3.12127 3.46949 3.29997
# Velocity P-wave (km/s) = 5.95353 6.98269 6.48855
#
# Compressibility (1/GPa) = 0.02659489
#
# Stress axis : x y z
#
# Youngs Moduli (GPa) = 61.28318 68.85433 26.28145
#
# Poissons Ratio (x) = 0.44795 0.25221
# Poissons Ratio (y) = 0.39870 0.13260
# Poissons Ratio (z) = 0.58811 0.34741
#
# Static dielectric constant tensor:
#      x y z
#    x 3.104300 0.000000 0.000000 
#    y 0.000000 3.431310 0.000000 
#    z 0.000000 0.000000 3.074830 
# 
# 
# High freq. dielectric constant tensor:
#      x y z
#    x 1.631910 0.000000 0.000000 
#    y 0.000000 1.656330 0.000000 
#    z 0.000000 0.000000 1.610460 
# 
# From -- ./inp_files/58191.got.cif
#   From: 2010.06.25/outbox.cif.g09.slc.cpg/sg71_30_cif.got.tgz:58191.got - 2010.06.28 04:59:45.
