data_PCOD8289658
_publ_section_title
;
Structure prediction by ZEFSAII (Michael W. Deem and Ramdas Pophale) SiO2 
 PCOD8289658
Probable space group: I M M M
;
_chemical_formula_sum "Si O2"
_cell_formula_units_Z 104
_cell_length_a 21.872586
_cell_length_b 27.628729
_cell_length_c 8.811373
_cell_angle_alpha 90.000000
_cell_angle_beta 90.000000
_cell_angle_gamma 90.000000
_cell_volume 5324.816247
_symmetry_space_group_name_H-M "I M M M"
_symmetry_group_IT_number 71
_symmetry_cell_setting 'orthorhombic'
loop_
_space_group_symop_operation_xyz
x,y,z
-x,-y,z
x,-y,-z
-x,y,-z
-x,-y,-z
x,y,-z
-x,y,z
x,-y,z
1/2+x,1/2+y,1/2+z
1/2-x,1/2-y,1/2+z
1/2+x,1/2-y,1/2-z
1/2-x,1/2+y,1/2-z
1/2-x,1/2-y,1/2-z
1/2+x,1/2+y,1/2-z
1/2-x,1/2+y,1/2+z
1/2+x,1/2-y,1/2+z
loop_
_atom_site_type_symbol
_atom_site_label
_atom_site_fract_x
_atom_site_fract_y
_atom_site_fract_z
Si Si1 0.128332 0.055526 0.823381
Si Si2 0.197778 0.860163 0.679552
Si Si3 0.670162 0.828926 0.320498
Si Si4 0.072565 0.500000 0.330126
Si Si5 0.624338 0.726614 0.320252
Si Si6 0.069273 0.597921 0.820066
Si Si7 0.500000 0.602534 0.675635
Si Si8 0.000000 0.205932 0.679219
O O1 0.176873 0.086331 0.726747
O O2 0.059091 0.070642 0.785064
O O3 0.137074 0.000000 0.775640
O O4 0.142252 0.063566 0.000000
O O5 0.193441 0.853738 0.500000
O O6 0.266245 0.850595 0.741028
O O7 0.153177 0.822132 0.757502
O O8 0.669020 0.832428 0.500000
O O9 0.664200 0.773071 0.269326
O O10 0.613042 0.859734 0.256415
O O11 0.099183 0.500000 0.500000
O O12 0.095920 0.452334 0.244108
O O13 0.000000 0.500000 0.329960
O O14 0.618548 0.722540 0.500000
O O15 0.557752 0.733287 0.249557
O O16 0.000000 0.608102 0.763115
O O17 0.070880 0.594506 0.000000
O O18 0.500000 0.618942 0.500000
O O19 0.500000 0.649478 0.779983
O O20 0.000000 0.211673 0.500000
#
# Coordination Sequence:
#
# PCOD8289658 Si02
#       8
#    16  16  16   8  16  16   8   8
#     4  10  21  38  61  88 118 156 203 248 293 350
#     4  11  22  39  59  84 120 155 193 241 292 347
#     4   9  21  38  59  87 114 149 195 240 288 344
#     4   9  17  31  51  77 111 143 171 216 283 342
#     4  11  22  39  63  86 114 155 199 240 287 347
#     4   9  17  33  58  82 104 138 189 237 276 332
#     4  10  19  36  62  88 117 155 197 243 295 348
#     4  12  24  37  57  91 125 154 191 246 303 355
#
# _framework density 19.531189999999999
#
# number of rings (size 3 to 8) (size 9 to 14) (size 15 to 20)
#    0.000    1.923    1.538    2.538    1.077    2.154 
#    1.385    5.385    0.000    1.385    0.000    0.000 
#    0.000    0.000    0.000    0.000    0.000    0.000 
#
# Total GULP energy -644914.022493 kJ/mol
# GULP energy per Si atom -12402.192740 kJ/mol
# Density = 1.948674 g / cm^3
# Si number density = 19.531190 Si / 1000 Ang^3
#
#
#
# Elastic Constant Matrix: (Units=GPa)
#
#
# Indices 1 2 3 4 5 6 
#
# 1 128.5636 55.1969 36.8616 0.0000 0.0000 0.0000
# 2 55.1969 118.5221 33.6474 0.0000 0.0000 0.0000
# 3 36.8616 33.6474 69.5869 0.0000 0.0000 0.0000
# 4 0.0000 0.0000 0.0000 18.8865 0.0000 0.0000
# 5 0.0000 0.0000 0.0000 0.0000 21.2067 0.0000
# 6 0.0000 0.0000 0.0000 0.0000 0.0000 40.0993
#
#
#
# Elastic Compliance Matrix: (Units=1/GPa)
#
#
# Indices 1 2 3 4 5 6 
#
# 1 0.010485 -0.003832 -0.003701 0.000000 0.000000 0.000000
# 2 -0.003832 0.011180 -0.003376 0.000000 0.000000 0.000000
# 3 -0.003701 -0.003376 0.017963 0.000000 0.000000 0.000000
# 4 0.000000 0.000000 0.000000 0.052948 0.000000 0.000000
# 5 0.000000 0.000000 0.000000 0.000000 0.047155 0.000000
# 6 0.000000 0.000000 0.000000 0.000000 0.000000 0.024938
#
#
# Mechanical properties :
#
#
# Convention : Reuss Voigt Hill
#
# Bulk Modulus (GPa) = 56.14804 63.12049 59.63427
# Shear Modulus (GPa) = 25.98422 28.76961 27.37691
#
# Velocity S-wave (km/s) = 3.65142 3.84214 3.74799
# Velocity P-wave (km/s) = 6.82550 7.21600 7.02346
#
# Compressibility (1/GPa) = 0.01781006
#
# Stress axis : x y z
#
# Youngs Moduli (GPa) = 95.37735 89.44272 55.66854
#
# Poissons Ratio (x) = 0.34276 0.20603
# Poissons Ratio (y) = 0.36550 0.18794
# Poissons Ratio (z) = 0.35299 0.30197
#
# Static dielectric constant tensor:
#      x y z
#    x 3.712230 0.000000 0.000000 
#    y 0.000000 3.688560 0.000000 
#    z 0.000000 0.000000 3.391780 
# 
# 
# High freq. dielectric constant tensor:
#      x y z
#    x 1.760170 0.000000 0.000000 
#    y 0.000000 1.768680 0.000000 
#    z 0.000000 0.000000 1.744020 
# 
# From -- ./inp_files/11210.got.cif
#   From: 2010.06.25/outbox.cif.g09.slc.cpg/sg71_6_cif.got.tgz:11210.got - 2010.06.28 04:59:45.
