data_PCOD8289607
_publ_section_title
;
Structure prediction by ZEFSAII (Michael W. Deem and Ramdas Pophale) SiO2 
 PCOD8289607
Probable space group: I M M M
;
_chemical_formula_sum "Si O2"
_cell_formula_units_Z 64
_cell_length_a 21.968027
_cell_length_b 7.648854
_cell_length_c 17.806974
_cell_angle_alpha 90.000000
_cell_angle_beta 90.000000
_cell_angle_gamma 90.000000
_cell_volume 2992.109958
_symmetry_space_group_name_H-M "I M M M"
_symmetry_group_IT_number 71
_symmetry_cell_setting 'orthorhombic'
loop_
_space_group_symop_operation_xyz
x,y,z
-x,-y,z
x,-y,-z
-x,y,-z
-x,-y,-z
x,y,-z
-x,y,z
x,-y,z
1/2+x,1/2+y,1/2+z
1/2-x,1/2-y,1/2+z
1/2+x,1/2-y,1/2-z
1/2-x,1/2+y,1/2-z
1/2-x,1/2-y,1/2-z
1/2+x,1/2+y,1/2-z
1/2-x,1/2+y,1/2+z
1/2+x,1/2-y,1/2+z
loop_
_atom_site_type_symbol
_atom_site_label
_atom_site_fract_x
_atom_site_fract_y
_atom_site_fract_z
Si Si1 0.137183 0.801443 0.329852
Si Si2 0.571574 0.000000 0.084712
Si Si3 0.000000 0.791360 0.914555
Si Si4 0.754184 0.792837 0.914509
Si Si5 0.622984 0.706781 0.659835
O O1 0.094843 0.677350 0.378536
O O2 0.206132 0.797721 0.359431
O O3 0.134028 0.731013 0.244814
O O4 0.112409 0.000000 0.335214
O O5 0.500000 0.000000 0.089452
O O6 0.596078 0.000000 0.000000
O O7 0.059733 0.716033 0.872377
O O8 0.000000 0.000000 0.912883
O O9 0.000000 0.723288 0.000000
O O10 0.821094 0.726338 0.890965
O O11 0.747587 0.000000 0.905312
O O12 0.742160 0.734459 0.000000
O O13 0.620409 0.500000 0.655628
#
# Coordination Sequence:
#
# PCOD8289607 Si02
#       5
#    16   8   8  16  16
#     4  11  23  40  65  92 125 162 206 258 313 369
#     4  11  26  46  66  92 124 161 209 255 308 376
#     4   9  16  30  54  87 125 162 207 255 306 368
#     4  10  19  35  59  87 124 166 210 258 311 368
#     4   9  19  33  55  89 125 164 208 255 309 371
#
# _framework density 21.389589000000001
#
# number of rings (size 3 to 8) (size 9 to 14) (size 15 to 20)
#    0.000    2.000    1.250    2.250    1.750    5.500 
#    2.250    1.250    0.000    0.000    0.000    0.875 
#    0.000    0.000    0.000    0.000    0.000    0.000 
#
# Total GULP energy -396856.815116 kJ/mol
# GULP energy per Si atom -12401.775472 kJ/mol
# Density = 2.134091 g / cm^3
# Si number density = 21.389589 Si / 1000 Ang^3
#
#
#
# Elastic Constant Matrix: (Units=GPa)
#
#
# Indices 1 2 3 4 5 6 
#
# 1 124.3334 15.4312 93.7251 0.0000 0.0000 0.0000
# 2 15.4312 65.5787 28.8558 0.0000 0.0000 0.0000
# 3 93.7251 28.8558 192.0902 0.0000 0.0000 0.0000
# 4 0.0000 0.0000 0.0000 23.0775 0.0000 0.0000
# 5 0.0000 0.0000 0.0000 0.0000 -144.7504 0.0000
# 6 0.0000 0.0000 0.0000 0.0000 0.0000 11.9520
#
#
#
# Elastic Compliance Matrix: (Units=1/GPa)
#
#
# Indices 1 2 3 4 5 6 
#
# 1 0.012727 -0.000281 -0.006168 0.000000 0.000000 0.000000
# 2 -0.000281 0.016334 -0.002317 0.000000 0.000000 0.000000
# 3 -0.006168 -0.002317 0.008563 0.000000 0.000000 0.000000
# 4 0.000000 0.000000 0.000000 0.043332 0.000000 0.000000
# 5 0.000000 0.000000 0.000000 0.000000 -0.006908 0.000000
# 6 0.000000 0.000000 0.000000 0.000000 0.000000 0.083668
#
#
# Mechanical properties :
#
#
# Convention : Reuss Voigt Hill
#
# Bulk Modulus (GPa) = 49.76566 73.11404 61.43985
# Shear Modulus (GPa) = 27.48089 -5.67814 10.90137
#
# Velocity S-wave (km/s) = 3.58827 -1.63107 2.26001
# Velocity P-wave (km/s) = 6.36273 5.54158 5.96630
#
# Compressibility (1/GPa) = 0.02009418
#
# Stress axis : x y z
#
# Youngs Moduli (GPa) = 78.57294 61.22077 116.77864
#
# Poissons Ratio (x) = 0.01720 0.72024
# Poissons Ratio (y) = 0.02207 0.27054
# Poissons Ratio (z) = 0.48461 0.14183
#
# Static dielectric constant tensor:
#      x y z
#    x 4.055630 0.000000 0.000000 
#    y 0.000000 3.550910 0.000000 
#    z 0.000000 0.000000 4.098240 
# 
# 
# High freq. dielectric constant tensor:
#      x y z
#    x 1.846900 0.000000 0.000000 
#    y 0.000000 1.815430 0.000000 
#    z 0.000000 0.000000 1.852640 
# 
# From -- ./inp_files/46805.got.cif
#   From: 2010.06.25/outbox.cif.g09.slc.cpg/sg71_24_cif.got.tgz:46805.got - 2010.06.28 04:59:45.
