data_PCOD8289646
_publ_section_title
;
Structure prediction by ZEFSAII (Michael W. Deem and Ramdas Pophale) SiO2 
 PCOD8289646
Probable space group: I M M M
;
_chemical_formula_sum "Si O2"
_cell_formula_units_Z 56
_cell_length_a 7.493353
_cell_length_b 15.616144
_cell_length_c 26.472229
_cell_angle_alpha 90.000000
_cell_angle_beta 90.000000
_cell_angle_gamma 90.000000
_cell_volume 3097.708220
_symmetry_space_group_name_H-M "I M M M"
_symmetry_group_IT_number 71
_symmetry_cell_setting 'orthorhombic'
loop_
_space_group_symop_operation_xyz
x,y,z
-x,-y,z
x,-y,-z
-x,y,-z
-x,-y,-z
x,y,-z
-x,y,z
x,-y,z
1/2+x,1/2+y,1/2+z
1/2-x,1/2-y,1/2+z
1/2+x,1/2-y,1/2-z
1/2-x,1/2+y,1/2-z
1/2-x,1/2-y,1/2-z
1/2+x,1/2+y,1/2-z
1/2-x,1/2+y,1/2+z
1/2+x,1/2-y,1/2+z
loop_
_atom_site_type_symbol
_atom_site_label
_atom_site_fract_x
_atom_site_fract_y
_atom_site_fract_z
Si Si1 0.793445 0.319460 0.902883
Si Si2 0.789410 0.500000 0.056789
Si Si3 0.000000 0.300236 0.443816
Si Si4 0.000000 0.399985 0.654517
Si Si5 0.203142 0.218144 0.194878
O O1 0.725691 0.416241 0.912534
O O2 0.677307 0.256445 0.937140
O O3 0.762782 0.296644 0.843967
O O4 0.000000 0.308073 0.918725
O O5 0.000000 0.500000 0.052981
O O6 0.708007 0.500000 0.000000
O O7 0.000000 0.338921 0.500000
O O8 0.000000 0.379129 0.405000
O O9 0.175439 0.362306 0.680917
O O10 0.000000 0.500000 0.663292
O O11 0.250000 0.250000 0.250000
O O12 0.000000 0.186456 0.191980
#
# Coordination Sequence:
#
# PCOD8289646 Si02
#       5
#    16   8   8   8  16
#     4   9  19  33  50  77 108 142 180 222 268 328
#     4   9  16  29  49  73 106 141 175 214 261 318
#     4  10  20  34  56  78 103 143 186 224 275 326
#     4  10  22  39  57  83 112 140 183 230 273 327
#     4  10  19  36  59  80 109 145 181 225 276 326
#
# _framework density 18.077881000000001
#
# number of rings (size 3 to 8) (size 9 to 14) (size 15 to 20)
#    0.000    2.429    1.429    0.857    0.000    3.143 
#    2.571    1.429    0.000    0.000    0.000    8.000 
#    0.000    0.000    0.000    0.000    0.000    0.000 
#
# Total GULP energy -347180.191770 kJ/mol
# GULP energy per Si atom -12399.292563 kJ/mol
# Density = 1.803673 g / cm^3
# Si number density = 18.077881 Si / 1000 Ang^3
#
#
#
# Elastic Constant Matrix: (Units=GPa)
#
#
# Indices 1 2 3 4 5 6 
#
# 1 106.0561 50.5126 47.1898 0.0000 0.0000 0.0000
# 2 50.5126 141.8051 68.7698 0.0000 0.0000 0.0000
# 3 47.1898 68.7698 150.3700 0.0000 0.0000 0.0000
# 4 0.0000 0.0000 0.0000 15.9177 0.0000 0.0000
# 5 0.0000 0.0000 0.0000 0.0000 16.2030 0.0000
# 6 0.0000 0.0000 0.0000 0.0000 0.0000 19.3935
#
#
#
# Elastic Compliance Matrix: (Units=1/GPa)
#
#
# Indices 1 2 3 4 5 6 
#
# 1 0.011953 -0.003134 -0.002318 0.000000 0.000000 0.000000
# 2 -0.003134 0.009883 -0.003537 0.000000 0.000000 0.000000
# 3 -0.002318 -0.003537 0.008995 0.000000 0.000000 0.000000
# 4 0.000000 0.000000 0.000000 0.062823 0.000000 0.000000
# 5 0.000000 0.000000 0.000000 0.000000 0.061717 0.000000
# 6 0.000000 0.000000 0.000000 0.000000 0.000000 0.051564
#
#
# Mechanical properties :
#
#
# Convention : Reuss Voigt Hill
#
# Bulk Modulus (GPa) = 77.79148 81.24172 79.51660
# Shear Modulus (GPa) = 21.81538 25.75346 23.78442
#
# Velocity S-wave (km/s) = 3.47759 3.77846 3.63114
# Velocity P-wave (km/s) = 7.69737 8.00457 7.85247
#
# Compressibility (1/GPa) = 0.01285488
#
# Stress axis : x y z
#
# Youngs Moduli (GPa) = 83.66209 101.18123 111.17160
#
# Poissons Ratio (x) = 0.31706 0.25769
# Poissons Ratio (y) = 0.26216 0.39317
# Poissons Ratio (z) = 0.19393 0.35783
#
# Static dielectric constant tensor:
#      x y z
#    x 3.548880 0.000000 0.000000 
#    y 0.000000 3.186670 0.000000 
#    z 0.000000 0.000000 3.450430 
# 
# 
# High freq. dielectric constant tensor:
#      x y z
#    x 1.714100 0.000000 0.000000 
#    y 0.000000 1.674750 0.000000 
#    z 0.000000 0.000000 1.705680 
# 
# From -- ./inp_files/3386.got.cif
#   From: 2010.06.25/outbox.cif.g09.slc.cpg/sg71_2_cif.got.tgz:3386.got - 2010.06.28 04:59:45.
