data_PCOD8289252
_publ_section_title
;
Structure prediction by ZEFSAII (Michael W. Deem and Ramdas Pophale) SiO2 
 PCOD8289252
Probable space group: I M M M
;
_chemical_formula_sum "Si O2"
_cell_formula_units_Z 88
_cell_length_a 17.955891
_cell_length_b 9.222135
_cell_length_c 28.789912
_cell_angle_alpha 90.000000
_cell_angle_beta 90.000000
_cell_angle_gamma 90.000000
_cell_volume 4767.369056
_symmetry_space_group_name_H-M "I M M M"
_symmetry_group_IT_number 71
_symmetry_cell_setting 'orthorhombic'
loop_
_space_group_symop_operation_xyz
x,y,z
-x,-y,z
x,-y,-z
-x,y,-z
-x,-y,-z
x,y,-z
-x,y,z
x,-y,z
1/2+x,1/2+y,1/2+z
1/2-x,1/2-y,1/2+z
1/2+x,1/2-y,1/2-z
1/2-x,1/2+y,1/2-z
1/2-x,1/2-y,1/2-z
1/2+x,1/2+y,1/2-z
1/2-x,1/2+y,1/2+z
1/2+x,1/2-y,1/2+z
loop_
_atom_site_type_symbol
_atom_site_label
_atom_site_fract_x
_atom_site_fract_y
_atom_site_fract_z
Si Si1 0.650563 0.829988 0.597168
Si Si2 0.000000 0.672426 0.051896
Si Si3 0.290184 0.170326 0.946742
Si Si4 0.584843 0.832859 0.125279
Si Si5 0.150982 0.830689 0.289901
Si Si6 0.677037 0.166599 0.701454
O O1 0.574136 0.768229 0.576235
O O2 0.718550 0.749417 0.573347
O O3 0.643204 0.797138 0.651592
O O4 0.662159 0.000000 0.587701
O O5 0.000000 0.500000 0.053712
O O6 0.000000 0.732670 0.000000
O O7 0.362412 0.217800 0.917034
O O8 0.276057 0.000000 0.942913
O O9 0.303775 0.217494 0.000000
O O10 0.500000 0.808352 0.109036
O O11 0.599102 0.739829 0.171285
O O12 0.600105 0.000000 0.137831
O O13 0.236049 0.794424 0.302090
O O14 0.133801 0.763211 0.239322
O O15 0.133703 0.000000 0.288298
O O16 0.665835 0.000000 0.715708
#
# Coordination Sequence:
#
# PCOD8289252 Si02
#       6
#    16   8  16  16  16  16
#     4  10  19  35  57  81 109 142 182 224 267 321
#     4   9  18  32  53  81 109 139 177 221 266 313
#     4  10  21  36  56  82 109 139 179 226 276 330
#     4  10  21  37  56  78 108 146 185 227 275 327
#     4  10  19  33  54  80 108 139 177 223 271 320
#     4   9  18  32  53  80 108 140 178 218 264 320
#
# _framework density 18.458818999999998
#
# number of rings (size 3 to 8) (size 9 to 14) (size 15 to 20)
#    0.000    2.273    1.818    1.091    0.000    3.273 
#    1.636    2.273    0.000    1.636    0.000    2.545 
#    0.000    0.000    0.000    0.000    0.000    0.000 
#
# Total GULP energy -545678.746781 kJ/mol
# GULP energy per Si atom -12401.789700 kJ/mol
# Density = 1.841681 g / cm^3
# Si number density = 18.458819 Si / 1000 Ang^3
#
#
#
# Elastic Constant Matrix: (Units=GPa)
#
#
# Indices 1 2 3 4 5 6 
#
# 1 132.3785 44.0871 78.4751 0.0000 0.0000 0.0000
# 2 44.0871 54.0293 45.9764 0.0000 0.0000 0.0000
# 3 78.4751 45.9764 125.7866 0.0000 0.0000 0.0000
# 4 0.0000 0.0000 0.0000 26.1078 0.0000 0.0000
# 5 0.0000 0.0000 0.0000 0.0000 24.5383 0.0000
# 6 0.0000 0.0000 0.0000 0.0000 0.0000 23.7605
#
#
#
# Elastic Compliance Matrix: (Units=1/GPa)
#
#
# Indices 1 2 3 4 5 6 
#
# 1 0.012979 -0.005371 -0.006134 0.000000 0.000000 0.000000
# 2 -0.005371 0.029087 -0.007281 0.000000 0.000000 0.000000
# 3 -0.006134 -0.007281 0.014438 0.000000 0.000000 0.000000
# 4 0.000000 0.000000 0.000000 0.038303 0.000000 0.000000
# 5 0.000000 0.000000 0.000000 0.000000 0.040753 0.000000
# 6 0.000000 0.000000 0.000000 0.000000 0.000000 0.042087
#
#
# Mechanical properties :
#
#
# Convention : Reuss Voigt Hill
#
# Bulk Modulus (GPa) = 52.81996 72.14127 62.48062
# Shear Modulus (GPa) = 22.57046 24.45839 23.51442
#
# Velocity S-wave (km/s) = 3.50057 3.64404 3.57303
# Velocity P-wave (km/s) = 6.70938 7.54138 7.13752
#
# Compressibility (1/GPa) = 0.01893224
#
# Stress axis : x y z
#
# Youngs Moduli (GPa) = 77.04586 34.38014 69.26067
#
# Poissons Ratio (x) = 0.18465 0.42487
# Poissons Ratio (y) = 0.41380 0.50427
# Poissons Ratio (z) = 0.47263 0.25031
#
# Static dielectric constant tensor:
#      x y z
#    x 3.355620 0.000000 0.000000 
#    y 0.000000 3.270410 0.000000 
#    z 0.000000 0.000000 3.605440 
# 
# 
# High freq. dielectric constant tensor:
#      x y z
#    x 1.707960 0.000000 0.000000 
#    y 0.000000 1.701430 0.000000 
#    z 0.000000 0.000000 1.728910 
# 
# From -- ./inp_files/8822.got.cif
#   From: 2010.06.25/outbox.cif.g09.slc.cpg/sg71_5_cif.got.tgz:8822.got - 2010.06.28 04:59:45.
