data_PCOD8289806
_publ_section_title
;
Structure prediction by ZEFSAII (Michael W. Deem and Ramdas Pophale) SiO2 
 PCOD8289806
Probable space group: I M M M
;
_chemical_formula_sum "Si O2"
_cell_formula_units_Z 88
_cell_length_a 23.404811
_cell_length_b 9.521948
_cell_length_c 22.992653
_cell_angle_alpha 90.000000
_cell_angle_beta 90.000000
_cell_angle_gamma 90.000000
_cell_volume 5124.128698
_symmetry_space_group_name_H-M "I M M M"
_symmetry_group_IT_number 71
_symmetry_cell_setting 'orthorhombic'
loop_
_space_group_symop_operation_xyz
x,y,z
-x,-y,z
x,-y,-z
-x,y,-z
-x,-y,-z
x,y,-z
-x,y,z
x,-y,z
1/2+x,1/2+y,1/2+z
1/2-x,1/2-y,1/2+z
1/2+x,1/2-y,1/2-z
1/2-x,1/2+y,1/2-z
1/2-x,1/2-y,1/2-z
1/2+x,1/2+y,1/2-z
1/2-x,1/2+y,1/2+z
1/2+x,1/2-y,1/2+z
loop_
_atom_site_type_symbol
_atom_site_label
_atom_site_fract_x
_atom_site_fract_y
_atom_site_fract_z
Si Si1 0.064584 0.159457 0.251571
Si Si2 0.264729 0.836625 0.662525
Si Si3 0.331633 0.836832 0.219300
Si Si4 0.821390 0.153009 0.934057
Si Si5 0.564743 0.709861 0.615621
Si Si6 0.566226 0.000000 0.435791
O O1 0.105386 0.269506 0.284079
O O2 0.069948 0.175584 0.182845
O O3 0.000000 0.192157 0.271689
O O4 0.081894 0.000000 0.268103
O O5 0.308198 0.818206 0.715704
O O6 0.207322 0.749296 0.674514
O O7 0.293691 0.772025 0.605739
O O8 0.249722 0.000000 0.652099
O O9 0.333981 0.000000 0.200895
O O10 0.888423 0.123926 0.920178
O O11 0.791676 0.000000 0.925051
O O12 0.814330 0.204761 0.000000
O O13 0.500000 0.676647 0.593713
O O14 0.583341 0.869959 0.604140
O O15 0.500000 0.000000 0.448309
O O16 0.596555 0.000000 0.500000
#
# Coordination Sequence:
#
# PCOD8289806 Si02
#       6
#    16  16  16  16  16   8
#     4  10  20  32  49  74 104 135 167 206 250 299
#     4  10  21  36  54  73  95 129 170 212 259 310
#     4  10  20  34  55  77  98 127 165 212 259 308
#     4  11  23  35  49  71 100 132 171 220 262 300
#     4  10  20  32  47  65  93 134 176 217 258 297
#     4   9  18  30  42  58  82 118 166 216 256 292
#
# _framework density 17.173651
#
# number of rings (size 3 to 8) (size 9 to 14) (size 15 to 20)
#    0.000    1.909    1.818    2.182    2.545    4.364 
#    0.000    0.909    0.000    0.000    0.000    0.000 
#    0.000    0.727    0.000    7.636    0.000    3.273 
#
# Total GULP energy -545379.859974 kJ/mol
# GULP energy per Si atom -12394.996818 kJ/mol
# Density = 1.713456 g / cm^3
# Si number density = 17.173651 Si / 1000 Ang^3
#
#
#
# Elastic Constant Matrix: (Units=GPa)
#
#
# Indices 1 2 3 4 5 6 
#
# 1 97.7277 64.2121 39.3439 0.0000 0.0000 0.0000
# 2 64.2121 137.3823 37.8251 0.0000 0.0000 0.0000
# 3 39.3439 37.8251 60.5834 0.0000 0.0000 0.0000
# 4 0.0000 0.0000 0.0000 36.9967 0.0000 0.0000
# 5 0.0000 0.0000 0.0000 0.0000 -7.8299 0.0000
# 6 0.0000 0.0000 0.0000 0.0000 0.0000 26.9216
#
#
#
# Elastic Compliance Matrix: (Units=1/GPa)
#
#
# Indices 1 2 3 4 5 6 
#
# 1 0.017135 -0.005972 -0.007399 0.000000 0.000000 0.000000
# 2 -0.005972 0.010871 -0.002909 0.000000 0.000000 0.000000
# 3 -0.007399 -0.002909 0.023128 0.000000 0.000000 0.000000
# 4 0.000000 0.000000 0.000000 0.027029 0.000000 0.000000
# 5 0.000000 0.000000 0.000000 0.000000 -0.127715 0.000000
# 6 0.000000 0.000000 0.000000 0.000000 0.000000 0.037145
#
#
# Mechanical properties :
#
#
# Convention : Reuss Voigt Hill
#
# Bulk Modulus (GPa) = 53.84044 64.27284 59.05664
# Shear Modulus (GPa) = 189.78873 21.50516 105.64695
#
# Velocity S-wave (km/s) = 10.52385 3.54251 7.85178
# Velocity P-wave (km/s) = 13.38235 7.36471 10.80107
#
# Compressibility (1/GPa) = 0.01857340
#
# Stress axis : x y z
#
# Youngs Moduli (GPa) = 58.35970 91.98724 43.23781
#
# Poissons Ratio (x) = 0.54931 0.31994
# Poissons Ratio (y) = 0.34850 0.12579
# Poissons Ratio (z) = 0.43183 0.26761
#
# Static dielectric constant tensor:
#      x y z
#    x 3.216130 0.000000 0.000000 
#    y 0.000000 3.314660 0.000000 
#    z 0.000000 0.000000 2.751990 
# 
# 
# High freq. dielectric constant tensor:
#      x y z
#    x 1.646870 0.000000 0.000000 
#    y 0.000000 1.686400 0.000000 
#    z 0.000000 0.000000 1.616440 
# 
# From -- ./inp_files/55538.got.cif
#   From: 2010.06.25/outbox.cif.g09.slc.cpg/sg71_28_cif.got.tgz:55538.got - 2010.06.28 04:59:45.
