data_PCOD8289216
_publ_section_title
;
Structure prediction by ZEFSAII (Michael W. Deem and Ramdas Pophale) SiO2 
 PCOD8289216
Probable space group: I M M M
;
_chemical_formula_sum "Si O2"
_cell_formula_units_Z 104
_cell_length_a 19.557313
_cell_length_b 9.158761
_cell_length_c 32.147673
_cell_angle_alpha 90.000000
_cell_angle_beta 90.000000
_cell_angle_gamma 90.000000
_cell_volume 5758.315478
_symmetry_space_group_name_H-M "I M M M"
_symmetry_group_IT_number 71
_symmetry_cell_setting 'orthorhombic'
loop_
_space_group_symop_operation_xyz
x,y,z
-x,-y,z
x,-y,-z
-x,y,-z
-x,-y,-z
x,y,-z
-x,y,z
x,-y,z
1/2+x,1/2+y,1/2+z
1/2-x,1/2-y,1/2+z
1/2+x,1/2-y,1/2-z
1/2-x,1/2+y,1/2-z
1/2-x,1/2-y,1/2-z
1/2+x,1/2+y,1/2-z
1/2-x,1/2+y,1/2+z
1/2+x,1/2-y,1/2+z
loop_
_atom_site_type_symbol
_atom_site_label
_atom_site_fract_x
_atom_site_fract_y
_atom_site_fract_z
Si Si1 0.578958 0.667944 0.849253
Si Si2 0.077258 0.672975 0.500000
Si Si3 0.201345 0.325856 0.100187
Si Si4 0.200449 0.330471 0.194404
Si Si5 0.839300 0.326313 0.419239
Si Si6 0.575308 0.173343 0.546501
Si Si7 0.846403 0.167594 0.268601
O O1 0.500000 0.693011 0.858945
O O2 0.601405 0.500000 0.857780
O O3 0.622017 0.775173 0.877938
O O4 0.592868 0.705597 0.800777
O O5 0.073065 0.500000 0.500000
O O6 0.117414 0.727295 0.459147
O O7 0.000000 0.738221 0.500000
O O8 0.211640 0.500000 0.097293
O O9 0.192085 0.273011 0.147571
O O10 0.265471 0.248464 0.078461
O O11 0.133833 0.267609 0.076910
O O12 0.185224 0.500000 0.196524
O O13 0.145886 0.255956 0.225566
O O14 0.276631 0.289073 0.208163
O O15 0.830969 0.500000 0.418289
O O16 0.589620 0.232099 0.500000
O O17 0.500000 0.226723 0.561517
O O18 0.577040 0.000000 0.546341
O O19 0.847035 0.000000 0.255682
#
# Coordination Sequence:
#
# PCOD8289216 Si02
#       7
#    16   8  16  16  16  16  16
#     4  10  20  36  56  77 105 139 175 220 269 311
#     4   9  20  38  53  69 102 143 174 210 263 313
#     4  10  19  33  53  79 109 137 171 220 267 307
#     4   9  17  30  48  71 101 132 164 206 255 302
#     4  11  22  35  54  78 105 139 180 219 258 313
#     4   8  15  29  51  79 106 134 169 208 256 312
#     4   9  17  31  49  71  99 131 168 207 251 303
#
# _framework density 18.060838
#
# number of rings (size 3 to 8) (size 9 to 14) (size 15 to 20)
#    0.000    2.538    1.538    1.385    1.077    2.154 
#    0.000    1.923    0.000    4.154    0.000    1.077 
#    0.000    0.000    0.000    0.000    0.000    0.000 
#
# Total GULP energy -644698.355185 kJ/mol
# GULP energy per Si atom -12398.045292 kJ/mol
# Density = 1.801973 g / cm^3
# Si number density = 18.060838 Si / 1000 Ang^3
#
#
#
# Elastic Constant Matrix: (Units=GPa)
#
#
# Indices 1 2 3 4 5 6 
#
# 1 120.1440 34.6272 72.4616 0.0000 0.0000 0.0000
# 2 34.6272 37.1993 33.9284 0.0000 0.0000 0.0000
# 3 72.4616 33.9284 127.2038 0.0000 0.0000 0.0000
# 4 0.0000 0.0000 0.0000 23.0406 0.0000 0.0000
# 5 0.0000 0.0000 0.0000 0.0000 28.1545 0.0000
# 6 0.0000 0.0000 0.0000 0.0000 0.0000 18.3005
#
#
#
# Elastic Compliance Matrix: (Units=1/GPa)
#
#
# Indices 1 2 3 4 5 6 
#
# 1 0.014174 -0.007704 -0.006020 0.000000 0.000000 0.000000
# 2 -0.007704 0.039711 -0.006203 0.000000 0.000000 0.000000
# 3 -0.006020 -0.006203 0.012945 0.000000 0.000000 0.000000
# 4 0.000000 0.000000 0.000000 0.043402 0.000000 0.000000
# 5 0.000000 0.000000 0.000000 0.000000 0.035518 0.000000
# 6 0.000000 0.000000 0.000000 0.000000 0.000000 0.054643
#
#
# Mechanical properties :
#
#
# Convention : Reuss Voigt Hill
#
# Bulk Modulus (GPa) = 37.06878 62.95348 50.01113
# Shear Modulus (GPa) = 20.06096 23.46778 21.76437
#
# Velocity S-wave (km/s) = 3.33640 3.60859 3.47516
# Velocity P-wave (km/s) = 5.95072 7.23150 6.62215
#
# Compressibility (1/GPa) = 0.02697688
#
# Stress axis : x y z
#
# Youngs Moduli (GPa) = 70.55044 25.18163 77.24964
#
# Poissons Ratio (x) = 0.19400 0.46501
# Poissons Ratio (y) = 0.54352 0.47922
# Poissons Ratio (z) = 0.42468 0.15621
#
# Static dielectric constant tensor:
#      x y z
#    x 3.468670 0.000000 0.000000 
#    y 0.000000 3.072660 0.000000 
#    z 0.000000 0.000000 3.562950 
# 
# 
# High freq. dielectric constant tensor:
#      x y z
#    x 1.692630 0.000000 0.000000 
#    y 0.000000 1.669690 0.000000 
#    z 0.000000 0.000000 1.707190 
# 
# From -- ./inp_files/70755.got.cif
#   From: 2010.06.25/outbox.cif.g09.slc.cpg/sg71_36_cif.got.tgz:70755.got - 2010.06.28 04:59:45.
