data_PCOD8289571
_publ_section_title
;
Structure prediction by ZEFSAII (Michael W. Deem and Ramdas Pophale) SiO2 
 PCOD8289571
Probable space group: I M M M
;
_chemical_formula_sum "Si O2"
_cell_formula_units_Z 104
_cell_length_a 23.157103
_cell_length_b 26.904427
_cell_length_c 9.086707
_cell_angle_alpha 90.000000
_cell_angle_beta 90.000000
_cell_angle_gamma 90.000000
_cell_volume 5661.278224
_symmetry_space_group_name_H-M "I M M M"
_symmetry_group_IT_number 71
_symmetry_cell_setting 'orthorhombic'
loop_
_space_group_symop_operation_xyz
x,y,z
-x,-y,z
x,-y,-z
-x,y,-z
-x,-y,-z
x,y,-z
-x,y,z
x,-y,z
1/2+x,1/2+y,1/2+z
1/2-x,1/2-y,1/2+z
1/2+x,1/2-y,1/2-z
1/2-x,1/2+y,1/2-z
1/2-x,1/2-y,1/2-z
1/2+x,1/2+y,1/2-z
1/2-x,1/2+y,1/2+z
1/2+x,1/2-y,1/2+z
loop_
_atom_site_type_symbol
_atom_site_label
_atom_site_fract_x
_atom_site_fract_y
_atom_site_fract_z
Si Si1 0.931969 0.000000 0.334630
Si Si2 0.355743 0.120286 0.670597
Si Si3 0.935863 0.181191 0.174422
Si Si4 0.067183 0.445240 0.660496
Si Si5 0.131036 0.086331 0.825892
Si Si6 0.434835 0.791843 0.324964
Si Si7 0.240939 0.557132 0.325961
O O1 0.911872 0.951411 0.250156
O O2 0.906790 0.000000 0.500000
O O3 0.000000 0.000000 0.336718
O O4 0.339122 0.122706 0.500000
O O5 0.408254 0.082990 0.699179
O O6 0.382176 0.172760 0.730330
O O7 0.301475 0.098715 0.759434
O O8 0.887982 0.141513 0.227571
O O9 0.919864 0.236356 0.232660
O O10 0.000000 0.166246 0.231814
O O11 0.937085 0.182823 0.000000
O O12 0.082148 0.420791 0.500000
O O13 0.094800 0.500000 0.660737
O O14 0.000000 0.448613 0.683298
O O15 0.195866 0.074640 0.775182
O O16 0.124453 0.080049 0.000000
O O17 0.435927 0.794264 0.500000
O O18 0.500000 0.807067 0.268694
O O19 0.234275 0.559115 0.500000
O O20 0.230174 0.500000 0.270910
#
# Coordination Sequence:
#
# PCOD8289571 Si02
#       7
#     8  16  16  16  16  16  16
#     4  11  23  35  51  81 119 147 162 195 262 325
#     4  11  21  31  48  73  99 133 177 216 252 306
#     4   8  14  27  52  82 105 127 161 211 264 306
#     4   9  18  32  48  67  94 127 162 208 268 321
#     4  10  19  35  58  81 101 132 182 223 249 294
#     4   8  15  29  48  74 107 134 160 207 269 316
#     4  10  21  37  52  69 100 138 174 218 269 306
#
# _framework density 18.37041
#
# number of rings (size 3 to 8) (size 9 to 14) (size 15 to 20)
#    0.000    2.538    0.769    3.462    0.000    5.231 
#    0.000    1.538    0.000    1.846    0.000    6.462 
#    0.000    0.000    0.000    0.000    0.000    0.000 
#
# Total GULP energy -644198.797270 kJ/mol
# GULP energy per Si atom -12388.438409 kJ/mol
# Density = 1.832860 g / cm^3
# Si number density = 18.370410 Si / 1000 Ang^3
#
#
#
# Elastic Constant Matrix: (Units=GPa)
#
#
# Indices 1 2 3 4 5 6 
#
# 1 101.2831 76.9117 21.6103 0.0000 0.0000 0.0000
# 2 76.9117 132.4556 24.4790 0.0000 0.0000 0.0000
# 3 21.6103 24.4790 23.8080 0.0000 0.0000 0.0000
# 4 0.0000 0.0000 0.0000 10.2929 0.0000 0.0000
# 5 0.0000 0.0000 0.0000 0.0000 24.4638 0.0000
# 6 0.0000 0.0000 0.0000 0.0000 0.0000 39.6804
#
#
#
# Elastic Compliance Matrix: (Units=1/GPa)
#
#
# Indices 1 2 3 4 5 6 
#
# 1 0.018592 -0.009478 -0.007131 0.000000 0.000000 0.000000
# 2 -0.009478 0.014152 -0.005948 0.000000 0.000000 0.000000
# 3 -0.007131 -0.005948 0.054591 0.000000 0.000000 0.000000
# 4 0.000000 0.000000 0.000000 0.097154 0.000000 0.000000
# 5 0.000000 0.000000 0.000000 0.000000 0.040877 0.000000
# 6 0.000000 0.000000 0.000000 0.000000 0.000000 0.025201
#
#
# Mechanical properties :
#
#
# Convention : Reuss Voigt Hill
#
# Bulk Modulus (GPa) = 23.68448 55.94983 39.81715
# Shear Modulus (GPa) = 16.14174 23.85714 19.99944
#
# Velocity S-wave (km/s) = 2.96747 3.60762 3.30309
# Velocity P-wave (km/s) = 4.96608 6.91924 6.02236
#
# Compressibility (1/GPa) = 0.04222175
#
# Stress axis : x y z
#
# Youngs Moduli (GPa) = 53.78677 70.65956 18.31790
#
# Poissons Ratio (x) = 0.66969 0.13062
# Poissons Ratio (y) = 0.50978 0.10896
# Poissons Ratio (z) = 0.38354 0.42031
#
# Static dielectric constant tensor:
#      x y z
#    x 3.484760 0.000000 0.000000 
#    y 0.000000 3.968190 0.000000 
#    z 0.000000 0.000000 3.132060 
# 
# 
# High freq. dielectric constant tensor:
#      x y z
#    x 1.711430 0.000000 0.000000 
#    y 0.000000 1.715770 0.000000 
#    z 0.000000 0.000000 1.675350 
# 
# From -- ./inp_files/11464.got.cif
#   From: 2010.06.25/outbox.cif.g09.slc.cpg/sg71_6_cif.got.tgz:11464.got - 2010.06.28 04:59:45.
