data_PCOD8289553
_publ_section_title
;
Structure prediction by ZEFSAII (Michael W. Deem and Ramdas Pophale) SiO2 
 PCOD8289553
Probable space group: I M M M
;
_chemical_formula_sum "Si O2"
_cell_formula_units_Z 72
_cell_length_a 9.459998
_cell_length_b 17.743580
_cell_length_c 23.049822
_cell_angle_alpha 90.000000
_cell_angle_beta 90.000000
_cell_angle_gamma 90.000000
_cell_volume 3869.010154
_symmetry_space_group_name_H-M "I M M M"
_symmetry_group_IT_number 71
_symmetry_cell_setting 'orthorhombic'
loop_
_space_group_symop_operation_xyz
x,y,z
-x,-y,z
x,-y,-z
-x,y,-z
-x,-y,-z
x,y,-z
-x,y,z
x,-y,z
1/2+x,1/2+y,1/2+z
1/2-x,1/2-y,1/2+z
1/2+x,1/2-y,1/2-z
1/2-x,1/2+y,1/2-z
1/2-x,1/2-y,1/2-z
1/2+x,1/2+y,1/2-z
1/2-x,1/2+y,1/2+z
1/2+x,1/2-y,1/2+z
loop_
_atom_site_type_symbol
_atom_site_label
_atom_site_fract_x
_atom_site_fract_y
_atom_site_fract_z
Si Si1 0.166053 0.000000 0.434775
Si Si2 0.343359 0.394883 0.500000
Si Si3 0.836435 0.415486 0.384340
Si Si4 0.340804 0.223740 0.803978
Si Si5 0.158517 0.159843 0.402290
Si Si6 0.152677 0.721691 0.000000
O O1 0.213975 0.073549 0.398616
O O2 0.233080 0.000000 0.500000
O O3 0.000000 0.000000 0.441433
O O4 0.500000 0.434263 0.500000
O O5 0.255374 0.416879 0.557178
O O6 0.374504 0.308507 0.500000
O O7 0.824239 0.500000 0.356567
O O8 0.783113 0.350600 0.338827
O O9 0.000000 0.397205 0.400417
O O10 0.500000 0.205698 0.783340
O O11 0.250000 0.250000 0.750000
O O12 0.337405 0.299760 0.841197
O O13 0.261569 0.204324 0.443185
O O14 0.000000 0.161678 0.428462
O O15 0.000000 0.680026 0.000000
#
# Coordination Sequence:
#
# PCOD8289553 Si02
#       6
#     8   8  16  16  16   8
#     4   9  16  28  54  86 110 134 172 223 264 315
#     4  11  22  34  54  87 121 147 176 223 281 333
#     4  10  21  38  60  85 112 145 185 225 269 331
#     4  10  22  39  59  79 105 144 188 229 269 317
#     4  10  19  35  57  79 105 144 185 221 268 327
#     4  11  21  31  51  83 114 145 178 222 272 322
#
# _framework density 18.60941
#
# number of rings (size 3 to 8) (size 9 to 14) (size 15 to 20)
#    0.000    1.889    3.333    1.000    0.000    4.444 
#    2.000    1.111    0.000    0.000    0.000    0.000 
#    0.000    0.000    0.000    0.000    0.000    0.000 
#
# Total GULP energy -445988.758858 kJ/mol
# GULP energy per Si atom -12388.576635 kJ/mol
# Density = 1.856705 g / cm^3
# Si number density = 18.609410 Si / 1000 Ang^3
#
#
#
# Elastic Constant Matrix: (Units=GPa)
#
#
# Indices 1 2 3 4 5 6 
#
# 1 89.0027 28.4766 51.7643 0.0000 0.0000 0.0000
# 2 28.4766 148.2096 52.8167 0.0000 0.0000 0.0000
# 3 51.7643 52.8167 97.7613 0.0000 0.0000 0.0000
# 4 0.0000 0.0000 0.0000 14.8522 0.0000 0.0000
# 5 0.0000 0.0000 0.0000 0.0000 39.9833 0.0000
# 6 0.0000 0.0000 0.0000 0.0000 0.0000 4.0945
#
#
#
# Elastic Compliance Matrix: (Units=1/GPa)
#
#
# Indices 1 2 3 4 5 6 
#
# 1 0.016236 -0.000069 -0.008559 0.000000 0.000000 0.000000
# 2 -0.000069 0.008356 -0.004478 0.000000 0.000000 0.000000
# 3 -0.008559 -0.004478 0.017180 0.000000 0.000000 0.000000
# 4 0.000000 0.000000 0.000000 0.067330 0.000000 0.000000
# 5 0.000000 0.000000 0.000000 0.000000 0.025010 0.000000
# 6 0.000000 0.000000 0.000000 0.000000 0.000000 0.244228
#
#
# Mechanical properties :
#
#
# Convention : Reuss Voigt Hill
#
# Bulk Modulus (GPa) = 64.26969 66.78765 65.52867
# Shear Modulus (GPa) = 12.20284 25.24709 18.72497
#
# Velocity S-wave (km/s) = 2.56351 3.68732 3.17552
# Velocity P-wave (km/s) = 6.58583 7.35496 6.98100
#
# Compressibility (1/GPa) = 0.01555943
#
# Stress axis : x y z
#
# Youngs Moduli (GPa) = 61.59158 119.67048 58.20569
#
# Poissons Ratio (x) = 0.00829 0.49821
# Poissons Ratio (y) = 0.00426 0.26064
# Poissons Ratio (z) = 0.52719 0.53587
#
# Static dielectric constant tensor:
#      x y z
#    x 3.501550 0.000000 0.000000 
#    y 0.000000 4.086040 0.000000 
#    z 0.000000 0.000000 3.135690 
# 
# 
# High freq. dielectric constant tensor:
#      x y z
#    x 1.712900 0.000000 0.000000 
#    y 0.000000 1.746420 0.000000 
#    z 0.000000 0.000000 1.692280 
# 
# From -- ./inp_files/57333.got.cif
#   From: 2010.06.25/outbox.cif.g09.slc.cpg/sg71_29_cif.got.tgz:57333.got - 2010.06.28 04:59:45.
