data_PCOD8289593
_publ_section_title
;
Structure prediction by ZEFSAII (Michael W. Deem and Ramdas Pophale) SiO2 
 PCOD8289593
Probable space group: I M M M
;
_chemical_formula_sum "Si O2"
_cell_formula_units_Z 88
_cell_length_a 17.618588
_cell_length_b 28.887011
_cell_length_c 9.191041
_cell_angle_alpha 90.000000
_cell_angle_beta 90.000000
_cell_angle_gamma 90.000000
_cell_volume 4677.765109
_symmetry_space_group_name_H-M "I M M M"
_symmetry_group_IT_number 71
_symmetry_cell_setting 'orthorhombic'
loop_
_space_group_symop_operation_xyz
x,y,z
-x,-y,z
x,-y,-z
-x,y,-z
-x,-y,-z
x,y,-z
-x,y,z
x,-y,z
1/2+x,1/2+y,1/2+z
1/2-x,1/2-y,1/2+z
1/2+x,1/2-y,1/2-z
1/2-x,1/2+y,1/2-z
1/2-x,1/2-y,1/2-z
1/2+x,1/2+y,1/2-z
1/2-x,1/2+y,1/2+z
1/2+x,1/2-y,1/2+z
loop_
_atom_site_type_symbol
_atom_site_label
_atom_site_fract_x
_atom_site_fract_y
_atom_site_fract_z
Si Si1 0.000000 0.804466 0.663679
Si Si2 0.586065 0.000000 0.327703
Si Si3 0.645070 0.277386 0.334261
Si Si4 0.647962 0.554427 0.663794
Si Si5 0.700417 0.920979 0.668448
Si Si6 0.500000 0.413624 0.166336
Si Si7 0.222241 0.681620 0.163540
O O1 0.071596 0.783539 0.741078
O O2 0.000000 0.859042 0.672035
O O3 0.000000 0.786370 0.500000
O O4 0.632069 0.954091 0.274968
O O5 0.500000 0.000000 0.261732
O O6 0.579363 0.000000 0.500000
O O7 0.629751 0.291093 0.500000
O O8 0.709546 0.312090 0.276478
O O9 0.664273 0.223462 0.316053
O O10 0.643635 0.575121 0.500000
O O11 0.651043 0.500000 0.655752
O O12 0.723294 0.571852 0.742024
O O13 0.574559 0.568828 0.753603
O O14 0.717225 0.932684 0.500000
O O15 0.678090 0.866921 0.690031
O O16 0.500000 0.431761 0.000000
O O17 0.256660 0.682276 0.000000
#
# Coordination Sequence:
#
# PCOD8289593 Si02
#       7
#     8   8  16  16  16   8  16
#     4  11  23  38  54  77 110 145 181 228 275 321
#     4   9  18  34  57  86 111 136 177 229 278 323
#     4  10  20  35  55  80 110 145 182 223 272 327
#     4  11  23  37  54  80 115 150 185 228 275 326
#     4  10  19  35  59  84 110 144 186 229 275 330
#     4  11  24  38  55  80 110 148 191 233 272 318
#     4   9  19  35  55  82 110 141 180 226 272 321
#
# _framework density 18.812403
#
# number of rings (size 3 to 8) (size 9 to 14) (size 15 to 20)
#    0.000    1.909    0.909    3.000    0.000    9.455 
#    1.636    0.000    0.000    1.091    0.000    0.000 
#    0.000    0.000    0.000    0.000    0.000    0.000 
#
# Total GULP energy -545551.115642 kJ/mol
# GULP energy per Si atom -12398.888992 kJ/mol
# Density = 1.876959 g / cm^3
# Si number density = 18.812403 Si / 1000 Ang^3
#
#
#
# Elastic Constant Matrix: (Units=GPa)
#
#
# Indices 1 2 3 4 5 6 
#
# 1 191.1482 59.8500 107.3887 -0.0008 -0.0013 0.0002
# 2 59.8500 115.4804 48.8478 -0.0025 -0.0018 0.0000
# 3 107.3887 48.8478 152.3572 -0.0203 -0.0108 0.0043
# 4 -0.0008 -0.0025 -0.0203 25.6675 -0.0033 0.0001
# 5 -0.0013 -0.0018 -0.0108 -0.0033 35.2327 -0.0006
# 6 0.0002 0.0000 0.0043 0.0001 -0.0006 16.5734
#
#
#
# Elastic Compliance Matrix: (Units=1/GPa)
#
#
# Indices 1 2 3 4 5 6 
#
# 1 0.009176 -0.002337 -0.005718 -0.000004 -0.000002 0.000001
# 2 -0.002337 0.010613 -0.001756 0.000000 0.000000 0.000000
# 3 -0.005718 -0.001756 0.011157 0.000008 0.000003 -0.000003
# 4 -0.000004 0.000000 0.000008 0.038960 0.000004 0.000000
# 5 -0.000002 0.000000 0.000003 0.000004 0.028383 0.000001
# 6 0.000001 0.000000 -0.000003 0.000000 0.000001 0.060338
#
#
# Mechanical properties :
#
#
# Convention : Reuss Voigt Hill
#
# Bulk Modulus (GPa) = 88.30464 99.01765 93.66114
# Shear Modulus (GPa) = 27.46912 31.68801 29.57856
#
# Velocity S-wave (km/s) = 3.82535 4.10862 3.96951
# Velocity P-wave (km/s) = 8.15797 8.67503 8.42047
#
# Compressibility (1/GPa) = 0.01132443
#
# Stress axis : x y z
#
# Youngs Moduli (GPa) = 108.98204 94.22249 89.62964
#
# Poissons Ratio (x) = 0.22017 0.51254
# Poissons Ratio (y) = 0.25466 0.15736
# Poissons Ratio (z) = 0.62320 0.16543
#
# Static dielectric constant tensor:
#      x y z
#    x 2.755010 0.000030 0.000020 
#    y 0.000030 3.718640 0.000000 
#    z 0.000020 0.000000 3.672180 
# 
# 
# High freq. dielectric constant tensor:
#      x y z
#    x 1.720720 0.000000 0.000000 
#    y 0.000000 1.744170 0.000000 
#    z 0.000000 0.000000 1.731910 
# 
# From -- ./inp_files/8936.got.cif
#   From: 2010.06.25/outbox.cif.g09.slc.cpg/sg71_5_cif.got.tgz:8936.got - 2010.06.28 04:59:45.
