data_PCOD8289821
_publ_section_title
;
Structure prediction by ZEFSAII (Michael W. Deem and Ramdas Pophale) SiO2 
 PCOD8289821
Probable space group: I M M M
;
_chemical_formula_sum "Si O2"
_cell_formula_units_Z 88
_cell_length_a 19.765363
_cell_length_b 8.715216
_cell_length_c 30.376094
_cell_angle_alpha 90.000000
_cell_angle_beta 90.000000
_cell_angle_gamma 90.000000
_cell_volume 5232.567966
_symmetry_space_group_name_H-M "I M M M"
_symmetry_group_IT_number 71
_symmetry_cell_setting 'orthorhombic'
loop_
_space_group_symop_operation_xyz
x,y,z
-x,-y,z
x,-y,-z
-x,y,-z
-x,-y,-z
x,y,-z
-x,y,z
x,-y,z
1/2+x,1/2+y,1/2+z
1/2-x,1/2-y,1/2+z
1/2+x,1/2-y,1/2-z
1/2-x,1/2+y,1/2-z
1/2-x,1/2-y,1/2-z
1/2+x,1/2+y,1/2-z
1/2-x,1/2+y,1/2+z
1/2+x,1/2-y,1/2+z
loop_
_atom_site_type_symbol
_atom_site_label
_atom_site_fract_x
_atom_site_fract_y
_atom_site_fract_z
Si Si1 0.075578 0.824414 0.671890
Si Si2 0.926189 0.326077 0.236951
Si Si3 0.859878 0.818781 0.549875
Si Si4 0.199545 0.677962 0.370535
Si Si5 0.000000 0.326307 0.447690
Si Si6 0.282593 0.822130 0.706254
O O1 0.078618 0.794918 0.723808
O O2 0.125254 0.706645 0.648674
O O3 0.000000 0.794000 0.653793
O O4 0.098064 0.000000 0.663073
O O5 0.919710 0.500000 0.255653
O O6 0.863635 0.294281 0.204295
O O7 0.000000 0.306155 0.213298
O O8 0.846905 0.761747 0.500000
O O9 0.799664 0.752639 0.580591
O O10 0.932314 0.760420 0.568448
O O11 0.860146 0.000000 0.552656
O O12 0.214824 0.500000 0.374805
O O13 0.255293 0.750064 0.338624
O O14 0.000000 0.500000 0.429479
O O15 0.000000 0.324436 0.500000
O O16 0.250000 0.750000 0.750000
O O17 0.263457 0.000000 0.706984
#
# Coordination Sequence:
#
# PCOD8289821 Si02
#       6
#    16  16  16  16   8  16
#     4  10  20  32  47  68  95 128 169 214 255 296
#     4   9  18  33  52  72  96 129 167 207 251 296
#     4  10  21  37  54  71  94 125 165 213 259 301
#     4  12  24  35  50  71  98 134 171 210 254 302
#     4   9  17  31  51  73  97 127 163 205 255 305
#     4  11  21  34  52  74 103 134 168 208 251 301
#
# _framework density 16.817747000000001
#
# number of rings (size 3 to 8) (size 9 to 14) (size 15 to 20)
#    0.000    1.727    1.818    3.545    1.273    4.000 
#    0.000    0.000    0.000    0.000    0.000    0.000 
#    0.000    0.727    0.000    8.364    0.000    2.364 
#
# Total GULP energy -545459.693823 kJ/mol
# GULP energy per Si atom -12396.811223 kJ/mol
# Density = 1.677947 g / cm^3
# Si number density = 16.817747 Si / 1000 Ang^3
#
#
#
# Elastic Constant Matrix: (Units=GPa)
#
#
# Indices 1 2 3 4 5 6 
#
# 1 95.3861 28.5715 49.4975 0.0000 0.0000 0.0000
# 2 28.5715 80.1507 25.9416 0.0000 0.0000 0.0000
# 3 49.4975 25.9416 86.8742 0.0000 0.0000 0.0000
# 4 0.0000 0.0000 0.0000 24.9377 0.0000 0.0000
# 5 0.0000 0.0000 0.0000 0.0000 29.9614 0.0000
# 6 0.0000 0.0000 0.0000 0.0000 0.0000 20.4365
#
#
#
# Elastic Compliance Matrix: (Units=1/GPa)
#
#
# Indices 1 2 3 4 5 6 
#
# 1 0.015490 -0.002950 -0.007945 0.000000 0.000000 0.000000
# 2 -0.002950 0.014373 -0.002611 0.000000 0.000000 0.000000
# 3 -0.007945 -0.002611 0.016817 0.000000 0.000000 0.000000
# 4 0.000000 0.000000 0.000000 0.040100 0.000000 0.000000
# 5 0.000000 0.000000 0.000000 0.000000 0.033376 0.000000
# 6 0.000000 0.000000 0.000000 0.000000 0.000000 0.048932
#
#
# Mechanical properties :
#
#
# Convention : Reuss Voigt Hill
#
# Bulk Modulus (GPa) = 50.84291 52.27026 51.55659
# Shear Modulus (GPa) = 24.67225 25.62715 25.14970
#
# Velocity S-wave (km/s) = 3.83435 3.90784 3.87127
# Velocity P-wave (km/s) = 7.06401 7.17701 7.12074
#
# Compressibility (1/GPa) = 0.01966842
#
# Stress axis : x y z
#
# Youngs Moduli (GPa) = 64.55761 69.57334 59.46332
#
# Poissons Ratio (x) = 0.20527 0.47241
# Poissons Ratio (y) = 0.19047 0.15526
# Poissons Ratio (z) = 0.51288 0.18166
#
# Static dielectric constant tensor:
#      x y z
#    x 3.247670 0.000000 0.000000 
#    y 0.000000 3.248980 0.000000 
#    z 0.000000 0.000000 3.163230 
# 
# 
# High freq. dielectric constant tensor:
#      x y z
#    x 1.625030 0.000000 0.000000 
#    y 0.000000 1.663990 0.000000 
#    z 0.000000 0.000000 1.625080 
# 
# From -- ./inp_files/10931.got.cif
#   From: 2010.06.25/outbox.cif.g09.slc.cpg/sg71_6_cif.got.tgz:10931.got - 2010.06.28 04:59:45.
