data_PCOD8289485
_publ_section_title
;
Structure prediction by ZEFSAII (Michael W. Deem and Ramdas Pophale) SiO2 
 PCOD8289485
Probable space group: I M M M
;
_chemical_formula_sum "Si O2"
_cell_formula_units_Z 88
_cell_length_a 9.008026
_cell_length_b 17.721062
_cell_length_c 27.256418
_cell_angle_alpha 90.000000
_cell_angle_beta 90.000000
_cell_angle_gamma 90.000000
_cell_volume 4350.990719
_symmetry_space_group_name_H-M "I M M M"
_symmetry_group_IT_number 71
_symmetry_cell_setting 'orthorhombic'
loop_
_space_group_symop_operation_xyz
x,y,z
-x,-y,z
x,-y,-z
-x,y,-z
-x,-y,-z
x,y,-z
-x,y,z
x,-y,z
1/2+x,1/2+y,1/2+z
1/2-x,1/2-y,1/2+z
1/2+x,1/2-y,1/2-z
1/2-x,1/2+y,1/2-z
1/2-x,1/2-y,1/2-z
1/2+x,1/2+y,1/2-z
1/2-x,1/2+y,1/2+z
1/2+x,1/2-y,1/2+z
loop_
_atom_site_type_symbol
_atom_site_label
_atom_site_fract_x
_atom_site_fract_y
_atom_site_fract_z
Si Si1 0.174213 0.818475 0.410438
Si Si2 0.174790 0.328107 0.265576
Si Si3 0.671911 0.914375 0.137434
Si Si4 0.823754 0.082862 0.500000
Si Si5 0.324268 0.330735 0.443750
Si Si6 0.829191 0.914086 0.315879
O O1 0.233272 0.874132 0.452283
O O2 0.262663 0.741582 0.415311
O O3 0.212646 0.857029 0.359152
O O4 0.000000 0.801623 0.415864
O O5 0.250000 0.250000 0.250000
O O6 0.220671 0.355252 0.320138
O O7 0.225068 0.394968 0.229703
O O8 0.000000 0.316709 0.262020
O O9 0.500000 0.902127 0.124789
O O10 0.764961 0.901460 0.087551
O O11 0.701658 0.000000 0.155328
O O12 0.000000 0.076967 0.500000
O O13 0.752104 0.000000 0.500000
O O14 0.266033 0.334733 0.500000
O O15 0.500000 0.329763 0.442969
O O16 0.000000 0.902931 0.300374
O O17 0.800377 0.000000 0.332949
#
# Coordination Sequence:
#
# PCOD8289485 Si02
#       6
#    16  16  16   8  16  16
#     4  10  19  34  57  84 114 154 201 243 284 338
#     4  11  23  40  62  89 120 155 196 240 290 348
#     4  10  23  43  65  88 115 150 196 246 291 343
#     4   9  16  28  51  81 110 145 194 247 289 326
#     4  11  24  40  59  86 120 154 190 238 297 357
#     4  10  21  36  56  86 122 156 194 242 292 344
#
# _framework density 20.225277999999999
#
# number of rings (size 3 to 8) (size 9 to 14) (size 15 to 20)
#    0.000    1.727    0.909    3.273    0.000   11.636 
#    0.000    1.818    0.000    2.182    0.000    0.000 
#    0.000    0.000    0.000    0.000    0.000    0.000 
#
# Total GULP energy -545684.731868 kJ/mol
# GULP energy per Si atom -12401.925724 kJ/mol
# Density = 2.017924 g / cm^3
# Si number density = 20.225278 Si / 1000 Ang^3
#
#
#
# Elastic Constant Matrix: (Units=GPa)
#
#
# Indices 1 2 3 4 5 6 
#
# 1 60.8981 36.6863 53.3287 0.0000 0.0000 0.0000
# 2 36.6863 106.9452 50.8488 0.0000 0.0000 0.0000
# 3 53.3287 50.8488 134.4788 0.0000 0.0000 0.0000
# 4 0.0000 0.0000 0.0000 40.5897 0.0000 0.0000
# 5 0.0000 0.0000 0.0000 0.0000 30.7145 0.0000
# 6 0.0000 0.0000 0.0000 0.0000 0.0000 26.4911
#
#
#
# Elastic Compliance Matrix: (Units=1/GPa)
#
#
# Indices 1 2 3 4 5 6 
#
# 1 0.027294 -0.005141 -0.008880 0.000000 0.000000 0.000000
# 2 -0.005141 0.012368 -0.002638 0.000000 0.000000 0.000000
# 3 -0.008880 -0.002638 0.011955 0.000000 0.000000 0.000000
# 4 0.000000 0.000000 0.000000 0.024637 0.000000 0.000000
# 5 0.000000 0.000000 0.000000 0.000000 0.032558 0.000000
# 6 0.000000 0.000000 0.000000 0.000000 0.000000 0.037748
#
#
# Mechanical properties :
#
#
# Convention : Reuss Voigt Hill
#
# Bulk Modulus (GPa) = 54.64512 64.89441 59.76977
# Shear Modulus (GPa) = 26.88494 30.32295 28.60395
#
# Velocity S-wave (km/s) = 3.64988 3.87623 3.76475
# Velocity P-wave (km/s) = 6.69619 7.22419 6.96520
#
# Compressibility (1/GPa) = 0.01829990
#
# Stress axis : x y z
#
# Youngs Moduli (GPa) = 36.63825 80.85126 83.64726
#
# Poissons Ratio (x) = 0.41564 0.74277
# Poissons Ratio (y) = 0.18835 0.22067
# Poissons Ratio (z) = 0.32534 0.21329
#
# Static dielectric constant tensor:
#      x y z
#    x 3.488970 0.000000 0.000000 
#    y 0.000000 3.782560 0.000000 
#    z 0.000000 0.000000 4.027720 
# 
# 
# High freq. dielectric constant tensor:
#      x y z
#    x 1.768350 0.000000 0.000000 
#    y 0.000000 1.802150 0.000000 
#    z 0.000000 0.000000 1.801030 
# 
# From -- ./inp_files/67997.got.cif
#   From: 2010.06.25/outbox.cif.g09.slc.cpg/sg71_34_cif.got.tgz:67997.got - 2010.06.28 04:59:45.
