data_PCOD8289899
_publ_section_title
;
Structure prediction by ZEFSAII (Michael W. Deem and Ramdas Pophale) SiO2 
 PCOD8289899
Probable space group: I M M M
;
_chemical_formula_sum "Si O2"
_cell_formula_units_Z 104
_cell_length_a 27.452690
_cell_length_b 8.970205
_cell_length_c 23.827005
_cell_angle_alpha 90.000000
_cell_angle_beta 90.000000
_cell_angle_gamma 90.000000
_cell_volume 5867.549069
_symmetry_space_group_name_H-M "I M M M"
_symmetry_group_IT_number 71
_symmetry_cell_setting 'orthorhombic'
loop_
_space_group_symop_operation_xyz
x,y,z
-x,-y,z
x,-y,-z
-x,y,-z
-x,-y,-z
x,y,-z
-x,y,z
x,-y,z
1/2+x,1/2+y,1/2+z
1/2-x,1/2-y,1/2+z
1/2+x,1/2-y,1/2-z
1/2-x,1/2+y,1/2-z
1/2-x,1/2-y,1/2-z
1/2+x,1/2+y,1/2-z
1/2-x,1/2+y,1/2+z
1/2+x,1/2-y,1/2+z
loop_
_atom_site_type_symbol
_atom_site_label
_atom_site_fract_x
_atom_site_fract_y
_atom_site_fract_z
Si Si1 0.360473 0.168720 0.334447
Si Si2 0.801633 0.175063 0.258575
Si Si3 0.500000 0.339539 0.434344
Si Si4 0.944484 0.324214 0.564411
Si Si5 0.105157 0.823027 0.936365
Si Si6 0.386971 0.324693 0.161892
Si Si7 0.445391 0.832714 0.254600
O O1 0.329991 0.279972 0.296796
O O2 0.357482 0.233369 0.397294
O O3 0.415664 0.174612 0.312256
O O4 0.339548 0.000000 0.332989
O O5 0.750000 0.250000 0.250000
O O6 0.833190 0.225677 0.314110
O O7 0.794033 0.000000 0.260615
O O8 0.500000 0.500000 0.403257
O O9 0.500000 0.372187 0.500000
O O10 0.551060 0.257719 0.420820
O O11 0.934394 0.276564 0.500000
O O12 0.939599 0.500000 0.571055
O O13 0.902698 0.250337 0.603183
O O14 0.000000 0.275611 0.581249
O O15 0.107375 0.000000 0.925482
O O16 0.119781 0.786013 0.000000
O O17 0.387608 0.500000 0.152539
O O18 0.426641 0.282145 0.208325
O O19 0.500000 0.788025 0.270754
O O20 0.442234 0.000000 0.228841
#
# Coordination Sequence:
#
# PCOD8289899 Si02
#       7
#    16  16   8  16  16  16  16
#     4  10  20  32  49  73 100 129 165 206 252 301
#     4  10  21  38  58  78 100 125 161 208 261 316
#     4   7  12  24  41  61  87 125 169 203 234 275
#     4   9  18  32  50  74 107 148 186 211 236 284
#     4   9  17  30  47  67  95 132 171 208 246 290
#     4  10  20  32  49  76 104 129 163 209 256 300
#     4   9  18  31  45  64  96 136 170 201 241 292
#
# _framework density 17.724606000000001
#
# number of rings (size 3 to 8) (size 9 to 14) (size 15 to 20)
#    0.000    2.692    0.000    3.231    1.077    5.538 
#    0.000    0.769    0.000    2.308    0.000    4.308 
#    0.000    0.000    0.000    0.000    0.000    0.000 
#
# Total GULP energy -644206.658710 kJ/mol
# GULP energy per Si atom -12388.589591 kJ/mol
# Density = 1.768426 g / cm^3
# Si number density = 17.724606 Si / 1000 Ang^3
#
#
#
# Elastic Constant Matrix: (Units=GPa)
#
#
# Indices 1 2 3 4 5 6 
#
# 1 108.0560 38.5219 47.1161 0.0000 0.0000 0.0000
# 2 38.5219 55.0826 40.3949 0.0000 0.0000 0.0000
# 3 47.1161 40.3949 108.1952 0.0000 0.0000 0.0000
# 4 0.0000 0.0000 0.0000 30.9501 0.0000 0.0000
# 5 0.0000 0.0000 0.0000 0.0000 18.2886 0.0000
# 6 0.0000 0.0000 0.0000 0.0000 0.0000 58.5654
#
#
#
# Elastic Compliance Matrix: (Units=1/GPa)
#
#
# Indices 1 2 3 4 5 6 
#
# 1 0.013057 -0.006832 -0.003135 0.000000 0.000000 0.000000
# 2 -0.006832 0.028574 -0.007693 0.000000 0.000000 0.000000
# 3 -0.003135 -0.007693 0.013480 0.000000 0.000000 0.000000
# 4 0.000000 0.000000 0.000000 0.032310 0.000000 0.000000
# 5 0.000000 0.000000 0.000000 0.000000 0.054679 0.000000
# 6 0.000000 0.000000 0.000000 0.000000 0.000000 0.017075
#
#
# Mechanical properties :
#
#
# Convention : Reuss Voigt Hill
#
# Bulk Modulus (GPa) = 50.52905 58.15549 54.34227
# Shear Modulus (GPa) = 24.86403 31.24754 28.05579
#
# Velocity S-wave (km/s) = 3.74946 4.20330 3.98285
# Velocity P-wave (km/s) = 6.87854 7.51258 7.20254
#
# Compressibility (1/GPa) = 0.01979059
#
# Stress axis : x y z
#
# Youngs Moduli (GPa) = 76.58577 34.99630 74.18367
#
# Poissons Ratio (x) = 0.23911 0.23258
# Poissons Ratio (y) = 0.52326 0.57070
# Poissons Ratio (z) = 0.24011 0.26923
#
# Static dielectric constant tensor:
#      x y z
#    x 4.490840 0.000000 0.000000 
#    y 0.000000 3.190760 0.000000 
#    z 0.000000 0.000000 3.226730 
# 
# 
# High freq. dielectric constant tensor:
#      x y z
#    x 1.661520 0.000000 0.000000 
#    y 0.000000 1.679540 0.000000 
#    z 0.000000 0.000000 1.679520 
# 
# From -- ./inp_files/61981.got.cif
#   From: 2010.06.25/outbox.cif.g09.slc.cpg/sg71_31_cif.got.tgz:61981.got - 2010.06.28 04:59:45.
