data_PCOD8289140
_publ_section_title
;
Structure prediction by ZEFSAII (Michael W. Deem and Ramdas Pophale) SiO2 
 PCOD8289140
Probable space group: I M M M
;
_chemical_formula_sum "Si O2"
_cell_formula_units_Z 88
_cell_length_a 26.973059
_cell_length_b 9.004192
_cell_length_c 20.054171
_cell_angle_alpha 90.000000
_cell_angle_beta 90.000000
_cell_angle_gamma 90.000000
_cell_volume 4870.568585
_symmetry_space_group_name_H-M "I M M M"
_symmetry_group_IT_number 71
_symmetry_cell_setting 'orthorhombic'
loop_
_space_group_symop_operation_xyz
x,y,z
-x,-y,z
x,-y,-z
-x,y,-z
-x,-y,-z
x,y,-z
-x,y,z
x,-y,z
1/2+x,1/2+y,1/2+z
1/2-x,1/2-y,1/2+z
1/2+x,1/2-y,1/2-z
1/2-x,1/2+y,1/2-z
1/2-x,1/2-y,1/2-z
1/2+x,1/2+y,1/2-z
1/2-x,1/2+y,1/2+z
1/2+x,1/2-y,1/2+z
loop_
_atom_site_type_symbol
_atom_site_label
_atom_site_fract_x
_atom_site_fract_y
_atom_site_fract_z
Si Si1 0.942269 0.328323 0.000000
Si Si2 0.332229 0.668288 0.000000
Si Si3 0.714472 0.834274 0.500000
Si Si4 0.941470 0.326088 0.144279
Si Si5 0.365145 0.325219 0.263431
Si Si6 0.669853 0.824458 0.866196
Si Si7 0.783614 0.172760 0.130813
O O1 0.922335 0.265610 0.071032
O O2 0.929939 0.500000 0.000000
O O3 0.000000 0.300268 0.000000
O O4 0.351161 0.754097 0.934485
O O5 0.352687 0.500000 0.000000
O O6 0.273310 0.670205 0.000000
O O7 0.694293 0.754897 0.433848
O O8 0.693155 0.000000 0.500000
O O9 0.928667 0.500000 0.152956
O O10 0.914480 0.229275 0.199900
O O11 0.000000 0.300679 0.152218
O O12 0.368334 0.500000 0.250907
O O13 0.362472 0.241839 0.193320
O O14 0.316551 0.281881 0.305995
O O15 0.727179 0.778933 0.854536
O O16 0.662890 0.000000 0.869583
O O17 0.786683 0.000000 0.114825
#
# Coordination Sequence:
#
# PCOD8289140 Si02
#       7
#     8   8   8  16  16  16  16
#     4   7  12  27  51  72  90 119 161 206 245 280
#     4   9  17  31  50  72  98 126 159 201 245 288
#     4   9  17  28  46  69  93 128 171 208 241 282
#     4   9  18  34  54  74  97 127 165 207 248 293
#     4  11  22  33  47  71 101 131 163 203 252 296
#     4  10  19  33  52  72  96 130 169 203 239 288
#     4   9  19  33  47  66  98 135 167 203 245 290
#
# _framework density 18.067706000000001
#
# number of rings (size 3 to 8) (size 9 to 14) (size 15 to 20)
#    0.000    2.636    0.000    3.273    0.000    5.455 
#    0.000    2.273    0.000    1.636    0.000    0.636 
#    0.000    5.091    0.000    0.000    0.000    0.000 
#
# Total GULP energy -545426.406783 kJ/mol
# GULP energy per Si atom -12396.054700 kJ/mol
# Density = 1.802658 g / cm^3
# Si number density = 18.067706 Si / 1000 Ang^3
#
#
#
# Elastic Constant Matrix: (Units=GPa)
#
#
# Indices 1 2 3 4 5 6 
#
# 1 44.4764 24.1261 40.6094 0.0000 0.0000 0.0000
# 2 24.1261 80.2056 65.4377 0.0000 0.0000 0.0000
# 3 40.6094 65.4377 166.2789 0.0000 0.0000 0.0000
# 4 0.0000 0.0000 0.0000 28.1575 0.0000 0.0000
# 5 0.0000 0.0000 0.0000 0.0000 10.1842 0.0000
# 6 0.0000 0.0000 0.0000 0.0000 0.0000 20.7535
#
#
#
# Elastic Compliance Matrix: (Units=1/GPa)
#
#
# Indices 1 2 3 4 5 6 
#
# 1 0.029994 -0.004486 -0.005560 0.000000 0.000000 0.000000
# 2 -0.004486 0.019035 -0.006396 0.000000 0.000000 0.000000
# 3 -0.005560 -0.006396 0.009889 0.000000 0.000000 0.000000
# 4 0.000000 0.000000 0.000000 0.035515 0.000000 0.000000
# 5 0.000000 0.000000 0.000000 0.000000 0.098191 0.000000
# 6 0.000000 0.000000 0.000000 0.000000 0.000000 0.048185
#
#
# Mechanical properties :
#
#
# Convention : Reuss Voigt Hill
#
# Bulk Modulus (GPa) = 38.41003 61.25636 49.83320
# Shear Modulus (GPa) = 17.70731 22.53822 20.12277
#
# Velocity S-wave (km/s) = 3.13398 3.53573 3.34090
# Velocity P-wave (km/s) = 5.86522 7.11659 6.52099
#
# Compressibility (1/GPa) = 0.02603487
#
# Stress axis : x y z
#
# Youngs Moduli (GPa) = 33.34045 52.53364 101.12514
#
# Poissons Ratio (x) = 0.23567 0.56222
# Poissons Ratio (y) = 0.14957 0.64676
# Poissons Ratio (z) = 0.18536 0.33598
#
# Static dielectric constant tensor:
#      x y z
#    x 2.951950 0.000000 0.000000 
#    y 0.000000 3.279380 0.000000 
#    z 0.000000 0.000000 3.519860 
# 
# 
# High freq. dielectric constant tensor:
#      x y z
#    x 1.657310 0.000000 0.000000 
#    y 0.000000 1.696080 0.000000 
#    z 0.000000 0.000000 1.709630 
# 
# From -- ./inp_files/8896.got.cif
#   From: 2010.06.25/outbox.cif.g09.slc.cpg/sg71_5_cif.got.tgz:8896.got - 2010.06.28 04:59:45.
