data_PCOD8289713
_publ_section_title
;
Structure prediction by ZEFSAII (Michael W. Deem and Ramdas Pophale) SiO2 
 PCOD8289713
Probable space group: I M M M
;
_chemical_formula_sum "Si O2"
_cell_formula_units_Z 112
_cell_length_a 31.502919
_cell_length_b 16.643822
_cell_length_c 13.661824
_cell_angle_alpha 90.000000
_cell_angle_beta 90.000000
_cell_angle_gamma 90.000000
_cell_volume 7163.290193
_symmetry_space_group_name_H-M "I M M M"
_symmetry_group_IT_number 71
_symmetry_cell_setting 'orthorhombic'
loop_
_space_group_symop_operation_xyz
x,y,z
-x,-y,z
x,-y,-z
-x,y,-z
-x,-y,-z
x,y,-z
-x,y,z
x,-y,z
1/2+x,1/2+y,1/2+z
1/2-x,1/2-y,1/2+z
1/2+x,1/2-y,1/2-z
1/2-x,1/2+y,1/2-z
1/2-x,1/2-y,1/2-z
1/2+x,1/2+y,1/2-z
1/2-x,1/2+y,1/2+z
1/2+x,1/2-y,1/2+z
loop_
_atom_site_type_symbol
_atom_site_label
_atom_site_fract_x
_atom_site_fract_y
_atom_site_fract_z
Si Si1 0.877977 0.316173 0.793697
Si Si2 0.313156 0.500000 0.615978
Si Si3 0.698673 0.911360 0.615947
Si Si4 0.950838 0.407740 0.887131
Si Si5 0.336352 0.672812 0.615963
Si Si6 0.247544 0.261735 0.114423
Si Si7 0.173569 0.664127 0.615535
Si Si8 0.781964 0.500000 0.384006
O O1 0.845256 0.373793 0.849526
O O2 0.924899 0.348210 0.816501
O O3 0.873212 0.224301 0.831212
O O4 0.869483 0.320287 0.676505
O O5 0.308247 0.500000 0.500000
O O6 0.339155 0.579447 0.648744
O O7 0.265529 0.500000 0.660664
O O8 0.695749 0.917814 0.500000
O O9 0.738224 0.853842 0.645636
O O10 0.705994 0.000000 0.662499
O O11 0.939380 0.500000 0.862953
O O12 0.000000 0.391282 0.866034
O O13 0.939919 0.389150 0.000000
O O14 0.341903 0.683432 0.500000
O O15 0.290554 0.705266 0.651698
O O16 0.292670 0.230949 0.154608
O O17 0.250361 0.250643 0.000000
O O18 0.163498 0.668655 0.500000
O O19 0.192441 0.578678 0.649610
O O20 0.778644 0.500000 0.500000
#
# Coordination Sequence:
#
# PCOD8289713 Si02
#       8
#    16   8  16  16  16  16  16   8
#     4  11  20  28  45  66  87 109 144 187 222 254
#     4   9  14  26  44  58  86 122 149 180 218 254
#     4   9  17  27  40  61  89 117 143 177 223 269
#     4   9  18  33  52  72  93 114 133 160 208 271
#     4   9  16  26  42  65  88 115 145 179 219 259
#     4   8  14  27  41  53  79 116 152 184 214 249
#     4  10  20  31  42  57  82 118 158 192 219 245
#     4   9  16  28  42  54  76 117 161 193 216 245
#
# _framework density 15.635274000000001
#
# number of rings (size 3 to 8) (size 9 to 14) (size 15 to 20)
#    0.000    2.714    1.429    3.000    2.000    3.429 
#    0.000    0.000    0.000    0.429    0.000    1.500 
#    0.000    2.857    0.000    0.000    0.000    1.429 
#
# Total GULP energy -694060.305534 kJ/mol
# GULP energy per Si atom -12393.934027 kJ/mol
# Density = 1.559969 g / cm^3
# Si number density = 15.635274 Si / 1000 Ang^3
#
#
#
# Elastic Constant Matrix: (Units=GPa)
#
#
# Indices 1 2 3 4 5 6 
#
# 1 64.6896 33.2658 29.7109 0.0000 0.0000 0.0000
# 2 33.2658 118.0892 35.5241 0.0000 0.0000 0.0000
# 3 29.7109 35.5241 43.3854 0.0000 0.0000 0.0000
# 4 0.0000 0.0000 0.0000 13.5200 0.0000 0.0000
# 5 0.0000 0.0000 0.0000 0.0000 17.4629 0.0000
# 6 0.0000 0.0000 0.0000 0.0000 0.0000 19.8200
#
#
#
# Elastic Compliance Matrix: (Units=1/GPa)
#
#
# Indices 1 2 3 4 5 6 
#
# 1 0.023017 -0.002312 -0.013870 0.000000 0.000000 0.000000
# 2 -0.002312 0.011468 -0.007807 0.000000 0.000000 0.000000
# 3 -0.013870 -0.007807 0.038940 0.000000 0.000000 0.000000
# 4 0.000000 0.000000 0.000000 0.073965 0.000000 0.000000
# 5 0.000000 0.000000 0.000000 0.000000 0.057264 0.000000
# 6 0.000000 0.000000 0.000000 0.000000 0.000000 0.050454
#
#
# Mechanical properties :
#
#
# Convention : Reuss Voigt Hill
#
# Bulk Modulus (GPa) = 39.29533 47.01841 43.15687
# Shear Modulus (GPa) = 16.04790 18.67148 17.35969
#
# Velocity S-wave (km/s) = 3.20721 3.45945 3.33572
# Velocity P-wave (km/s) = 6.23714 6.78929 6.51906
#
# Compressibility (1/GPa) = 0.02544831
#
# Stress axis : x y z
#
# Youngs Moduli (GPa) = 43.44550 87.20026 25.68065
#
# Poissons Ratio (x) = 0.20157 0.35619
# Poissons Ratio (y) = 0.10043 0.20049
# Poissons Ratio (z) = 0.60258 0.68076
#
# Static dielectric constant tensor:
#      x y z
#    x 2.607460 0.000000 0.000000 
#    y 0.000000 3.363030 0.000000 
#    z 0.000000 0.000000 2.876090 
# 
# 
# High freq. dielectric constant tensor:
#      x y z
#    x 1.541600 0.000000 0.000000 
#    y 0.000000 1.605830 0.000000 
#    z 0.000000 0.000000 1.595440 
# 
# From -- ./inp_files/41219.got.cif
#   From: 2010.06.25/outbox.cif.g09.slc.cpg/sg71_21_cif.got.tgz:41219.got - 2010.06.28 04:59:45.
