data_PCOD8289165
_publ_section_title
;
Structure prediction by ZEFSAII (Michael W. Deem and Ramdas Pophale) SiO2 
 PCOD8289165
Probable space group: I M M M
;
_chemical_formula_sum "Si O2"
_cell_formula_units_Z 104
_cell_length_a 9.219156
_cell_length_b 32.375384
_cell_length_c 19.740972
_cell_angle_alpha 90.000000
_cell_angle_beta 90.000000
_cell_angle_gamma 90.000000
_cell_volume 5892.161263
_symmetry_space_group_name_H-M "I M M M"
_symmetry_group_IT_number 71
_symmetry_cell_setting 'orthorhombic'
loop_
_space_group_symop_operation_xyz
x,y,z
-x,-y,z
x,-y,-z
-x,y,-z
-x,-y,-z
x,y,-z
-x,y,z
x,-y,z
1/2+x,1/2+y,1/2+z
1/2-x,1/2-y,1/2+z
1/2+x,1/2-y,1/2-z
1/2-x,1/2+y,1/2-z
1/2-x,1/2-y,1/2-z
1/2+x,1/2+y,1/2-z
1/2-x,1/2+y,1/2+z
1/2+x,1/2-y,1/2+z
loop_
_atom_site_type_symbol
_atom_site_label
_atom_site_fract_x
_atom_site_fract_y
_atom_site_fract_z
Si Si1 0.168511 0.796589 0.078826
Si Si2 0.834730 0.854685 0.307718
Si Si3 0.166900 0.123514 0.844015
Si Si4 0.664463 0.500000 0.079965
Si Si5 0.668711 0.954073 0.188904
Si Si6 0.669867 0.068410 0.657857
Si Si7 0.331238 0.260626 0.818740
O O1 0.213189 0.843200 0.099450
O O2 0.265574 0.763884 0.118373
O O3 0.000000 0.789189 0.097430
O O4 0.199315 0.790572 0.000000
O O5 0.795815 0.855851 0.228130
O O6 0.728393 0.884878 0.348926
O O7 0.810221 0.808814 0.335409
O O8 0.000000 0.869244 0.319094
O O9 0.251788 0.080661 0.855610
O O10 0.000000 0.111786 0.850257
O O11 0.500000 0.500000 0.108309
O O12 0.747609 0.459292 0.103856
O O13 0.664329 0.500000 0.000000
O O14 0.500000 0.948071 0.176260
O O15 0.706287 0.948887 0.267859
O O16 0.718906 0.000000 0.166383
O O17 0.500000 0.067402 0.641893
O O18 0.500000 0.249404 0.809869
O O19 0.250000 0.250000 0.750000
#
# Coordination Sequence:
#
# PCOD8289165 Si02
#       7
#    16  16  16   8  16  16  16
#     4  10  21  38  57  79 112 149 185 228 277 328
#     4   9  18  33  52  77 107 137 173 220 270 322
#     4   9  17  31  50  76 105 137 177 215 261 316
#     4  11  23  37  53  73 101 141 182 217 262 321
#     4   9  17  30  48  75 107 132 162 211 267 313
#     4  10  19  33  52  76 103 133 171 218 267 315
#     4  11  21  35  57  83 113 145 185 231 277 330
#
# _framework density 17.650569000000001
#
# number of rings (size 3 to 8) (size 9 to 14) (size 15 to 20)
#    0.000    2.231    2.308    1.154    0.000    3.692 
#    0.000    0.769    0.000    1.385    0.000    3.231 
#    0.000    0.000    0.000    0.000    0.000    0.000 
#
# Total GULP energy -644873.874977 kJ/mol
# GULP energy per Si atom -12401.420673 kJ/mol
# Density = 1.761040 g / cm^3
# Si number density = 17.650569 Si / 1000 Ang^3
#
#
#
# Elastic Constant Matrix: (Units=GPa)
#
#
# Indices 1 2 3 4 5 6 
#
# 1 101.6124 72.0939 48.3955 0.0000 0.0000 0.0000
# 2 72.0939 140.6792 50.5480 0.0000 0.0000 0.0000
# 3 48.3955 50.5480 68.5960 0.0001 0.0000 0.0000
# 4 0.0000 0.0000 0.0001 25.9536 0.0000 0.0000
# 5 0.0000 0.0000 0.0000 0.0000 22.3016 0.0000
# 6 0.0000 0.0000 0.0000 0.0000 0.0000 38.0104
#
#
#
# Elastic Compliance Matrix: (Units=1/GPa)
#
#
# Indices 1 2 3 4 5 6 
#
# 1 0.018303 -0.006447 -0.008162 0.000000 0.000000 0.000000
# 2 -0.006447 0.011939 -0.004249 0.000000 0.000000 0.000000
# 3 -0.008162 -0.004249 0.023468 0.000000 0.000000 0.000000
# 4 0.000000 0.000000 0.000000 0.038530 0.000000 0.000000
# 5 0.000000 0.000000 0.000000 0.000000 0.044840 0.000000
# 6 0.000000 0.000000 0.000000 0.000000 0.000000 0.026309
#
#
# Mechanical properties :
#
#
# Convention : Reuss Voigt Hill
#
# Bulk Modulus (GPa) = 62.52800 72.55135 67.53968
# Shear Modulus (GPa) = 24.22046 26.57647 25.39847
#
# Velocity S-wave (km/s) = 3.70837 3.88455 3.79748
# Velocity P-wave (km/s) = 7.33746 7.83027 7.58787
#
# Compressibility (1/GPa) = 0.01599283
#
# Stress axis : x y z
#
# Youngs Moduli (GPa) = 54.63631 83.75855 42.61090
#
# Poissons Ratio (x) = 0.53998 0.34780
# Poissons Ratio (y) = 0.35223 0.18108
# Poissons Ratio (z) = 0.44596 0.35593
#
# Static dielectric constant tensor:
#      x y z
#    x 3.352270 0.000000 0.000000 
#    y 0.000000 3.482330 0.000000 
#    z 0.000000 0.000000 2.962730 
# 
# 
# High freq. dielectric constant tensor:
#      x y z
#    x 1.687910 0.000000 0.000000 
#    y 0.000000 1.694880 0.000000 
#    z 0.000000 0.000000 1.645110 
# 
# From -- ./inp_files/51127.got.cif
#   From: 2010.06.25/outbox.cif.g09.slc.cpg/sg71_26_cif.got.tgz:51127.got - 2010.06.28 04:59:45.
