data_PCOD8289657
_publ_section_title
;
Structure prediction by ZEFSAII (Michael W. Deem and Ramdas Pophale) SiO2 
 PCOD8289657
Probable space group: I M M M
;
_chemical_formula_sum "Si O2"
_cell_formula_units_Z 104
_cell_length_a 17.463739
_cell_length_b 17.123655
_cell_length_c 17.845387
_cell_angle_alpha 90.000000
_cell_angle_beta 90.000000
_cell_angle_gamma 90.000000
_cell_volume 5336.538808
_symmetry_space_group_name_H-M "I M M M"
_symmetry_group_IT_number 71
_symmetry_cell_setting 'orthorhombic'
loop_
_space_group_symop_operation_xyz
x,y,z
-x,-y,z
x,-y,-z
-x,y,-z
-x,-y,-z
x,y,-z
-x,y,z
x,-y,z
1/2+x,1/2+y,1/2+z
1/2-x,1/2-y,1/2+z
1/2+x,1/2-y,1/2-z
1/2-x,1/2+y,1/2-z
1/2-x,1/2-y,1/2-z
1/2+x,1/2+y,1/2-z
1/2-x,1/2+y,1/2+z
1/2+x,1/2-y,1/2+z
loop_
_atom_site_type_symbol
_atom_site_label
_atom_site_fract_x
_atom_site_fract_y
_atom_site_fract_z
Si Si1 0.640769 0.825031 0.414113
Si Si2 0.176525 0.849070 0.086978
Si Si3 0.084739 0.000000 0.088894
Si Si4 0.303353 0.199172 0.193729
Si Si5 0.711708 0.584602 0.913977
Si Si6 0.584714 0.090012 0.717504
Si Si7 0.089322 0.202808 0.413554
O O1 0.625454 0.845925 0.500000
O O2 0.631460 0.732318 0.400386
O O3 0.726187 0.851427 0.385758
O O4 0.579618 0.872737 0.365737
O O5 0.126161 0.921289 0.116560
O O6 0.253040 0.849157 0.135193
O O7 0.198989 0.858935 0.000000
O O8 0.000000 0.000000 0.123910
O O9 0.080393 0.000000 0.000000
O O10 0.250000 0.250000 0.250000
O O11 0.350231 0.134822 0.238240
O O12 0.366705 0.245441 0.146679
O O13 0.719071 0.500000 0.872792
O O14 0.625586 0.616623 0.903613
O O15 0.730171 0.571074 0.000000
O O16 0.500000 0.098527 0.753909
O O17 0.608700 0.000000 0.711896
O O18 0.101931 0.231759 0.500000
O O19 0.000000 0.199664 0.393390
#
# Coordination Sequence:
#
# PCOD8289657 Si02
#       7
#    16  16   8  16  16  16  16
#     4  10  19  36  62  88 112 149 201 244 286 350
#     4  10  20  37  63  91 116 150 195 241 290 349
#     4   9  20  38  60  92 125 147 176 233 303 353
#     4  12  22  39  60  87 110 154 199 250 292 347
#     4   9  16  28  50  82 116 147 186 238 288 338
#     4  11  25  41  56  82 122 161 196 241 299 354
#     4  10  20  35  57  82 112 152 198 251 301 351
#
# _framework density 19.488287
#
# number of rings (size 3 to 8) (size 9 to 14) (size 15 to 20)
#    0.000    1.769    3.077    1.385    1.077    2.154 
#    0.000    3.846    0.000    0.000    0.000    3.231 
#    0.000    0.000    0.000    0.000    0.000    0.000 
#
# Total GULP energy -644417.844789 kJ/mol
# GULP energy per Si atom -12392.650861 kJ/mol
# Density = 1.944393 g / cm^3
# Si number density = 19.488287 Si / 1000 Ang^3
#
#
#
# Elastic Constant Matrix: (Units=GPa)
#
#
# Indices 1 2 3 4 5 6 
#
# 1 115.0627 70.4757 38.0986 0.0000 0.0000 0.0000
# 2 70.4757 163.0822 46.4843 0.0000 0.0000 0.0000
# 3 38.0986 46.4843 69.5929 0.0000 0.0000 0.0000
# 4 0.0000 0.0000 0.0000 14.7302 0.0000 0.0000
# 5 0.0000 0.0000 0.0000 0.0000 27.6570 0.0000
# 6 0.0000 0.0000 0.0000 0.0000 0.0000 32.0359
#
#
#
# Elastic Compliance Matrix: (Units=1/GPa)
#
#
# Indices 1 2 3 4 5 6 
#
# 1 0.012682 -0.004325 -0.004054 0.000000 0.000000 0.000000
# 2 -0.004325 0.009049 -0.003676 0.000000 0.000000 0.000000
# 3 -0.004054 -0.003676 0.019044 0.000000 0.000000 0.000000
# 4 0.000000 0.000000 0.000000 0.067888 0.000000 0.000000
# 5 0.000000 0.000000 0.000000 0.000000 0.036157 0.000000
# 6 0.000000 0.000000 0.000000 0.000000 0.000000 0.031215
#
#
# Mechanical properties :
#
#
# Convention : Reuss Voigt Hill
#
# Bulk Modulus (GPa) = 60.00784 73.09503 66.55144
# Shear Modulus (GPa) = 24.30708 27.72990 26.01849
#
# Velocity S-wave (km/s) = 3.53550 3.77623 3.65784
# Velocity P-wave (km/s) = 6.89383 7.52342 7.21549
#
# Compressibility (1/GPa) = 0.01666449
#
# Stress axis : x y z
#
# Youngs Moduli (GPa) = 78.84959 110.51103 52.50927
#
# Poissons Ratio (x) = 0.47797 0.21287
# Poissons Ratio (y) = 0.34103 0.19304
# Poissons Ratio (z) = 0.31966 0.40628
#
# Static dielectric constant tensor:
#      x y z
#    x 3.692370 0.000000 0.000000 
#    y 0.000000 3.701090 0.000000 
#    z 0.000000 0.000000 3.560050 
# 
# 
# High freq. dielectric constant tensor:
#      x y z
#    x 1.756980 0.000000 0.000000 
#    y 0.000000 1.762080 0.000000 
#    z 0.000000 0.000000 1.744650 
# 
# From -- ./inp_files/46131.got.cif
#   From: 2010.06.25/outbox.cif.g09.slc.cpg/sg71_24_cif.got.tgz:46131.got - 2010.06.28 04:59:45.
