data_PCOD8289837
_publ_section_title
;
Structure prediction by ZEFSAII (Michael W. Deem and Ramdas Pophale) SiO2 
 PCOD8289837
Probable space group: I M M M
;
_chemical_formula_sum "Si O2"
_cell_formula_units_Z 96
_cell_length_a 24.685336
_cell_length_b 25.101236
_cell_length_c 9.135429
_cell_angle_alpha 90.000000
_cell_angle_beta 90.000000
_cell_angle_gamma 90.000000
_cell_volume 5660.608204
_symmetry_space_group_name_H-M "I M M M"
_symmetry_group_IT_number 71
_symmetry_cell_setting 'orthorhombic'
loop_
_space_group_symop_operation_xyz
x,y,z
-x,-y,z
x,-y,-z
-x,y,-z
-x,-y,-z
x,y,-z
-x,y,z
x,-y,z
1/2+x,1/2+y,1/2+z
1/2-x,1/2-y,1/2+z
1/2+x,1/2-y,1/2-z
1/2-x,1/2+y,1/2-z
1/2-x,1/2-y,1/2-z
1/2+x,1/2+y,1/2-z
1/2-x,1/2+y,1/2+z
1/2+x,1/2-y,1/2+z
loop_
_atom_site_type_symbol
_atom_site_label
_atom_site_fract_x
_atom_site_fract_y
_atom_site_fract_z
Si Si1 0.437092 0.105081 0.828926
Si Si2 0.440990 0.500000 0.827151
Si Si3 0.564494 0.385197 0.166881
Si Si4 0.744611 0.305380 0.169507
Si Si5 0.364051 0.813717 0.666638
Si Si6 0.641515 0.310926 0.329640
Si Si7 0.064343 0.500000 0.834709
O O1 0.500000 0.115096 0.792352
O O2 0.403886 0.156109 0.775702
O O3 0.414477 0.052659 0.747348
O O4 0.427859 0.096582 0.000000
O O5 0.500000 0.500000 0.751526
O O6 0.411967 0.443985 0.785247
O O7 0.449335 0.500000 0.000000
O O8 0.500000 0.384637 0.183018
O O9 0.588508 0.341350 0.274852
O O10 0.581291 0.372023 0.000000
O O11 0.750000 0.250000 0.250000
O O12 0.802317 0.335588 0.186834
O O13 0.694057 0.335460 0.245232
O O14 0.731480 0.295493 0.000000
O O15 0.383357 0.823293 0.500000
O O16 0.366616 0.751289 0.705441
O O17 0.650434 0.320839 0.500000
O O18 0.000000 0.500000 0.831927
O O19 0.086949 0.500000 0.000000
#
# Coordination Sequence:
#
# PCOD8289837 Si02
#       7
#    16   8  16  16  16  16   8
#     4  10  20  32  48  72  99 125 156 195 235 276
#     4   7  12  26  47  68  89 118 159 199 233 277
#     4   9  17  30  49  71  95 125 160 198 241 288
#     4   9  17  31  50  70  92 121 160 200 236 279
#     4   9  19  33  48  68  94 125 158 192 234 282
#     4  10  20  32  47  70  99 129 160 196 238 283
#     4   9  17  31  51  70  91 124 161 193 229 277
#
# _framework density 16.959309000000001
#
# number of rings (size 3 to 8) (size 9 to 14) (size 15 to 20)
#    0.000    2.833    0.000    3.750    0.000    7.000 
#    0.000    3.750    0.000    2.500    0.000    2.333 
#    0.000    0.000    0.000    0.000    0.000    0.000 
#
# Total GULP energy -594842.313042 kJ/mol
# GULP energy per Si atom -12392.548188 kJ/mol
# Density = 1.692071 g / cm^3
# Si number density = 16.959309 Si / 1000 Ang^3
#
#
#
# Elastic Constant Matrix: (Units=GPa)
#
#
# Indices 1 2 3 4 5 6 
#
# 1 66.6545 44.1494 49.1393 0.0000 0.0000 0.0000
# 2 44.1494 83.8680 52.7163 0.0000 0.0000 0.0000
# 3 49.1393 52.7163 109.3964 0.0000 0.0000 0.0000
# 4 0.0000 0.0000 0.0000 26.5309 0.0000 0.0000
# 5 0.0000 0.0000 0.0000 0.0000 29.7811 0.0000
# 6 0.0000 0.0000 0.0000 0.0000 0.0000 3.5690
#
#
#
# Elastic Compliance Matrix: (Units=1/GPa)
#
#
# Indices 1 2 3 4 5 6 
#
# 1 0.026727 -0.009358 -0.007496 0.000000 0.000000 0.000000
# 2 -0.009358 0.020381 -0.005618 0.000000 0.000000 0.000000
# 3 -0.007496 -0.005618 0.015215 0.000000 0.000000 0.000000
# 4 0.000000 0.000000 0.000000 0.037692 0.000000 0.000000
# 5 0.000000 0.000000 0.000000 0.000000 0.033578 0.000000
# 6 0.000000 0.000000 0.000000 0.000000 0.000000 0.280191
#
#
# Mechanical properties :
#
#
# Convention : Reuss Voigt Hill
#
# Bulk Modulus (GPa) = 57.53767 61.32546 59.43157
# Shear Modulus (GPa) = 10.76377 19.57046 15.16712
#
# Velocity S-wave (km/s) = 2.52202 3.40069 2.99377
# Velocity P-wave (km/s) = 6.51777 7.18738 6.86075
#
# Compressibility (1/GPa) = 0.01737992
#
# Stress axis : x y z
#
# Youngs Moduli (GPa) = 37.41478 49.06597 65.72334
#
# Poissons Ratio (x) = 0.45916 0.49267
# Poissons Ratio (y) = 0.35012 0.36921
# Poissons Ratio (z) = 0.28047 0.27564
#
# Static dielectric constant tensor:
#      x y z
#    x 2.752240 0.000000 0.000000 
#    y 0.000000 2.995570 0.000000 
#    z 0.000000 0.000000 3.205170 
# 
# 
# High freq. dielectric constant tensor:
#      x y z
#    x 1.635980 0.000000 0.000000 
#    y 0.000000 1.636970 0.000000 
#    z 0.000000 0.000000 1.658020 
# 
# From -- ./inp_files/13166.got.cif
#   From: 2010.06.25/outbox.cif.g09.slc.cpg/sg71_7_cif.got.tgz:13166.got - 2010.06.28 04:59:45.
