data_PCOD8289357
_publ_section_title
;
Structure prediction by ZEFSAII (Michael W. Deem and Ramdas Pophale) SiO2 
 PCOD8289357
Probable space group: I M M M
;
_chemical_formula_sum "Si O2"
_cell_formula_units_Z 56
_cell_length_a 7.716385
_cell_length_b 37.219680
_cell_length_c 10.362126
_cell_angle_alpha 90.000000
_cell_angle_beta 90.000000
_cell_angle_gamma 90.000000
_cell_volume 2976.016892
_symmetry_space_group_name_H-M "I M M M"
_symmetry_group_IT_number 71
_symmetry_cell_setting 'orthorhombic'
loop_
_space_group_symop_operation_xyz
x,y,z
-x,-y,z
x,-y,-z
-x,y,-z
-x,-y,-z
x,y,-z
-x,y,z
x,-y,z
1/2+x,1/2+y,1/2+z
1/2-x,1/2-y,1/2+z
1/2+x,1/2-y,1/2-z
1/2-x,1/2+y,1/2-z
1/2-x,1/2-y,1/2-z
1/2+x,1/2+y,1/2-z
1/2-x,1/2+y,1/2+z
1/2+x,1/2-y,1/2+z
loop_
_atom_site_type_symbol
_atom_site_label
_atom_site_fract_x
_atom_site_fract_y
_atom_site_fract_z
Si Si1 0.200652 0.831886 0.756286
Si Si2 0.500000 0.959861 0.153325
Si Si3 0.795824 0.285645 0.500000
Si Si4 0.698239 0.408212 0.347166
Si Si5 0.792529 0.795615 0.500000
O O1 0.274843 0.871435 0.786549
O O2 0.284417 0.815623 0.626185
O O3 0.000000 0.837154 0.732315
O O4 0.227350 0.804851 0.873186
O O5 0.674893 0.939906 0.200926
O O6 0.500000 0.000000 0.211985
O O7 0.500000 0.961435 0.000000
O O8 0.723425 0.245143 0.500000
O O9 0.000000 0.286723 0.500000
O O10 0.706265 0.403397 0.500000
O O11 0.500000 0.416792 0.304139
O O12 0.000000 0.795449 0.500000
#
# Coordination Sequence:
#
# PCOD8289357 Si02
#       5
#    16   8   8  16   8
#     4  10  19  34  53  71  99 138 176 219 261 312
#     4   9  18  30  48  75 109 135 161 213 267 313
#     4  11  21  31  51  75  99 136 175 219 270 316
#     4   9  17  29  49  74  98 134 176 208 256 316
#     4   9  20  35  49  73 103 132 176 224 268 310
#
# _framework density 18.817095999999999
#
# number of rings (size 3 to 8) (size 9 to 14) (size 15 to 20)
#    0.000    2.429    1.429    1.286    2.000    0.571 
#    0.000    5.000    0.000    0.000    0.000    2.000 
#    0.000    5.714    0.000    0.000    0.000    0.000 
#
# Total GULP energy -347100.117994 kJ/mol
# GULP energy per Si atom -12396.432786 kJ/mol
# Density = 1.877427 g / cm^3
# Si number density = 18.817096 Si / 1000 Ang^3
#
#
#
# Elastic Constant Matrix: (Units=GPa)
#
#
# Indices 1 2 3 4 5 6 
#
# 1 64.9436 56.3900 12.2083 -0.0010 -0.0010 0.0000
# 2 56.3900 190.6943 55.1094 0.0006 0.0030 0.0000
# 3 12.2083 55.1094 101.8504 0.0023 0.0117 0.0001
# 4 -0.0010 0.0006 0.0023 3.7776 -0.0017 0.0001
# 5 -0.0010 0.0030 0.0117 -0.0017 -214.9547 -0.0002
# 6 0.0000 0.0000 0.0001 0.0001 -0.0002 28.1259
#
#
#
# Elastic Compliance Matrix: (Units=1/GPa)
#
#
# Indices 1 2 3 4 5 6 
#
# 1 0.020801 -0.006437 0.000990 0.000006 0.000000 0.000000
# 2 -0.006437 0.008208 -0.003670 -0.000001 0.000000 0.000000
# 3 0.000990 -0.003670 0.011685 -0.000006 0.000001 0.000000
# 4 0.000006 -0.000001 -0.000006 0.264715 -0.000002 -0.000001
# 5 0.000000 0.000000 0.000001 -0.000002 -0.004652 0.000000
# 6 0.000000 0.000000 0.000000 -0.000001 0.000000 0.035554
#
#
# Mechanical properties :
#
#
# Convention : Reuss Voigt Hill
#
# Bulk Modulus (GPa) = 44.52289 67.21153 55.86721
# Shear Modulus (GPa) = 13.81090 -21.02484 -3.60697
#
# Velocity S-wave (km/s) = 2.71210 -3.34627 -1.38601
# Velocity P-wave (km/s) = 5.78961 4.56791 5.21466
#
# Compressibility (1/GPa) = 0.02246036
#
# Stress axis : x y z
#
# Youngs Moduli (GPa) = 48.07409 121.83234 85.57795
#
# Poissons Ratio (x) = 0.78425 -0.08469
# Poissons Ratio (y) = 0.30946 0.31404
# Poissons Ratio (z) = -0.04758 0.44708
#
# Static dielectric constant tensor:
#      x y z
#    x 3.459350 0.000000 0.000000 
#    y 0.000000 3.746860 0.000000 
#    z 0.000000 0.000000 3.403580 
# 
# 
# High freq. dielectric constant tensor:
#      x y z
#    x 1.726570 0.000000 0.000000 
#    y 0.000000 1.732910 0.000000 
#    z 0.000000 0.000000 1.697290 
# 
# From -- ./inp_files/3606.got.cif
#   From: 2010.06.25/outbox.cif.g09.slc.cpg/sg71_2_cif.got.tgz:3606.got - 2010.06.28 04:59:45.
