data_PCOD8289400
_publ_section_title
;
Structure prediction by ZEFSAII (Michael W. Deem and Ramdas Pophale) SiO2 
 PCOD8289400
Probable space group: I M M M
;
_chemical_formula_sum "Si O2"
_cell_formula_units_Z 96
_cell_length_a 17.862891
_cell_length_b 17.824143
_cell_length_c 17.333246
_cell_angle_alpha 90.000000
_cell_angle_beta 90.000000
_cell_angle_gamma 90.000000
_cell_volume 5518.744736
_symmetry_space_group_name_H-M "I M M M"
_symmetry_group_IT_number 71
_symmetry_cell_setting 'orthorhombic'
loop_
_space_group_symop_operation_xyz
x,y,z
-x,-y,z
x,-y,-z
-x,y,-z
-x,-y,-z
x,y,-z
-x,y,z
x,-y,z
1/2+x,1/2+y,1/2+z
1/2-x,1/2-y,1/2+z
1/2+x,1/2-y,1/2-z
1/2-x,1/2+y,1/2-z
1/2-x,1/2-y,1/2-z
1/2+x,1/2+y,1/2-z
1/2-x,1/2+y,1/2+z
1/2+x,1/2-y,1/2+z
loop_
_atom_site_type_symbol
_atom_site_label
_atom_site_fract_x
_atom_site_fract_y
_atom_site_fract_z
Si Si1 0.583116 0.416660 0.248800
Si Si2 0.085928 0.235974 0.823129
Si Si3 0.818380 0.319331 0.697889
Si Si4 0.764336 0.913902 0.675616
Si Si5 0.281033 0.780258 0.587377
Si Si6 0.415830 0.084031 0.089371
O O1 0.500000 0.407899 0.211126
O O2 0.591856 0.500000 0.286397
O O3 0.592661 0.354276 0.315349
O O4 0.645489 0.407013 0.182363
O O5 0.120668 0.274506 0.747312
O O6 0.131043 0.262657 0.899177
O O7 0.000000 0.261654 0.832263
O O8 0.772870 0.379445 0.747750
O O9 0.761942 0.262101 0.656484
O O10 0.859120 0.361464 0.629880
O O11 0.736593 0.868463 0.600158
O O12 0.738805 0.000000 0.666347
O O13 0.258838 0.757599 0.500000
O O14 0.500000 0.112662 0.103622
O O15 0.406993 0.000000 0.122194
O O16 0.395755 0.085095 0.000000
#
# Coordination Sequence:
#
# PCOD8289400 Si02
#       6
#    16  16  16  16  16  16
#     4   9  16  29  52  78 102 129 166 213 256 296
#     4  10  19  34  55  76 100 134 176 217 258 302
#     4  11  18  33  50  79  97 128 167 225 255 300
#     4  10  19  34  55  76 100 134 176 217 258 302
#     4  11  22  35  50  76 111 139 169 209 260 321
#     4   9  18  31  46  67  97 130 160 195 251 316
#
# _framework density 17.39526
#
# number of rings (size 3 to 8) (size 9 to 14) (size 15 to 20)
#    0.000    2.000    3.333    3.000    0.000    0.667 
#    0.000    0.000    0.000    7.500    0.000    9.333 
#    0.000    0.000    0.000    0.000    0.000    0.000 
#
# Total GULP energy -594973.490517 kJ/mol
# GULP energy per Si atom -12395.281052 kJ/mol
# Density = 1.735567 g / cm^3
# Si number density = 17.395260 Si / 1000 Ang^3
#
#
#
# Elastic Constant Matrix: (Units=GPa)
#
#
# Indices 1 2 3 4 5 6 
#
# 1 97.2606 42.0494 21.5549 0.0000 0.0000 0.0000
# 2 42.0494 93.6876 19.0951 0.0000 0.0000 0.0000
# 3 21.5549 19.0951 56.6102 0.0000 0.0000 0.0000
# 4 0.0000 0.0000 0.0000 18.8350 0.0000 0.0000
# 5 0.0000 0.0000 0.0000 0.0000 19.5279 0.0000
# 6 0.0000 0.0000 0.0000 0.0000 0.0000 26.6115
#
#
#
# Elastic Compliance Matrix: (Units=1/GPa)
#
#
# Indices 1 2 3 4 5 6 
#
# 1 0.013300 -0.005302 -0.003276 0.000000 0.000000 0.000000
# 2 -0.005302 0.013575 -0.002560 0.000000 0.000000 0.000000
# 3 -0.003276 -0.002560 0.019776 0.000000 0.000000 0.000000
# 4 0.000000 0.000000 0.000000 0.053093 0.000000 0.000000
# 5 0.000000 0.000000 0.000000 0.000000 0.051209 0.000000
# 6 0.000000 0.000000 0.000000 0.000000 0.000000 0.037578
#
#
# Mechanical properties :
#
#
# Convention : Reuss Voigt Hill
#
# Bulk Modulus (GPa) = 41.02565 45.88414 43.45489
# Shear Modulus (GPa) = 22.83837 23.98548 23.41193
#
# Velocity S-wave (km/s) = 3.62734 3.71732 3.67260
# Velocity P-wave (km/s) = 6.41709 6.69770 6.55890
#
# Compressibility (1/GPa) = 0.02437500
#
# Stress axis : x y z
#
# Youngs Moduli (GPa) = 75.18964 73.66422 50.56750
#
# Poissons Ratio (x) = 0.39054 0.16564
# Poissons Ratio (y) = 0.39863 0.12947
# Poissons Ratio (z) = 0.24630 0.18861
#
# Static dielectric constant tensor:
#      x y z
#    x 3.440460 0.000000 0.000000 
#    y 0.000000 3.476410 0.000000 
#    z 0.000000 0.000000 2.842060 
# 
# 
# High freq. dielectric constant tensor:
#      x y z
#    x 1.684450 0.000000 0.000000 
#    y 0.000000 1.683950 0.000000 
#    z 0.000000 0.000000 1.631590 
# 
# From -- ./inp_files/46033.got.cif
#   From: 2010.06.25/outbox.cif.g09.slc.cpg/sg71_24_cif.got.tgz:46033.got - 2010.06.28 04:59:45.
