data_PCOD8289430
_publ_section_title
;
Structure prediction by ZEFSAII (Michael W. Deem and Ramdas Pophale) SiO2 
 PCOD8289430
Probable space group: I M M M
;
_chemical_formula_sum "Si O2"
_cell_formula_units_Z 88
_cell_length_a 18.147379
_cell_length_b 28.656686
_cell_length_c 9.272799
_cell_angle_alpha 90.000000
_cell_angle_beta 90.000000
_cell_angle_gamma 90.000000
_cell_volume 4822.261088
_symmetry_space_group_name_H-M "I M M M"
_symmetry_group_IT_number 71
_symmetry_cell_setting 'orthorhombic'
loop_
_space_group_symop_operation_xyz
x,y,z
-x,-y,z
x,-y,-z
-x,y,-z
-x,-y,-z
x,y,-z
-x,y,z
x,-y,z
1/2+x,1/2+y,1/2+z
1/2-x,1/2-y,1/2+z
1/2+x,1/2-y,1/2-z
1/2-x,1/2+y,1/2-z
1/2-x,1/2-y,1/2-z
1/2+x,1/2+y,1/2-z
1/2-x,1/2+y,1/2+z
1/2+x,1/2-y,1/2+z
loop_
_atom_site_type_symbol
_atom_site_label
_atom_site_fract_x
_atom_site_fract_y
_atom_site_fract_z
Si Si1 0.500000 0.947277 0.172283
Si Si2 0.583308 0.553262 0.830935
Si Si3 0.814487 0.776774 0.830714
Si Si4 0.700890 0.614841 0.667791
Si Si5 0.913453 0.714376 0.336813
Si Si6 0.865430 0.385764 0.670925
O O1 0.426611 0.921538 0.232722
O O2 0.500000 0.000000 0.231801
O O3 0.500000 0.946949 0.000000
O O4 0.500000 0.567291 0.786644
O O5 0.598592 0.500000 0.785737
O O6 0.640596 0.585907 0.751833
O O7 0.594116 0.559779 0.000000
O O8 0.750000 0.750000 0.750000
O O9 0.809912 0.831138 0.795577
O O10 0.890760 0.757079 0.766262
O O11 0.809639 0.767050 0.000000
O O12 0.689436 0.605019 0.500000
O O13 0.783053 0.598686 0.716599
O O14 0.884393 0.723266 0.500000
O O15 0.879628 0.666591 0.272280
O O16 0.000000 0.709396 0.336219
O O17 0.873062 0.384134 0.500000
#
# Coordination Sequence:
#
# PCOD8289430 Si02
#       6
#     8  16  16  16  16  16
#     4   9  16  26  46  76 107 141 181 227 272 313
#     4   9  20  40  62  82 108 143 182 225 275 336
#     4  11  22  36  54  79 112 146 185 232 278 326
#     4  10  21  35  55  83 114 144 179 228 280 329
#     4  10  19  34  56  77 105 149 191 225 270 329
#     4   9  16  30  49  73 107 144 182 223 267 319
#
# _framework density 18.248699999999999
#
# number of rings (size 3 to 8) (size 9 to 14) (size 15 to 20)
#    0.000    2.273    2.727    1.091    0.000    4.000 
#    0.000    6.364    0.000    0.000    0.000    0.000 
#    0.000    2.909    0.000    0.000    0.000    0.000 
#
# Total GULP energy -545524.308705 kJ/mol
# GULP energy per Si atom -12398.279743 kJ/mol
# Density = 1.820717 g / cm^3
# Si number density = 18.248700 Si / 1000 Ang^3
#
#
#
# Elastic Constant Matrix: (Units=GPa)
#
#
# Indices 1 2 3 4 5 6 
#
# 1 145.1284 85.2172 51.5588 0.0011 0.0003 0.0002
# 2 85.2172 119.5249 56.7209 0.0013 0.0008 0.0004
# 3 51.5588 56.7209 53.3102 0.0042 0.0013 0.0013
# 4 0.0011 0.0013 0.0042 26.6241 0.0005 0.0004
# 5 0.0003 0.0008 0.0013 0.0005 28.0540 0.0002
# 6 0.0002 0.0004 0.0013 0.0004 0.0002 38.5266
#
#
#
# Elastic Compliance Matrix: (Units=1/GPa)
#
#
# Indices 1 2 3 4 5 6 
#
# 1 0.012549 -0.006438 -0.005287 0.000001 0.000000 0.000000
# 2 -0.006438 0.020202 -0.015268 0.000002 0.000000 0.000000
# 3 -0.005287 -0.015268 0.040116 -0.000005 -0.000001 -0.000001
# 4 0.000001 0.000002 -0.000005 0.037560 -0.000001 0.000000
# 5 0.000000 0.000000 -0.000001 -0.000001 0.035646 0.000000
# 6 0.000000 0.000000 -0.000001 0.000000 0.000000 0.025956
#
#
# Mechanical properties :
#
#
# Convention : Reuss Voigt Hill
#
# Bulk Modulus (GPa) = 52.96201 78.32859 65.64530
# Shear Modulus (GPa) = 21.52314 26.93871 24.23093
#
# Velocity S-wave (km/s) = 3.43802 3.84630 3.64787
# Velocity P-wave (km/s) = 6.69666 7.92095 7.33439
#
# Compressibility (1/GPa) = 0.01888146
#
# Stress axis : x y z
#
# Youngs Moduli (GPa) = 79.68748 49.49962 24.92780
#
# Poissons Ratio (x) = 0.31869 0.13178
# Poissons Ratio (y) = 0.51305 0.38060
# Poissons Ratio (z) = 0.42127 0.75576
#
# Static dielectric constant tensor:
#      x y z
#    x 3.587740 0.000000 0.000000 
#    y 0.000000 3.651270 0.000000 
#    z 0.000000 0.000000 3.311330 
# 
# 
# High freq. dielectric constant tensor:
#      x y z
#    x 1.723240 0.000000 0.000000 
#    y 0.000000 1.707610 0.000000 
#    z 0.000000 0.000000 1.672110 
# 
# From -- ./inp_files/8834.got.cif
#   From: 2010.06.25/outbox.cif.g09.slc.cpg/sg71_5_cif.got.tgz:8834.got - 2010.06.28 04:59:45.
