data_PCOD8289046
_publ_section_title
;
Structure prediction by ZEFSAII (Michael W. Deem and Ramdas Pophale) SiO2 
 PCOD8289046
Probable space group: I M M M
;
_chemical_formula_sum "Si O2"
_cell_formula_units_Z 104
_cell_length_a 8.808798
_cell_length_b 29.885057
_cell_length_c 20.507798
_cell_angle_alpha 90.000000
_cell_angle_beta 90.000000
_cell_angle_gamma 90.000000
_cell_volume 5398.707156
_symmetry_space_group_name_H-M "I M M M"
_symmetry_group_IT_number 71
_symmetry_cell_setting 'orthorhombic'
loop_
_space_group_symop_operation_xyz
x,y,z
-x,-y,z
x,-y,-z
-x,y,-z
-x,-y,-z
x,y,-z
-x,y,z
x,-y,z
1/2+x,1/2+y,1/2+z
1/2-x,1/2-y,1/2+z
1/2+x,1/2-y,1/2-z
1/2-x,1/2+y,1/2-z
1/2-x,1/2-y,1/2-z
1/2+x,1/2+y,1/2-z
1/2-x,1/2+y,1/2+z
1/2+x,1/2-y,1/2+z
loop_
_atom_site_type_symbol
_atom_site_label
_atom_site_fract_x
_atom_site_fract_y
_atom_site_fract_z
Si Si1 0.825600 0.131226 0.849200
Si Si2 0.179119 0.449300 0.132999
Si Si3 0.669007 0.552930 0.000000
Si Si4 0.178054 0.635768 0.786311
Si Si5 0.173524 0.780100 0.925090
Si Si6 0.321626 0.725979 0.187000
Si Si7 0.820172 0.951012 0.072155
O O1 0.719921 0.142595 0.788768
O O2 0.812052 0.168209 0.905167
O O3 0.756278 0.085630 0.878500
O O4 0.000000 0.126295 0.825557
O O5 0.237828 0.500000 0.150226
O O6 0.244951 0.431071 0.064813
O O7 0.230415 0.413349 0.187846
O O8 0.000000 0.450403 0.125708
O O9 0.663513 0.500000 0.000000
O O10 0.500000 0.573428 0.000000
O O11 0.261866 0.675626 0.824258
O O12 0.000000 0.641977 0.796080
O O13 0.283067 0.751488 0.879453
O O14 0.000000 0.763864 0.915995
O O15 0.225567 0.774948 0.000000
O O16 0.500000 0.725189 0.198755
O O17 0.250000 0.750000 0.250000
O O18 0.000000 0.945771 0.067536
O O19 0.774715 0.000000 0.098895
O O20 0.751053 0.944069 0.000000
#
# Coordination Sequence:
#
# PCOD8289046 Si02
#       7
#    16  16   8  16  16  16  16
#     4  10  19  32  54  82 112 149 191 235 282 334
#     4   9  19  37  59  82 112 152 194 231 276 342
#     4   9  17  31  55  85 113 143 183 235 291 337
#     4  11  23  38  58  84 114 151 191 232 281 340
#     4  10  21  38  61  88 117 151 193 240 288 345
#     4  12  24  41  64  87 116 153 194 241 293 348
#     4   8  14  26  46  75 111 148 187 230 275 326
#
# _framework density 19.263871999999999
#
# number of rings (size 3 to 8) (size 9 to 14) (size 15 to 20)
#    0.000    2.077    1.538    3.000    0.000    4.923 
#    1.385    0.000    0.000    1.385    0.000    1.077 
#    0.000    0.000    0.000    0.000    0.000    0.000 
#
# Total GULP energy -644692.584171 kJ/mol
# GULP energy per Si atom -12397.934311 kJ/mol
# Density = 1.922003 g / cm^3
# Si number density = 19.263872 Si / 1000 Ang^3
#
#
#
# Elastic Constant Matrix: (Units=GPa)
#
#
# Indices 1 2 3 4 5 6 
#
# 1 68.6469 41.6206 32.8177 0.0000 0.0000 0.0000
# 2 41.6206 122.2699 47.8593 0.0000 0.0000 0.0000
# 3 32.8177 47.8593 107.0817 0.0001 0.0000 0.0000
# 4 0.0000 0.0000 0.0001 36.3689 0.0000 0.0000
# 5 0.0000 0.0000 0.0000 0.0000 20.6221 0.0000
# 6 0.0000 0.0000 0.0000 0.0000 0.0000 21.8546
#
#
#
# Elastic Compliance Matrix: (Units=1/GPa)
#
#
# Indices 1 2 3 4 5 6 
#
# 1 0.019460 -0.005199 -0.003640 0.000000 0.000000 0.000000
# 2 -0.005199 0.011302 -0.003458 0.000000 0.000000 0.000000
# 3 -0.003640 -0.003458 0.012000 0.000000 0.000000 0.000000
# 4 0.000000 0.000000 0.000000 0.027496 0.000000 0.000000
# 5 0.000000 0.000000 0.000000 0.000000 0.048492 0.000000
# 6 0.000000 0.000000 0.000000 0.000000 0.000000 0.045757
#
#
# Mechanical properties :
#
#
# Convention : Reuss Voigt Hill
#
# Bulk Modulus (GPa) = 55.04507 60.28818 57.66663
# Shear Modulus (GPa) = 25.62048 27.48252 26.55150
#
# Velocity S-wave (km/s) = 3.65084 3.78118 3.71658
# Velocity P-wave (km/s) = 6.81233 7.10120 6.95826
#
# Compressibility (1/GPa) = 0.01816693
#
# Stress axis : x y z
#
# Youngs Moduli (GPa) = 51.38784 88.48027 83.33505
#
# Poissons Ratio (x) = 0.46003 0.30335
# Poissons Ratio (y) = 0.26718 0.28816
# Poissons Ratio (z) = 0.18706 0.30595
#
# Static dielectric constant tensor:
#      x y z
#    x 3.326220 0.000000 0.000000 
#    y 0.000000 3.828960 0.000000 
#    z 0.000000 0.000000 3.531770 
# 
# 
# High freq. dielectric constant tensor:
#      x y z
#    x 1.727830 0.000000 0.000000 
#    y 0.000000 1.755210 0.000000 
#    z 0.000000 0.000000 1.745340 
# 
# From -- ./inp_files/51166.got.cif
#   From: 2010.06.25/outbox.cif.g09.slc.cpg/sg71_26_cif.got.tgz:51166.got - 2010.06.28 04:59:45.
