data_PCOD8289375
_publ_section_title
;
Structure prediction by ZEFSAII (Michael W. Deem and Ramdas Pophale) SiO2 
 PCOD8289375
Probable space group: I M M M
;
_chemical_formula_sum "Si O2"
_cell_formula_units_Z 88
_cell_length_a 30.155338
_cell_length_b 9.081621
_cell_length_c 17.479937
_cell_angle_alpha 90.000000
_cell_angle_beta 90.000000
_cell_angle_gamma 90.000000
_cell_volume 4787.044200
_symmetry_space_group_name_H-M "I M M M"
_symmetry_group_IT_number 71
_symmetry_cell_setting 'orthorhombic'
loop_
_space_group_symop_operation_xyz
x,y,z
-x,-y,z
x,-y,-z
-x,y,-z
-x,-y,-z
x,y,-z
-x,y,z
x,-y,z
1/2+x,1/2+y,1/2+z
1/2-x,1/2-y,1/2+z
1/2+x,1/2-y,1/2-z
1/2-x,1/2+y,1/2-z
1/2-x,1/2-y,1/2-z
1/2+x,1/2+y,1/2-z
1/2-x,1/2+y,1/2+z
1/2+x,1/2-y,1/2+z
loop_
_atom_site_type_symbol
_atom_site_label
_atom_site_fract_x
_atom_site_fract_y
_atom_site_fract_z
Si Si1 0.549049 0.343376 0.000000
Si Si2 0.294658 0.329471 0.771044
Si Si3 0.109652 0.175273 0.785581
Si Si4 0.550908 0.828034 0.589052
Si Si5 0.415904 0.164330 0.135164
Si Si6 0.182799 0.662373 0.585884
O O1 0.553587 0.249154 0.923490
O O2 0.577184 0.500000 0.000000
O O3 0.500000 0.398974 0.000000
O O4 0.286797 0.500000 0.761056
O O5 0.250000 0.250000 0.750000
O O6 0.337822 0.280386 0.720697
O O7 0.300498 0.291417 0.859867
O O8 0.086986 0.235526 0.862829
O O9 0.084406 0.247033 0.714434
O O10 0.104431 0.000000 0.782245
O O11 0.559424 0.792526 0.500000
O O12 0.500000 0.784849 0.610479
O O13 0.558558 0.000000 0.605449
O O14 0.369531 0.153942 0.092285
O O15 0.434194 0.000000 0.152012
O O16 0.196689 0.704786 0.500000
O O17 0.202449 0.500000 0.607417
#
# Coordination Sequence:
#
# PCOD8289375 Si02
#       6
#     8  16  16  16  16  16
#     4  11  23  35  47  69 105 143 177 221 271 309
#     4  10  21  36  54  79 110 145 183 226 276 329
#     4  10  21  36  56  84 112 143 182 226 281 336
#     4   9  19  37  60  85 112 144 186 234 283 339
#     4  10  19  34  54  75 100 136 180 219 262 318
#     4   9  17  32  54  78 101 129 170 218 265 315
#
# _framework density 18.382950999999998
#
# number of rings (size 3 to 8) (size 9 to 14) (size 15 to 20)
#    0.000    2.273    0.909    2.455    0.000    5.455 
#    0.000    1.818    0.000    1.091    0.000    0.000 
#    0.000    0.000    0.000    0.000    0.000    0.000 
#
# Total GULP energy -545220.564848 kJ/mol
# GULP energy per Si atom -12391.376474 kJ/mol
# Density = 1.834111 g / cm^3
# Si number density = 18.382951 Si / 1000 Ang^3
#
#
#
# Elastic Constant Matrix: (Units=GPa)
#
#
# Indices 1 2 3 4 5 6 
#
# 1 92.1622 56.2142 60.1377 0.0000 0.0000 0.0000
# 2 56.2142 107.7622 58.1666 0.0000 0.0000 0.0000
# 3 60.1377 58.1666 110.6270 0.0000 0.0000 0.0000
# 4 0.0000 0.0000 0.0000 27.5494 0.0000 0.0000
# 5 0.0000 0.0000 0.0000 0.0000 18.0923 0.0000
# 6 0.0000 0.0000 0.0000 0.0000 0.0000 26.4482
#
#
#
# Elastic Compliance Matrix: (Units=1/GPa)
#
#
# Indices 1 2 3 4 5 6 
#
# 1 0.019367 -0.006172 -0.007283 0.000000 0.000000 0.000000
# 2 -0.006172 0.014924 -0.004492 0.000000 0.000000 0.000000
# 3 -0.007283 -0.004492 0.015360 0.000000 0.000000 0.000000
# 4 0.000000 0.000000 0.000000 0.036298 0.000000 0.000000
# 5 0.000000 0.000000 0.000000 0.000000 0.055272 0.000000
# 6 0.000000 0.000000 0.000000 0.000000 0.000000 0.037810
#
#
# Mechanical properties :
#
#
# Convention : Reuss Voigt Hill
#
# Bulk Modulus (GPa) = 72.68504 73.28760 72.98632
# Shear Modulus (GPa) = 22.77793 23.48684 23.13239
#
# Velocity S-wave (km/s) = 3.52387 3.57829 3.55119
# Velocity P-wave (km/s) = 7.49547 7.55155 7.52356
#
# Compressibility (1/GPa) = 0.01375799
#
# Stress axis : x y z
#
# Youngs Moduli (GPa) = 51.63344 67.00767 65.10297
#
# Poissons Ratio (x) = 0.41355 0.47416
# Poissons Ratio (y) = 0.31867 0.29242
# Poissons Ratio (z) = 0.37606 0.30098
#
# Static dielectric constant tensor:
#      x y z
#    x 3.626400 0.000000 0.000000 
#    y 0.000000 3.436560 0.000000 
#    z 0.000000 0.000000 3.236580 
# 
# 
# High freq. dielectric constant tensor:
#      x y z
#    x 1.693640 0.000000 0.000000 
#    y 0.000000 1.726060 0.000000 
#    z 0.000000 0.000000 1.710360 
# 
# From -- ./inp_files/49195.got.cif
#   From: 2010.06.25/outbox.cif.g09.slc.cpg/sg71_25_cif.got.tgz:49195.got - 2010.06.28 04:59:45.
