data_PCOD8289744
_publ_section_title
;
Structure prediction by ZEFSAII (Michael W. Deem and Ramdas Pophale) SiO2 
 PCOD8289744
Probable space group: I M M M
;
_chemical_formula_sum "Si O2"
_cell_formula_units_Z 104
_cell_length_a 23.885882
_cell_length_b 26.849186
_cell_length_c 9.263282
_cell_angle_alpha 90.000000
_cell_angle_beta 90.000000
_cell_angle_gamma 90.000000
_cell_volume 5940.695485
_symmetry_space_group_name_H-M "I M M M"
_symmetry_group_IT_number 71
_symmetry_cell_setting 'orthorhombic'
loop_
_space_group_symop_operation_xyz
x,y,z
-x,-y,z
x,-y,-z
-x,y,-z
-x,-y,-z
x,y,-z
-x,y,z
x,-y,z
1/2+x,1/2+y,1/2+z
1/2-x,1/2-y,1/2+z
1/2+x,1/2-y,1/2-z
1/2-x,1/2+y,1/2-z
1/2-x,1/2-y,1/2-z
1/2+x,1/2+y,1/2-z
1/2-x,1/2+y,1/2+z
1/2+x,1/2-y,1/2+z
loop_
_atom_site_type_symbol
_atom_site_label
_atom_site_fract_x
_atom_site_fract_y
_atom_site_fract_z
Si Si1 0.938612 0.440866 0.838042
Si Si2 0.566808 0.392163 0.665364
Si Si3 0.332066 0.942134 0.167895
Si Si4 0.305846 0.236685 0.667063
Si Si5 0.236008 0.632808 0.163137
Si Si6 0.644663 0.680065 0.830316
Si Si7 0.560968 0.500000 0.670393
O O1 0.939419 0.500000 0.834562
O O2 0.890049 0.420948 0.733728
O O3 0.000000 0.421131 0.787770
O O4 0.925852 0.421990 0.000000
O O5 0.583868 0.380235 0.500000
O O6 0.500000 0.390884 0.682067
O O7 0.593036 0.351994 0.772398
O O8 0.590631 0.447450 0.711990
O O9 0.279675 0.912632 0.233206
O O10 0.323351 0.000000 0.204671
O O11 0.334476 0.931909 0.000000
O O12 0.302139 0.253393 0.500000
O O13 0.250000 0.250000 0.750000
O O14 0.310707 0.176726 0.677992
O O15 0.355951 0.266437 0.747249
O O16 0.297551 0.651932 0.206530
O O17 0.236844 0.612665 0.000000
O O18 0.637636 0.689683 0.000000
O O19 0.500000 0.500000 0.744865
O O20 0.552562 0.500000 0.500000
#
# Coordination Sequence:
#
# PCOD8289744 Si02
#       7
#    16  16  16  16  16  16   8
#     4   8  14  26  45  66  87 117 156 191 225 270
#     4   9  17  31  52  75 100 133 171 211 256 305
#     4  10  20  31  45  69  99 129 161 197 238 282
#     4   9  17  31  52  75  96 119 154 198 242 289
#     4   9  19  34  50  69  95 130 166 199 241 295
#     4  10  20  33  50  75 101 127 164 205 251 301
#     4   7  12  26  47  69  93 125 167 207 244 293
#
# _framework density 17.506367999999998
#
# number of rings (size 3 to 8) (size 9 to 14) (size 15 to 20)
#    0.000    3.000    0.000    3.692    0.000    5.231 
#    1.385    1.923    0.000    2.308    0.000    6.462 
#    0.000    0.000    0.000    0.000    0.000    0.000 
#
# Total GULP energy -644306.013663 kJ/mol
# GULP energy per Si atom -12390.500263 kJ/mol
# Density = 1.746652 g / cm^3
# Si number density = 17.506368 Si / 1000 Ang^3
#
#
#
# Elastic Constant Matrix: (Units=GPa)
#
#
# Indices 1 2 3 4 5 6 
#
# 1 46.8640 25.6201 32.0224 0.0000 0.0000 0.0000
# 2 25.6201 61.2576 42.9662 0.0000 0.0000 0.0000
# 3 32.0224 42.9662 97.4164 0.0000 0.0000 0.0000
# 4 0.0000 0.0000 0.0000 26.1337 0.0000 0.0000
# 5 0.0000 0.0000 0.0000 0.0000 27.3833 0.0000
# 6 0.0000 0.0000 0.0000 0.0000 0.0000 23.4320
#
#
#
# Elastic Compliance Matrix: (Units=1/GPa)
#
#
# Indices 1 2 3 4 5 6 
#
# 1 0.030108 -0.008181 -0.006289 0.000000 0.000000 0.000000
# 2 -0.008181 0.025860 -0.008716 0.000000 0.000000 0.000000
# 3 -0.006289 -0.008716 0.016177 0.000000 0.000000 0.000000
# 4 0.000000 0.000000 0.000000 0.038265 0.000000 0.000000
# 5 0.000000 0.000000 0.000000 0.000000 0.036519 0.000000
# 6 0.000000 0.000000 0.000000 0.000000 0.000000 0.042677
#
#
# Mechanical properties :
#
#
# Convention : Reuss Voigt Hill
#
# Bulk Modulus (GPa) = 38.80166 45.19505 41.99836
# Shear Modulus (GPa) = 20.44421 22.38510 21.41465
#
# Velocity S-wave (km/s) = 3.42104 3.57975 3.50129
# Velocity P-wave (km/s) = 6.14956 6.55427 6.35514
#
# Compressibility (1/GPa) = 0.02577209
#
# Stress axis : x y z
#
# Youngs Moduli (GPa) = 33.21374 38.66985 61.81714
#
# Poissons Ratio (x) = 0.31638 0.38874
# Poissons Ratio (y) = 0.27174 0.53882
# Poissons Ratio (z) = 0.20886 0.33706
#
# Static dielectric constant tensor:
#      x y z
#    x 3.117030 0.000000 0.000000 
#    y 0.000000 3.517530 0.000000 
#    z 0.000000 0.000000 3.250050 
# 
# 
# High freq. dielectric constant tensor:
#      x y z
#    x 1.648700 0.000000 0.000000 
#    y 0.000000 1.663070 0.000000 
#    z 0.000000 0.000000 1.675720 
# 
# From -- ./inp_files/13310.got.cif
#   From: 2010.06.25/outbox.cif.g09.slc.cpg/sg71_7_cif.got.tgz:13310.got - 2010.06.28 04:59:45.
