data_PCOD8289161
_publ_section_title
;
Structure prediction by ZEFSAII (Michael W. Deem and Ramdas Pophale) SiO2 
 PCOD8289161
Probable space group: I M M M
;
_chemical_formula_sum "Si O2"
_cell_formula_units_Z 104
_cell_length_a 17.665065
_cell_length_b 14.327377
_cell_length_c 23.019227
_cell_angle_alpha 90.000000
_cell_angle_beta 90.000000
_cell_angle_gamma 90.000000
_cell_volume 5826.029297
_symmetry_space_group_name_H-M "I M M M"
_symmetry_group_IT_number 71
_symmetry_cell_setting 'orthorhombic'
loop_
_space_group_symop_operation_xyz
x,y,z
-x,-y,z
x,-y,-z
-x,y,-z
-x,-y,-z
x,y,-z
-x,y,z
x,-y,z
1/2+x,1/2+y,1/2+z
1/2-x,1/2-y,1/2+z
1/2+x,1/2-y,1/2-z
1/2-x,1/2+y,1/2-z
1/2-x,1/2-y,1/2-z
1/2+x,1/2+y,1/2-z
1/2-x,1/2+y,1/2+z
1/2+x,1/2-y,1/2+z
loop_
_atom_site_type_symbol
_atom_site_label
_atom_site_fract_x
_atom_site_fract_y
_atom_site_fract_z
Si Si1 0.587764 0.788399 0.062685
Si Si2 0.180003 0.607271 0.889045
Si Si3 0.832217 0.724472 0.773279
Si Si4 0.087852 0.104746 0.734582
Si Si5 0.354208 0.603568 0.107491
Si Si6 0.585749 0.110694 0.500000
Si Si7 0.910592 0.392163 0.674440
O O1 0.500000 0.811774 0.061093
O O2 0.598454 0.677917 0.071247
O O3 0.624125 0.847265 0.115340
O O4 0.623357 0.817205 0.000000
O O5 0.159522 0.500000 0.872395
O O6 0.166794 0.674733 0.835020
O O7 0.266599 0.613719 0.909041
O O8 0.128637 0.645151 0.941998
O O9 0.750000 0.750000 0.750000
O O10 0.880611 0.820065 0.780388
O O11 0.871651 0.654747 0.728878
O O12 0.134994 0.121178 0.675910
O O13 0.000000 0.122962 0.721218
O O14 0.100888 0.000000 0.758893
O O15 0.383859 0.500000 0.091281
O O16 0.500000 0.150074 0.500000
O O17 0.586004 0.000000 0.500000
O O18 0.889243 0.500000 0.674120
O O19 0.000000 0.374870 0.678931
#
# Coordination Sequence:
#
# PCOD8289161 Si02
#       7
#    16  16  16  16  16   8  16
#     4  10  20  33  49  73 106 142 182 223 265 318
#     4  10  21  36  56  82 110 143 182 225 283 342
#     4  12  21  34  56  83 112 141 180 233 286 337
#     4  10  20  34  53  77 110 147 179 218 273 335
#     4  10  19  33  52  75 105 143 180 223 274 326
#     4   9  20  38  56  78 112 148 184 229 278 336
#     4  10  21  36  53  75 105 142 183 225 270 323
#
# _framework density 17.850923000000002
#
# number of rings (size 3 to 8) (size 9 to 14) (size 15 to 20)
#    0.000    1.769    3.077    1.385    1.077    3.385 
#    0.000    3.846    0.000    0.000    0.000    0.538 
#    0.000    1.846    0.000    0.000    0.000    0.000 
#
# Total GULP energy -644721.518820 kJ/mol
# GULP energy per Si atom -12398.490747 kJ/mol
# Density = 1.781029 g / cm^3
# Si number density = 17.850923 Si / 1000 Ang^3
#
#
#
# Elastic Constant Matrix: (Units=GPa)
#
#
# Indices 1 2 3 4 5 6 
#
# 1 64.9563 32.9151 29.4269 0.0000 0.0000 0.0000
# 2 32.9151 103.0894 52.6717 0.0000 0.0000 0.0000
# 3 29.4269 52.6717 115.7648 0.0000 0.0000 0.0000
# 4 0.0000 0.0000 0.0000 24.6453 0.0000 0.0000
# 5 0.0000 0.0000 0.0000 0.0000 25.4131 0.0000
# 6 0.0000 0.0000 0.0000 0.0000 0.0000 25.3277
#
#
#
# Elastic Compliance Matrix: (Units=1/GPa)
#
#
# Indices 1 2 3 4 5 6 
#
# 1 0.018991 -0.004686 -0.002695 0.000000 0.000000 0.000000
# 2 -0.004686 0.013795 -0.005085 0.000000 0.000000 0.000000
# 3 -0.002695 -0.005085 0.011637 0.000000 0.000000 0.000000
# 4 0.000000 0.000000 0.000000 0.040576 0.000000 0.000000
# 5 0.000000 0.000000 0.000000 0.000000 0.039350 0.000000
# 6 0.000000 0.000000 0.000000 0.000000 0.000000 0.039482
#
#
# Mechanical properties :
#
#
# Convention : Reuss Voigt Hill
#
# Bulk Modulus (GPa) = 51.31100 57.09312 54.20206
# Shear Modulus (GPa) = 25.60686 26.33035 25.96860
#
# Velocity S-wave (km/s) = 3.79157 3.84476 3.81825
# Velocity P-wave (km/s) = 6.92637 7.19460 7.06176
#
# Compressibility (1/GPa) = 0.01948900
#
# Stress axis : x y z
#
# Youngs Moduli (GPa) = 52.65749 72.49078 85.93286
#
# Poissons Ratio (x) = 0.33973 0.23159
# Poissons Ratio (y) = 0.24678 0.43699
# Poissons Ratio (z) = 0.14191 0.36863
#
# Static dielectric constant tensor:
#      x y z
#    x 3.325290 0.000000 0.000000 
#    y 0.000000 3.475520 0.000000 
#    z 0.000000 0.000000 3.438970 
# 
# 
# High freq. dielectric constant tensor:
#      x y z
#    x 1.682670 0.000000 0.000000 
#    y 0.000000 1.688890 0.000000 
#    z 0.000000 0.000000 1.679570 
# 
# From -- ./inp_files/36712.got.cif
#   From: 2010.06.25/outbox.cif.g09.slc.cpg/sg71_19_cif.got.tgz:36712.got - 2010.06.28 04:59:45.
