data_PCOD8289991
_publ_section_title
;
Structure prediction by ZEFSAII (Michael W. Deem and Ramdas Pophale) SiO2 
 PCOD8289991
Probable space group: I M M M
;
_chemical_formula_sum "Si O2"
_cell_formula_units_Z 72
_cell_length_a 19.014157
_cell_length_b 8.521534
_cell_length_c 27.785089
_cell_angle_alpha 90.000000
_cell_angle_beta 90.000000
_cell_angle_gamma 90.000000
_cell_volume 4502.012007
_symmetry_space_group_name_H-M "I M M M"
_symmetry_group_IT_number 71
_symmetry_cell_setting 'orthorhombic'
loop_
_space_group_symop_operation_xyz
x,y,z
-x,-y,z
x,-y,-z
-x,y,-z
-x,-y,-z
x,y,-z
-x,y,z
x,-y,z
1/2+x,1/2+y,1/2+z
1/2-x,1/2-y,1/2+z
1/2+x,1/2-y,1/2-z
1/2-x,1/2+y,1/2-z
1/2-x,1/2-y,1/2-z
1/2+x,1/2+y,1/2-z
1/2-x,1/2+y,1/2+z
1/2+x,1/2-y,1/2+z
loop_
_atom_site_type_symbol
_atom_site_label
_atom_site_fract_x
_atom_site_fract_y
_atom_site_fract_z
Si Si1 0.222236 0.317564 0.175607
Si Si2 0.375173 0.316961 0.397022
Si Si3 0.500000 0.820103 0.339288
Si Si4 0.851819 0.683619 0.725741
Si Si5 0.000000 0.182141 0.737499
Si Si6 0.920953 0.815629 0.000000
O O1 0.217982 0.500000 0.163898
O O2 0.199465 0.221348 0.127892
O O3 0.170380 0.271487 0.219742
O O4 0.301854 0.272497 0.188199
O O5 0.393974 0.500000 0.391473
O O6 0.431833 0.209492 0.370815
O O7 0.376321 0.265026 0.453006
O O8 0.500000 0.703442 0.294560
O O9 0.500000 0.000000 0.320631
O O10 0.843409 0.500000 0.717131
O O11 0.931018 0.737359 0.714999
O O12 0.000000 0.000000 0.724394
O O13 0.000000 0.740834 0.000000
O O14 0.930767 0.000000 0.000000
#
# Coordination Sequence:
#
# PCOD8289991 Si02
#       6
#    16  16   8  16   8   8
#     4  10  20  33  48  68  96 125 160 199 240 285
#     4  11  20  33  51  67  91 127 166 204 244 285
#     4  12  22  31  43  66  95 126 163 203 242 283
#     4  10  20  33  49  69  96 125 159 197 237 284
#     4  12  22  32  49  71  96 127 162 198 240 283
#     4   9  18  32  48  70  94 123 164 207 242 282
#
# _framework density 15.992850000000001
#
# number of rings (size 3 to 8) (size 9 to 14) (size 15 to 20)
#    0.000    1.444    3.333    4.000    0.000    1.778 
#    0.000    2.778    0.000    0.000    0.000    0.000 
#    0.000    0.889    0.000    9.556    0.000    4.222 
#
# Total GULP energy -446455.216546 kJ/mol
# GULP energy per Si atom -12401.533793 kJ/mol
# Density = 1.595645 g / cm^3
# Si number density = 15.992850 Si / 1000 Ang^3
#
#
#
# Elastic Constant Matrix: (Units=GPa)
#
#
# Indices 1 2 3 4 5 6 
#
# 1 103.4013 16.6028 42.4549 0.0000 0.0000 0.0000
# 2 16.6028 50.5704 18.1119 0.0000 0.0000 0.0000
# 3 42.4549 18.1119 88.3561 0.0000 0.0000 0.0000
# 4 0.0000 0.0000 0.0000 17.6848 0.0000 0.0000
# 5 0.0000 0.0000 0.0000 0.0000 12.4166 0.0000
# 6 0.0000 0.0000 0.0000 0.0000 0.0000 28.2592
#
#
#
# Elastic Compliance Matrix: (Units=1/GPa)
#
#
# Indices 1 2 3 4 5 6 
#
# 1 0.012244 -0.002064 -0.005460 0.000000 0.000000 0.000000
# 2 -0.002064 0.021689 -0.003454 0.000000 0.000000 0.000000
# 3 -0.005460 -0.003454 0.014650 0.000000 0.000000 0.000000
# 4 0.000000 0.000000 0.000000 0.056546 0.000000 0.000000
# 5 0.000000 0.000000 0.000000 0.000000 0.080538 0.000000
# 6 0.000000 0.000000 0.000000 0.000000 0.000000 0.035387
#
#
# Mechanical properties :
#
#
# Convention : Reuss Voigt Hill
#
# Bulk Modulus (GPa) = 37.55761 44.07411 40.81586
# Shear Modulus (GPa) = 19.85027 22.68267 21.26647
#
# Velocity S-wave (km/s) = 3.52688 3.77012 3.65053
# Velocity P-wave (km/s) = 6.33405 6.82424 6.58371
#
# Compressibility (1/GPa) = 0.02662577
#
# Stress axis : x y z
#
# Youngs Moduli (GPa) = 81.66991 46.10576 68.26162
#
# Poissons Ratio (x) = 0.09518 0.37272
# Poissons Ratio (y) = 0.16860 0.23578
# Poissons Ratio (z) = 0.44594 0.15925
#
# Static dielectric constant tensor:
#      x y z
#    x 3.166860 0.000000 0.000000 
#    y 0.000000 2.986860 0.000000 
#    z 0.000000 0.000000 2.975270 
# 
# 
# High freq. dielectric constant tensor:
#      x y z
#    x 1.603240 0.000000 0.000000 
#    y 0.000000 1.623730 0.000000 
#    z 0.000000 0.000000 1.579220 
# 
# From -- ./inp_files/8202.got.cif
#   From: 2010.06.25/outbox.cif.g09.slc.cpg/sg71_5_cif.got.tgz:8202.got - 2010.06.28 04:59:45.
