data_PCOD8289886
_publ_section_title
;
Structure prediction by ZEFSAII (Michael W. Deem and Ramdas Pophale) SiO2 
 PCOD8289886
Probable space group: I M M M
;
_chemical_formula_sum "Si O2"
_cell_formula_units_Z 88
_cell_length_a 12.683258
_cell_length_b 30.156128
_cell_length_c 12.605396
_cell_angle_alpha 90.000000
_cell_angle_beta 90.000000
_cell_angle_gamma 90.000000
_cell_volume 4821.286043
_symmetry_space_group_name_H-M "I M M M"
_symmetry_group_IT_number 71
_symmetry_cell_setting 'orthorhombic'
loop_
_space_group_symop_operation_xyz
x,y,z
-x,-y,z
x,-y,-z
-x,y,-z
-x,-y,-z
x,y,-z
-x,y,z
x,-y,z
1/2+x,1/2+y,1/2+z
1/2-x,1/2-y,1/2+z
1/2+x,1/2-y,1/2-z
1/2-x,1/2+y,1/2-z
1/2-x,1/2-y,1/2-z
1/2+x,1/2+y,1/2-z
1/2-x,1/2+y,1/2+z
1/2+x,1/2-y,1/2+z
loop_
_atom_site_type_symbol
_atom_site_label
_atom_site_fract_x
_atom_site_fract_y
_atom_site_fract_z
Si Si1 0.377693 0.878249 0.331262
Si Si2 0.875901 0.208368 0.185431
Si Si3 0.883697 0.951534 0.874501
Si Si4 0.743808 0.207704 0.615282
Si Si5 0.124011 0.450208 0.000000
Si Si6 0.261633 0.873445 0.121813
O O1 0.500000 0.869514 0.351564
O O2 0.311220 0.839658 0.384801
O O3 0.342887 0.923609 0.392052
O O4 0.359153 0.875742 0.203464
O O5 0.845135 0.208759 0.308857
O O6 0.846150 0.256245 0.140495
O O7 0.806507 0.171435 0.125319
O O8 0.000000 0.199002 0.169806
O O9 0.809076 0.913267 0.832067
O O10 0.000000 0.944869 0.825319
O O11 0.839252 0.000000 0.841645
O O12 0.891369 0.947810 0.000000
O O13 0.791234 0.217329 0.500000
O O14 0.175307 0.500000 0.000000
O O15 0.000000 0.455930 0.000000
O O16 0.300542 0.880508 0.000000
#
# Coordination Sequence:
#
# PCOD8289886 Si02
#       6
#    16  16  16  16   8  16
#     4  10  20  34  53  75 100 135 178 220 265 314
#     4  10  21  34  51  78 107 138 174 217 265 310
#     4   8  14  26  45  67  92 126 165 202 242 294
#     4  10  20  35  54  75 102 136 179 217 260 316
#     4   9  18  34  56  78  97 125 175 233 275 309
#     4  10  20  32  48  75 109 138 171 213 260 317
#
# _framework density 18.252390999999999
#
# number of rings (size 3 to 8) (size 9 to 14) (size 15 to 20)
#    0.000    2.455    0.909    2.182    0.000    4.364 
#    0.000    0.000    0.000    6.545    0.000    5.091 
#    0.000    5.818    0.000    0.000    0.000    0.000 
#
# Total GULP energy -545244.747246 kJ/mol
# GULP energy per Si atom -12391.926074 kJ/mol
# Density = 1.821085 g / cm^3
# Si number density = 18.252391 Si / 1000 Ang^3
#
#
#
# Elastic Constant Matrix: (Units=GPa)
#
#
# Indices 1 2 3 4 5 6 
#
# 1 28.0157 8.2946 9.9978 0.0004 -0.0003 -0.0002
# 2 8.2946 112.0773 20.3248 0.0000 -0.0004 0.0000
# 3 9.9978 20.3248 112.9475 -0.0021 0.0028 -0.0006
# 4 0.0004 0.0000 -0.0021 21.1079 0.0005 0.0000
# 5 -0.0003 -0.0004 0.0028 0.0005 5.0615 -0.0003
# 6 -0.0002 0.0000 -0.0006 0.0000 -0.0003 21.0723
#
#
#
# Elastic Compliance Matrix: (Units=1/GPa)
#
#
# Indices 1 2 3 4 5 6 
#
# 1 0.037395 -0.002240 -0.002907 -0.000001 0.000004 0.000000
# 2 -0.002240 0.009358 -0.001486 0.000000 0.000001 0.000000
# 3 -0.002907 -0.001486 0.009378 0.000001 -0.000005 0.000000
# 4 -0.000001 0.000000 0.000001 0.047376 -0.000005 0.000000
# 5 0.000004 0.000001 -0.000005 -0.000005 0.197571 0.000003
# 6 0.000000 0.000000 0.000000 0.000000 0.000003 0.047456
#
#
# Mechanical properties :
#
#
# Convention : Reuss Voigt Hill
#
# Bulk Modulus (GPa) = 23.32898 36.69721 30.01309
# Shear Modulus (GPa) = 13.29476 23.74320 18.51898
#
# Velocity S-wave (km/s) = 2.70179 3.61061 3.18874
# Velocity P-wave (km/s) = 4.74784 6.12626 5.48056
#
# Compressibility (1/GPa) = 0.04286513
#
# Stress axis : x y z
#
# Youngs Moduli (GPa) = 26.74157 106.86473 106.62894
#
# Poissons Ratio (x) = 0.23942 0.30996
# Poissons Ratio (y) = 0.05991 0.15841
# Poissons Ratio (z) = 0.07774 0.15876
#
# Static dielectric constant tensor:
#      x y z
#    x 3.121040 0.000000 0.000000 
#    y 0.000000 3.696960 0.000000 
#    z 0.000000 0.000000 3.391430 
# 
# 
# High freq. dielectric constant tensor:
#      x y z
#    x 1.675360 0.000000 0.000000 
#    y 0.000000 1.723560 0.000000 
#    z 0.000000 0.000000 1.700470 
# 
# From -- ./inp_files/20262.got.cif
#   From: 2010.06.25/outbox.cif.g09.slc.cpg/sg71_11_cif.got.tgz:20262.got - 2010.06.28 04:59:45.
