data_PCOD8289817
_publ_section_title
;
Structure prediction by ZEFSAII (Michael W. Deem and Ramdas Pophale) SiO2 
 PCOD8289817
Probable space group: I M M M
;
_chemical_formula_sum "Si O2"
_cell_formula_units_Z 128
_cell_length_a 25.864470
_cell_length_b 29.148957
_cell_length_c 9.444441
_cell_angle_alpha 90.000000
_cell_angle_beta 90.000000
_cell_angle_gamma 90.000000
_cell_volume 7120.374906
_symmetry_space_group_name_H-M "I M M M"
_symmetry_group_IT_number 71
_symmetry_cell_setting 'orthorhombic'
loop_
_space_group_symop_operation_xyz
x,y,z
-x,-y,z
x,-y,-z
-x,y,-z
-x,-y,-z
x,y,-z
-x,y,z
x,-y,z
1/2+x,1/2+y,1/2+z
1/2-x,1/2-y,1/2+z
1/2+x,1/2-y,1/2-z
1/2-x,1/2+y,1/2-z
1/2-x,1/2-y,1/2-z
1/2+x,1/2+y,1/2-z
1/2-x,1/2+y,1/2+z
1/2+x,1/2-y,1/2+z
loop_
_atom_site_type_symbol
_atom_site_label
_atom_site_fract_x
_atom_site_fract_y
_atom_site_fract_z
Si Si1 0.348828 0.448919 0.332008
Si Si2 0.727025 0.792562 0.833882
Si Si3 0.151331 0.551875 0.668802
Si Si4 0.108126 0.294301 0.333166
Si Si5 0.558755 0.386371 0.665481
Si Si6 0.249053 0.106587 0.168260
Si Si7 0.439367 0.701699 0.160809
Si Si8 0.442026 0.886707 0.168824
O O1 0.344199 0.450931 0.500000
O O2 0.345601 0.500000 0.267638
O O3 0.403949 0.427664 0.287360
O O4 0.301647 0.418764 0.270465
O O5 0.750000 0.750000 0.750000
O O6 0.667593 0.799163 0.792675
O O7 0.754231 0.840056 0.785985
O O8 0.734253 0.783007 0.000000
O O9 0.152711 0.551900 0.500000
O O10 0.154871 0.500000 0.727379
O O11 0.199722 0.581324 0.728232
O O12 0.097615 0.574269 0.723067
O O13 0.099512 0.293354 0.500000
O O14 0.086805 0.246626 0.270401
O O15 0.076640 0.337496 0.270347
O O16 0.563755 0.375826 0.500000
O O17 0.500000 0.399881 0.706566
O O18 0.577936 0.341339 0.746271
O O19 0.250975 0.103878 0.000000
O O20 0.500000 0.709507 0.167371
O O21 0.420699 0.693113 0.000000
O O22 0.500000 0.897403 0.224529
O O23 0.441286 0.885338 0.000000
#
# Coordination Sequence:
#
# PCOD8289817 Si02
#       8
#    16  16  16  16  16  16  16  16
#     4   9  17  28  44  65  86 113 150 186 221 268
#     4  10  20  32  47  68  94 122 152 186 226 268
#     4   9  15  23  36  55  83 118 151 185 225 266
#     4   9  16  28  43  61  85 115 152 189 222 261
#     4   9  18  31  46  67  94 118 142 182 234 275
#     4   9  16  28  43  61  86 117 151 185 221 266
#     4   9  17  29  46  66  87 117 155 186 214 260
#     4   9  15  23  36  55  82 118 156 188 220 264
#
# _framework density 17.976582000000001
#
# number of rings (size 3 to 8) (size 9 to 14) (size 15 to 20)
#    0.000    2.875    1.250    0.750    1.750    3.500 
#    0.000    2.500    0.000    0.375    0.000    1.750 
#    0.000    1.500    0.000    0.000    0.000    1.875 
#
# Total GULP energy -793354.102705 kJ/mol
# GULP energy per Si atom -12396.157855 kJ/mol
# Density = 1.793567 g / cm^3
# Si number density = 17.976582 Si / 1000 Ang^3
#
#
#
# Elastic Constant Matrix: (Units=GPa)
#
#
# Indices 1 2 3 4 5 6 
#
# 1 121.7508 86.8983 17.7126 0.0000 0.0000 0.0000
# 2 86.8983 177.2708 22.9788 0.0000 0.0000 0.0000
# 3 17.7126 22.9788 14.3940 0.0000 0.0000 0.0000
# 4 0.0000 0.0000 0.0000 17.1631 0.0000 0.0000
# 5 0.0000 0.0000 0.0000 0.0000 9.8825 0.0000
# 6 0.0000 0.0000 0.0000 0.0000 0.0000 38.4911
#
#
#
# Elastic Compliance Matrix: (Units=1/GPa)
#
#
# Indices 1 2 3 4 5 6 
#
# 1 0.013243 -0.005522 -0.007481 0.000000 0.000000 0.000000
# 2 -0.005522 0.009416 -0.008236 0.000000 0.000000 0.000000
# 3 -0.007481 -0.008236 0.091827 0.000000 0.000000 0.000000
# 4 0.000000 0.000000 0.000000 0.058264 0.000000 0.000000
# 5 0.000000 0.000000 0.000000 0.000000 0.101189 0.000000
# 6 0.000000 0.000000 0.000000 0.000000 0.000000 0.025980
#
#
# Mechanical properties :
#
#
# Convention : Reuss Voigt Hill
#
# Bulk Modulus (GPa) = 13.88738 63.17724 38.53231
# Shear Modulus (GPa) = 13.64631 25.49576 19.57104
#
# Velocity S-wave (km/s) = 2.75820 3.77009 3.30312
# Velocity P-wave (km/s) = 4.22913 7.36016 6.00239
#
# Compressibility (1/GPa) = 0.07200784
#
# Stress axis : x y z
#
# Youngs Moduli (GPa) = 75.51063 106.20654 10.89005
#
# Poissons Ratio (x) = 0.58648 0.08147
# Poissons Ratio (y) = 0.41698 0.08969
# Poissons Ratio (z) = 0.56489 0.87472
#
# Static dielectric constant tensor:
#      x y z
#    x 4.103550 0.000000 0.000000 
#    y 0.000000 3.582430 0.000000 
#    z 0.000000 0.000000 2.681130 
# 
# 
# High freq. dielectric constant tensor:
#      x y z
#    x 1.708630 0.000000 0.000000 
#    y 0.000000 1.710450 0.000000 
#    z 0.000000 0.000000 1.611770 
# 
# From -- ./inp_files/28019.got.cif
#   From: 2010.06.25/outbox.cif.g09.slc.cpg/sg71_15_cif.got.tgz:28019.got - 2010.06.28 04:59:45.
