data_PCOD8289374
_publ_section_title
;
Structure prediction by ZEFSAII (Michael W. Deem and Ramdas Pophale) SiO2 
 PCOD8289374
Probable space group: I M M M
;
_chemical_formula_sum "Si O2"
_cell_formula_units_Z 64
_cell_length_a 26.826126
_cell_length_b 13.748208
_cell_length_c 9.611394
_cell_angle_alpha 90.000000
_cell_angle_beta 90.000000
_cell_angle_gamma 90.000000
_cell_volume 3544.789371
_symmetry_space_group_name_H-M "I M M M"
_symmetry_group_IT_number 71
_symmetry_cell_setting 'orthorhombic'
loop_
_space_group_symop_operation_xyz
x,y,z
-x,-y,z
x,-y,-z
-x,y,-z
-x,-y,-z
x,y,-z
-x,y,z
x,-y,z
1/2+x,1/2+y,1/2+z
1/2-x,1/2-y,1/2+z
1/2+x,1/2-y,1/2-z
1/2-x,1/2+y,1/2-z
1/2-x,1/2-y,1/2-z
1/2+x,1/2+y,1/2-z
1/2-x,1/2+y,1/2+z
1/2+x,1/2-y,1/2+z
loop_
_atom_site_type_symbol
_atom_site_label
_atom_site_fract_x
_atom_site_fract_y
_atom_site_fract_z
Si Si1 0.297927 0.615466 0.500000
Si Si2 0.058874 0.000000 0.344302
Si Si3 0.556274 0.320238 0.659253
Si Si4 0.296545 0.763478 0.000000
Si Si5 0.288982 0.113246 0.500000
Si Si6 0.844402 0.738353 0.207251
O O1 0.305394 0.500000 0.500000
O O2 0.239297 0.642072 0.500000
O O3 0.323142 0.662806 0.363270
O O4 0.075888 0.905586 0.259545
O O5 0.082393 0.000000 0.500000
O O6 0.000000 0.000000 0.354384
O O7 0.557846 0.357165 0.500000
O O8 0.500000 0.285744 0.697054
O O9 0.595668 0.233133 0.683919
O O10 0.264306 0.665367 0.000000
O O11 0.332631 0.764171 0.131208
O O12 0.319876 0.144019 0.636507
O O13 0.279055 0.000000 0.500000
#
# Coordination Sequence:
#
# PCOD8289374 Si02
#       6
#     8   8  16   8   8  16
#     4  10  20  36  56  77 106 142 179 219 264 318
#     4   9  19  31  47  77 111 143 179 215 257 319
#     4  10  19  34  54  74 108 147 181 216 260 315
#     4  10  22  36  53  80 114 136 177 223 272 319
#     4  10  20  40  60  77 105 144 182 226 268 313
#     4  10  21  36  54  83 109 139 180 224 259 324
#
# _framework density 18.054670000000002
#
# number of rings (size 3 to 8) (size 9 to 14) (size 15 to 20)
#    0.000    2.375    2.500    3.375    3.500    5.500 
#    0.000    0.000    0.000    1.500    0.000    0.000 
#    0.000    3.000    0.000    0.000    0.000    0.000 
#
# Total GULP energy -396683.242375 kJ/mol
# GULP energy per Si atom -12396.351324 kJ/mol
# Density = 1.801358 g / cm^3
# Si number density = 18.054670 Si / 1000 Ang^3
#
#
#
# Elastic Constant Matrix: (Units=GPa)
#
#
# Indices 1 2 3 4 5 6 
#
# 1 98.5931 10.5061 40.0512 0.0000 0.0000 0.0000
# 2 10.5061 73.4267 14.5934 0.0000 0.0000 0.0000
# 3 40.0512 14.5934 144.7926 0.0000 0.0000 0.0000
# 4 0.0000 0.0000 0.0000 9.8096 0.0000 0.0000
# 5 0.0000 0.0000 0.0000 0.0000 22.1025 0.0000
# 6 0.0000 0.0000 0.0000 0.0000 0.0000 12.2145
#
#
#
# Elastic Compliance Matrix: (Units=1/GPa)
#
#
# Indices 1 2 3 4 5 6 
#
# 1 0.011503 -0.001034 -0.003078 0.000000 0.000000 0.000000
# 2 -0.001034 0.013990 -0.001124 0.000000 0.000000 0.000000
# 3 -0.003078 -0.001124 0.007871 0.000000 0.000000 0.000000
# 4 0.000000 0.000000 0.000000 0.101940 0.000000 0.000000
# 5 0.000000 0.000000 0.000000 0.000000 0.045244 0.000000
# 6 0.000000 0.000000 0.000000 0.000000 0.000000 0.081870
#
#
# Mechanical properties :
#
#
# Convention : Reuss Voigt Hill
#
# Bulk Modulus (GPa) = 43.68183 49.67933 46.68058
# Shear Modulus (GPa) = 17.82397 25.60279 21.71338
#
# Velocity S-wave (km/s) = 3.14542 3.76981 3.47168
# Velocity P-wave (km/s) = 6.11868 6.82088 6.47930
#
# Compressibility (1/GPa) = 0.02289281
#
# Stress axis : x y z
#
# Youngs Moduli (GPa) = 86.93289 71.47759 127.04827
#
# Poissons Ratio (x) = 0.07392 0.39101
# Poissons Ratio (y) = 0.08991 0.14280
# Poissons Ratio (z) = 0.26755 0.08034
#
# Static dielectric constant tensor:
#      x y z
#    x 3.413210 0.000000 0.000000 
#    y 0.000000 2.961060 0.000000 
#    z 0.000000 0.000000 3.527240 
# 
# 
# High freq. dielectric constant tensor:
#      x y z
#    x 1.702440 0.000000 0.000000 
#    y 0.000000 1.650570 0.000000 
#    z 0.000000 0.000000 1.712080 
# 
# From -- ./inp_files/16337.got.cif
#   From: 2010.06.25/outbox.cif.g09.slc.cpg/sg71_9_cif.got.tgz:16337.got - 2010.06.28 04:59:45.
