data_PCOD8289992
_publ_section_title
;
Structure prediction by ZEFSAII (Michael W. Deem and Ramdas Pophale) SiO2 
 PCOD8289992
Probable space group: I M M M
;
_chemical_formula_sum "Si O2"
_cell_formula_units_Z 104
_cell_length_a 8.859924
_cell_length_b 20.248453
_cell_length_c 32.744952
_cell_angle_alpha 90.000000
_cell_angle_beta 90.000000
_cell_angle_gamma 90.000000
_cell_volume 5874.436356
_symmetry_space_group_name_H-M "I M M M"
_symmetry_group_IT_number 71
_symmetry_cell_setting 'orthorhombic'
loop_
_space_group_symop_operation_xyz
x,y,z
-x,-y,z
x,-y,-z
-x,y,-z
-x,-y,-z
x,y,-z
-x,y,z
x,-y,z
1/2+x,1/2+y,1/2+z
1/2-x,1/2-y,1/2+z
1/2+x,1/2-y,1/2-z
1/2-x,1/2+y,1/2-z
1/2-x,1/2-y,1/2-z
1/2+x,1/2+y,1/2-z
1/2-x,1/2+y,1/2+z
1/2+x,1/2-y,1/2+z
loop_
_atom_site_type_symbol
_atom_site_label
_atom_site_fract_x
_atom_site_fract_y
_atom_site_fract_z
Si Si1 0.824131 0.745242 0.454590
Si Si2 0.677935 0.873007 0.577635
Si Si3 0.820618 0.572466 0.681026
Si Si4 0.822895 0.575273 0.774121
Si Si5 0.665217 0.500000 0.046729
Si Si6 0.821340 0.164639 0.659371
Si Si7 0.177880 0.693433 0.369509
O O1 0.792501 0.714907 0.500000
O O2 0.730578 0.811861 0.449875
O O3 0.776048 0.695714 0.417745
O O4 0.000000 0.763335 0.449589
O O5 0.500000 0.871282 0.582157
O O6 0.751050 0.875348 0.622186
O O7 0.731576 0.938048 0.555833
O O8 0.759941 0.500000 0.667533
O O9 0.772714 0.586872 0.727480
O O10 0.749002 0.628512 0.651440
O O11 0.000000 0.572402 0.678264
O O12 0.781076 0.500000 0.787465
O O13 0.734784 0.630922 0.799236
O O14 0.000000 0.586855 0.779974
O O15 0.500000 0.500000 0.069461
O O16 0.626359 0.500000 0.000000
O O17 0.767171 0.241062 0.654789
O O18 0.000000 0.160180 0.657159
O O19 0.000000 0.688147 0.365381
#
# Coordination Sequence:
#
# PCOD8289992 Si02
#       7
#    16  16  16  16   8  16  16
#     4   9  17  31  50  70  96 129 160 194 240 293
#     4  11  22  34  49  69  94 124 161 207 247 283
#     4   8  14  27  48  72  97 127 160 198 245 296
#     4   9  18  31  47  68  95 126 164 207 248 290
#     4  11  23  37  51  67  91 125 163 201 247 299
#     4  10  20  33  48  68  96 129 163 201 246 295
#     4   8  15  28  46  69  95 125 164 200 238 294
#
# _framework density 17.703825999999999
#
# number of rings (size 3 to 8) (size 9 to 14) (size 15 to 20)
#    0.000    2.692    0.000    4.385    1.077    3.692 
#    0.000    0.000    0.000    4.154    0.000    3.231 
#    0.000    0.000    0.000    5.538    0.000    6.154 
#
# Total GULP energy -644425.003864 kJ/mol
# GULP energy per Si atom -12392.788536 kJ/mol
# Density = 1.766353 g / cm^3
# Si number density = 17.703826 Si / 1000 Ang^3
#
#
#
# Elastic Constant Matrix: (Units=GPa)
#
#
# Indices 1 2 3 4 5 6 
#
# 1 53.5727 31.1119 32.4433 0.0000 0.0000 0.0000
# 2 31.1119 120.2193 86.2626 0.0000 0.0000 0.0000
# 3 32.4433 86.2626 130.0931 0.0000 0.0000 0.0000
# 4 0.0000 0.0000 0.0000 -21.0541 0.0000 0.0000
# 5 0.0000 0.0000 0.0000 0.0000 18.5893 0.0000
# 6 0.0000 0.0000 0.0000 0.0000 0.0000 12.1774
#
#
#
# Elastic Compliance Matrix: (Units=1/GPa)
#
#
# Indices 1 2 3 4 5 6 
#
# 1 0.022717 -0.003460 -0.003371 0.000000 0.000000 0.000000
# 2 -0.003460 0.016395 -0.010008 0.000000 0.000000 0.000000
# 3 -0.003371 -0.010008 0.015164 0.000000 0.000000 0.000000
# 4 0.000000 0.000000 0.000000 -0.047497 0.000000 0.000000
# 5 0.000000 0.000000 0.000000 0.000000 0.053794 0.000000
# 6 0.000000 0.000000 0.000000 0.000000 0.000000 0.082119
#
#
# Mechanical properties :
#
#
# Convention : Reuss Voigt Hill
#
# Bulk Modulus (GPa) = 48.55073 67.05784 57.80428
# Shear Modulus (GPa) = 27.28697 12.21367 19.75032
#
# Velocity S-wave (km/s) = 3.93020 2.62942 3.34368
# Velocity P-wave (km/s) = 6.93388 6.86865 6.90134
#
# Compressibility (1/GPa) = 0.02059701
#
# Stress axis : x y z
#
# Youngs Moduli (GPa) = 44.01966 60.99399 65.94644
#
# Poissons Ratio (x) = 0.21106 0.22230
# Poissons Ratio (y) = 0.15232 0.66002
# Poissons Ratio (z) = 0.14838 0.61045
#
# Static dielectric constant tensor:
#      x y z
#    x 3.013190 0.000000 0.000000 
#    y 0.000000 3.574430 0.000000 
#    z 0.000000 0.000000 3.467750 
# 
# 
# High freq. dielectric constant tensor:
#      x y z
#    x 1.658880 0.000000 0.000000 
#    y 0.000000 1.671960 0.000000 
#    z 0.000000 0.000000 1.686760 
# 
# From -- ./inp_files/68248.got.cif
#   From: 2010.06.25/outbox.cif.g09.slc.cpg/sg71_35_cif.got.tgz:68248.got - 2010.06.28 04:59:45.
