data_PCOD8289778
_publ_section_title
;
Structure prediction by ZEFSAII (Michael W. Deem and Ramdas Pophale) SiO2 
 PCOD8289778
Probable space group: I M M M
;
_chemical_formula_sum "Si O2"
_cell_formula_units_Z 104
_cell_length_a 28.306582
_cell_length_b 9.453376
_cell_length_c 27.906349
_cell_angle_alpha 90.000000
_cell_angle_beta 90.000000
_cell_angle_gamma 90.000000
_cell_volume 7467.537032
_symmetry_space_group_name_H-M "I M M M"
_symmetry_group_IT_number 71
_symmetry_cell_setting 'orthorhombic'
loop_
_space_group_symop_operation_xyz
x,y,z
-x,-y,z
x,-y,-z
-x,y,-z
-x,-y,-z
x,y,-z
-x,y,z
x,-y,z
1/2+x,1/2+y,1/2+z
1/2-x,1/2-y,1/2+z
1/2+x,1/2-y,1/2-z
1/2-x,1/2+y,1/2-z
1/2-x,1/2-y,1/2-z
1/2+x,1/2+y,1/2-z
1/2-x,1/2+y,1/2+z
1/2+x,1/2-y,1/2+z
loop_
_atom_site_type_symbol
_atom_site_label
_atom_site_fract_x
_atom_site_fract_y
_atom_site_fract_z
Si Si1 0.946697 0.651853 0.000000
Si Si2 0.053696 0.340092 0.173504
Si Si3 0.287895 0.662878 0.220497
Si Si4 0.648210 0.161629 0.722585
Si Si5 0.280014 0.839824 0.360680
Si Si6 0.307892 0.339597 0.445134
Si Si7 0.085449 0.161214 0.914439
O O1 0.937942 0.744185 0.954027
O O2 0.918402 0.500000 0.000000
O O3 0.000000 0.607279 0.000000
O O4 0.057770 0.500000 0.152112
O O5 0.091687 0.323851 0.216309
O O6 0.068079 0.222577 0.135550
O O7 0.000000 0.313202 0.191991
O O8 0.290014 0.500000 0.237374
O O9 0.250000 0.750000 0.250000
O O10 0.337957 0.738678 0.232075
O O11 0.271266 0.672460 0.165213
O O12 0.677324 0.210394 0.674801
O O13 0.662743 0.000000 0.734185
O O14 0.275081 0.750808 0.409690
O O15 0.290690 0.000000 0.376059
O O16 0.308232 0.280810 0.500000
O O17 0.289453 0.500000 0.445562
O O18 0.358924 0.329881 0.421302
O O19 0.067808 0.000000 0.918798
#
# Coordination Sequence:
#
# PCOD8289778 Si02
#       7
#     8  16  16  16  16  16  16
#     4  11  23  35  45  55  67  91 129 171 217 263
#     4  10  20  33  46  60  81 108 138 172 209 250
#     4   9  17  28  43  64  85 103 126 160 204 248
#     4   9  17  29  44  63  83 104 134 167 203 248
#     4   9  17  29  44  62  80 101 131 166 201 244
#     4  10  20  32  43  58  79 104 133 166 208 251
#     4  11  21  33  45  58  76  98 130 174 216 253
#
# _framework density 13.926947
#
# number of rings (size 3 to 8) (size 9 to 14) (size 15 to 20)
#    0.000    2.231    2.308    2.538    0.000    7.385 
#    0.000    0.000    0.000    0.000    0.000    0.000 
#    0.000    0.000    0.000    0.000    0.000    0.769 
#
# Total GULP energy -644313.164477 kJ/mol
# GULP energy per Si atom -12390.637778 kJ/mol
# Density = 1.389525 g / cm^3
# Si number density = 13.926947 Si / 1000 Ang^3
#
#
#
# Elastic Constant Matrix: (Units=GPa)
#
#
# Indices 1 2 3 4 5 6 
#
# 1 60.9861 39.1875 41.7001 0.0000 0.0000 0.0000
# 2 39.1875 94.7179 40.8592 0.0000 0.0000 0.0000
# 3 41.7001 40.8592 51.9112 0.0000 0.0000 0.0000
# 4 0.0000 0.0000 0.0000 26.7114 0.0000 0.0000
# 5 0.0000 0.0000 0.0000 0.0000 22.0071 0.0000
# 6 0.0000 0.0000 0.0000 0.0000 0.0000 17.0733
#
#
#
# Elastic Compliance Matrix: (Units=1/GPa)
#
#
# Indices 1 2 3 4 5 6 
#
# 1 0.037257 -0.003791 -0.026944 0.000000 0.000000 0.000000
# 2 -0.003791 0.016371 -0.009840 0.000000 0.000000 0.000000
# 3 -0.026944 -0.009840 0.048653 0.000000 0.000000 0.000000
# 4 0.000000 0.000000 0.000000 0.037437 0.000000 0.000000
# 5 0.000000 0.000000 0.000000 0.000000 0.045440 0.000000
# 6 0.000000 0.000000 0.000000 0.000000 0.000000 0.058571
#
#
# Mechanical properties :
#
#
# Convention : Reuss Voigt Hill
#
# Bulk Modulus (GPa) = 47.32667 50.12320 48.72494
# Shear Modulus (GPa) = 15.06373 18.88293 16.97333
#
# Velocity S-wave (km/s) = 3.29237 3.68619 3.49483
# Velocity P-wave (km/s) = 6.96483 7.36108 7.16569
#
# Compressibility (1/GPa) = 0.02112974
#
# Stress axis : x y z
#
# Youngs Moduli (GPa) = 26.84083 61.08367 20.55363
#
# Poissons Ratio (x) = 0.23157 0.55380
# Poissons Ratio (y) = 0.10175 0.20225
# Poissons Ratio (z) = 0.72321 0.60108
#
# Static dielectric constant tensor:
#      x y z
#    x 2.825380 0.000000 0.000000 
#    y 0.000000 2.998210 0.000000 
#    z 0.000000 0.000000 2.760900 
# 
# 
# High freq. dielectric constant tensor:
#      x y z
#    x 1.500030 0.000000 0.000000 
#    y 0.000000 1.549020 0.000000 
#    z 0.000000 0.000000 1.496690 
# 
# From -- ./inp_files/67293.got.cif
#   From: 2010.06.25/outbox.cif.g09.slc.cpg/sg71_34_cif.got.tgz:67293.got - 2010.06.28 04:59:45.
