data_PCOD8289783
_publ_section_title
;
Structure prediction by ZEFSAII (Michael W. Deem and Ramdas Pophale) SiO2 
 PCOD8289783
Probable space group: I M M M
;
_chemical_formula_sum "Si O2"
_cell_formula_units_Z 80
_cell_length_a 19.027573
_cell_length_b 8.491312
_cell_length_c 33.375376
_cell_angle_alpha 90.000000
_cell_angle_beta 90.000000
_cell_angle_gamma 90.000000
_cell_volume 5392.428092
_symmetry_space_group_name_H-M "I M M M"
_symmetry_group_IT_number 71
_symmetry_cell_setting 'orthorhombic'
loop_
_space_group_symop_operation_xyz
x,y,z
-x,-y,z
x,-y,-z
-x,y,-z
-x,-y,-z
x,y,-z
-x,y,z
x,-y,z
1/2+x,1/2+y,1/2+z
1/2-x,1/2-y,1/2+z
1/2+x,1/2-y,1/2-z
1/2-x,1/2+y,1/2-z
1/2-x,1/2-y,1/2-z
1/2+x,1/2+y,1/2-z
1/2-x,1/2+y,1/2+z
1/2+x,1/2-y,1/2+z
loop_
_atom_site_type_symbol
_atom_site_label
_atom_site_fract_x
_atom_site_fract_y
_atom_site_fract_z
Si Si1 0.268211 0.683218 0.190493
Si Si2 0.000000 0.184041 0.663941
Si Si3 0.641308 0.682854 0.266862
Si Si4 0.500000 0.818616 0.249071
Si Si5 0.921147 0.313019 0.456064
Si Si6 0.638661 0.814841 0.874709
O O1 0.251432 0.500000 0.193321
O O2 0.325878 0.732057 0.223818
O O3 0.196163 0.776648 0.198001
O O4 0.296648 0.726374 0.146428
O O5 0.932821 0.271967 0.647144
O O6 0.000000 0.200839 0.711567
O O7 0.000000 0.000000 0.652569
O O8 0.623043 0.500000 0.268233
O O9 0.570113 0.781167 0.274562
O O10 0.500000 0.000000 0.235722
O O11 0.894473 0.255387 0.500000
O O12 0.925187 0.500000 0.455110
O O13 0.868078 0.256413 0.421064
O O14 0.000000 0.246679 0.448133
O O15 0.652069 0.000000 0.871690
#
# Coordination Sequence:
#
# PCOD8289783 Si02
#       6
#    16   8  16   8  16  16
#     4  10  20  32  45  62  87 114 142 180 221 259
#     4  12  22  30  39  59  86 113 146 185 221 256
#     4  10  20  33  47  63  86 113 143 179 217 258
#     4  12  22  32  48  65  85 112 145 182 220 260
#     4   8  14  25  41  62  85 109 142 183 221 257
#     4  11  19  29  46  64  82 111 148 186 223 261
#
# _framework density 14.835616999999999
#
# number of rings (size 3 to 8) (size 9 to 14) (size 15 to 20)
#    0.000    1.800    3.000    4.200    0.000    1.600 
#    0.000    0.000    0.000    3.000    0.000    0.000 
#    0.000    0.000    0.000    0.900    0.000   18.600 
#
# Total GULP energy -495927.256180 kJ/mol
# GULP energy per Si atom -12398.181404 kJ/mol
# Density = 1.480185 g / cm^3
# Si number density = 14.835617 Si / 1000 Ang^3
#
#
#
# Elastic Constant Matrix: (Units=GPa)
#
#
# Indices 1 2 3 4 5 6 
#
# 1 82.1922 20.7741 40.1755 0.0000 0.0000 0.0000
# 2 20.7741 42.7266 8.9978 0.0000 0.0000 0.0000
# 3 40.1755 8.9978 93.6130 0.0000 0.0000 0.0000
# 4 0.0000 0.0000 0.0000 13.6496 0.0000 0.0000
# 5 0.0000 0.0000 0.0000 0.0000 21.4171 0.0000
# 6 0.0000 0.0000 0.0000 0.0000 0.0000 22.4545
#
#
#
# Elastic Compliance Matrix: (Units=1/GPa)
#
#
# Indices 1 2 3 4 5 6 
#
# 1 0.017207 -0.006952 -0.006716 0.000000 0.000000 0.000000
# 2 -0.006952 0.026697 0.000417 0.000000 0.000000 0.000000
# 3 -0.006716 0.000417 0.013525 0.000000 0.000000 0.000000
# 4 0.000000 0.000000 0.000000 0.073262 0.000000 0.000000
# 5 0.000000 0.000000 0.000000 0.000000 0.046692 0.000000
# 6 0.000000 0.000000 0.000000 0.000000 0.000000 0.044534
#
#
# Mechanical properties :
#
#
# Convention : Reuss Voigt Hill
#
# Bulk Modulus (GPa) = 32.33446 39.82518 36.07982
# Shear Modulus (GPa) = 19.32545 21.40986 20.36766
#
# Velocity S-wave (km/s) = 3.61312 3.80299 3.70927
# Velocity P-wave (km/s) = 6.26488 6.79604 6.53586
#
# Compressibility (1/GPa) = 0.03092676
#
# Stress axis : x y z
#
# Youngs Moduli (GPa) = 58.11738 37.45781 73.93957
#
# Poissons Ratio (x) = 0.26039 0.49660
# Poissons Ratio (y) = 0.40401 -0.03086
# Poissons Ratio (z) = 0.39033 -0.01563
#
# Static dielectric constant tensor:
#      x y z
#    x 2.759060 0.000000 0.000000 
#    y 0.000000 2.773310 0.000000 
#    z 0.000000 0.000000 2.993940 
# 
# 
# High freq. dielectric constant tensor:
#      x y z
#    x 1.541190 0.000000 0.000000 
#    y 0.000000 1.570640 0.000000 
#    z 0.000000 0.000000 1.541210 
# 
# From -- ./inp_files/49171.got.cif
#   From: 2010.06.25/outbox.cif.g09.slc.cpg/sg71_25_cif.got.tgz:49171.got - 2010.06.28 04:59:45.
