data_PCOD8289130
_publ_section_title
;
Structure prediction by ZEFSAII (Michael W. Deem and Ramdas Pophale) SiO2 
 PCOD8289130
Probable space group: I M M M
;
_chemical_formula_sum "Si O2"
_cell_formula_units_Z 80
_cell_length_a 16.576995
_cell_length_b 27.653079
_cell_length_c 9.718777
_cell_angle_alpha 90.000000
_cell_angle_beta 90.000000
_cell_angle_gamma 90.000000
_cell_volume 4455.135507
_symmetry_space_group_name_H-M "I M M M"
_symmetry_group_IT_number 71
_symmetry_cell_setting 'orthorhombic'
loop_
_space_group_symop_operation_xyz
x,y,z
-x,-y,z
x,-y,-z
-x,y,-z
-x,-y,-z
x,y,-z
-x,y,z
x,-y,z
1/2+x,1/2+y,1/2+z
1/2-x,1/2-y,1/2+z
1/2+x,1/2-y,1/2-z
1/2-x,1/2+y,1/2-z
1/2-x,1/2-y,1/2-z
1/2+x,1/2+y,1/2-z
1/2-x,1/2+y,1/2+z
1/2+x,1/2-y,1/2+z
loop_
_atom_site_type_symbol
_atom_site_label
_atom_site_fract_x
_atom_site_fract_y
_atom_site_fract_z
Si Si1 0.174644 0.052317 0.159266
Si Si2 0.628471 0.704392 0.342943
Si Si3 0.000000 0.156528 0.652513
Si Si4 0.406256 0.185957 0.658645
Si Si5 0.722586 0.858909 0.158179
Si Si6 0.000000 0.946101 0.733368
O O1 0.228730 0.095284 0.222767
O O2 0.079251 0.060770 0.173947
O O3 0.198779 0.000000 0.224743
O O4 0.194378 0.052053 0.000000
O O5 0.597355 0.696165 0.500000
O O6 0.578134 0.672236 0.237327
O O7 0.619497 0.759965 0.300951
O O8 0.721285 0.688563 0.330313
O O9 0.000000 0.180209 0.500000
O O10 0.000000 0.098405 0.626938
O O11 0.386139 0.175462 0.500000
O O12 0.500000 0.178454 0.690468
O O13 0.357299 0.148368 0.751929
O O14 0.697026 0.867492 0.000000
O O15 0.000000 0.000000 0.663177
#
# Coordination Sequence:
#
# PCOD8289130 Si02
#       6
#    16  16   8  16  16   8
#     4   9  17  30  52  81 108 138 177 218 261 310
#     4  10  20  37  56  75 106 144 179 214 263 316
#     4  12  23  32  50  80 112 146 181 221 261 304
#     4  10  21  37  56  76 104 141 176 215 264 319
#     4  10  20  33  55  82 107 136 172 221 265 310
#     4  10  19  33  51  73 108 148 184 217 252 308
#
# _framework density 17.956804000000002
#
# number of rings (size 3 to 8) (size 9 to 14) (size 15 to 20)
#    0.000    2.000    3.000    1.200    0.000    4.200 
#    0.000    0.000    0.000    1.200    0.000    4.200 
#    0.000    0.000    0.000    0.000    0.000    0.000 
#
# Total GULP energy -495766.729067 kJ/mol
# GULP energy per Si atom -12394.168227 kJ/mol
# Density = 1.791593 g / cm^3
# Si number density = 17.956804 Si / 1000 Ang^3
#
#
#
# Elastic Constant Matrix: (Units=GPa)
#
#
# Indices 1 2 3 4 5 6 
#
# 1 105.3534 65.6936 43.5232 0.0001 -0.0002 -0.0001
# 2 65.6936 112.3927 37.8318 -0.0003 0.0000 0.0000
# 3 43.5232 37.8318 70.1428 -0.0033 -0.0023 0.0002
# 4 0.0001 -0.0003 -0.0033 17.6519 -0.0007 -0.0001
# 5 -0.0002 0.0000 -0.0023 -0.0007 22.7606 -0.0001
# 6 -0.0001 0.0000 0.0002 -0.0001 -0.0001 25.2654
#
#
#
# Elastic Compliance Matrix: (Units=1/GPa)
#
#
# Indices 1 2 3 4 5 6 
#
# 1 0.016958 -0.007783 -0.006324 -0.000001 0.000000 0.000000
# 2 -0.007783 0.014443 -0.002961 0.000000 0.000000 0.000000
# 3 -0.006324 -0.002961 0.019778 0.000004 0.000002 0.000000
# 4 -0.000001 0.000000 0.000004 0.056651 0.000002 0.000000
# 5 0.000000 0.000000 0.000002 0.000002 0.043936 0.000000
# 6 0.000000 0.000000 0.000000 0.000000 0.000000 0.039580
#
#
# Mechanical properties :
#
#
# Convention : Reuss Voigt Hill
#
# Bulk Modulus (GPa) = 58.67687 64.66514 61.67101
# Shear Modulus (GPa) = 21.62988 22.52493 22.07740
#
# Velocity S-wave (km/s) = 3.47443 3.54559 3.51019
# Velocity P-wave (km/s) = 6.98879 7.26989 7.13072
#
# Compressibility (1/GPa) = 0.01704249
#
# Stress axis : x y z
#
# Youngs Moduli (GPa) = 58.97043 69.23724 50.56204
#
# Poissons Ratio (x) = 0.53887 0.31977
# Poissons Ratio (y) = 0.45896 0.14970
# Poissons Ratio (z) = 0.37295 0.20499
#
# Static dielectric constant tensor:
#      x y z
#    x 3.138940 0.000000 0.000000 
#    y 0.000000 3.630080 0.000000 
#    z 0.000000 0.000000 3.054690 
# 
# 
# High freq. dielectric constant tensor:
#      x y z
#    x 1.679830 0.000000 0.000000 
#    y 0.000000 1.694850 0.000000 
#    z 0.000000 0.000000 1.671930 
# 
# From -- ./inp_files/8417.got.cif
#   From: 2010.06.25/outbox.cif.g09.slc.cpg/sg71_5_cif.got.tgz:8417.got - 2010.06.28 04:59:45.
