data_PCOD8289644
_publ_section_title
;
Structure prediction by ZEFSAII (Michael W. Deem and Ramdas Pophale) SiO2 
 PCOD8289644
Probable space group: I M M M
;
_chemical_formula_sum "Si O2"
_cell_formula_units_Z 72
_cell_length_a 11.473937
_cell_length_b 21.641751
_cell_length_c 16.575073
_cell_angle_alpha 90.000000
_cell_angle_beta 90.000000
_cell_angle_gamma 90.000000
_cell_volume 4115.857278
_symmetry_space_group_name_H-M "I M M M"
_symmetry_group_IT_number 71
_symmetry_cell_setting 'orthorhombic'
loop_
_space_group_symop_operation_xyz
x,y,z
-x,-y,z
x,-y,-z
-x,y,-z
-x,-y,-z
x,y,-z
-x,y,z
x,-y,z
1/2+x,1/2+y,1/2+z
1/2-x,1/2-y,1/2+z
1/2+x,1/2-y,1/2-z
1/2-x,1/2+y,1/2-z
1/2-x,1/2-y,1/2-z
1/2+x,1/2+y,1/2-z
1/2-x,1/2+y,1/2+z
1/2+x,1/2-y,1/2+z
loop_
_atom_site_type_symbol
_atom_site_label
_atom_site_fract_x
_atom_site_fract_y
_atom_site_fract_z
Si Si1 0.765973 0.868279 0.355578
Si Si2 0.362676 0.930341 0.500000
Si Si3 0.365786 0.756934 0.093547
Si Si4 0.000000 0.072960 0.407906
Si Si5 0.138042 0.500000 0.409897
Si Si6 0.863678 0.618929 0.311093
O O1 0.678188 0.894574 0.421371
O O2 0.783242 0.795420 0.369314
O O3 0.887949 0.903464 0.360556
O O4 0.711184 0.879887 0.269213
O O5 0.500000 0.932769 0.500000
O O6 0.310441 0.000000 0.500000
O O7 0.500000 0.737252 0.106164
O O8 0.336827 0.820442 0.137560
O O9 0.337181 0.766193 0.000000
O O10 0.000000 0.099274 0.500000
O O11 0.000000 0.000000 0.409205
O O12 0.192257 0.500000 0.500000
O O13 0.180296 0.439315 0.362774
O O14 0.000000 0.500000 0.416711
O O15 0.000000 0.613532 0.289239
#
# Coordination Sequence:
#
# PCOD8289644 Si02
#       6
#    16   8  16   8   8  16
#     4  12  21  37  56  83 114 149 188 234 277 333
#     4  11  24  37  55  81 117 157 183 218 286 349
#     4  10  19  36  58  82 110 148 191 233 281 331
#     4  11  22  36  56  82 110 151 195 233 270 326
#     4   9  18  36  58  84 111 144 184 228 283 331
#     4  10  22  35  56  85 116 144 183 238 287 338
#
# _framework density 17.493317999999999
#
# number of rings (size 3 to 8) (size 9 to 14) (size 15 to 20)
#    0.000    1.444    3.333    2.667    3.111    2.667 
#    0.000    0.000    0.000    0.000    0.000    3.111 
#    0.000    0.000    0.000    0.000    0.000    0.000 
#
# Total GULP energy -446543.099046 kJ/mol
# GULP energy per Si atom -12403.974974 kJ/mol
# Density = 1.745350 g / cm^3
# Si number density = 17.493318 Si / 1000 Ang^3
#
#
#
# Elastic Constant Matrix: (Units=GPa)
#
#
# Indices 1 2 3 4 5 6 
#
# 1 70.6728 49.5311 58.6422 0.0000 0.0000 0.0000
# 2 49.5311 152.8795 83.7901 0.0000 0.0000 0.0000
# 3 58.6422 83.7901 174.4101 0.0000 0.0000 0.0000
# 4 0.0000 0.0000 0.0000 30.5860 0.0000 0.0000
# 5 0.0000 0.0000 0.0000 0.0000 41.0029 0.0000
# 6 0.0000 0.0000 0.0000 0.0000 0.0000 24.6904
#
#
#
# Elastic Compliance Matrix: (Units=1/GPa)
#
#
# Indices 1 2 3 4 5 6 
#
# 1 0.021320 -0.004043 -0.005226 0.000000 0.000000 0.000000
# 2 -0.004043 0.009646 -0.003275 0.000000 0.000000 0.000000
# 3 -0.005226 -0.003275 0.009064 0.000000 0.000000 0.000000
# 4 0.000000 0.000000 0.000000 0.032695 0.000000 0.000000
# 5 0.000000 0.000000 0.000000 0.000000 0.024389 0.000000
# 6 0.000000 0.000000 0.000000 0.000000 0.000000 0.040502
#
#
# Mechanical properties :
#
#
# Convention : Reuss Voigt Hill
#
# Bulk Modulus (GPa) = 66.92516 86.87657 76.90087
# Shear Modulus (GPa) = 29.81833 32.98912 31.40372
#
# Velocity S-wave (km/s) = 4.13311 4.34731 4.24156
# Velocity P-wave (km/s) = 7.81776 8.65848 8.24884
#
# Compressibility (1/GPa) = 0.01494206
#
# Stress axis : x y z
#
# Youngs Moduli (GPa) = 46.90506 103.67258 110.32739
#
# Poissons Ratio (x) = 0.41916 0.57657
# Poissons Ratio (y) = 0.18964 0.36128
# Poissons Ratio (z) = 0.24512 0.33949
#
# Static dielectric constant tensor:
#      x y z
#    x 3.118450 0.000000 0.000000 
#    y 0.000000 3.634480 0.000000 
#    z 0.000000 0.000000 3.363940 
# 
# 
# High freq. dielectric constant tensor:
#      x y z
#    x 1.653380 0.000000 0.000000 
#    y 0.000000 1.698250 0.000000 
#    z 0.000000 0.000000 1.682050 
# 
# From -- ./inp_files/21813.got.cif
#   From: 2010.06.25/outbox.cif.g09.slc.cpg/sg71_11_cif.got.tgz:21813.got - 2010.06.28 04:59:45.
