data_PCOD8289075
_publ_section_title
;
Structure prediction by ZEFSAII (Michael W. Deem and Ramdas Pophale) SiO2 
 PCOD8289075
Probable space group: I M M M
;
_chemical_formula_sum "Si O2"
_cell_formula_units_Z 88
_cell_length_a 19.518916
_cell_length_b 8.945216
_cell_length_c 27.216377
_cell_angle_alpha 90.000000
_cell_angle_beta 90.000000
_cell_angle_gamma 90.000000
_cell_volume 4752.004455
_symmetry_space_group_name_H-M "I M M M"
_symmetry_group_IT_number 71
_symmetry_cell_setting 'orthorhombic'
loop_
_space_group_symop_operation_xyz
x,y,z
-x,-y,z
x,-y,-z
-x,y,-z
-x,-y,-z
x,y,-z
-x,y,z
x,-y,z
1/2+x,1/2+y,1/2+z
1/2-x,1/2-y,1/2+z
1/2+x,1/2-y,1/2-z
1/2-x,1/2+y,1/2-z
1/2-x,1/2-y,1/2-z
1/2+x,1/2+y,1/2-z
1/2-x,1/2+y,1/2+z
1/2+x,1/2-y,1/2+z
loop_
_atom_site_type_symbol
_atom_site_label
_atom_site_fract_x
_atom_site_fract_y
_atom_site_fract_z
Si Si1 0.666081 0.677820 0.915159
Si Si2 0.182966 0.331162 0.057163
Si Si3 0.838045 0.173680 0.783295
Si Si4 0.313880 0.825413 0.185265
Si Si5 0.923913 0.824088 0.124933
Si Si6 0.580766 0.825577 0.000000
O O1 0.658353 0.500000 0.917862
O O2 0.741429 0.731954 0.931825
O O3 0.653259 0.735502 0.859992
O O4 0.610867 0.750400 0.951154
O O5 0.178151 0.500000 0.076761
O O6 0.125226 0.235732 0.083096
O O7 0.167823 0.321204 0.000000
O O8 0.766485 0.213192 0.809948
O O9 0.850980 0.271921 0.734967
O O10 0.897555 0.218802 0.820926
O O11 0.839368 0.000000 0.768332
O O12 0.327048 0.000000 0.177147
O O13 0.000000 0.756542 0.118445
O O14 0.924893 0.000000 0.118932
O O15 0.500000 0.798180 0.000000
O O16 0.599390 0.000000 0.000000
#
# Coordination Sequence:
#
# PCOD8289075 Si02
#       6
#    16  16  16  16  16   8
#     4  11  21  37  61  88 117 151 191 234 281 339
#     4  10  21  37  56  82 113 147 192 238 280 332
#     4   9  18  33  52  79 112 147 188 236 289 341
#     4  10  19  32  55  85 112 144 188 239 289 335
#     4  10  21  37  56  80 113 152 193 237 287 343
#     4  11  25  43  63  89 120 151 184 229 287 346
#
# _framework density 18.518501000000001
#
# number of rings (size 3 to 8) (size 9 to 14) (size 15 to 20)
#    0.000    1.909    2.727    1.364    0.000    4.000 
#    0.000    2.727    0.000    3.273    0.000    0.000 
#    0.000    0.000    0.000    0.000    0.000    0.000 
#
# Total GULP energy -545737.105529 kJ/mol
# GULP energy per Si atom -12403.116035 kJ/mol
# Density = 1.847635 g / cm^3
# Si number density = 18.518501 Si / 1000 Ang^3
#
#
#
# Elastic Constant Matrix: (Units=GPa)
#
#
# Indices 1 2 3 4 5 6 
#
# 1 103.1829 40.8348 53.0622 0.0000 0.0000 0.0000
# 2 40.8348 67.7337 53.3421 0.0000 0.0000 0.0000
# 3 53.0622 53.3421 118.7824 0.0000 0.0000 0.0000
# 4 0.0000 0.0000 0.0000 38.7620 0.0000 0.0000
# 5 0.0000 0.0000 0.0000 0.0000 21.6859 0.0000
# 6 0.0000 0.0000 0.0000 0.0000 0.0000 23.5251
#
#
#
# Elastic Compliance Matrix: (Units=1/GPa)
#
#
# Indices 1 2 3 4 5 6 
#
# 1 0.013722 -0.005330 -0.003736 0.000000 0.000000 0.000000
# 2 -0.005330 0.024913 -0.008806 0.000000 0.000000 0.000000
# 3 -0.003736 -0.008806 0.014043 0.000000 0.000000 0.000000
# 4 0.000000 0.000000 0.000000 0.025798 0.000000 0.000000
# 5 0.000000 0.000000 0.000000 0.000000 0.046113 0.000000
# 6 0.000000 0.000000 0.000000 0.000000 0.000000 0.042508
#
#
# Mechanical properties :
#
#
# Convention : Reuss Voigt Hill
#
# Bulk Modulus (GPa) = 59.06224 64.90857 61.98540
# Shear Modulus (GPa) = 23.98233 26.29192 25.13713
#
# Velocity S-wave (km/s) = 3.60258 3.77206 3.68830
# Velocity P-wave (km/s) = 7.01909 7.35514 7.18908
#
# Compressibility (1/GPa) = 0.01693129
#
# Stress axis : x y z
#
# Youngs Moduli (GPa) = 72.87311 40.14040 71.21227
#
# Poissons Ratio (x) = 0.21397 0.26607
# Poissons Ratio (y) = 0.38845 0.62712
# Poissons Ratio (z) = 0.27227 0.35349
#
# Static dielectric constant tensor:
#      x y z
#    x 3.377790 0.000000 0.000000 
#    y 0.000000 3.418350 0.000000 
#    z 0.000000 0.000000 3.426610 
# 
# 
# High freq. dielectric constant tensor:
#      x y z
#    x 1.699390 0.000000 0.000000 
#    y 0.000000 1.719770 0.000000 
#    z 0.000000 0.000000 1.730550 
# 
# From -- ./inp_files/10466.got.cif
#   From: 2010.06.25/outbox.cif.g09.slc.cpg/sg71_6_cif.got.tgz:10466.got - 2010.06.28 04:59:45.
