data_PCOD8289800
_publ_section_title
;
Structure prediction by ZEFSAII (Michael W. Deem and Ramdas Pophale) SiO2 
 PCOD8289800
Probable space group: I M M M
;
_chemical_formula_sum "Si O2"
_cell_formula_units_Z 88
_cell_length_a 29.896013
_cell_length_b 7.927987
_cell_length_c 19.642732
_cell_angle_alpha 90.000000
_cell_angle_beta 90.000000
_cell_angle_gamma 90.000000
_cell_volume 4655.626101
_symmetry_space_group_name_H-M "I M M M"
_symmetry_group_IT_number 71
_symmetry_cell_setting 'orthorhombic'
loop_
_space_group_symop_operation_xyz
x,y,z
-x,-y,z
x,-y,-z
-x,y,-z
-x,-y,-z
x,y,-z
-x,y,z
x,-y,z
1/2+x,1/2+y,1/2+z
1/2-x,1/2-y,1/2+z
1/2+x,1/2-y,1/2-z
1/2-x,1/2+y,1/2-z
1/2-x,1/2-y,1/2-z
1/2+x,1/2+y,1/2-z
1/2-x,1/2+y,1/2+z
1/2+x,1/2-y,1/2+z
loop_
_atom_site_type_symbol
_atom_site_label
_atom_site_fract_x
_atom_site_fract_y
_atom_site_fract_z
Si Si1 0.547949 0.308821 0.580663
Si Si2 0.640693 0.809701 0.577355
Si Si3 0.115358 0.301905 0.579844
Si Si4 0.949789 0.000000 0.419874
Si Si5 0.304359 0.807713 0.826902
Si Si6 0.206147 0.808621 0.815940
O O1 0.545945 0.298736 0.500000
O O2 0.500000 0.240420 0.609349
O O3 0.555033 0.500000 0.605087
O O4 0.590093 0.201151 0.607107
O O5 0.641768 0.743007 0.500000
O O6 0.673946 0.694018 0.619526
O O7 0.657618 0.000000 0.582733
O O8 0.126525 0.283052 0.500000
O O9 0.103328 0.500000 0.596561
O O10 0.075388 0.174321 0.601720
O O11 0.158185 0.232261 0.622578
O O12 0.954119 0.000000 0.500000
O O13 0.000000 0.000000 0.387618
O O14 0.254536 0.726259 0.835373
O O15 0.317517 0.786753 0.747287
O O16 0.301578 0.000000 0.848516
O O17 0.214057 0.000000 0.792779
#
# Coordination Sequence:
#
# PCOD8289800 Si02
#       6
#    16  16  16   8  16  16
#     4   8  14  26  45  67  90 119 157 200 245 294
#     4  10  20  32  46  69 101 132 166 209 256 304
#     4   9  18  33  54  81 111 143 178 218 266 316
#     4   9  18  32  52  82 114 142 177 219 266 324
#     4   9  19  35  53  74 102 134 172 213 253 310
#     4  10  20  33  52  74  98 134 174 213 259 310
#
# _framework density 18.901859999999999
#
# number of rings (size 3 to 8) (size 9 to 14) (size 15 to 20)
#    0.000    2.818    0.000    1.636    1.273    3.273 
#    0.000    5.455    0.000    1.091    0.000    2.545 
#    0.000    0.000    0.000    0.000    0.000    0.000 
#
# Total GULP energy -545109.137913 kJ/mol
# GULP energy per Si atom -12388.844043 kJ/mol
# Density = 1.885884 g / cm^3
# Si number density = 18.901860 Si / 1000 Ang^3
#
#
#
# Elastic Constant Matrix: (Units=GPa)
#
#
# Indices 1 2 3 4 5 6 
#
# 1 147.9378 42.1110 63.6215 0.0000 0.0000 0.0000
# 2 42.1110 60.5534 18.6993 0.0000 0.0000 0.0000
# 3 63.6215 18.6993 62.6872 0.0000 0.0000 0.0000
# 4 0.0000 0.0000 0.0000 19.7352 0.0000 0.0000
# 5 0.0000 0.0000 0.0000 0.0000 9.5419 0.0000
# 6 0.0000 0.0000 0.0000 0.0000 0.0000 24.7888
#
#
#
# Elastic Compliance Matrix: (Units=1/GPa)
#
#
# Indices 1 2 3 4 5 6 
#
# 1 0.013581 -0.005715 -0.012078 0.000000 0.000000 0.000000
# 2 -0.005715 0.020595 -0.000344 0.000000 0.000000 0.000000
# 3 -0.012078 -0.000344 0.028313 0.000000 0.000000 0.000000
# 4 0.000000 0.000000 0.000000 0.050671 0.000000 0.000000
# 5 0.000000 0.000000 0.000000 0.000000 0.104801 0.000000
# 6 0.000000 0.000000 0.000000 0.000000 0.000000 0.040341
#
#
# Mechanical properties :
#
#
# Convention : Reuss Voigt Hill
#
# Bulk Modulus (GPa) = 38.14563 57.78242 47.96402
# Shear Modulus (GPa) = 16.48467 20.59629 18.54048
#
# Velocity S-wave (km/s) = 2.95637 3.30456 3.13530
# Velocity P-wave (km/s) = 5.64608 6.72281 6.20783
#
# Compressibility (1/GPa) = 0.02621533
#
# Stress axis : x y z
#
# Youngs Moduli (GPa) = 73.63409 48.55651 35.31929
#
# Poissons Ratio (x) = 0.27748 0.42660
# Poissons Ratio (y) = 0.42079 0.01213
# Poissons Ratio (z) = 0.88938 0.01668
#
# Static dielectric constant tensor:
#      x y z
#    x 4.387430 0.000000 0.000000 
#    y 0.000000 3.406920 0.000000 
#    z 0.000000 0.000000 3.102790 
# 
# 
# High freq. dielectric constant tensor:
#      x y z
#    x 1.739720 0.000000 0.000000 
#    y 0.000000 1.730740 0.000000 
#    z 0.000000 0.000000 1.690550 
# 
# From -- ./inp_files/8864.got.cif
#   From: 2010.06.25/outbox.cif.g09.slc.cpg/sg71_5_cif.got.tgz:8864.got - 2010.06.28 04:59:45.
