data_PCOD8289952
_publ_section_title
;
Structure prediction by ZEFSAII (Michael W. Deem and Ramdas Pophale) SiO2 
 PCOD8289952
Probable space group: I M M M
;
_chemical_formula_sum "Si O2"
_cell_formula_units_Z 88
_cell_length_a 16.770568
_cell_length_b 30.374500
_cell_length_c 9.046340
_cell_angle_alpha 90.000000
_cell_angle_beta 90.000000
_cell_angle_gamma 90.000000
_cell_volume 4608.184045
_symmetry_space_group_name_H-M "I M M M"
_symmetry_group_IT_number 71
_symmetry_cell_setting 'orthorhombic'
loop_
_space_group_symop_operation_xyz
x,y,z
-x,-y,z
x,-y,-z
-x,y,-z
-x,-y,-z
x,y,-z
-x,y,z
x,-y,z
1/2+x,1/2+y,1/2+z
1/2-x,1/2-y,1/2+z
1/2+x,1/2-y,1/2-z
1/2-x,1/2+y,1/2-z
1/2-x,1/2-y,1/2-z
1/2+x,1/2+y,1/2-z
1/2-x,1/2+y,1/2+z
1/2+x,1/2-y,1/2+z
loop_
_atom_site_type_symbol
_atom_site_label
_atom_site_fract_x
_atom_site_fract_y
_atom_site_fract_z
Si Si1 0.000000 0.450100 0.825584
Si Si2 0.907065 0.204824 0.825859
Si Si3 0.590553 0.209606 0.161489
Si Si4 0.810801 0.871886 0.326212
Si Si5 0.126338 0.621598 0.172643
Si Si6 0.411206 0.547961 0.824249
O O1 0.079172 0.422668 0.776036
O O2 0.000000 0.500000 0.756405
O O3 0.000000 0.455275 0.000000
O O4 0.874535 0.251441 0.763379
O O5 0.847057 0.169445 0.757840
O O6 0.000000 0.194944 0.784857
O O7 0.895816 0.205769 0.000000
O O8 0.500000 0.222244 0.134493
O O9 0.592868 0.162984 0.240795
O O10 0.633720 0.207980 0.000000
O O11 0.825296 0.864781 0.500000
O O12 0.719205 0.881325 0.289646
O O13 0.854104 0.914794 0.260735
O O14 0.110847 0.629595 0.000000
O O15 0.500000 0.557047 0.764697
O O16 0.381536 0.500000 0.769346
O O17 0.410772 0.549108 0.000000
#
# Coordination Sequence:
#
# PCOD8289952 Si02
#       6
#     8  16  16  16  16  16
#     4   9  18  34  57  83 111 145 185 229 278 331
#     4  10  21  36  55  79 108 144 180 218 269 324
#     4  10  20  35  57  80 103 137 182 226 269 321
#     4  10  20  32  50  79 111 143 180 223 268 318
#     4  10  20  34  54  79 109 144 179 220 273 325
#     4   8  14  26  46  72 102 136 172 213 260 306
#
# _framework density 19.096458999999999
#
# number of rings (size 3 to 8) (size 9 to 14) (size 15 to 20)
#    0.000    2.455    0.909    2.182    0.000    4.727 
#    0.000    3.636    0.000    1.636    0.000    5.091 
#    0.000    0.000    0.000    0.000    0.000    0.000 
#
# Total GULP energy -545286.293664 kJ/mol
# GULP energy per Si atom -12392.870311 kJ/mol
# Density = 1.905299 g / cm^3
# Si number density = 19.096459 Si / 1000 Ang^3
#
#
#
# Elastic Constant Matrix: (Units=GPa)
#
#
# Indices 1 2 3 4 5 6 
#
# 1 94.0694 74.7811 40.7087 -0.0004 -0.0010 -0.0002
# 2 74.7811 185.7164 52.9056 -0.0007 0.0004 -0.0008
# 3 40.7087 52.9056 60.2009 0.0023 -0.0002 -0.0047
# 4 -0.0004 -0.0007 0.0023 21.2783 0.0002 -0.0015
# 5 -0.0010 0.0004 -0.0002 0.0002 17.3692 -0.0009
# 6 -0.0002 -0.0008 -0.0047 -0.0015 -0.0009 0.1124
#
#
#
# Elastic Compliance Matrix: (Units=1/GPa)
#
#
# Indices 1 2 3 4 5 6 
#
# 1 0.017981 -0.005038 -0.007732 0.000001 0.000001 -0.000321
# 2 -0.005038 0.008594 -0.004146 0.000001 -0.000001 -0.000124
# 3 -0.007732 -0.004146 0.025483 -0.000003 0.000000 0.001021
# 4 0.000001 0.000001 -0.000003 0.046996 -0.000001 0.000624
# 5 0.000001 -0.000001 0.000000 -0.000001 0.057573 0.000475
# 6 -0.000321 -0.000124 0.001021 0.000624 0.000475 8.895987
#
#
# Mechanical properties :
#
#
# Convention : Reuss Voigt Hill
#
# Bulk Modulus (GPa) = 54.86349 75.19750 65.03050
# Shear Modulus (GPa) = 0.54990 19.19142 9.87066
#
# Velocity S-wave (km/s) = 0.53720 3.17357 2.27598
# Velocity P-wave (km/s) = 5.40156 7.27268 6.40581
#
# Compressibility (1/GPa) = 0.01822706
#
# Stress axis : x y z
#
# Youngs Moduli (GPa) = 55.61343 116.35760 39.24144
#
# Poissons Ratio (x) = 0.58618 0.30341
# Poissons Ratio (y) = 0.28017 0.16270
# Poissons Ratio (z) = 0.43000 0.48243
#
# Static dielectric constant tensor:
#      x y z
#    x 3.574290 0.000000 -0.000010 
#    y 0.000000 3.831290 -0.000020 
#    z -0.000010 -0.000020 3.311830 
# 
# 
# High freq. dielectric constant tensor:
#      x y z
#    x 1.736150 0.000000 0.000000 
#    y 0.000000 1.753990 0.000000 
#    z 0.000000 0.000000 1.711670 
# 
# From -- ./inp_files/8855.got.cif
#   From: 2010.06.25/outbox.cif.g09.slc.cpg/sg71_5_cif.got.tgz:8855.got - 2010.06.28 04:59:45.
