data_PCOD8289613
_publ_section_title
;
Structure prediction by ZEFSAII (Michael W. Deem and Ramdas Pophale) SiO2 
 PCOD8289613
Probable space group: I M M M
;
_chemical_formula_sum "Si O2"
_cell_formula_units_Z 72
_cell_length_a 14.657838
_cell_length_b 23.673739
_cell_length_c 11.318529
_cell_angle_alpha 90.000000
_cell_angle_beta 90.000000
_cell_angle_gamma 90.000000
_cell_volume 3927.595563
_symmetry_space_group_name_H-M "I M M M"
_symmetry_group_IT_number 71
_symmetry_cell_setting 'orthorhombic'
loop_
_space_group_symop_operation_xyz
x,y,z
-x,-y,z
x,-y,-z
-x,y,-z
-x,-y,-z
x,y,-z
-x,y,z
x,-y,z
1/2+x,1/2+y,1/2+z
1/2-x,1/2-y,1/2+z
1/2+x,1/2-y,1/2-z
1/2-x,1/2+y,1/2-z
1/2-x,1/2-y,1/2-z
1/2+x,1/2+y,1/2-z
1/2-x,1/2+y,1/2+z
1/2+x,1/2-y,1/2+z
loop_
_atom_site_type_symbol
_atom_site_label
_atom_site_fract_x
_atom_site_fract_y
_atom_site_fract_z
Si Si1 0.601866 0.366520 0.865499
Si Si2 0.315702 0.246390 0.863709
Si Si3 0.896986 0.567134 0.000000
Si Si4 0.729889 0.066058 0.288496
Si Si5 0.098493 0.373193 0.364540
O O1 0.500000 0.379169 0.817719
O O2 0.618236 0.299911 0.856524
O O3 0.673943 0.401781 0.789004
O O4 0.611166 0.387470 0.000000
O O5 0.250000 0.250000 0.750000
O O6 0.374302 0.191047 0.839365
O O7 0.272476 0.244250 0.000000
O O8 0.838814 0.588957 0.889147
O O9 0.902896 0.500000 0.000000
O O10 0.000000 0.592484 0.000000
O O11 0.676667 0.082308 0.170522
O O12 0.749680 0.000000 0.298124
O O13 0.084537 0.384112 0.500000
O O14 0.000000 0.384869 0.301720
#
# Coordination Sequence:
#
# PCOD8289613 Si02
#       5
#    16  16   8  16  16
#     4  10  20  35  57  83 112 147 189 234 279 334
#     4  10  19  35  60  86 113 146 187 235 289 344
#     4   9  18  32  49  73 107 143 178 224 280 329
#     4  11  21  34  53  79 111 148 188 229 276 330
#     4  10  21  37  58  82 109 145 187 230 279 339
#
# _framework density 18.331827000000001
#
# number of rings (size 3 to 8) (size 9 to 14) (size 15 to 20)
#    0.000    1.889    3.333    1.333    0.000    4.889 
#    0.000    2.222    0.000    4.000    0.000    1.556 
#    0.000    0.000    0.000    0.000    0.000    0.000 
#
# Total GULP energy -446062.111083 kJ/mol
# GULP energy per Si atom -12390.614197 kJ/mol
# Density = 1.829010 g / cm^3
# Si number density = 18.331827 Si / 1000 Ang^3
#
#
#
# Elastic Constant Matrix: (Units=GPa)
#
#
# Indices 1 2 3 4 5 6 
#
# 1 142.9310 24.2784 42.6535 0.0005 -0.0004 -0.0001
# 2 24.2784 52.5280 8.6979 0.0007 -0.0005 -0.0002
# 3 42.6535 8.6979 60.2510 -0.0034 0.0011 0.0002
# 4 0.0005 0.0007 -0.0034 23.9333 0.0006 0.0001
# 5 -0.0004 -0.0005 0.0011 0.0006 24.9263 0.0000
# 6 -0.0001 -0.0002 0.0002 0.0001 0.0000 21.5743
#
#
#
# Elastic Compliance Matrix: (Units=1/GPa)
#
#
# Indices 1 2 3 4 5 6 
#
# 1 0.009405 -0.003324 -0.006178 -0.000001 0.000000 0.000000
# 2 -0.003324 0.020678 -0.000632 -0.000001 0.000000 0.000000
# 3 -0.006178 -0.000632 0.021062 0.000003 -0.000001 0.000000
# 4 -0.000001 -0.000001 0.000003 0.041783 -0.000001 0.000000
# 5 0.000000 0.000000 -0.000001 -0.000001 0.040118 0.000000
# 6 0.000000 0.000000 0.000000 0.000000 0.000000 0.046351
#
#
# Mechanical properties :
#
#
# Convention : Reuss Voigt Hill
#
# Bulk Modulus (GPa) = 32.38630 45.21884 38.80257
# Shear Modulus (GPa) = 23.81431 26.09213 24.95322
#
# Velocity S-wave (km/s) = 3.60817 3.77679 3.69344
# Velocity P-wave (km/s) = 5.92145 6.61357 6.27705
#
# Compressibility (1/GPa) = 0.03087725
#
# Stress axis : x y z
#
# Youngs Moduli (GPa) = 106.33095 48.35965 47.47875
#
# Poissons Ratio (x) = 0.16074 0.29332
# Poissons Ratio (y) = 0.35342 0.03001
# Poissons Ratio (z) = 0.65691 0.03057
#
# Static dielectric constant tensor:
#      x y z
#    x 3.381960 0.000000 -0.000010 
#    y 0.000000 3.284340 0.000000 
#    z -0.000010 0.000000 3.503720 
# 
# 
# High freq. dielectric constant tensor:
#      x y z
#    x 1.712150 0.000000 0.000000 
#    y 0.000000 1.707100 0.000000 
#    z 0.000000 0.000000 1.696950 
# 
# From -- ./inp_files/19872.got.cif
#   From: 2010.06.25/outbox.cif.g09.slc.cpg/sg71_10_cif.got.tgz:19872.got - 2010.06.28 04:59:45.
