data_PCOD8289398
_publ_section_title
;
Structure prediction by ZEFSAII (Michael W. Deem and Ramdas Pophale) SiO2 
 PCOD8289398
Probable space group: I M M M
;
_chemical_formula_sum "Si O2"
_cell_formula_units_Z 72
_cell_length_a 9.325161
_cell_length_b 22.544987
_cell_length_c 19.096354
_cell_angle_alpha 90.000000
_cell_angle_beta 90.000000
_cell_angle_gamma 90.000000
_cell_volume 4014.734081
_symmetry_space_group_name_H-M "I M M M"
_symmetry_group_IT_number 71
_symmetry_cell_setting 'orthorhombic'
loop_
_space_group_symop_operation_xyz
x,y,z
-x,-y,z
x,-y,-z
-x,y,-z
-x,-y,-z
x,y,-z
-x,y,z
x,-y,z
1/2+x,1/2+y,1/2+z
1/2-x,1/2-y,1/2+z
1/2+x,1/2-y,1/2-z
1/2-x,1/2+y,1/2-z
1/2-x,1/2-y,1/2-z
1/2+x,1/2+y,1/2-z
1/2-x,1/2+y,1/2+z
1/2+x,1/2-y,1/2+z
loop_
_atom_site_type_symbol
_atom_site_label
_atom_site_fract_x
_atom_site_fract_y
_atom_site_fract_z
Si Si1 0.162875 0.500000 0.582654
Si Si2 0.168023 0.103348 0.154760
Si Si3 0.830462 0.066226 0.308378
Si Si4 0.334531 0.723558 0.419856
Si Si5 0.831445 0.840332 0.580024
O O1 0.166351 0.500000 0.500000
O O2 0.242977 0.441805 0.608513
O O3 0.000000 0.500000 0.610841
O O4 0.214044 0.096502 0.235421
O O5 0.207772 0.169317 0.130213
O O6 0.000000 0.089768 0.143728
O O7 0.771504 0.106279 0.371999
O O8 0.000000 0.061500 0.313815
O O9 0.763736 0.000000 0.313446
O O10 0.299572 0.705905 0.500000
O O11 0.500000 0.740717 0.411246
O O12 0.242216 0.779655 0.395593
O O13 0.791960 0.855870 0.500000
O O14 0.000000 0.831597 0.590329
#
# Coordination Sequence:
#
# PCOD8289398 Si02
#       5
#     8  16  16  16  16
#     4  11  23  35  49  75 108 137 166 206 253 297
#     4  10  19  34  55  75  98 135 176 210 247 296
#     4   9  17  31  52  76 101 130 169 217 255 292
#     4   9  18  32  50  73 100 130 168 211 251 298
#     4   9  18  32  51  75 102 133 168 208 259 310
#
# _framework density 17.933941000000001
#
# number of rings (size 3 to 8) (size 9 to 14) (size 15 to 20)
#    0.000    2.556    1.111    1.000    0.000    4.000 
#    0.000    5.556    0.000    0.000    0.000    3.111 
#    0.000    0.000    0.000    0.000    0.000    0.000 
#
# Total GULP energy -446425.517041 kJ/mol
# GULP energy per Si atom -12400.708807 kJ/mol
# Density = 1.789312 g / cm^3
# Si number density = 17.933941 Si / 1000 Ang^3
#
#
#
# Elastic Constant Matrix: (Units=GPa)
#
#
# Indices 1 2 3 4 5 6 
#
# 1 42.0024 46.7024 36.1005 0.0000 0.0000 0.0000
# 2 46.7024 172.0883 98.0677 0.0001 0.0000 0.0000
# 3 36.1005 98.0677 113.3293 0.0005 0.0000 0.0000
# 4 0.0000 0.0001 0.0005 163.2661 0.0000 0.0000
# 5 0.0000 0.0000 0.0000 0.0000 16.2852 0.0000
# 6 0.0000 0.0000 0.0000 0.0000 0.0000 20.1268
#
#
#
# Elastic Compliance Matrix: (Units=1/GPa)
#
#
# Indices 1 2 3 4 5 6 
#
# 1 0.036021 -0.006386 -0.005949 0.000000 0.000000 0.000000
# 2 -0.006386 0.012596 -0.008866 0.000000 0.000000 0.000000
# 3 -0.005949 -0.008866 0.018391 0.000000 0.000000 0.000000
# 4 0.000000 0.000000 0.000000 0.006125 0.000000 0.000000
# 5 0.000000 0.000000 0.000000 0.000000 0.061406 0.000000
# 6 0.000000 0.000000 0.000000 0.000000 0.000000 0.049685
#
#
# Mechanical properties :
#
#
# Convention : Reuss Voigt Hill
#
# Bulk Modulus (GPa) = 40.63754 76.57346 58.60550
# Shear Modulus (GPa) = 21.29229 49.70558 35.49894
#
# Velocity S-wave (km/s) = 3.44941 5.27030 4.45390
# Velocity P-wave (km/s) = 6.21074 8.93448 7.69410
#
# Compressibility (1/GPa) = 0.02460779
#
# Stress axis : x y z
#
# Youngs Moduli (GPa) = 27.76147 79.38787 54.37531
#
# Poissons Ratio (x) = 0.50695 0.32345
# Poissons Ratio (y) = 0.17728 0.48209
# Poissons Ratio (z) = 0.16514 0.70385
#
# Static dielectric constant tensor:
#      x y z
#    x 3.114510 0.000000 0.000000 
#    y 0.000000 3.528870 0.000000 
#    z 0.000000 0.000000 3.439600 
# 
# 
# High freq. dielectric constant tensor:
#      x y z
#    x 1.665670 0.000000 0.000000 
#    y 0.000000 1.701670 0.000000 
#    z 0.000000 0.000000 1.698230 
# 
# From -- ./inp_files/7894.got.cif
#   From: 2010.06.25/outbox.cif.g09.slc.cpg/sg71_4_cif.got.tgz:7894.got - 2010.06.28 04:59:45.
