data_PCOD8289642
_publ_section_title
;
Structure prediction by ZEFSAII (Michael W. Deem and Ramdas Pophale) SiO2 
 PCOD8289642
Probable space group: I M M M
;
_chemical_formula_sum "Si O2"
_cell_formula_units_Z 88
_cell_length_a 28.887068
_cell_length_b 8.938352
_cell_length_c 18.251815
_cell_angle_alpha 90.000000
_cell_angle_beta 90.000000
_cell_angle_gamma 90.000000
_cell_volume 4712.669410
_symmetry_space_group_name_H-M "I M M M"
_symmetry_group_IT_number 71
_symmetry_cell_setting 'orthorhombic'
loop_
_space_group_symop_operation_xyz
x,y,z
-x,-y,z
x,-y,-z
-x,y,-z
-x,-y,-z
x,y,-z
-x,y,z
x,-y,z
1/2+x,1/2+y,1/2+z
1/2-x,1/2-y,1/2+z
1/2+x,1/2-y,1/2-z
1/2-x,1/2+y,1/2-z
1/2-x,1/2-y,1/2-z
1/2+x,1/2+y,1/2-z
1/2-x,1/2+y,1/2+z
1/2+x,1/2-y,1/2+z
loop_
_atom_site_type_symbol
_atom_site_label
_atom_site_fract_x
_atom_site_fract_y
_atom_site_fract_z
Si Si1 0.617641 0.677316 0.706738
Si Si2 0.287223 0.668009 0.913964
Si Si3 0.551874 0.322031 0.418815
Si Si4 0.721198 0.676666 0.313964
Si Si5 0.111083 0.823384 0.628725
Si Si6 0.446156 0.176380 0.000000
O O1 0.618489 0.500000 0.700336
O O2 0.584372 0.747454 0.644429
O O3 0.669025 0.738920 0.691049
O O4 0.598918 0.721932 0.787507
O O5 0.278907 0.500000 0.883881
O O6 0.244977 0.773645 0.889749
O O7 0.336118 0.728700 0.883921
O O8 0.289492 0.670195 0.000000
O O9 0.569234 0.272461 0.500000
O O10 0.500000 0.261918 0.405675
O O11 0.552177 0.500000 0.413928
O O12 0.722213 0.500000 0.306312
O O13 0.750000 0.750000 0.250000
O O14 0.076750 0.740838 0.573534
O O15 0.106312 0.000000 0.614527
O O16 0.500000 0.221364 0.000000
O O17 0.439049 0.000000 0.000000
#
# Coordination Sequence:
#
# PCOD8289642 Si02
#       6
#    16  16  16  16  16   8
#     4   9  18  31  50  77 108 138 176 227 267 311
#     4  10  20  36  55  76 106 142 183 231 275 321
#     4   8  14  26  45  70 102 137 167 204 263 320
#     4  11  21  34  52  77 110 144 180 221 269 326
#     4  10  19  36  58  78 102 140 188 230 275 324
#     4  11  25  41  55  79 115 145 179 233 288 337
#
# _framework density 18.673068000000001
#
# number of rings (size 3 to 8) (size 9 to 14) (size 15 to 20)
#    0.000    2.273    2.727    1.364    0.000    3.273 
#    0.000    3.636    0.000    0.000    0.000    0.000 
#    0.000    0.000    0.000   18.000    0.000   15.636 
#
# Total GULP energy -545477.814975 kJ/mol
# GULP energy per Si atom -12397.223068 kJ/mol
# Density = 1.863057 g / cm^3
# Si number density = 18.673068 Si / 1000 Ang^3
#
#
#
# Elastic Constant Matrix: (Units=GPa)
#
#
# Indices 1 2 3 4 5 6 
#
# 1 136.7749 33.0488 94.7064 0.0000 0.0000 0.0000
# 2 33.0488 39.1815 28.5432 0.0000 0.0000 0.0000
# 3 94.7064 28.5432 153.0352 0.0000 0.0000 0.0000
# 4 0.0000 0.0000 0.0000 22.4500 0.0000 0.0000
# 5 0.0000 0.0000 0.0000 0.0000 39.6971 0.0000
# 6 0.0000 0.0000 0.0000 0.0000 0.0000 23.3760
#
#
#
# Elastic Compliance Matrix: (Units=1/GPa)
#
#
# Indices 1 2 3 4 5 6 
#
# 1 0.014050 -0.006384 -0.007504 0.000000 0.000000 0.000000
# 2 -0.006384 0.032436 -0.002099 0.000000 0.000000 0.000000
# 3 -0.007504 -0.002099 0.011570 0.000000 0.000000 0.000000
# 4 0.000000 0.000000 0.000000 0.044543 0.000000 0.000000
# 5 0.000000 0.000000 0.000000 0.000000 0.025191 0.000000
# 6 0.000000 0.000000 0.000000 0.000000 0.000000 0.042779
#
#
# Mechanical properties :
#
#
# Convention : Reuss Voigt Hill
#
# Bulk Modulus (GPa) = 38.34125 71.28759 54.81442
# Shear Modulus (GPa) = 23.67005 28.61750 26.14378
#
# Velocity S-wave (km/s) = 3.56420 3.91903 3.74582
# Velocity P-wave (km/s) = 6.12499 7.66407 6.93735
#
# Compressibility (1/GPa) = 0.02608157
#
# Stress axis : x y z
#
# Youngs Moduli (GPa) = 71.17480 30.82972 86.43143
#
# Poissons Ratio (x) = 0.19682 0.64859
# Poissons Ratio (y) = 0.45439 0.18141
# Poissons Ratio (z) = 0.53410 0.06471
#
# Static dielectric constant tensor:
#      x y z
#    x 5.057030 0.000000 0.000000 
#    y 0.000000 3.703460 0.000000 
#    z 0.000000 0.000000 3.805640 
# 
# 
# High freq. dielectric constant tensor:
#      x y z
#    x 1.725640 0.000000 0.000000 
#    y 0.000000 1.680490 0.000000 
#    z 0.000000 0.000000 1.742080 
# 
# From -- ./inp_files/49243.got.cif
#   From: 2010.06.25/outbox.cif.g09.slc.cpg/sg71_25_cif.got.tgz:49243.got - 2010.06.28 04:59:45.
