data_PCOD8289102
_publ_section_title
;
Structure prediction by ZEFSAII (Michael W. Deem and Ramdas Pophale) SiO2 
 PCOD8289102
Probable space group: I M M M
;
_chemical_formula_sum "Si O2"
_cell_formula_units_Z 104
_cell_length_a 26.340777
_cell_length_b 13.432057
_cell_length_c 17.845583
_cell_angle_alpha 90.000000
_cell_angle_beta 90.000000
_cell_angle_gamma 90.000000
_cell_volume 6313.960320
_symmetry_space_group_name_H-M "I M M M"
_symmetry_group_IT_number 71
_symmetry_cell_setting 'orthorhombic'
loop_
_space_group_symop_operation_xyz
x,y,z
-x,-y,z
x,-y,-z
-x,y,-z
-x,-y,-z
x,y,-z
-x,y,z
x,-y,z
1/2+x,1/2+y,1/2+z
1/2-x,1/2-y,1/2+z
1/2+x,1/2-y,1/2-z
1/2-x,1/2+y,1/2-z
1/2-x,1/2-y,1/2-z
1/2+x,1/2+y,1/2-z
1/2-x,1/2+y,1/2+z
1/2+x,1/2-y,1/2+z
loop_
_atom_site_type_symbol
_atom_site_label
_atom_site_fract_x
_atom_site_fract_y
_atom_site_fract_z
Si Si1 0.630415 0.803443 0.204449
Si Si2 0.736858 0.112071 0.160322
Si Si3 0.058941 0.385818 0.415114
Si Si4 0.733808 0.805159 0.586352
Si Si5 0.809224 0.887953 0.699997
Si Si6 0.626410 0.881697 0.637143
Si Si7 0.557237 0.881874 0.500000
O O1 0.678880 0.869129 0.182306
O O2 0.588544 0.813212 0.140209
O O3 0.643748 0.686619 0.210467
O O4 0.606897 0.843276 0.282412
O O5 0.756057 0.187263 0.096371
O O6 0.769497 0.131001 0.234117
O O7 0.742912 0.000000 0.129609
O O8 0.077540 0.366376 0.500000
O O9 0.069491 0.500000 0.392718
O O10 0.000000 0.360715 0.407972
O O11 0.732153 0.833879 0.500000
O O12 0.779669 0.867006 0.622885
O O13 0.680970 0.833733 0.623780
O O14 0.830721 0.000000 0.700125
O O15 0.586785 0.844522 0.574057
O O16 0.631621 0.000000 0.636188
O O17 0.500000 0.837767 0.500000
O O18 0.554935 0.000000 0.500000
#
# Coordination Sequence:
#
# PCOD8289102 Si02
#       7
#    16  16  16  16  16  16   8
#     4  11  19  32  53  78  98 129 170 207 247 298
#     4  10  19  33  50  71 103 135 166 207 248 287
#     4   9  19  35  53  75 103 131 160 201 255 307
#     4  11  20  31  47  71 101 135 173 199 237 299
#     4  10  20  34  50  70 102 137 168 204 242 288
#     4  11  19  29  48  71  97 131 168 202 243 298
#     4   9  20  34  46  68 103 135 163 207 255 292
#
# _framework density 16.471437000000002
#
# number of rings (size 3 to 8) (size 9 to 14) (size 15 to 20)
#    0.000    1.769    3.846    3.231    0.000    4.308 
#    0.000    1.538    0.000    0.462    0.000    1.077 
#    0.000    3.077    0.000    0.000    0.000    0.000 
#
# Total GULP energy -644892.344394 kJ/mol
# GULP energy per Si atom -12401.775854 kJ/mol
# Density = 1.643395 g / cm^3
# Si number density = 16.471437 Si / 1000 Ang^3
#
#
#
# Elastic Constant Matrix: (Units=GPa)
#
#
# Indices 1 2 3 4 5 6 
#
# 1 66.9658 36.4524 38.5704 0.0000 0.0000 0.0000
# 2 36.4524 76.6388 17.3990 0.0000 0.0000 0.0000
# 3 38.5704 17.3990 87.6305 0.0000 0.0000 0.0000
# 4 0.0000 0.0000 0.0000 19.1721 0.0000 0.0000
# 5 0.0000 0.0000 0.0000 0.0000 30.8679 0.0000
# 6 0.0000 0.0000 0.0000 0.0000 0.0000 8.5843
#
#
#
# Elastic Compliance Matrix: (Units=1/GPa)
#
#
# Indices 1 2 3 4 5 6 
#
# 1 0.025866 -0.010177 -0.009364 0.000000 0.000000 0.000000
# 2 -0.010177 0.017668 0.000971 0.000000 0.000000 0.000000
# 3 -0.009364 0.000971 0.015340 0.000000 0.000000 0.000000
# 4 0.000000 0.000000 0.000000 0.052159 0.000000 0.000000
# 5 0.000000 0.000000 0.000000 0.000000 0.032396 0.000000
# 6 0.000000 0.000000 0.000000 0.000000 0.000000 0.116492
#
#
# Mechanical properties :
#
#
# Convention : Reuss Voigt Hill
#
# Bulk Modulus (GPa) = 46.00889 46.23096 46.11992
# Shear Modulus (GPa) = 16.43075 20.97908 18.70492
#
# Velocity S-wave (km/s) = 3.16180 3.57272 3.37352
# Velocity P-wave (km/s) = 6.42825 6.71918 6.57532
#
# Compressibility (1/GPa) = 0.02173493
#
# Stress axis : x y z
#
# Youngs Moduli (GPa) = 38.66005 56.59844 65.18734
#
# Poissons Ratio (x) = 0.57601 0.61044
# Poissons Ratio (y) = 0.39345 -0.06332
# Poissons Ratio (z) = 0.36203 -0.05498
#
# Static dielectric constant tensor:
#      x y z
#    x 2.976710 0.000000 0.000000 
#    y 0.000000 3.079430 0.000000 
#    z 0.000000 0.000000 3.173990 
# 
# 
# High freq. dielectric constant tensor:
#      x y z
#    x 1.613340 0.000000 0.000000 
#    y 0.000000 1.620030 0.000000 
#    z 0.000000 0.000000 1.642470 
# 
# From -- ./inp_files/36935.got.cif
#   From: 2010.06.25/outbox.cif.g09.slc.cpg/sg71_19_cif.got.tgz:36935.got - 2010.06.28 04:59:45.
