data_PCOD8289171
_publ_section_title
;
Structure prediction by ZEFSAII (Michael W. Deem and Ramdas Pophale) SiO2 
 PCOD8289171
Probable space group: I M M M
;
_chemical_formula_sum "Si O2"
_cell_formula_units_Z 104
_cell_length_a 12.401662
_cell_length_b 18.852607
_cell_length_c 25.381991
_cell_angle_alpha 90.000000
_cell_angle_beta 90.000000
_cell_angle_gamma 90.000000
_cell_volume 5934.402390
_symmetry_space_group_name_H-M "I M M M"
_symmetry_group_IT_number 71
_symmetry_cell_setting 'orthorhombic'
loop_
_space_group_symop_operation_xyz
x,y,z
-x,-y,z
x,-y,-z
-x,y,-z
-x,-y,-z
x,y,-z
-x,y,z
x,-y,z
1/2+x,1/2+y,1/2+z
1/2-x,1/2-y,1/2+z
1/2+x,1/2-y,1/2-z
1/2-x,1/2+y,1/2-z
1/2-x,1/2-y,1/2-z
1/2+x,1/2+y,1/2-z
1/2-x,1/2+y,1/2+z
1/2+x,1/2-y,1/2+z
loop_
_atom_site_type_symbol
_atom_site_label
_atom_site_fract_x
_atom_site_fract_y
_atom_site_fract_z
Si Si1 0.624921 0.578883 0.862359
Si Si2 0.257192 0.640711 0.231653
Si Si3 0.376895 0.267131 0.688607
Si Si4 0.622999 0.701616 0.940383
Si Si5 0.623961 0.082254 0.825146
Si Si6 0.763951 0.831706 0.906298
Si Si7 0.626932 0.583740 0.500000
O O1 0.500000 0.590750 0.849625
O O2 0.645596 0.500000 0.885304
O O3 0.689527 0.585117 0.807873
O O4 0.664978 0.637020 0.904331
O O5 0.351680 0.675009 0.266633
O O6 0.199089 0.699803 0.196484
O O7 0.172007 0.600783 0.268285
O O8 0.500000 0.243477 0.693311
O O9 0.356381 0.299437 0.630929
O O10 0.500000 0.722599 0.925745
O O11 0.698726 0.769493 0.934624
O O12 0.629876 0.674116 0.000000
O O13 0.500000 0.105137 0.824189
O O14 0.680173 0.124170 0.871851
O O15 0.639464 0.000000 0.836864
O O16 0.820052 0.882522 0.948357
O O17 0.650244 0.500000 0.500000
O O18 0.500000 0.599835 0.500000
#
# Coordination Sequence:
#
# PCOD8289171 Si02
#       7
#    16  16  16  16  16  16   8
#     4  10  20  34  54  81 111 143 180 222 272 329
#     4  10  19  33  52  76 109 145 175 225 266 319
#     4  10  20  32  51  79 105 137 181 223 268 317
#     4  10  20  35  56  81 108 139 177 223 274 323
#     4  10  21  35  52  77 110 146 180 217 267 324
#     4  11  20  37  57  78 107 141 179 224 269 317
#     4  11  24  40  59  83 110 141 181 227 271 318
#
# _framework density 17.524932
#
# number of rings (size 3 to 8) (size 9 to 14) (size 15 to 20)
#    0.000    1.769    2.308    2.769    0.000    0.308 
#    0.000    1.538    0.000    9.231    0.000    0.000 
#    0.000    1.846    0.000    0.000    0.000    0.000 
#
# Total GULP energy -644914.326954 kJ/mol
# GULP energy per Si atom -12402.198595 kJ/mol
# Density = 1.748504 g / cm^3
# Si number density = 17.524932 Si / 1000 Ang^3
#
#
#
# Elastic Constant Matrix: (Units=GPa)
#
#
# Indices 1 2 3 4 5 6 
#
# 1 73.5019 38.0525 45.4503 0.0000 0.0000 0.0000
# 2 38.0525 87.1542 46.2047 0.0000 0.0000 0.0000
# 3 45.4503 46.2047 111.0311 0.0000 0.0000 0.0000
# 4 0.0000 0.0000 0.0000 29.3580 0.0000 0.0000
# 5 0.0000 0.0000 0.0000 0.0000 15.9431 0.0000
# 6 0.0000 0.0000 0.0000 0.0000 0.0000 17.1095
#
#
#
# Elastic Compliance Matrix: (Units=1/GPa)
#
#
# Indices 1 2 3 4 5 6 
#
# 1 0.020200 -0.005692 -0.005900 0.000000 0.000000 0.000000
# 2 -0.005692 0.016325 -0.004464 0.000000 0.000000 0.000000
# 3 -0.005900 -0.004464 0.013279 0.000000 0.000000 0.000000
# 4 0.000000 0.000000 0.000000 0.034062 0.000000 0.000000
# 5 0.000000 0.000000 0.000000 0.000000 0.062723 0.000000
# 6 0.000000 0.000000 0.000000 0.000000 0.000000 0.058447
#
#
# Mechanical properties :
#
#
# Convention : Reuss Voigt Hill
#
# Bulk Modulus (GPa) = 56.51834 59.01138 57.76486
# Shear Modulus (GPa) = 20.57217 21.94744 21.25980
#
# Velocity S-wave (km/s) = 3.42991 3.54270 3.48676
# Velocity P-wave (km/s) = 6.92863 7.10494 7.01734
#
# Compressibility (1/GPa) = 0.01769337
#
# Stress axis : x y z
#
# Youngs Moduli (GPa) = 49.50446 61.25408 75.30454
#
# Poissons Ratio (x) = 0.34863 0.44433
# Poissons Ratio (y) = 0.28176 0.33615
# Poissons Ratio (z) = 0.29210 0.27343
#
# Static dielectric constant tensor:
#      x y z
#    x 3.168970 0.000000 0.000000 
#    y 0.000000 3.271880 0.000000 
#    z 0.000000 0.000000 3.269460 
# 
# 
# High freq. dielectric constant tensor:
#      x y z
#    x 1.674190 0.000000 0.000000 
#    y 0.000000 1.682000 0.000000 
#    z 0.000000 0.000000 1.683570 
# 
# From -- ./inp_files/64646.got.cif
#   From: 2010.06.25/outbox.cif.g09.slc.cpg/sg71_33_cif.got.tgz:64646.got - 2010.06.28 04:59:45.
