data_PCOD8289356
_publ_section_title
;
Structure prediction by ZEFSAII (Michael W. Deem and Ramdas Pophale) SiO2 
 PCOD8289356
Probable space group: I M M M
;
_chemical_formula_sum "Si O2"
_cell_formula_units_Z 104
_cell_length_a 23.843799
_cell_length_b 31.439621
_cell_length_c 7.825940
_cell_angle_alpha 90.000000
_cell_angle_beta 90.000000
_cell_angle_gamma 90.000000
_cell_volume 5866.637691
_symmetry_space_group_name_H-M "I M M M"
_symmetry_group_IT_number 71
_symmetry_cell_setting 'orthorhombic'
loop_
_space_group_symop_operation_xyz
x,y,z
-x,-y,z
x,-y,-z
-x,y,-z
-x,-y,-z
x,y,-z
-x,y,z
x,-y,z
1/2+x,1/2+y,1/2+z
1/2-x,1/2-y,1/2+z
1/2+x,1/2-y,1/2-z
1/2-x,1/2+y,1/2-z
1/2-x,1/2-y,1/2-z
1/2+x,1/2+y,1/2-z
1/2-x,1/2+y,1/2+z
1/2+x,1/2-y,1/2+z
loop_
_atom_site_type_symbol
_atom_site_label
_atom_site_fract_x
_atom_site_fract_y
_atom_site_fract_z
Si Si1 0.150777 0.047663 0.702428
Si Si2 0.063381 0.116529 0.702853
Si Si3 0.566621 0.763837 0.000000
Si Si4 0.933971 0.500000 0.692658
Si Si5 0.226847 0.548317 0.698202
Si Si6 0.933165 0.638662 0.500000
Si Si7 0.616557 0.913789 0.309565
Si Si8 0.433387 0.291476 0.310947
O O1 0.150347 0.047350 0.500000
O O2 0.102219 0.078461 0.773254
O O3 0.210533 0.065080 0.767110
O O4 0.140051 0.000000 0.773966
O O5 0.065067 0.119576 0.500000
O O6 0.087547 0.160598 0.776976
O O7 0.000000 0.107813 0.766685
O O8 0.585688 0.812480 0.000000
O O9 0.591379 0.740791 0.169268
O O10 0.500000 0.760533 0.000000
O O11 0.909099 0.500000 0.500000
O O12 0.913326 0.541059 0.791747
O O13 0.000000 0.500000 0.686552
O O14 0.212690 0.549492 0.500000
O O15 0.220617 0.500000 0.768948
O O16 0.183350 0.579659 0.790807
O O17 0.907858 0.618499 0.670844
O O18 0.000000 0.632251 0.500000
O O19 0.604398 0.895817 0.500000
O O20 0.413542 0.276873 0.500000
O O21 0.500000 0.291350 0.297175
#
# Coordination Sequence:
#
# PCOD8289356 Si02
#       8
#    16  16   8   8  16   8  16  16
#     4   9  18  30  46  73 108 143 184 227 262 306
#     4   9  16  28  47  73 110 148 179 217 265 315
#     4   9  18  34  53  74 104 138 169 211 266 319
#     4  11  21  35  53  74 105 141 177 215 258 312
#     4  10  19  34  53  71  97 135 182 230 265 300
#     4  11  24  39  54  79 114 141 169 215 270 331
#     4  12  23  36  55  77 104 141 181 219 263 314
#     4   9  16  28  50  76 101 133 175 218 257 308
#
# _framework density 17.727360999999998
#
# number of rings (size 3 to 8) (size 9 to 14) (size 15 to 20)
#    0.000    2.077    3.077    1.154    0.000    3.692 
#    0.000    3.077    0.000    0.000    0.000    5.385 
#    0.000    0.000    0.000    0.000    0.000    0.000 
#
# Total GULP energy -644731.881055 kJ/mol
# GULP energy per Si atom -12398.690020 kJ/mol
# Density = 1.768701 g / cm^3
# Si number density = 17.727361 Si / 1000 Ang^3
#
#
#
# Elastic Constant Matrix: (Units=GPa)
#
#
# Indices 1 2 3 4 5 6 
#
# 1 84.0042 51.7195 33.1124 0.0000 0.0000 0.0000
# 2 51.7195 122.1485 59.0041 0.0000 0.0000 0.0000
# 3 33.1124 59.0041 111.8571 0.0000 0.0000 0.0000
# 4 0.0000 0.0000 0.0000 13.7211 0.0000 0.0000
# 5 0.0000 0.0000 0.0000 0.0000 19.5799 0.0000
# 6 0.0000 0.0000 0.0000 0.0000 0.0000 -2.8131
#
#
#
# Elastic Compliance Matrix: (Units=1/GPa)
#
#
# Indices 1 2 3 4 5 6 
#
# 1 0.016310 -0.006137 -0.001591 0.000000 0.000000 0.000000
# 2 -0.006137 0.013296 -0.005197 0.000000 0.000000 0.000000
# 3 -0.001591 -0.005197 0.012152 0.000000 0.000000 0.000000
# 4 0.000000 0.000000 0.000000 0.072880 0.000000 0.000000
# 5 0.000000 0.000000 0.000000 0.000000 0.051073 0.000000
# 6 0.000000 0.000000 0.000000 0.000000 0.000000 -0.355485
#
#
# Mechanical properties :
#
#
# Convention : Reuss Voigt Hill
#
# Bulk Modulus (GPa) = 62.86064 67.29798 65.07931
# Shear Modulus (GPa) = -31.52136 17.70919 -6.90608
#
# Velocity S-wave (km/s) = -4.22135 3.16409 -1.97590
# Velocity P-wave (km/s) = 3.43175 7.16895 5.62008
#
# Compressibility (1/GPa) = 0.01590820
#
# Stress axis : x y z
#
# Youngs Moduli (GPa) = 61.31261 75.21241 82.29099
#
# Poissons Ratio (x) = 0.46162 0.13089
# Poissons Ratio (y) = 0.37631 0.42763
# Poissons Ratio (z) = 0.09752 0.39085
#
# Static dielectric constant tensor:
#      x y z
#    x 3.194790 0.000000 0.000000 
#    y 0.000000 3.263280 0.000000 
#    z 0.000000 0.000000 3.399970 
# 
# 
# High freq. dielectric constant tensor:
#      x y z
#    x 1.658920 0.000000 0.000000 
#    y 0.000000 1.663400 0.000000 
#    z 0.000000 0.000000 1.696330 
# 
# From -- ./inp_files/13680.got.cif
#   From: 2010.06.25/outbox.cif.g09.slc.cpg/sg71_7_cif.got.tgz:13680.got - 2010.06.28 04:59:45.
