data_PCOD8289408
_publ_section_title
;
Structure prediction by ZEFSAII (Michael W. Deem and Ramdas Pophale) SiO2 
 PCOD8289408
Probable space group: I M M M
;
_chemical_formula_sum "Si O2"
_cell_formula_units_Z 96
_cell_length_a 8.894772
_cell_length_b 25.700088
_cell_length_c 23.246677
_cell_angle_alpha 90.000000
_cell_angle_beta 90.000000
_cell_angle_gamma 90.000000
_cell_volume 5314.107212
_symmetry_space_group_name_H-M "I M M M"
_symmetry_group_IT_number 71
_symmetry_cell_setting 'orthorhombic'
loop_
_space_group_symop_operation_xyz
x,y,z
-x,-y,z
x,-y,-z
-x,y,-z
-x,-y,-z
x,y,-z
-x,y,z
x,-y,z
1/2+x,1/2+y,1/2+z
1/2-x,1/2-y,1/2+z
1/2+x,1/2-y,1/2-z
1/2-x,1/2+y,1/2-z
1/2-x,1/2-y,1/2-z
1/2+x,1/2+y,1/2-z
1/2-x,1/2+y,1/2+z
1/2+x,1/2-y,1/2+z
loop_
_atom_site_type_symbol
_atom_site_label
_atom_site_fract_x
_atom_site_fract_y
_atom_site_fract_z
Si Si1 0.677727 0.439083 0.500000
Si Si2 0.177235 0.697648 0.814947
Si Si3 0.678345 0.904794 0.622183
Si Si4 0.676543 0.196613 0.815837
Si Si5 0.178307 0.558479 0.000000
Si Si6 0.170118 0.000000 0.683281
Si Si7 0.821407 0.593929 0.382895
Si Si8 0.828558 0.000000 0.180797
O O1 0.720852 0.500000 0.500000
O O2 0.500000 0.431164 0.500000
O O3 0.748620 0.410905 0.554713
O O4 0.235159 0.650833 0.855088
O O5 0.247946 0.750740 0.839186
O O6 0.230277 0.686040 0.749634
O O7 0.000000 0.703227 0.818408
O O8 0.500000 0.909904 0.626888
O O9 0.734867 0.911197 0.556544
O O10 0.746877 0.949041 0.661683
O O11 0.500000 0.204578 0.817919
O O12 0.726804 0.149309 0.856417
O O13 0.245078 0.500000 0.000000
O O14 0.000000 0.555294 0.000000
O O15 0.175405 0.000000 0.751358
O O16 0.000000 0.000000 0.660367
O O17 0.757337 0.550443 0.340997
O O18 0.000000 0.587881 0.387289
O O19 0.000000 0.000000 0.157073
#
# Coordination Sequence:
#
# PCOD8289408 Si02
#       8
#     8  16  16  16   8   8  16   8
#     4  11  23  39  58  81 113 149 184 227 277 326
#     4   9  18  33  55  80 106 142 182 221 269 322
#     4  10  19  34  55  77 105 139 182 225 265 321
#     4   9  19  35  54  79 109 140 177 222 271 321
#     4   9  16  30  53  78 101 137 178 217 265 308
#     4  11  23  34  49  78 112 142 175 219 276 329
#     4  11  22  37  59  83 108 143 187 226 267 326
#     4  11  23  36  51  78 113 142 172 221 278 327
#
# _framework density 18.065121000000001
#
# number of rings (size 3 to 8) (size 9 to 14) (size 15 to 20)
#    0.000    2.000    1.667    2.250    0.000    5.000 
#    0.000    5.000    0.000    1.000    0.000    0.000 
#    0.000    0.000    0.000    0.000    0.000    0.000 
#
# Total GULP energy -595292.528112 kJ/mol
# GULP energy per Si atom -12401.927669 kJ/mol
# Density = 1.802400 g / cm^3
# Si number density = 18.065121 Si / 1000 Ang^3
#
#
#
# Elastic Constant Matrix: (Units=GPa)
#
#
# Indices 1 2 3 4 5 6 
#
# 1 51.1011 51.4377 36.9570 0.0000 0.0000 0.0000
# 2 51.4377 183.1313 86.3748 0.0000 0.0000 0.0000
# 3 36.9570 86.3748 118.2620 0.0000 0.0000 0.0000
# 4 0.0000 0.0000 0.0000 27.8825 0.0000 0.0000
# 5 0.0000 0.0000 0.0000 0.0000 24.0261 0.0000
# 6 0.0000 0.0000 0.0000 0.0000 0.0000 30.3983
#
#
#
# Elastic Compliance Matrix: (Units=1/GPa)
#
#
# Indices 1 2 3 4 5 6 
#
# 1 0.028923 -0.005890 -0.004737 0.000000 0.000000 0.000000
# 2 -0.005890 0.009530 -0.005119 0.000000 0.000000 0.000000
# 3 -0.004737 -0.005119 0.013675 0.000000 0.000000 0.000000
# 4 0.000000 0.000000 0.000000 0.035865 0.000000 0.000000
# 5 0.000000 0.000000 0.000000 0.000000 0.041621 0.000000
# 6 0.000000 0.000000 0.000000 0.000000 0.000000 0.032897
#
#
# Mechanical properties :
#
#
# Convention : Reuss Voigt Hill
#
# Bulk Modulus (GPa) = 48.45946 78.00371 63.23158
# Shear Modulus (GPa) = 24.89025 28.30970 26.59997
#
# Velocity S-wave (km/s) = 3.71591 3.96295 3.84141
# Velocity P-wave (km/s) = 6.73006 8.01329 7.39955
#
# Compressibility (1/GPa) = 0.02063581
#
# Stress axis : x y z
#
# Youngs Moduli (GPa) = 34.57402 104.93722 73.12512
#
# Poissons Ratio (x) = 0.61806 0.34639
# Poissons Ratio (y) = 0.20363 0.37436
# Poissons Ratio (z) = 0.16377 0.53722
#
# Static dielectric constant tensor:
#      x y z
#    x 3.308820 0.000000 0.000000 
#    y 0.000000 3.539330 0.000000 
#    z 0.000000 0.000000 3.499110 
# 
# 
# High freq. dielectric constant tensor:
#      x y z
#    x 1.693410 0.000000 0.000000 
#    y 0.000000 1.704230 0.000000 
#    z 0.000000 0.000000 1.701820 
# 
# From -- ./inp_files/57820.got.cif
#   From: 2010.06.25/outbox.cif.g09.slc.cpg/sg71_29_cif.got.tgz:57820.got - 2010.06.28 04:59:45.
