data_PCOD8289303
_publ_section_title
;
Structure prediction by ZEFSAII (Michael W. Deem and Ramdas Pophale) SiO2 
 PCOD8289303
Probable space group: I M M M
;
_chemical_formula_sum "Si O2"
_cell_formula_units_Z 88
_cell_length_a 17.993556
_cell_length_b 28.795216
_cell_length_c 8.883604
_cell_angle_alpha 90.000000
_cell_angle_beta 90.000000
_cell_angle_gamma 90.000000
_cell_volume 4602.846919
_symmetry_space_group_name_H-M "I M M M"
_symmetry_group_IT_number 71
_symmetry_cell_setting 'orthorhombic'
loop_
_space_group_symop_operation_xyz
x,y,z
-x,-y,z
x,-y,-z
-x,y,-z
-x,-y,-z
x,y,-z
-x,y,z
x,-y,z
1/2+x,1/2+y,1/2+z
1/2-x,1/2-y,1/2+z
1/2+x,1/2-y,1/2-z
1/2-x,1/2+y,1/2-z
1/2-x,1/2-y,1/2-z
1/2+x,1/2+y,1/2-z
1/2-x,1/2+y,1/2+z
1/2+x,1/2-y,1/2+z
loop_
_atom_site_type_symbol
_atom_site_label
_atom_site_fract_x
_atom_site_fract_y
_atom_site_fract_z
Si Si1 0.155558 0.297219 0.826383
Si Si2 0.349898 0.404089 0.326693
Si Si3 0.705455 0.053262 0.678025
Si Si4 0.808540 0.197023 0.829193
Si Si5 0.000000 0.947717 0.178942
Si Si6 0.914275 0.618499 0.674113
O O1 0.141276 0.242469 0.792265
O O2 0.240520 0.308138 0.784948
O O3 0.100212 0.329057 0.730554
O O4 0.142679 0.309579 0.000000
O O5 0.339364 0.419208 0.500000
O O6 0.280726 0.423756 0.235865
O O7 0.358242 0.348633 0.311505
O O8 0.425787 0.423987 0.256453
O O9 0.704665 0.056573 0.500000
O O10 0.634575 0.080915 0.738883
O O11 0.700598 0.000000 0.733112
O O12 0.777287 0.201523 0.000000
O O13 0.000000 0.000000 0.236592
O O14 0.000000 0.943629 0.000000
O O15 0.892394 0.616140 0.500000
O O16 0.000000 0.605957 0.701346
#
# Coordination Sequence:
#
# PCOD8289303 Si02
#       6
#    16  16  16  16   8  16
#     4  10  19  33  55  84 115 148 187 232 284 337
#     4  10  19  35  59  85 115 151 194 237 280 337
#     4  11  24  40  60  87 115 145 187 238 294 354
#     4   9  18  32  54  85 115 148 188 231 278 334
#     4   9  18  32  53  83 115 149 191 237 282 327
#     4  11  24  41  60  83 114 152 196 242 289 346
#
# _framework density 19.118601999999999
#
# number of rings (size 3 to 8) (size 9 to 14) (size 15 to 20)
#    0.000    1.909    1.818    2.182    0.000    4.727 
#    1.636    2.273    0.000    1.636    0.000    0.000 
#    0.000    0.000    0.000    0.000    0.000    0.000 
#
# Total GULP energy -545614.843814 kJ/mol
# GULP energy per Si atom -12400.337359 kJ/mol
# Density = 1.907509 g / cm^3
# Si number density = 19.118602 Si / 1000 Ang^3
#
#
#
# Elastic Constant Matrix: (Units=GPa)
#
#
# Indices 1 2 3 4 5 6 
#
# 1 105.5897 65.5074 33.4330 0.0000 0.0002 0.0002
# 2 65.5074 154.6748 41.6011 0.0001 0.0004 0.0000
# 3 33.4330 41.6011 62.1758 0.0035 0.0016 -0.0001
# 4 0.0000 0.0001 0.0035 26.4059 0.0005 0.0001
# 5 0.0002 0.0004 0.0016 0.0005 12.9709 0.0006
# 6 0.0002 0.0000 -0.0001 0.0001 0.0006 27.1427
#
#
#
# Elastic Compliance Matrix: (Units=1/GPa)
#
#
# Indices 1 2 3 4 5 6 
#
# 1 0.013710 -0.004663 -0.004252 0.000001 0.000001 0.000000
# 2 -0.004663 0.009470 -0.003829 0.000000 0.000000 0.000000
# 3 -0.004252 -0.003829 0.020932 -0.000003 -0.000002 0.000000
# 4 0.000001 0.000000 -0.000003 0.037870 -0.000001 0.000000
# 5 0.000001 0.000000 -0.000002 -0.000001 0.077096 -0.000002
# 6 0.000000 0.000000 0.000000 0.000000 -0.000002 0.036842
#
#
# Mechanical properties :
#
#
# Convention : Reuss Voigt Hill
#
# Bulk Modulus (GPa) = 53.69509 67.05818 60.37664
# Shear Modulus (GPa) = 21.96694 25.43050 23.69872
#
# Velocity S-wave (km/s) = 3.39334 3.65107 3.52456
# Velocity P-wave (km/s) = 6.59540 7.27494 6.94349
#
# Compressibility (1/GPa) = 0.01862368
#
# Stress axis : x y z
#
# Youngs Moduli (GPa) = 72.94120 105.60014 47.77424
#
# Poissons Ratio (x) = 0.49237 0.20315
# Poissons Ratio (y) = 0.34010 0.18292
# Poissons Ratio (z) = 0.31016 0.40433
#
# Static dielectric constant tensor:
#      x y z
#    x 3.361340 0.000000 0.000000 
#    y 0.000000 3.858090 0.000000 
#    z 0.000000 0.000000 3.475620 
# 
# 
# High freq. dielectric constant tensor:
#      x y z
#    x 1.725680 0.000000 0.000000 
#    y 0.000000 1.762790 0.000000 
#    z 0.000000 0.000000 1.737370 
# 
# From -- ./inp_files/8803.got.cif
#   From: 2010.06.25/outbox.cif.g09.slc.cpg/sg71_5_cif.got.tgz:8803.got - 2010.06.28 04:59:45.
