data_PCOD8289433
_publ_section_title
;
Structure prediction by ZEFSAII (Michael W. Deem and Ramdas Pophale) SiO2 
 PCOD8289433
Probable space group: I M M M
;
_chemical_formula_sum "Si O2"
_cell_formula_units_Z 104
_cell_length_a 28.862269
_cell_length_b 13.203444
_cell_length_c 13.554483
_cell_angle_alpha 90.000000
_cell_angle_beta 90.000000
_cell_angle_gamma 90.000000
_cell_volume 5165.360713
_symmetry_space_group_name_H-M "I M M M"
_symmetry_group_IT_number 71
_symmetry_cell_setting 'orthorhombic'
loop_
_space_group_symop_operation_xyz
x,y,z
-x,-y,z
x,-y,-z
-x,y,-z
-x,-y,-z
x,y,-z
-x,y,z
x,-y,z
1/2+x,1/2+y,1/2+z
1/2-x,1/2-y,1/2+z
1/2+x,1/2-y,1/2-z
1/2-x,1/2+y,1/2-z
1/2-x,1/2-y,1/2-z
1/2+x,1/2+y,1/2-z
1/2-x,1/2+y,1/2+z
1/2+x,1/2-y,1/2+z
loop_
_atom_site_type_symbol
_atom_site_label
_atom_site_fract_x
_atom_site_fract_y
_atom_site_fract_z
Si Si1 0.397559 0.799049 0.383063
Si Si2 0.393296 0.697819 0.883799
Si Si3 0.051882 0.388674 0.617166
Si Si4 0.947455 0.500000 0.117393
Si Si5 0.303241 0.114042 0.617106
Si Si6 0.702137 0.613247 0.116902
Si Si7 0.946342 0.113832 0.218749
O O1 0.402175 0.798386 0.500000
O O2 0.424908 0.896751 0.339673
O O3 0.343883 0.810131 0.348182
O O4 0.417473 0.692862 0.346211
O O5 0.410086 0.808192 0.844970
O O6 0.339868 0.685882 0.849341
O O7 0.426144 0.616089 0.830165
O O8 0.400038 0.682553 0.000000
O O9 0.055247 0.395861 0.500000
O O10 0.062432 0.500000 0.662998
O O11 0.000000 0.353465 0.647247
O O12 0.000000 0.500000 0.152549
O O13 0.941850 0.500000 0.000000
O O14 0.303246 0.109223 0.500000
O O15 0.252506 0.152862 0.654688
O O16 0.312480 0.000000 0.657028
O O17 0.693133 0.500000 0.158215
O O18 0.702657 0.608848 0.000000
O O19 0.000000 0.144839 0.218203
O O20 0.939981 0.000000 0.176709
#
# Coordination Sequence:
#
# PCOD8289433 Si02
#       7
#    16  16  16   8  16  16  16
#     4  10  19  35  58  81 108 141 176 218 272 328
#     4  10  19  34  56  78 104 141 184 228 272 311
#     4   8  14  26  45  68  94 127 169 215 264 319
#     4   9  16  28  52  84 109 129 163 215 271 321
#     4   8  13  26  51  83 112 135 167 216 272 325
#     4   8  14  25  47  79 109 137 173 217 266 318
#     4  11  25  40  52  74 108 144 186 228 267 323
#
# _framework density 20.134122000000001
#
# number of rings (size 3 to 8) (size 9 to 14) (size 15 to 20)
#    0.000    2.846    0.769    2.769    0.000    3.077 
#    1.385    2.308    0.000    0.923    0.000    4.308 
#    0.000    0.000    0.000    0.000    0.000    0.000 
#
# Total GULP energy -644364.405580 kJ/mol
# GULP energy per Si atom -12391.623184 kJ/mol
# Density = 2.008830 g / cm^3
# Si number density = 20.134122 Si / 1000 Ang^3
#
#
#
# Elastic Constant Matrix: (Units=GPa)
#
#
# Indices 1 2 3 4 5 6 
#
# 1 212.1947 104.5349 24.0492 0.0000 0.0000 0.0000
# 2 104.5349 133.1321 24.0222 0.0000 0.0000 0.0000
# 3 24.0492 24.0222 18.6218 0.0000 0.0000 0.0000
# 4 0.0000 0.0000 0.0000 25.2299 0.0000 0.0000
# 5 0.0000 0.0000 0.0000 0.0000 16.8995 0.0000
# 6 0.0000 0.0000 0.0000 0.0000 0.0000 37.1518
#
#
#
# Elastic Compliance Matrix: (Units=1/GPa)
#
#
# Indices 1 2 3 4 5 6 
#
# 1 0.007798 -0.005612 -0.002831 0.000000 0.000000 0.000000
# 2 -0.005612 0.013829 -0.010592 0.000000 0.000000 0.000000
# 3 -0.002831 -0.010592 0.071020 0.000000 0.000000 0.000000
# 4 0.000000 0.000000 0.000000 0.039635 0.000000 0.000000
# 5 0.000000 0.000000 0.000000 0.000000 0.059173 0.000000
# 6 0.000000 0.000000 0.000000 0.000000 0.000000 0.026917
#
#
# Mechanical properties :
#
#
# Convention : Reuss Voigt Hill
#
# Bulk Modulus (GPa) = 18.32264 74.35125 46.33695
# Shear Modulus (GPa) = 18.20587 29.94575 24.07581
#
# Velocity S-wave (km/s) = 3.01030 3.86075 3.46174
# Velocity P-wave (km/s) = 4.60463 7.54202 6.24839
#
# Compressibility (1/GPa) = 0.05457730
#
# Stress axis : x y z
#
# Youngs Moduli (GPa) = 128.23105 72.30988 14.08047
#
# Poissons Ratio (x) = 0.40583 0.03987
# Poissons Ratio (y) = 0.71969 0.14914
# Poissons Ratio (z) = 0.36305 0.76589
#
# Static dielectric constant tensor:
#      x y z
#    x 4.146560 0.000000 0.000000 
#    y 0.000000 3.732640 0.000000 
#    z 0.000000 0.000000 3.278850 
# 
# 
# High freq. dielectric constant tensor:
#      x y z
#    x 1.796410 0.000000 0.000000 
#    y 0.000000 1.774240 0.000000 
#    z 0.000000 0.000000 1.757880 
# 
# From -- ./inp_files/40952.got.cif
#   From: 2010.06.25/outbox.cif.g09.slc.cpg/sg71_21_cif.got.tgz:40952.got - 2010.06.28 04:59:45.
