data_PCOD8289610
_publ_section_title
;
Structure prediction by ZEFSAII (Michael W. Deem and Ramdas Pophale) SiO2 
 PCOD8289610
Probable space group: I M M M
;
_chemical_formula_sum "Si O2"
_cell_formula_units_Z 88
_cell_length_a 20.256756
_cell_length_b 18.306262
_cell_length_c 13.418694
_cell_angle_alpha 90.000000
_cell_angle_beta 90.000000
_cell_angle_gamma 90.000000
_cell_volume 4975.993678
_symmetry_space_group_name_H-M "I M M M"
_symmetry_group_IT_number 71
_symmetry_cell_setting 'orthorhombic'
loop_
_space_group_symop_operation_xyz
x,y,z
-x,-y,z
x,-y,-z
-x,y,-z
-x,-y,-z
x,y,-z
-x,y,z
x,-y,z
1/2+x,1/2+y,1/2+z
1/2-x,1/2-y,1/2+z
1/2+x,1/2-y,1/2-z
1/2-x,1/2+y,1/2-z
1/2-x,1/2-y,1/2-z
1/2+x,1/2+y,1/2-z
1/2-x,1/2+y,1/2+z
1/2+x,1/2-y,1/2+z
loop_
_atom_site_type_symbol
_atom_site_label
_atom_site_fract_x
_atom_site_fract_y
_atom_site_fract_z
Si Si1 0.187016 0.914355 0.208808
Si Si2 0.000000 0.585952 0.111777
Si Si3 0.240712 0.170942 0.612545
Si Si4 0.576043 0.323290 0.384893
Si Si5 0.696700 0.165866 0.887090
Si Si6 0.881714 0.329401 0.197890
O O1 0.192776 0.874311 0.315420
O O2 0.119839 0.889875 0.155091
O O3 0.249664 0.895725 0.139422
O O4 0.184097 0.000000 0.227392
O O5 0.064567 0.610948 0.169896
O O6 0.000000 0.500000 0.106816
O O7 0.000000 0.619800 0.000000
O O8 0.222839 0.148608 0.500000
O O9 0.232417 0.256953 0.630765
O O10 0.316621 0.152573 0.634423
O O11 0.593282 0.307788 0.500000
O O12 0.500000 0.345783 0.371310
O O13 0.590977 0.251007 0.322257
O O14 0.633246 0.161461 0.815511
O O15 0.672049 0.155565 0.000000
#
# Coordination Sequence:
#
# PCOD8289610 Si02
#       6
#    16   8  16  16  16  16
#     4  11  22  36  54  82 118 146 175 226 282 328
#     4  11  24  38  55  83 116 148 182 227 281 327
#     4  10  19  35  60  85 108 140 187 232 271 324
#     4  11  21  34  56  82 108 144 186 223 268 327
#     4  10  20  36  59  84 109 143 187 229 271 326
#     4  11  19  35  58  83 110 143 183 228 272 323
#
# _framework density 17.684909999999999
#
# number of rings (size 3 to 8) (size 9 to 14) (size 15 to 20)
#    0.000    1.364    4.545    3.273    0.000    5.091 
#    0.000    1.364    0.000    2.182    0.000    1.273 
#    0.000    0.000    0.000    0.000    0.000    0.000 
#
# Total GULP energy -545785.624013 kJ/mol
# GULP energy per Si atom -12404.218728 kJ/mol
# Density = 1.764466 g / cm^3
# Si number density = 17.684910 Si / 1000 Ang^3
#
#
#
# Elastic Constant Matrix: (Units=GPa)
#
#
# Indices 1 2 3 4 5 6 
#
# 1 97.9779 16.8432 49.3807 0.0000 0.0000 0.0000
# 2 16.8432 65.0220 20.5871 0.0000 0.0000 0.0000
# 3 49.3807 20.5871 136.1523 0.0000 0.0000 0.0000
# 4 0.0000 0.0000 0.0000 18.6395 0.0000 0.0000
# 5 0.0000 0.0000 0.0000 0.0000 27.3892 0.0000
# 6 0.0000 0.0000 0.0000 0.0000 0.0000 24.7658
#
#
#
# Elastic Compliance Matrix: (Units=1/GPa)
#
#
# Indices 1 2 3 4 5 6 
#
# 1 0.012715 -0.001926 -0.004320 0.000000 0.000000 0.000000
# 2 -0.001926 0.016444 -0.001788 0.000000 0.000000 0.000000
# 3 -0.004320 -0.001788 0.009182 0.000000 0.000000 0.000000
# 4 0.000000 0.000000 0.000000 0.053650 0.000000 0.000000
# 5 0.000000 0.000000 0.000000 0.000000 0.036511 0.000000
# 6 0.000000 0.000000 0.000000 0.000000 0.000000 0.040378
#
#
# Mechanical properties :
#
#
# Convention : Reuss Voigt Hill
#
# Bulk Modulus (GPa) = 44.89741 52.53046 48.71394
# Shear Modulus (GPa) = 25.99123 28.31497 27.15310
#
# Velocity S-wave (km/s) = 3.83780 4.00569 3.92265
# Velocity P-wave (km/s) = 6.71423 7.15277 6.93697
#
# Compressibility (1/GPa) = 0.02227300
#
# Stress axis : x y z
#
# Youngs Moduli (GPa) = 78.64806 60.81106 108.90859
#
# Poissons Ratio (x) = 0.11711 0.47052
# Poissons Ratio (y) = 0.15146 0.19473
# Poissons Ratio (z) = 0.33979 0.10873
#
# Static dielectric constant tensor:
#      x y z
#    x 3.406520 0.000000 0.000000 
#    y 0.000000 3.099930 0.000000 
#    z 0.000000 0.000000 3.502440 
# 
# 
# High freq. dielectric constant tensor:
#      x y z
#    x 1.674990 0.000000 0.000000 
#    y 0.000000 1.673670 0.000000 
#    z 0.000000 0.000000 1.691930 
# 
# From -- ./inp_files/36384.got.cif
#   From: 2010.06.25/outbox.cif.g09.slc.cpg/sg71_19_cif.got.tgz:36384.got - 2010.06.28 04:59:45.
