data_PCOD8289661
_publ_section_title
;
Structure prediction by ZEFSAII (Michael W. Deem and Ramdas Pophale) SiO2 
 PCOD8289661
Probable space group: I M M M
;
_chemical_formula_sum "Si O2"
_cell_formula_units_Z 104
_cell_length_a 8.976097
_cell_length_b 20.184625
_cell_length_c 27.782455
_cell_angle_alpha 90.000000
_cell_angle_beta 90.000000
_cell_angle_gamma 90.000000
_cell_volume 5033.601635
_symmetry_space_group_name_H-M "I M M M"
_symmetry_group_IT_number 71
_symmetry_cell_setting 'orthorhombic'
loop_
_space_group_symop_operation_xyz
x,y,z
-x,-y,z
x,-y,-z
-x,y,-z
-x,-y,-z
x,y,-z
-x,y,z
x,-y,z
1/2+x,1/2+y,1/2+z
1/2-x,1/2-y,1/2+z
1/2+x,1/2-y,1/2-z
1/2-x,1/2+y,1/2-z
1/2-x,1/2-y,1/2-z
1/2+x,1/2+y,1/2-z
1/2-x,1/2+y,1/2+z
1/2+x,1/2-y,1/2+z
loop_
_atom_site_type_symbol
_atom_site_label
_atom_site_fract_x
_atom_site_fract_y
_atom_site_fract_z
Si Si1 0.822790 0.922062 0.000000
Si Si2 0.338731 0.500000 0.066092
Si Si3 0.833364 0.630263 0.947771
Si Si4 0.164470 0.000000 0.321830
Si Si5 0.175552 0.630889 0.212100
Si Si6 0.323406 0.230507 0.367886
Si Si7 0.323972 0.072474 0.192259
Si Si8 0.677212 0.136469 0.095999
O O1 0.757570 0.885196 0.046889
O O2 0.000000 0.913684 0.000000
O O3 0.777406 0.000000 0.000000
O O4 0.500000 0.500000 0.041835
O O5 0.256977 0.563970 0.047015
O O6 0.354836 0.500000 0.122202
O O7 0.768233 0.678478 0.907611
O O8 0.000000 0.611104 0.932398
O O9 0.829867 0.666521 0.000000
O O10 0.253294 0.933802 0.310516
O O11 0.000000 0.000000 0.297208
O O12 0.222822 0.698809 0.184382
O O13 0.225379 0.629150 0.268831
O O14 0.000000 0.622836 0.206166
O O15 0.500000 0.246148 0.370586
O O16 0.228991 0.294375 0.381440
O O17 0.500000 0.070112 0.192362
O O18 0.271640 0.085891 0.137865
O O19 0.260347 0.000000 0.207949
O O20 0.500000 0.137395 0.087072
#
# Coordination Sequence:
#
# PCOD8289661 Si02
#       8
#     8   8  16   8  16  16  16  16
#     4  11  25  47  75 101 127 162 205 258 311 367
#     4  11  22  34  51  78 114 150 191 253 317 362
#     4  10  21  36  55  78 106 149 203 254 303 362
#     4  11  21  32  50  83 118 149 195 262 319 356
#     4  10  19  36  63  86 113 163 215 251 297 366
#     4  10  22  38  58  86 120 165 213 256 304 364
#     4   9  18  35  63  94 121 155 205 259 305 365
#     4  11  24  41  64  96 131 166 201 250 318 381
#
# _framework density 20.661149000000002
#
# number of rings (size 3 to 8) (size 9 to 14) (size 15 to 20)
#    0.000    1.769    2.308    1.846    1.077    4.923 
#    0.000    1.538    0.000    0.000    0.000    0.000 
#    0.000    0.000    0.000    0.000    0.000    0.000 
#
# Total GULP energy -644249.462802 kJ/mol
# GULP energy per Si atom -12389.412746 kJ/mol
# Density = 2.061412 g / cm^3
# Si number density = 20.661149 Si / 1000 Ang^3
#
#
#
# Elastic Constant Matrix: (Units=GPa)
#
#
# Indices 1 2 3 4 5 6 
#
# 1 60.3376 34.0673 32.2978 0.0000 0.0000 0.0000
# 2 34.0673 111.1793 56.6334 0.0000 0.0000 0.0000
# 3 32.2978 56.6334 163.0312 0.0000 0.0000 0.0000
# 4 0.0000 0.0000 0.0000 23.0038 0.0000 0.0000
# 5 0.0000 0.0000 0.0000 0.0000 11.3882 0.0000
# 6 0.0000 0.0000 0.0000 0.0000 0.0000 18.4096
#
#
#
# Elastic Compliance Matrix: (Units=1/GPa)
#
#
# Indices 1 2 3 4 5 6 
#
# 1 0.020732 -0.005177 -0.002309 0.000000 0.000000 0.000000
# 2 -0.005177 0.012221 -0.003220 0.000000 0.000000 0.000000
# 3 -0.002309 -0.003220 0.007710 0.000000 0.000000 0.000000
# 4 0.000000 0.000000 0.000000 0.043471 0.000000 0.000000
# 5 0.000000 0.000000 0.000000 0.000000 0.087810 0.000000
# 6 0.000000 0.000000 0.000000 0.000000 0.000000 0.054319
#
#
# Mechanical properties :
#
#
# Convention : Reuss Voigt Hill
#
# Bulk Modulus (GPa) = 51.94238 64.50501 58.22369
# Shear Modulus (GPa) = 19.67798 24.66363 22.17081
#
# Velocity S-wave (km/s) = 3.08947 3.45877 3.27932
# Velocity P-wave (km/s) = 6.15801 6.87307 6.52534
#
# Compressibility (1/GPa) = 0.01925210
#
# Stress axis : x y z
#
# Youngs Moduli (GPa) = 48.23439 81.82818 129.70708
#
# Poissons Ratio (x) = 0.42358 0.29949
# Poissons Ratio (y) = 0.24969 0.41762
# Poissons Ratio (z) = 0.11137 0.26346
#
# Static dielectric constant tensor:
#      x y z
#    x 3.718590 0.000000 0.000000 
#    y 0.000000 3.796350 0.000000 
#    z 0.000000 0.000000 4.322080 
# 
# 
# High freq. dielectric constant tensor:
#      x y z
#    x 1.789660 0.000000 0.000000 
#    y 0.000000 1.799390 0.000000 
#    z 0.000000 0.000000 1.833620 
# 
# From -- ./inp_files/63376.got.cif
#   From: 2010.06.25/outbox.cif.g09.slc.cpg/sg71_32_cif.got.tgz:63376.got - 2010.06.28 04:59:45.
