data_PCOD8289170
_publ_section_title
;
Structure prediction by ZEFSAII (Michael W. Deem and Ramdas Pophale) SiO2 
 PCOD8289170
Probable space group: I M M M
;
_chemical_formula_sum "Si O2"
_cell_formula_units_Z 88
_cell_length_a 19.399856
_cell_length_b 27.489733
_cell_length_c 8.630977
_cell_angle_alpha 90.000000
_cell_angle_beta 90.000000
_cell_angle_gamma 90.000000
_cell_volume 4602.872947
_symmetry_space_group_name_H-M "I M M M"
_symmetry_group_IT_number 71
_symmetry_cell_setting 'orthorhombic'
loop_
_space_group_symop_operation_xyz
x,y,z
-x,-y,z
x,-y,-z
-x,y,-z
-x,-y,-z
x,y,-z
-x,y,z
x,-y,z
1/2+x,1/2+y,1/2+z
1/2-x,1/2-y,1/2+z
1/2+x,1/2-y,1/2-z
1/2-x,1/2+y,1/2-z
1/2-x,1/2-y,1/2-z
1/2+x,1/2+y,1/2-z
1/2-x,1/2+y,1/2+z
1/2+x,1/2-y,1/2+z
loop_
_atom_site_type_symbol
_atom_site_label
_atom_site_fract_x
_atom_site_fract_y
_atom_site_fract_z
Si Si1 0.300843 0.381103 0.684247
Si Si2 0.075408 0.945628 0.815888
Si Si3 0.922967 0.308178 0.815652
Si Si4 0.420300 0.000000 0.816558
Si Si5 0.153522 0.594882 0.816341
Si Si6 0.818385 0.228377 0.182809
O O1 0.291714 0.384693 0.500000
O O2 0.363616 0.412881 0.751058
O O3 0.232155 0.401043 0.763010
O O4 0.322003 0.327130 0.738012
O O5 0.000000 0.926003 0.762743
O O6 0.086134 0.000000 0.752446
O O7 0.078917 0.945333 0.000000
O O8 0.886077 0.357140 0.755346
O O9 0.882736 0.260264 0.754723
O O10 0.000000 0.306328 0.746720
O O11 0.924871 0.308689 0.000000
O O12 0.382379 0.047659 0.754018
O O13 0.500000 0.000000 0.761039
O O14 0.415211 0.000000 0.000000
O O15 0.150492 0.590754 0.000000
O O16 0.750000 0.250000 0.250000
O O17 0.815594 0.232162 0.000000
#
# Coordination Sequence:
#
# PCOD8289170 Si02
#       6
#    16  16  16   8  16  16
#     4  10  20  32  53  83 112 145 185 233 281 330
#     4   8  15  29  49  75 107 140 175 220 273 325
#     4   9  18  33  54  79 107 143 186 230 274 323
#     4  11  25  43  61  83 114 147 182 231 283 330
#     4  11  22  37  58  83 113 150 188 227 274 336
#     4  10  19  33  52  76 108 142 180 226 274 322
#
# _framework density 19.118493999999998
#
# number of rings (size 3 to 8) (size 9 to 14) (size 15 to 20)
#    0.000    2.273    1.818    1.909    1.273    2.182 
#    0.000    3.636    0.000    2.182    0.000    3.818 
#    0.000    0.000    0.000    0.000    0.000    0.000 
#
# Total GULP energy -545465.056133 kJ/mol
# GULP energy per Si atom -12396.933094 kJ/mol
# Density = 1.907498 g / cm^3
# Si number density = 19.118494 Si / 1000 Ang^3
#
#
#
# Elastic Constant Matrix: (Units=GPa)
#
#
# Indices 1 2 3 4 5 6 
#
# 1 210.1451 115.6592 25.1517 0.0000 0.0000 0.0000
# 2 115.6592 167.3575 29.6369 0.0000 0.0000 0.0000
# 3 25.1517 29.6369 26.3566 0.0000 0.0000 0.0000
# 4 0.0000 0.0000 0.0000 13.5074 0.0000 0.0000
# 5 0.0000 0.0000 0.0000 0.0000 20.5576 0.0000
# 6 0.0000 0.0000 0.0000 0.0000 0.0000 44.1197
#
#
#
# Elastic Compliance Matrix: (Units=1/GPa)
#
#
# Indices 1 2 3 4 5 6 
#
# 1 0.007741 -0.005047 -0.001713 0.000000 0.000000 0.000000
# 2 -0.005047 0.010751 -0.007273 0.000000 0.000000 0.000000
# 3 -0.001713 -0.007273 0.047754 0.000000 0.000000 0.000000
# 4 0.000000 0.000000 0.000000 0.074033 0.000000 0.000000
# 5 0.000000 0.000000 0.000000 0.000000 0.048644 0.000000
# 6 0.000000 0.000000 0.000000 0.000000 0.000000 0.022666
#
#
# Mechanical properties :
#
#
# Convention : Reuss Voigt Hill
#
# Bulk Modulus (GPa) = 26.19085 82.75051 54.47068
# Shear Modulus (GPa) = 19.81144 31.19771 25.50457
#
# Velocity S-wave (km/s) = 3.22257 4.04395 3.65639
# Velocity P-wave (km/s) = 5.25124 8.07351 6.81018
#
# Compressibility (1/GPa) = 0.03818128
#
# Stress axis : x y z
#
# Youngs Moduli (GPa) = 129.18089 93.01647 20.94082
#
# Poissons Ratio (x) = 0.46941 0.03586
# Poissons Ratio (y) = 0.65191 0.15230
# Poissons Ratio (z) = 0.22124 0.67651
#
# Static dielectric constant tensor:
#      x y z
#    x 3.802140 0.000000 0.000000 
#    y 0.000000 3.795420 0.000000 
#    z 0.000000 0.000000 3.138170 
# 
# 
# High freq. dielectric constant tensor:
#      x y z
#    x 1.759860 0.000000 0.000000 
#    y 0.000000 1.756810 0.000000 
#    z 0.000000 0.000000 1.703840 
# 
# From -- ./inp_files/10444.got.cif
#   From: 2010.06.25/outbox.cif.g09.slc.cpg/sg71_6_cif.got.tgz:10444.got - 2010.06.28 04:59:45.
