data_PCOD8289772
_publ_section_title
;
Structure prediction by ZEFSAII (Michael W. Deem and Ramdas Pophale) SiO2 
 PCOD8289772
Probable space group: I M M M
;
_chemical_formula_sum "Si O2"
_cell_formula_units_Z 96
_cell_length_a 22.021023
_cell_length_b 27.566872
_cell_length_c 9.226778
_cell_angle_alpha 90.000000
_cell_angle_beta 90.000000
_cell_angle_gamma 90.000000
_cell_volume 5601.122250
_symmetry_space_group_name_H-M "I M M M"
_symmetry_group_IT_number 71
_symmetry_cell_setting 'orthorhombic'
loop_
_space_group_symop_operation_xyz
x,y,z
-x,-y,z
x,-y,-z
-x,y,-z
-x,-y,-z
x,y,-z
-x,y,z
x,-y,z
1/2+x,1/2+y,1/2+z
1/2-x,1/2-y,1/2+z
1/2+x,1/2-y,1/2-z
1/2-x,1/2+y,1/2-z
1/2-x,1/2-y,1/2-z
1/2+x,1/2+y,1/2-z
1/2-x,1/2+y,1/2+z
1/2+x,1/2-y,1/2+z
loop_
_atom_site_type_symbol
_atom_site_label
_atom_site_fract_x
_atom_site_fract_y
_atom_site_fract_z
Si Si1 0.886113 0.717208 0.333496
Si Si2 0.500000 0.368997 0.671285
Si Si3 0.115040 0.105362 0.337567
Si Si4 0.000000 0.243222 0.171761
Si Si5 0.293410 0.139712 0.832483
Si Si6 0.262784 0.444774 0.170590
Si Si7 0.804341 0.804430 0.338484
O O1 0.906524 0.725351 0.500000
O O2 0.941835 0.727773 0.228938
O O3 0.860830 0.662383 0.310191
O O4 0.829389 0.751928 0.294547
O O5 0.500000 0.372111 0.500000
O O6 0.441833 0.398031 0.730500
O O7 0.500000 0.312811 0.724226
O O8 0.094851 0.090184 0.500000
O O9 0.169093 0.070157 0.281521
O O10 0.137760 0.160380 0.336213
O O11 0.000000 0.245782 0.000000
O O12 0.287411 0.088858 0.747950
O O13 0.244797 0.178828 0.777171
O O14 0.279941 0.129867 0.000000
O O15 0.250291 0.500000 0.215729
O O16 0.256010 0.436161 0.000000
O O17 0.775273 0.804385 0.500000
#
# Coordination Sequence:
#
# PCOD8289772 Si02
#       7
#    16   8  16   8  16  16  16
#     4  10  20  34  49  69 101 139 172 200 239 295
#     4  11  21  31  44  68  99 131 169 209 249 286
#     4   9  17  30  50  70  91 128 172 206 240 288
#     4  11  23  33  47  72 101 138 178 213 242 278
#     4  10  20  31  49  77 103 128 161 204 253 299
#     4   9  19  37  57  75  96 125 164 208 255 307
#     4   9  17  30  48  69  97 135 171 200 238 290
#
# _framework density 17.139423000000001
#
# number of rings (size 3 to 8) (size 9 to 14) (size 15 to 20)
#    0.000    2.333    1.667    2.500    0.000    5.667 
#    0.000    0.417    0.000    2.500    0.000    0.583 
#    0.000    4.667    0.000    0.000    0.000    0.000 
#
# Total GULP energy -595107.489906 kJ/mol
# GULP energy per Si atom -12398.072706 kJ/mol
# Density = 1.710041 g / cm^3
# Si number density = 17.139423 Si / 1000 Ang^3
#
#
#
# Elastic Constant Matrix: (Units=GPa)
#
#
# Indices 1 2 3 4 5 6 
#
# 1 45.2240 34.9095 31.5261 0.0000 0.0000 0.0000
# 2 34.9095 99.6429 39.0459 0.0000 0.0000 0.0000
# 3 31.5261 39.0459 67.8955 0.0000 0.0000 0.0000
# 4 0.0000 0.0000 0.0000 24.0137 0.0000 0.0000
# 5 0.0000 0.0000 0.0000 0.0000 28.8364 0.0000
# 6 0.0000 0.0000 0.0000 0.0000 0.0000 14.8453
#
#
#
# Elastic Compliance Matrix: (Units=1/GPa)
#
#
# Indices 1 2 3 4 5 6 
#
# 1 0.037122 -0.008070 -0.012596 0.000000 0.000000 0.000000
# 2 -0.008070 0.014710 -0.004712 0.000000 0.000000 0.000000
# 3 -0.012596 -0.004712 0.023287 0.000000 0.000000 0.000000
# 4 0.000000 0.000000 0.000000 0.041643 0.000000 0.000000
# 5 0.000000 0.000000 0.000000 0.000000 0.034678 0.000000
# 6 0.000000 0.000000 0.000000 0.000000 0.000000 0.067361
#
#
# Mechanical properties :
#
#
# Convention : Reuss Voigt Hill
#
# Bulk Modulus (GPa) = 41.04636 47.08060 44.06348
# Shear Modulus (GPa) = 18.00637 20.69115 19.34876
#
# Velocity S-wave (km/s) = 3.24478 3.47828 3.36356
# Velocity P-wave (km/s) = 6.16755 6.60758 6.39135
#
# Compressibility (1/GPa) = 0.02436270
#
# Stress axis : x y z
#
# Youngs Moduli (GPa) = 26.93792 67.98301 42.94170
#
# Poissons Ratio (x) = 0.54860 0.54091
# Poissons Ratio (y) = 0.21738 0.20235
# Poissons Ratio (z) = 0.33932 0.32035
#
# Static dielectric constant tensor:
#      x y z
#    x 3.008330 0.000000 0.000000 
#    y 0.000000 3.136410 0.000000 
#    z 0.000000 0.000000 3.153090 
# 
# 
# High freq. dielectric constant tensor:
#      x y z
#    x 1.637680 0.000000 0.000000 
#    y 0.000000 1.643170 0.000000 
#    z 0.000000 0.000000 1.663380 
# 
# From -- ./inp_files/13191.got.cif
#   From: 2010.06.25/outbox.cif.g09.slc.cpg/sg71_7_cif.got.tgz:13191.got - 2010.06.28 04:59:45.
