data_PCOD8289156
_publ_section_title
;
Structure prediction by ZEFSAII (Michael W. Deem and Ramdas Pophale) SiO2 
 PCOD8289156
Probable space group: I M M M
;
_chemical_formula_sum "Si O2"
_cell_formula_units_Z 96
_cell_length_a 9.108911
_cell_length_b 19.343765
_cell_length_c 29.566384
_cell_angle_alpha 90.000000
_cell_angle_beta 90.000000
_cell_angle_gamma 90.000000
_cell_volume 5209.615600
_symmetry_space_group_name_H-M "I M M M"
_symmetry_group_IT_number 71
_symmetry_cell_setting 'orthorhombic'
loop_
_space_group_symop_operation_xyz
x,y,z
-x,-y,z
x,-y,-z
-x,y,-z
-x,-y,-z
x,y,-z
-x,y,z
x,-y,z
1/2+x,1/2+y,1/2+z
1/2-x,1/2-y,1/2+z
1/2+x,1/2-y,1/2-z
1/2-x,1/2+y,1/2-z
1/2-x,1/2-y,1/2-z
1/2+x,1/2+y,1/2-z
1/2-x,1/2+y,1/2+z
1/2+x,1/2-y,1/2+z
loop_
_atom_site_type_symbol
_atom_site_label
_atom_site_fract_x
_atom_site_fract_y
_atom_site_fract_z
Si Si1 0.326548 0.318484 0.627192
Si Si2 0.172566 0.334109 0.117692
Si Si3 0.662831 0.576836 0.052957
Si Si4 0.174577 0.078008 0.050805
Si Si5 0.827451 0.580649 0.795887
Si Si6 0.825780 0.819380 0.769219
O O1 0.500000 0.317936 0.620903
O O2 0.259565 0.242506 0.618358
O O3 0.259213 0.372054 0.590147
O O4 0.284772 0.335691 0.678763
O O5 0.221335 0.369005 0.071480
O O6 0.228745 0.380309 0.159333
O O7 0.000000 0.329309 0.119490
O O8 0.500000 0.590905 0.072604
O O9 0.714493 0.500000 0.066502
O O10 0.659987 0.585720 0.000000
O O11 0.000000 0.079174 0.052999
O O12 0.231038 0.000000 0.060185
O O13 0.224655 0.101548 0.000000
O O14 0.790177 0.500000 0.800354
O O15 0.734249 0.612681 0.755305
O O16 0.000000 0.592932 0.787405
O O17 0.750000 0.750000 0.750000
O O18 0.000000 0.810441 0.762951
#
# Coordination Sequence:
#
# PCOD8289156 Si02
#       6
#    16  16  16  16  16  16
#     4   9  18  31  49  74 104 136 172 216 263 312
#     4  10  19  33  52  75 102 134 173 217 267 317
#     4   9  19  35  51  69  99 136 171 212 261 310
#     4   8  14  26  45  70 102 138 171 208 262 320
#     4  10  21  37  55  77 108 142 178 224 275 325
#     4  11  21  36  56  77 107 144 183 226 274 330
#
# _framework density 18.427462999999999
#
# number of rings (size 3 to 8) (size 9 to 14) (size 15 to 20)
#    0.000    2.500    1.667    2.000    0.000    3.667 
#    0.000    4.167    0.000    0.000    0.000    0.000 
#    0.000    0.000    0.000   16.500    0.000   14.333 
#
# Total GULP energy -594944.538640 kJ/mol
# GULP energy per Si atom -12394.677888 kJ/mol
# Density = 1.838552 g / cm^3
# Si number density = 18.427463 Si / 1000 Ang^3
#
#
#
# Elastic Constant Matrix: (Units=GPa)
#
#
# Indices 1 2 3 4 5 6 
#
# 1 21.3634 31.2727 30.6631 0.0000 0.0000 0.0000
# 2 31.2727 152.1913 85.7571 0.0000 0.0000 0.0000
# 3 30.6631 85.7571 116.5517 0.0000 0.0000 0.0000
# 4 0.0000 0.0000 0.0000 42.4781 0.0000 0.0000
# 5 0.0000 0.0000 0.0000 0.0000 26.6929 0.0000
# 6 0.0000 0.0000 0.0000 0.0000 0.0000 21.4780
#
#
#
# Elastic Compliance Matrix: (Units=1/GPa)
#
#
# Indices 1 2 3 4 5 6 
#
# 1 0.080356 -0.007857 -0.015359 0.000000 0.000000 0.000000
# 2 -0.007857 0.011993 -0.006757 0.000000 0.000000 0.000000
# 3 -0.015359 -0.006757 0.017592 0.000000 0.000000 0.000000
# 4 0.000000 0.000000 0.000000 0.023542 0.000000 0.000000
# 5 0.000000 0.000000 0.000000 0.000000 0.037463 0.000000
# 6 0.000000 0.000000 0.000000 0.000000 0.000000 0.046559
#
#
# Mechanical properties :
#
#
# Convention : Reuss Voigt Hill
#
# Bulk Modulus (GPa) = 20.00234 65.05468 42.52851
# Shear Modulus (GPa) = 17.00010 27.62404 22.31207
#
# Velocity S-wave (km/s) = 3.04063 3.87598 3.48344
# Velocity P-wave (km/s) = 4.81720 7.44384 6.26962
#
# Compressibility (1/GPa) = 0.04999416
#
# Stress axis : x y z
#
# Youngs Moduli (GPa) = 12.44465 83.38524 56.84289
#
# Poissons Ratio (x) = 0.65515 0.87307
# Poissons Ratio (y) = 0.09778 0.38408
# Poissons Ratio (z) = 0.19114 0.56342
#
# Static dielectric constant tensor:
#      x y z
#    x 3.205460 0.000000 0.000000 
#    y 0.000000 3.655120 0.000000 
#    z 0.000000 0.000000 3.556720 
# 
# 
# High freq. dielectric constant tensor:
#      x y z
#    x 1.673580 0.000000 0.000000 
#    y 0.000000 1.722140 0.000000 
#    z 0.000000 0.000000 1.722400 
# 
# From -- ./inp_files/10956.got.cif
#   From: 2010.06.25/outbox.cif.g09.slc.cpg/sg71_6_cif.got.tgz:10956.got - 2010.06.28 04:59:45.
