data_PCOD8289515
_publ_section_title
;
Structure prediction by ZEFSAII (Michael W. Deem and Ramdas Pophale) SiO2 
 PCOD8289515
Probable space group: I M M M
;
_chemical_formula_sum "Si O2"
_cell_formula_units_Z 104
_cell_length_a 19.842525
_cell_length_b 10.858507
_cell_length_c 23.447198
_cell_angle_alpha 90.000000
_cell_angle_beta 90.000000
_cell_angle_gamma 90.000000
_cell_volume 5051.937891
_symmetry_space_group_name_H-M "I M M M"
_symmetry_group_IT_number 71
_symmetry_cell_setting 'orthorhombic'
loop_
_space_group_symop_operation_xyz
x,y,z
-x,-y,z
x,-y,-z
-x,y,-z
-x,-y,-z
x,y,-z
-x,y,z
x,-y,z
1/2+x,1/2+y,1/2+z
1/2-x,1/2-y,1/2+z
1/2+x,1/2-y,1/2-z
1/2-x,1/2+y,1/2-z
1/2-x,1/2-y,1/2-z
1/2+x,1/2+y,1/2-z
1/2-x,1/2+y,1/2+z
1/2+x,1/2-y,1/2+z
loop_
_atom_site_type_symbol
_atom_site_label
_atom_site_fract_x
_atom_site_fract_y
_atom_site_fract_z
Si Si1 0.117568 0.234537 0.564757
Si Si2 0.072367 0.860025 0.677482
Si Si3 0.690923 0.352704 0.256438
Si Si4 0.365692 0.000000 0.932859
Si Si5 0.500000 0.646892 0.432385
Si Si6 0.221191 0.000000 0.935185
Si Si7 0.639616 0.705692 0.379754
Si Si8 0.762378 0.637069 0.063990
O O1 0.095566 0.200820 0.500000
O O2 0.080923 0.145848 0.609027
O O3 0.095382 0.374044 0.582823
O O4 0.198603 0.227434 0.570914
O O5 0.137206 0.804734 0.709409
O O6 0.000000 0.797601 0.694147
O O7 0.068186 0.000000 0.696595
O O8 0.712600 0.500000 0.248736
O O9 0.750000 0.250000 0.250000
O O10 0.651351 0.341053 0.315873
O O11 0.292373 0.000000 0.901253
O O12 0.354928 0.000000 0.000000
O O13 0.500000 0.500000 0.424214
O O14 0.500000 0.680397 0.500000
O O15 0.562041 0.708034 0.398410
O O16 0.177085 0.881615 0.923758
O O17 0.240990 0.000000 0.000000
O O18 0.677340 0.835524 0.391043
O O19 0.735806 0.500000 0.077475
O O20 0.791593 0.645670 0.000000
#
# Coordination Sequence:
#
# PCOD8289515 Si02
#       8
#    16  16  16   8   8   8  16  16
#     4  10  19  34  59  90 118 151 195 247 306 366
#     4  10  23  42  62  84 121 163 203 249 304 364
#     4  11  25  44  67  94 122 165 217 270 320 375
#     4   9  18  30  54  88 124 152 181 242 313 369
#     4  11  22  34  55  91 129 159 197 252 315 384
#     4  11  18  31  56  88 122 149 186 245 313 363
#     4  12  22  36  59  87 121 158 204 254 309 368
#     4  10  20  34  56  87 124 161 197 246 307 366
#
# _framework density 20.586158999999999
#
# number of rings (size 3 to 8) (size 9 to 14) (size 15 to 20)
#    0.000    1.462    3.077    2.769    1.077    3.077 
#    0.000    1.538    0.000    2.769    0.000    0.000 
#    0.000    0.000    0.000    0.000    0.000    0.000 
#
# Total GULP energy -644178.529600 kJ/mol
# GULP energy per Si atom -12388.048646 kJ/mol
# Density = 2.053930 g / cm^3
# Si number density = 20.586159 Si / 1000 Ang^3
#
#
#
# Elastic Constant Matrix: (Units=GPa)
#
#
# Indices 1 2 3 4 5 6 
#
# 1 112.4539 23.6059 42.4329 0.0000 0.0000 0.0000
# 2 23.6059 74.7539 28.3088 0.0000 0.0000 0.0000
# 3 42.4329 28.3088 91.1156 0.0000 0.0000 0.0000
# 4 0.0000 0.0000 0.0000 24.7397 0.0000 0.0000
# 5 0.0000 0.0000 0.0000 0.0000 26.6265 0.0000
# 6 0.0000 0.0000 0.0000 0.0000 0.0000 23.5684
#
#
#
# Elastic Compliance Matrix: (Units=1/GPa)
#
#
# Indices 1 2 3 4 5 6 
#
# 1 0.010983 -0.001736 -0.004576 0.000000 0.000000 0.000000
# 2 -0.001736 0.015435 -0.003987 0.000000 0.000000 0.000000
# 3 -0.004576 -0.003987 0.014345 0.000000 0.000000 0.000000
# 4 0.000000 0.000000 0.000000 0.040421 0.000000 0.000000
# 5 0.000000 0.000000 0.000000 0.000000 0.037557 0.000000
# 6 0.000000 0.000000 0.000000 0.000000 0.000000 0.042430
#
#
# Mechanical properties :
#
#
# Convention : Reuss Voigt Hill
#
# Bulk Modulus (GPa) = 49.58796 51.89094 50.73945
# Shear Modulus (GPa) = 26.52655 27.25196 26.88926
#
# Velocity S-wave (km/s) = 3.59355 3.64235 3.61803
# Velocity P-wave (km/s) = 6.43105 6.55366 6.49264
#
# Compressibility (1/GPa) = 0.02016619
#
# Stress axis : x y z
#
# Youngs Moduli (GPa) = 91.04582 64.78669 69.71128
#
# Poissons Ratio (x) = 0.11244 0.31899
# Poissons Ratio (y) = 0.15801 0.27796
# Poissons Ratio (z) = 0.41661 0.25833
#
# Static dielectric constant tensor:
#      x y z
#    x 3.787210 0.000000 0.000000 
#    y 0.000000 3.904930 0.000000 
#    z 0.000000 0.000000 3.665090 
# 
# 
# High freq. dielectric constant tensor:
#      x y z
#    x 1.796190 0.000000 0.000000 
#    y 0.000000 1.793950 0.000000 
#    z 0.000000 0.000000 1.796260 
# 
# From -- ./inp_files/66053.got.cif
#   From: 2010.06.25/outbox.cif.g09.slc.cpg/sg71_34_cif.got.tgz:66053.got - 2010.06.28 04:59:45.
