data_PCOD8289966
_publ_section_title
;
Structure prediction by ZEFSAII (Michael W. Deem and Ramdas Pophale) SiO2 
 PCOD8289966
Probable space group: I M M M
;
_chemical_formula_sum "Si O2"
_cell_formula_units_Z 104
_cell_length_a 31.655436
_cell_length_b 9.398270
_cell_length_c 18.528945
_cell_angle_alpha 90.000000
_cell_angle_beta 90.000000
_cell_angle_gamma 90.000000
_cell_volume 5512.478509
_symmetry_space_group_name_H-M "I M M M"
_symmetry_group_IT_number 71
_symmetry_cell_setting 'orthorhombic'
loop_
_space_group_symop_operation_xyz
x,y,z
-x,-y,z
x,-y,-z
-x,y,-z
-x,-y,-z
x,y,-z
-x,y,z
x,-y,z
1/2+x,1/2+y,1/2+z
1/2-x,1/2-y,1/2+z
1/2+x,1/2-y,1/2-z
1/2-x,1/2+y,1/2-z
1/2-x,1/2-y,1/2-z
1/2+x,1/2+y,1/2-z
1/2-x,1/2+y,1/2+z
1/2+x,1/2-y,1/2+z
loop_
_atom_site_type_symbol
_atom_site_label
_atom_site_fract_x
_atom_site_fract_y
_atom_site_fract_z
Si Si1 0.745109 0.163954 0.582055
Si Si2 0.000000 0.668758 0.918152
Si Si3 0.586811 0.835794 0.346766
Si Si4 0.599726 0.161227 0.819463
Si Si5 0.180954 0.835003 0.689388
Si Si6 0.950418 0.844516 0.420558
Si Si7 0.670822 0.667616 0.355323
O O1 0.762235 0.182216 0.500000
O O2 0.779529 0.214380 0.640930
O O3 0.704262 0.262804 0.590642
O O4 0.732508 0.000000 0.596772
O O5 0.957154 0.724020 0.879637
O O6 0.000000 0.500000 0.914469
O O7 0.000000 0.725015 0.000000
O O8 0.583386 0.821100 0.261383
O O9 0.625683 0.738912 0.373243
O O10 0.594868 0.000000 0.369966
O O11 0.640999 0.250040 0.839163
O O12 0.562355 0.217302 0.868754
O O13 0.610229 0.000000 0.838428
O O14 0.187240 0.800019 0.774056
O O15 0.171769 0.000000 0.677265
O O16 0.930698 0.820030 0.500000
O O17 0.000000 0.841453 0.426587
O O18 0.935635 0.000000 0.391112
O O19 0.667092 0.500000 0.369846
#
# Coordination Sequence:
#
# PCOD8289966 Si02
#       7
#    16   8  16  16  16  16  16
#     4  10  21  36  55  79 105 138 180 222 266 318
#     4   9  18  34  57  81 104 137 180 220 259 307
#     4   9  19  35  55  80 109 140 178 221 264 318
#     4  10  20  32  52  80 109 139 173 221 274 319
#     4   9  19  36  55  76 106 142 181 219 259 317
#     4   9  19  35  52  71  99 138 181 221 264 319
#     4  10  20  35  56  80 108 141 177 221 269 317
#
# _framework density 18.866285999999999
#
# number of rings (size 3 to 8) (size 9 to 14) (size 15 to 20)
#    0.000    2.538    0.000    1.846    1.077    4.000 
#    0.000    4.231    0.000    0.462    0.000    0.000 
#    0.000    0.000    0.000    0.000    0.000    0.000 
#
# Total GULP energy -644729.037150 kJ/mol
# GULP energy per Si atom -12398.635330 kJ/mol
# Density = 1.882335 g / cm^3
# Si number density = 18.866286 Si / 1000 Ang^3
#
#
#
# Elastic Constant Matrix: (Units=GPa)
#
#
# Indices 1 2 3 4 5 6 
#
# 1 122.1843 52.5771 56.7857 0.0000 0.0000 0.0000
# 2 52.5771 68.1368 38.3376 0.0000 0.0000 0.0000
# 3 56.7857 38.3376 68.3649 0.0000 0.0000 0.0000
# 4 0.0000 0.0000 0.0000 25.2605 0.0000 0.0000
# 5 0.0000 0.0000 0.0000 0.0000 21.1248 0.0000
# 6 0.0000 0.0000 0.0000 0.0000 0.0000 29.1838
#
#
#
# Elastic Compliance Matrix: (Units=1/GPa)
#
#
# Indices 1 2 3 4 5 6 
#
# 1 0.015198 -0.006756 -0.008835 0.000000 0.000000 0.000000
# 2 -0.006756 0.024445 -0.008097 0.000000 0.000000 0.000000
# 3 -0.008835 -0.008097 0.026506 0.000000 0.000000 0.000000
# 4 0.000000 0.000000 0.000000 0.039588 0.000000 0.000000
# 5 0.000000 0.000000 0.000000 0.000000 0.047338 0.000000
# 6 0.000000 0.000000 0.000000 0.000000 0.000000 0.034266
#
#
# Mechanical properties :
#
#
# Convention : Reuss Voigt Hill
#
# Bulk Modulus (GPa) = 53.26508 61.56518 57.41513
# Shear Modulus (GPa) = 20.74920 22.51284 21.63102
#
# Velocity S-wave (km/s) = 3.31993 3.45814 3.38974
# Velocity P-wave (km/s) = 6.55668 6.97483 6.76899
#
# Compressibility (1/GPa) = 0.01877403
#
# Stress axis : x y z
#
# Youngs Moduli (GPa) = 65.79980 40.90779 37.72693
#
# Poissons Ratio (x) = 0.27638 0.33331
# Poissons Ratio (y) = 0.44455 0.30546
# Poissons Ratio (z) = 0.58133 0.33121
#
# Static dielectric constant tensor:
#      x y z
#    x 3.408940 0.000000 0.000000 
#    y 0.000000 3.467800 0.000000 
#    z 0.000000 0.000000 3.476000 
# 
# 
# High freq. dielectric constant tensor:
#      x y z
#    x 1.731000 0.000000 0.000000 
#    y 0.000000 1.724790 0.000000 
#    z 0.000000 0.000000 1.729910 
# 
# From -- ./inp_files/15046.got.cif
#   From: 2010.06.25/outbox.cif.g09.slc.cpg/sg71_8_cif.got.tgz:15046.got - 2010.06.28 04:59:45.
