data_PCOD8289504
_publ_section_title
;
Structure prediction by ZEFSAII (Michael W. Deem and Ramdas Pophale) SiO2 
 PCOD8289504
Probable space group: I M M M
;
_chemical_formula_sum "Si O2"
_cell_formula_units_Z 88
_cell_length_a 15.076784
_cell_length_b 18.026016
_cell_length_c 16.684690
_cell_angle_alpha 90.000000
_cell_angle_beta 90.000000
_cell_angle_gamma 90.000000
_cell_volume 4534.470773
_symmetry_space_group_name_H-M "I M M M"
_symmetry_group_IT_number 71
_symmetry_cell_setting 'orthorhombic'
loop_
_space_group_symop_operation_xyz
x,y,z
-x,-y,z
x,-y,-z
-x,y,-z
-x,-y,-z
x,y,-z
-x,y,z
x,-y,z
1/2+x,1/2+y,1/2+z
1/2-x,1/2-y,1/2+z
1/2+x,1/2-y,1/2-z
1/2-x,1/2+y,1/2-z
1/2-x,1/2-y,1/2-z
1/2+x,1/2+y,1/2-z
1/2-x,1/2+y,1/2+z
1/2+x,1/2-y,1/2+z
loop_
_atom_site_type_symbol
_atom_site_label
_atom_site_fract_x
_atom_site_fract_y
_atom_site_fract_z
Si Si1 0.735992 0.418571 0.212727
Si Si2 0.599204 0.375590 0.909373
Si Si3 0.000000 0.915494 0.905947
Si Si4 0.400931 0.162525 0.255798
Si Si5 0.832412 0.710438 0.589741
Si Si6 0.849249 0.188192 0.838170
O O1 0.737422 0.500000 0.252946
O O2 0.673587 0.423746 0.135030
O O3 0.837048 0.393183 0.194559
O O4 0.698477 0.354950 0.267970
O O5 0.500000 0.387606 0.872426
O O6 0.622584 0.289729 0.903487
O O7 0.599364 0.403671 0.000000
O O8 0.914346 0.869310 0.880481
O O9 0.000000 0.000000 0.869315
O O10 0.000000 0.922863 0.000000
O O11 0.500000 0.131335 0.263181
O O12 0.374363 0.161396 0.161094
O O13 0.398856 0.243531 0.296533
O O14 0.851043 0.677400 0.500000
O O15 0.725707 0.716933 0.600239
#
# Coordination Sequence:
#
# PCOD8289504 Si02
#       6
#    16  16   8  16  16  16
#     4  11  23  38  57  84 117 155 195 241 293 349
#     4  10  20  34  55  86 120 151 188 237 294 352
#     4  11  24  38  56  86 120 152 192 245 302 356
#     4  11  21  38  62  85 114 152 199 245 285 342
#     4  10  19  34  58  86 115 148 188 239 291 342
#     4  11  20  38  57  84 112 153 196 237 289 352
#
# _framework density 19.406896
#
# number of rings (size 3 to 8) (size 9 to 14) (size 15 to 20)
#    0.000    1.364    4.545    2.727    1.273    2.182 
#    0.000    0.909    0.000    4.909    0.000    6.364 
#    0.000    0.000    0.000    0.000    0.000    0.000 
#
# Total GULP energy -545337.807056 kJ/mol
# GULP energy per Si atom -12394.041069 kJ/mol
# Density = 1.936273 g / cm^3
# Si number density = 19.406896 Si / 1000 Ang^3
#
#
#
# Elastic Constant Matrix: (Units=GPa)
#
#
# Indices 1 2 3 4 5 6 
#
# 1 164.1048 27.0195 44.1326 0.0000 0.0000 0.0000
# 2 27.0195 49.6469 18.4893 0.0000 0.0000 0.0000
# 3 44.1326 18.4893 74.6338 0.0000 0.0000 0.0000
# 4 0.0000 0.0000 0.0000 7.1955 0.0000 0.0000
# 5 0.0000 0.0000 0.0000 0.0000 24.0735 0.0000
# 6 0.0000 0.0000 0.0000 0.0000 0.0000 38.8646
#
#
#
# Elastic Compliance Matrix: (Units=1/GPa)
#
#
# Indices 1 2 3 4 5 6 
#
# 1 0.007561 -0.002699 -0.003802 0.000000 0.000000 0.000000
# 2 -0.002699 0.023153 -0.004140 0.000000 0.000000 0.000000
# 3 -0.003802 -0.004140 0.016673 0.000000 0.000000 0.000000
# 4 0.000000 0.000000 0.000000 0.138975 0.000000 0.000000
# 5 0.000000 0.000000 0.000000 0.000000 0.041539 0.000000
# 6 0.000000 0.000000 0.000000 0.000000 0.000000 0.025730
#
#
# Mechanical properties :
#
#
# Convention : Reuss Voigt Hill
#
# Bulk Modulus (GPa) = 38.30774 51.96314 45.13544
# Shear Modulus (GPa) = 17.62961 27.27633 22.45297
#
# Velocity S-wave (km/s) = 3.01727 3.75306 3.40510
# Velocity P-wave (km/s) = 5.64984 6.75384 6.22636
#
# Compressibility (1/GPa) = 0.02610439
#
# Stress axis : x y z
#
# Youngs Moduli (GPa) = 132.26622 43.19146 59.97854
#
# Poissons Ratio (x) = 0.11656 0.22805
# Poissons Ratio (y) = 0.35695 0.24830
# Poissons Ratio (z) = 0.50289 0.17881
#
# Static dielectric constant tensor:
#      x y z
#    x 6.025510 0.000000 0.000000 
#    y 0.000000 3.379850 0.000000 
#    z 0.000000 0.000000 3.717600 
# 
# 
# High freq. dielectric constant tensor:
#      x y z
#    x 1.770610 0.000000 0.000000 
#    y 0.000000 1.734990 0.000000 
#    z 0.000000 0.000000 1.744910 
# 
# From -- ./inp_files/36393.got.cif
#   From: 2010.06.25/outbox.cif.g09.slc.cpg/sg71_19_cif.got.tgz:36393.got - 2010.06.28 04:59:45.
