data_PCOD8289766
_publ_section_title
;
Structure prediction by ZEFSAII (Michael W. Deem and Ramdas Pophale) SiO2 
 PCOD8289766
Probable space group: I M M M
;
_chemical_formula_sum "Si O2"
_cell_formula_units_Z 88
_cell_length_a 9.148476
_cell_length_b 17.846087
_cell_length_c 30.249438
_cell_angle_alpha 90.000000
_cell_angle_beta 90.000000
_cell_angle_gamma 90.000000
_cell_volume 4938.659328
_symmetry_space_group_name_H-M "I M M M"
_symmetry_group_IT_number 71
_symmetry_cell_setting 'orthorhombic'
loop_
_space_group_symop_operation_xyz
x,y,z
-x,-y,z
x,-y,-z
-x,y,-z
-x,-y,-z
x,y,-z
-x,y,z
x,-y,z
1/2+x,1/2+y,1/2+z
1/2-x,1/2-y,1/2+z
1/2+x,1/2-y,1/2-z
1/2-x,1/2+y,1/2-z
1/2-x,1/2-y,1/2-z
1/2+x,1/2+y,1/2-z
1/2-x,1/2+y,1/2+z
1/2+x,1/2-y,1/2+z
loop_
_atom_site_type_symbol
_atom_site_label
_atom_site_fract_x
_atom_site_fract_y
_atom_site_fract_z
Si Si1 0.165113 0.081924 0.162213
Si Si2 0.826448 0.915006 0.549472
Si Si3 0.827657 0.914985 0.000000
Si Si4 0.333995 0.700869 0.122211
Si Si5 0.163894 0.363763 0.417089
Si Si6 0.329335 0.736947 0.295640
O O1 0.276394 0.083727 0.121677
O O2 0.200276 0.149025 0.195599
O O3 0.000000 0.091747 0.143950
O O4 0.182829 0.000000 0.185426
O O5 0.769712 0.891909 0.500000
O O6 0.765941 0.861403 0.588689
O O7 0.000000 0.908690 0.549269
O O8 0.776628 0.000000 0.559891
O O9 0.768839 0.871149 0.041768
O O10 0.000000 0.911751 0.000000
O O11 0.769863 0.000000 0.000000
O O12 0.500000 0.679961 0.136360
O O13 0.332401 0.777732 0.096000
O O14 0.236550 0.709070 0.166343
O O15 0.000000 0.389762 0.428709
O O16 0.500000 0.755612 0.291588
O O17 0.250000 0.750000 0.250000
#
# Coordination Sequence:
#
# PCOD8289766 Si02
#       6
#    16  16   8  16  16  16
#     4   9  18  34  54  73  95 126 163 201 243 294
#     4   8  14  26  48  77 105 135 173 214 252 295
#     4  11  23  35  45  61  92 133 170 202 237 279
#     4   9  18  32  52  76 103 132 165 206 254 301
#     4  10  20  31  47  72  99 127 161 203 247 289
#     4  10  20  35  55  76 101 130 166 208 255 306
#
# _framework density 17.8186
#
# number of rings (size 3 to 8) (size 9 to 14) (size 15 to 20)
#    0.000    2.636    0.000    2.455    1.273    4.727 
#    0.000    0.909    0.000    6.000    0.000    1.273 
#    0.000    0.000    0.000    0.000    0.000    0.000 
#
# Total GULP energy -545386.273102 kJ/mol
# GULP energy per Si atom -12395.142570 kJ/mol
# Density = 1.777804 g / cm^3
# Si number density = 17.818600 Si / 1000 Ang^3
#
#
#
# Elastic Constant Matrix: (Units=GPa)
#
#
# Indices 1 2 3 4 5 6 
#
# 1 78.0256 32.1024 58.1637 0.0000 0.0000 0.0000
# 2 32.1024 92.1947 63.4323 0.0000 0.0000 0.0000
# 3 58.1637 63.4323 139.5477 0.0000 0.0000 0.0000
# 4 0.0000 0.0000 0.0000 26.0918 0.0000 0.0000
# 5 0.0000 0.0000 0.0000 0.0000 33.5200 0.0000
# 6 0.0000 0.0000 0.0000 0.0000 0.0000 20.6424
#
#
#
# Elastic Compliance Matrix: (Units=1/GPa)
#
#
# Indices 1 2 3 4 5 6 
#
# 1 0.018770 -0.001678 -0.007061 0.000000 0.000000 0.000000
# 2 -0.001678 0.015933 -0.006543 0.000000 0.000000 0.000000
# 3 -0.007061 -0.006543 0.013083 0.000000 0.000000 0.000000
# 4 0.000000 0.000000 0.000000 0.038326 0.000000 0.000000
# 5 0.000000 0.000000 0.000000 0.000000 0.029833 0.000000
# 6 0.000000 0.000000 0.000000 0.000000 0.000000 0.048444
#
#
# Mechanical properties :
#
#
# Convention : Reuss Voigt Hill
#
# Bulk Modulus (GPa) = 58.06293 68.57388 63.31841
# Shear Modulus (GPa) = 24.91374 26.45547 25.68460
#
# Velocity S-wave (km/s) = 3.74329 3.85737 3.80076
# Velocity P-wave (km/s) = 7.16514 7.64245 7.40764
#
# Compressibility (1/GPa) = 0.01722269
#
# Stress axis : x y z
#
# Youngs Moduli (GPa) = 53.27664 62.76472 76.43480
#
# Poissons Ratio (x) = 0.10531 0.53968
# Poissons Ratio (y) = 0.08939 0.50011
# Poissons Ratio (z) = 0.37617 0.41066
#
# Static dielectric constant tensor:
#      x y z
#    x 3.316500 0.000000 0.000000 
#    y 0.000000 3.463250 0.000000 
#    z 0.000000 0.000000 3.232030 
# 
# 
# High freq. dielectric constant tensor:
#      x y z
#    x 1.677610 0.000000 0.000000 
#    y 0.000000 1.689530 0.000000 
#    z 0.000000 0.000000 1.679300 
# 
# From -- ./inp_files/8783.got.cif
#   From: 2010.06.25/outbox.cif.g09.slc.cpg/sg71_5_cif.got.tgz:8783.got - 2010.06.28 04:59:45.
