data_PCOD8289232
_publ_section_title
;
Structure prediction by ZEFSAII (Michael W. Deem and Ramdas Pophale) SiO2 
 PCOD8289232
Probable space group: I M M M
;
_chemical_formula_sum "Si O2"
_cell_formula_units_Z 104
_cell_length_a 10.441462
_cell_length_b 22.491160
_cell_length_c 23.750100
_cell_angle_alpha 90.000000
_cell_angle_beta 90.000000
_cell_angle_gamma 90.000000
_cell_volume 5577.487555
_symmetry_space_group_name_H-M "I M M M"
_symmetry_group_IT_number 71
_symmetry_cell_setting 'orthorhombic'
loop_
_space_group_symop_operation_xyz
x,y,z
-x,-y,z
x,-y,-z
-x,y,-z
-x,-y,-z
x,y,-z
-x,y,z
x,-y,z
1/2+x,1/2+y,1/2+z
1/2-x,1/2-y,1/2+z
1/2+x,1/2-y,1/2-z
1/2-x,1/2+y,1/2-z
1/2-x,1/2-y,1/2-z
1/2+x,1/2+y,1/2-z
1/2-x,1/2+y,1/2+z
1/2+x,1/2-y,1/2+z
loop_
_atom_site_type_symbol
_atom_site_label
_atom_site_fract_x
_atom_site_fract_y
_atom_site_fract_z
Si Si1 0.641495 0.932139 0.335027
Si Si2 0.855501 0.874076 0.869827
Si Si3 0.361209 0.930482 0.061730
Si Si4 0.257285 0.131644 0.435248
Si Si5 0.000000 0.066887 0.566280
Si Si6 0.143881 0.931206 0.751867
Si Si7 0.146239 0.758480 0.936699
O O1 0.500000 0.925026 0.307438
O O2 0.638702 0.896387 0.393576
O O3 0.750592 0.908699 0.292534
O O4 0.671516 0.000000 0.350016
O O5 0.754541 0.917732 0.897162
O O6 0.844977 0.884952 0.803355
O O7 0.820236 0.807083 0.888978
O O8 0.000000 0.889044 0.890651
O O9 0.500000 0.906267 0.083994
O O10 0.371206 0.000000 0.055908
O O11 0.334128 0.902585 0.000000
O O12 0.288909 0.114494 0.500000
O O13 0.258805 0.202877 0.427843
O O14 0.122373 0.104759 0.414612
O O15 0.000000 0.059915 0.500000
O O16 0.000000 0.000000 0.593328
O O17 0.000000 0.926659 0.726117
O O18 0.170294 0.000000 0.770526
O O19 0.000000 0.736398 0.929683
O O20 0.165761 0.784727 0.000000
#
# Coordination Sequence:
#
# PCOD8289232 Si02
#       7
#    16  16  16  16   8  16  16
#     4  10  21  35  54  81 109 138 175 219 268 325
#     4  10  19  33  54  78 102 137 190 235 269 319
#     4   9  18  31  46  70 105 140 173 219 284 342
#     4  10  20  35  55  80 111 143 175 213 263 326
#     4   9  18  32  52  80 110 140 173 211 258 314
#     4   9  19  35  54  76 105 141 179 227 283 327
#     4   9  18  33  53  77 108 145 180 222 275 320
#
# _framework density 18.646388999999999
#
# number of rings (size 3 to 8) (size 9 to 14) (size 15 to 20)
#    0.000    2.538    0.000    2.308    1.077    4.308 
#    1.385    3.846    0.000    0.000    0.000    0.000 
#    0.000    0.000    0.000    0.000    0.000    0.000 
#
# Total GULP energy -644438.197784 kJ/mol
# GULP energy per Si atom -12393.042265 kJ/mol
# Density = 1.860395 g / cm^3
# Si number density = 18.646389 Si / 1000 Ang^3
#
#
#
# Elastic Constant Matrix: (Units=GPa)
#
#
# Indices 1 2 3 4 5 6 
#
# 1 115.7065 39.7078 55.6558 0.0000 0.0000 0.0000
# 2 39.7078 78.5255 42.8040 0.0000 0.0000 0.0000
# 3 55.6558 42.8040 89.6691 0.0000 0.0000 0.0000
# 4 0.0000 0.0000 0.0000 29.1445 0.0000 0.0000
# 5 0.0000 0.0000 0.0000 0.0000 17.3330 0.0000
# 6 0.0000 0.0000 0.0000 0.0000 0.0000 26.8670
#
#
#
# Elastic Compliance Matrix: (Units=1/GPa)
#
#
# Indices 1 2 3 4 5 6 
#
# 1 0.012789 -0.002893 -0.006557 0.000000 0.000000 0.000000
# 2 -0.002893 0.017868 -0.006734 0.000000 0.000000 0.000000
# 3 -0.006557 -0.006734 0.018436 0.000000 0.000000 0.000000
# 4 0.000000 0.000000 0.000000 0.034312 0.000000 0.000000
# 5 0.000000 0.000000 0.000000 0.000000 0.057694 0.000000
# 6 0.000000 0.000000 0.000000 0.000000 0.000000 0.037220
#
#
# Mechanical properties :
#
#
# Convention : Reuss Voigt Hill
#
# Bulk Modulus (GPa) = 59.78678 62.24849 61.01763
# Shear Modulus (GPa) = 23.11998 24.38445 23.75222
#
# Velocity S-wave (km/s) = 3.52507 3.62018 3.57294
# Velocity P-wave (km/s) = 6.97862 7.13655 7.05803
#
# Compressibility (1/GPa) = 0.01672611
#
# Stress axis : x y z
#
# Youngs Moduli (GPa) = 78.18978 55.96541 54.24027
#
# Poissons Ratio (x) = 0.16190 0.35566
# Poissons Ratio (y) = 0.22619 0.36525
# Poissons Ratio (z) = 0.51271 0.37687
#
# Static dielectric constant tensor:
#      x y z
#    x 3.629110 0.000000 0.000000 
#    y 0.000000 3.212280 0.000000 
#    z 0.000000 0.000000 3.295940 
# 
# 
# High freq. dielectric constant tensor:
#      x y z
#    x 1.732360 0.000000 0.000000 
#    y 0.000000 1.701830 0.000000 
#    z 0.000000 0.000000 1.708340 
# 
# From -- ./inp_files/63568.got.cif
#   From: 2010.06.25/outbox.cif.g09.slc.cpg/sg71_32_cif.got.tgz:63568.got - 2010.06.28 04:59:45.
