data_PCOD8289133
_publ_section_title
;
Structure prediction by ZEFSAII (Michael W. Deem and Ramdas Pophale) SiO2 
 PCOD8289133
Probable space group: I M M M
;
_chemical_formula_sum "Si O2"
_cell_formula_units_Z 112
_cell_length_a 13.476722
_cell_length_b 16.590089
_cell_length_c 25.520351
_cell_angle_alpha 90.000000
_cell_angle_beta 90.000000
_cell_angle_gamma 90.000000
_cell_volume 5705.840521
_symmetry_space_group_name_H-M "I M M M"
_symmetry_group_IT_number 71
_symmetry_cell_setting 'orthorhombic'
loop_
_space_group_symop_operation_xyz
x,y,z
-x,-y,z
x,-y,-z
-x,y,-z
-x,-y,-z
x,y,-z
-x,y,z
x,-y,z
1/2+x,1/2+y,1/2+z
1/2-x,1/2-y,1/2+z
1/2+x,1/2-y,1/2-z
1/2-x,1/2+y,1/2-z
1/2-x,1/2-y,1/2-z
1/2+x,1/2+y,1/2-z
1/2-x,1/2+y,1/2+z
1/2+x,1/2-y,1/2+z
loop_
_atom_site_type_symbol
_atom_site_label
_atom_site_fract_x
_atom_site_fract_y
_atom_site_fract_z
Si Si1 0.383970 0.825243 0.395625
Si Si2 0.382985 0.088802 0.500000
Si Si3 0.614010 0.500000 0.558641
Si Si4 0.257286 0.411950 0.814064
Si Si5 0.892180 0.593211 0.379390
Si Si6 0.607063 0.866000 0.760140
Si Si7 0.315410 0.347549 0.622224
Si Si8 0.883013 0.816738 0.761607
O O1 0.500000 0.845467 0.382773
O O2 0.347209 0.863702 0.449383
O O3 0.305705 0.857326 0.353618
O O4 0.371092 0.729854 0.400517
O O5 0.500000 0.081516 0.500000
O O6 0.334559 0.000000 0.500000
O O7 0.500000 0.500000 0.546189
O O8 0.666526 0.500000 0.500000
O O9 0.636551 0.576568 0.594468
O O10 0.285895 0.500000 0.837683
O O11 0.183222 0.427399 0.765821
O O12 0.354293 0.368190 0.790334
O O13 0.865052 0.500000 0.391902
O O14 0.906325 0.606158 0.318571
O O15 0.801025 0.650986 0.395843
O O16 0.000000 0.615080 0.405901
O O17 0.500000 0.871172 0.731905
O O18 0.647961 0.774825 0.751651
O O19 0.326672 0.348894 0.685914
O O20 0.000000 0.825746 0.771071
#
# Coordination Sequence:
#
# PCOD8289133 Si02
#       8
#    16   8   8  16  16  16  16  16
#     4  11  23  39  62  89 120 159 198 246 303 360
#     4   9  20  40  64  91 122 155 194 243 302 363
#     4  11  26  42  61  89 119 155 204 259 299 350
#     4  12  23  34  53  83 119 155 200 245 288 354
#     4  10  20  35  56  83 115 156 202 244 295 357
#     4  10  19  33  51  75 110 150 192 240 287 342
#     4  12  22  40  61  86 120 160 204 246 305 363
#     4  11  23  38  55  81 119 164 203 242 299 366
#
# _framework density 19.629010000000001
#
# number of rings (size 3 to 8) (size 9 to 14) (size 15 to 20)
#    0.000    1.143    3.571    3.857    2.000    2.571 
#    0.000    0.000    0.000    0.857    0.000    1.500 
#    0.000    3.429    0.000    0.000    0.000    0.000 
#
# Total GULP energy -693762.126658 kJ/mol
# GULP energy per Si atom -12388.609405 kJ/mol
# Density = 1.958433 g / cm^3
# Si number density = 19.629010 Si / 1000 Ang^3
#
#
#
# Elastic Constant Matrix: (Units=GPa)
#
#
# Indices 1 2 3 4 5 6 
#
# 1 73.5723 9.7986 5.5519 0.0000 0.0000 0.0000
# 2 9.7986 111.5185 37.0097 0.0000 0.0000 0.0000
# 3 5.5519 37.0097 71.7952 0.0000 0.0000 0.0000
# 4 0.0000 0.0000 0.0000 31.5931 0.0000 0.0000
# 5 0.0000 0.0000 0.0000 0.0000 54.7278 0.0000
# 6 0.0000 0.0000 0.0000 0.0000 0.0000 27.1538
#
#
#
# Elastic Compliance Matrix: (Units=1/GPa)
#
#
# Indices 1 2 3 4 5 6 
#
# 1 0.013770 -0.001033 -0.000532 0.000000 0.000000 0.000000
# 2 -0.001033 0.010895 -0.005537 0.000000 0.000000 0.000000
# 3 -0.000532 -0.005537 0.016824 0.000000 0.000000 0.000000
# 4 0.000000 0.000000 0.000000 0.031653 0.000000 0.000000
# 5 0.000000 0.000000 0.000000 0.000000 0.018272 0.000000
# 6 0.000000 0.000000 0.000000 0.000000 0.000000 0.036827
#
#
# Mechanical properties :
#
#
# Convention : Reuss Voigt Hill
#
# Bulk Modulus (GPa) = 36.65034 40.17851 38.41443
# Shear Modulus (GPa) = 32.99462 36.32997 34.66229
#
# Velocity S-wave (km/s) = 4.10434 4.30680 4.20679
# Velocity P-wave (km/s) = 6.41661 6.72642 6.57334
#
# Compressibility (1/GPa) = 0.02728487
#
# Stress axis : x y z
#
# Youngs Moduli (GPa) = 72.62250 91.78249 59.44000
#
# Poissons Ratio (x) = 0.09484 0.03163
# Poissons Ratio (y) = 0.07504 0.32909
# Poissons Ratio (z) = 0.03865 0.50816
#
# Static dielectric constant tensor:
#      x y z
#    x 3.891290 0.000000 0.000000 
#    y 0.000000 3.854440 0.000000 
#    z 0.000000 0.000000 3.516760 
# 
# 
# High freq. dielectric constant tensor:
#      x y z
#    x 1.766530 0.000000 0.000000 
#    y 0.000000 1.768950 0.000000 
#    z 0.000000 0.000000 1.736260 
# 
# From -- ./inp_files/65554.got.cif
#   From: 2010.06.25/outbox.cif.g09.slc.cpg/sg71_33_cif.got.tgz:65554.got - 2010.06.28 04:59:45.
