data_PCOD8289432
_publ_section_title
;
Structure prediction by ZEFSAII (Michael W. Deem and Ramdas Pophale) SiO2 
 PCOD8289432
Probable space group: I M M M
;
_chemical_formula_sum "Si O2"
_cell_formula_units_Z 104
_cell_length_a 21.163378
_cell_length_b 14.783651
_cell_length_c 17.825214
_cell_angle_alpha 90.000000
_cell_angle_beta 90.000000
_cell_angle_gamma 90.000000
_cell_volume 5577.010254
_symmetry_space_group_name_H-M "I M M M"
_symmetry_group_IT_number 71
_symmetry_cell_setting 'orthorhombic'
loop_
_space_group_symop_operation_xyz
x,y,z
-x,-y,z
x,-y,-z
-x,y,-z
-x,-y,-z
x,y,-z
-x,y,z
x,-y,z
1/2+x,1/2+y,1/2+z
1/2-x,1/2-y,1/2+z
1/2+x,1/2-y,1/2-z
1/2-x,1/2+y,1/2-z
1/2-x,1/2-y,1/2-z
1/2+x,1/2+y,1/2-z
1/2-x,1/2+y,1/2+z
1/2+x,1/2-y,1/2+z
loop_
_atom_site_type_symbol
_atom_site_label
_atom_site_fract_x
_atom_site_fract_y
_atom_site_fract_z
Si Si1 0.185687 0.104509 0.306261
Si Si2 0.697649 0.100411 0.795439
Si Si3 0.654166 0.281610 0.582925
Si Si4 0.705308 0.235278 0.085311
Si Si5 0.370101 0.100604 0.355176
Si Si6 0.500000 0.894183 0.582842
Si Si7 0.573816 0.604276 0.699126
O O1 0.235770 0.133654 0.241499
O O2 0.197632 0.164344 0.380160
O O3 0.114149 0.117700 0.275591
O O4 0.198832 0.000000 0.328633
O O5 0.669185 0.166322 0.859257
O O6 0.643632 0.101303 0.732507
O O7 0.706310 0.000000 0.828717
O O8 0.625418 0.292374 0.500000
O O9 0.726167 0.314989 0.586199
O O10 0.669368 0.175834 0.601039
O O11 0.605295 0.332355 0.636563
O O12 0.678950 0.237786 0.000000
O O13 0.441029 0.135831 0.367750
O O14 0.357941 0.000000 0.389069
O O15 0.500000 0.847786 0.500000
O O16 0.500000 0.000000 0.570614
O O17 0.500000 0.630250 0.712333
O O18 0.579240 0.500000 0.672554
#
# Coordination Sequence:
#
# PCOD8289432 Si02
#       7
#    16  16  16  16  16   8  16
#     4  10  19  36  59  81 109 142 181 233 284 329
#     4  10  19  34  56  78 103 142 185 225 269 324
#     4  11  22  33  50  78 112 148 180 215 269 329
#     4  11  22  35  54  81 113 143 174 224 283 333
#     4  10  20  34  52  75 106 145 182 216 260 319
#     4   9  18  32  48  72 110 144 168 203 250 308
#     4  10  22  39  58  79 104 143 194 238 276 323
#
# _framework density 18.647984000000001
#
# number of rings (size 3 to 8) (size 9 to 14) (size 15 to 20)
#    0.000    1.769    3.077    1.846    1.077    2.154 
#    0.000    3.846    0.000    0.462    0.000    2.154 
#    0.000    3.077    0.000    0.000    0.000    0.000 
#
# Total GULP energy -644227.643605 kJ/mol
# GULP energy per Si atom -12388.993146 kJ/mol
# Density = 1.860554 g / cm^3
# Si number density = 18.647984 Si / 1000 Ang^3
#
#
#
# Elastic Constant Matrix: (Units=GPa)
#
#
# Indices 1 2 3 4 5 6 
#
# 1 76.2673 24.7761 40.4298 0.0000 0.0000 0.0000
# 2 24.7761 79.4198 44.0382 0.0000 0.0000 0.0000
# 3 40.4298 44.0382 110.6313 0.0000 0.0000 0.0000
# 4 0.0000 0.0000 0.0000 17.2972 0.0000 0.0000
# 5 0.0000 0.0000 0.0000 0.0000 15.9286 0.0000
# 6 0.0000 0.0000 0.0000 0.0000 0.0000 20.4784
#
#
#
# Elastic Compliance Matrix: (Units=1/GPa)
#
#
# Indices 1 2 3 4 5 6 
#
# 1 0.016591 -0.002328 -0.005137 0.000000 0.000000 0.000000
# 2 -0.002328 0.016484 -0.005711 0.000000 0.000000 0.000000
# 3 -0.005137 -0.005711 0.013190 0.000000 0.000000 0.000000
# 4 0.000000 0.000000 0.000000 0.057813 0.000000 0.000000
# 5 0.000000 0.000000 0.000000 0.000000 0.062780 0.000000
# 6 0.000000 0.000000 0.000000 0.000000 0.000000 0.048832
#
#
# Mechanical properties :
#
#
# Convention : Reuss Voigt Hill
#
# Bulk Modulus (GPa) = 50.21557 53.86739 52.04148
# Shear Modulus (GPa) = 20.10631 21.21247 20.65939
#
# Velocity S-wave (km/s) = 3.28716 3.37637 3.33207
# Velocity P-wave (km/s) = 6.43381 6.64447 6.53999
#
# Compressibility (1/GPa) = 0.01991414
#
# Stress axis : x y z
#
# Youngs Moduli (GPa) = 60.27433 60.66397 75.81745
#
# Poissons Ratio (x) = 0.14120 0.38944
# Poissons Ratio (y) = 0.14029 0.43301
# Poissons Ratio (z) = 0.30960 0.34646
#
# Static dielectric constant tensor:
#      x y z
#    x 3.627330 0.000000 0.000000 
#    y 0.000000 3.557420 0.000000 
#    z 0.000000 0.000000 3.334100 
# 
# 
# High freq. dielectric constant tensor:
#      x y z
#    x 1.702540 0.000000 0.000000 
#    y 0.000000 1.733750 0.000000 
#    z 0.000000 0.000000 1.703460 
# 
# From -- ./inp_files/47331.got.cif
#   From: 2010.06.25/outbox.cif.g09.slc.cpg/sg71_24_cif.got.tgz:47331.got - 2010.06.28 04:59:45.
