data_PCOD8289740
_publ_section_title
;
Structure prediction by ZEFSAII (Michael W. Deem and Ramdas Pophale) SiO2 
 PCOD8289740
Probable space group: I M M M
;
_chemical_formula_sum "Si O2"
_cell_formula_units_Z 112
_cell_length_a 14.465204
_cell_length_b 26.526750
_cell_length_c 14.777397
_cell_angle_alpha 90.000000
_cell_angle_beta 90.000000
_cell_angle_gamma 90.000000
_cell_volume 5670.306676
_symmetry_space_group_name_H-M "I M M M"
_symmetry_group_IT_number 71
_symmetry_cell_setting 'orthorhombic'
loop_
_space_group_symop_operation_xyz
x,y,z
-x,-y,z
x,-y,-z
-x,y,-z
-x,-y,-z
x,y,-z
-x,y,z
x,-y,z
1/2+x,1/2+y,1/2+z
1/2-x,1/2-y,1/2+z
1/2+x,1/2-y,1/2-z
1/2-x,1/2+y,1/2-z
1/2-x,1/2-y,1/2-z
1/2+x,1/2+y,1/2-z
1/2-x,1/2+y,1/2+z
1/2+x,1/2-y,1/2+z
loop_
_atom_site_type_symbol
_atom_site_label
_atom_site_fract_x
_atom_site_fract_y
_atom_site_fract_z
Si Si1 0.394002 0.644959 0.101752
Si Si2 0.893569 0.190906 0.212959
Si Si3 0.604453 0.942484 0.140808
Si Si4 0.606641 0.801082 0.248933
Si Si5 0.398434 0.904320 0.662296
Si Si6 0.272845 0.847544 0.896532
Si Si7 0.780606 0.946085 0.399011
O O1 0.500000 0.630544 0.093008
O O2 0.377710 0.687154 0.177970
O O3 0.343380 0.596457 0.146410
O O4 0.356703 0.659952 0.000000
O O5 0.870134 0.249868 0.196496
O O6 0.827588 0.154704 0.153316
O O7 0.000000 0.177840 0.187609
O O8 0.500000 0.929878 0.104637
O O9 0.603425 0.938267 0.248318
O O10 0.681039 0.903469 0.102840
O O11 0.631123 0.000000 0.113284
O O12 0.500000 0.802954 0.219950
O O13 0.631419 0.846938 0.315751
O O14 0.662786 0.807466 0.155586
O O15 0.500000 0.905495 0.617381
O O16 0.325543 0.928212 0.594293
O O17 0.260162 0.830047 0.000000
O O18 0.817407 0.952904 0.500000
O O19 0.789928 0.000000 0.347651
#
# Coordination Sequence:
#
# PCOD8289740 Si02
#       7
#    16  16  16  16  16  16  16
#     4   9  18  33  54  78 100 127 169 218 264 306
#     4  10  21  38  57  77 107 144 179 219 264 313
#     4   9  18  33  54  79 106 138 176 219 268 318
#     4   9  19  36  56  76 101 134 172 218 271 315
#     4   9  17  31  50  71  98 133 171 209 250 304
#     4  11  22  34  53  81 111 144 179 216 261 315
#     4  10  20  31  45  69 101 134 165 204 257 312
#
# _framework density 19.752018
#
# number of rings (size 3 to 8) (size 9 to 14) (size 15 to 20)
#    0.000    2.429    0.000    3.857    0.000    3.714 
#    0.000    6.429    0.000    3.857    0.000    1.000 
#    0.000    0.000    0.000    0.000    0.000    0.000 
#
# Total GULP energy -693798.086110 kJ/mol
# GULP energy per Si atom -12389.251538 kJ/mol
# Density = 1.970706 g / cm^3
# Si number density = 19.752018 Si / 1000 Ang^3
#
#
#
# Elastic Constant Matrix: (Units=GPa)
#
#
# Indices 1 2 3 4 5 6 
#
# 1 69.7108 30.7082 15.5622 -0.0003 0.0000 0.0000
# 2 30.7082 93.8890 9.7635 -0.0013 0.0000 0.0001
# 3 15.5622 9.7635 45.1370 -0.0012 -0.0001 0.0000
# 4 -0.0003 -0.0013 -0.0012 10.7555 0.0000 0.0000
# 5 0.0000 0.0000 -0.0001 0.0000 19.9618 0.0000
# 6 0.0000 0.0001 0.0000 0.0000 0.0000 28.2755
#
#
#
# Elastic Compliance Matrix: (Units=1/GPa)
#
#
# Indices 1 2 3 4 5 6 
#
# 1 0.017794 -0.005301 -0.004988 -0.000001 0.000000 0.000000
# 2 -0.005301 0.012475 -0.000871 0.000001 0.000000 0.000000
# 3 -0.004988 -0.000871 0.024063 0.000002 0.000000 0.000000
# 4 -0.000001 0.000001 0.000002 0.092976 0.000000 0.000000
# 5 0.000000 0.000000 0.000000 0.000000 0.050096 0.000000
# 6 0.000000 0.000000 0.000000 0.000000 0.000000 0.035366
#
#
# Mechanical properties :
#
#
# Convention : Reuss Voigt Hill
#
# Bulk Modulus (GPa) = 31.23852 35.64496 33.44174
# Shear Modulus (GPa) = 18.81394 21.97876 20.39635
#
# Velocity S-wave (km/s) = 3.08962 3.33939 3.21693
# Velocity P-wave (km/s) = 5.34578 5.74057 5.54669
#
# Compressibility (1/GPa) = 0.03201176
#
# Stress axis : x y z
#
# Youngs Moduli (GPa) = 56.19965 80.15881 41.55761
#
# Poissons Ratio (x) = 0.42493 0.20730
# Poissons Ratio (y) = 0.29792 0.03619
# Poissons Ratio (z) = 0.28034 0.06980
#
# Static dielectric constant tensor:
#      x y z
#    x 3.679700 0.000000 0.000000 
#    y 0.000000 3.975120 0.000000 
#    z 0.000000 0.000000 3.300790 
# 
# 
# High freq. dielectric constant tensor:
#      x y z
#    x 1.770930 0.000000 0.000000 
#    y 0.000000 1.769910 0.000000 
#    z 0.000000 0.000000 1.737650 
# 
# From -- ./inp_files/35086.got.cif
#   From: 2010.06.25/outbox.cif.g09.slc.cpg/sg71_18_cif.got.tgz:35086.got - 2010.06.28 04:59:45.
