data_PCOD8289679
_publ_section_title
;
Structure prediction by ZEFSAII (Michael W. Deem and Ramdas Pophale) SiO2 
 PCOD8289679
Probable space group: I M M M
;
_chemical_formula_sum "Si O2"
_cell_formula_units_Z 96
_cell_length_a 17.680680
_cell_length_b 22.683890
_cell_length_c 12.049871
_cell_angle_alpha 90.000000
_cell_angle_beta 90.000000
_cell_angle_gamma 90.000000
_cell_volume 4832.800795
_symmetry_space_group_name_H-M "I M M M"
_symmetry_group_IT_number 71
_symmetry_cell_setting 'orthorhombic'
loop_
_space_group_symop_operation_xyz
x,y,z
-x,-y,z
x,-y,-z
-x,y,-z
-x,-y,-z
x,y,-z
-x,y,z
x,-y,z
1/2+x,1/2+y,1/2+z
1/2-x,1/2-y,1/2+z
1/2+x,1/2-y,1/2-z
1/2-x,1/2+y,1/2-z
1/2-x,1/2-y,1/2-z
1/2+x,1/2+y,1/2-z
1/2-x,1/2+y,1/2+z
1/2+x,1/2-y,1/2+z
loop_
_atom_site_type_symbol
_atom_site_label
_atom_site_fract_x
_atom_site_fract_y
_atom_site_fract_z
Si Si1 0.292482 0.933512 0.264801
Si Si2 0.363342 0.936078 0.500000
Si Si3 0.911412 0.746533 0.222105
Si Si4 0.000000 0.069316 0.629267
Si Si5 0.415555 0.810113 0.500000
Si Si6 0.587653 0.861783 0.870991
Si Si7 0.366794 0.622865 0.271323
Si Si8 0.088625 0.933999 0.000000
O O1 0.309955 0.931717 0.394196
O O2 0.362085 0.909281 0.192824
O O3 0.218383 0.895012 0.250928
O O4 0.276947 0.000000 0.224203
O O5 0.420155 0.881210 0.500000
O O6 0.406306 0.000000 0.500000
O O7 0.896030 0.703814 0.325930
O O8 0.867611 0.806918 0.240869
O O9 0.000000 0.760505 0.209963
O O10 0.877106 0.714918 0.111719
O O11 0.075716 0.094799 0.683477
O O12 0.000000 0.086114 0.500000
O O13 0.000000 0.000000 0.649314
O O14 0.500000 0.786139 0.500000
O O15 0.500000 0.878726 0.850307
O O16 0.608785 0.862721 0.000000
O O17 0.387173 0.603330 0.394511
O O18 0.000000 0.941201 0.000000
O O19 0.124992 0.000000 0.000000
#
# Coordination Sequence:
#
# PCOD8289679 Si02
#       8
#    16   8  16   8   8  16  16   8
#     4  11  25  43  65  94 128 166 214 268 324 379
#     4  10  22  42  63  90 127 163 206 266 329 375
#     4  10  20  39  63  93 126 165 212 259 316 383
#     4  11  24  41  63  91 127 178 229 266 312 378
#     4  10  19  37  67  93 123 157 207 270 319 379
#     4  10  23  44  67  93 128 167 210 266 325 387
#     4  12  24  41  63  95 131 173 212 265 318 378
#     4  11  21  37  62  90 124 166 214 264 315 370
#
# _framework density 19.864258
#
# number of rings (size 3 to 8) (size 9 to 14) (size 15 to 20)
#    0.000    1.333    3.333    2.000    2.333    2.833 
#    0.000    2.500    0.000    0.000    0.000    0.000 
#    0.000    0.000    0.000    0.000    0.000    0.000 
#
# Total GULP energy -595236.816498 kJ/mol
# GULP energy per Si atom -12400.767010 kJ/mol
# Density = 1.981905 g / cm^3
# Si number density = 19.864258 Si / 1000 Ang^3
#
#
#
# Elastic Constant Matrix: (Units=GPa)
#
#
# Indices 1 2 3 4 5 6 
#
# 1 88.4442 49.6826 50.6683 0.0000 0.0000 0.0000
# 2 49.6826 151.3974 61.5497 0.0000 0.0000 0.0000
# 3 50.6683 61.5497 154.5285 0.0000 0.0000 0.0000
# 4 0.0000 0.0000 0.0000 32.9310 0.0000 0.0000
# 5 0.0000 0.0000 0.0000 0.0000 29.8114 0.0000
# 6 0.0000 0.0000 0.0000 0.0000 0.0000 18.3442
#
#
#
# Elastic Compliance Matrix: (Units=1/GPa)
#
#
# Indices 1 2 3 4 5 6 
#
# 1 0.015391 -0.003579 -0.003621 0.000000 0.000000 0.000000
# 2 -0.003579 0.008713 -0.002297 0.000000 0.000000 0.000000
# 3 -0.003621 -0.002297 0.008574 0.000000 0.000000 0.000000
# 4 0.000000 0.000000 0.000000 0.030367 0.000000 0.000000
# 5 0.000000 0.000000 0.000000 0.000000 0.033544 0.000000
# 6 0.000000 0.000000 0.000000 0.000000 0.000000 0.054513
#
#
# Mechanical properties :
#
#
# Convention : Reuss Voigt Hill
#
# Bulk Modulus (GPa) = 73.07685 79.79682 76.43683
# Shear Modulus (GPa) = 28.62738 31.71529 30.17133
#
# Velocity S-wave (km/s) = 3.80037 4.00008 3.90150
# Velocity P-wave (km/s) = 7.49166 7.84809 7.67195
#
# Compressibility (1/GPa) = 0.01368422
#
# Stress axis : x y z
#
# Youngs Moduli (GPa) = 64.97135 114.76557 116.63603
#
# Poissons Ratio (x) = 0.41070 0.42237
# Poissons Ratio (y) = 0.23251 0.26794
# Poissons Ratio (z) = 0.23528 0.26364
#
# Static dielectric constant tensor:
#      x y z
#    x 3.393790 0.000000 0.000000 
#    y 0.000000 3.812710 0.000000 
#    z 0.000000 0.000000 3.840970 
# 
# 
# High freq. dielectric constant tensor:
#      x y z
#    x 1.756460 0.000000 0.000000 
#    y 0.000000 1.789340 0.000000 
#    z 0.000000 0.000000 1.790050 
# 
# From -- ./inp_files/24315.got.cif
#   From: 2010.06.25/outbox.cif.g09.slc.cpg/sg71_13_cif.got.tgz:24315.got - 2010.06.28 04:59:45.
