data_PCOD8289969
_publ_section_title
;
Structure prediction by ZEFSAII (Michael W. Deem and Ramdas Pophale) SiO2 
 PCOD8289969
Probable space group: I M M M
;
_chemical_formula_sum "Si O2"
_cell_formula_units_Z 96
_cell_length_a 25.675709
_cell_length_b 16.714535
_cell_length_c 13.099895
_cell_angle_alpha 90.000000
_cell_angle_beta 90.000000
_cell_angle_gamma 90.000000
_cell_volume 5621.918670
_symmetry_space_group_name_H-M "I M M M"
_symmetry_group_IT_number 71
_symmetry_cell_setting 'orthorhombic'
loop_
_space_group_symop_operation_xyz
x,y,z
-x,-y,z
x,-y,-z
-x,y,-z
-x,-y,-z
x,y,-z
-x,y,z
x,-y,z
1/2+x,1/2+y,1/2+z
1/2-x,1/2-y,1/2+z
1/2+x,1/2-y,1/2-z
1/2-x,1/2+y,1/2-z
1/2-x,1/2-y,1/2-z
1/2+x,1/2+y,1/2-z
1/2-x,1/2+y,1/2+z
1/2+x,1/2-y,1/2+z
loop_
_atom_site_type_symbol
_atom_site_label
_atom_site_fract_x
_atom_site_fract_y
_atom_site_fract_z
Si Si1 0.351367 0.761862 0.882187
Si Si2 0.096994 0.139439 0.250064
Si Si3 0.500000 0.404402 0.620278
Si Si4 0.760689 0.312519 0.115291
Si Si5 0.806832 0.142957 0.115733
Si Si6 0.203855 0.410288 0.699557
Si Si7 0.059364 0.000000 0.380258
O O1 0.395392 0.724965 0.806951
O O2 0.300065 0.707054 0.870153
O O3 0.340299 0.852794 0.847421
O O4 0.370253 0.762560 0.000000
O O5 0.147585 0.111474 0.187690
O O6 0.088588 0.077683 0.340923
O O7 0.049458 0.139295 0.170662
O O8 0.500000 0.500000 0.641602
O O9 0.500000 0.386780 0.500000
O O10 0.793770 0.234388 0.145573
O O11 0.778716 0.384199 0.187185
O O12 0.772353 0.339051 0.000000
O O13 0.754935 0.090422 0.128186
O O14 0.826248 0.136147 0.000000
O O15 0.181109 0.500000 0.703690
O O16 0.062478 0.000000 0.500000
O O17 0.000000 0.000000 0.340492
#
# Coordination Sequence:
#
# PCOD8289969 Si02
#       7
#    16  16   8  16  16  16   8
#     4  10  20  34  54  75 103 142 180 222 265 307
#     4  12  19  38  55  76 106 137 176 218 258 314
#     4  11  24  40  56  80 113 140 167 215 270 316
#     4   9  17  34  51  71 104 140 179 221 263 304
#     4  10  20  32  53  75 101 142 179 212 255 311
#     4  11  20  33  49  75 112 144 180 219 258 307
#     4  11  24  40  54  74 104 138 172 222 274 313
#
# _framework density 17.07602
#
# number of rings (size 3 to 8) (size 9 to 14) (size 15 to 20)
#    0.000    1.500    5.000    3.500    1.167    1.667 
#    0.000    0.000    0.000    0.000    0.000    0.583 
#    0.000    2.000    0.000    0.000    0.000    0.000 
#
# Total GULP energy -595208.178031 kJ/mol
# GULP energy per Si atom -12400.170376 kJ/mol
# Density = 1.703715 g / cm^3
# Si number density = 17.076020 Si / 1000 Ang^3
#
#
#
# Elastic Constant Matrix: (Units=GPa)
#
#
# Indices 1 2 3 4 5 6 
#
# 1 72.7428 39.8170 42.1486 0.0000 0.0000 0.0000
# 2 39.8170 107.7759 47.3706 0.0000 0.0000 0.0000
# 3 42.1486 47.3706 96.1599 0.0000 0.0000 0.0000
# 4 0.0000 0.0000 0.0000 19.0927 0.0000 0.0000
# 5 0.0000 0.0000 0.0000 0.0000 29.5515 0.0000
# 6 0.0000 0.0000 0.0000 0.0000 0.0000 21.4293
#
#
#
# Elastic Compliance Matrix: (Units=1/GPa)
#
#
# Indices 1 2 3 4 5 6 
#
# 1 0.020012 -0.004516 -0.006547 0.000000 0.000000 0.000000
# 2 -0.004516 0.012862 -0.004357 0.000000 0.000000 0.000000
# 3 -0.006547 -0.004357 0.015415 0.000000 0.000000 0.000000
# 4 0.000000 0.000000 0.000000 0.052376 0.000000 0.000000
# 5 0.000000 0.000000 0.000000 0.000000 0.033839 0.000000
# 6 0.000000 0.000000 0.000000 0.000000 0.000000 0.046665
#
#
# Mechanical properties :
#
#
# Convention : Reuss Voigt Hill
#
# Bulk Modulus (GPa) = 57.30605 59.48347 58.39476
# Shear Modulus (GPa) = 22.95412 23.83752 23.39582
#
# Velocity S-wave (km/s) = 3.67035 3.74031 3.70550
# Velocity P-wave (km/s) = 7.18291 7.31870 7.25112
#
# Compressibility (1/GPa) = 0.01745017
#
# Stress axis : x y z
#
# Youngs Moduli (GPa) = 49.96892 77.75025 64.87056
#
# Poissons Ratio (x) = 0.35110 0.42472
# Poissons Ratio (y) = 0.22565 0.28262
# Poissons Ratio (z) = 0.32716 0.33873
#
# Static dielectric constant tensor:
#      x y z
#    x 2.999990 0.000000 0.000000 
#    y 0.000000 3.002360 0.000000 
#    z 0.000000 0.000000 3.431500 
# 
# 
# High freq. dielectric constant tensor:
#      x y z
#    x 1.622610 0.000000 0.000000 
#    y 0.000000 1.634100 0.000000 
#    z 0.000000 0.000000 1.690340 
# 
# From -- ./inp_files/40307.got.cif
#   From: 2010.06.25/outbox.cif.g09.slc.cpg/sg71_21_cif.got.tgz:40307.got - 2010.06.28 04:59:45.
