data_PCOD8289562
_publ_section_title
;
Structure prediction by ZEFSAII (Michael W. Deem and Ramdas Pophale) SiO2 
 PCOD8289562
Probable space group: I M M M
;
_chemical_formula_sum "Si O2"
_cell_formula_units_Z 96
_cell_length_a 14.211670
_cell_length_b 21.230208
_cell_length_c 16.701417
_cell_angle_alpha 90.000000
_cell_angle_beta 90.000000
_cell_angle_gamma 90.000000
_cell_volume 5039.096592
_symmetry_space_group_name_H-M "I M M M"
_symmetry_group_IT_number 71
_symmetry_cell_setting 'orthorhombic'
loop_
_space_group_symop_operation_xyz
x,y,z
-x,-y,z
x,-y,-z
-x,y,-z
-x,-y,-z
x,y,-z
-x,y,z
x,-y,z
1/2+x,1/2+y,1/2+z
1/2-x,1/2-y,1/2+z
1/2+x,1/2-y,1/2-z
1/2-x,1/2+y,1/2-z
1/2-x,1/2-y,1/2-z
1/2+x,1/2+y,1/2-z
1/2-x,1/2+y,1/2+z
1/2+x,1/2-y,1/2+z
loop_
_atom_site_type_symbol
_atom_site_label
_atom_site_fract_x
_atom_site_fract_y
_atom_site_fract_z
Si Si1 0.607471 0.731849 0.367346
Si Si2 0.294309 0.072045 0.000000
Si Si3 0.107872 0.572116 0.805706
Si Si4 0.608012 0.142389 0.856878
Si Si5 0.765504 0.652707 0.090841
Si Si6 0.109510 0.216199 0.314694
Si Si7 0.395718 0.371147 0.500000
O O1 0.500000 0.756065 0.365505
O O2 0.669257 0.786219 0.405429
O O3 0.641941 0.717053 0.277646
O O4 0.618482 0.669980 0.420423
O O5 0.329342 0.108003 0.921972
O O6 0.180803 0.073414 0.000000
O O7 0.329268 0.000000 0.000000
O O8 0.127285 0.500000 0.782901
O O9 0.131853 0.615100 0.729833
O O10 0.177454 0.592632 0.876394
O O11 0.000000 0.581946 0.833113
O O12 0.500000 0.129619 0.879254
O O13 0.630468 0.216530 0.856130
O O14 0.669425 0.663101 0.140208
O O15 0.737298 0.638229 0.000000
O O16 0.000000 0.198355 0.321971
O O17 0.500000 0.401343 0.500000
#
# Coordination Sequence:
#
# PCOD8289562 Si02
#       7
#    16   8  16  16  16  16   8
#     4  10  19  35  57  83 113 145 182 231 288 344
#     4  12  25  37  54  81 115 159 201 234 273 326
#     4  10  22  40  60  83 115 152 190 234 282 337
#     4  10  21  38  59  84 116 151 189 233 283 337
#     4  12  23  34  57  87 117 150 187 233 286 343
#     4  10  22  38  59  86 116 149 187 235 287 337
#     4  10  22  36  57  86 115 147 188 237 291 341
#
# _framework density 19.051034000000001
#
# number of rings (size 3 to 8) (size 9 to 14) (size 15 to 20)
#    0.000    1.500    2.500    2.750    3.500    3.167 
#    0.000    0.833    0.000    0.500    0.000    1.167 
#    0.000    0.000    0.000    0.000    0.000    0.000 
#
# Total GULP energy -595414.609096 kJ/mol
# GULP energy per Si atom -12404.471023 kJ/mol
# Density = 1.900767 g / cm^3
# Si number density = 19.051034 Si / 1000 Ang^3
#
#
#
# Elastic Constant Matrix: (Units=GPa)
#
#
# Indices 1 2 3 4 5 6 
#
# 1 75.6876 29.9339 38.5868 0.0001 0.0000 0.0000
# 2 29.9339 47.5099 19.2404 0.0000 0.0000 0.0000
# 3 38.5868 19.2404 99.4537 0.0001 0.0000 0.0000
# 4 0.0001 0.0000 0.0001 46.9772 0.0000 0.0000
# 5 0.0000 0.0000 0.0000 0.0000 30.6678 0.0000
# 6 0.0000 0.0000 0.0000 0.0000 0.0000 29.3107
#
#
#
# Elastic Compliance Matrix: (Units=1/GPa)
#
#
# Indices 1 2 3 4 5 6 
#
# 1 0.020331 -0.010432 -0.005870 0.000000 0.000000 0.000000
# 2 -0.010432 0.028191 -0.001406 0.000000 0.000000 0.000000
# 3 -0.005870 -0.001406 0.012604 0.000000 0.000000 0.000000
# 4 0.000000 0.000000 0.000000 0.021287 0.000000 0.000000
# 5 0.000000 0.000000 0.000000 0.000000 0.032607 0.000000
# 6 0.000000 0.000000 0.000000 0.000000 0.000000 0.034117
#
#
# Mechanical properties :
#
#
# Convention : Reuss Voigt Hill
#
# Bulk Modulus (GPa) = 38.89675 44.24149 41.56912
# Shear Modulus (GPa) = 25.89017 30.38380 28.13699
#
# Velocity S-wave (km/s) = 3.69045 3.99791 3.84725
# Velocity P-wave (km/s) = 6.21455 6.67713 6.44999
#
# Compressibility (1/GPa) = 0.02570909
#
# Stress axis : x y z
#
# Youngs Moduli (GPa) = 49.18694 35.47280 79.33747
#
# Poissons Ratio (x) = 0.37006 0.46569
# Poissons Ratio (y) = 0.51313 0.11156
# Poissons Ratio (z) = 0.28872 0.04988
#
# Static dielectric constant tensor:
#      x y z
#    x 3.608840 0.000000 0.000000 
#    y 0.000000 3.216450 0.000000 
#    z 0.000000 0.000000 3.848850 
# 
# 
# High freq. dielectric constant tensor:
#      x y z
#    x 1.748130 0.000000 0.000000 
#    y 0.000000 1.711420 0.000000 
#    z 0.000000 0.000000 1.747730 
# 
# From -- ./inp_files/34539.got.cif
#   From: 2010.06.25/outbox.cif.g09.slc.cpg/sg71_18_cif.got.tgz:34539.got - 2010.06.28 04:59:45.
