data_PCOD8289680
_publ_section_title
;
Structure prediction by ZEFSAII (Michael W. Deem and Ramdas Pophale) SiO2 
 PCOD8289680
Probable space group: I M M M
;
_chemical_formula_sum "Si O2"
_cell_formula_units_Z 88
_cell_length_a 11.902642
_cell_length_b 23.162549
_cell_length_c 15.492190
_cell_angle_alpha 90.000000
_cell_angle_beta 90.000000
_cell_angle_gamma 90.000000
_cell_volume 4271.127511
_symmetry_space_group_name_H-M "I M M M"
_symmetry_group_IT_number 71
_symmetry_cell_setting 'orthorhombic'
loop_
_space_group_symop_operation_xyz
x,y,z
-x,-y,z
x,-y,-z
-x,y,-z
-x,-y,-z
x,y,-z
-x,y,z
x,-y,z
1/2+x,1/2+y,1/2+z
1/2-x,1/2-y,1/2+z
1/2+x,1/2-y,1/2-z
1/2-x,1/2+y,1/2-z
1/2-x,1/2-y,1/2-z
1/2+x,1/2+y,1/2-z
1/2-x,1/2+y,1/2+z
1/2+x,1/2-y,1/2+z
loop_
_atom_site_type_symbol
_atom_site_label
_atom_site_fract_x
_atom_site_fract_y
_atom_site_fract_z
Si Si1 0.256456 0.433870 0.771619
Si Si2 0.000000 0.881456 0.274111
Si Si3 0.370790 0.850950 0.597724
Si Si4 0.738075 0.759078 0.851206
Si Si5 0.237718 0.888265 0.905932
Si Si6 0.000000 0.869253 0.090183
Si Si7 0.500000 0.720456 0.900537
O O1 0.234101 0.500000 0.794587
O O2 0.388931 0.420830 0.776652
O O3 0.189258 0.395908 0.839734
O O4 0.205481 0.420956 0.674954
O O5 0.000000 0.840709 0.186843
O O6 0.000000 0.841455 0.356419
O O7 0.362493 0.874501 0.500000
O O8 0.500000 0.843630 0.626499
O O9 0.309790 0.789332 0.600524
O O10 0.750000 0.750000 0.750000
O O11 0.780161 0.820783 0.883251
O O12 0.607437 0.757505 0.874901
O O13 0.109521 0.910657 0.914203
O O14 0.299479 0.897233 0.000000
O O15 0.000000 0.830333 0.000000
O O16 0.500000 0.705699 0.000000
#
# Coordination Sequence:
#
# PCOD8289680 Si02
#       7
#    16   8  16  16  16   8   8
#     4  11  23  41  63  89 122 164 213 262 307 362
#     4  10  19  38  60  90 122 163 205 253 307 370
#     4  11  25  44  66  93 123 159 205 258 316 375
#     4  12  23  39  65  95 130 165 203 253 315 379
#     4  10  20  36  58  91 127 164 204 248 308 370
#     4   8  16  31  53  83 122 159 198 248 294 349
#     4  12  24  39  63  95 135 169 202 253 318 387
#
# _framework density 20.603459000000001
#
# number of rings (size 3 to 8) (size 9 to 14) (size 15 to 20)
#    0.000    1.273    3.636    3.000    2.545    1.091 
#    0.000    0.909    0.000    7.091    0.000    1.273 
#    0.000    0.000    0.000    0.000    0.000    0.000 
#
# Total GULP energy -545099.473578 kJ/mol
# GULP energy per Si atom -12388.624400 kJ/mol
# Density = 2.055656 g / cm^3
# Si number density = 20.603459 Si / 1000 Ang^3
#
#
#
# Elastic Constant Matrix: (Units=GPa)
#
#
# Indices 1 2 3 4 5 6 
#
# 1 115.2167 29.3964 40.6982 0.0000 0.0000 0.0000
# 2 29.3964 82.3624 13.2463 -0.0001 0.0000 0.0000
# 3 40.6982 13.2463 151.7117 -0.0001 0.0000 0.0000
# 4 0.0000 -0.0001 -0.0001 11.1388 0.0000 0.0000
# 5 0.0000 0.0000 0.0000 0.0000 27.1973 0.0000
# 6 0.0000 0.0000 0.0000 0.0000 0.0000 7.4888
#
#
#
# Elastic Compliance Matrix: (Units=1/GPa)
#
#
# Indices 1 2 3 4 5 6 
#
# 1 0.010409 -0.003312 -0.002503 0.000000 0.000000 0.000000
# 2 -0.003312 0.013369 -0.000279 0.000000 0.000000 0.000000
# 3 -0.002503 -0.000279 0.007287 0.000000 0.000000 0.000000
# 4 0.000000 0.000000 0.000000 0.089777 0.000000 0.000000
# 5 0.000000 0.000000 0.000000 0.000000 0.036768 0.000000
# 6 0.000000 0.000000 0.000000 0.000000 0.000000 0.133533
#
#
# Mechanical properties :
#
#
# Convention : Reuss Voigt Hill
#
# Bulk Modulus (GPa) = 52.97673 57.33029 55.15351
# Shear Modulus (GPa) = 16.14868 26.89495 21.52182
#
# Velocity S-wave (km/s) = 2.80265 3.61690 3.23549
# Velocity P-wave (km/s) = 6.02009 6.73265 6.38632
#
# Compressibility (1/GPa) = 0.01887621
#
# Stress axis : x y z
#
# Youngs Moduli (GPa) = 96.07473 74.80256 137.22633
#
# Poissons Ratio (x) = 0.24778 0.34348
# Poissons Ratio (y) = 0.31824 0.03824
# Poissons Ratio (z) = 0.24047 0.02084
#
# Static dielectric constant tensor:
#      x y z
#    x 3.918790 0.000000 0.000000 
#    y 0.000000 3.374830 0.000000 
#    z 0.000000 0.000000 4.258470 
# 
# 
# High freq. dielectric constant tensor:
#      x y z
#    x 1.803230 0.000000 0.000000 
#    y 0.000000 1.763660 0.000000 
#    z 0.000000 0.000000 1.838520 
# 
# From -- ./inp_files/32781.got.cif
#   From: 2010.06.25/outbox.cif.g09.slc.cpg/sg71_17_cif.got.tgz:32781.got - 2010.06.28 04:59:45.
