data_PCOD8289971
_publ_section_title
;
Structure prediction by ZEFSAII (Michael W. Deem and Ramdas Pophale) SiO2 
 PCOD8289971
Probable space group: I M M M
;
_chemical_formula_sum "Si O2"
_cell_formula_units_Z 96
_cell_length_a 15.210365
_cell_length_b 11.850247
_cell_length_c 29.045543
_cell_angle_alpha 90.000000
_cell_angle_beta 90.000000
_cell_angle_gamma 90.000000
_cell_volume 5235.359854
_symmetry_space_group_name_H-M "I M M M"
_symmetry_group_IT_number 71
_symmetry_cell_setting 'orthorhombic'
loop_
_space_group_symop_operation_xyz
x,y,z
-x,-y,z
x,-y,-z
-x,y,-z
-x,-y,-z
x,y,-z
-x,y,z
x,-y,z
1/2+x,1/2+y,1/2+z
1/2-x,1/2-y,1/2+z
1/2+x,1/2-y,1/2-z
1/2-x,1/2+y,1/2-z
1/2-x,1/2-y,1/2-z
1/2+x,1/2+y,1/2-z
1/2-x,1/2+y,1/2+z
1/2+x,1/2-y,1/2+z
loop_
_atom_site_type_symbol
_atom_site_label
_atom_site_fract_x
_atom_site_fract_y
_atom_site_fract_z
Si Si1 0.674239 0.244849 0.447729
Si Si2 0.000000 0.874309 0.053955
Si Si3 0.398120 0.711787 0.282751
Si Si4 0.898732 0.368895 0.700931
Si Si5 0.601083 0.500000 0.773258
Si Si6 0.726331 0.000000 0.450546
Si Si7 0.252452 0.248017 0.646706
Si Si8 0.206014 0.000000 0.357525
O O1 0.702516 0.282863 0.500000
O O2 0.584637 0.302956 0.431411
O O3 0.663059 0.109011 0.446124
O O4 0.744786 0.278439 0.408114
O O5 0.000000 0.000000 0.076852
O O6 0.000000 0.890203 0.000000
O O7 0.500000 0.696202 0.297269
O O8 0.384501 0.825641 0.253133
O O9 0.360426 0.611656 0.250450
O O10 0.339476 0.706168 0.328319
O O11 0.874212 0.500000 0.699813
O O12 0.837156 0.302194 0.665360
O O13 0.000000 0.347086 0.686067
O O14 0.500000 0.500000 0.764119
O O15 0.616415 0.500000 0.828315
O O16 0.774730 0.000000 0.500000
O O17 0.805588 0.000000 0.413056
O O18 0.257963 0.113570 0.655648
#
# Coordination Sequence:
#
# PCOD8289971 Si02
#       8
#    16   8  16  16   8   8  16   8
#     4   9  19  35  54  78 106 139 177 220 269 317
#     4   9  18  33  51  71 101 140 179 217 259 313
#     4  10  22  36  52  79 112 143 179 220 263 316
#     4  10  22  38  56  79 108 142 178 217 266 320
#     4  10  20  36  54  77 107 138 176 224 268 321
#     4   8  16  33  52  77 106 132 175 225 267 312
#     4  11  22  34  57  80 107 143 179 222 267 315
#     4  10  20  32  54  81 100 141 184 215 263 320
#
# _framework density 18.336848
#
# number of rings (size 3 to 8) (size 9 to 14) (size 15 to 20)
#    0.000    2.250    1.667    0.500    3.500    1.000 
#    0.000    1.667    0.000    0.750    0.000    5.833 
#    0.000    0.000    0.000    0.000    0.000    0.000 
#
# Total GULP energy -594669.255927 kJ/mol
# GULP energy per Si atom -12388.942832 kJ/mol
# Density = 1.829511 g / cm^3
# Si number density = 18.336848 Si / 1000 Ang^3
#
#
#
# Elastic Constant Matrix: (Units=GPa)
#
#
# Indices 1 2 3 4 5 6 
#
# 1 70.6815 34.1202 54.3288 0.0000 0.0000 0.0000
# 2 34.1202 101.3293 49.5321 0.0000 0.0000 0.0000
# 3 54.3288 49.5321 120.4910 0.0000 0.0000 0.0000
# 4 0.0000 0.0000 0.0000 17.3615 0.0000 0.0000
# 5 0.0000 0.0000 0.0000 0.0000 24.9361 0.0000
# 6 0.0000 0.0000 0.0000 0.0000 0.0000 20.6737
#
#
#
# Elastic Compliance Matrix: (Units=1/GPa)
#
#
# Indices 1 2 3 4 5 6 
#
# 1 0.022488 -0.003274 -0.008794 0.000000 0.000000 0.000000
# 2 -0.003274 0.012827 -0.003797 0.000000 0.000000 0.000000
# 3 -0.008794 -0.003797 0.013825 0.000000 0.000000 0.000000
# 4 0.000000 0.000000 0.000000 0.057599 0.000000 0.000000
# 5 0.000000 0.000000 0.000000 0.000000 0.040102 0.000000
# 6 0.000000 0.000000 0.000000 0.000000 0.000000 0.048371
#
#
# Mechanical properties :
#
#
# Convention : Reuss Voigt Hill
#
# Bulk Modulus (GPa) = 57.43397 63.16266 60.29831
# Shear Modulus (GPa) = 21.48278 22.89563 22.18921
#
# Velocity S-wave (km/s) = 3.42652 3.53741 3.48241
# Velocity P-wave (km/s) = 6.85889 7.15576 7.00890
#
# Compressibility (1/GPa) = 0.01741130
#
# Stress axis : x y z
#
# Youngs Moduli (GPa) = 44.46912 77.95950 72.33080
#
# Poissons Ratio (x) = 0.25520 0.63606
# Poissons Ratio (y) = 0.14557 0.27464
# Poissons Ratio (z) = 0.39105 0.29602
#
# Static dielectric constant tensor:
#      x y z
#    x 3.149530 0.000000 0.000000 
#    y 0.000000 4.006720 0.000000 
#    z 0.000000 0.000000 3.463860 
# 
# 
# High freq. dielectric constant tensor:
#      x y z
#    x 1.678410 0.000000 0.000000 
#    y 0.000000 1.724690 0.000000 
#    z 0.000000 0.000000 1.710030 
# 
# From -- ./inp_files/69935.got.cif
#   From: 2010.06.25/outbox.cif.g09.slc.cpg/sg71_35_cif.got.tgz:69935.got - 2010.06.28 04:59:45.
