data_PCOD8289294
_publ_section_title
;
Structure prediction by ZEFSAII (Michael W. Deem and Ramdas Pophale) SiO2 
 PCOD8289294
Probable space group: I M M M
;
_chemical_formula_sum "Si O2"
_cell_formula_units_Z 88
_cell_length_a 8.662954
_cell_length_b 22.919166
_cell_length_c 22.665505
_cell_angle_alpha 90.000000
_cell_angle_beta 90.000000
_cell_angle_gamma 90.000000
_cell_volume 4500.183451
_symmetry_space_group_name_H-M "I M M M"
_symmetry_group_IT_number 71
_symmetry_cell_setting 'orthorhombic'
loop_
_space_group_symop_operation_xyz
x,y,z
-x,-y,z
x,-y,-z
-x,y,-z
-x,-y,-z
x,y,-z
-x,y,z
x,-y,z
1/2+x,1/2+y,1/2+z
1/2-x,1/2-y,1/2+z
1/2+x,1/2-y,1/2-z
1/2-x,1/2+y,1/2-z
1/2-x,1/2-y,1/2-z
1/2+x,1/2+y,1/2-z
1/2-x,1/2+y,1/2+z
1/2+x,1/2-y,1/2+z
loop_
_atom_site_type_symbol
_atom_site_label
_atom_site_fract_x
_atom_site_fract_y
_atom_site_fract_z
Si Si1 0.183550 0.932582 0.500000
Si Si2 0.182618 0.354742 0.664717
Si Si3 0.317824 0.064171 0.935879
Si Si4 0.319456 0.374964 0.122272
Si Si5 0.821812 0.434749 0.226214
Si Si6 0.180415 0.737830 0.814443
O O1 0.241490 0.896567 0.442069
O O2 0.000000 0.935549 0.500000
O O3 0.246650 0.000000 0.500000
O O4 0.252115 0.395958 0.614504
O O5 0.224113 0.384877 0.726954
O O6 0.275542 0.296068 0.650849
O O7 0.000000 0.343431 0.659603
O O8 0.500000 0.059495 0.926952
O O9 0.244664 0.000000 0.930137
O O10 0.278293 0.090882 0.000000
O O11 0.500000 0.363139 0.119145
O O12 0.281760 0.426622 0.168176
O O13 0.241157 0.316311 0.147152
O O14 0.792636 0.500000 0.251781
O O15 0.000000 0.427179 0.208618
O O16 0.250000 0.750000 0.750000
O O17 0.000000 0.728621 0.806243
#
# Coordination Sequence:
#
# PCOD8289294 Si02
#       6
#     8  16  16  16  16  16
#     4   9  20  40  65  93 123 155 196 249 304 359
#     4  10  19  33  55  82 115 151 190 236 285 342
#     4   8  14  27  50  81 114 147 185 228 272 323
#     4  11  22  39  63  88 116 154 198 245 296 351
#     4  10  20  33  53  84 119 152 188 235 292 351
#     4  12  24  40  60  83 114 151 192 240 293 352
#
# _framework density 19.554759000000001
#
# number of rings (size 3 to 8) (size 9 to 14) (size 15 to 20)
#    0.000    1.909    1.818    3.818    0.000    3.273 
#    1.636    1.818    0.000    4.909    0.000    1.273 
#    0.000    0.000    0.000    0.000    0.000    0.000 
#
# Total GULP energy -545278.508629 kJ/mol
# GULP energy per Si atom -12392.693378 kJ/mol
# Density = 1.951025 g / cm^3
# Si number density = 19.554759 Si / 1000 Ang^3
#
#
#
# Elastic Constant Matrix: (Units=GPa)
#
#
# Indices 1 2 3 4 5 6 
#
# 1 63.7743 36.2904 35.4794 0.0000 0.0000 0.0000
# 2 36.2904 139.3292 66.2333 0.0000 0.0000 0.0000
# 3 35.4794 66.2333 143.5546 0.0000 0.0000 0.0000
# 4 0.0000 0.0000 0.0000 30.2924 0.0000 0.0000
# 5 0.0000 0.0000 0.0000 0.0000 20.4115 0.0000
# 6 0.0000 0.0000 0.0000 0.0000 0.0000 26.9525
#
#
#
# Elastic Compliance Matrix: (Units=1/GPa)
#
#
# Indices 1 2 3 4 5 6 
#
# 1 0.019471 -0.003566 -0.003167 0.000000 0.000000 0.000000
# 2 -0.003566 0.009847 -0.003662 0.000000 0.000000 0.000000
# 3 -0.003167 -0.003662 0.009438 0.000000 0.000000 0.000000
# 4 0.000000 0.000000 0.000000 0.033012 0.000000 0.000000
# 5 0.000000 0.000000 0.000000 0.000000 0.048992 0.000000
# 6 0.000000 0.000000 0.000000 0.000000 0.000000 0.037102
#
#
# Mechanical properties :
#
#
# Convention : Reuss Voigt Hill
#
# Bulk Modulus (GPa) = 55.65868 69.18493 62.42181
# Shear Modulus (GPa) = 27.07959 29.44162 28.26061
#
# Velocity S-wave (km/s) = 3.72534 3.88441 3.80571
# Velocity P-wave (km/s) = 6.85777 7.45487 7.16255
#
# Compressibility (1/GPa) = 0.01796665
#
# Stress axis : x y z
#
# Youngs Moduli (GPa) = 51.35720 101.55589 105.95256
#
# Poissons Ratio (x) = 0.36216 0.33555
# Poissons Ratio (y) = 0.18315 0.38797
# Poissons Ratio (z) = 0.16265 0.37187
#
# Static dielectric constant tensor:
#      x y z
#    x 3.335450 0.000000 0.000000 
#    y 0.000000 4.119860 0.000000 
#    z 0.000000 0.000000 3.795440 
# 
# 
# High freq. dielectric constant tensor:
#      x y z
#    x 1.726500 0.000000 0.000000 
#    y 0.000000 1.776380 0.000000 
#    z 0.000000 0.000000 1.763390 
# 
# From -- ./inp_files/50512.got.cif
#   From: 2010.06.25/outbox.cif.g09.slc.cpg/sg71_26_cif.got.tgz:50512.got - 2010.06.28 04:59:45.
