data_PCOD8289922
_publ_section_title
;
Structure prediction by ZEFSAII (Michael W. Deem and Ramdas Pophale) SiO2 
 PCOD8289922
Probable space group: I M M M
;
_chemical_formula_sum "Si O2"
_cell_formula_units_Z 88
_cell_length_a 29.341567
_cell_length_b 17.035402
_cell_length_c 9.884531
_cell_angle_alpha 90.000000
_cell_angle_beta 90.000000
_cell_angle_gamma 90.000000
_cell_volume 4940.737244
_symmetry_space_group_name_H-M "I M M M"
_symmetry_group_IT_number 71
_symmetry_cell_setting 'orthorhombic'
loop_
_space_group_symop_operation_xyz
x,y,z
-x,-y,z
x,-y,-z
-x,y,-z
-x,-y,-z
x,y,-z
-x,y,z
x,-y,z
1/2+x,1/2+y,1/2+z
1/2-x,1/2-y,1/2+z
1/2+x,1/2-y,1/2-z
1/2-x,1/2+y,1/2-z
1/2-x,1/2-y,1/2-z
1/2+x,1/2+y,1/2-z
1/2-x,1/2+y,1/2+z
1/2+x,1/2-y,1/2+z
loop_
_atom_site_type_symbol
_atom_site_label
_atom_site_fract_x
_atom_site_fract_y
_atom_site_fract_z
Si Si1 0.380979 0.134459 0.660026
Si Si2 0.718054 0.908206 0.650615
Si Si3 0.297884 0.408576 0.343931
Si Si4 0.553778 0.587762 0.849974
Si Si5 0.387901 0.686666 0.341927
Si Si6 0.551960 0.000000 0.661388
O O1 0.379609 0.125675 0.500000
O O2 0.331333 0.109727 0.715226
O O3 0.389300 0.223318 0.705615
O O4 0.420949 0.077169 0.715608
O O5 0.723501 0.869876 0.500000
O O6 0.756566 0.876222 0.752239
O O7 0.724197 0.000000 0.636661
O O8 0.284259 0.396302 0.500000
O O9 0.309446 0.500000 0.315671
O O10 0.340610 0.354918 0.303831
O O11 0.500000 0.590753 0.845005
O O12 0.571093 0.500000 0.817105
O O13 0.571622 0.646134 0.737448
O O14 0.570931 0.612257 0.000000
O O15 0.398111 0.678355 0.500000
O O16 0.500000 0.000000 0.718456
O O17 0.550441 0.000000 0.500000
#
# Coordination Sequence:
#
# PCOD8289922 Si02
#       6
#    16  16  16  16  16   8
#     4   9  17  30  47  71 101 130 164 209 256 301
#     4   9  16  29  50  70  93 130 173 210 245 292
#     4   9  18  31  45  66  99 134 164 200 250 301
#     4   9  19  36  55  73  97 132 169 203 242 293
#     4  10  20  32  49  75 106 133 162 207 256 300
#     4   9  16  28  48  72  99 131 165 207 262 313
#
# _framework density 17.811108000000001
#
# number of rings (size 3 to 8) (size 9 to 14) (size 15 to 20)
#    0.000    2.818    0.909    1.091    0.000    3.636 
#    0.000    5.455    0.000    0.000    0.000    0.000 
#    0.000    2.909    0.000    0.000    0.000    0.000 
#
# Total GULP energy -545428.702694 kJ/mol
# GULP energy per Si atom -12396.106879 kJ/mol
# Density = 1.777057 g / cm^3
# Si number density = 17.811108 Si / 1000 Ang^3
#
#
#
# Elastic Constant Matrix: (Units=GPa)
#
#
# Indices 1 2 3 4 5 6 
#
# 1 98.2486 63.7987 39.9069 0.0000 0.0000 0.0000
# 2 63.7987 104.3896 33.7764 0.0000 0.0000 0.0000
# 3 39.9069 33.7764 47.1286 0.0000 0.0000 0.0000
# 4 0.0000 0.0000 0.0000 13.5129 0.0000 0.0000
# 5 0.0000 0.0000 0.0000 0.0000 27.0179 0.0000
# 6 0.0000 0.0000 0.0000 0.0000 0.0000 16.3496
#
#
#
# Elastic Compliance Matrix: (Units=1/GPa)
#
#
# Indices 1 2 3 4 5 6 
#
# 1 0.020406 -0.008958 -0.010859 0.000000 0.000000 0.000000
# 2 -0.008958 0.016404 -0.004171 0.000000 0.000000 0.000000
# 3 -0.010859 -0.004171 0.033403 0.000000 0.000000 0.000000
# 4 0.000000 0.000000 0.000000 0.074003 0.000000 0.000000
# 5 0.000000 0.000000 0.000000 0.000000 0.037012 0.000000
# 6 0.000000 0.000000 0.000000 0.000000 0.000000 0.061164
#
#
# Mechanical properties :
#
#
# Convention : Reuss Voigt Hill
#
# Bulk Modulus (GPa) = 44.97092 58.30342 51.63717
# Shear Modulus (GPa) = 16.79091 18.86174 17.82632
#
# Velocity S-wave (km/s) = 3.07371 3.25774 3.16706
# Velocity P-wave (km/s) = 6.15634 6.85243 6.51369
#
# Compressibility (1/GPa) = 0.02223659
#
# Stress axis : x y z
#
# Youngs Moduli (GPa) = 49.00576 60.96191 29.93724
#
# Poissons Ratio (x) = 0.54607 0.32509
# Poissons Ratio (y) = 0.43897 0.12488
# Poissons Ratio (z) = 0.53216 0.25429
#
# Static dielectric constant tensor:
#      x y z
#    x 3.334750 0.000000 0.000000 
#    y 0.000000 3.374360 0.000000 
#    z 0.000000 0.000000 3.208060 
# 
# 
# High freq. dielectric constant tensor:
#      x y z
#    x 1.691500 0.000000 0.000000 
#    y 0.000000 1.686460 0.000000 
#    z 0.000000 0.000000 1.655980 
# 
# From -- ./inp_files/16687.got.cif
#   From: 2010.06.25/outbox.cif.g09.slc.cpg/sg71_9_cif.got.tgz:16687.got - 2010.06.28 04:59:45.
