data_PCOD8289094
_publ_section_title
;
Structure prediction by ZEFSAII (Michael W. Deem and Ramdas Pophale) SiO2 
 PCOD8289094
Probable space group: I M M M
;
_chemical_formula_sum "Si O2"
_cell_formula_units_Z 88
_cell_length_a 9.208173
_cell_length_b 30.090411
_cell_length_c 18.027110
_cell_angle_alpha 90.000000
_cell_angle_beta 90.000000
_cell_angle_gamma 90.000000
_cell_volume 4994.910359
_symmetry_space_group_name_H-M "I M M M"
_symmetry_group_IT_number 71
_symmetry_cell_setting 'orthorhombic'
loop_
_space_group_symop_operation_xyz
x,y,z
-x,-y,z
x,-y,-z
-x,y,-z
-x,-y,-z
x,y,-z
-x,y,z
x,-y,z
1/2+x,1/2+y,1/2+z
1/2-x,1/2-y,1/2+z
1/2+x,1/2-y,1/2-z
1/2-x,1/2+y,1/2-z
1/2-x,1/2-y,1/2-z
1/2+x,1/2+y,1/2-z
1/2-x,1/2+y,1/2+z
1/2+x,1/2-y,1/2+z
loop_
_atom_site_type_symbol
_atom_site_label
_atom_site_fract_x
_atom_site_fract_y
_atom_site_fract_z
Si Si1 0.659775 0.736808 0.000000
Si Si2 0.669116 0.596715 0.911848
Si Si3 0.165190 0.342405 0.500000
Si Si4 0.834016 0.350103 0.210019
Si Si5 0.829200 0.000000 0.580397
Si Si6 0.661674 0.238287 0.363400
Si Si7 0.329096 0.660030 0.352582
O O1 0.661908 0.789673 0.000000
O O2 0.735856 0.718570 0.073022
O O3 0.500000 0.716441 0.000000
O O4 0.500000 0.606785 0.896231
O O5 0.768363 0.629900 0.865169
O O6 0.712202 0.546936 0.881209
O O7 0.701433 0.601521 0.000000
O O8 0.251941 0.358502 0.573043
O O9 0.000000 0.361278 0.500000
O O10 0.828212 0.296173 0.204526
O O11 0.741236 0.364951 0.281900
O O12 0.000000 0.366115 0.219734
O O13 0.753255 0.000000 0.500000
O O14 0.000000 0.000000 0.568133
O O15 0.500000 0.240061 0.396812
O O16 0.705506 0.287908 0.339821
O O17 0.500000 0.649698 0.356929
#
# Coordination Sequence:
#
# PCOD8289094 Si02
#       7
#     8  16   8  16   8  16  16
#     4   9  17  27  43  63  81 108 153 198 233 275
#     4   9  18  33  52  73  96 125 162 199 237 284
#     4   9  17  31  49  67  87 112 147 194 243 287
#     4  11  22  32  44  66  97 126 154 196 246 287
#     4   7  12  28  53  73  91 120 157 196 235 279
#     4   9  19  32  44  59  86 124 159 196 241 285
#     4  10  19  33  50  66  86 120 165 204 238 281
#
# _framework density 17.617934999999999
#
# number of rings (size 3 to 8) (size 9 to 14) (size 15 to 20)
#    0.000    2.636    0.000    3.273    1.273    4.727 
#    0.000    0.455    0.000    1.636    0.000    0.000 
#    0.000    0.727    0.000    7.818    0.000    3.455 
#
# Total GULP energy -545199.265721 kJ/mol
# GULP energy per Si atom -12390.892403 kJ/mol
# Density = 1.757784 g / cm^3
# Si number density = 17.617935 Si / 1000 Ang^3
#
#
#
# Elastic Constant Matrix: (Units=GPa)
#
#
# Indices 1 2 3 4 5 6 
#
# 1 119.1398 15.7064 67.5810 0.0000 0.0000 0.0000
# 2 15.7064 33.2803 15.4714 0.0000 0.0000 0.0000
# 3 67.5810 15.4714 107.6743 0.0001 0.0000 0.0000
# 4 0.0000 0.0000 0.0001 9.0731 0.0000 0.0000
# 5 0.0000 0.0000 0.0000 0.0000 34.3404 0.0000
# 6 0.0000 0.0000 0.0000 0.0000 0.0000 11.3803
#
#
#
# Elastic Compliance Matrix: (Units=1/GPa)
#
#
# Indices 1 2 3 4 5 6 
#
# 1 0.013234 -0.002555 -0.007939 0.000000 0.000000 0.000000
# 2 -0.002555 0.032692 -0.003094 0.000000 0.000000 0.000000
# 3 -0.007939 -0.003094 0.014715 0.000000 0.000000 0.000000
# 4 0.000000 0.000000 0.000000 0.110216 0.000000 0.000000
# 5 0.000000 0.000000 0.000000 0.000000 0.029120 0.000000
# 6 0.000000 0.000000 0.000000 0.000000 0.000000 0.087871
#
#
# Mechanical properties :
#
#
# Convention : Reuss Voigt Hill
#
# Bulk Modulus (GPa) = 29.88213 50.84579 40.36396
# Shear Modulus (GPa) = 15.32906 21.71445 18.52175
#
# Velocity S-wave (km/s) = 2.95292 3.51453 3.24589
# Velocity P-wave (km/s) = 5.35017 6.73737 6.08344
#
# Compressibility (1/GPa) = 0.03346482
#
# Stress axis : x y z
#
# Youngs Moduli (GPa) = 75.56557 30.58872 67.95988
#
# Poissons Ratio (x) = 0.07815 0.53952
# Poissons Ratio (y) = 0.19306 0.21026
# Poissons Ratio (z) = 0.59990 0.09464
#
# Static dielectric constant tensor:
#      x y z
#    x 3.296670 0.000000 0.000000 
#    y 0.000000 3.002280 0.000000 
#    z 0.000000 0.000000 3.117420 
# 
# 
# High freq. dielectric constant tensor:
#      x y z
#    x 1.684710 0.000000 0.000000 
#    y 0.000000 1.628270 0.000000 
#    z 0.000000 0.000000 1.670400 
# 
# From -- ./inp_files/16726.got.cif
#   From: 2010.06.25/outbox.cif.g09.slc.cpg/sg71_9_cif.got.tgz:16726.got - 2010.06.28 04:59:45.
