data_PCOD8289687
_publ_section_title
;
Structure prediction by ZEFSAII (Michael W. Deem and Ramdas Pophale) SiO2 
 PCOD8289687
Probable space group: I M M M
;
_chemical_formula_sum "Si O2"
_cell_formula_units_Z 56
_cell_length_a 18.528554
_cell_length_b 13.616557
_cell_length_c 13.798970
_cell_angle_alpha 90.000000
_cell_angle_beta 90.000000
_cell_angle_gamma 90.000000
_cell_volume 3481.412677
_symmetry_space_group_name_H-M "I M M M"
_symmetry_group_IT_number 71
_symmetry_cell_setting 'orthorhombic'
loop_
_space_group_symop_operation_xyz
x,y,z
-x,-y,z
x,-y,-z
-x,y,-z
-x,-y,-z
x,y,-z
-x,y,z
x,-y,z
1/2+x,1/2+y,1/2+z
1/2-x,1/2-y,1/2+z
1/2+x,1/2-y,1/2-z
1/2-x,1/2+y,1/2-z
1/2-x,1/2-y,1/2-z
1/2+x,1/2+y,1/2-z
1/2-x,1/2+y,1/2+z
1/2+x,1/2-y,1/2+z
loop_
_atom_site_type_symbol
_atom_site_label
_atom_site_fract_x
_atom_site_fract_y
_atom_site_fract_z
Si Si1 0.919548 0.240088 0.258802
Si Si2 0.000000 0.114944 0.392362
Si Si3 0.665667 0.113642 0.890354
Si Si4 0.333798 0.611180 0.612072
O O1 0.877799 0.329950 0.307456
O O2 0.877475 0.194563 0.168498
O O3 0.000000 0.275493 0.225524
O O4 0.927984 0.154480 0.339340
O O5 0.000000 0.157336 0.500000
O O6 0.000000 0.000000 0.390043
O O7 0.749765 0.130803 0.870599
O O8 0.645508 0.000000 0.879619
O O9 0.646054 0.148635 0.000000
O O10 0.353914 0.623226 0.500000
O O11 0.353904 0.500000 0.645719
#
# Coordination Sequence:
#
# PCOD8289687 Si02
#       4
#    16   8  16  16
#     4  10  20  29  48  72 100 131 161 194 249 295
#     4   9  18  30  42  64  98 129 156 190 240 295
#     4   9  18  33  52  73  98 129 166 207 246 287
#     4   9  18  33  52  73  98 129 166 207 246 287
#
# _framework density 16.085425000000001
#
# number of rings (size 3 to 8) (size 9 to 14) (size 15 to 20)
#    0.857    1.857    0.000    4.286    0.000    1.143 
#    0.000    2.857    0.000    0.857    0.000   10.000 
#    0.000    0.000    0.000    0.000    0.000    0.000 
#
# Total GULP energy -346964.071287 kJ/mol
# GULP energy per Si atom -12391.573975 kJ/mol
# Density = 1.604881 g / cm^3
# Si number density = 16.085425 Si / 1000 Ang^3
#
#
#
# Elastic Constant Matrix: (Units=GPa)
#
#
# Indices 1 2 3 4 5 6 
#
# 1 87.6567 52.4106 53.6397 0.0000 0.0000 0.0000
# 2 52.4106 71.9968 51.4446 0.0000 0.0000 0.0000
# 3 53.6397 51.4446 81.2377 0.0000 0.0000 0.0000
# 4 0.0000 0.0000 0.0000 38.4710 0.0000 0.0000
# 5 0.0000 0.0000 0.0000 0.0000 10.3356 0.0000
# 6 0.0000 0.0000 0.0000 0.0000 0.0000 23.0824
#
#
#
# Elastic Compliance Matrix: (Units=1/GPa)
#
#
# Indices 1 2 3 4 5 6 
#
# 1 0.022930 -0.010728 -0.008347 0.000000 0.000000 0.000000
# 2 -0.010728 0.030388 -0.012160 0.000000 0.000000 0.000000
# 3 -0.008347 -0.012160 0.025521 0.000000 0.000000 0.000000
# 4 0.000000 0.000000 0.000000 0.025994 0.000000 0.000000
# 5 0.000000 0.000000 0.000000 0.000000 0.096753 0.000000
# 6 0.000000 0.000000 0.000000 0.000000 0.000000 0.043323
#
#
# Mechanical properties :
#
#
# Convention : Reuss Voigt Hill
#
# Bulk Modulus (GPa) = 61.08816 61.76457 61.42636
# Shear Modulus (GPa) = 15.98290 19.93755 17.96022
#
# Velocity S-wave (km/s) = 3.15560 3.52444 3.34511
# Velocity P-wave (km/s) = 7.16498 7.41913 7.29316
#
# Compressibility (1/GPa) = 0.01636979
#
# Stress axis : x y z
#
# Youngs Moduli (GPa) = 43.61069 32.90784 39.18346
#
# Poissons Ratio (x) = 0.35304 0.32705
# Poissons Ratio (y) = 0.46786 0.47646
# Poissons Ratio (z) = 0.36400 0.40015
#
# Static dielectric constant tensor:
#      x y z
#    x 2.949740 0.000000 0.000000 
#    y 0.000000 2.850380 0.000000 
#    z 0.000000 0.000000 2.982940 
# 
# 
# High freq. dielectric constant tensor:
#      x y z
#    x 1.614050 0.000000 0.000000 
#    y 0.000000 1.609170 0.000000 
#    z 0.000000 0.000000 1.613750 
# 
# From -- ./inp_files/25230.got.cif
#   From: 2010.06.25/outbox.cif.g09.slc.cpg/sg71_13_cif.got.tgz:25230.got - 2010.06.28 04:59:45.
