data_PCOD8289109
_publ_section_title
;
Structure prediction by ZEFSAII (Michael W. Deem and Ramdas Pophale) SiO2 
 PCOD8289109
Probable space group: I M M M
;
_chemical_formula_sum "Si O2"
_cell_formula_units_Z 96
_cell_length_a 24.600177
_cell_length_b 25.252404
_cell_length_c 8.976302
_cell_angle_alpha 90.000000
_cell_angle_beta 90.000000
_cell_angle_gamma 90.000000
_cell_volume 5576.200953
_symmetry_space_group_name_H-M "I M M M"
_symmetry_group_IT_number 71
_symmetry_cell_setting 'orthorhombic'
loop_
_space_group_symop_operation_xyz
x,y,z
-x,-y,z
x,-y,-z
-x,y,-z
-x,-y,-z
x,y,-z
-x,y,z
x,-y,z
1/2+x,1/2+y,1/2+z
1/2-x,1/2-y,1/2+z
1/2+x,1/2-y,1/2-z
1/2-x,1/2+y,1/2-z
1/2-x,1/2-y,1/2-z
1/2+x,1/2+y,1/2-z
1/2-x,1/2+y,1/2+z
1/2+x,1/2-y,1/2+z
loop_
_atom_site_type_symbol
_atom_site_label
_atom_site_fract_x
_atom_site_fract_y
_atom_site_fract_z
Si Si1 0.000000 0.941752 0.175760
Si Si2 0.000000 0.780696 0.324872
Si Si3 0.438868 0.000000 0.173479
Si Si4 0.687830 0.300464 0.673629
Si Si5 0.690680 0.192512 0.825852
Si Si6 0.418475 0.354457 0.673825
Si Si7 0.402884 0.886449 0.174686
Si Si8 0.000000 0.329763 0.825491
O O1 0.054774 0.910232 0.226393
O O2 0.000000 0.000000 0.251360
O O3 0.000000 0.948580 0.000000
O O4 0.053998 0.806963 0.261303
O O5 0.000000 0.786054 0.500000
O O6 0.000000 0.720652 0.278513
O O7 0.402526 0.051215 0.216002
O O8 0.500000 0.000000 0.247805
O O9 0.449598 0.000000 0.000000
O O10 0.688517 0.287926 0.500000
O O11 0.668228 0.246020 0.750429
O O12 0.747496 0.318486 0.729459
O O13 0.645923 0.348882 0.708359
O O14 0.654635 0.141115 0.785215
O O15 0.689024 0.203348 0.000000
O O16 0.430931 0.346640 0.500000
O O17 0.447097 0.862491 0.283918
O O18 0.417455 0.877463 0.000000
O O19 0.000000 0.315505 0.000000
#
# Coordination Sequence:
#
# PCOD8289109 Si02
#       8
#     8   8   8  16  16  16  16   8
#     4   8  14  26  46  69  90 121 160 190 225 275
#     4  11  21  31  45  69  99 125 155 192 235 286
#     4   9  16  30  52  70  88 122 164 197 238 283
#     4   9  17  30  47  68  96 125 153 188 232 279
#     4   9  18  30  47  70  94 121 155 192 229 276
#     4   9  17  30  48  68  95 128 157 190 234 281
#     4  10  19  33  51  69  91 124 163 198 235 282
#     4  12  23  32  45  68  98 124 153 195 243 287
#
# _framework density 17.216023
#
# number of rings (size 3 to 8) (size 9 to 14) (size 15 to 20)
#    0.000    2.500    0.833    3.000    0.000    4.000 
#    0.000    0.833    1.833    4.000    0.000    0.000 
#    0.000    0.000    0.333    0.000    0.667    0.000 
#
# Total GULP energy -594836.334561 kJ/mol
# GULP energy per Si atom -12392.423637 kJ/mol
# Density = 1.717684 g / cm^3
# Si number density = 17.216023 Si / 1000 Ang^3
#
#
#
# Elastic Constant Matrix: (Units=GPa)
#
#
# Indices 1 2 3 4 5 6 
#
# 1 121.6891 74.0249 23.1063 0.0000 0.0000 0.0000
# 2 74.0249 135.3748 12.8448 0.0000 0.0000 0.0000
# 3 23.1063 12.8448 29.5895 0.0000 0.0000 0.0000
# 4 0.0000 0.0000 0.0000 17.6103 0.0000 0.0000
# 5 0.0000 0.0000 0.0000 0.0000 23.5034 0.0000
# 6 0.0000 0.0000 0.0000 0.0000 0.0000 -108.2089
#
#
#
# Elastic Compliance Matrix: (Units=1/GPa)
#
#
# Indices 1 2 3 4 5 6 
#
# 1 0.013871 -0.006839 -0.007863 0.000000 0.000000 0.000000
# 2 -0.006839 0.011076 0.000532 0.000000 0.000000 0.000000
# 3 -0.007863 0.000532 0.039705 0.000000 0.000000 0.000000
# 4 0.000000 0.000000 0.000000 0.056785 0.000000 0.000000
# 5 0.000000 0.000000 0.000000 0.000000 0.042547 0.000000
# 6 0.000000 0.000000 0.000000 0.000000 0.000000 -0.009241
#
#
# Mechanical properties :
#
#
# Convention : Reuss Voigt Hill
#
# Bulk Modulus (GPa) = 27.53850 56.28947 41.91398
# Shear Modulus (GPa) = 25.61673 -1.64054 11.98810
#
# Velocity S-wave (km/s) = 3.86159 -0.97723 2.64168
# Velocity P-wave (km/s) = 5.99275 5.61192 5.80546
#
# Compressibility (1/GPa) = 0.03631280
#
# Stress axis : x y z
#
# Youngs Moduli (GPa) = 72.09452 90.28646 25.18583
#
# Poissons Ratio (x) = 0.61744 0.19803
# Poissons Ratio (y) = 0.49303 -0.01340
# Poissons Ratio (z) = 0.56687 -0.04805
#
# Static dielectric constant tensor:
#      x y z
#    x 3.590080 0.000000 0.000000 
#    y 0.000000 3.387400 0.000000 
#    z 0.000000 0.000000 3.017430 
# 
# 
# High freq. dielectric constant tensor:
#      x y z
#    x 1.665020 0.000000 0.000000 
#    y 0.000000 1.652120 0.000000 
#    z 0.000000 0.000000 1.643540 
# 
# From -- ./inp_files/15244.got.cif
#   From: 2010.06.25/outbox.cif.g09.slc.cpg/sg71_8_cif.got.tgz:15244.got - 2010.06.28 04:59:45.
