data_PCOD8289014
_publ_section_title
;
Structure prediction by ZEFSAII (Michael W. Deem and Ramdas Pophale) SiO2 
 PCOD8289014
Probable space group: I M M M
;
_chemical_formula_sum "Si O2"
_cell_formula_units_Z 88
_cell_length_a 8.900600
_cell_length_b 28.761121
_cell_length_c 17.856532
_cell_angle_alpha 90.000000
_cell_angle_beta 90.000000
_cell_angle_gamma 90.000000
_cell_volume 4571.115654
_symmetry_space_group_name_H-M "I M M M"
_symmetry_group_IT_number 71
_symmetry_cell_setting 'orthorhombic'
loop_
_space_group_symop_operation_xyz
x,y,z
-x,-y,z
x,-y,-z
-x,y,-z
-x,-y,-z
x,y,-z
-x,y,z
x,-y,z
1/2+x,1/2+y,1/2+z
1/2-x,1/2-y,1/2+z
1/2+x,1/2-y,1/2-z
1/2-x,1/2+y,1/2-z
1/2-x,1/2-y,1/2-z
1/2+x,1/2+y,1/2-z
1/2-x,1/2+y,1/2+z
1/2+x,1/2-y,1/2+z
loop_
_atom_site_type_symbol
_atom_site_label
_atom_site_fract_x
_atom_site_fract_y
_atom_site_fract_z
Si Si1 0.178237 0.113853 0.082782
Si Si2 0.326619 0.307250 0.911845
Si Si3 0.333569 0.284533 0.411235
Si Si4 0.169390 0.945087 0.500000
Si Si5 0.177506 0.397929 0.860878
Si Si6 0.676501 0.554013 0.278771
O O1 0.233404 0.164851 0.111618
O O2 0.227839 0.074210 0.140822
O O3 0.000000 0.116514 0.076729
O O4 0.244571 0.102084 0.000000
O O5 0.500000 0.313630 0.892092
O O6 0.275802 0.256395 0.883302
O O7 0.231826 0.344934 0.866241
O O8 0.295742 0.314154 0.000000
O O9 0.345432 0.283282 0.500000
O O10 0.500000 0.276729 0.376641
O O11 0.253116 0.928424 0.573422
O O12 0.000000 0.924619 0.500000
O O13 0.165644 0.000000 0.500000
O O14 0.228773 0.419323 0.782913
O O15 0.000000 0.399711 0.867484
O O16 0.500000 0.562025 0.264141
O O17 0.718126 0.500000 0.277429
#
# Coordination Sequence:
#
# PCOD8289014 Si02
#       6
#    16  16  16   8  16  16
#     4   8  15  31  57  87 114 143 182 229 279 332
#     4  10  19  32  53  80 111 144 182 228 276 326
#     4   8  14  27  50  79 111 143 178 221 272 328
#     4  11  23  39  59  81 107 141 185 235 282 327
#     4  12  24  37  55  79 110 148 190 230 274 330
#     4  10  21  37  57  81 112 148 185 231 285 333
#
# _framework density 19.251318000000001
#
# number of rings (size 3 to 8) (size 9 to 14) (size 15 to 20)
#    0.000    2.273    0.909    4.091    0.000    4.364 
#    0.000    3.636    0.000    1.636    0.000    1.273 
#    0.000    0.000    0.000    0.000    0.000    0.000 
#
# Total GULP energy -545534.385478 kJ/mol
# GULP energy per Si atom -12398.508761 kJ/mol
# Density = 1.920750 g / cm^3
# Si number density = 19.251318 Si / 1000 Ang^3
#
#
#
# Elastic Constant Matrix: (Units=GPa)
#
#
# Indices 1 2 3 4 5 6 
#
# 1 95.6890 37.2066 39.0988 0.0000 -0.0056 0.0000
# 2 37.2066 95.1037 43.8793 -0.0005 -0.0155 0.0000
# 3 39.0988 43.8793 93.1187 0.0000 -0.0248 -0.0001
# 4 0.0000 -0.0005 0.0000 37.9588 0.0061 0.0001
# 5 -0.0056 -0.0155 -0.0248 0.0061 -640.3792 0.0009
# 6 0.0000 0.0000 -0.0001 0.0001 0.0009 24.0641
#
#
#
# Elastic Compliance Matrix: (Units=1/GPa)
#
#
# Indices 1 2 3 4 5 6 
#
# 1 0.013417 -0.003386 -0.004038 0.000000 0.000000 0.000000
# 2 -0.003386 0.014290 -0.005312 0.000000 0.000000 0.000000
# 3 -0.004038 -0.005312 0.014938 0.000000 0.000000 0.000000
# 4 0.000000 0.000000 0.000000 0.026344 0.000000 0.000000
# 5 0.000000 0.000000 0.000000 0.000000 -0.001562 0.000000
# 6 0.000000 0.000000 0.000000 0.000000 0.000000 0.041556
#
#
# Mechanical properties :
#
#
# Convention : Reuss Voigt Hill
#
# Bulk Modulus (GPa) = 58.23177 58.25341 58.24259
# Shear Modulus (GPa) = 35.66833 -104.75615 -34.54391
#
# Velocity S-wave (km/s) = 4.30906 -7.38466 -4.24059
# Velocity P-wave (km/s) = 7.42099 6.51044 2.51847
#
# Compressibility (1/GPa) = 0.01717276
#
# Stress axis : x y z
#
# Youngs Moduli (GPa) = 74.53216 69.97667 66.94466
#
# Poissons Ratio (x) = 0.23694 0.27032
# Poissons Ratio (y) = 0.25236 0.35563
# Poissons Ratio (z) = 0.30096 0.37173
#
# Static dielectric constant tensor:
#      x y z
#    x 3.390330 0.000000 0.000000 
#    y 0.000000 3.857340 0.000000 
#    z 0.000000 0.000000 3.471930 
# 
# 
# High freq. dielectric constant tensor:
#      x y z
#    x 1.727750 0.000000 0.000000 
#    y 0.000000 1.765720 0.000000 
#    z 0.000000 0.000000 1.726440 
# 
# From -- ./inp_files/42460.got.cif
#   From: 2010.06.25/outbox.cif.g09.slc.cpg/sg71_22_cif.got.tgz:42460.got - 2010.06.28 04:59:45.
