data_PCOD8289269
_publ_section_title
;
Structure prediction by ZEFSAII (Michael W. Deem and Ramdas Pophale) SiO2 
 PCOD8289269
Probable space group: I M M M
;
_chemical_formula_sum "Si O2"
_cell_formula_units_Z 104
_cell_length_a 28.086832
_cell_length_b 8.974783
_cell_length_c 23.036528
_cell_angle_alpha 90.000000
_cell_angle_beta 90.000000
_cell_angle_gamma 90.000000
_cell_volume 5806.891845
_symmetry_space_group_name_H-M "I M M M"
_symmetry_group_IT_number 71
_symmetry_cell_setting 'orthorhombic'
loop_
_space_group_symop_operation_xyz
x,y,z
-x,-y,z
x,-y,-z
-x,y,-z
-x,-y,-z
x,y,-z
-x,y,z
x,-y,z
1/2+x,1/2+y,1/2+z
1/2-x,1/2-y,1/2+z
1/2+x,1/2-y,1/2-z
1/2-x,1/2+y,1/2-z
1/2-x,1/2-y,1/2-z
1/2+x,1/2+y,1/2-z
1/2-x,1/2+y,1/2+z
1/2+x,1/2-y,1/2+z
loop_
_atom_site_type_symbol
_atom_site_label
_atom_site_fract_x
_atom_site_fract_y
_atom_site_fract_z
Si Si1 0.055113 0.322738 0.500000
Si Si2 0.947308 0.176478 0.937698
Si Si3 0.390573 0.172360 0.884181
Si Si4 0.111193 0.823587 0.168262
Si Si5 0.806640 0.826848 0.681069
Si Si6 0.200118 0.671971 0.804646
Si Si7 0.054576 0.671578 0.268034
O O1 0.052553 0.500000 0.500000
O O2 0.084704 0.266559 0.443328
O O3 0.000000 0.261997 0.500000
O O4 0.918987 0.244656 0.884343
O O5 0.000000 0.243984 0.934712
O O6 0.949499 0.000000 0.931172
O O7 0.924020 0.219435 0.000000
O O8 0.341463 0.257894 0.867806
O O9 0.429595 0.195605 0.834214
O O10 0.376693 0.000000 0.891556
O O11 0.162244 0.751716 0.154347
O O12 0.087995 0.773557 0.228664
O O13 0.115419 0.000000 0.168028
O O14 0.809759 0.747600 0.742722
O O15 0.751086 0.805418 0.664281
O O16 0.819727 0.000000 0.688694
O O17 0.188532 0.500000 0.795236
O O18 0.060590 0.500000 0.249547
O O19 0.000000 0.723650 0.262062
#
# Coordination Sequence:
#
# PCOD8289269 Si02
#       7
#     8  16  16  16  16  16  16
#     4   9  18  34  57  83 109 143 189 229 264 319
#     4   8  15  29  48  70  99 134 169 205 247 294
#     4  10  19  33  55  79 106 141 179 221 266 313
#     4  11  20  30  50  79 105 133 170 214 260 304
#     4  10  20  34  54  78 103 134 171 214 262 316
#     4  10  20  34  52  76 106 137 169 207 260 319
#     4  10  20  32  47  72 107 142 171 206 259 315
#
# _framework density 17.909752999999998
#
# number of rings (size 3 to 8) (size 9 to 14) (size 15 to 20)
#    0.000    2.231    1.538    2.769    0.000    4.615 
#    0.000    0.385    1.692    3.692    0.000    5.385 
#    0.000    0.000    0.000    0.000    0.000    0.000 
#
# Total GULP energy -644422.383928 kJ/mol
# GULP energy per Si atom -12392.738152 kJ/mol
# Density = 1.786899 g / cm^3
# Si number density = 17.909753 Si / 1000 Ang^3
#
#
#
# Elastic Constant Matrix: (Units=GPa)
#
#
# Indices 1 2 3 4 5 6 
#
# 1 105.2056 54.8360 47.7462 0.0000 0.0000 0.0000
# 2 54.8360 73.4439 32.5846 0.0000 0.0000 0.0000
# 3 47.7462 32.5846 98.5715 0.0000 0.0000 0.0000
# 4 0.0000 0.0000 0.0000 14.4763 0.0000 0.0000
# 5 0.0000 0.0000 0.0000 0.0000 19.0089 0.0000
# 6 0.0000 0.0000 0.0000 0.0000 0.0000 29.2324
#
#
#
# Elastic Compliance Matrix: (Units=1/GPa)
#
#
# Indices 1 2 3 4 5 6 
#
# 1 0.017318 -0.010791 -0.004821 0.000000 0.000000 0.000000
# 2 -0.010791 0.022680 -0.002270 0.000000 0.000000 0.000000
# 3 -0.004821 -0.002270 0.013231 0.000000 0.000000 0.000000
# 4 0.000000 0.000000 0.000000 0.069079 0.000000 0.000000
# 5 0.000000 0.000000 0.000000 0.000000 0.052607 0.000000
# 6 0.000000 0.000000 0.000000 0.000000 0.000000 0.034209
#
#
# Mechanical properties :
#
#
# Convention : Reuss Voigt Hill
#
# Bulk Modulus (GPa) = 57.26273 60.83941 59.05107
# Shear Modulus (GPa) = 19.94340 22.01380 20.97860
#
# Velocity S-wave (km/s) = 3.34061 3.50973 3.42621
# Velocity P-wave (km/s) = 6.84996 7.10408 6.97818
#
# Compressibility (1/GPa) = 0.01746337
#
# Stress axis : x y z
#
# Youngs Moduli (GPa) = 57.74366 44.09133 75.58157
#
# Poissons Ratio (x) = 0.47580 0.36440
# Poissons Ratio (y) = 0.62312 0.17159
# Poissons Ratio (z) = 0.27840 0.10010
#
# Static dielectric constant tensor:
#      x y z
#    x 3.724920 0.000000 0.000000 
#    y 0.000000 3.139920 0.000000 
#    z 0.000000 0.000000 3.340070 
# 
# 
# High freq. dielectric constant tensor:
#      x y z
#    x 1.705070 0.000000 0.000000 
#    y 0.000000 1.675290 0.000000 
#    z 0.000000 0.000000 1.676060 
# 
# From -- ./inp_files/61943.got.cif
#   From: 2010.06.25/outbox.cif.g09.slc.cpg/sg71_31_cif.got.tgz:61943.got - 2010.06.28 04:59:45.
