data_PCOD8289602
_publ_section_title
;
Structure prediction by ZEFSAII (Michael W. Deem and Ramdas Pophale) SiO2 
 PCOD8289602
Probable space group: I M M M
;
_chemical_formula_sum "Si O2"
_cell_formula_units_Z 80
_cell_length_a 17.702362
_cell_length_b 11.614986
_cell_length_c 20.640966
_cell_angle_alpha 90.000000
_cell_angle_beta 90.000000
_cell_angle_gamma 90.000000
_cell_volume 4244.044477
_symmetry_space_group_name_H-M "I M M M"
_symmetry_group_IT_number 71
_symmetry_cell_setting 'orthorhombic'
loop_
_space_group_symop_operation_xyz
x,y,z
-x,-y,z
x,-y,-z
-x,y,-z
-x,-y,-z
x,y,-z
-x,y,z
x,-y,z
1/2+x,1/2+y,1/2+z
1/2-x,1/2-y,1/2+z
1/2+x,1/2-y,1/2-z
1/2-x,1/2+y,1/2-z
1/2-x,1/2-y,1/2-z
1/2+x,1/2+y,1/2-z
1/2-x,1/2+y,1/2+z
1/2+x,1/2-y,1/2+z
loop_
_atom_site_type_symbol
_atom_site_label
_atom_site_fract_x
_atom_site_fract_y
_atom_site_fract_z
Si Si1 0.678170 0.135576 0.377214
Si Si2 0.914381 0.635053 0.500000
Si Si3 0.413766 0.500000 0.740171
Si Si4 0.417298 0.135713 0.500000
Si Si5 0.916581 0.000000 0.393608
Si Si6 0.339228 0.737170 0.256044
Si Si7 0.341882 0.269590 0.888169
O O1 0.625425 0.175018 0.435716
O O2 0.635755 0.167935 0.309582
O O3 0.752137 0.214185 0.384723
O O4 0.698173 0.000000 0.377742
O O5 0.919444 0.500000 0.500000
O O6 0.867637 0.669339 0.435967
O O7 0.000000 0.686569 0.500000
O O8 0.500000 0.500000 0.712311
O O9 0.416648 0.500000 0.816780
O O10 0.366767 0.387554 0.717590
O O11 0.500000 0.193375 0.500000
O O12 0.424883 0.000000 0.500000
O O13 0.874855 0.886687 0.418699
O O14 0.000000 0.000000 0.423010
O O15 0.250000 0.750000 0.250000
O O16 0.374175 0.759030 0.184246
#
# Coordination Sequence:
#
# PCOD8289602 Si02
#       7
#    16   8   8   8   8  16  16
#     4  10  19  35  59  86 113 142 183 237 290 337
#     4  11  25  41  53  73 113 159 194 230 282 341
#     4   9  18  34  53  81 120 157 184 228 293 347
#     4   9  19  34  52  75 106 141 177 222 277 327
#     4   9  16  29  54  81 107 138 184 234 278 322
#     4   9  20  33  58  88 115 146 192 238 286 347
#     4  10  19  36  55  81 111 146 187 232 279 339
#
# _framework density 18.849943
#
# number of rings (size 3 to 8) (size 9 to 14) (size 15 to 20)
#    0.000    2.400    1.000    1.200    4.200    2.800 
#    5.400    1.000    0.000    2.400    0.000    1.400 
#    0.000    0.000    0.000    0.000    0.000    0.000 
#
# Total GULP energy -495722.460065 kJ/mol
# GULP energy per Si atom -12393.061502 kJ/mol
# Density = 1.880704 g / cm^3
# Si number density = 18.849943 Si / 1000 Ang^3
#
#
#
# Elastic Constant Matrix: (Units=GPa)
#
#
# Indices 1 2 3 4 5 6 
#
# 1 99.6037 38.9167 39.0828 0.0000 0.0000 0.0000
# 2 38.9167 69.8663 41.5618 0.0000 0.0000 0.0000
# 3 39.0828 41.5618 138.4788 0.0000 0.0000 0.0000
# 4 0.0000 0.0000 0.0000 25.2982 0.0000 0.0000
# 5 0.0000 0.0000 0.0000 0.0000 11.3307 0.0000
# 6 0.0000 0.0000 0.0000 0.0000 0.0000 25.7893
#
#
#
# Elastic Compliance Matrix: (Units=1/GPa)
#
#
# Indices 1 2 3 4 5 6 
#
# 1 0.013211 -0.006258 -0.001850 0.000000 0.000000 0.000000
# 2 -0.006258 0.020388 -0.004353 0.000000 0.000000 0.000000
# 3 -0.001850 -0.004353 0.009050 0.000000 0.000000 0.000000
# 4 0.000000 0.000000 0.000000 0.039528 0.000000 0.000000
# 5 0.000000 0.000000 0.000000 0.000000 0.088256 0.000000
# 6 0.000000 0.000000 0.000000 0.000000 0.000000 0.038776
#
#
# Mechanical properties :
#
#
# Convention : Reuss Voigt Hill
#
# Bulk Modulus (GPa) = 56.41208 60.78571 58.59890
# Shear Modulus (GPa) = 20.82981 25.04280 22.93631
#
# Velocity S-wave (km/s) = 3.32781 3.64886 3.49203
# Velocity P-wave (km/s) = 6.69012 7.07597 6.88575
#
# Compressibility (1/GPa) = 0.01772670
#
# Stress axis : x y z
#
# Youngs Moduli (GPa) = 75.69498 49.04756 110.49730
#
# Poissons Ratio (x) = 0.30694 0.20445
# Poissons Ratio (y) = 0.47370 0.48099
# Poissons Ratio (z) = 0.14006 0.21350
#
# Static dielectric constant tensor:
#      x y z
#    x 3.608000 0.000000 0.000000 
#    y 0.000000 3.379850 0.000000 
#    z 0.000000 0.000000 3.833380 
# 
# 
# High freq. dielectric constant tensor:
#      x y z
#    x 1.726650 0.000000 0.000000 
#    y 0.000000 1.709160 0.000000 
#    z 0.000000 0.000000 1.732680 
# 
# From -- ./inp_files/53905.got.cif
#   From: 2010.06.25/outbox.cif.g09.slc.cpg/sg71_27_cif.got.tgz:53905.got - 2010.06.28 04:59:45.
