data_PCOD8289340
_publ_section_title
;
Structure prediction by ZEFSAII (Michael W. Deem and Ramdas Pophale) SiO2 
 PCOD8289340
Probable space group: I M M M
;
_chemical_formula_sum "Si O2"
_cell_formula_units_Z 88
_cell_length_a 17.757572
_cell_length_b 8.994554
_cell_length_c 28.577093
_cell_angle_alpha 90.000000
_cell_angle_beta 90.000000
_cell_angle_gamma 90.000000
_cell_volume 4564.374452
_symmetry_space_group_name_H-M "I M M M"
_symmetry_group_IT_number 71
_symmetry_cell_setting 'orthorhombic'
loop_
_space_group_symop_operation_xyz
x,y,z
-x,-y,z
x,-y,-z
-x,y,-z
-x,-y,-z
x,y,-z
-x,y,z
x,-y,z
1/2+x,1/2+y,1/2+z
1/2-x,1/2-y,1/2+z
1/2+x,1/2-y,1/2-z
1/2-x,1/2+y,1/2-z
1/2-x,1/2-y,1/2-z
1/2+x,1/2+y,1/2-z
1/2-x,1/2+y,1/2+z
1/2+x,1/2-y,1/2+z
loop_
_atom_site_type_symbol
_atom_site_label
_atom_site_fract_x
_atom_site_fract_y
_atom_site_fract_z
Si Si1 0.500000 0.168964 0.444709
Si Si2 0.137416 0.176459 0.895958
Si Si3 0.789144 0.675162 0.446681
Si Si4 0.658115 0.328101 0.208439
Si Si5 0.086205 0.174361 0.612563
Si Si6 0.833397 0.327842 0.801951
O O1 0.500000 0.171601 0.500000
O O2 0.426540 0.254251 0.427804
O O3 0.500000 0.000000 0.425688
O O4 0.217340 0.229048 0.916944
O O5 0.127912 0.236570 0.843488
O O6 0.129251 0.000000 0.896161
O O7 0.778431 0.728085 0.500000
O O8 0.798113 0.500000 0.443512
O O9 0.864732 0.746297 0.426661
O O10 0.643641 0.500000 0.220483
O O11 0.608897 0.272974 0.164623
O O12 0.744589 0.298591 0.195801
O O13 0.633262 0.231292 0.253022
O O14 0.000000 0.217585 0.603405
O O15 0.100733 0.000000 0.608194
O O16 0.853896 0.500000 0.807377
#
# Coordination Sequence:
#
# PCOD8289340 Si02
#       6
#     8  16  16  16  16  16
#     4  11  25  43  63  89 121 155 193 243 300 353
#     4  11  22  39  63  88 118 155 196 240 292 356
#     4  10  22  39  60  86 115 150 194 242 292 350
#     4   9  18  34  55  82 116 152 193 240 293 349
#     4  10  21  38  59  84 116 155 199 246 292 346
#     4  10  19  33  58  87 116 150 193 243 293 347
#
# _framework density 19.279751000000001
#
# number of rings (size 3 to 8) (size 9 to 14) (size 15 to 20)
#    0.000    1.909    1.818    1.909    0.000    4.727 
#    1.636    1.818    0.000    0.000    0.000    0.000 
#    0.000    0.000    0.000    0.000    0.000    0.000 
#
# Total GULP energy -545807.740631 kJ/mol
# GULP energy per Si atom -12404.721378 kJ/mol
# Density = 1.923587 g / cm^3
# Si number density = 19.279751 Si / 1000 Ang^3
#
#
#
# Elastic Constant Matrix: (Units=GPa)
#
#
# Indices 1 2 3 4 5 6 
#
# 1 84.5356 37.0020 37.3241 0.0000 0.0000 0.0000
# 2 37.0020 75.1340 48.9779 0.0000 0.0000 0.0000
# 3 37.3241 48.9779 114.2517 0.0000 0.0000 0.0000
# 4 0.0000 0.0000 0.0000 37.0508 0.0000 0.0000
# 5 0.0000 0.0000 0.0000 0.0000 29.3728 0.0000
# 6 0.0000 0.0000 0.0000 0.0000 0.0000 28.7217
#
#
#
# Elastic Compliance Matrix: (Units=1/GPa)
#
#
# Indices 1 2 3 4 5 6 
#
# 1 0.015577 -0.006043 -0.002498 0.000000 0.000000 0.000000
# 2 -0.006043 0.020816 -0.006949 0.000000 0.000000 0.000000
# 3 -0.002498 -0.006949 0.012548 0.000000 0.000000 0.000000
# 4 0.000000 0.000000 0.000000 0.026990 0.000000 0.000000
# 5 0.000000 0.000000 0.000000 0.000000 0.034045 0.000000
# 6 0.000000 0.000000 0.000000 0.000000 0.000000 0.034817
#
#
# Mechanical properties :
#
#
# Convention : Reuss Voigt Hill
#
# Bulk Modulus (GPa) = 55.67991 57.83661 56.75826
# Shear Modulus (GPa) = 27.50873 29.07021 28.28947
#
# Velocity S-wave (km/s) = 3.78142 3.88727 3.83471
# Velocity P-wave (km/s) = 6.92880 7.08601 7.00785
#
# Compressibility (1/GPa) = 0.01795980
#
# Stress axis : x y z
#
# Youngs Moduli (GPa) = 64.19525 48.04095 79.69539
#
# Poissons Ratio (x) = 0.29031 0.19911
# Poissons Ratio (y) = 0.38793 0.55382
# Poissons Ratio (z) = 0.16038 0.33384
#
# Static dielectric constant tensor:
#      x y z
#    x 3.475480 0.000000 0.000000 
#    y 0.000000 3.512640 0.000000 
#    z 0.000000 0.000000 3.627730 
# 
# 
# High freq. dielectric constant tensor:
#      x y z
#    x 1.739980 0.000000 0.000000 
#    y 0.000000 1.749940 0.000000 
#    z 0.000000 0.000000 1.763430 
# 
# From -- ./inp_files/70381.got.cif
#   From: 2010.06.25/outbox.cif.g09.slc.cpg/sg71_36_cif.got.tgz:70381.got - 2010.06.28 04:59:45.
