data_PCOD8289162
_publ_section_title
;
Structure prediction by ZEFSAII (Michael W. Deem and Ramdas Pophale) SiO2 
 PCOD8289162
Probable space group: I M M M
;
_chemical_formula_sum "Si O2"
_cell_formula_units_Z 72
_cell_length_a 9.634773
_cell_length_b 13.192474
_cell_length_c 31.618516
_cell_angle_alpha 90.000000
_cell_angle_beta 90.000000
_cell_angle_gamma 90.000000
_cell_volume 4018.918660
_symmetry_space_group_name_H-M "I M M M"
_symmetry_group_IT_number 71
_symmetry_cell_setting 'orthorhombic'
loop_
_space_group_symop_operation_xyz
x,y,z
-x,-y,z
x,-y,-z
-x,y,-z
-x,-y,-z
x,y,-z
-x,y,z
x,-y,z
1/2+x,1/2+y,1/2+z
1/2-x,1/2-y,1/2+z
1/2+x,1/2-y,1/2-z
1/2-x,1/2+y,1/2-z
1/2-x,1/2-y,1/2-z
1/2+x,1/2+y,1/2-z
1/2-x,1/2+y,1/2+z
1/2+x,1/2-y,1/2+z
loop_
_atom_site_type_symbol
_atom_site_label
_atom_site_fract_x
_atom_site_fract_y
_atom_site_fract_z
Si Si1 0.336039 0.808455 0.920736
Si Si2 0.846932 0.180050 0.723644
Si Si3 0.335929 0.386441 0.867035
Si Si4 0.855469 0.000000 0.213056
Si Si5 0.334566 0.619966 0.500000
Si Si6 0.839891 0.500000 0.636113
O O1 0.500000 0.813186 0.932906
O O2 0.295019 0.698295 0.901789
O O3 0.297477 0.898019 0.888332
O O4 0.237555 0.825987 0.960496
O O5 0.750000 0.250000 0.750000
O O6 0.778113 0.148804 0.678666
O O7 0.000000 0.228582 0.715390
O O8 0.857720 0.089100 0.754679
O O9 0.500000 0.393493 0.863316
O O10 0.278412 0.500000 0.878833
O O11 0.727947 0.000000 0.181751
O O12 0.000000 0.000000 0.186143
O O13 0.302164 0.500000 0.500000
O O14 0.500000 0.639996 0.500000
O O15 0.000000 0.500000 0.645819
#
# Coordination Sequence:
#
# PCOD8289162 Si02
#       6
#    16  16  16   8   8   8
#     4  10  20  35  59  85 109 141 181 229 276 323
#     4  10  19  33  52  75 105 143 186 230 270 312
#     4   9  17  33  56  80 108 146 190 229 269 319
#     4  10  20  32  49  75 108 147 184 220 267 318
#     4  11  23  39  60  85 114 144 171 214 281 348
#     4  10  20  33  51  82 115 142 181 233 280 316
#
# _framework density 17.915267
#
# number of rings (size 3 to 8) (size 9 to 14) (size 15 to 20)
#    0.000    2.111    2.222    1.667    0.000    4.000 
#    0.000    1.667    0.000    5.333    0.000    0.000 
#    0.000    0.000    0.000    0.000    0.000    0.000 
#
# Total GULP energy -445977.927195 kJ/mol
# GULP energy per Si atom -12388.275755 kJ/mol
# Density = 1.787449 g / cm^3
# Si number density = 17.915267 Si / 1000 Ang^3
#
#
#
# Elastic Constant Matrix: (Units=GPa)
#
#
# Indices 1 2 3 4 5 6 
#
# 1 59.7771 43.9739 54.2864 0.0000 0.0000 0.0000
# 2 43.9739 145.1060 59.6440 0.0000 0.0000 0.0000
# 3 54.2864 59.6440 127.6515 0.0000 0.0000 0.0000
# 4 0.0000 0.0000 0.0000 54.9335 0.0000 0.0000
# 5 0.0000 0.0000 0.0000 0.0000 30.2282 0.0000
# 6 0.0000 0.0000 0.0000 0.0000 0.0000 21.8299
#
#
#
# Elastic Compliance Matrix: (Units=1/GPa)
#
#
# Indices 1 2 3 4 5 6 
#
# 1 0.029641 -0.004705 -0.010407 0.000000 0.000000 0.000000
# 2 -0.004705 0.009276 -0.002333 0.000000 0.000000 0.000000
# 3 -0.010407 -0.002333 0.013350 0.000000 0.000000 0.000000
# 4 0.000000 0.000000 0.000000 0.018204 0.000000 0.000000
# 5 0.000000 0.000000 0.000000 0.000000 0.033082 0.000000
# 6 0.000000 0.000000 0.000000 0.000000 0.000000 0.045809
#
#
# Mechanical properties :
#
#
# Convention : Reuss Voigt Hill
#
# Bulk Modulus (GPa) = 57.54913 72.03813 64.79363
# Shear Modulus (GPa) = 26.30952 33.04034 29.67493
#
# Velocity S-wave (km/s) = 3.83633 4.29914 4.07431
# Velocity P-wave (km/s) = 7.19833 8.05861 7.64059
#
# Compressibility (1/GPa) = 0.01737646
#
# Stress axis : x y z
#
# Youngs Moduli (GPa) = 33.73687 107.79963 74.90637
#
# Poissons Ratio (x) = 0.50719 0.77956
# Poissons Ratio (y) = 0.15873 0.17479
# Poissons Ratio (z) = 0.35111 0.25155
#
# Static dielectric constant tensor:
#      x y z
#    x 2.714460 0.000000 0.000000 
#    y 0.000000 3.577270 0.000000 
#    z 0.000000 0.000000 3.330900 
# 
# 
# High freq. dielectric constant tensor:
#      x y z
#    x 1.668110 0.000000 0.000000 
#    y 0.000000 1.705230 0.000000 
#    z 0.000000 0.000000 1.692370 
# 
# From -- ./inp_files/16412.got.cif
#   From: 2010.06.25/outbox.cif.g09.slc.cpg/sg71_9_cif.got.tgz:16412.got - 2010.06.28 04:59:45.
