data_PCOD8289927
_publ_section_title
;
Structure prediction by ZEFSAII (Michael W. Deem and Ramdas Pophale) SiO2 
 PCOD8289927
Probable space group: I M M M
;
_chemical_formula_sum "Si O2"
_cell_formula_units_Z 104
_cell_length_a 8.955528
_cell_length_b 27.492236
_cell_length_c 23.654071
_cell_angle_alpha 90.000000
_cell_angle_beta 90.000000
_cell_angle_gamma 90.000000
_cell_volume 5823.809432
_symmetry_space_group_name_H-M "I M M M"
_symmetry_group_IT_number 71
_symmetry_cell_setting 'orthorhombic'
loop_
_space_group_symop_operation_xyz
x,y,z
-x,-y,z
x,-y,-z
-x,y,-z
-x,-y,-z
x,y,-z
-x,y,z
x,-y,z
1/2+x,1/2+y,1/2+z
1/2-x,1/2-y,1/2+z
1/2+x,1/2-y,1/2-z
1/2-x,1/2+y,1/2-z
1/2-x,1/2-y,1/2-z
1/2+x,1/2+y,1/2-z
1/2-x,1/2+y,1/2+z
1/2+x,1/2-y,1/2+z
loop_
_atom_site_type_symbol
_atom_site_label
_atom_site_fract_x
_atom_site_fract_y
_atom_site_fract_z
Si Si1 0.826757 0.902029 0.434615
Si Si2 0.333869 0.000000 0.566488
Si Si3 0.324678 0.387318 0.663074
Si Si4 0.331063 0.860496 0.337379
Si Si5 0.833121 0.445444 0.755994
Si Si6 0.675689 0.301842 0.256792
Si Si7 0.676116 0.055385 0.064802
O O1 0.800186 0.890755 0.500000
O O2 0.737209 0.860635 0.400327
O O3 0.000000 0.901145 0.418585
O O4 0.760553 0.953434 0.415366
O O5 0.500000 0.000000 0.594764
O O6 0.355144 0.000000 0.500000
O O7 0.500000 0.387333 0.653150
O O8 0.283742 0.427377 0.709597
O O9 0.273155 0.333975 0.687881
O O10 0.249123 0.402790 0.603956
O O11 0.500000 0.839577 0.338215
O O12 0.326787 0.915130 0.313491
O O13 0.222564 0.828567 0.299892
O O14 0.790746 0.500000 0.773158
O O15 0.000000 0.442080 0.729358
O O16 0.500000 0.295004 0.258554
O O17 0.750000 0.250000 0.250000
O O18 0.500000 0.060085 0.071126
O O19 0.725087 0.000000 0.081872
O O20 0.724577 0.065483 0.000000
#
# Coordination Sequence:
#
# PCOD8289927 Si02
#       7
#    16   8  16  16  16  16  16
#     4  10  20  33  48  69 100 136 172 211 255 300
#     4   9  17  29  45  65  91 129 175 213 244 285
#     4  10  20  32  49  76 105 132 166 211 259 306
#     4  10  20  33  52  76 101 131 170 211 256 307
#     4   9  18  31  46  67  98 135 170 205 245 295
#     4  10  21  38  58  79 103 129 165 213 267 322
#     4   9  18  32  50  74 107 148 187 215 242 289
#
# _framework density 17.857728000000002
#
# number of rings (size 3 to 8) (size 9 to 14) (size 15 to 20)
#    0.000    2.385    0.000    3.000    1.077    7.077 
#    0.000    0.769    0.000    0.923    0.000    4.308 
#    0.000    0.000    0.000    0.000    0.000    0.000 
#
# Total GULP energy -644481.745023 kJ/mol
# GULP energy per Si atom -12393.879712 kJ/mol
# Density = 1.781708 g / cm^3
# Si number density = 17.857728 Si / 1000 Ang^3
#
#
#
# Elastic Constant Matrix: (Units=GPa)
#
#
# Indices 1 2 3 4 5 6 
#
# 1 72.8011 38.7224 42.8029 0.0000 0.0000 0.0000
# 2 38.7224 110.5032 45.6395 0.0000 0.0000 0.0000
# 3 42.8029 45.6395 95.0293 0.0000 0.0000 0.0000
# 4 0.0000 0.0000 0.0000 16.4752 0.0000 0.0000
# 5 0.0000 0.0000 0.0000 0.0000 31.0193 0.0000
# 6 0.0000 0.0000 0.0000 0.0000 0.0000 28.5588
#
#
#
# Elastic Compliance Matrix: (Units=1/GPa)
#
#
# Indices 1 2 3 4 5 6 
#
# 1 0.020082 -0.004118 -0.007067 0.000000 0.000000 0.000000
# 2 -0.004118 0.012133 -0.003972 0.000000 0.000000 0.000000
# 3 -0.007067 -0.003972 0.015614 0.000000 0.000000 0.000000
# 4 0.000000 0.000000 0.000000 0.060697 0.000000 0.000000
# 5 0.000000 0.000000 0.000000 0.000000 0.032238 0.000000
# 6 0.000000 0.000000 0.000000 0.000000 0.000000 0.035016
#
#
# Mechanical properties :
#
#
# Convention : Reuss Voigt Hill
#
# Bulk Modulus (GPa) = 57.09900 59.18480 58.14190
# Shear Modulus (GPa) = 23.59238 25.28859 24.44049
#
# Velocity S-wave (km/s) = 3.63868 3.76721 3.70350
# Velocity P-wave (km/s) = 7.04962 7.22059 7.13561
#
# Compressibility (1/GPa) = 0.01751344
#
# Stress axis : x y z
#
# Youngs Moduli (GPa) = 49.79683 82.41853 64.04469
#
# Poissons Ratio (x) = 0.33940 0.45262
# Poissons Ratio (y) = 0.20507 0.25441
# Poissons Ratio (z) = 0.35193 0.32739
#
# Static dielectric constant tensor:
#      x y z
#    x 3.387080 0.000000 0.000000 
#    y 0.000000 3.062110 0.000000 
#    z 0.000000 0.000000 3.138200 
# 
# 
# High freq. dielectric constant tensor:
#      x y z
#    x 1.699200 0.000000 0.000000 
#    y 0.000000 1.663060 0.000000 
#    z 0.000000 0.000000 1.687740 
# 
# From -- ./inp_files/13299.got.cif
#   From: 2010.06.25/outbox.cif.g09.slc.cpg/sg71_7_cif.got.tgz:13299.got - 2010.06.28 04:59:45.
