data_PCOD8289186
_publ_section_title
;
Structure prediction by ZEFSAII (Michael W. Deem and Ramdas Pophale) SiO2 
 PCOD8289186
Probable space group: I M M M
;
_chemical_formula_sum "Si O2"
_cell_formula_units_Z 112
_cell_length_a 14.243255
_cell_length_b 25.176879
_cell_length_c 17.974315
_cell_angle_alpha 90.000000
_cell_angle_beta 90.000000
_cell_angle_gamma 90.000000
_cell_volume 6445.602079
_symmetry_space_group_name_H-M "I M M M"
_symmetry_group_IT_number 71
_symmetry_cell_setting 'orthorhombic'
loop_
_space_group_symop_operation_xyz
x,y,z
-x,-y,z
x,-y,-z
-x,y,-z
-x,-y,-z
x,y,-z
-x,y,z
x,-y,z
1/2+x,1/2+y,1/2+z
1/2-x,1/2-y,1/2+z
1/2+x,1/2-y,1/2-z
1/2-x,1/2+y,1/2-z
1/2-x,1/2-y,1/2-z
1/2+x,1/2+y,1/2-z
1/2-x,1/2+y,1/2+z
1/2+x,1/2-y,1/2+z
loop_
_atom_site_type_symbol
_atom_site_label
_atom_site_fract_x
_atom_site_fract_y
_atom_site_fract_z
Si Si1 0.605082 0.599411 0.419553
Si Si2 0.391741 0.841293 0.801995
Si Si3 0.392099 0.098282 0.416931
Si Si4 0.899460 0.940582 0.764307
Si Si5 0.260268 0.697450 0.413881
Si Si6 0.299371 0.061595 0.273975
Si Si7 0.606451 0.787949 0.354349
O O1 0.627295 0.572482 0.500000
O O2 0.500000 0.622914 0.419970
O O3 0.617025 0.557293 0.353508
O O4 0.673661 0.647488 0.404403
O O5 0.500000 0.844458 0.826152
O O6 0.335543 0.815443 0.870319
O O7 0.360120 0.901436 0.780992
O O8 0.377658 0.803347 0.731295
O O9 0.359206 0.083149 0.500000
O O10 0.500000 0.082886 0.404050
O O11 0.332820 0.064001 0.358832
O O12 0.377924 0.160810 0.405618
O O13 0.807829 0.915037 0.726230
O O14 0.000000 0.911272 0.745585
O O15 0.908215 0.000000 0.734916
O O16 0.236292 0.709465 0.500000
O O17 0.314743 0.746401 0.377424
O O18 0.303311 0.000000 0.246362
O O19 0.500000 0.765977 0.365921
#
# Coordination Sequence:
#
# PCOD8289186 Si02
#       7
#    16  16  16  16  16  16  16
#     4   9  17  28  44  70  98 121 155 204 251 291
#     4  10  21  36  51  72 102 134 173 213 249 293
#     4   9  18  32  51  78 107 130 159 207 263 308
#     4   9  17  30  48  69  95 127 162 203 253 303
#     4  11  20  31  50  74 100 133 168 202 244 296
#     4  10  19  33  53  74  98 133 172 208 252 305
#     4   9  18  33  54  77 101 129 162 205 256 307
#
# _framework density 17.376189
#
# number of rings (size 3 to 8) (size 9 to 14) (size 15 to 20)
#    0.000    2.429    1.429    2.571    0.000    3.429 
#    0.000    2.143    0.000    0.857    0.000    3.000 
#    0.000    0.000    0.000    0.000    0.000    0.000 
#
# Total GULP energy -693916.976736 kJ/mol
# GULP energy per Si atom -12391.374585 kJ/mol
# Density = 1.733664 g / cm^3
# Si number density = 17.376189 Si / 1000 Ang^3
#
#
#
# Elastic Constant Matrix: (Units=GPa)
#
#
# Indices 1 2 3 4 5 6 
#
# 1 135.2292 42.9491 63.6149 0.0000 0.0000 0.0000
# 2 42.9491 54.5819 26.9356 0.0000 0.0000 0.0000
# 3 63.6149 26.9356 88.5250 0.0000 0.0000 0.0000
# 4 0.0000 0.0000 0.0000 16.9464 0.0000 0.0000
# 5 0.0000 0.0000 0.0000 0.0000 30.1619 0.0000
# 6 0.0000 0.0000 0.0000 0.0000 0.0000 24.2037
#
#
#
# Elastic Compliance Matrix: (Units=1/GPa)
#
#
# Indices 1 2 3 4 5 6 
#
# 1 0.012901 -0.006562 -0.007274 0.000000 0.000000 0.000000
# 2 -0.006562 0.024896 -0.002860 0.000000 0.000000 0.000000
# 3 -0.007274 -0.002860 0.017394 0.000000 0.000000 0.000000
# 4 0.000000 0.000000 0.000000 0.059010 0.000000 0.000000
# 5 0.000000 0.000000 0.000000 0.000000 0.033154 0.000000
# 6 0.000000 0.000000 0.000000 0.000000 0.000000 0.041316
#
#
# Mechanical properties :
#
#
# Convention : Reuss Voigt Hill
#
# Bulk Modulus (GPa) = 45.87369 60.59281 53.23325
# Shear Modulus (GPa) = 21.80293 23.91817 22.86055
#
# Velocity S-wave (km/s) = 3.54610 3.71413 3.63109
# Velocity P-wave (km/s) = 6.57450 7.30342 6.94853
#
# Compressibility (1/GPa) = 0.02179899
#
# Stress axis : x y z
#
# Youngs Moduli (GPa) = 77.51501 40.16790 57.49235
#
# Poissons Ratio (x) = 0.26356 0.41820
# Poissons Ratio (y) = 0.50862 0.16441
# Poissons Ratio (z) = 0.56385 0.11487
#
# Static dielectric constant tensor:
#      x y z
#    x 3.481740 0.000000 0.000000 
#    y 0.000000 3.050210 0.000000 
#    z 0.000000 0.000000 3.273030 
# 
# 
# High freq. dielectric constant tensor:
#      x y z
#    x 1.673990 0.000000 0.000000 
#    y 0.000000 1.653980 0.000000 
#    z 0.000000 0.000000 1.662970 
# 
# From -- ./inp_files/35128.got.cif
#   From: 2010.06.25/outbox.cif.g09.slc.cpg/sg71_18_cif.got.tgz:35128.got - 2010.06.28 04:59:45.
