data_PCOD8289464
_publ_section_title
;
Structure prediction by ZEFSAII (Michael W. Deem and Ramdas Pophale) SiO2 
 PCOD8289464
Probable space group: I M M M
;
_chemical_formula_sum "Si O2"
_cell_formula_units_Z 120
_cell_length_a 23.171396
_cell_length_b 20.745691
_cell_length_c 13.570230
_cell_angle_alpha 90.000000
_cell_angle_beta 90.000000
_cell_angle_gamma 90.000000
_cell_volume 6523.299416
_symmetry_space_group_name_H-M "I M M M"
_symmetry_group_IT_number 71
_symmetry_cell_setting 'orthorhombic'
loop_
_space_group_symop_operation_xyz
x,y,z
-x,-y,z
x,-y,-z
-x,y,-z
-x,-y,-z
x,y,-z
-x,y,z
x,-y,z
1/2+x,1/2+y,1/2+z
1/2-x,1/2-y,1/2+z
1/2+x,1/2-y,1/2-z
1/2-x,1/2+y,1/2-z
1/2-x,1/2-y,1/2-z
1/2+x,1/2+y,1/2-z
1/2-x,1/2+y,1/2+z
1/2+x,1/2-y,1/2+z
loop_
_atom_site_type_symbol
_atom_site_label
_atom_site_fract_x
_atom_site_fract_y
_atom_site_fract_z
Si Si1 0.433133 0.689600 0.297893
Si Si2 0.380800 0.744094 0.888239
Si Si3 0.863931 0.304454 0.888417
Si Si4 0.432032 0.000000 0.888688
Si Si5 0.754524 0.925749 0.777120
Si Si6 0.129361 0.379803 0.301810
Si Si7 0.129752 0.926237 0.886517
Si Si8 0.734593 0.325784 0.888762
O O1 0.500000 0.696549 0.324111
O O2 0.423386 0.704169 0.182440
O O3 0.397455 0.738993 0.365416
O O4 0.412256 0.617490 0.320884
O O5 0.387306 0.819985 0.870771
O O6 0.314756 0.725817 0.862780
O O7 0.397981 0.727328 0.000000
O O8 0.881627 0.361446 0.813127
O O9 0.795834 0.290021 0.873900
O O10 0.877697 0.327005 0.000000
O O11 0.412448 0.937610 0.828950
O O12 0.500000 0.000000 0.893165
O O13 0.406313 0.000000 0.000000
O O14 0.695208 0.899490 0.822614
O O15 0.803472 0.915432 0.858955
O O16 0.772140 0.888383 0.678544
O O17 0.747069 0.000000 0.747545
O O18 0.111542 0.000000 0.866808
O O19 0.122088 0.907253 0.000000
O O20 0.727789 0.351038 0.000000
#
# Coordination Sequence:
#
# PCOD8289464 Si02
#       8
#    16  16  16   8  16  16  16  16
#     4  11  23  38  58  81 112 154 193 232 279 336
#     4  10  21  37  60  88 115 144 185 238 292 341
#     4   9  20  36  57  86 117 147 186 232 281 339
#     4  11  24  42  59  79 113 153 195 239 285 344
#     4  10  19  34  56  84 118 147 182 229 278 334
#     4  10  21  36  58  85 115 150 188 231 285 341
#     4  10  22  37  54  81 113 149 188 233 285 336
#     4   9  18  34  58  87 116 146 179 226 289 341
#
# _framework density 18.395600000000002
#
# number of rings (size 3 to 8) (size 9 to 14) (size 15 to 20)
#    0.000    2.067    2.000    0.800    1.867    6.667 
#    0.000    1.000    0.000    0.800    0.000    0.933 
#    0.000    0.000    0.000    0.000    0.000    0.000 
#
# Total GULP energy -744139.329934 kJ/mol
# GULP energy per Si atom -12402.322166 kJ/mol
# Density = 1.835373 g / cm^3
# Si number density = 18.395600 Si / 1000 Ang^3
#
#
#
# Elastic Constant Matrix: (Units=GPa)
#
#
# Indices 1 2 3 4 5 6 
#
# 1 72.2748 43.8093 25.8301 0.0000 0.0000 0.0000
# 2 43.8093 115.6133 47.2337 0.0000 0.0000 0.0000
# 3 25.8301 47.2337 91.9394 0.0000 0.0000 0.0000
# 4 0.0000 0.0000 0.0000 8.0454 0.0000 0.0000
# 5 0.0000 0.0000 0.0000 0.0000 20.2597 0.0000
# 6 0.0000 0.0000 0.0000 0.0000 0.0000 22.4829
#
#
#
# Elastic Compliance Matrix: (Units=1/GPa)
#
#
# Indices 1 2 3 4 5 6 
#
# 1 0.018245 -0.006100 -0.001992 0.000000 0.000000 0.000000
# 2 -0.006100 0.012987 -0.004958 0.000000 0.000000 0.000000
# 3 -0.001992 -0.004958 0.013984 0.000000 0.000000 0.000000
# 4 0.000000 0.000000 0.000000 0.124295 0.000000 0.000000
# 5 0.000000 0.000000 0.000000 0.000000 0.049359 0.000000
# 6 0.000000 0.000000 0.000000 0.000000 0.000000 0.044478
#
#
# Mechanical properties :
#
#
# Convention : Reuss Voigt Hill
#
# Bulk Modulus (GPa) = 52.31387 57.06372 54.68880
# Shear Modulus (GPa) = 16.90214 21.02120 18.96167
#
# Velocity S-wave (km/s) = 3.03448 3.38410 3.21405
# Velocity P-wave (km/s) = 6.38572 6.80861 6.60055
#
# Compressibility (1/GPa) = 0.01911539
#
# Stress axis : x y z
#
# Youngs Moduli (GPa) = 54.80805 77.00271 71.51203
#
# Poissons Ratio (x) = 0.46970 0.14247
# Poissons Ratio (y) = 0.33432 0.35456
# Poissons Ratio (z) = 0.10919 0.38179
#
# Static dielectric constant tensor:
#      x y z
#    x 3.297560 0.000000 0.000000 
#    y 0.000000 3.359010 0.000000 
#    z 0.000000 0.000000 3.510670 
# 
# 
# High freq. dielectric constant tensor:
#      x y z
#    x 1.705030 0.000000 0.000000 
#    y 0.000000 1.710550 0.000000 
#    z 0.000000 0.000000 1.720010 
# 
# From -- ./inp_files/38439.got.cif
#   From: 2010.06.25/outbox.cif.g09.slc.cpg/sg71_20_cif.got.tgz:38439.got - 2010.06.28 04:59:45.
