data_PCOD8289196
_publ_section_title
;
Structure prediction by ZEFSAII (Michael W. Deem and Ramdas Pophale) SiO2 
 PCOD8289196
Probable space group: I M M M
;
_chemical_formula_sum "Si O2"
_cell_formula_units_Z 72
_cell_length_a 28.177265
_cell_length_b 14.799200
_cell_length_c 9.747456
_cell_angle_alpha 90.000000
_cell_angle_beta 90.000000
_cell_angle_gamma 90.000000
_cell_volume 4064.698706
_symmetry_space_group_name_H-M "I M M M"
_symmetry_group_IT_number 71
_symmetry_cell_setting 'orthorhombic'
loop_
_space_group_symop_operation_xyz
x,y,z
-x,-y,z
x,-y,-z
-x,y,-z
-x,-y,-z
x,y,-z
-x,y,z
x,-y,z
1/2+x,1/2+y,1/2+z
1/2-x,1/2-y,1/2+z
1/2+x,1/2-y,1/2-z
1/2-x,1/2+y,1/2-z
1/2-x,1/2-y,1/2-z
1/2+x,1/2+y,1/2-z
1/2-x,1/2+y,1/2+z
1/2+x,1/2-y,1/2+z
loop_
_atom_site_type_symbol
_atom_site_label
_atom_site_fract_x
_atom_site_fract_y
_atom_site_fract_z
Si Si1 0.801126 0.000000 0.334748
Si Si2 0.946535 0.000000 0.840842
Si Si3 0.692720 0.000000 0.661982
Si Si4 0.870319 0.665509 0.156291
Si Si5 0.138047 0.126673 0.842328
Si Si6 0.553558 0.103435 0.152649
O O1 0.746530 0.000000 0.287205
O O2 0.824761 0.087402 0.266332
O O3 0.807584 0.000000 0.500000
O O4 0.914945 0.089507 0.802236
O O5 0.000000 0.000000 0.770362
O O6 0.956653 0.000000 0.000000
O O7 0.666859 0.908507 0.715985
O O8 0.692392 0.000000 0.500000
O O9 0.852567 0.767206 0.171223
O O10 0.918415 0.664124 0.241380
O O11 0.882402 0.641440 0.000000
O O12 0.148489 0.096424 0.000000
O O13 0.500000 0.138143 0.155198
O O14 0.556722 0.000000 0.199911
O O15 0.574708 0.114757 0.000000
#
# Coordination Sequence:
#
# PCOD8289196 Si02
#       6
#     8   8   8  16  16  16
#     4  10  20  36  55  72  97 135 171 207 263 326
#     4   8  14  28  49  71  97 128 161 200 246 294
#     4   9  19  34  51  74 103 132 167 216 267 307
#     4  10  19  33  53  76 103 134 172 218 261 304
#     4   9  19  34  53  77 103 130 167 215 259 303
#     4   9  18  32  48  69 103 142 174 207 248 295
#
# _framework density 17.713491000000001
#
# number of rings (size 3 to 8) (size 9 to 14) (size 15 to 20)
#    0.000    2.778    1.111    1.667    0.000    3.111 
#    0.000    5.556    0.000    5.333    0.000    0.000 
#    0.000    0.000    0.000    0.000    0.000    0.000 
#
# Total GULP energy -446046.777463 kJ/mol
# GULP energy per Si atom -12390.188263 kJ/mol
# Density = 1.767317 g / cm^3
# Si number density = 17.713491 Si / 1000 Ang^3
#
#
#
# Elastic Constant Matrix: (Units=GPa)
#
#
# Indices 1 2 3 4 5 6 
#
# 1 111.1032 53.3390 47.3730 0.0000 0.0000 0.0000
# 2 53.3390 115.3927 37.3904 0.0000 0.0000 0.0000
# 3 47.3730 37.3904 76.0269 0.0000 0.0000 0.0000
# 4 0.0000 0.0000 0.0000 21.2900 0.0000 0.0000
# 5 0.0000 0.0000 0.0000 0.0000 27.3272 0.0000
# 6 0.0000 0.0000 0.0000 0.0000 0.0000 12.4612
#
#
#
# Elastic Compliance Matrix: (Units=1/GPa)
#
#
# Indices 1 2 3 4 5 6 
#
# 1 0.013835 -0.004284 -0.006513 0.000000 0.000000 0.000000
# 2 -0.004284 0.011636 -0.003053 0.000000 0.000000 0.000000
# 3 -0.006513 -0.003053 0.018713 0.000000 0.000000 0.000000
# 4 0.000000 0.000000 0.000000 0.046970 0.000000 0.000000
# 5 0.000000 0.000000 0.000000 0.000000 0.036594 0.000000
# 6 0.000000 0.000000 0.000000 0.000000 0.000000 0.080249
#
#
# Mechanical properties :
#
#
# Convention : Reuss Voigt Hill
#
# Bulk Modulus (GPa) = 60.67130 64.30308 62.48719
# Shear Modulus (GPa) = 20.73032 23.17703 21.95368
#
# Velocity S-wave (km/s) = 3.42469 3.62116 3.52430
# Velocity P-wave (km/s) = 7.06851 7.33923 7.20514
#
# Compressibility (1/GPa) = 0.01648226
#
# Stress axis : x y z
#
# Youngs Moduli (GPa) = 72.28149 85.94241 53.43808
#
# Poissons Ratio (x) = 0.36822 0.34807
# Poissons Ratio (y) = 0.30969 0.16314
# Poissons Ratio (z) = 0.47080 0.26237
#
# Static dielectric constant tensor:
#      x y z
#    x 3.373940 0.000000 0.000000 
#    y 0.000000 3.330430 0.000000 
#    z 0.000000 0.000000 3.127330 
# 
# 
# High freq. dielectric constant tensor:
#      x y z
#    x 1.678260 0.000000 0.000000 
#    y 0.000000 1.684140 0.000000 
#    z 0.000000 0.000000 1.666350 
# 
# From -- ./inp_files/16397.got.cif
#   From: 2010.06.25/outbox.cif.g09.slc.cpg/sg71_9_cif.got.tgz:16397.got - 2010.06.28 04:59:45.
