data_PCOD8289481
_publ_section_title
;
Structure prediction by ZEFSAII (Michael W. Deem and Ramdas Pophale) SiO2 
 PCOD8289481
Probable space group: I M M M
;
_chemical_formula_sum "Si O2"
_cell_formula_units_Z 72
_cell_length_a 21.660155
_cell_length_b 9.886796
_cell_length_c 17.375523
_cell_angle_alpha 90.000000
_cell_angle_beta 90.000000
_cell_angle_gamma 90.000000
_cell_volume 3720.960150
_symmetry_space_group_name_H-M "I M M M"
_symmetry_group_IT_number 71
_symmetry_cell_setting 'orthorhombic'
loop_
_space_group_symop_operation_xyz
x,y,z
-x,-y,z
x,-y,-z
-x,y,-z
-x,-y,-z
x,y,-z
-x,y,z
x,-y,z
1/2+x,1/2+y,1/2+z
1/2-x,1/2-y,1/2+z
1/2+x,1/2-y,1/2-z
1/2-x,1/2+y,1/2-z
1/2-x,1/2-y,1/2-z
1/2+x,1/2+y,1/2-z
1/2-x,1/2+y,1/2+z
1/2+x,1/2-y,1/2+z
loop_
_atom_site_type_symbol
_atom_site_label
_atom_site_fract_x
_atom_site_fract_y
_atom_site_fract_z
Si Si1 0.644363 0.746378 0.590784
Si Si2 0.929414 0.500000 0.907955
Si Si3 0.500000 0.655070 0.908838
Si Si4 0.738974 0.840445 0.824484
Si Si5 0.111783 0.345090 0.589458
Si Si6 0.067992 0.000000 0.092046
O O1 0.641556 0.752919 0.500000
O O2 0.714749 0.722719 0.613182
O O3 0.603284 0.627536 0.625333
O O4 0.610729 0.877080 0.625587
O O5 0.000000 0.500000 0.876143
O O6 0.932293 0.500000 0.000000
O O7 0.500000 0.500000 0.876092
O O8 0.439914 0.739153 0.881551
O O9 0.500000 0.649761 0.000000
O O10 0.750000 0.750000 0.750000
O O11 0.671075 0.817820 0.857870
O O12 0.751468 0.000000 0.809023
O O13 0.128845 0.320315 0.500000
O O14 0.088433 0.500000 0.600097
O O15 0.000000 0.000000 0.127017
O O16 0.066559 0.000000 0.000000
#
# Coordination Sequence:
#
# PCOD8289481 Si02
#       6
#    16   8   8  16  16   8
#     4  10  19  34  57  83 111 143 187 231 271 322
#     4   9  18  32  53  84 118 147 179 226 276 320
#     4   9  17  31  55  91 121 137 168 227 288 333
#     4  11  24  39  57  79 113 149 187 230 281 333
#     4   9  18  35  61  86 109 143 186 228 274 333
#     4   9  16  28  53  84 110 137 175 228 276 312
#
# _framework density 19.349843
#
# number of rings (size 3 to 8) (size 9 to 14) (size 15 to 20)
#    0.000    2.333    1.111    1.667    1.556    5.778 
#    0.000    0.000    4.889    0.000    0.000    0.000 
#    0.000    0.000    0.000    0.000    0.000    0.000 
#
# Total GULP energy -446152.142262 kJ/mol
# GULP energy per Si atom -12393.115063 kJ/mol
# Density = 1.930580 g / cm^3
# Si number density = 19.349843 Si / 1000 Ang^3
#
#
#
# Elastic Constant Matrix: (Units=GPa)
#
#
# Indices 1 2 3 4 5 6 
#
# 1 157.3210 96.0509 30.2287 0.0000 0.0000 0.0000
# 2 96.0509 184.7094 35.9233 0.0000 0.0000 0.0000
# 3 30.2287 35.9233 34.8941 0.0000 0.0000 0.0000
# 4 0.0000 0.0000 0.0000 42.8854 0.0000 0.0000
# 5 0.0000 0.0000 0.0000 0.0000 9.6620 0.0000
# 6 0.0000 0.0000 0.0000 0.0000 0.0000 41.6410
#
#
#
# Elastic Compliance Matrix: (Units=1/GPa)
#
#
# Indices 1 2 3 4 5 6 
#
# 1 0.009747 -0.004284 -0.004033 0.000000 0.000000 0.000000
# 2 -0.004284 0.008652 -0.005196 0.000000 0.000000 0.000000
# 3 -0.004033 -0.005196 0.037502 0.000000 0.000000 0.000000
# 4 0.000000 0.000000 0.000000 0.023318 0.000000 0.000000
# 5 0.000000 0.000000 0.000000 0.000000 0.103498 0.000000
# 6 0.000000 0.000000 0.000000 0.000000 0.000000 0.024015
#
#
# Mechanical properties :
#
#
# Convention : Reuss Voigt Hill
#
# Bulk Modulus (GPa) = 34.63363 77.92559 56.27961
# Shear Modulus (GPa) = 20.54367 33.15244 26.84806
#
# Velocity S-wave (km/s) = 3.26190 4.14372 3.72897
# Velocity P-wave (km/s) = 5.66782 7.95319 6.90570
#
# Compressibility (1/GPa) = 0.02887367
#
# Stress axis : x y z
#
# Youngs Moduli (GPa) = 102.59486 115.57629 26.66555
#
# Poissons Ratio (x) = 0.49515 0.10755
# Poissons Ratio (y) = 0.43953 0.13856
# Poissons Ratio (z) = 0.41380 0.60055
#
# Static dielectric constant tensor:
#      x y z
#    x 3.145630 0.000000 0.000000 
#    y 0.000000 3.928250 0.000000 
#    z 0.000000 0.000000 3.004900 
# 
# 
# High freq. dielectric constant tensor:
#      x y z
#    x 1.766060 0.000000 0.000000 
#    y 0.000000 1.768660 0.000000 
#    z 0.000000 0.000000 1.706270 
# 
# From -- ./inp_files/9958.got.cif
#   From: 2010.06.25/outbox.cif.g09.slc.cpg/sg71_5_cif.got.tgz:9958.got - 2010.06.28 04:59:45.
