data_PCOD8289319
_publ_section_title
;
Structure prediction by ZEFSAII (Michael W. Deem and Ramdas Pophale) SiO2 
 PCOD8289319
Probable space group: I M M M
;
_chemical_formula_sum "Si O2"
_cell_formula_units_Z 104
_cell_length_a 26.362585
_cell_length_b 23.478650
_cell_length_c 9.056724
_cell_angle_alpha 90.000000
_cell_angle_beta 90.000000
_cell_angle_gamma 90.000000
_cell_volume 5605.730925
_symmetry_space_group_name_H-M "I M M M"
_symmetry_group_IT_number 71
_symmetry_cell_setting 'orthorhombic'
loop_
_space_group_symop_operation_xyz
x,y,z
-x,-y,z
x,-y,-z
-x,y,-z
-x,-y,-z
x,y,-z
-x,y,z
x,-y,z
1/2+x,1/2+y,1/2+z
1/2-x,1/2-y,1/2+z
1/2+x,1/2-y,1/2-z
1/2-x,1/2+y,1/2-z
1/2-x,1/2-y,1/2-z
1/2+x,1/2+y,1/2-z
1/2-x,1/2+y,1/2+z
1/2+x,1/2-y,1/2+z
loop_
_atom_site_type_symbol
_atom_site_label
_atom_site_fract_x
_atom_site_fract_y
_atom_site_fract_z
Si Si1 0.206644 0.434949 0.825494
Si Si2 0.058791 0.748023 0.325031
Si Si3 0.592426 0.362279 0.674003
Si Si4 0.189257 0.064885 0.170603
Si Si5 0.059029 0.562216 0.839923
Si Si6 0.500000 0.437343 0.324724
Si Si7 0.623022 0.860620 0.830006
O O1 0.192314 0.500000 0.775034
O O2 0.262515 0.419976 0.769161
O O3 0.169955 0.385376 0.763614
O O4 0.205891 0.430391 0.000000
O O5 0.057649 0.753202 0.500000
O O6 0.084076 0.803461 0.256599
O O7 0.098795 0.699095 0.276102
O O8 0.000000 0.738148 0.269111
O O9 0.588008 0.351389 0.500000
O O10 0.645821 0.390646 0.716754
O O11 0.549498 0.404960 0.731786
O O12 0.170445 0.000000 0.198610
O O13 0.204220 0.072769 0.000000
O O14 0.084532 0.500000 0.834809
O O15 0.077086 0.596179 0.697486
O O16 0.000000 0.556131 0.827355
O O17 0.074099 0.590037 0.000000
O O18 0.500000 0.500000 0.253905
O O19 0.500000 0.441545 0.500000
O O20 0.639140 0.858705 0.000000
#
# Coordination Sequence:
#
# PCOD8289319 Si02
#       7
#    16  16  16  16  16   8  16
#     4  10  21  37  57  82 111 142 178 224 278 332
#     4  10  22  39  55  74 108 150 186 226 274 320
#     4  10  19  33  56  85 112 143 183 221 263 320
#     4   9  18  34  57  85 115 144 175 217 270 325
#     4   9  18  32  49  72 103 135 168 215 276 334
#     4   9  16  28  51  85 119 143 170 215 266 317
#     4  11  22  35  53  76 102 139 187 231 274 324
#
# _framework density 18.552441999999999
#
# number of rings (size 3 to 8) (size 9 to 14) (size 15 to 20)
#    0.000    2.231    0.769    2.769    0.000    7.692 
#    0.000    1.538    0.000    1.846    0.000    0.000 
#    0.000    0.000    0.000    0.000    0.000    0.000 
#
# Total GULP energy -644330.765549 kJ/mol
# GULP energy per Si atom -12390.976261 kJ/mol
# Density = 1.851022 g / cm^3
# Si number density = 18.552442 Si / 1000 Ang^3
#
#
#
# Elastic Constant Matrix: (Units=GPa)
#
#
# Indices 1 2 3 4 5 6 
#
# 1 131.2549 83.4369 44.0322 0.0000 0.0000 0.0000
# 2 83.4369 135.2720 39.6624 0.0000 0.0000 0.0000
# 3 44.0322 39.6624 38.5767 0.0000 0.0000 0.0000
# 4 0.0000 0.0000 0.0000 24.9096 0.0000 0.0000
# 5 0.0000 0.0000 0.0000 0.0000 27.7732 0.0000
# 6 0.0000 0.0000 0.0000 0.0000 0.0000 37.7021
#
#
#
# Elastic Compliance Matrix: (Units=1/GPa)
#
#
# Indices 1 2 3 4 5 6 
#
# 1 0.015248 -0.006159 -0.011073 0.000000 0.000000 0.000000
# 2 -0.006159 0.013070 -0.006408 0.000000 0.000000 0.000000
# 3 -0.011073 -0.006408 0.045150 0.000000 0.000000 0.000000
# 4 0.000000 0.000000 0.000000 0.040145 0.000000 0.000000
# 5 0.000000 0.000000 0.000000 0.000000 0.036006 0.000000
# 6 0.000000 0.000000 0.000000 0.000000 0.000000 0.026524
#
#
# Mechanical properties :
#
#
# Convention : Reuss Voigt Hill
#
# Bulk Modulus (GPa) = 38.18441 71.04073 54.61257
# Shear Modulus (GPa) = 21.53756 27.27512 24.40634
#
# Velocity S-wave (km/s) = 3.41090 3.83843 3.63096
# Velocity P-wave (km/s) = 6.01156 7.61707 6.86143
#
# Compressibility (1/GPa) = 0.02618870
#
# Stress axis : x y z
#
# Youngs Moduli (GPa) = 65.58075 76.50964 22.14847
#
# Poissons Ratio (x) = 0.47120 0.24524
# Poissons Ratio (y) = 0.40389 0.14194
# Poissons Ratio (z) = 0.72616 0.49030
#
# Static dielectric constant tensor:
#      x y z
#    x 3.485820 0.000000 0.000000 
#    y 0.000000 3.514570 0.000000 
#    z 0.000000 0.000000 3.334370 
# 
# 
# High freq. dielectric constant tensor:
#      x y z
#    x 1.725650 0.000000 0.000000 
#    y 0.000000 1.714770 0.000000 
#    z 0.000000 0.000000 1.706540 
# 
# From -- ./inp_files/15300.got.cif
#   From: 2010.06.25/outbox.cif.g09.slc.cpg/sg71_8_cif.got.tgz:15300.got - 2010.06.28 04:59:45.
