data_PCOD8289959
_publ_section_title
;
Structure prediction by ZEFSAII (Michael W. Deem and Ramdas Pophale) SiO2 
 PCOD8289959
Probable space group: I M M M
;
_chemical_formula_sum "Si O2"
_cell_formula_units_Z 88
_cell_length_a 27.300511
_cell_length_b 9.890846
_cell_length_c 18.003877
_cell_angle_alpha 90.000000
_cell_angle_beta 90.000000
_cell_angle_gamma 90.000000
_cell_volume 4861.499588
_symmetry_space_group_name_H-M "I M M M"
_symmetry_group_IT_number 71
_symmetry_cell_setting 'orthorhombic'
loop_
_space_group_symop_operation_xyz
x,y,z
-x,-y,z
x,-y,-z
-x,y,-z
-x,-y,-z
x,y,-z
-x,y,z
x,-y,z
1/2+x,1/2+y,1/2+z
1/2-x,1/2-y,1/2+z
1/2+x,1/2-y,1/2-z
1/2-x,1/2+y,1/2-z
1/2-x,1/2-y,1/2-z
1/2+x,1/2+y,1/2-z
1/2-x,1/2+y,1/2+z
1/2+x,1/2-y,1/2+z
loop_
_atom_site_type_symbol
_atom_site_label
_atom_site_fract_x
_atom_site_fract_y
_atom_site_fract_z
Si Si1 0.500000 0.340199 0.084381
Si Si2 0.289283 0.339794 0.583019
Si Si3 0.119159 0.157481 0.823394
Si Si4 0.557787 0.850361 0.582715
Si Si5 0.397274 0.342213 0.151854
Si Si6 0.182055 0.649205 0.412857
O O1 0.500000 0.500000 0.079718
O O2 0.451893 0.292008 0.129712
O O3 0.500000 0.280589 0.000000
O O4 0.299590 0.279967 0.500000
O O5 0.291094 0.500000 0.577963
O O6 0.329683 0.288131 0.642125
O O7 0.235576 0.297115 0.613998
O O8 0.075319 0.237255 0.860959
O O9 0.115621 0.188300 0.736671
O O10 0.111457 0.000000 0.840123
O O11 0.577103 0.816528 0.500000
O O12 0.500000 0.847813 0.583636
O O13 0.576420 0.000000 0.606395
O O14 0.390967 0.500000 0.132626
O O15 0.359098 0.257907 0.104283
O O16 0.186053 0.631986 0.500000
O O17 0.170016 0.500000 0.378398
#
# Coordination Sequence:
#
# PCOD8289959 Si02
#       6
#     8  16  16  16  16  16
#     4   9  18  34  53  69  94 135 170 202 257 315
#     4   8  15  30  51  74 102 136 169 205 255 307
#     4  10  20  32  51  78 106 135 172 215 254 304
#     4   9  19  35  52  71 100 139 178 215 259 308
#     4  10  21  34  51  77 105 133 168 214 265 312
#     4   9  18  34  55  75  98 132 173 212 253 310
#
# _framework density 18.101410000000001
#
# number of rings (size 3 to 8) (size 9 to 14) (size 15 to 20)
#    0.000    2.818    0.000    2.727    1.273    4.000 
#    0.000    2.273    0.000    2.727    0.000    0.000 
#    0.000    0.000    0.000    0.000    0.000    0.000 
#
# Total GULP energy -545342.822369 kJ/mol
# GULP energy per Si atom -12394.155054 kJ/mol
# Density = 1.806021 g / cm^3
# Si number density = 18.101410 Si / 1000 Ang^3
#
#
#
# Elastic Constant Matrix: (Units=GPa)
#
#
# Indices 1 2 3 4 5 6 
#
# 1 118.1581 31.9403 54.1110 0.0000 0.0000 0.0000
# 2 31.9403 41.5430 24.3869 0.0000 0.0000 0.0000
# 3 54.1110 24.3869 67.1399 0.0000 0.0000 0.0000
# 4 0.0000 0.0000 0.0000 25.8490 0.0000 0.0000
# 5 0.0000 0.0000 0.0000 0.0000 15.6391 0.0000
# 6 0.0000 0.0000 0.0000 0.0000 0.0000 19.0336
#
#
#
# Elastic Compliance Matrix: (Units=1/GPa)
#
#
# Indices 1 2 3 4 5 6 
#
# 1 0.014300 -0.005375 -0.009573 0.000000 0.000000 0.000000
# 2 -0.005375 0.032616 -0.007515 0.000000 0.000000 0.000000
# 3 -0.009573 -0.007515 0.025339 0.000000 0.000000 0.000000
# 4 0.000000 0.000000 0.000000 0.038686 0.000000 0.000000
# 5 0.000000 0.000000 0.000000 0.000000 0.063942 0.000000
# 6 0.000000 0.000000 0.000000 0.000000 0.000000 0.052539
#
#
# Mechanical properties :
#
#
# Convention : Reuss Voigt Hill
#
# Bulk Modulus (GPa) = 36.59068 49.74637 43.16853
# Shear Modulus (GPa) = 17.76473 19.86452 18.81463
#
# Velocity S-wave (km/s) = 3.13613 3.31630 3.22747
# Velocity P-wave (km/s) = 5.77684 6.49658 6.14725
#
# Compressibility (1/GPa) = 0.02732936
#
# Stress axis : x y z
#
# Youngs Moduli (GPa) = 69.92964 30.66023 39.46514
#
# Poissons Ratio (x) = 0.16481 0.37779
# Poissons Ratio (y) = 0.37589 0.29657
# Poissons Ratio (z) = 0.66941 0.23040
#
# Static dielectric constant tensor:
#      x y z
#    x 3.579240 0.000000 0.000000 
#    y 0.000000 3.125420 0.000000 
#    z 0.000000 0.000000 3.397940 
# 
# 
# High freq. dielectric constant tensor:
#      x y z
#    x 1.709490 0.000000 0.000000 
#    y 0.000000 1.673240 0.000000 
#    z 0.000000 0.000000 1.695640 
# 
# From -- ./inp_files/14888.got.cif
#   From: 2010.06.25/outbox.cif.g09.slc.cpg/sg71_8_cif.got.tgz:14888.got - 2010.06.28 04:59:45.
