data_PCOD8289840
_publ_section_title
;
Structure prediction by ZEFSAII (Michael W. Deem and Ramdas Pophale) SiO2 
 PCOD8289840
Probable space group: I M M M
;
_chemical_formula_sum "Si O2"
_cell_formula_units_Z 104
_cell_length_a 9.434235
_cell_length_b 26.315078
_cell_length_c 21.768479
_cell_angle_alpha 90.000000
_cell_angle_beta 90.000000
_cell_angle_gamma 90.000000
_cell_volume 5404.299845
_symmetry_space_group_name_H-M "I M M M"
_symmetry_group_IT_number 71
_symmetry_cell_setting 'orthorhombic'
loop_
_space_group_symop_operation_xyz
x,y,z
-x,-y,z
x,-y,-z
-x,y,-z
-x,-y,-z
x,y,-z
-x,y,z
x,-y,z
1/2+x,1/2+y,1/2+z
1/2-x,1/2-y,1/2+z
1/2+x,1/2-y,1/2-z
1/2-x,1/2+y,1/2-z
1/2-x,1/2-y,1/2-z
1/2+x,1/2+y,1/2-z
1/2-x,1/2+y,1/2+z
1/2+x,1/2-y,1/2+z
loop_
_atom_site_type_symbol
_atom_site_label
_atom_site_fract_x
_atom_site_fract_y
_atom_site_fract_z
Si Si1 0.663248 0.557475 0.851985
Si Si2 0.832101 0.000000 0.930199
Si Si3 0.161651 0.694888 0.431216
Si Si4 0.341453 0.123828 0.428049
Si Si5 0.166572 0.206965 0.640540
Si Si6 0.834716 0.138552 0.252834
Si Si7 0.331002 0.608216 0.620795
O O1 0.500000 0.567682 0.869611
O O2 0.688928 0.500000 0.832028
O O3 0.761748 0.571718 0.909608
O O4 0.713184 0.592062 0.795489
O O5 0.780937 0.050457 0.893571
O O6 0.000000 0.000000 0.933462
O O7 0.771086 0.000000 0.000000
O O8 0.177969 0.718318 0.500000
O O9 0.206565 0.735579 0.378324
O O10 0.262517 0.645906 0.428701
O O11 0.000000 0.677897 0.419847
O O12 0.349689 0.126655 0.500000
O O13 0.500000 0.124869 0.399914
O O14 0.253072 0.171507 0.404780
O O15 0.205956 0.191687 0.711783
O O16 0.000000 0.196823 0.629528
O O17 0.766704 0.128495 0.186052
O O18 0.000000 0.136564 0.241113
O O19 0.500000 0.612142 0.616301
#
# Coordination Sequence:
#
# PCOD8289840 Si02
#       7
#    16   8  16  16  16  16  16
#     4   9  18  32  51  72  97 133 177 221 262 313
#     4   9  18  32  51  77 107 139 174 211 254 306
#     4  10  21  36  54  77 106 140 176 216 263 314
#     4  10  20  32  47  71 103 136 172 217 270 319
#     4   9  18  35  56  76 101 136 177 217 259 316
#     4   8  16  31  52  79 104 129 170 218 263 307
#     4  10  20  34  55  81 108 138 173 218 266 315
#
# _framework density 19.243936000000001
#
# number of rings (size 3 to 8) (size 9 to 14) (size 15 to 20)
#    0.000    2.692    0.000    2.308    1.077    4.615 
#    0.000    5.000    0.000    1.385    0.000    0.000 
#    0.000    0.000    0.000    0.000    0.000    0.000 
#
# Total GULP energy -644356.073163 kJ/mol
# GULP energy per Si atom -12391.462945 kJ/mol
# Density = 1.920014 g / cm^3
# Si number density = 19.243936 Si / 1000 Ang^3
#
#
#
# Elastic Constant Matrix: (Units=GPa)
#
#
# Indices 1 2 3 4 5 6 
#
# 1 48.1101 34.5278 26.0350 0.0000 0.0000 0.0000
# 2 34.5278 130.2289 47.5258 0.0000 0.0000 0.0000
# 3 26.0350 47.5258 102.0710 -0.0001 0.0000 0.0000
# 4 0.0000 0.0000 -0.0001 25.0501 0.0000 0.0000
# 5 0.0000 0.0000 0.0000 0.0000 17.1764 0.0000
# 6 0.0000 0.0000 0.0000 0.0000 0.0000 15.3680
#
#
#
# Elastic Compliance Matrix: (Units=1/GPa)
#
#
# Indices 1 2 3 4 5 6 
#
# 1 0.027155 -0.005628 -0.004306 0.000000 0.000000 0.000000
# 2 -0.005628 0.010417 -0.003415 0.000000 0.000000 0.000000
# 3 -0.004306 -0.003415 0.012485 0.000000 0.000000 0.000000
# 4 0.000000 0.000000 0.000000 0.039920 0.000000 0.000000
# 5 0.000000 0.000000 0.000000 0.000000 0.058220 0.000000
# 6 0.000000 0.000000 0.000000 0.000000 0.000000 0.065070
#
#
# Mechanical properties :
#
#
# Convention : Reuss Voigt Hill
#
# Bulk Modulus (GPa) = 42.80845 55.17637 48.99241
# Shear Modulus (GPa) = 20.18148 23.00698 21.59423
#
# Velocity S-wave (km/s) = 3.24191 3.46142 3.35346
# Velocity P-wave (km/s) = 6.02551 6.68652 6.36460
#
# Compressibility (1/GPa) = 0.02335988
#
# Stress axis : x y z
#
# Youngs Moduli (GPa) = 36.82548 95.99463 80.09385
#
# Poissons Ratio (x) = 0.54029 0.34486
# Poissons Ratio (y) = 0.20727 0.27351
# Poissons Ratio (z) = 0.15856 0.32780
#
# Static dielectric constant tensor:
#      x y z
#    x 3.351280 0.000000 0.000000 
#    y 0.000000 3.762830 0.000000 
#    z 0.000000 0.000000 3.730540 
# 
# 
# High freq. dielectric constant tensor:
#      x y z
#    x 1.720330 0.000000 0.000000 
#    y 0.000000 1.747910 0.000000 
#    z 0.000000 0.000000 1.750270 
# 
# From -- ./inp_files/50888.got.cif
#   From: 2010.06.25/outbox.cif.g09.slc.cpg/sg71_26_cif.got.tgz:50888.got - 2010.06.28 04:59:45.
