data_PCOD8289042
_publ_section_title
;
Structure prediction by ZEFSAII (Michael W. Deem and Ramdas Pophale) SiO2 
 PCOD8289042
Probable space group: I M M M
;
_chemical_formula_sum "Si O2"
_cell_formula_units_Z 104
_cell_length_a 27.325537
_cell_length_b 12.120860
_cell_length_c 17.413104
_cell_angle_alpha 90.000000
_cell_angle_beta 90.000000
_cell_angle_gamma 90.000000
_cell_volume 5767.376909
_symmetry_space_group_name_H-M "I M M M"
_symmetry_group_IT_number 71
_symmetry_cell_setting 'orthorhombic'
loop_
_space_group_symop_operation_xyz
x,y,z
-x,-y,z
x,-y,-z
-x,y,-z
-x,-y,-z
x,y,-z
-x,y,z
x,-y,z
1/2+x,1/2+y,1/2+z
1/2-x,1/2-y,1/2+z
1/2+x,1/2-y,1/2-z
1/2-x,1/2+y,1/2-z
1/2-x,1/2-y,1/2-z
1/2+x,1/2+y,1/2-z
1/2-x,1/2+y,1/2+z
1/2+x,1/2-y,1/2+z
loop_
_atom_site_type_symbol
_atom_site_label
_atom_site_fract_x
_atom_site_fract_y
_atom_site_fract_z
Si Si1 0.785377 0.375168 0.307973
Si Si2 0.946317 0.500000 0.585923
Si Si3 0.266161 0.379282 0.000000
Si Si4 0.886525 0.708694 0.364706
Si Si5 0.618754 0.624968 0.000000
Si Si6 0.114722 0.625352 0.085758
Si Si7 0.788620 0.290870 0.142973
Si Si8 0.944018 0.628042 0.767945
O O1 0.787875 0.500000 0.336832
O O2 0.828513 0.307911 0.351214
O O3 0.790923 0.372881 0.215778
O O4 0.731557 0.327538 0.328492
O O5 0.962963 0.500000 0.500000
O O6 0.912890 0.394714 0.598521
O O7 0.000000 0.500000 0.630960
O O8 0.323727 0.381629 0.000000
O O9 0.249414 0.323288 0.922144
O O10 0.242749 0.500000 0.000000
O O11 0.897101 0.812139 0.421286
O O12 0.912139 0.716770 0.280561
O O13 0.596547 0.500000 0.000000
O O14 0.135508 0.500000 0.091232
O O15 0.157356 0.712337 0.106771
O O16 0.069299 0.640124 0.142770
O O17 0.095790 0.650725 0.000000
O O18 0.933625 0.500000 0.739626
O O19 0.000000 0.660513 0.758930
#
# Coordination Sequence:
#
# PCOD8289042 Si02
#       8
#    16   8   8  16   8  16  16  16
#     4  11  22  35  53  80 112 147 185 235 283 331
#     4  11  22  34  58  88 109 139 187 245 297 345
#     4  11  20  34  54  74 106 148 192 219 260 330
#     4  12  20  37  58  81 114 147 190 238 289 342
#     4  11  26  41  55  82 115 154 193 238 285 343
#     4  10  19  32  54  81 115 155 189 225 271 334
#     4  11  21  33  51  79 110 149 188 220 272 331
#     4  10  20  34  56  86 115 145 185 236 292 342
#
# _framework density 18.032461000000001
#
# number of rings (size 3 to 8) (size 9 to 14) (size 15 to 20)
#    0.000    1.154    6.154    1.846    0.000    0.308 
#    0.000    2.692    0.000    3.692    0.000    0.000 
#    0.000    0.000    0.000    2.769    0.000    0.308 
#
# Total GULP energy -644349.639486 kJ/mol
# GULP energy per Si atom -12391.339221 kJ/mol
# Density = 1.799142 g / cm^3
# Si number density = 18.032461 Si / 1000 Ang^3
#
#
#
# Elastic Constant Matrix: (Units=GPa)
#
#
# Indices 1 2 3 4 5 6 
#
# 1 70.3295 24.2022 21.5576 0.0000 0.0000 0.0000
# 2 24.2022 79.2779 40.8501 0.0000 0.0000 0.0000
# 3 21.5576 40.8501 119.1026 0.0000 0.0000 0.0000
# 4 0.0000 0.0000 0.0000 -7.6496 0.0000 0.0000
# 5 0.0000 0.0000 0.0000 0.0000 27.2319 0.0000
# 6 0.0000 0.0000 0.0000 0.0000 0.0000 20.7293
#
#
#
# Elastic Compliance Matrix: (Units=1/GPa)
#
#
# Indices 1 2 3 4 5 6 
#
# 1 0.016103 -0.004147 -0.001492 0.000000 0.000000 0.000000
# 2 -0.004147 0.016390 -0.004871 0.000000 0.000000 0.000000
# 3 -0.001492 -0.004871 0.010337 0.000000 0.000000 0.000000
# 4 0.000000 0.000000 0.000000 -0.130726 0.000000 0.000000
# 5 0.000000 0.000000 0.000000 0.000000 0.036722 0.000000
# 6 0.000000 0.000000 0.000000 0.000000 0.000000 0.048241
#
#
# Mechanical properties :
#
#
# Convention : Reuss Voigt Hill
#
# Bulk Modulus (GPa) = 45.85164 49.10332 47.47748
# Shear Modulus (GPa) = 197.18951 20.20233 108.69592
#
# Velocity S-wave (km/s) = 10.46852 3.35077 7.77231
# Velocity P-wave (km/s) = 13.09971 6.50075 10.34075
#
# Compressibility (1/GPa) = 0.02180947
#
# Stress axis : x y z
#
# Youngs Moduli (GPa) = 62.09885 61.01398 96.74156
#
# Poissons Ratio (x) = 0.25303 0.14437
# Poissons Ratio (y) = 0.25753 0.47120
# Poissons Ratio (z) = 0.09267 0.29718
#
# Static dielectric constant tensor:
#      x y z
#    x 3.270630 0.000000 0.000000 
#    y 0.000000 3.065150 0.000000 
#    z 0.000000 0.000000 3.353820 
# 
# 
# High freq. dielectric constant tensor:
#      x y z
#    x 1.695860 0.000000 0.000000 
#    y 0.000000 1.649280 0.000000 
#    z 0.000000 0.000000 1.724500 
# 
# From -- ./inp_files/48891.got.cif
#   From: 2010.06.25/outbox.cif.g09.slc.cpg/sg71_25_cif.got.tgz:48891.got - 2010.06.28 04:59:45.
