data_PCOD8289636
_publ_section_title
;
Structure prediction by ZEFSAII (Michael W. Deem and Ramdas Pophale) SiO2 
 PCOD8289636
Probable space group: I M M M
;
_chemical_formula_sum "Si O2"
_cell_formula_units_Z 88
_cell_length_a 12.026645
_cell_length_b 26.709742
_cell_length_c 15.088792
_cell_angle_alpha 90.000000
_cell_angle_beta 90.000000
_cell_angle_gamma 90.000000
_cell_volume 4846.951305
_symmetry_space_group_name_H-M "I M M M"
_symmetry_group_IT_number 71
_symmetry_cell_setting 'orthorhombic'
loop_
_space_group_symop_operation_xyz
x,y,z
-x,-y,z
x,-y,-z
-x,y,-z
-x,-y,-z
x,y,-z
-x,y,z
x,-y,z
1/2+x,1/2+y,1/2+z
1/2-x,1/2-y,1/2+z
1/2+x,1/2-y,1/2-z
1/2-x,1/2+y,1/2-z
1/2-x,1/2-y,1/2-z
1/2+x,1/2+y,1/2-z
1/2-x,1/2+y,1/2+z
1/2+x,1/2-y,1/2+z
loop_
_atom_site_type_symbol
_atom_site_label
_atom_site_fract_x
_atom_site_fract_y
_atom_site_fract_z
Si Si1 0.129462 0.137917 0.249483
Si Si2 0.876374 0.059127 0.500000
Si Si3 0.264638 0.941745 0.667743
Si Si4 0.181284 0.785908 0.898165
Si Si5 0.000000 0.291310 0.895720
Si Si6 0.500000 0.095653 0.393392
Si Si7 0.873274 0.784149 0.600023
O O1 0.211801 0.089909 0.251264
O O2 0.153744 0.164879 0.156890
O O3 0.163556 0.173661 0.331039
O O4 0.000000 0.121773 0.254956
O O5 0.809252 0.076882 0.585247
O O6 0.000000 0.083832 0.500000
O O7 0.887368 0.000000 0.500000
O O8 0.393218 0.931462 0.647923
O O9 0.249238 0.000000 0.689360
O O10 0.107496 0.739239 0.863427
O O11 0.307363 0.767679 0.884701
O O12 0.153579 0.798839 0.000000
O O13 0.000000 0.347409 0.857601
O O14 0.000000 0.297114 0.000000
O O15 0.500000 0.090146 0.500000
O O16 0.850601 0.804658 0.500000
O O17 0.000000 0.768918 0.614797
#
# Coordination Sequence:
#
# PCOD8289636 Si02
#       7
#    16   8  16  16   8   8  16
#     4  11  22  35  55  81 110 149 190 233 283 330
#     4   9  18  33  53  75 103 142 185 227 269 321
#     4  11  23  37  54  78 110 149 189 233 279 325
#     4  10  19  36  57  79 111 146 188 234 283 336
#     4   9  18  31  54  81 106 141 178 227 281 334
#     4  11  21  36  57  84 115 151 190 226 275 339
#     4   9  19  33  50  76 112 148 181 223 272 334
#
# _framework density 18.155743000000001
#
# number of rings (size 3 to 8) (size 9 to 14) (size 15 to 20)
#    0.000    1.909    1.818    2.455    1.273    2.909 
#    1.636    0.000    0.000    0.545    0.000    1.273 
#    0.000    1.455    0.000    0.000    0.000    0.000 
#
# Total GULP energy -545600.579190 kJ/mol
# GULP energy per Si atom -12400.013163 kJ/mol
# Density = 1.811442 g / cm^3
# Si number density = 18.155743 Si / 1000 Ang^3
#
#
#
# Elastic Constant Matrix: (Units=GPa)
#
#
# Indices 1 2 3 4 5 6 
#
# 1 116.1312 45.9631 35.0044 -0.0001 0.0000 0.0000
# 2 45.9631 101.0807 44.4519 -0.0001 0.0000 0.0000
# 3 35.0044 44.4519 65.0166 -0.0011 0.0007 0.0002
# 4 -0.0001 -0.0001 -0.0011 24.1281 0.0003 0.0000
# 5 0.0000 0.0000 0.0007 0.0003 21.6750 -0.0001
# 6 0.0000 0.0000 0.0002 0.0000 -0.0001 13.3292
#
#
#
# Elastic Compliance Matrix: (Units=1/GPa)
#
#
# Indices 1 2 3 4 5 6 
#
# 1 0.011060 -0.003447 -0.003598 0.000000 0.000000 0.000000
# 2 -0.003447 0.015221 -0.008551 0.000000 0.000000 0.000000
# 3 -0.003598 -0.008551 0.023164 0.000001 -0.000001 0.000000
# 4 0.000000 0.000000 0.000001 0.041445 -0.000001 0.000000
# 5 0.000000 0.000000 -0.000001 -0.000001 0.046136 0.000000
# 6 0.000000 0.000000 0.000000 0.000000 0.000000 0.075023
#
#
# Mechanical properties :
#
#
# Convention : Reuss Voigt Hill
#
# Bulk Modulus (GPa) = 54.78388 59.22971 57.00680
# Shear Modulus (GPa) = 20.05421 22.28039 21.16730
#
# Velocity S-wave (km/s) = 3.32711 3.50692 3.41819
# Velocity P-wave (km/s) = 6.70816 7.00656 6.85898
#
# Compressibility (1/GPa) = 0.01825354
#
# Stress axis : x y z
#
# Youngs Moduli (GPa) = 90.41915 65.70004 43.17077
#
# Poissons Ratio (x) = 0.22645 0.15532
# Poissons Ratio (y) = 0.31166 0.36914
# Poissons Ratio (z) = 0.32531 0.56178
#
# Static dielectric constant tensor:
#      x y z
#    x 3.529190 0.000000 0.000000 
#    y 0.000000 3.198350 0.000000 
#    z 0.000000 0.000000 3.156190 
# 
# 
# High freq. dielectric constant tensor:
#      x y z
#    x 1.722240 0.000000 0.000000 
#    y 0.000000 1.685220 0.000000 
#    z 0.000000 0.000000 1.670730 
# 
# From -- ./inp_files/33003.got.cif
#   From: 2010.06.25/outbox.cif.g09.slc.cpg/sg71_17_cif.got.tgz:33003.got - 2010.06.28 04:59:45.
