data_PCOD8289063
_publ_section_title
;
Structure prediction by ZEFSAII (Michael W. Deem and Ramdas Pophale) SiO2 
 PCOD8289063
Probable space group: I M M M
;
_chemical_formula_sum "Si O2"
_cell_formula_units_Z 96
_cell_length_a 16.976142
_cell_length_b 26.948379
_cell_length_c 10.888166
_cell_angle_alpha 90.000000
_cell_angle_beta 90.000000
_cell_angle_gamma 90.000000
_cell_volume 4981.112831
_symmetry_space_group_name_H-M "I M M M"
_symmetry_group_IT_number 71
_symmetry_cell_setting 'orthorhombic'
loop_
_space_group_symop_operation_xyz
x,y,z
-x,-y,z
x,-y,-z
-x,y,-z
-x,-y,-z
x,y,-z
-x,y,z
x,-y,z
1/2+x,1/2+y,1/2+z
1/2-x,1/2-y,1/2+z
1/2+x,1/2-y,1/2-z
1/2-x,1/2+y,1/2-z
1/2-x,1/2-y,1/2-z
1/2+x,1/2+y,1/2-z
1/2-x,1/2+y,1/2+z
1/2+x,1/2-y,1/2+z
loop_
_atom_site_type_symbol
_atom_site_label
_atom_site_fract_x
_atom_site_fract_y
_atom_site_fract_z
Si Si1 0.089115 0.000000 0.645167
Si Si2 0.157856 0.806295 0.749518
Si Si3 0.193773 0.907067 0.644629
Si Si4 0.678683 0.791433 0.861496
Si Si5 0.500000 0.941737 0.860801
Si Si6 0.092057 0.330556 0.000000
Si Si7 0.360257 0.885552 0.743728
Si Si8 0.408213 0.280117 0.500000
O O1 0.137187 0.048460 0.688676
O O2 0.082375 0.000000 0.500000
O O3 0.000000 0.000000 0.701054
O O4 0.145491 0.856129 0.670495
O O5 0.250711 0.798492 0.765801
O O6 0.127231 0.757256 0.676147
O O7 0.115903 0.811405 0.880524
O O8 0.214314 0.910841 0.500000
O O9 0.273123 0.909591 0.727849
O O10 0.630412 0.842476 0.847389
O O11 0.709686 0.785228 0.000000
O O12 0.422179 0.926817 0.784811
O O13 0.500000 0.000000 0.866972
O O14 0.500000 0.920151 0.000000
O O15 0.119004 0.361244 0.884483
O O16 0.130969 0.275189 0.000000
O O17 0.000000 0.324005 0.000000
O O18 0.500000 0.273753 0.500000
#
# Coordination Sequence:
#
# PCOD8289063 Si02
#       8
#     8  16  16  16   8   8  16   8
#     4   9  20  40  62  84 115 152 186 240 316 370
#     4  10  20  33  54  85 115 151 195 236 298 352
#     4  10  21  36  62  93 119 150 198 253 304 366
#     4  10  19  32  55  81 116 151 195 240 285 355
#     4  11  26  45  61  83 123 172 215 254 303 350
#     4  11  20  36  56  84 125 166 199 241 301 361
#     4  11  21  36  60  88 121 161 201 247 298 356
#     4  11  22  36  54  81 124 164 198 238 300 367
#
# _framework density 19.272801999999999
#
# number of rings (size 3 to 8) (size 9 to 14) (size 15 to 20)
#    0.000    1.667    4.167    1.000    1.167    0.667 
#    0.000    0.833    0.000    1.500    0.000    1.167 
#    0.000    0.000    0.000    0.000    0.000    0.000 
#
# Total GULP energy -595018.223954 kJ/mol
# GULP energy per Si atom -12396.212999 kJ/mol
# Density = 1.922894 g / cm^3
# Si number density = 19.272802 Si / 1000 Ang^3
#
#
#
# Elastic Constant Matrix: (Units=GPa)
#
#
# Indices 1 2 3 4 5 6 
#
# 1 91.9015 54.0403 24.0189 0.0001 -0.0002 -0.0001
# 2 54.0403 128.6377 34.5537 0.0001 0.0002 0.0000
# 3 24.0189 34.5537 77.4306 -0.0009 0.0019 0.0004
# 4 0.0001 0.0001 -0.0009 34.9697 0.0005 0.0000
# 5 -0.0002 0.0002 0.0019 0.0005 13.3665 0.0001
# 6 -0.0001 0.0000 0.0004 0.0000 0.0001 23.2046
#
#
#
# Elastic Compliance Matrix: (Units=1/GPa)
#
#
# Indices 1 2 3 4 5 6 
#
# 1 0.014733 -0.005637 -0.002054 0.000000 0.000001 0.000000
# 2 -0.005637 0.010990 -0.003155 0.000000 0.000000 0.000000
# 3 -0.002054 -0.003155 0.014960 0.000000 -0.000002 0.000000
# 4 0.000000 0.000000 0.000000 0.028596 -0.000001 0.000000
# 5 0.000001 0.000000 -0.000002 -0.000001 0.074814 0.000000
# 6 0.000000 0.000000 0.000000 0.000000 0.000000 0.043095
#
#
# Mechanical properties :
#
#
# Convention : Reuss Voigt Hill
#
# Bulk Modulus (GPa) = 52.66418 58.13285 55.39851
# Shear Modulus (GPa) = 23.23286 26.66528 24.94907
#
# Velocity S-wave (km/s) = 3.47576 3.72367 3.60185
# Velocity P-wave (km/s) = 6.59491 6.97971 6.79003
#
# Compressibility (1/GPa) = 0.01898824
#
# Stress axis : x y z
#
# Youngs Moduli (GPa) = 67.87417 90.99471 66.84406
#
# Poissons Ratio (x) = 0.51298 0.13733
# Poissons Ratio (y) = 0.38264 0.21092
# Poissons Ratio (z) = 0.13944 0.28713
#
# Static dielectric constant tensor:
#      x y z
#    x 3.505950 0.000000 0.000000 
#    y 0.000000 3.708760 0.000000 
#    z 0.000000 0.000000 3.357300 
# 
# 
# High freq. dielectric constant tensor:
#      x y z
#    x 1.732820 0.000000 0.000000 
#    y 0.000000 1.750970 0.000000 
#    z 0.000000 0.000000 1.742050 
# 
# From -- ./inp_files/24296.got.cif
#   From: 2010.06.25/outbox.cif.g09.slc.cpg/sg71_13_cif.got.tgz:24296.got - 2010.06.28 04:59:45.
