data_PCOD8289533
_publ_section_title
;
Structure prediction by ZEFSAII (Michael W. Deem and Ramdas Pophale) SiO2 
 PCOD8289533
Probable space group: I M M M
;
_chemical_formula_sum "Si O2"
_cell_formula_units_Z 88
_cell_length_a 9.216837
_cell_length_b 28.339264
_cell_length_c 17.140301
_cell_angle_alpha 90.000000
_cell_angle_beta 90.000000
_cell_angle_gamma 90.000000
_cell_volume 4477.018802
_symmetry_space_group_name_H-M "I M M M"
_symmetry_group_IT_number 71
_symmetry_cell_setting 'orthorhombic'
loop_
_space_group_symop_operation_xyz
x,y,z
-x,-y,z
x,-y,-z
-x,y,-z
-x,-y,-z
x,y,-z
-x,y,z
x,-y,z
1/2+x,1/2+y,1/2+z
1/2-x,1/2-y,1/2+z
1/2+x,1/2-y,1/2-z
1/2-x,1/2+y,1/2-z
1/2-x,1/2-y,1/2-z
1/2+x,1/2+y,1/2-z
1/2-x,1/2+y,1/2+z
1/2+x,1/2-y,1/2+z
loop_
_atom_site_type_symbol
_atom_site_label
_atom_site_fract_x
_atom_site_fract_y
_atom_site_fract_z
Si Si1 0.337477 0.190033 0.911865
Si Si2 0.671357 0.765989 0.671557
Si Si3 0.658996 0.445028 0.500000
Si Si4 0.172507 0.639207 0.912315
Si Si5 0.166995 0.589977 0.646512
Si Si6 0.327324 0.947090 0.688109
O O1 0.500000 0.210942 0.901138
O O2 0.218314 0.229805 0.895881
O O3 0.316368 0.146645 0.852387
O O4 0.315659 0.171168 0.000000
O O5 0.500000 0.764009 0.684705
O O6 0.750000 0.750000 0.750000
O O7 0.722509 0.817775 0.643310
O O8 0.638799 0.500000 0.500000
O O9 0.500000 0.420571 0.500000
O O10 0.742762 0.431342 0.577133
O O11 0.231154 0.589845 0.876461
O O12 0.000000 0.638869 0.916095
O O13 0.235929 0.644874 0.000000
O O14 0.229015 0.569380 0.727253
O O15 0.000000 0.575417 0.634287
O O16 0.500000 0.946274 0.688218
O O17 0.269921 0.000000 0.669340
#
# Coordination Sequence:
#
# PCOD8289533 Si02
#       6
#    16  16   8  16  16  16
#     4  10  20  35  55  80 110 145 184 228 278 331
#     4  11  22  36  55  80 111 149 188 228 280 340
#     4  11  23  35  49  75 111 147 189 243 290 329
#     4   9  18  33  52  76 109 145 180 223 278 337
#     4  10  19  35  55  77 108 149 191 230 280 341
#     4   9  17  29  50  79 106 137 182 232 277 329
#
# _framework density 19.655937999999999
#
# number of rings (size 3 to 8) (size 9 to 14) (size 15 to 20)
#    0.000    2.091    0.909    3.000    0.000    6.545 
#    0.000    1.818    0.000    0.000    0.000    0.000 
#    0.000    0.000    0.000   15.818    0.000   16.000 
#
# Total GULP energy -545527.652273 kJ/mol
# GULP energy per Si atom -12398.355733 kJ/mol
# Density = 1.961120 g / cm^3
# Si number density = 19.655938 Si / 1000 Ang^3
#
#
#
# Elastic Constant Matrix: (Units=GPa)
#
#
# Indices 1 2 3 4 5 6 
#
# 1 51.7257 34.5378 33.2638 -0.0004 -0.0001 0.0000
# 2 34.5378 150.2542 75.1313 -0.0003 -0.0001 0.0000
# 3 33.2638 75.1313 142.1791 -0.0024 -0.0003 0.0000
# 4 -0.0004 -0.0003 -0.0024 35.2606 -0.0002 0.0000
# 5 -0.0001 -0.0001 -0.0003 -0.0002 19.0896 -0.0003
# 6 0.0000 0.0000 0.0000 0.0000 -0.0003 23.8737
#
#
#
# Elastic Compliance Matrix: (Units=1/GPa)
#
#
# Indices 1 2 3 4 5 6 
#
# 1 0.024189 -0.003711 -0.003698 0.000000 0.000000 0.000000
# 2 -0.003711 0.009615 -0.004213 0.000000 0.000000 0.000000
# 3 -0.003698 -0.004213 0.010125 0.000001 0.000000 0.000000
# 4 0.000000 0.000000 0.000001 0.028360 0.000000 0.000000
# 5 0.000000 0.000000 0.000000 0.000000 0.052385 0.000001
# 6 0.000000 0.000000 0.000000 0.000000 0.000001 0.041887
#
#
# Mechanical properties :
#
#
# Convention : Reuss Voigt Hill
#
# Bulk Modulus (GPa) = 48.34434 70.00276 59.17355
# Shear Modulus (GPa) = 25.41963 29.05984 27.23974
#
# Velocity S-wave (km/s) = 3.60005 3.84920 3.72671
# Velocity P-wave (km/s) = 6.47527 7.44624 6.97767
#
# Compressibility (1/GPa) = 0.02068495
#
# Stress axis : x y z
#
# Youngs Moduli (GPa) = 41.34143 104.00677 98.76922
#
# Poissons Ratio (x) = 0.38596 0.36527
# Poissons Ratio (y) = 0.15341 0.41607
# Poissons Ratio (z) = 0.15289 0.43813
#
# Static dielectric constant tensor:
#      x y z
#    x 3.338600 0.000000 0.000000 
#    y 0.000000 3.845020 0.000000 
#    z 0.000000 0.000000 3.733910 
# 
# 
# High freq. dielectric constant tensor:
#      x y z
#    x 1.718470 0.000000 0.000000 
#    y 0.000000 1.775730 0.000000 
#    z 0.000000 0.000000 1.775110 
# 
# From -- ./inp_files/42473.got.cif
#   From: 2010.06.25/outbox.cif.g09.slc.cpg/sg71_22_cif.got.tgz:42473.got - 2010.06.28 04:59:45.
