data_PCOD8289635
_publ_section_title
;
Structure prediction by ZEFSAII (Michael W. Deem and Ramdas Pophale) SiO2 
 PCOD8289635
Probable space group: I M M M
;
_chemical_formula_sum "Si O2"
_cell_formula_units_Z 112
_cell_length_a 20.102039
_cell_length_b 23.016675
_cell_length_c 13.163375
_cell_angle_alpha 90.000000
_cell_angle_beta 90.000000
_cell_angle_gamma 90.000000
_cell_volume 6090.457968
_symmetry_space_group_name_H-M "I M M M"
_symmetry_group_IT_number 71
_symmetry_cell_setting 'orthorhombic'
loop_
_space_group_symop_operation_xyz
x,y,z
-x,-y,z
x,-y,-z
-x,y,-z
-x,-y,-z
x,y,-z
-x,y,z
x,-y,z
1/2+x,1/2+y,1/2+z
1/2-x,1/2-y,1/2+z
1/2+x,1/2-y,1/2-z
1/2-x,1/2+y,1/2-z
1/2-x,1/2-y,1/2-z
1/2+x,1/2+y,1/2-z
1/2-x,1/2+y,1/2+z
1/2+x,1/2-y,1/2+z
loop_
_atom_site_type_symbol
_atom_site_label
_atom_site_fract_x
_atom_site_fract_y
_atom_site_fract_z
Si Si1 0.210655 0.433998 0.203008
Si Si2 0.424781 0.819083 0.111217
Si Si3 0.753454 0.816510 0.382955
Si Si4 0.926709 0.563766 0.294754
Si Si5 0.307025 0.566551 0.385266
Si Si6 0.574568 0.650411 0.618401
Si Si7 0.149477 0.242300 0.765108
O O1 0.229370 0.500000 0.166556
O O2 0.234400 0.384815 0.124519
O O3 0.130949 0.427861 0.211177
O O4 0.244465 0.420739 0.312510
O O5 0.500000 0.797061 0.127674
O O6 0.420641 0.888853 0.116760
O O7 0.378030 0.794057 0.197277
O O8 0.399404 0.799978 0.000000
O O9 0.771726 0.803777 0.500000
O O10 0.814942 0.804239 0.308320
O O11 0.696075 0.771654 0.349614
O O12 0.918607 0.500000 0.345251
O O13 0.000000 0.569429 0.241845
O O14 0.285610 0.584111 0.500000
O O15 0.329001 0.500000 0.380088
O O16 0.372036 0.601814 0.349568
O O17 0.579460 0.664254 0.500000
O O18 0.500000 0.629448 0.647345
O O19 0.590064 0.709686 0.677927
#
# Coordination Sequence:
#
# PCOD8289635 Si02
#       7
#    16  16  16  16  16  16  16
#     4  10  19  36  57  79 106 141 180 225 276 320
#     4  10  20  33  52  77 104 140 181 216 260 320
#     4  11  23  37  56  81 104 138 185 227 271 321
#     4   9  18  33  53  77 107 140 175 220 272 322
#     4   9  18  33  54  82 113 142 177 220 269 325
#     4  10  20  34  56  84 112 145 181 217 263 320
#     4  11  21  38  53  75 111 146 172 224 270 320
#
# _framework density 18.389420999999999
#
# number of rings (size 3 to 8) (size 9 to 14) (size 15 to 20)
#    0.000    2.000    2.857    1.286    0.000    1.429 
#    0.000    4.286    0.000    1.286    0.000    2.000 
#    0.000    2.286    0.000    0.000    0.000    0.000 
#
# Total GULP energy -694127.242987 kJ/mol
# GULP energy per Si atom -12395.129339 kJ/mol
# Density = 1.834757 g / cm^3
# Si number density = 18.389421 Si / 1000 Ang^3
#
#
#
# Elastic Constant Matrix: (Units=GPa)
#
#
# Indices 1 2 3 4 5 6 
#
# 1 92.2336 31.9902 25.1344 0.0000 0.0000 0.0000
# 2 31.9902 86.7985 30.3673 0.0000 0.0000 0.0000
# 3 25.1344 30.3673 59.9369 0.0000 0.0000 0.0000
# 4 0.0000 0.0000 0.0000 21.7331 0.0000 0.0000
# 5 0.0000 0.0000 0.0000 0.0000 18.5629 0.0000
# 6 0.0000 0.0000 0.0000 0.0000 0.0000 28.9161
#
#
#
# Elastic Compliance Matrix: (Units=1/GPa)
#
#
# Indices 1 2 3 4 5 6 
#
# 1 0.013072 -0.003525 -0.003696 0.000000 0.000000 0.000000
# 2 -0.003525 0.014953 -0.006098 0.000000 0.000000 0.000000
# 3 -0.003696 -0.006098 0.021324 0.000000 0.000000 0.000000
# 4 0.000000 0.000000 0.000000 0.046013 0.000000 0.000000
# 5 0.000000 0.000000 0.000000 0.000000 0.053871 0.000000
# 6 0.000000 0.000000 0.000000 0.000000 0.000000 0.034583
#
#
# Mechanical properties :
#
#
# Convention : Reuss Voigt Hill
#
# Bulk Modulus (GPa) = 44.03039 45.99475 45.01257
# Shear Modulus (GPa) = 22.93337 23.94091 23.43714
#
# Velocity S-wave (km/s) = 3.53526 3.61208 3.57387
# Velocity P-wave (km/s) = 6.37647 6.51629 6.44676
#
# Compressibility (1/GPa) = 0.02271159
#
# Stress axis : x y z
#
# Youngs Moduli (GPa) = 76.50145 66.87412 46.89619
#
# Poissons Ratio (x) = 0.23571 0.17332
# Poissons Ratio (y) = 0.26964 0.28598
# Poissons Ratio (z) = 0.28273 0.40781
#
# Static dielectric constant tensor:
#      x y z
#    x 3.529770 0.000000 0.000000 
#    y 0.000000 3.465910 0.000000 
#    z 0.000000 0.000000 3.087360 
# 
# 
# High freq. dielectric constant tensor:
#      x y z
#    x 1.715300 0.000000 0.000000 
#    y 0.000000 1.721920 0.000000 
#    z 0.000000 0.000000 1.682660 
# 
# From -- ./inp_files/26245.got.cif
#   From: 2010.06.25/outbox.cif.g09.slc.cpg/sg71_14_cif.got.tgz:26245.got - 2010.06.28 04:59:45.
