data_PCOD8289191
_publ_section_title
;
Structure prediction by ZEFSAII (Michael W. Deem and Ramdas Pophale) SiO2 
 PCOD8289191
Probable space group: I M M M
;
_chemical_formula_sum "Si O2"
_cell_formula_units_Z 80
_cell_length_a 8.813650
_cell_length_b 18.076312
_cell_length_c 27.519989
_cell_angle_alpha 90.000000
_cell_angle_beta 90.000000
_cell_angle_gamma 90.000000
_cell_volume 4384.437513
_symmetry_space_group_name_H-M "I M M M"
_symmetry_group_IT_number 71
_symmetry_cell_setting 'orthorhombic'
loop_
_space_group_symop_operation_xyz
x,y,z
-x,-y,z
x,-y,-z
-x,y,-z
-x,-y,-z
x,y,-z
-x,y,z
x,-y,z
1/2+x,1/2+y,1/2+z
1/2-x,1/2-y,1/2+z
1/2+x,1/2-y,1/2-z
1/2-x,1/2+y,1/2-z
1/2-x,1/2-y,1/2-z
1/2+x,1/2+y,1/2-z
1/2-x,1/2+y,1/2+z
1/2+x,1/2-y,1/2+z
loop_
_atom_site_type_symbol
_atom_site_label
_atom_site_fract_x
_atom_site_fract_y
_atom_site_fract_z
Si Si1 0.322699 0.219315 0.053642
Si Si2 0.320458 0.297982 0.149729
Si Si3 0.822807 0.917783 0.903402
Si Si4 0.822919 0.586109 0.788228
Si Si5 0.677363 0.660309 0.695787
O O1 0.500000 0.209098 0.060309
O O2 0.263628 0.274795 0.095597
O O3 0.251968 0.138147 0.058717
O O4 0.281628 0.250790 0.000000
O O5 0.500000 0.309763 0.152147
O O6 0.234867 0.374004 0.162664
O O7 0.271602 0.235795 0.188784
O O8 0.785641 0.894584 0.848389
O O9 0.000000 0.916591 0.913366
O O10 0.756590 0.000000 0.911834
O O11 0.786487 0.500000 0.793816
O O12 0.727958 0.619193 0.744051
O O13 0.000000 0.600741 0.779801
O O14 0.500000 0.680161 0.698826
#
# Coordination Sequence:
#
# PCOD8289191 Si02
#       5
#    16  16  16  16  16
#     4   9  19  35  53  73  96 125 164 208 252 296
#     4  10  20  35  55  76 100 131 167 206 247 294
#     4   9  18  31  47  71 103 136 169 204 240 282
#     4  11  23  36  51  74 104 134 165 204 248 294
#     4  10  19  33  53  75 103 138 173 204 238 286
#
# _framework density 18.246355000000001
#
# number of rings (size 3 to 8) (size 9 to 14) (size 15 to 20)
#    0.000    2.200    0.000    3.000    0.000    5.200 
#    0.000    2.000    0.000    0.600    0.000    4.200 
#    0.000    0.000    0.000    0.000    0.000    0.000 
#
# Total GULP energy -496041.037145 kJ/mol
# GULP energy per Si atom -12401.025929 kJ/mol
# Density = 1.820483 g / cm^3
# Si number density = 18.246355 Si / 1000 Ang^3
#
#
#
# Elastic Constant Matrix: (Units=GPa)
#
#
# Indices 1 2 3 4 5 6 
#
# 1 38.9697 23.9549 21.4730 0.0000 0.0000 0.0000
# 2 23.9549 94.4858 47.4853 0.0000 0.0000 0.0000
# 3 21.4730 47.4853 95.9862 0.0000 0.0000 0.0000
# 4 0.0000 0.0000 0.0000 14.5024 0.0000 0.0000
# 5 0.0000 0.0000 0.0000 0.0000 24.7068 0.0000
# 6 0.0000 0.0000 0.0000 0.0000 0.0000 27.7465
#
#
#
# Elastic Compliance Matrix: (Units=1/GPa)
#
#
# Indices 1 2 3 4 5 6 
#
# 1 0.031583 -0.005931 -0.004131 0.000000 0.000000 0.000000
# 2 -0.005931 0.015199 -0.006192 0.000000 0.000000 0.000000
# 3 -0.004131 -0.006192 0.014406 0.000000 0.000000 0.000000
# 4 0.000000 0.000000 0.000000 0.068954 0.000000 0.000000
# 5 0.000000 0.000000 0.000000 0.000000 0.040475 0.000000
# 6 0.000000 0.000000 0.000000 0.000000 0.000000 0.036041
#
#
# Mechanical properties :
#
#
# Convention : Reuss Voigt Hill
#
# Bulk Modulus (GPa) = 34.86887 46.14090 40.50488
# Shear Modulus (GPa) = 20.10232 22.49302 21.29767
#
# Velocity S-wave (km/s) = 3.32281 3.51485 3.42018
# Velocity P-wave (km/s) = 5.82005 6.46644 6.15174
#
# Compressibility (1/GPa) = 0.02867888
#
# Stress axis : x y z
#
# Youngs Moduli (GPa) = 31.66235 65.79198 69.41609
#
# Poissons Ratio (x) = 0.39021 0.28678
# Poissons Ratio (y) = 0.18779 0.42986
# Poissons Ratio (z) = 0.13081 0.40742
#
# Static dielectric constant tensor:
#      x y z
#    x 3.366900 0.000000 0.000000 
#    y 0.000000 3.543020 0.000000 
#    z 0.000000 0.000000 3.501390 
# 
# 
# High freq. dielectric constant tensor:
#      x y z
#    x 1.711420 0.000000 0.000000 
#    y 0.000000 1.695260 0.000000 
#    z 0.000000 0.000000 1.702750 
# 
# From -- ./inp_files/8291.got.cif
#   From: 2010.06.25/outbox.cif.g09.slc.cpg/sg71_5_cif.got.tgz:8291.got - 2010.06.28 04:59:45.
