data_PCOD8289089
_publ_section_title
;
Structure prediction by ZEFSAII (Michael W. Deem and Ramdas Pophale) SiO2 
 PCOD8289089
Probable space group: I M M M
;
_chemical_formula_sum "Si O2"
_cell_formula_units_Z 104
_cell_length_a 20.083490
_cell_length_b 19.061638
_cell_length_c 14.545932
_cell_angle_alpha 90.000000
_cell_angle_beta 90.000000
_cell_angle_gamma 90.000000
_cell_volume 5568.535016
_symmetry_space_group_name_H-M "I M M M"
_symmetry_group_IT_number 71
_symmetry_cell_setting 'orthorhombic'
loop_
_space_group_symop_operation_xyz
x,y,z
-x,-y,z
x,-y,-z
-x,y,-z
-x,-y,-z
x,y,-z
-x,y,z
x,-y,z
1/2+x,1/2+y,1/2+z
1/2-x,1/2-y,1/2+z
1/2+x,1/2-y,1/2-z
1/2-x,1/2+y,1/2-z
1/2-x,1/2-y,1/2-z
1/2+x,1/2+y,1/2-z
1/2-x,1/2+y,1/2+z
1/2+x,1/2-y,1/2+z
loop_
_atom_site_type_symbol
_atom_site_label
_atom_site_fract_x
_atom_site_fract_y
_atom_site_fract_z
Si Si1 0.422789 0.768003 0.396369
Si Si2 0.701045 0.207101 0.104682
Si Si3 0.000000 0.075429 0.107945
Si Si4 0.386152 0.357190 0.716087
Si Si5 0.575031 0.298598 0.897590
Si Si6 0.244482 0.581590 0.725464
Si Si7 0.791739 0.661760 0.103319
O O1 0.422569 0.735066 0.500000
O O2 0.500000 0.785866 0.368838
O O3 0.383855 0.722745 0.319128
O O4 0.372698 0.834370 0.396524
O O5 0.625916 0.234802 0.116249
O O6 0.702794 0.135448 0.162942
O O7 0.753726 0.266867 0.138036
O O8 0.717691 0.187063 0.000000
O O9 0.063931 0.114555 0.141326
O O10 0.000000 0.000000 0.154655
O O11 0.000000 0.071650 0.000000
O O12 0.410274 0.359163 0.822224
O O13 0.321111 0.403249 0.704255
O O14 0.500000 0.269762 0.884174
O O15 0.583812 0.331292 0.000000
O O16 0.228108 0.500000 0.703434
O O17 0.229324 0.597342 0.832151
O O18 0.766188 0.645653 0.000000
#
# Coordination Sequence:
#
# PCOD8289089 Si02
#       7
#    16  16   8  16  16  16  16
#     4  10  19  32  57  89 114 140 184 240 293 342
#     4  10  20  37  61  84 110 148 194 242 288 335
#     4  11  24  38  51  73 113 161 197 222 266 342
#     4  12  20  34  55  80 113 155 188 228 280 338
#     4  10  20  35  60  89 111 138 186 245 295 336
#     4  12  25  37  54  83 119 156 194 235 284 344
#     4  10  20  37  61  83 109 150 197 245 291 339
#
# _framework density 18.676368
#
# number of rings (size 3 to 8) (size 9 to 14) (size 15 to 20)
#    0.000    1.308    4.615    2.308    0.000    1.231 
#    0.000    0.000    0.000    3.692    0.000    4.308 
#    0.000    0.000    0.000    0.000    0.000    0.000 
#
# Total GULP energy -644266.518984 kJ/mol
# GULP energy per Si atom -12389.740750 kJ/mol
# Density = 1.863386 g / cm^3
# Si number density = 18.676368 Si / 1000 Ang^3
#
#
#
# Elastic Constant Matrix: (Units=GPa)
#
#
# Indices 1 2 3 4 5 6 
#
# 1 96.2104 19.7711 8.8129 0.0000 0.0000 0.0000
# 2 19.7711 65.3020 20.8033 0.0000 0.0000 0.0000
# 3 8.8129 20.8033 81.8402 0.0000 0.0000 0.0000
# 4 0.0000 0.0000 0.0000 0.4739 0.0000 0.0000
# 5 0.0000 0.0000 0.0000 0.0000 29.4353 0.0000
# 6 0.0000 0.0000 0.0000 0.0000 0.0000 15.4351
#
#
#
# Elastic Compliance Matrix: (Units=1/GPa)
#
#
# Indices 1 2 3 4 5 6 
#
# 1 0.011094 -0.003241 -0.000371 0.000000 0.000000 0.000000
# 2 -0.003241 0.017609 -0.004127 0.000000 0.000000 0.000000
# 3 -0.000371 -0.004127 0.013308 0.000000 0.000000 0.000000
# 4 0.000000 0.000000 0.000000 2.110339 0.000000 0.000000
# 5 0.000000 0.000000 0.000000 0.000000 0.033973 0.000000
# 6 0.000000 0.000000 0.000000 0.000000 0.000000 0.064788
#
#
# Mechanical properties :
#
#
# Convention : Reuss Voigt Hill
#
# Bulk Modulus (GPa) = 37.68794 38.01413 37.85104
# Shear Modulus (GPa) = 2.19738 21.99987 12.09863
#
# Velocity S-wave (km/s) = 1.08587 3.43585 2.54796
# Velocity P-wave (km/s) = 4.66856 6.01153 5.38209
#
# Compressibility (1/GPa) = 0.02653369
#
# Stress axis : x y z
#
# Youngs Moduli (GPa) = 90.14042 56.78773 75.14280
#
# Poissons Ratio (x) = 0.18403 0.02787
# Poissons Ratio (y) = 0.29211 0.31013
# Poissons Ratio (z) = 0.03343 0.23438
#
# Static dielectric constant tensor:
#      x y z
#    x 3.580860 0.000000 0.000000 
#    y 0.000000 3.131920 0.000000 
#    z 0.000000 0.000000 3.730870 
# 
# 
# High freq. dielectric constant tensor:
#      x y z
#    x 1.737230 0.000000 0.000000 
#    y 0.000000 1.666290 0.000000 
#    z 0.000000 0.000000 1.747360 
# 
# From -- ./inp_files/38345.got.cif
#   From: 2010.06.25/outbox.cif.g09.slc.cpg/sg71_20_cif.got.tgz:38345.got - 2010.06.28 04:59:45.
