data_PCOD8289231
_publ_section_title
;
Structure prediction by ZEFSAII (Michael W. Deem and Ramdas Pophale) SiO2 
 PCOD8289231
Probable space group: I M M M
;
_chemical_formula_sum "Si O2"
_cell_formula_units_Z 104
_cell_length_a 28.822613
_cell_length_b 9.439368
_cell_length_c 20.798984
_cell_angle_alpha 90.000000
_cell_angle_beta 90.000000
_cell_angle_gamma 90.000000
_cell_volume 5658.722397
_symmetry_space_group_name_H-M "I M M M"
_symmetry_group_IT_number 71
_symmetry_cell_setting 'orthorhombic'
loop_
_space_group_symop_operation_xyz
x,y,z
-x,-y,z
x,-y,-z
-x,y,-z
-x,-y,-z
x,y,-z
-x,y,z
x,-y,z
1/2+x,1/2+y,1/2+z
1/2-x,1/2-y,1/2+z
1/2+x,1/2-y,1/2-z
1/2-x,1/2+y,1/2-z
1/2-x,1/2-y,1/2-z
1/2+x,1/2+y,1/2-z
1/2-x,1/2+y,1/2+z
1/2+x,1/2-y,1/2+z
loop_
_atom_site_type_symbol
_atom_site_label
_atom_site_fract_x
_atom_site_fract_y
_atom_site_fract_z
Si Si1 0.876903 0.331439 0.610057
Si Si2 0.776443 0.332566 0.429439
Si Si3 0.887296 0.340435 0.075551
Si Si4 0.446897 0.168230 0.000000
Si Si5 0.051865 0.841312 0.843132
Si Si6 0.188772 0.833240 0.853742
Si Si7 0.871165 0.840076 0.262684
O O1 0.877384 0.500000 0.615922
O O2 0.827914 0.273431 0.583173
O O3 0.918749 0.279880 0.563389
O O4 0.881718 0.267117 0.680396
O O5 0.759889 0.277553 0.500000
O O6 0.779196 0.500000 0.430589
O O7 0.741202 0.285451 0.372340
O O8 0.882476 0.500000 0.102403
O O9 0.934211 0.270400 0.102310
O O10 0.843535 0.249243 0.097078
O O11 0.890474 0.340383 0.000000
O O12 0.500000 0.228559 0.000000
O O13 0.448461 0.000000 0.000000
O O14 0.084318 0.825687 0.781829
O O15 0.000000 0.807521 0.820194
O O16 0.056038 0.000000 0.871691
O O17 0.174784 0.797436 0.779657
O O18 0.181036 0.000000 0.865772
O O19 0.865443 0.000000 0.289170
#
# Coordination Sequence:
#
# PCOD8289231 Si02
#       7
#    16  16  16   8  16  16  16
#     4  10  19  33  54  78 102 132 171 212 259 313
#     4   9  16  29  52  78 101 130 175 224 258 295
#     4  10  20  32  47  72 107 138 166 209 262 309
#     4   9  18  34  55  79 107 135 169 217 266 315
#     4   9  19  36  55  72  94 131 177 218 255 301
#     4   9  18  33  53  74  98 136 181 216 251 302
#     4   9  19  34  50  73 105 133 163 210 262 311
#
# _framework density 18.378706000000001
#
# number of rings (size 3 to 8) (size 9 to 14) (size 15 to 20)
#    0.000    2.692    0.769    1.846    0.000    6.154 
#    0.000    2.692    0.000    1.385    0.000    0.000 
#    0.000    0.000    0.000    0.000    0.000    0.000 
#
# Total GULP energy -644444.976208 kJ/mol
# GULP energy per Si atom -12393.172619 kJ/mol
# Density = 1.833687 g / cm^3
# Si number density = 18.378706 Si / 1000 Ang^3
#
#
#
# Elastic Constant Matrix: (Units=GPa)
#
#
# Indices 1 2 3 4 5 6 
#
# 1 140.8886 29.6920 55.4539 0.0000 0.0000 0.0000
# 2 29.6920 52.8027 43.0269 0.0000 0.0000 0.0000
# 3 55.4539 43.0269 104.5795 0.0000 0.0000 0.0000
# 4 0.0000 0.0000 0.0000 29.9690 0.0000 0.0000
# 5 0.0000 0.0000 0.0000 0.0000 19.1130 0.0000
# 6 0.0000 0.0000 0.0000 0.0000 0.0000 -7.5704
#
#
#
# Elastic Compliance Matrix: (Units=1/GPa)
#
#
# Indices 1 2 3 4 5 6 
#
# 1 0.009080 -0.001779 -0.004083 0.000000 0.000000 0.000000
# 2 -0.001779 0.028838 -0.010922 0.000000 0.000000 0.000000
# 3 -0.004083 -0.010922 0.016220 0.000000 0.000000 0.000000
# 4 0.000000 0.000000 0.000000 0.033368 0.000000 0.000000
# 5 0.000000 0.000000 0.000000 0.000000 0.052321 0.000000
# 6 0.000000 0.000000 0.000000 0.000000 0.000000 -0.132094
#
#
# Mechanical properties :
#
#
# Convention : Reuss Voigt Hill
#
# Bulk Modulus (GPa) = 48.60959 61.62408 55.11684
# Shear Modulus (GPa) = 103.82783 19.64218 61.73500
#
# Velocity S-wave (km/s) = 7.52437 3.27272 5.80202
# Velocity P-wave (km/s) = 10.09923 6.91981 8.65674
#
# Compressibility (1/GPa) = 0.02057207
#
# Stress axis : x y z
#
# Youngs Moduli (GPa) = 110.13656 34.67605 61.65061
#
# Poissons Ratio (x) = 0.06168 0.25170
# Poissons Ratio (y) = 0.19592 0.67333
# Poissons Ratio (z) = 0.44965 0.37872
#
# Static dielectric constant tensor:
#      x y z
#    x 3.748020 0.000000 0.000000 
#    y 0.000000 3.274000 0.000000 
#    z 0.000000 0.000000 3.338790 
# 
# 
# High freq. dielectric constant tensor:
#      x y z
#    x 1.718210 0.000000 0.000000 
#    y 0.000000 1.685660 0.000000 
#    z 0.000000 0.000000 1.707530 
# 
# From -- ./inp_files/56692.got.cif
#   From: 2010.06.25/outbox.cif.g09.slc.cpg/sg71_29_cif.got.tgz:56692.got - 2010.06.28 04:59:45.
