data_PCOD8289637
_publ_section_title
;
Structure prediction by ZEFSAII (Michael W. Deem and Ramdas Pophale) SiO2 
 PCOD8289637
Probable space group: I M M M
;
_chemical_formula_sum "Si O2"
_cell_formula_units_Z 104
_cell_length_a 17.519936
_cell_length_b 20.612173
_cell_length_c 14.734605
_cell_angle_alpha 90.000000
_cell_angle_beta 90.000000
_cell_angle_gamma 90.000000
_cell_volume 5321.018786
_symmetry_space_group_name_H-M "I M M M"
_symmetry_group_IT_number 71
_symmetry_cell_setting 'orthorhombic'
loop_
_space_group_symop_operation_xyz
x,y,z
-x,-y,z
x,-y,-z
-x,y,-z
-x,-y,-z
x,y,-z
-x,y,z
x,-y,z
1/2+x,1/2+y,1/2+z
1/2-x,1/2-y,1/2+z
1/2+x,1/2-y,1/2-z
1/2-x,1/2+y,1/2-z
1/2-x,1/2-y,1/2-z
1/2+x,1/2+y,1/2-z
1/2-x,1/2+y,1/2+z
1/2+x,1/2-y,1/2+z
loop_
_atom_site_type_symbol
_atom_site_label
_atom_site_fract_x
_atom_site_fract_y
_atom_site_fract_z
Si Si1 0.192496 0.866884 0.903099
Si Si2 0.584981 0.321485 0.846106
Si Si3 0.365244 0.133496 0.289925
Si Si4 0.000000 0.574752 0.899534
Si Si5 0.584173 0.734792 0.649066
Si Si6 0.144361 0.685921 0.600306
Si Si7 0.198709 0.075026 0.714442
O O1 0.122644 0.817011 0.917005
O O2 0.265362 0.821300 0.883424
O O3 0.179201 0.917341 0.821617
O O4 0.200965 0.904327 0.000000
O O5 0.500000 0.338224 0.885174
O O6 0.576034 0.301105 0.743538
O O7 0.621712 0.261590 0.900674
O O8 0.640643 0.384276 0.849498
O O9 0.426379 0.089886 0.339866
O O10 0.361970 0.202609 0.340638
O O11 0.392387 0.145296 0.184283
O O12 0.284457 0.098932 0.301422
O O13 0.000000 0.500000 0.918833
O O14 0.000000 0.609092 0.000000
O O15 0.500000 0.755677 0.613385
O O16 0.120994 0.657967 0.500000
O O17 0.190591 0.000000 0.687425
#
# Coordination Sequence:
#
# PCOD8289637 Si02
#       7
#    16  16  16   8  16  16  16
#     4   9  18  31  48  77 113 142 178 229 281 336
#     4   9  18  32  51  76 106 139 181 228 275 327
#     4  10  19  36  57  81 111 145 184 228 277 328
#     4  11  24  40  57  79 111 151 191 226 262 316
#     4   9  16  29  50  76 105 141 177 222 283 334
#     4   9  18  33  57  86 112 139 174 225 288 344
#     4  10  20  34  54  75 103 151 196 228 270 324
#
# _framework density 19.545127999999998
#
# number of rings (size 3 to 8) (size 9 to 14) (size 15 to 20)
#    0.000    2.538    0.769    1.385    1.077    5.538 
#    0.000    0.769    0.000    3.231    0.000    5.385 
#    0.000    0.000    0.000    0.000    0.000    0.000 
#
# Total GULP energy -644208.465096 kJ/mol
# GULP energy per Si atom -12388.624329 kJ/mol
# Density = 1.950064 g / cm^3
# Si number density = 19.545128 Si / 1000 Ang^3
#
#
#
# Elastic Constant Matrix: (Units=GPa)
#
#
# Indices 1 2 3 4 5 6 
#
# 1 81.3936 38.5956 27.8229 0.0000 0.0000 0.0000
# 2 38.5956 93.7337 18.6067 0.0000 0.0000 0.0000
# 3 27.8229 18.6067 80.8441 0.0000 0.0000 0.0000
# 4 0.0000 0.0000 0.0000 16.9926 0.0000 0.0000
# 5 0.0000 0.0000 0.0000 0.0000 -4.1138 0.0000
# 6 0.0000 0.0000 0.0000 0.0000 0.0000 25.1665
#
#
#
# Elastic Compliance Matrix: (Units=1/GPa)
#
#
# Indices 1 2 3 4 5 6 
#
# 1 0.016602 -0.005975 -0.004339 0.000000 0.000000 0.000000
# 2 -0.005975 0.013330 -0.001012 0.000000 0.000000 0.000000
# 3 -0.004339 -0.001012 0.014095 0.000000 0.000000 0.000000
# 4 0.000000 0.000000 0.000000 0.058849 0.000000 0.000000
# 5 0.000000 0.000000 0.000000 0.000000 -0.243081 0.000000
# 6 0.000000 0.000000 0.000000 0.000000 0.000000 0.039735
#
#
# Mechanical properties :
#
#
# Convention : Reuss Voigt Hill
#
# Bulk Modulus (GPa) = 46.77896 47.33575 47.05736
# Shear Modulus (GPa) = -70.72757 19.00545 -25.86106
#
# Velocity S-wave (km/s) = -6.02207 3.12170 -3.64145
# Velocity P-wave (km/s) = 4.93640 6.10447 2.53935
#
# Compressibility (1/GPa) = 0.02137713
#
# Stress axis : x y z
#
# Youngs Moduli (GPa) = 60.23284 75.02142 70.94480
#
# Poissons Ratio (x) = 0.44824 0.30780
# Poissons Ratio (y) = 0.35988 0.07177
# Poissons Ratio (z) = 0.26133 0.07589
#
# Static dielectric constant tensor:
#      x y z
#    x 3.858260 0.000000 0.000000 
#    y 0.000000 3.294640 0.000000 
#    z 0.000000 0.000000 3.584980 
# 
# 
# High freq. dielectric constant tensor:
#      x y z
#    x 1.762540 0.000000 0.000000 
#    y 0.000000 1.730380 0.000000 
#    z 0.000000 0.000000 1.757170 
# 
# From -- ./inp_files/36689.got.cif
#   From: 2010.06.25/outbox.cif.g09.slc.cpg/sg71_19_cif.got.tgz:36689.got - 2010.06.28 04:59:45.
