data_PCOD8289974
_publ_section_title
;
Structure prediction by ZEFSAII (Michael W. Deem and Ramdas Pophale) SiO2 
 PCOD8289974
Probable space group: I M M M
;
_chemical_formula_sum "Si O2"
_cell_formula_units_Z 84
_cell_length_a 23.685745
_cell_length_b 14.045391
_cell_length_c 13.596714
_cell_angle_alpha 90.000000
_cell_angle_beta 90.000000
_cell_angle_gamma 90.000000
_cell_volume 4523.294303
_symmetry_space_group_name_H-M "I M M M"
_symmetry_group_IT_number 71
_symmetry_cell_setting 'orthorhombic'
loop_
_space_group_symop_operation_xyz
x,y,z
-x,-y,z
x,-y,-z
-x,y,-z
-x,-y,-z
x,y,-z
-x,y,z
x,-y,z
1/2+x,1/2+y,1/2+z
1/2-x,1/2-y,1/2+z
1/2+x,1/2-y,1/2-z
1/2-x,1/2+y,1/2-z
1/2-x,1/2-y,1/2-z
1/2+x,1/2+y,1/2-z
1/2-x,1/2+y,1/2+z
1/2+x,1/2-y,1/2+z
loop_
_atom_site_type_symbol
_atom_site_label
_atom_site_fract_x
_atom_site_fract_y
_atom_site_fract_z
Si Si1 0.114737 0.790240 0.704005
Si Si2 0.500000 0.311217 0.883353
Si Si3 0.197767 0.500000 0.889440
Si Si4 0.275311 0.800676 0.114998
Si Si5 0.339510 0.206293 0.612869
Si Si6 0.500000 0.500000 0.758345
Si Si7 0.758471 0.000000 0.806953
Si Si8 0.620648 0.500000 0.744038
O O1 0.166099 0.737694 0.653618
O O2 0.113559 0.758036 0.819279
O O3 0.124015 0.903871 0.691045
O O4 0.056536 0.756445 0.652674
O O5 0.500000 0.412376 0.831737
O O6 0.500000 0.321322 0.000000
O O7 0.157830 0.592117 0.875445
O O8 0.248886 0.500000 0.811191
O O9 0.224355 0.500000 0.000000
O O10 0.221876 0.739895 0.154055
O O11 0.270505 0.909949 0.144632
O O12 0.275917 0.790039 0.000000
O O13 0.350056 0.237693 0.500000
O O14 0.557733 0.500000 0.692448
O O15 0.826025 0.000000 0.830128
#
# Coordination Sequence:
#
# PCOD8289974 Si02
#       8
#    16   8   8  16  16   4   8   8
#     4  11  20  38  55  83 116 153 188 237 281 332
#     4  10  21  36  59  82 111 153 193 230 275 334
#     4  10  20  33  53  82 112 141 181 231 286 339
#     4  11  22  34  54  83 117 151 191 231 286 347
#     4  10  20  35  56  82 110 146 183 233 290 342
#     4   8  19  36  52  82 113 146 187 226 284 324
#     4  12  19  34  56  83 118 152 186 229 292 340
#     4  10  20  32  59  80 113 151 190 228 277 345
#
# _framework density 18.570536000000001
#
# number of rings (size 3 to 8) (size 9 to 14) (size 15 to 20)
#    0.000    1.524    3.810    2.714    0.000    0.000 
#    0.000    6.190    0.000    2.286    0.000   11.333 
#    0.000    0.000    0.000    0.000    0.000    0.000 
#
# Total GULP energy -520569.019112 kJ/mol
# GULP energy per Si atom -12394.500455 kJ/mol
# Density = 1.852827 g / cm^3
# Si number density = 18.570536 Si / 1000 Ang^3
#
#
#
# Elastic Constant Matrix: (Units=GPa)
#
#
# Indices 1 2 3 4 5 6 
#
# 1 114.0321 39.4723 22.5366 0.0000 0.0000 0.0000
# 2 39.4723 108.8131 9.8653 0.0000 0.0000 0.0000
# 3 22.5366 9.8653 44.2180 0.0000 0.0000 0.0000
# 4 0.0000 0.0000 0.0000 15.5745 0.0000 0.0000
# 5 0.0000 0.0000 0.0000 0.0000 25.7485 0.0000
# 6 0.0000 0.0000 0.0000 0.0000 0.0000 21.7194
#
#
#
# Elastic Compliance Matrix: (Units=1/GPa)
#
#
# Indices 1 2 3 4 5 6 
#
# 1 0.010939 -0.003534 -0.004787 0.000000 0.000000 0.000000
# 2 -0.003534 0.010522 -0.000546 0.000000 0.000000 0.000000
# 3 -0.004787 -0.000546 0.025177 0.000000 0.000000 0.000000
# 4 0.000000 0.000000 0.000000 0.064207 0.000000 0.000000
# 5 0.000000 0.000000 0.000000 0.000000 0.038837 0.000000
# 6 0.000000 0.000000 0.000000 0.000000 0.000000 0.046042
#
#
# Mechanical properties :
#
#
# Convention : Reuss Voigt Hill
#
# Bulk Modulus (GPa) = 34.59837 45.64573 40.12205
# Shear Modulus (GPa) = 22.41228 25.62109 24.01668
#
# Velocity S-wave (km/s) = 3.47778 3.71841 3.60011
# Velocity P-wave (km/s) = 5.89897 6.56266 6.23964
#
# Compressibility (1/GPa) = 0.02890309
#
# Stress axis : x y z
#
# Youngs Moduli (GPa) = 91.41759 95.04260 39.71924
#
# Poissons Ratio (x) = 0.33589 0.19012
# Poissons Ratio (y) = 0.32308 0.02169
# Poissons Ratio (z) = 0.43759 0.05191
#
# Static dielectric constant tensor:
#      x y z
#    x 3.721580 0.000000 0.000000 
#    y 0.000000 3.476310 0.000000 
#    z 0.000000 0.000000 3.511330 
# 
# 
# High freq. dielectric constant tensor:
#      x y z
#    x 1.702530 0.000000 0.000000 
#    y 0.000000 1.726360 0.000000 
#    z 0.000000 0.000000 1.713770 
# 
# From -- ./inp_files/37805.got.cif
#   From: 2010.06.25/outbox.cif.g09.slc.cpg/sg71_19_cif.got.tgz:37805.got - 2010.06.28 04:59:45.
