data_PCOD8289507
_publ_section_title
;
Structure prediction by ZEFSAII (Michael W. Deem and Ramdas Pophale) SiO2 
 PCOD8289507
Probable space group: I M M M
;
_chemical_formula_sum "Si O2"
_cell_formula_units_Z 72
_cell_length_a 7.557548
_cell_length_b 17.941022
_cell_length_c 24.764030
_cell_angle_alpha 90.000000
_cell_angle_beta 90.000000
_cell_angle_gamma 90.000000
_cell_volume 3357.758169
_symmetry_space_group_name_H-M "I M M M"
_symmetry_group_IT_number 71
_symmetry_cell_setting 'orthorhombic'
loop_
_space_group_symop_operation_xyz
x,y,z
-x,-y,z
x,-y,-z
-x,y,-z
-x,-y,-z
x,y,-z
-x,y,z
x,-y,z
1/2+x,1/2+y,1/2+z
1/2-x,1/2-y,1/2+z
1/2+x,1/2-y,1/2-z
1/2-x,1/2+y,1/2-z
1/2-x,1/2-y,1/2-z
1/2+x,1/2+y,1/2-z
1/2-x,1/2+y,1/2+z
1/2+x,1/2-y,1/2+z
loop_
_atom_site_type_symbol
_atom_site_label
_atom_site_fract_x
_atom_site_fract_y
_atom_site_fract_z
Si Si1 0.800105 0.846664 0.864271
Si Si2 0.206892 0.584566 0.255951
Si Si3 0.290145 0.180352 0.343295
Si Si4 0.000000 0.587561 0.563155
Si Si5 0.289568 0.916557 0.440436
O O1 0.801999 0.900384 0.812593
O O2 0.729178 0.765906 0.844950
O O3 0.676438 0.877661 0.911381
O O4 0.000000 0.841303 0.887412
O O5 0.246127 0.500000 0.237599
O O6 0.284486 0.640207 0.210426
O O7 0.000000 0.597731 0.265219
O O8 0.500000 0.172609 0.342934
O O9 0.210044 0.139365 0.395987
O O10 0.000000 0.500000 0.574776
O O11 0.000000 0.605883 0.500000
O O12 0.224063 0.891432 0.500000
O O13 0.500000 0.915399 0.438603
O O14 0.221864 0.000000 0.427889
#
# Coordination Sequence:
#
# PCOD8289507 Si02
#       5
#    16  16  16   8  16
#     4  11  23  40  64  92 125 160 200 253 315 368
#     4  10  19  34  58  86 123 167 207 252 305 365
#     4   9  18  31  51  85 122 159 203 250 300 359
#     4  11  26  48  70  92 121 159 206 256 307 370
#     4   8  13  23  42  71 110 153 197 246 296 351
#
# _framework density 21.442878
#
# number of rings (size 3 to 8) (size 9 to 14) (size 15 to 20)
#    0.000    2.333    1.111    2.667    0.000    5.778 
#    2.000    3.333    0.000    0.000    0.000    0.000 
#    0.000    3.556    0.000    0.222    0.000    0.000 
#
# Total GULP energy -446389.421387 kJ/mol
# GULP energy per Si atom -12399.706150 kJ/mol
# Density = 2.139407 g / cm^3
# Si number density = 21.442878 Si / 1000 Ang^3
#
#
#
# Elastic Constant Matrix: (Units=GPa)
#
#
# Indices 1 2 3 4 5 6 
#
# 1 69.1754 36.8406 37.5504 0.0000 0.0000 0.0000
# 2 36.8406 132.3303 64.2908 0.0000 0.0000 0.0000
# 3 37.5504 64.2908 144.5462 0.0000 0.0000 0.0000
# 4 0.0000 0.0000 0.0000 35.7571 0.0000 0.0000
# 5 0.0000 0.0000 0.0000 0.0000 -7.6395 0.0000
# 6 0.0000 0.0000 0.0000 0.0000 0.0000 17.5194
#
#
#
# Elastic Compliance Matrix: (Units=1/GPa)
#
#
# Indices 1 2 3 4 5 6 
#
# 1 0.018015 -0.003497 -0.003124 0.000000 0.000000 0.000000
# 2 -0.003497 0.010319 -0.003681 0.000000 0.000000 0.000000
# 3 -0.003124 -0.003681 0.009367 0.000000 0.000000 0.000000
# 4 0.000000 0.000000 0.000000 0.027966 0.000000 0.000000
# 5 0.000000 0.000000 0.000000 0.000000 -0.130899 0.000000
# 6 0.000000 0.000000 0.000000 0.000000 0.000000 0.057080
#
#
# Mechanical properties :
#
#
# Convention : Reuss Voigt Hill
#
# Bulk Modulus (GPa) = 58.49623 69.26839 63.88231
# Shear Modulus (GPa) = 275.45396 22.95206 149.20301
#
# Velocity S-wave (km/s) = 11.34629 3.27522 8.35061
# Velocity P-wave (km/s) = 14.10639 6.83202 11.08302
#
# Compressibility (1/GPa) = 0.01709512
#
# Stress axis : x y z
#
# Youngs Moduli (GPa) = 55.51076 96.90960 106.75665
#
# Poissons Ratio (x) = 0.33892 0.33354
# Poissons Ratio (y) = 0.19414 0.39298
# Poissons Ratio (z) = 0.17343 0.35673
#
# Static dielectric constant tensor:
#      x y z
#    x 3.491300 0.000000 0.000000 
#    y 0.000000 4.011230 0.000000 
#    z 0.000000 0.000000 3.994950 
# 
# 
# High freq. dielectric constant tensor:
#      x y z
#    x 1.814640 0.000000 0.000000 
#    y 0.000000 1.846440 0.000000 
#    z 0.000000 0.000000 1.841650 
# 
# From -- ./inp_files/7883.got.cif
#   From: 2010.06.25/outbox.cif.g09.slc.cpg/sg71_4_cif.got.tgz:7883.got - 2010.06.28 04:59:45.
