data_PCOD8289660
_publ_section_title
;
Structure prediction by ZEFSAII (Michael W. Deem and Ramdas Pophale) SiO2 
 PCOD8289660
Probable space group: I M M M
;
_chemical_formula_sum "Si O2"
_cell_formula_units_Z 72
_cell_length_a 16.167222
_cell_length_b 7.828989
_cell_length_c 26.495982
_cell_angle_alpha 90.000000
_cell_angle_beta 90.000000
_cell_angle_gamma 90.000000
_cell_volume 3353.676014
_symmetry_space_group_name_H-M "I M M M"
_symmetry_group_IT_number 71
_symmetry_cell_setting 'orthorhombic'
loop_
_space_group_symop_operation_xyz
x,y,z
-x,-y,z
x,-y,-z
-x,y,-z
-x,-y,-z
x,y,-z
-x,y,z
x,-y,z
1/2+x,1/2+y,1/2+z
1/2-x,1/2-y,1/2+z
1/2+x,1/2-y,1/2-z
1/2-x,1/2+y,1/2-z
1/2-x,1/2-y,1/2-z
1/2+x,1/2+y,1/2-z
1/2-x,1/2+y,1/2+z
1/2+x,1/2-y,1/2+z
loop_
_atom_site_type_symbol
_atom_site_label
_atom_site_fract_x
_atom_site_fract_y
_atom_site_fract_z
Si Si1 0.594808 0.000000 0.054769
Si Si2 0.500000 0.203677 0.619558
Si Si3 0.154985 0.701679 0.056444
Si Si4 0.675718 0.693034 0.107126
Si Si5 0.000000 0.195253 0.766605
Si Si6 0.670911 0.196079 0.782406
O O1 0.610870 0.827556 0.085817
O O2 0.500000 0.000000 0.043308
O O3 0.641141 0.000000 0.000000
O O4 0.578316 0.271861 0.588346
O O5 0.500000 0.292850 0.673399
O O6 0.500000 0.000000 0.626957
O O7 0.147921 0.500000 0.052223
O O8 0.236055 0.756572 0.086811
O O9 0.155474 0.781082 0.000000
O O10 0.655754 0.500000 0.088231
O O11 0.672992 0.690320 0.167489
O O12 0.083701 0.282134 0.746196
O O13 0.000000 0.000000 0.749108
O O14 0.750000 0.250000 0.750000
O O15 0.680616 0.000000 0.797944
#
# Coordination Sequence:
#
# PCOD8289660 Si02
#       6
#     8   8  16  16   8  16
#     4  11  26  46  68  97 131 171 223 278 340 405
#     4  10  19  36  62  92 128 168 215 267 315 379
#     4   9  18  34  61  94 128 169 214 262 320 383
#     4  11  23  42  68  97 133 173 222 274 334 398
#     4  12  26  43  65  93 132 179 225 273 338 400
#     4  12  25  44  68  99 135 176 227 281 340 409
#
# _framework density 21.468979999999998
#
# number of rings (size 3 to 8) (size 9 to 14) (size 15 to 20)
#    0.000    1.222    1.111    5.333    1.556    4.889 
#    2.000    1.111    0.000    0.667    0.000    0.000 
#    0.000    0.000    0.000    0.000    0.000    0.000 
#
# Total GULP energy -446437.069989 kJ/mol
# GULP energy per Si atom -12401.029722 kJ/mol
# Density = 2.142012 g / cm^3
# Si number density = 21.468980 Si / 1000 Ang^3
#
#
#
# Elastic Constant Matrix: (Units=GPa)
#
#
# Indices 1 2 3 4 5 6 
#
# 1 139.2951 22.8347 58.5995 0.0000 0.0000 0.0000
# 2 22.8347 102.7565 13.5793 0.0000 0.0000 0.0000
# 3 58.5995 13.5793 160.3716 0.0000 0.0000 0.0000
# 4 0.0000 0.0000 0.0000 27.2163 0.0000 0.0000
# 5 0.0000 0.0000 0.0000 0.0000 36.2642 0.0000
# 6 0.0000 0.0000 0.0000 0.0000 0.0000 28.0551
#
#
#
# Elastic Compliance Matrix: (Units=1/GPa)
#
#
# Indices 1 2 3 4 5 6 
#
# 1 0.008715 -0.001533 -0.003055 0.000000 0.000000 0.000000
# 2 -0.001533 0.010112 -0.000296 0.000000 0.000000 0.000000
# 3 -0.003055 -0.000296 0.007377 0.000000 0.000000 0.000000
# 4 0.000000 0.000000 0.000000 0.036743 0.000000 0.000000
# 5 0.000000 0.000000 0.000000 0.000000 0.027575 0.000000
# 6 0.000000 0.000000 0.000000 0.000000 0.000000 0.035644
#
#
# Mechanical properties :
#
#
# Convention : Reuss Voigt Hill
#
# Bulk Modulus (GPa) = 60.84189 65.82781 63.33485
# Shear Modulus (GPa) = 35.35757 38.80109 37.07933
#
# Velocity S-wave (km/s) = 4.06262 4.25586 4.16036
# Velocity P-wave (km/s) = 7.09982 7.40798 7.25554
#
# Compressibility (1/GPa) = 0.01643605
#
# Stress axis : x y z
#
# Youngs Moduli (GPa) = 114.73910 98.89685 135.56017
#
# Poissons Ratio (x) = 0.15162 0.41411
# Poissons Ratio (y) = 0.17590 0.04013
# Poissons Ratio (z) = 0.35050 0.02927
#
# Static dielectric constant tensor:
#      x y z
#    x 3.954770 0.000000 0.000000 
#    y 0.000000 3.763600 0.000000 
#    z 0.000000 0.000000 4.183600 
# 
# 
# High freq. dielectric constant tensor:
#      x y z
#    x 1.848220 0.000000 0.000000 
#    y 0.000000 1.837390 0.000000 
#    z 0.000000 0.000000 1.857210 
# 
# From -- ./inp_files/65189.got.cif
#   From: 2010.06.25/outbox.cif.g09.slc.cpg/sg71_33_cif.got.tgz:65189.got - 2010.06.28 04:59:45.
