data_PCOD8289544
_publ_section_title
;
Structure prediction by ZEFSAII (Michael W. Deem and Ramdas Pophale) SiO2 
 PCOD8289544
Probable space group: I M M M
;
_chemical_formula_sum "Si O2"
_cell_formula_units_Z 80
_cell_length_a 18.742850
_cell_length_b 12.708602
_cell_length_c 19.108576
_cell_angle_alpha 90.000000
_cell_angle_beta 90.000000
_cell_angle_gamma 90.000000
_cell_volume 4551.575305
_symmetry_space_group_name_H-M "I M M M"
_symmetry_group_IT_number 71
_symmetry_cell_setting 'orthorhombic'
loop_
_space_group_symop_operation_xyz
x,y,z
-x,-y,z
x,-y,-z
-x,y,-z
-x,-y,-z
x,y,-z
-x,y,z
x,-y,z
1/2+x,1/2+y,1/2+z
1/2-x,1/2-y,1/2+z
1/2+x,1/2-y,1/2-z
1/2-x,1/2+y,1/2-z
1/2-x,1/2-y,1/2-z
1/2+x,1/2+y,1/2-z
1/2-x,1/2+y,1/2+z
1/2+x,1/2-y,1/2+z
loop_
_atom_site_type_symbol
_atom_site_label
_atom_site_fract_x
_atom_site_fract_y
_atom_site_fract_z
Si Si1 0.915791 0.380994 0.420258
Si Si2 0.374687 0.883476 0.578744
Si Si3 0.500000 0.274197 0.418017
Si Si4 0.276447 0.117863 0.300730
Si Si5 0.000000 0.124167 0.226269
Si Si6 0.366913 0.747071 0.792475
O O1 0.894406 0.351966 0.500000
O O2 0.888960 0.500000 0.402949
O O3 0.882386 0.293590 0.369280
O O4 0.000000 0.377250 0.410744
O O5 0.350697 0.868478 0.500000
O O6 0.431706 0.795974 0.598993
O O7 0.300773 0.870022 0.619425
O O8 0.407964 0.000000 0.591976
O O9 0.500000 0.314459 0.500000
O O10 0.500000 0.365755 0.359100
O O11 0.345317 0.156315 0.256842
O O12 0.202642 0.175855 0.292346
O O13 0.261498 0.000000 0.276978
O O14 0.931774 0.179883 0.261115
O O15 0.000000 0.000000 0.244163
#
# Coordination Sequence:
#
# PCOD8289544 Si02
#       6
#    16  16   8  16   8  16
#     4   9  18  34  58  86 112 138 178 230 277 325
#     4   9  17  31  53  82 112 138 171 218 272 326
#     4  10  19  35  56  80 109 144 182 222 269 318
#     4  10  21  35  54  81 110 144 185 226 270 327
#     4  12  24  38  56  81 109 146 189 229 277 330
#     4  11  21  37  56  80 111 149 181 227 280 328
#
# _framework density 17.576332000000001
#
# number of rings (size 3 to 8) (size 9 to 14) (size 15 to 20)
#    0.000    2.000    3.000    2.100    0.000    2.200 
#    0.000    0.000    0.000    2.400    0.000    0.000 
#    0.000    0.000    0.000    0.000    0.000    0.000 
#
# Total GULP energy -495670.206315 kJ/mol
# GULP energy per Si atom -12391.755158 kJ/mol
# Density = 1.753633 g / cm^3
# Si number density = 17.576332 Si / 1000 Ang^3
#
#
#
# Elastic Constant Matrix: (Units=GPa)
#
#
# Indices 1 2 3 4 5 6 
#
# 1 80.8569 29.7564 38.4430 0.0000 0.0000 0.0000
# 2 29.7564 83.3287 51.9017 0.0000 0.0000 0.0000
# 3 38.4430 51.9017 103.8458 0.0000 0.0000 0.0000
# 4 0.0000 0.0000 0.0000 27.0939 0.0000 0.0000
# 5 0.0000 0.0000 0.0000 0.0000 21.9378 0.0000
# 6 0.0000 0.0000 0.0000 0.0000 0.0000 15.0995
#
#
#
# Elastic Compliance Matrix: (Units=1/GPa)
#
#
# Indices 1 2 3 4 5 6 
#
# 1 0.015459 -0.002840 -0.004303 0.000000 0.000000 0.000000
# 2 -0.002840 0.017947 -0.007918 0.000000 0.000000 0.000000
# 3 -0.004303 -0.007918 0.015180 0.000000 0.000000 0.000000
# 4 0.000000 0.000000 0.000000 0.036909 0.000000 0.000000
# 5 0.000000 0.000000 0.000000 0.000000 0.045583 0.000000
# 6 0.000000 0.000000 0.000000 0.000000 0.000000 0.066228
#
#
# Mechanical properties :
#
#
# Convention : Reuss Voigt Hill
#
# Bulk Modulus (GPa) = 54.16387 56.47040 55.31714
# Shear Modulus (GPa) = 21.40568 22.68825 22.04696
#
# Velocity S-wave (km/s) = 3.49358 3.59673 3.54553
# Velocity P-wave (km/s) = 6.86708 7.03186 6.94996
#
# Compressibility (1/GPa) = 0.01846249
#
# Stress axis : x y z
#
# Youngs Moduli (GPa) = 64.68877 55.72024 65.87470
#
# Poissons Ratio (x) = 0.15824 0.28348
# Poissons Ratio (y) = 0.18371 0.52162
# Poissons Ratio (z) = 0.27838 0.44122
#
# Static dielectric constant tensor:
#      x y z
#    x 3.170120 0.000000 0.000000 
#    y 0.000000 3.277560 0.000000 
#    z 0.000000 0.000000 3.457020 
# 
# 
# High freq. dielectric constant tensor:
#      x y z
#    x 1.672960 0.000000 0.000000 
#    y 0.000000 1.674490 0.000000 
#    z 0.000000 0.000000 1.688820 
# 
# From -- ./inp_files/25587.got.cif
#   From: 2010.06.25/outbox.cif.g09.slc.cpg/sg71_13_cif.got.tgz:25587.got - 2010.06.28 04:59:45.
