data_PCOD8289655
_publ_section_title
;
Structure prediction by ZEFSAII (Michael W. Deem and Ramdas Pophale) SiO2 
 PCOD8289655
Probable space group: I M M M
;
_chemical_formula_sum "Si O2"
_cell_formula_units_Z 96
_cell_length_a 24.496438
_cell_length_b 8.626111
_cell_length_c 22.520690
_cell_angle_alpha 90.000000
_cell_angle_beta 90.000000
_cell_angle_gamma 90.000000
_cell_volume 4758.824332
_symmetry_space_group_name_H-M "I M M M"
_symmetry_group_IT_number 71
_symmetry_cell_setting 'orthorhombic'
loop_
_space_group_symop_operation_xyz
x,y,z
-x,-y,z
x,-y,-z
-x,y,-z
-x,-y,-z
x,y,-z
-x,y,z
x,-y,z
1/2+x,1/2+y,1/2+z
1/2-x,1/2-y,1/2+z
1/2+x,1/2-y,1/2-z
1/2-x,1/2+y,1/2-z
1/2-x,1/2-y,1/2-z
1/2+x,1/2+y,1/2-z
1/2-x,1/2+y,1/2+z
1/2+x,1/2-y,1/2+z
loop_
_atom_site_type_symbol
_atom_site_label
_atom_site_fract_x
_atom_site_fract_y
_atom_site_fract_z
Si Si1 0.500000 0.682040 0.210589
Si Si2 0.800881 0.677759 0.887302
Si Si3 0.389146 0.181988 0.171554
Si Si4 0.808109 0.819538 0.235223
Si Si5 0.085012 0.320524 0.936285
Si Si6 0.690980 0.820525 0.932278
Si Si7 0.000000 0.684150 0.842397
O O1 0.500000 0.500000 0.214583
O O2 0.552481 0.736134 0.173469
O O3 0.500000 0.744681 0.277385
O O4 0.797160 0.500000 0.864978
O O5 0.816807 0.791589 0.833985
O O6 0.849962 0.701824 0.933100
O O7 0.744363 0.720953 0.918408
O O8 0.354310 0.231394 0.228383
O O9 0.358164 0.231353 0.110989
O O10 0.398859 0.000000 0.174250
O O11 0.750000 0.750000 0.250000
O O12 0.810358 0.000000 0.250986
O O13 0.069484 0.500000 0.937294
O O14 0.052486 0.252366 0.879611
O O15 0.066825 0.247044 0.000000
O O16 0.705510 0.000000 0.921241
O O17 0.672414 0.790295 0.000000
O O18 0.000000 0.500000 0.833439
#
# Coordination Sequence:
#
# PCOD8289655 Si02
#       7
#     8  16  16  16  16  16   8
#     4  12  26  43  64  90 122 157 199 252 309 370
#     4  11  21  34  56  87 124 164 206 252 306 365
#     4  11  23  42  66  91 122 159 202 250 306 370
#     4  12  23  37  59  90 126 162 203 253 307 363
#     4   9  18  32  53  84 118 156 204 252 294 345
#     4  10  22  40  62  88 119 156 199 250 309 370
#     4  10  19  36  62  85 113 156 205 253 303 356
#
# _framework density 20.17305
#
# number of rings (size 3 to 8) (size 9 to 14) (size 15 to 20)
#    0.000    1.333    1.667    5.000    0.000    4.000 
#    0.000    1.250    0.000    5.500    0.000    0.000 
#    0.000    0.000    0.000    0.000    0.000    0.000 
#
# Total GULP energy -595165.014719 kJ/mol
# GULP energy per Si atom -12399.271140 kJ/mol
# Density = 2.012714 g / cm^3
# Si number density = 20.173050 Si / 1000 Ang^3
#
#
#
# Elastic Constant Matrix: (Units=GPa)
#
#
# Indices 1 2 3 4 5 6 
#
# 1 155.5631 40.2209 55.4679 0.0000 0.0000 0.0000
# 2 40.2209 70.1776 29.9176 0.0000 0.0000 0.0000
# 3 55.4679 29.9176 125.9904 0.0000 0.0000 0.0000
# 4 0.0000 0.0000 0.0000 21.1754 0.0000 0.0000
# 5 0.0000 0.0000 0.0000 0.0000 16.8808 0.0000
# 6 0.0000 0.0000 0.0000 0.0000 0.0000 29.5490
#
#
#
# Elastic Compliance Matrix: (Units=1/GPa)
#
#
# Indices 1 2 3 4 5 6 
#
# 1 0.008365 -0.003587 -0.002831 0.000000 0.000000 0.000000
# 2 -0.003587 0.017393 -0.002551 0.000000 0.000000 0.000000
# 3 -0.002831 -0.002551 0.009789 0.000000 0.000000 0.000000
# 4 0.000000 0.000000 0.000000 0.047225 0.000000 0.000000
# 5 0.000000 0.000000 0.000000 0.000000 0.059239 0.000000
# 6 0.000000 0.000000 0.000000 0.000000 0.000000 0.033842
#
#
# Mechanical properties :
#
#
# Convention : Reuss Voigt Hill
#
# Bulk Modulus (GPa) = 56.78885 66.99377 61.89131
# Shear Modulus (GPa) = 25.04244 28.59602 26.81923
#
# Velocity S-wave (km/s) = 3.52715 3.76910 3.65013
# Velocity P-wave (km/s) = 6.69325 7.22656 6.96501
#
# Compressibility (1/GPa) = 0.01760909
#
# Stress axis : x y z
#
# Youngs Moduli (GPa) = 119.54270 57.49418 102.15395
#
# Poissons Ratio (x) = 0.20626 0.28919
# Poissons Ratio (y) = 0.42886 0.26057
# Poissons Ratio (z) = 0.33842 0.14665
#
# Static dielectric constant tensor:
#      x y z
#    x 3.768820 0.000000 0.000000 
#    y 0.000000 3.291800 0.000000 
#    z 0.000000 0.000000 3.715720 
# 
# 
# High freq. dielectric constant tensor:
#      x y z
#    x 1.793570 0.000000 0.000000 
#    y 0.000000 1.771460 0.000000 
#    z 0.000000 0.000000 1.793970 
# 
# From -- ./inp_files/61567.got.cif
#   From: 2010.06.25/outbox.cif.g09.slc.cpg/sg71_31_cif.got.tgz:61567.got - 2010.06.28 04:59:45.
