data_PCOD8289203
_publ_section_title
;
Structure prediction by ZEFSAII (Michael W. Deem and Ramdas Pophale) SiO2 
 PCOD8289203
Probable space group: I M M M
;
_chemical_formula_sum "Si O2"
_cell_formula_units_Z 80
_cell_length_a 14.960643
_cell_length_b 9.125543
_cell_length_c 32.550242
_cell_angle_alpha 90.000000
_cell_angle_beta 90.000000
_cell_angle_gamma 90.000000
_cell_volume 4443.888946
_symmetry_space_group_name_H-M "I M M M"
_symmetry_group_IT_number 71
_symmetry_cell_setting 'orthorhombic'
loop_
_space_group_symop_operation_xyz
x,y,z
-x,-y,z
x,-y,-z
-x,y,-z
-x,-y,-z
x,y,-z
-x,y,z
x,-y,z
1/2+x,1/2+y,1/2+z
1/2-x,1/2-y,1/2+z
1/2+x,1/2-y,1/2-z
1/2-x,1/2+y,1/2-z
1/2-x,1/2-y,1/2-z
1/2+x,1/2+y,1/2-z
1/2-x,1/2+y,1/2+z
1/2+x,1/2-y,1/2+z
loop_
_atom_site_type_symbol
_atom_site_label
_atom_site_fract_x
_atom_site_fract_y
_atom_site_fract_z
Si Si1 0.721668 0.326717 0.111575
Si Si2 0.399457 0.170718 0.952379
Si Si3 0.402133 0.335109 0.814980
Si Si4 0.657391 0.826105 0.259698
Si Si5 0.098653 0.673834 0.849460
O O1 0.714426 0.500000 0.105898
O O2 0.678322 0.253755 0.071859
O O3 0.668336 0.275059 0.152007
O O4 0.824940 0.274918 0.118089
O O5 0.500000 0.223234 0.940100
O O6 0.390320 0.000000 0.942850
O O7 0.382825 0.203942 0.000000
O O8 0.500000 0.335789 0.835732
O O9 0.374426 0.500000 0.801323
O O10 0.408779 0.228907 0.775770
O O11 0.750000 0.750000 0.250000
O O12 0.621402 0.770803 0.303655
O O13 0.666795 0.000000 0.258594
O O14 0.097346 0.500000 0.848608
O O15 0.000000 0.733696 0.862472
#
# Coordination Sequence:
#
# PCOD8289203 Si02
#       5
#    16  16  16  16  16
#     4  10  19  33  53  77 104 133 169 212 256 302
#     4   9  19  36  56  79 108 137 163 197 247 308
#     4  10  20  33  48  71 104 136 168 213 264 307
#     4  11  20  33  51  70  98 136 180 221 262 307
#     4   9  18  33  52  72  98 135 177 218 257 297
#
# _framework density 18.002248999999999
#
# number of rings (size 3 to 8) (size 9 to 14) (size 15 to 20)
#    0.000    2.200    2.000    2.400    0.000    3.600 
#    0.000    1.000    0.000    3.600    0.000    4.200 
#    0.000    0.000    0.000    0.000    0.000    0.000 
#
# Total GULP energy -495784.030981 kJ/mol
# GULP energy per Si atom -12394.600775 kJ/mol
# Density = 1.796128 g / cm^3
# Si number density = 18.002249 Si / 1000 Ang^3
#
#
#
# Elastic Constant Matrix: (Units=GPa)
#
#
# Indices 1 2 3 4 5 6 
#
# 1 162.4599 31.9725 66.0362 0.0000 0.0000 0.0000
# 2 31.9725 43.7421 34.2541 0.0000 0.0000 0.0000
# 3 66.0362 34.2541 90.1754 0.0000 0.0000 0.0000
# 4 0.0000 0.0000 0.0000 31.1842 0.0000 0.0000
# 5 0.0000 0.0000 0.0000 0.0000 32.4276 0.0000
# 6 0.0000 0.0000 0.0000 0.0000 0.0000 21.9544
#
#
#
# Elastic Compliance Matrix: (Units=1/GPa)
#
#
# Indices 1 2 3 4 5 6 
#
# 1 0.008884 -0.001991 -0.005750 0.000000 0.000000 0.000000
# 2 -0.001991 0.032987 -0.011072 0.000000 0.000000 0.000000
# 3 -0.005750 -0.011072 0.019506 0.000000 0.000000 0.000000
# 4 0.000000 0.000000 0.000000 0.032068 0.000000 0.000000
# 5 0.000000 0.000000 0.000000 0.000000 0.030838 0.000000
# 6 0.000000 0.000000 0.000000 0.000000 0.000000 0.045549
#
#
# Mechanical properties :
#
#
# Convention : Reuss Voigt Hill
#
# Bulk Modulus (GPa) = 42.10337 62.32257 52.21297
# Shear Modulus (GPa) = 23.21521 28.05421 25.63471
#
# Velocity S-wave (km/s) = 3.59496 3.95191 3.77765
# Velocity P-wave (km/s) = 6.37732 7.45103 6.93499
#
# Compressibility (1/GPa) = 0.02375107
#
# Stress axis : x y z
#
# Youngs Moduli (GPa) = 112.55715 30.31451 51.26635
#
# Poissons Ratio (x) = 0.06037 0.29476
# Poissons Ratio (y) = 0.22414 0.56764
# Poissons Ratio (z) = 0.64716 0.33565
#
# Static dielectric constant tensor:
#      x y z
#    x 3.727370 0.000000 0.000000 
#    y 0.000000 3.202630 0.000000 
#    z 0.000000 0.000000 3.230780 
# 
# 
# High freq. dielectric constant tensor:
#      x y z
#    x 1.710860 0.000000 0.000000 
#    y 0.000000 1.672440 0.000000 
#    z 0.000000 0.000000 1.673330 
# 
# From -- ./inp_files/70282.got.cif
#   From: 2010.06.25/outbox.cif.g09.slc.cpg/sg71_36_cif.got.tgz:70282.got - 2010.06.28 04:59:45.
