data_PCOD8289368
_publ_section_title
;
Structure prediction by ZEFSAII (Michael W. Deem and Ramdas Pophale) SiO2 
 PCOD8289368
Probable space group: I M M M
;
_chemical_formula_sum "Si O2"
_cell_formula_units_Z 80
_cell_length_a 17.835753
_cell_length_b 31.391571
_cell_length_c 7.681465
_cell_angle_alpha 90.000000
_cell_angle_beta 90.000000
_cell_angle_gamma 90.000000
_cell_volume 4300.793157
_symmetry_space_group_name_H-M "I M M M"
_symmetry_group_IT_number 71
_symmetry_cell_setting 'orthorhombic'
loop_
_space_group_symop_operation_xyz
x,y,z
-x,-y,z
x,-y,-z
-x,y,-z
-x,-y,-z
x,y,-z
-x,y,z
x,-y,z
1/2+x,1/2+y,1/2+z
1/2-x,1/2-y,1/2+z
1/2+x,1/2-y,1/2-z
1/2-x,1/2+y,1/2-z
1/2-x,1/2-y,1/2-z
1/2+x,1/2+y,1/2-z
1/2-x,1/2+y,1/2+z
1/2+x,1/2-y,1/2+z
loop_
_atom_site_type_symbol
_atom_site_label
_atom_site_fract_x
_atom_site_fract_y
_atom_site_fract_z
Si Si1 0.733372 0.550113 0.500000
Si Si2 0.361914 0.346684 0.807243
Si Si3 0.083843 0.670146 0.793419
Si Si4 0.336248 0.254254 0.295540
Si Si5 0.210024 0.393175 0.200111
Si Si6 0.917486 0.901091 0.000000
O O1 0.740791 0.500000 0.500000
O O2 0.773952 0.567194 0.326306
O O3 0.645581 0.562513 0.500000
O O4 0.371614 0.296155 0.790421
O O5 0.274649 0.357883 0.777703
O O6 0.412340 0.371508 0.669713
O O7 0.387969 0.360748 0.000000
O O8 0.119230 0.713679 0.718320
O O9 0.133308 0.629385 0.737914
O O10 0.000000 0.664060 0.718872
O O11 0.083625 0.673293 0.000000
O O12 0.347040 0.258022 0.500000
O O13 0.250000 0.250000 0.250000
O O14 0.205382 0.409473 0.000000
O O15 0.000000 0.922579 0.000000
#
# Coordination Sequence:
#
# PCOD8289368 Si02
#       6
#     8  16  16  16  16   8
#     4  10  22  39  63  90 108 131 177 228 280 348
#     4  10  19  34  53  77 107 151 197 228 263 320
#     4   9  18  32  51  76 107 147 190 231 276 319
#     4  11  19  29  49  77 110 153 196 240 274 310
#     4   9  18  35  58  80 107 143 181 221 273 328
#     4  10  22  39  58  81 113 148 180 225 282 330
#
# _framework density 18.601220000000001
#
# number of rings (size 3 to 8) (size 9 to 14) (size 15 to 20)
#    0.000    2.200    3.000    0.600    0.000    1.800 
#    1.800    0.500    0.000    1.200    0.000    8.400 
#    0.000    0.000    0.000    0.000    0.000    0.000 
#
# Total GULP energy -495975.922545 kJ/mol
# GULP energy per Si atom -12399.398064 kJ/mol
# Density = 1.855888 g / cm^3
# Si number density = 18.601220 Si / 1000 Ang^3
#
#
#
# Elastic Constant Matrix: (Units=GPa)
#
#
# Indices 1 2 3 4 5 6 
#
# 1 128.2694 56.6094 33.6649 0.0039 -0.0017 -0.0015
# 2 56.6094 139.3014 49.1782 -0.0092 -0.0029 -0.0014
# 3 33.6649 49.1782 100.6019 -0.0324 -0.0025 -0.0053
# 4 0.0039 -0.0092 -0.0324 21.3310 -0.0017 -0.0004
# 5 -0.0017 -0.0029 -0.0025 -0.0017 15.6131 0.0031
# 6 -0.0015 -0.0014 -0.0053 -0.0004 0.0031 16.5670
#
#
#
# Elastic Compliance Matrix: (Units=1/GPa)
#
#
# Indices 1 2 3 4 5 6 
#
# 1 0.009707 -0.003382 -0.001595 -0.000006 0.000000 0.000000
# 2 -0.003382 0.009854 -0.003685 -0.000001 0.000001 -0.000001
# 3 -0.001595 -0.003685 0.012276 0.000017 0.000001 0.000003
# 4 -0.000006 -0.000001 0.000017 0.046880 0.000005 0.000001
# 5 0.000000 0.000001 0.000001 0.000005 0.064049 -0.000012
# 6 0.000000 -0.000001 0.000003 0.000001 -0.000012 0.060361
#
#
# Mechanical properties :
#
#
# Convention : Reuss Voigt Hill
#
# Bulk Modulus (GPa) = 68.90794 71.89752 70.40273
# Shear Modulus (GPa) = 22.19373 25.95022 24.07198
#
# Velocity S-wave (km/s) = 3.45792 3.73913 3.60127
# Velocity P-wave (km/s) = 7.28480 7.57479 7.43121
#
# Compressibility (1/GPa) = 0.01451212
#
# Stress axis : x y z
#
# Youngs Moduli (GPa) = 103.01625 101.48177 81.46249
#
# Poissons Ratio (x) = 0.34317 0.12996
# Poissons Ratio (y) = 0.34836 0.30022
# Poissons Ratio (z) = 0.16434 0.37400
#
# Static dielectric constant tensor:
#      x y z
#    x 3.486720 0.000000 0.000050 
#    y 0.000000 3.083790 0.000060 
#    z 0.000050 0.000060 3.630450 
# 
# 
# High freq. dielectric constant tensor:
#      x y z
#    x 1.714330 0.000000 0.000000 
#    y 0.000000 1.687990 -0.000010 
#    z 0.000000 -0.000010 1.727740 
# 
# From -- ./inp_files/8425.got.cif
#   From: 2010.06.25/outbox.cif.g09.slc.cpg/sg71_5_cif.got.tgz:8425.got - 2010.06.28 04:59:45.
