data_PCOD8289154
_publ_section_title
;
Structure prediction by ZEFSAII (Michael W. Deem and Ramdas Pophale) SiO2 
 PCOD8289154
Probable space group: I M M M
;
_chemical_formula_sum "Si O2"
_cell_formula_units_Z 120
_cell_length_a 15.747184
_cell_length_b 31.101731
_cell_length_c 14.474315
_cell_angle_alpha 90.000000
_cell_angle_beta 90.000000
_cell_angle_gamma 90.000000
_cell_volume 7089.008265
_symmetry_space_group_name_H-M "I M M M"
_symmetry_group_IT_number 71
_symmetry_cell_setting 'orthorhombic'
loop_
_space_group_symop_operation_xyz
x,y,z
-x,-y,z
x,-y,-z
-x,y,-z
-x,-y,-z
x,y,-z
-x,y,z
x,-y,z
1/2+x,1/2+y,1/2+z
1/2-x,1/2-y,1/2+z
1/2+x,1/2-y,1/2-z
1/2-x,1/2+y,1/2-z
1/2-x,1/2-y,1/2-z
1/2+x,1/2+y,1/2-z
1/2-x,1/2+y,1/2+z
1/2+x,1/2-y,1/2+z
loop_
_atom_site_type_symbol
_atom_site_label
_atom_site_fract_x
_atom_site_fract_y
_atom_site_fract_z
Si Si1 0.179623 0.838353 0.742047
Si Si2 0.092440 0.238020 0.826341
Si Si3 0.905074 0.714699 0.643071
Si Si4 0.905224 0.547539 0.609448
Si Si5 0.600642 0.592665 0.892629
Si Si6 0.806497 0.630484 0.392224
Si Si7 0.754130 0.775980 0.400815
Si Si8 0.400483 0.500000 0.105924
O O1 0.103186 0.808307 0.777137
O O2 0.144613 0.872988 0.671670
O O3 0.224574 0.859492 0.830071
O O4 0.245941 0.808853 0.684604
O O5 0.093787 0.276443 0.752143
O O6 0.170765 0.245683 0.895271
O O7 0.000000 0.237900 0.876539
O O8 0.879507 0.665754 0.622550
O O9 0.837613 0.746361 0.595893
O O10 0.000000 0.722400 0.602201
O O11 0.910250 0.550142 0.500000
O O12 0.872012 0.500000 0.640033
O O13 0.842300 0.584779 0.644490
O O14 0.000000 0.554913 0.649923
O O15 0.500000 0.596619 0.882642
O O16 0.633323 0.545664 0.854662
O O17 0.626226 0.599782 0.000000
O O18 0.779172 0.628580 0.500000
O O19 0.750456 0.800084 0.500000
O O20 0.500000 0.500000 0.119199
O O21 0.375711 0.500000 0.000000
#
# Coordination Sequence:
#
# PCOD8289154 Si02
#       8
#    16  16  16  16  16  16  16   8
#     4  11  20  34  47  74 104 131 164 210 251 296
#     4  10  20  35  51  66  94 135 172 207 247 291
#     4  10  19  33  52  74  99 125 162 210 256 299
#     4   8  15  29  48  70  95 123 158 199 245 298
#     4   9  17  31  53  78 102 129 162 203 254 304
#     4  11  20  31  49  71 101 135 165 201 247 293
#     4  11  21  35  51  70 100 133 166 209 257 299
#     4   7  12  26  48  74 101 125 154 197 247 303
#
# _framework density 16.927614999999999
#
# number of rings (size 3 to 8) (size 9 to 14) (size 15 to 20)
#    0.000    2.200    2.667    3.600    0.000    2.400 
#    1.200    0.000    0.000    1.200    0.000    0.000 
#    0.000    1.600    0.000    3.200    0.000    0.533 
#
# Total GULP energy -743347.198516 kJ/mol
# GULP energy per Si atom -12389.119975 kJ/mol
# Density = 1.688909 g / cm^3
# Si number density = 16.927615 Si / 1000 Ang^3
#
#
#
# Elastic Constant Matrix: (Units=GPa)
#
#
# Indices 1 2 3 4 5 6 
#
# 1 100.4803 39.8468 36.5811 0.0033 0.0000 0.0000
# 2 39.8468 120.1951 33.7055 0.0018 0.0001 0.0000
# 3 36.5811 33.7055 61.3593 -0.0223 0.0004 -0.0002
# 4 0.0033 0.0018 -0.0223 -75.2355 -0.0013 0.0004
# 5 0.0000 0.0001 0.0004 -0.0013 9.3101 0.0000
# 6 0.0000 0.0000 -0.0002 0.0004 0.0000 21.3149
#
#
#
# Elastic Compliance Matrix: (Units=1/GPa)
#
#
# Indices 1 2 3 4 5 6 
#
# 1 0.013363 -0.002596 -0.006541 0.000002 0.000000 0.000000
# 2 -0.002596 0.010339 -0.004132 0.000001 0.000000 0.000000
# 3 -0.006541 -0.004132 0.022466 -0.000007 -0.000001 0.000000
# 4 0.000002 0.000001 -0.000007 -0.013292 -0.000002 0.000000
# 5 0.000000 0.000000 -0.000001 -0.000002 0.107410 0.000000
# 6 0.000000 0.000000 0.000000 0.000000 0.000000 0.046915
#
#
# Mechanical properties :
#
#
# Convention : Reuss Voigt Hill
#
# Bulk Modulus (GPa) = 50.93799 55.81128 53.37463
# Shear Modulus (GPa) = 22.69810 2.53800 12.61805
#
# Velocity S-wave (km/s) = 3.66579 1.22580 2.73319
# Velocity P-wave (km/s) = 6.93357 5.91993 6.44670
#
# Compressibility (1/GPa) = 0.01963171
#
# Stress axis : x y z
#
# Youngs Moduli (GPa) = 74.83441 96.72090 44.51073
#
# Poissons Ratio (x) = 0.25107 0.29113
# Poissons Ratio (y) = 0.19426 0.18391
# Poissons Ratio (z) = 0.48947 0.39963
#
# Static dielectric constant tensor:
#      x y z
#    x 3.111720 0.000000 0.000000 
#    y 0.000000 3.499890 0.000000 
#    z 0.000000 0.000000 2.932260 
# 
# 
# High freq. dielectric constant tensor:
#      x y z
#    x 1.639560 0.000000 0.000000 
#    y 0.000000 1.655280 0.000000 
#    z 0.000000 0.000000 1.627100 
# 
# From -- ./inp_files/35426.got.cif
#   From: 2010.06.25/outbox.cif.g09.slc.cpg/sg71_18_cif.got.tgz:35426.got - 2010.06.28 04:59:45.
