data_PCOD8289944
_publ_section_title
;
Structure prediction by ZEFSAII (Michael W. Deem and Ramdas Pophale) SiO2 
 PCOD8289944
Probable space group: I M M M
;
_chemical_formula_sum "Si O2"
_cell_formula_units_Z 56
_cell_length_a 13.955563
_cell_length_b 24.051342
_cell_length_c 9.135914
_cell_angle_alpha 90.000000
_cell_angle_beta 90.000000
_cell_angle_gamma 90.000000
_cell_volume 3066.469703
_symmetry_space_group_name_H-M "I M M M"
_symmetry_group_IT_number 71
_symmetry_cell_setting 'orthorhombic'
loop_
_space_group_symop_operation_xyz
x,y,z
-x,-y,z
x,-y,-z
-x,y,-z
-x,-y,-z
x,y,-z
-x,y,z
x,-y,z
1/2+x,1/2+y,1/2+z
1/2-x,1/2-y,1/2+z
1/2+x,1/2-y,1/2-z
1/2-x,1/2+y,1/2-z
1/2-x,1/2-y,1/2-z
1/2+x,1/2+y,1/2-z
1/2-x,1/2+y,1/2+z
1/2+x,1/2-y,1/2+z
loop_
_atom_site_type_symbol
_atom_site_label
_atom_site_fract_x
_atom_site_fract_y
_atom_site_fract_z
Si Si1 0.500000 0.934830 0.158083
Si Si2 0.721009 0.664863 0.171155
Si Si3 0.891281 0.745533 0.168799
Si Si4 0.707109 0.063204 0.825447
O O1 0.600466 0.920833 0.238831
O O2 0.500000 0.000000 0.128458
O O3 0.500000 0.904476 0.000000
O O4 0.821569 0.694768 0.209824
O O5 0.633430 0.700862 0.233749
O O6 0.718532 0.604691 0.248621
O O7 0.705710 0.656599 0.000000
O O8 0.000000 0.726702 0.202399
O O9 0.877651 0.762501 0.000000
O O10 0.734870 0.000000 0.783281
O O11 0.708989 0.070711 0.000000
#
# Coordination Sequence:
#
# PCOD8289944 Si02
#       4
#     8  16  16  16
#     4   7  12  24  41  63  91 125 165 199 226 269
#     4  10  20  32  50  77 104 129 163 206 251 295
#     4   9  19  36  54  71  97 133 169 205 246 295
#     4   9  17  30  48  70  99 135 170 201 238 291
#
# _framework density 18.262042000000001
#
# number of rings (size 3 to 8) (size 9 to 14) (size 15 to 20)
#    0.000    3.000    0.000    2.571    2.000    2.286 
#    0.000    0.000    0.000    3.429    0.000    6.000 
#    0.000    0.000    0.000    0.000    0.000    0.000 
#
# Total GULP energy -346988.178873 kJ/mol
# GULP energy per Si atom -12392.434960 kJ/mol
# Density = 1.822048 g / cm^3
# Si number density = 18.262042 Si / 1000 Ang^3
#
#
#
# Elastic Constant Matrix: (Units=GPa)
#
#
# Indices 1 2 3 4 5 6 
#
# 1 48.2236 10.8807 13.2462 -0.0001 -0.0002 -0.0001
# 2 10.8807 90.0963 38.1456 0.0001 0.0001 0.0001
# 3 13.2462 38.1456 54.2555 0.0008 0.0007 0.0004
# 4 -0.0001 0.0001 0.0008 27.8913 0.0002 0.0001
# 5 -0.0002 0.0001 0.0007 0.0002 17.2287 0.0000
# 6 -0.0001 0.0001 0.0004 0.0001 0.0000 22.5567
#
#
#
# Elastic Compliance Matrix: (Units=1/GPa)
#
#
# Indices 1 2 3 4 5 6 
#
# 1 0.022247 -0.000551 -0.005044 0.000000 0.000000 0.000000
# 2 -0.000551 0.015817 -0.010986 0.000000 0.000000 0.000000
# 3 -0.005044 -0.010986 0.027387 -0.000001 -0.000001 0.000000
# 4 0.000000 0.000000 -0.000001 0.035853 0.000000 0.000000
# 5 0.000000 0.000000 -0.000001 0.000000 0.058043 0.000000
# 6 0.000000 0.000000 0.000000 0.000000 0.000000 0.044333
#
#
# Mechanical properties :
#
#
# Convention : Reuss Voigt Hill
#
# Bulk Modulus (GPa) = 30.97097 35.23559 33.10328
# Shear Modulus (GPa) = 20.19350 22.22220 21.20785
#
# Velocity S-wave (km/s) = 3.32891 3.49212 3.41149
# Velocity P-wave (km/s) = 5.63663 5.96626 5.80378
#
# Compressibility (1/GPa) = 0.03228830
#
# Stress axis : x y z
#
# Youngs Moduli (GPa) = 44.95078 63.22244 36.51396
#
# Poissons Ratio (x) = 0.03484 0.18417
# Poissons Ratio (y) = 0.02477 0.40115
# Poissons Ratio (z) = 0.22673 0.69457
#
# Static dielectric constant tensor:
#      x y z
#    x 3.301290 0.000000 0.000000 
#    y 0.000000 3.211600 0.000000 
#    z 0.000000 0.000000 3.117410 
# 
# 
# High freq. dielectric constant tensor:
#      x y z
#    x 1.681870 0.000000 0.000000 
#    y 0.000000 1.699660 0.000000 
#    z 0.000000 0.000000 1.690740 
# 
# From -- ./inp_files/5050.got.cif
#   From: 2010.06.25/outbox.cif.g09.slc.cpg/sg71_3_cif.got.tgz:5050.got - 2010.06.28 04:59:45.
