data_PCOD8289954
_publ_section_title
;
Structure prediction by ZEFSAII (Michael W. Deem and Ramdas Pophale) SiO2 
 PCOD8289954
Probable space group: I M M M
;
_chemical_formula_sum "Si O2"
_cell_formula_units_Z 80
_cell_length_a 23.144447
_cell_length_b 12.454417
_cell_length_c 16.402685
_cell_angle_alpha 90.000000
_cell_angle_beta 90.000000
_cell_angle_gamma 90.000000
_cell_volume 4728.083697
_symmetry_space_group_name_H-M "I M M M"
_symmetry_group_IT_number 71
_symmetry_cell_setting 'orthorhombic'
loop_
_space_group_symop_operation_xyz
x,y,z
-x,-y,z
x,-y,-z
-x,y,-z
-x,-y,-z
x,y,-z
-x,y,z
x,-y,z
1/2+x,1/2+y,1/2+z
1/2-x,1/2-y,1/2+z
1/2+x,1/2-y,1/2-z
1/2-x,1/2+y,1/2-z
1/2-x,1/2-y,1/2-z
1/2+x,1/2+y,1/2-z
1/2-x,1/2+y,1/2+z
1/2+x,1/2-y,1/2+z
loop_
_atom_site_type_symbol
_atom_site_label
_atom_site_fract_x
_atom_site_fract_y
_atom_site_fract_z
Si Si1 0.910732 0.500000 0.096801
Si Si2 0.874405 0.876177 0.246284
Si Si3 0.224247 0.213670 0.665269
Si Si4 0.000000 0.671669 0.095932
Si Si5 0.200359 0.877490 0.908849
Si Si6 0.780196 0.500000 0.902626
Si Si7 0.500000 0.377156 0.697245
O O1 0.943526 0.607287 0.128374
O O2 0.845888 0.500000 0.129669
O O3 0.911263 0.500000 0.000000
O O4 0.844200 0.805328 0.317726
O O5 0.849512 0.845568 0.156030
O O6 0.942978 0.855847 0.251256
O O7 0.859974 0.000000 0.263640
O O8 0.250000 0.250000 0.750000
O O9 0.240868 0.307345 0.601702
O O10 0.250609 0.103673 0.633940
O O11 0.000000 0.794775 0.123005
O O12 0.000000 0.672658 0.000000
O O13 0.219568 0.000000 0.897434
O O14 0.175451 0.856990 0.000000
O O15 0.775568 0.500000 0.000000
O O16 0.500000 0.500000 0.663274
#
# Coordination Sequence:
#
# PCOD8289954 Si02
#       7
#     8  16  16   8  16   8   8
#     4   8  18  33  48  68  97 133 164 198 245 284
#     4   9  18  34  48  68  98 133 166 202 249 291
#     4  10  20  32  51  73 103 133 168 208 257 301
#     4   9  18  33  47  65  99 134 165 205 240 282
#     4   9  18  32  50  74 104 132 160 197 247 307
#     4  11  21  34  55  81 101 132 178 216 254 307
#     4  10  21  32  48  68  91 131 173 200 240 298
#
# _framework density 16.920175
#
# number of rings (size 3 to 8) (size 9 to 14) (size 15 to 20)
#    0.000    2.600    1.000    1.200    7.000    1.000 
#    0.000    2.000    0.000    0.000    0.000    3.500 
#    0.000    1.600    0.000    0.000    0.000    0.000 
#
# Total GULP energy -495600.208394 kJ/mol
# GULP energy per Si atom -12390.005210 kJ/mol
# Density = 1.688166 g / cm^3
# Si number density = 16.920175 Si / 1000 Ang^3
#
#
#
# Elastic Constant Matrix: (Units=GPa)
#
#
# Indices 1 2 3 4 5 6 
#
# 1 135.9838 49.4429 38.5759 0.0000 0.0000 0.0000
# 2 49.4429 92.2940 24.9579 0.0000 0.0000 0.0000
# 3 38.5759 24.9579 42.6511 0.0000 0.0000 0.0000
# 4 0.0000 0.0000 0.0000 27.6848 0.0000 0.0000
# 5 0.0000 0.0000 0.0000 0.0000 18.5823 0.0000
# 6 0.0000 0.0000 0.0000 0.0000 0.0000 7.1819
#
#
#
# Elastic Compliance Matrix: (Units=1/GPa)
#
#
# Indices 1 2 3 4 5 6 
#
# 1 0.010893 -0.003768 -0.007648 0.000000 0.000000 0.000000
# 2 -0.003768 0.014175 -0.004887 0.000000 0.000000 0.000000
# 3 -0.007648 -0.004887 0.033223 0.000000 0.000000 0.000000
# 4 0.000000 0.000000 0.000000 0.036121 0.000000 0.000000
# 5 0.000000 0.000000 0.000000 0.000000 0.053815 0.000000
# 6 0.000000 0.000000 0.000000 0.000000 0.000000 0.139239
#
#
# Mechanical properties :
#
#
# Convention : Reuss Voigt Hill
#
# Bulk Modulus (GPa) = 38.93144 55.20916 47.07030
# Shear Modulus (GPa) = 15.21459 21.21994 18.21726
#
# Velocity S-wave (km/s) = 3.00192 3.54520 3.28481
# Velocity P-wave (km/s) = 5.92235 7.03263 6.50123
#
# Compressibility (1/GPa) = 0.02568618
#
# Stress axis : x y z
#
# Youngs Moduli (GPa) = 91.80049 70.54786 30.09975
#
# Poissons Ratio (x) = 0.26579 0.23020
# Poissons Ratio (y) = 0.34586 0.14710
# Poissons Ratio (z) = 0.70207 0.34477
#
# Static dielectric constant tensor:
#      x y z
#    x 3.427050 0.000000 0.000000 
#    y 0.000000 3.504330 0.000000 
#    z 0.000000 0.000000 3.054960 
# 
# 
# High freq. dielectric constant tensor:
#      x y z
#    x 1.640990 0.000000 0.000000 
#    y 0.000000 1.667010 0.000000 
#    z 0.000000 0.000000 1.613530 
# 
# From -- ./inp_files/47071.got.cif
#   From: 2010.06.25/outbox.cif.g09.slc.cpg/sg71_24_cif.got.tgz:47071.got - 2010.06.28 04:59:45.
