data_PCOD8289758
_publ_section_title
;
Structure prediction by ZEFSAII (Michael W. Deem and Ramdas Pophale) SiO2 
 PCOD8289758
Probable space group: I M M M
;
_chemical_formula_sum "Si O2"
_cell_formula_units_Z 104
_cell_length_a 32.293038
_cell_length_b 9.229562
_cell_length_c 20.231858
_cell_angle_alpha 90.000000
_cell_angle_beta 90.000000
_cell_angle_gamma 90.000000
_cell_volume 6030.117343
_symmetry_space_group_name_H-M "I M M M"
_symmetry_group_IT_number 71
_symmetry_cell_setting 'orthorhombic'
loop_
_space_group_symop_operation_xyz
x,y,z
-x,-y,z
x,-y,-z
-x,y,-z
-x,-y,-z
x,y,-z
-x,y,z
x,-y,z
1/2+x,1/2+y,1/2+z
1/2-x,1/2-y,1/2+z
1/2+x,1/2-y,1/2-z
1/2-x,1/2+y,1/2-z
1/2-x,1/2-y,1/2-z
1/2+x,1/2+y,1/2-z
1/2-x,1/2+y,1/2+z
1/2+x,1/2-y,1/2+z
loop_
_atom_site_type_symbol
_atom_site_label
_atom_site_fract_x
_atom_site_fract_y
_atom_site_fract_z
Si Si1 0.500000 0.827060 0.072298
Si Si2 0.187135 0.665114 0.923314
Si Si3 0.926338 0.335777 0.343220
Si Si4 0.653149 0.671136 0.179398
Si Si5 0.870650 0.828282 0.174801
Si Si6 0.546933 0.835236 0.694946
Si Si7 0.219110 0.828009 0.573760
O O1 0.541178 0.768816 0.106097
O O2 0.500000 0.000000 0.075984
O O3 0.500000 0.762379 0.000000
O O4 0.181791 0.500000 0.897935
O O5 0.157127 0.771397 0.884436
O O6 0.233942 0.720403 0.911647
O O7 0.175405 0.674636 0.000000
O O8 0.912778 0.500000 0.359266
O O9 0.887570 0.233068 0.353873
O O10 0.948549 0.327770 0.273087
O O11 0.652500 0.500000 0.175506
O O12 0.652022 0.721364 0.256532
O O13 0.691311 0.732306 0.134911
O O14 0.917024 0.765122 0.164486
O O15 0.874401 0.000000 0.171488
O O16 0.500000 0.782983 0.675987
O O17 0.553411 0.000000 0.669810
O O18 0.205502 0.770861 0.500000
O O19 0.216949 0.000000 0.571890
#
# Coordination Sequence:
#
# PCOD8289758 Si02
#       7
#     8  16  16  16  16  16  16
#     4   9  16  26  41  61  87 121 160 201 244 285
#     4   9  18  34  55  74  92 122 165 203 233 279
#     4   9  16  28  44  63  88 121 160 200 240 280
#     4   9  18  31  46  69  99 127 158 199 243 287
#     4  10  20  31  46  74 106 130 153 190 247 299
#     4   9  16  29  50  70  90 122 164 202 231 272
#     4   8  15  30  51  70  91 127 170 204 237 279
#
# _framework density 17.246762
#
# number of rings (size 3 to 8) (size 9 to 14) (size 15 to 20)
#    0.000    3.000    0.769    1.385    0.000    2.462 
#    0.000    1.154    0.000    1.846    0.000    3.231 
#    0.000    0.000    0.000    0.000    0.000    0.000 
#
# Total GULP energy -644341.510136 kJ/mol
# GULP energy per Si atom -12391.182887 kJ/mol
# Density = 1.720751 g / cm^3
# Si number density = 17.246762 Si / 1000 Ang^3
#
#
#
# Elastic Constant Matrix: (Units=GPa)
#
#
# Indices 1 2 3 4 5 6 
#
# 1 127.8956 33.4154 63.5894 0.0000 0.0000 0.0000
# 2 33.4154 28.3764 26.2606 0.0000 0.0000 0.0000
# 3 63.5894 26.2606 70.9023 0.0000 0.0000 0.0000
# 4 0.0000 0.0000 0.0000 17.4419 0.0000 0.0000
# 5 0.0000 0.0000 0.0000 0.0000 45.6029 0.0000
# 6 0.0000 0.0000 0.0000 0.0000 0.0000 25.8483
#
#
#
# Elastic Compliance Matrix: (Units=1/GPa)
#
#
# Indices 1 2 3 4 5 6 
#
# 1 0.015233 -0.008056 -0.010678 0.000000 0.000000 0.000000
# 2 -0.008056 0.057880 -0.014212 0.000000 0.000000 0.000000
# 3 -0.010678 -0.014212 0.028944 0.000000 0.000000 0.000000
# 4 0.000000 0.000000 0.000000 0.057333 0.000000 0.000000
# 5 0.000000 0.000000 0.000000 0.000000 0.021928 0.000000
# 6 0.000000 0.000000 0.000000 0.000000 0.000000 0.038687
#
#
# Mechanical properties :
#
#
# Convention : Reuss Voigt Hill
#
# Bulk Modulus (GPa) = 27.65136 52.63389 40.14262
# Shear Modulus (GPa) = 16.78121 24.70588 20.74355
#
# Velocity S-wave (km/s) = 3.12269 3.78894 3.47183
# Velocity P-wave (km/s) = 5.39158 7.05165 6.27674
#
# Compressibility (1/GPa) = 0.03616459
#
# Stress axis : x y z
#
# Youngs Moduli (GPa) = 65.64851 17.27724 34.54914
#
# Poissons Ratio (x) = 0.13918 0.36891
# Poissons Ratio (y) = 0.52886 0.49102
# Poissons Ratio (z) = 0.70098 0.24555
#
# Static dielectric constant tensor:
#      x y z
#    x 3.427250 0.000000 0.000000 
#    y 0.000000 2.969360 0.000000 
#    z 0.000000 0.000000 3.227910 
# 
# 
# High freq. dielectric constant tensor:
#      x y z
#    x 1.671250 0.000000 0.000000 
#    y 0.000000 1.638680 0.000000 
#    z 0.000000 0.000000 1.651910 
# 
# From -- ./inp_files/56667.got.cif
#   From: 2010.06.25/outbox.cif.g09.slc.cpg/sg71_29_cif.got.tgz:56667.got - 2010.06.28 04:59:45.
