data_PCOD8289302
_publ_section_title
;
Structure prediction by ZEFSAII (Michael W. Deem and Ramdas Pophale) SiO2 
 PCOD8289302
Probable space group: I M M M
;
_chemical_formula_sum "Si O2"
_cell_formula_units_Z 88
_cell_length_a 22.612251
_cell_length_b 11.343740
_cell_length_c 18.109041
_cell_angle_alpha 90.000000
_cell_angle_beta 90.000000
_cell_angle_gamma 90.000000
_cell_volume 4645.104765
_symmetry_space_group_name_H-M "I M M M"
_symmetry_group_IT_number 71
_symmetry_cell_setting 'orthorhombic'
loop_
_space_group_symop_operation_xyz
x,y,z
-x,-y,z
x,-y,-z
-x,y,-z
-x,-y,-z
x,y,-z
-x,y,z
x,-y,z
1/2+x,1/2+y,1/2+z
1/2-x,1/2-y,1/2+z
1/2+x,1/2-y,1/2-z
1/2-x,1/2+y,1/2-z
1/2-x,1/2-y,1/2-z
1/2+x,1/2+y,1/2-z
1/2-x,1/2+y,1/2+z
1/2+x,1/2-y,1/2+z
loop_
_atom_site_type_symbol
_atom_site_label
_atom_site_fract_x
_atom_site_fract_y
_atom_site_fract_z
Si Si1 0.356091 0.137446 0.000000
Si Si2 0.566967 0.137879 0.287204
Si Si3 0.319828 0.742205 0.653452
Si Si4 0.220933 0.141477 0.000000
Si Si5 0.711391 0.370715 0.202977
Si Si6 0.567783 0.500000 0.918777
Si Si7 0.394896 0.254247 0.142021
O O1 0.288942 0.186571 0.000000
O O2 0.395324 0.178247 0.931510
O O3 0.351228 0.000000 0.000000
O O4 0.500000 0.155714 0.317381
O O5 0.612237 0.214937 0.336714
O O6 0.567845 0.185070 0.203202
O O7 0.584364 0.000000 0.288917
O O8 0.312032 0.696392 0.570595
O O9 0.299302 0.637188 0.708663
O O10 0.278596 0.853006 0.676245
O O11 0.215416 0.000000 0.000000
O O12 0.691398 0.500000 0.176333
O O13 0.673110 0.266692 0.166871
O O14 0.500000 0.500000 0.937196
O O15 0.581182 0.385212 0.870529
O O16 0.600701 0.500000 0.000000
#
# Coordination Sequence:
#
# PCOD8289302 Si02
#       7
#     8  16  16   8  16   8  16
#     4  11  22  35  55  87 122 157 194 237 289 352
#     4  10  22  41  62  83 113 154 200 249 292 340
#     4  10  21  36  58  85 115 150 193 235 294 353
#     4  11  22  38  59  87 123 153 184 236 305 363
#     4  10  19  33  55  84 114 147 187 240 290 339
#     4  11  22  34  52  78 120 167 200 236 282 338
#     4  11  20  36  57  84 117 156 194 240 287 347
#
# _framework density 18.944676000000001
#
# number of rings (size 3 to 8) (size 9 to 14) (size 15 to 20)
#    0.000    1.545    3.636    2.182    0.000    0.000 
#    0.000    3.182    0.000    3.818    0.000    0.000 
#    0.000    0.000    0.000    0.000    0.000    0.000 
#
# Total GULP energy -545403.943991 kJ/mol
# GULP energy per Si atom -12395.544182 kJ/mol
# Density = 1.890156 g / cm^3
# Si number density = 18.944676 Si / 1000 Ang^3
#
#
#
# Elastic Constant Matrix: (Units=GPa)
#
#
# Indices 1 2 3 4 5 6 
#
# 1 97.2438 31.1653 29.7527 0.0000 0.0000 0.0000
# 2 31.1653 85.6372 30.1470 0.0000 0.0000 0.0000
# 3 29.7527 30.1470 110.0080 0.0000 0.0000 0.0000
# 4 0.0000 0.0000 0.0000 30.6282 0.0000 0.0000
# 5 0.0000 0.0000 0.0000 0.0000 21.6174 0.0000
# 6 0.0000 0.0000 0.0000 0.0000 0.0000 14.2834
#
#
#
# Elastic Compliance Matrix: (Units=1/GPa)
#
#
# Indices 1 2 3 4 5 6 
#
# 1 0.012143 -0.003611 -0.002294 0.000000 0.000000 0.000000
# 2 -0.003611 0.013998 -0.002859 0.000000 0.000000 0.000000
# 3 -0.002294 -0.002859 0.010494 0.000000 0.000000 0.000000
# 4 0.000000 0.000000 0.000000 0.032650 0.000000 0.000000
# 5 0.000000 0.000000 0.000000 0.000000 0.046259 0.000000
# 6 0.000000 0.000000 0.000000 0.000000 0.000000 0.070011
#
#
# Mechanical properties :
#
#
# Convention : Reuss Voigt Hill
#
# Bulk Modulus (GPa) = 52.34252 52.77988 52.56120
# Shear Modulus (GPa) = 23.87162 26.76073 25.31618
#
# Velocity S-wave (km/s) = 3.55360 3.76250 3.65954
# Velocity P-wave (km/s) = 6.67282 6.84074 6.75730
#
# Compressibility (1/GPa) = 0.01910493
#
# Stress axis : x y z
#
# Youngs Moduli (GPa) = 82.35318 71.43885 95.28890
#
# Poissons Ratio (x) = 0.25799 0.21864
# Poissons Ratio (y) = 0.29740 0.27246
# Poissons Ratio (z) = 0.18896 0.20427
#
# Static dielectric constant tensor:
#      x y z
#    x 3.450910 0.000000 0.000000 
#    y 0.000000 14.167230 0.000000 
#    z 0.000000 0.000000 3.433910 
# 
# 
# High freq. dielectric constant tensor:
#      x y z
#    x 1.732390 0.000000 0.000000 
#    y 0.000000 1.738060 0.000000 
#    z 0.000000 0.000000 1.726220 
# 
# From -- ./inp_files/47142.got.cif
#   From: 2010.06.25/outbox.cif.g09.slc.cpg/sg71_24_cif.got.tgz:47142.got - 2010.06.28 04:59:45.
