data_PCOD8289312
_publ_section_title
;
Structure prediction by ZEFSAII (Michael W. Deem and Ramdas Pophale) SiO2 
 PCOD8289312
Probable space group: I M M M
;
_chemical_formula_sum "Si O2"
_cell_formula_units_Z 72
_cell_length_a 9.066410
_cell_length_b 13.107009
_cell_length_c 30.308006
_cell_angle_alpha 90.000000
_cell_angle_beta 90.000000
_cell_angle_gamma 90.000000
_cell_volume 3601.606960
_symmetry_space_group_name_H-M "I M M M"
_symmetry_group_IT_number 71
_symmetry_cell_setting 'orthorhombic'
loop_
_space_group_symop_operation_xyz
x,y,z
-x,-y,z
x,-y,-z
-x,y,-z
-x,-y,-z
x,y,-z
-x,y,z
x,-y,z
1/2+x,1/2+y,1/2+z
1/2-x,1/2-y,1/2+z
1/2+x,1/2-y,1/2-z
1/2-x,1/2+y,1/2-z
1/2-x,1/2-y,1/2-z
1/2+x,1/2+y,1/2-z
1/2-x,1/2+y,1/2+z
1/2+x,1/2-y,1/2+z
loop_
_atom_site_type_symbol
_atom_site_label
_atom_site_fract_x
_atom_site_fract_y
_atom_site_fract_z
Si Si1 0.667022 0.887551 0.694820
Si Si2 0.174467 0.500000 0.050876
Si Si3 0.665467 0.620117 0.278417
Si Si4 0.326527 0.116777 0.868987
Si Si5 0.668448 0.799663 0.400063
O O1 0.500000 0.894638 0.711510
O O2 0.759317 0.833833 0.734078
O O3 0.680894 0.821159 0.651481
O O4 0.727538 0.000000 0.683580
O O5 0.237164 0.604394 0.072779
O O6 0.000000 0.500000 0.058992
O O7 0.219773 0.500000 0.000000
O O8 0.500000 0.665922 0.283939
O O9 0.658811 0.500000 0.271458
O O10 0.758451 0.645563 0.321708
O O11 0.500000 0.133043 0.866285
O O12 0.260050 0.194075 0.906276
O O13 0.287067 0.000000 0.882227
O O14 0.500000 0.780946 0.415126
#
# Coordination Sequence:
#
# PCOD8289312 Si02
#       5
#    16   8  16  16  16
#     4   9  16  28  46  70 104 141 178 219 267 323
#     4   9  18  36  63  93 119 139 167 215 279 343
#     4   9  17  29  46  70 101 140 186 231 270 310
#     4  10  21  36  52  73 105 146 189 228 268 313
#     4  10  19  33  56  83 108 139 177 219 270 326
#
# _framework density 19.991077000000001
#
# number of rings (size 3 to 8) (size 9 to 14) (size 15 to 20)
#    0.000    2.556    1.111    1.333    0.000    5.778 
#    0.000    0.556    0.000    2.000    0.000    4.667 
#    0.000    0.000    0.000    0.000    0.000    0.000 
#
# Total GULP energy -446150.122242 kJ/mol
# GULP energy per Si atom -12393.058951 kJ/mol
# Density = 1.994558 g / cm^3
# Si number density = 19.991077 Si / 1000 Ang^3
#
#
#
# Elastic Constant Matrix: (Units=GPa)
#
#
# Indices 1 2 3 4 5 6 
#
# 1 85.3044 38.0683 36.0688 0.0000 0.0000 0.0000
# 2 38.0683 106.5887 61.2952 0.0000 0.0000 0.0000
# 3 36.0688 61.2952 61.3250 0.0000 0.0000 0.0000
# 4 0.0000 0.0000 0.0000 2.2769 0.0000 0.0000
# 5 0.0000 0.0000 0.0000 0.0000 9.9065 0.0000
# 6 0.0000 0.0000 0.0000 0.0000 0.0000 19.0902
#
#
#
# Elastic Compliance Matrix: (Units=1/GPa)
#
#
# Indices 1 2 3 4 5 6 
#
# 1 0.015625 -0.000695 -0.008495 0.000000 0.000000 0.000000
# 2 -0.000695 0.022095 -0.021675 0.000000 0.000000 0.000000
# 3 -0.008495 -0.021675 0.042967 0.000000 0.000000 0.000000
# 4 0.000000 0.000000 0.000000 0.439185 0.000000 0.000000
# 5 0.000000 0.000000 0.000000 0.000000 0.100944 0.000000
# 6 0.000000 0.000000 0.000000 0.000000 0.000000 0.052383
#
#
# Mechanical properties :
#
#
# Convention : Reuss Voigt Hill
#
# Bulk Modulus (GPa) = 52.75241 58.23141 55.49191
# Shear Modulus (GPa) = 6.74538 14.10710 10.42624
#
# Velocity S-wave (km/s) = 1.83889 2.65933 2.28621
# Velocity P-wave (km/s) = 5.56363 6.21460 5.89810
#
# Compressibility (1/GPa) = 0.01895648
#
# Stress axis : x y z
#
# Youngs Moduli (GPa) = 64.00046 45.25979 23.27348
#
# Poissons Ratio (x) = 0.03147 0.19771
# Poissons Ratio (y) = 0.04450 0.50445
# Poissons Ratio (z) = 0.54368 0.98100
#
# Static dielectric constant tensor:
#      x y z
#    x 3.613940 0.000000 0.000000 
#    y 0.000000 4.037100 0.000000 
#    z 0.000000 0.000000 3.204640 
# 
# 
# High freq. dielectric constant tensor:
#      x y z
#    x 1.758140 0.000000 0.000000 
#    y 0.000000 1.812810 0.000000 
#    z 0.000000 0.000000 1.728370 
# 
# From -- ./inp_files/62853.got.cif
#   From: 2010.06.25/outbox.cif.g09.slc.cpg/sg71_32_cif.got.tgz:62853.got - 2010.06.28 04:59:45.
