data_PCOD8289237
_publ_section_title
;
Structure prediction by ZEFSAII (Michael W. Deem and Ramdas Pophale) SiO2 
 PCOD8289237
Probable space group: I M M M
;
_chemical_formula_sum "Si O2"
_cell_formula_units_Z 104
_cell_length_a 11.696717
_cell_length_b 19.513492
_cell_length_c 26.205397
_cell_angle_alpha 90.000000
_cell_angle_beta 90.000000
_cell_angle_gamma 90.000000
_cell_volume 5981.219224
_symmetry_space_group_name_H-M "I M M M"
_symmetry_group_IT_number 71
_symmetry_cell_setting 'orthorhombic'
loop_
_space_group_symop_operation_xyz
x,y,z
-x,-y,z
x,-y,-z
-x,y,-z
-x,-y,-z
x,y,-z
-x,y,z
x,-y,z
1/2+x,1/2+y,1/2+z
1/2-x,1/2-y,1/2+z
1/2+x,1/2-y,1/2-z
1/2-x,1/2+y,1/2-z
1/2-x,1/2-y,1/2-z
1/2+x,1/2+y,1/2-z
1/2-x,1/2+y,1/2+z
1/2+x,1/2-y,1/2+z
loop_
_atom_site_type_symbol
_atom_site_label
_atom_site_fract_x
_atom_site_fract_y
_atom_site_fract_z
Si Si1 0.500000 0.577664 0.852511
Si Si2 0.135212 0.322838 0.842488
Si Si3 0.126320 0.000000 0.059348
Si Si4 0.627604 0.318777 0.297784
Si Si5 0.281782 0.419350 0.216285
Si Si6 0.251133 0.274854 0.057357
Si Si7 0.128893 0.142033 0.912683
Si Si8 0.500000 0.317948 0.942398
O O1 0.500000 0.500000 0.870379
O O2 0.390256 0.594510 0.818860
O O3 0.500000 0.618593 0.904587
O O4 0.176292 0.258904 0.806289
O O5 0.171194 0.393829 0.815424
O O6 0.189549 0.320341 0.899221
O O7 0.000000 0.319329 0.849756
O O8 0.189918 0.930917 0.076785
O O9 0.000000 0.000000 0.085122
O O10 0.114621 0.000000 0.000000
O O11 0.500000 0.315869 0.273590
O O12 0.707767 0.369400 0.265112
O O13 0.621783 0.351385 0.352825
O O14 0.269295 0.500000 0.231311
O O15 0.206848 0.197740 0.060021
O O16 0.387246 0.272537 0.067581
O O17 0.225733 0.303974 0.000000
O O18 0.000000 0.145890 0.936018
O O19 0.500000 0.347253 0.000000
#
# Coordination Sequence:
#
# PCOD8289237 Si02
#       8
#     8  16   8  16  16  16  16   8
#     4  10  20  35  54  80 101 131 174 212 259 313
#     4  10  21  36  54  78 106 139 176 214 259 313
#     4   9  16  26  42  69 105 141 173 212 261 306
#     4   9  18  32  51  76 103 133 176 217 259 303
#     4  11  21  34  55  78 105 139 173 216 262 316
#     4  10  19  33  54  78 105 135 171 214 262 312
#     4   9  18  30  48  76 106 137 174 220 259 311
#     4  10  20  35  56  79 104 132 169 219 266 309
#
# _framework density 17.387758999999999
#
# number of rings (size 3 to 8) (size 9 to 14) (size 15 to 20)
#    0.000    2.231    2.308    2.308    1.077    2.308 
#    0.000    0.000    0.000    0.923    0.000    3.231 
#    0.000    0.000    0.000    0.000    0.000    0.000 
#
# Total GULP energy -644374.653289 kJ/mol
# GULP energy per Si atom -12391.820256 kJ/mol
# Density = 1.734818 g / cm^3
# Si number density = 17.387759 Si / 1000 Ang^3
#
#
#
# Elastic Constant Matrix: (Units=GPa)
#
#
# Indices 1 2 3 4 5 6 
#
# 1 79.5395 34.6657 36.6207 0.0000 0.0000 0.0000
# 2 34.6657 87.0073 40.9673 0.0000 0.0000 0.0000
# 3 36.6207 40.9673 72.1074 0.0000 0.0000 0.0000
# 4 0.0000 0.0000 0.0000 18.2072 0.0000 0.0000
# 5 0.0000 0.0000 0.0000 0.0000 -166.3695 0.0000
# 6 0.0000 0.0000 0.0000 0.0000 0.0000 30.8394
#
#
#
# Elastic Compliance Matrix: (Units=1/GPa)
#
#
# Indices 1 2 3 4 5 6 
#
# 1 0.017263 -0.003754 -0.006634 0.000000 0.000000 0.000000
# 2 -0.003754 0.016507 -0.007472 0.000000 0.000000 0.000000
# 3 -0.006634 -0.007472 0.021483 0.000000 0.000000 0.000000
# 4 0.000000 0.000000 0.000000 0.054923 0.000000 0.000000
# 5 0.000000 0.000000 0.000000 0.000000 -0.006011 0.000000
# 6 0.000000 0.000000 0.000000 0.000000 0.000000 0.032426
#
#
# Mechanical properties :
#
#
# Convention : Reuss Voigt Hill
#
# Bulk Modulus (GPa) = 51.19780 51.46241 51.33011
# Shear Modulus (GPa) = 27.96064 -15.03788 6.46138
#
# Velocity S-wave (km/s) = 4.01442 -2.94403 1.92980
# Velocity P-wave (km/s) = 7.14115 4.25497 5.87796
#
# Compressibility (1/GPa) = 0.01953209
#
# Stress axis : x y z
#
# Youngs Moduli (GPa) = 57.92698 60.57987 46.54936
#
# Poissons Ratio (x) = 0.22743 0.30883
# Poissons Ratio (y) = 0.21747 0.34781
# Poissons Ratio (z) = 0.38431 0.45264
#
# Static dielectric constant tensor:
#      x y z
#    x 3.169350 0.000000 0.000000 
#    y 0.000000 3.244850 0.000000 
#    z 0.000000 0.000000 3.258510 
# 
# 
# High freq. dielectric constant tensor:
#      x y z
#    x 1.649240 0.000000 0.000000 
#    y 0.000000 1.666090 0.000000 
#    z 0.000000 0.000000 1.678300 
# 
# From -- ./inp_files/24602.got.cif
#   From: 2010.06.25/outbox.cif.g09.slc.cpg/sg71_13_cif.got.tgz:24602.got - 2010.06.28 04:59:45.
