data_PCOD8289901
_publ_section_title
;
Structure prediction by ZEFSAII (Michael W. Deem and Ramdas Pophale) SiO2 
 PCOD8289901
Probable space group: I M M M
;
_chemical_formula_sum "Si O2"
_cell_formula_units_Z 96
_cell_length_a 22.381832
_cell_length_b 24.677567
_cell_length_c 9.479067
_cell_angle_alpha 90.000000
_cell_angle_beta 90.000000
_cell_angle_gamma 90.000000
_cell_volume 5235.565102
_symmetry_space_group_name_H-M "I M M M"
_symmetry_group_IT_number 71
_symmetry_cell_setting 'orthorhombic'
loop_
_space_group_symop_operation_xyz
x,y,z
-x,-y,z
x,-y,-z
-x,y,-z
-x,-y,-z
x,y,-z
-x,y,z
x,-y,z
1/2+x,1/2+y,1/2+z
1/2-x,1/2-y,1/2+z
1/2+x,1/2-y,1/2-z
1/2-x,1/2+y,1/2-z
1/2-x,1/2-y,1/2-z
1/2+x,1/2+y,1/2-z
1/2-x,1/2+y,1/2+z
1/2+x,1/2-y,1/2+z
loop_
_atom_site_type_symbol
_atom_site_label
_atom_site_fract_x
_atom_site_fract_y
_atom_site_fract_z
Si Si1 0.643156 0.439157 0.337233
Si Si2 0.098411 0.440958 0.334330
Si Si3 0.226373 0.399316 0.337515
Si Si4 0.395508 0.341596 0.839902
Si Si5 0.000000 0.764183 0.332418
Si Si6 0.761960 0.197739 0.660854
Si Si7 0.000000 0.358764 0.331542
O O1 0.629270 0.427738 0.500000
O O2 0.624308 0.500000 0.294172
O O3 0.713991 0.433772 0.307852
O O4 0.603328 0.397085 0.248917
O O5 0.087782 0.441662 0.500000
O O6 0.079023 0.500000 0.272726
O O7 0.168345 0.434269 0.299993
O O8 0.058030 0.391767 0.273736
O O9 0.224733 0.379124 0.500000
O O10 0.223370 0.349006 0.232456
O O11 0.442228 0.297631 0.779085
O O12 0.331613 0.314213 0.829891
O O13 0.412053 0.357208 0.000000
O O14 0.000000 0.759769 0.500000
O O15 0.000000 0.702759 0.269548
O O16 0.740808 0.205293 0.500000
O O17 0.750000 0.250000 0.750000
O O18 0.000000 0.355245 0.500000
#
# Coordination Sequence:
#
# PCOD8289901 Si02
#       7
#    16  16  16  16   8  16   8
#     4   9  17  31  51  75 103 132 162 198 246 301
#     4   9  16  26  43  71 104 133 165 206 251 296
#     4   9  17  29  48  73 102 133 163 198 246 297
#     4   9  19  34  52  73  98 129 167 207 247 292
#     4   9  18  33  50  69  97 131 168 209 252 294
#     4  10  20  32  49  73 101 130 164 205 248 296
#     4   9  17  26  43  68  98 133 167 210 255 291
#
# _framework density 18.336130000000001
#
# number of rings (size 3 to 8) (size 9 to 14) (size 15 to 20)
#    0.000    2.833    0.000    1.250    2.333    4.000 
#    0.000    0.833    0.000    4.000    0.000    0.583 
#    0.000    1.333    0.000    0.000    0.000    0.000 
#
# Total GULP energy -594963.480737 kJ/mol
# GULP energy per Si atom -12395.072515 kJ/mol
# Density = 1.829440 g / cm^3
# Si number density = 18.336130 Si / 1000 Ang^3
#
#
#
# Elastic Constant Matrix: (Units=GPa)
#
#
# Indices 1 2 3 4 5 6 
#
# 1 75.3257 56.6188 15.5679 0.0000 0.0000 0.0000
# 2 56.6188 180.5072 56.3196 0.0000 0.0000 0.0000
# 3 15.5679 56.3196 61.5423 0.0000 0.0000 0.0000
# 4 0.0000 0.0000 0.0000 28.2582 0.0000 0.0000
# 5 0.0000 0.0000 0.0000 0.0000 16.0708 0.0000
# 6 0.0000 0.0000 0.0000 0.0000 0.0000 23.6178
#
#
#
# Elastic Compliance Matrix: (Units=1/GPa)
#
#
# Indices 1 2 3 4 5 6 
#
# 1 0.017402 -0.005717 0.000830 0.000000 0.000000 0.000000
# 2 -0.005717 0.009632 -0.007369 0.000000 0.000000 0.000000
# 3 0.000830 -0.007369 0.022782 0.000000 0.000000 0.000000
# 4 0.000000 0.000000 0.000000 0.035388 0.000000 0.000000
# 5 0.000000 0.000000 0.000000 0.000000 0.062225 0.000000
# 6 0.000000 0.000000 0.000000 0.000000 0.000000 0.042341
#
#
# Mechanical properties :
#
#
# Convention : Reuss Voigt Hill
#
# Bulk Modulus (GPa) = 39.51848 63.82086 51.66967
# Shear Modulus (GPa) = 22.45009 26.18061 24.31535
#
# Velocity S-wave (km/s) = 3.50289 3.78274 3.64550
# Velocity P-wave (km/s) = 6.16111 7.34578 6.77937
#
# Compressibility (1/GPa) = 0.02530462
#
# Stress axis : x y z
#
# Youngs Moduli (GPa) = 57.46630 103.81722 43.89375
#
# Poissons Ratio (x) = 0.59355 -0.03644
# Poissons Ratio (y) = 0.32855 0.32344
# Poissons Ratio (z) = -0.04770 0.76499
#
# Static dielectric constant tensor:
#      x y z
#    x 3.257310 0.000000 0.000000 
#    y 0.000000 3.446010 0.000000 
#    z 0.000000 0.000000 3.112950 
# 
# 
# High freq. dielectric constant tensor:
#      x y z
#    x 1.705150 0.000000 0.000000 
#    y 0.000000 1.722420 0.000000 
#    z 0.000000 0.000000 1.666280 
# 
# From -- ./inp_files/12878.got.cif
#   From: 2010.06.25/outbox.cif.g09.slc.cpg/sg71_7_cif.got.tgz:12878.got - 2010.06.28 04:59:45.
