data_PCOD8289694
_publ_section_title
;
Structure prediction by ZEFSAII (Michael W. Deem and Ramdas Pophale) SiO2 
 PCOD8289694
Probable space group: I M M M
;
_chemical_formula_sum "Si O2"
_cell_formula_units_Z 104
_cell_length_a 9.456316
_cell_length_b 34.621559
_cell_length_c 18.142292
_cell_angle_alpha 90.000000
_cell_angle_beta 90.000000
_cell_angle_gamma 90.000000
_cell_volume 5939.648561
_symmetry_space_group_name_H-M "I M M M"
_symmetry_group_IT_number 71
_symmetry_cell_setting 'orthorhombic'
loop_
_space_group_symop_operation_xyz
x,y,z
-x,-y,z
x,-y,-z
-x,y,-z
-x,-y,-z
x,y,-z
-x,y,z
x,-y,z
1/2+x,1/2+y,1/2+z
1/2-x,1/2-y,1/2+z
1/2+x,1/2-y,1/2-z
1/2-x,1/2+y,1/2-z
1/2-x,1/2-y,1/2-z
1/2+x,1/2+y,1/2-z
1/2-x,1/2+y,1/2+z
1/2+x,1/2-y,1/2+z
loop_
_atom_site_type_symbol
_atom_site_label
_atom_site_fract_x
_atom_site_fract_y
_atom_site_fract_z
Si Si1 0.331845 0.956891 0.081366
Si Si2 0.165082 0.685325 0.133478
Si Si3 0.165444 0.315390 0.301878
Si Si4 0.168920 0.544249 0.000000
Si Si5 0.330744 0.900774 0.795231
Si Si6 0.837582 0.745568 0.582405
Si Si7 0.167685 0.597664 0.131584
O O1 0.500000 0.956715 0.086845
O O2 0.265933 0.929589 0.144092
O O3 0.274347 0.000000 0.094982
O O4 0.285340 0.942401 0.000000
O O5 0.197346 0.696750 0.218166
O O6 0.253056 0.714356 0.083326
O O7 0.215560 0.641682 0.114750
O O8 0.000000 0.689893 0.115637
O O9 0.228304 0.358228 0.314803
O O10 0.231632 0.284964 0.359933
O O11 0.000000 0.317144 0.317235
O O12 0.227833 0.567132 0.928096
O O13 0.225643 0.500000 0.000000
O O14 0.000000 0.544081 0.000000
O O15 0.500000 0.900292 0.796337
O O16 0.279465 0.913905 0.713661
O O17 0.825925 0.728207 0.500000
O O18 0.000000 0.754339 0.603223
O O19 0.000000 0.596542 0.129281
#
# Coordination Sequence:
#
# PCOD8289694 Si02
#       7
#    16  16  16   8  16  16  16
#     4   8  13  19  27  43  67  95 130 168 198 231
#     4   9  17  30  48  63  79 110 146 177 208 249
#     4   8  15  28  42  57  78 105 139 175 211 251
#     4   9  16  24  34  52  81 109 129 159 207 251
#     4   8  13  22  35  49  67  96 132 166 203 244
#     4  10  20  30  41  62  89 110 135 176 219 253
#     4   8  15  25  37  55  75  98 133 170 200 240
#
# _framework density 17.509454000000002
#
# number of rings (size 3 to 8) (size 9 to 14) (size 15 to 20)
#    0.000    3.462    0.000    2.769    1.077    1.538 
#    0.000    6.154    0.000    0.000    0.000    0.000 
#    0.000    1.231    0.000    0.000    0.000    4.308 
#
# Total GULP energy -644348.789952 kJ/mol
# GULP energy per Si atom -12391.322884 kJ/mol
# Density = 1.746960 g / cm^3
# Si number density = 17.509454 Si / 1000 Ang^3
#
#
#
# Elastic Constant Matrix: (Units=GPa)
#
#
# Indices 1 2 3 4 5 6 
#
# 1 12.6654 14.2261 13.6833 0.0000 0.0000 0.0000
# 2 14.2261 120.0875 82.7810 -0.0002 0.0000 0.0000
# 3 13.6833 82.7810 122.3269 -0.0001 0.0000 0.0000
# 4 0.0000 -0.0002 -0.0001 37.8500 0.0000 0.0000
# 5 0.0000 0.0000 0.0000 0.0000 9.1389 0.0000
# 6 0.0000 0.0000 0.0000 0.0000 0.0000 11.4576
#
#
#
# Elastic Compliance Matrix: (Units=1/GPa)
#
#
# Indices 1 2 3 4 5 6 
#
# 1 0.093025 -0.007211 -0.005526 0.000000 0.000000 0.000000
# 2 -0.007211 0.016167 -0.010134 0.000000 0.000000 0.000000
# 3 -0.005526 -0.010134 0.015651 0.000000 0.000000 0.000000
# 4 0.000000 0.000000 0.000000 0.026420 0.000000 0.000000
# 5 0.000000 0.000000 0.000000 0.000000 0.109423 0.000000
# 6 0.000000 0.000000 0.000000 0.000000 0.000000 0.087279
#
#
# Mechanical properties :
#
#
# Convention : Reuss Voigt Hill
#
# Bulk Modulus (GPa) = 12.64204 52.94007 32.79106
# Shear Modulus (GPa) = 11.90268 21.31524 16.60896
#
# Velocity S-wave (km/s) = 2.61010 3.49285 3.08323
# Velocity P-wave (km/s) = 4.03971 6.82403 5.60744
#
# Compressibility (1/GPa) = 0.07910116
#
# Stress axis : x y z
#
# Youngs Moduli (GPa) = 10.74983 61.85292 63.89398
#
# Poissons Ratio (x) = 0.44602 0.35307
# Poissons Ratio (y) = 0.07752 0.64751
# Poissons Ratio (z) = 0.05940 0.62683
#
# Static dielectric constant tensor:
#      x y z
#    x 2.482540 0.000000 0.000000 
#    y 0.000000 3.511880 0.000000 
#    z 0.000000 0.000000 3.573810 
# 
# 
# High freq. dielectric constant tensor:
#      x y z
#    x 1.587940 0.000000 0.000000 
#    y 0.000000 1.679880 0.000000 
#    z 0.000000 0.000000 1.690220 
# 
# From -- ./inp_files/43969.got.cif
#   From: 2010.06.25/outbox.cif.g09.slc.cpg/sg71_22_cif.got.tgz:43969.got - 2010.06.28 04:59:45.
