data_PCOD8289550
_publ_section_title
;
Structure prediction by ZEFSAII (Michael W. Deem and Ramdas Pophale) SiO2 
 PCOD8289550
Probable space group: I M M M
;
_chemical_formula_sum "Si O2"
_cell_formula_units_Z 72
_cell_length_a 9.259823
_cell_length_b 19.046317
_cell_length_c 22.509169
_cell_angle_alpha 90.000000
_cell_angle_beta 90.000000
_cell_angle_gamma 90.000000
_cell_volume 3969.841390
_symmetry_space_group_name_H-M "I M M M"
_symmetry_group_IT_number 71
_symmetry_cell_setting 'orthorhombic'
loop_
_space_group_symop_operation_xyz
x,y,z
-x,-y,z
x,-y,-z
-x,y,-z
-x,-y,-z
x,y,-z
-x,y,z
x,-y,z
1/2+x,1/2+y,1/2+z
1/2-x,1/2-y,1/2+z
1/2+x,1/2-y,1/2-z
1/2-x,1/2+y,1/2-z
1/2-x,1/2-y,1/2-z
1/2+x,1/2+y,1/2-z
1/2-x,1/2+y,1/2+z
1/2+x,1/2-y,1/2+z
loop_
_atom_site_type_symbol
_atom_site_label
_atom_site_fract_x
_atom_site_fract_y
_atom_site_fract_z
Si Si1 0.829770 0.158103 0.605208
Si Si2 0.165905 0.082196 0.851654
Si Si3 0.669078 0.812099 0.932255
Si Si4 0.171123 0.077612 0.279828
Si Si5 0.832652 0.582837 0.000000
O O1 0.788939 0.239591 0.599971
O O2 0.779243 0.133166 0.670580
O O3 0.743243 0.112934 0.558010
O O4 0.000000 0.145783 0.594298
O O5 0.255688 0.123462 0.900297
O O6 0.225820 0.100872 0.785550
O O7 0.000000 0.104788 0.857868
O O8 0.185255 0.000000 0.864125
O O9 0.500000 0.825552 0.929467
O O10 0.723273 0.808051 0.000000
O O11 0.000000 0.072754 0.276746
O O12 0.232261 0.000000 0.295799
O O13 0.812636 0.500000 0.000000
O O14 0.000000 0.604821 0.000000
#
# Coordination Sequence:
#
# PCOD8289550 Si02
#       5
#    16  16  16  16   8
#     4  10  19  35  57  78 103 142 184 216 255 313
#     4   9  19  36  56  79 105 134 174 221 268 321
#     4  10  21  36  52  76 109 139 174 223 267 308
#     4   8  15  30  54  81 105 132 174 224 261 301
#     4  11  23  35  49  77 114 145 176 219 263 302
#
# _framework density 18.136745000000001
#
# number of rings (size 3 to 8) (size 9 to 14) (size 15 to 20)
#    0.000    2.556    1.111    2.333    0.000    4.889 
#    0.000    3.333    0.000    1.333    0.000    0.000 
#    0.000    0.000    0.000    0.000    0.000    0.000 
#
# Total GULP energy -446353.858964 kJ/mol
# GULP energy per Si atom -12398.718305 kJ/mol
# Density = 1.809546 g / cm^3
# Si number density = 18.136745 Si / 1000 Ang^3
#
#
#
# Elastic Constant Matrix: (Units=GPa)
#
#
# Indices 1 2 3 4 5 6 
#
# 1 39.6694 35.9568 38.4281 0.0000 0.0000 0.0000
# 2 35.9568 93.9333 77.8699 0.0000 0.0000 0.0000
# 3 38.4281 77.8699 135.5017 0.0000 0.0000 0.0000
# 4 0.0000 0.0000 0.0000 26.0814 0.0000 0.0000
# 5 0.0000 0.0000 0.0000 0.0000 19.8720 0.0000
# 6 0.0000 0.0000 0.0000 0.0000 0.0000 29.0148
#
#
#
# Elastic Compliance Matrix: (Units=1/GPa)
#
#
# Indices 1 2 3 4 5 6 
#
# 1 0.040228 -0.011347 -0.004888 0.000000 0.000000 0.000000
# 2 -0.011347 0.023533 -0.010306 0.000000 0.000000 0.000000
# 3 -0.004888 -0.010306 0.014689 0.000000 0.000000 0.000000
# 4 0.000000 0.000000 0.000000 0.038342 0.000000 0.000000
# 5 0.000000 0.000000 0.000000 0.000000 0.050322 0.000000
# 6 0.000000 0.000000 0.000000 0.000000 0.000000 0.034465
#
#
# Mechanical properties :
#
#
# Convention : Reuss Voigt Hill
#
# Bulk Modulus (GPa) = 39.41896 63.73487 51.57691
# Shear Modulus (GPa) = 19.00302 22.78360 20.89331
#
# Velocity S-wave (km/s) = 3.24043 3.54815 3.39778
# Velocity P-wave (km/s) = 5.98181 7.21134 6.62516
#
# Compressibility (1/GPa) = 0.02536850
#
# Stress axis : x y z
#
# Youngs Moduli (GPa) = 24.85810 42.49388 68.07976
#
# Poissons Ratio (x) = 0.48218 0.33276
# Poissons Ratio (y) = 0.28207 0.70161
# Poissons Ratio (z) = 0.12150 0.43793
#
# Static dielectric constant tensor:
#      x y z
#    x 3.082700 0.000000 0.000000 
#    y 0.000000 3.331880 0.000000 
#    z 0.000000 0.000000 3.661390 
# 
# 
# High freq. dielectric constant tensor:
#      x y z
#    x 1.673590 0.000000 0.000000 
#    y 0.000000 1.705140 0.000000 
#    z 0.000000 0.000000 1.714760 
# 
# From -- ./inp_files/9884.got.cif
#   From: 2010.06.25/outbox.cif.g09.slc.cpg/sg71_5_cif.got.tgz:9884.got - 2010.06.28 04:59:45.
