data_PCOD8289929
_publ_section_title
;
Structure prediction by ZEFSAII (Michael W. Deem and Ramdas Pophale) SiO2 
 PCOD8289929
Probable space group: I M M M
;
_chemical_formula_sum "Si O2"
_cell_formula_units_Z 64
_cell_length_a 9.266685
_cell_length_b 9.038517
_cell_length_c 41.228515
_cell_angle_alpha 90.000000
_cell_angle_beta 90.000000
_cell_angle_gamma 90.000000
_cell_volume 3453.180438
_symmetry_space_group_name_H-M "I M M M"
_symmetry_group_IT_number 71
_symmetry_cell_setting 'orthorhombic'
loop_
_space_group_symop_operation_xyz
x,y,z
-x,-y,z
x,-y,-z
-x,y,-z
-x,-y,-z
x,y,-z
-x,y,z
x,-y,z
1/2+x,1/2+y,1/2+z
1/2-x,1/2-y,1/2+z
1/2+x,1/2-y,1/2-z
1/2-x,1/2+y,1/2-z
1/2-x,1/2-y,1/2-z
1/2+x,1/2+y,1/2-z
1/2-x,1/2+y,1/2+z
1/2+x,1/2-y,1/2+z
loop_
_atom_site_type_symbol
_atom_site_label
_atom_site_fract_x
_atom_site_fract_y
_atom_site_fract_z
Si Si1 0.328668 0.668217 0.401575
Si Si2 0.671396 0.834031 0.464318
Si Si3 0.830956 0.329023 0.278915
Si Si4 0.333209 0.672665 0.155270
O O1 0.500000 0.682267 0.399216
O O2 0.277164 0.500000 0.396813
O O3 0.271131 0.723678 0.436612
O O4 0.260905 0.771146 0.374409
O O5 0.726365 0.781911 0.500000
O O6 0.500000 0.834353 0.464179
O O7 0.728019 0.000000 0.457091
O O8 0.786851 0.500000 0.279759
O O9 0.750000 0.250000 0.250000
O O10 0.780839 0.256284 0.312533
O O11 0.000000 0.306320 0.273436
O O12 0.500000 0.707309 0.147939
O O13 0.305272 0.500000 0.160463
#
# Coordination Sequence:
#
# PCOD8289929 Si02
#       4
#    16  16  16  16
#     4  10  20  32  49  76 106 135 169 209 253 301
#     4   8  14  26  45  69  98 132 168 207 252 299
#     4  10  21  37  57  80 105 134 168 206 250 299
#     4  10  21  37  56  76 100 134 173 210 252 301
#
# _framework density 18.533639000000001
#
# number of rings (size 3 to 8) (size 9 to 14) (size 15 to 20)
#    0.000    2.500    0.000    3.000    0.000    6.000 
#    0.000    2.500    0.000    0.750    0.000    5.250 
#    0.000    0.000    0.000    0.000    0.000    0.000 
#
# Total GULP energy -396795.176754 kJ/mol
# GULP energy per Si atom -12399.849274 kJ/mol
# Density = 1.849146 g / cm^3
# Si number density = 18.533639 Si / 1000 Ang^3
#
#
#
# Elastic Constant Matrix: (Units=GPa)
#
#
# Indices 1 2 3 4 5 6 
#
# 1 25.1011 31.4011 38.4444 0.0000 0.0000 0.0000
# 2 31.4011 119.2350 74.0610 0.0000 0.0000 0.0000
# 3 38.4444 74.0610 159.2942 0.0000 0.0000 0.0000
# 4 0.0000 0.0000 0.0000 43.0124 0.0000 0.0000
# 5 0.0000 0.0000 0.0000 0.0000 22.1651 0.0000
# 6 0.0000 0.0000 0.0000 0.0000 0.0000 25.0529
#
#
#
# Elastic Compliance Matrix: (Units=1/GPa)
#
#
# Indices 1 2 3 4 5 6 
#
# 1 0.073179 -0.011673 -0.012234 0.000000 0.000000 0.000000
# 2 -0.011673 0.013654 -0.003531 0.000000 0.000000 0.000000
# 3 -0.012234 -0.003531 0.010872 0.000000 0.000000 0.000000
# 4 0.000000 0.000000 0.000000 0.023249 0.000000 0.000000
# 5 0.000000 0.000000 0.000000 0.000000 0.045116 0.000000
# 6 0.000000 0.000000 0.000000 0.000000 0.000000 0.039915
#
#
# Mechanical properties :
#
#
# Convention : Reuss Voigt Hill
#
# Bulk Modulus (GPa) = 23.34868 65.71592 44.53230
# Shear Modulus (GPa) = 18.17265 28.69434 23.43349
#
# Velocity S-wave (km/s) = 3.13473 3.93902 3.55966
# Velocity P-wave (km/s) = 5.07222 7.49817 6.40117
#
# Compressibility (1/GPa) = 0.04282897
#
# Stress axis : x y z
#
# Youngs Moduli (GPa) = 13.66510 73.23723 91.97951
#
# Poissons Ratio (x) = 0.85491 1.12528
# Poissons Ratio (y) = 0.15951 0.32479
# Poissons Ratio (z) = 0.16718 0.25861
#
# Static dielectric constant tensor:
#      x y z
#    x 3.051440 0.000000 0.000000 
#    y 0.000000 3.634720 0.000000 
#    z 0.000000 0.000000 3.754310 
# 
# 
# High freq. dielectric constant tensor:
#      x y z
#    x 1.679670 0.000000 0.000000 
#    y 0.000000 1.731240 0.000000 
#    z 0.000000 0.000000 1.736610 
# 
# From -- ./inp_files/3713.got.cif
#   From: 2010.06.25/outbox.cif.g09.slc.cpg/sg71_2_cif.got.tgz:3713.got - 2010.06.28 04:59:45.
