data_PCOD8289031
_publ_section_title
;
Structure prediction by ZEFSAII (Michael W. Deem and Ramdas Pophale) SiO2 
 PCOD8289031
Probable space group: I M M M
;
_chemical_formula_sum "Si O2"
_cell_formula_units_Z 88
_cell_length_a 17.158687
_cell_length_b 8.973833
_cell_length_c 28.661307
_cell_angle_alpha 90.000000
_cell_angle_beta 90.000000
_cell_angle_gamma 90.000000
_cell_volume 4413.244883
_symmetry_space_group_name_H-M "I M M M"
_symmetry_group_IT_number 71
_symmetry_cell_setting 'orthorhombic'
loop_
_space_group_symop_operation_xyz
x,y,z
-x,-y,z
x,-y,-z
-x,y,-z
-x,-y,-z
x,y,-z
-x,y,z
x,-y,z
1/2+x,1/2+y,1/2+z
1/2-x,1/2-y,1/2+z
1/2+x,1/2-y,1/2-z
1/2-x,1/2+y,1/2-z
1/2-x,1/2-y,1/2-z
1/2+x,1/2+y,1/2-z
1/2-x,1/2+y,1/2+z
1/2+x,1/2-y,1/2+z
loop_
_atom_site_type_symbol
_atom_site_label
_atom_site_fract_x
_atom_site_fract_y
_atom_site_fract_z
Si Si1 0.808622 0.326033 0.052846
Si Si2 0.153152 0.324095 0.413609
Si Si3 0.087994 0.322996 0.138419
Si Si4 0.827734 0.676062 0.768761
Si Si5 0.000000 0.163602 0.446400
Si Si6 0.084588 0.324487 0.679502
O O1 0.792785 0.500000 0.059830
O O2 0.728299 0.243608 0.062226
O O3 0.874315 0.270531 0.089352
O O4 0.837117 0.291547 0.000000
O O5 0.155475 0.500000 0.421248
O O6 0.149746 0.277702 0.358634
O O7 0.075678 0.260284 0.435969
O O8 0.083674 0.500000 0.141325
O O9 0.141989 0.263622 0.181100
O O10 0.000000 0.257709 0.141693
O O11 0.814113 0.500000 0.770487
O O12 0.750000 0.750000 0.750000
O O13 0.892856 0.724310 0.731400
O O14 0.000000 0.128588 0.500000
O O15 0.000000 0.000000 0.420964
O O16 0.075962 0.500000 0.677365
O O17 0.000000 0.252619 0.667237
#
# Coordination Sequence:
#
# PCOD8289031 Si02
#       6
#    16  16  16  16   8  16
#     4  10  21  36  54  78 110 144 180 231 288 333
#     4  11  21  35  55  79 108 143 186 228 270 331
#     4   9  18  34  57  84 109 141 189 234 274 327
#     4  10  19  32  54  80 108 140 174 217 267 323
#     4  11  23  37  53  75 107 145 185 231 280 323
#     4   9  17  31  51  75 102 134 173 213 257 309
#
# _framework density 19.939976999999999
#
# number of rings (size 3 to 8) (size 9 to 14) (size 15 to 20)
#    0.000    2.091    0.909    3.000    0.000    5.818 
#    0.000    2.727    0.000    3.273    0.000    1.273 
#    0.000    0.000    0.000    0.000    0.000    0.000 
#
# Total GULP energy -545320.127257 kJ/mol
# GULP energy per Si atom -12393.639256 kJ/mol
# Density = 1.989459 g / cm^3
# Si number density = 19.939977 Si / 1000 Ang^3
#
#
#
# Elastic Constant Matrix: (Units=GPa)
#
#
# Indices 1 2 3 4 5 6 
#
# 1 145.3073 29.8005 70.9968 0.0000 0.0000 0.0000
# 2 29.8005 36.7877 33.7671 0.0000 0.0000 0.0000
# 3 70.9968 33.7671 165.6553 0.0000 0.0000 0.0000
# 4 0.0000 0.0000 0.0000 19.3441 0.0000 0.0000
# 5 0.0000 0.0000 0.0000 0.0000 -80.3257 0.0000
# 6 0.0000 0.0000 0.0000 0.0000 0.0000 33.0828
#
#
#
# Elastic Compliance Matrix: (Units=1/GPa)
#
#
# Indices 1 2 3 4 5 6 
#
# 1 0.009344 -0.004789 -0.003028 0.000000 0.000000 0.000000
# 2 -0.004789 0.035895 -0.005264 0.000000 0.000000 0.000000
# 3 -0.003028 -0.005264 0.008408 0.000000 0.000000 0.000000
# 4 0.000000 0.000000 0.000000 0.051695 0.000000 0.000000
# 5 0.000000 0.000000 0.000000 0.000000 -0.012449 0.000000
# 6 0.000000 0.000000 0.000000 0.000000 0.000000 0.030227
#
#
# Mechanical properties :
#
#
# Convention : Reuss Voigt Hill
#
# Bulk Modulus (GPa) = 36.38710 68.54213 52.46461
# Shear Modulus (GPa) = 31.55698 8.63263 20.09481
#
# Velocity S-wave (km/s) = 3.98250 2.08296 3.17798
# Velocity P-wave (km/s) = 6.27973 6.34301 6.31145
#
# Compressibility (1/GPa) = 0.02748227
#
# Stress axis : x y z
#
# Youngs Moduli (GPa) = 107.02227 27.85937 118.94097
#
# Poissons Ratio (x) = 0.13343 0.36019
# Poissons Ratio (y) = 0.51258 0.62611
# Poissons Ratio (z) = 0.32410 0.14665
#
# Static dielectric constant tensor:
#      x y z
#    x 3.570760 0.000000 0.000000 
#    y 0.000000 3.318380 0.000000 
#    z 0.000000 0.000000 4.562790 
# 
# 
# High freq. dielectric constant tensor:
#      x y z
#    x 1.779600 0.000000 0.000000 
#    y 0.000000 1.736850 0.000000 
#    z 0.000000 0.000000 1.797210 
# 
# From -- ./inp_files/70350.got.cif
#   From: 2010.06.25/outbox.cif.g09.slc.cpg/sg71_36_cif.got.tgz:70350.got - 2010.06.28 04:59:45.
