data_PCOD8289351
_publ_section_title
;
Structure prediction by ZEFSAII (Michael W. Deem and Ramdas Pophale) SiO2 
 PCOD8289351
Probable space group: I M M M
;
_chemical_formula_sum "Si O2"
_cell_formula_units_Z 56
_cell_length_a 13.244468
_cell_length_b 9.600551
_cell_length_c 26.393987
_cell_angle_alpha 90.000000
_cell_angle_beta 90.000000
_cell_angle_gamma 90.000000
_cell_volume 3356.106051
_symmetry_space_group_name_H-M "I M M M"
_symmetry_group_IT_number 71
_symmetry_cell_setting 'orthorhombic'
loop_
_space_group_symop_operation_xyz
x,y,z
-x,-y,z
x,-y,-z
-x,y,-z
-x,-y,-z
x,y,-z
-x,y,z
x,-y,z
1/2+x,1/2+y,1/2+z
1/2-x,1/2-y,1/2+z
1/2+x,1/2-y,1/2-z
1/2-x,1/2+y,1/2-z
1/2-x,1/2-y,1/2-z
1/2+x,1/2+y,1/2-z
1/2-x,1/2+y,1/2+z
1/2+x,1/2-y,1/2+z
loop_
_atom_site_type_symbol
_atom_site_label
_atom_site_fract_x
_atom_site_fract_y
_atom_site_fract_z
Si Si1 0.384112 0.662974 0.942147
Si Si2 0.889069 0.500000 0.292282
Si Si3 0.118924 0.000000 0.181063
Si Si4 0.221583 0.277791 0.349665
Si Si5 0.779701 0.000000 0.285586
O O1 0.500000 0.697051 0.927152
O O2 0.363684 0.500000 0.934337
O O3 0.304851 0.750626 0.908438
O O4 0.363907 0.706444 0.000000
O O5 0.869137 0.634432 0.326254
O O6 0.826630 0.500000 0.241383
O O7 0.000000 0.500000 0.271375
O O8 0.172538 0.862001 0.157101
O O9 0.133145 0.000000 0.242161
O O10 0.000000 0.000000 0.167802
O O11 0.217694 0.133578 0.320503
#
# Coordination Sequence:
#
# PCOD8289351 Si02
#       5
#    16   8   8  16   8
#     4   9  17  30  52  81 105 126 158 202 255 310
#     4  10  20  32  46  71 105 135 164 202 248 302
#     4  10  22  36  50  72 104 140 174 207 245 295
#     4  10  19  34  52  73 104 133 167 207 252 297
#     4  10  20  32  51  75  98 133 172 211 247 291
#
# _framework density 16.686005000000002
#
# number of rings (size 3 to 8) (size 9 to 14) (size 15 to 20)
#    0.000    2.571    1.429    5.143    0.000    5.714 
#    0.000    2.857    0.000    9.429    0.000    2.000 
#    0.000    0.000    0.000    0.000    0.000    0.000 
#
# Total GULP energy -346985.713905 kJ/mol
# GULP energy per Si atom -12392.346925 kJ/mol
# Density = 1.664803 g / cm^3
# Si number density = 16.686005 Si / 1000 Ang^3
#
#
#
# Elastic Constant Matrix: (Units=GPa)
#
#
# Indices 1 2 3 4 5 6 
#
# 1 107.5318 39.5546 47.1912 0.0000 0.0000 0.0000
# 2 39.5546 118.9907 56.0668 0.0000 0.0000 0.0000
# 3 47.1912 56.0668 117.4093 0.0000 0.0000 0.0000
# 4 0.0000 0.0000 0.0000 44.0161 0.0000 0.0000
# 5 0.0000 0.0000 0.0000 0.0000 13.1845 0.0000
# 6 0.0000 0.0000 0.0000 0.0000 0.0000 4.5813
#
#
#
# Elastic Compliance Matrix: (Units=1/GPa)
#
#
# Indices 1 2 3 4 5 6 
#
# 1 0.011706 -0.002161 -0.003674 0.000000 0.000000 0.000000
# 2 -0.002161 0.011243 -0.004500 0.000000 0.000000 0.000000
# 3 -0.003674 -0.004500 0.012143 0.000000 0.000000 0.000000
# 4 0.000000 0.000000 0.000000 0.022719 0.000000 0.000000
# 5 0.000000 0.000000 0.000000 0.000000 0.075847 0.000000
# 6 0.000000 0.000000 0.000000 0.000000 0.000000 0.218279
#
#
# Mechanical properties :
#
#
# Convention : Reuss Voigt Hill
#
# Bulk Modulus (GPa) = 69.33304 69.95078 69.64191
# Shear Modulus (GPa) = 13.24807 25.76432 19.50620
#
# Velocity S-wave (km/s) = 2.82079 3.93373 3.42280
# Velocity P-wave (km/s) = 7.22848 7.91487 7.57945
#
# Compressibility (1/GPa) = 0.01442314
#
# Stress axis : x y z
#
# Youngs Moduli (GPa) = 85.42287 88.94639 82.35312
#
# Poissons Ratio (x) = 0.19217 0.30253
# Poissons Ratio (y) = 0.18456 0.37062
# Poissons Ratio (z) = 0.31381 0.40029
#
# Static dielectric constant tensor:
#      x y z
#    x 2.956230 0.000000 0.000000 
#    y 0.000000 2.955620 0.000000 
#    z 0.000000 0.000000 3.152490 
# 
# 
# High freq. dielectric constant tensor:
#      x y z
#    x 1.620730 0.000000 0.000000 
#    y 0.000000 1.653620 0.000000 
#    z 0.000000 0.000000 1.639400 
# 
# From -- ./inp_files/31140.got.cif
#   From: 2010.06.25/outbox.cif.g09.slc.cpg/sg71_16_cif.got.tgz:31140.got - 2010.06.28 04:59:45.
