data_PCOD8289163
_publ_section_title
;
Structure prediction by ZEFSAII (Michael W. Deem and Ramdas Pophale) SiO2 
 PCOD8289163
Probable space group: I M M M
;
_chemical_formula_sum "Si O2"
_cell_formula_units_Z 96
_cell_length_a 12.655121
_cell_length_b 29.696693
_cell_length_c 14.078714
_cell_angle_alpha 90.000000
_cell_angle_beta 90.000000
_cell_angle_gamma 90.000000
_cell_volume 5290.995326
_symmetry_space_group_name_H-M "I M M M"
_symmetry_group_IT_number 71
_symmetry_cell_setting 'orthorhombic'
loop_
_space_group_symop_operation_xyz
x,y,z
-x,-y,z
x,-y,-z
-x,y,-z
-x,-y,-z
x,y,-z
-x,y,z
x,-y,z
1/2+x,1/2+y,1/2+z
1/2-x,1/2-y,1/2+z
1/2+x,1/2-y,1/2-z
1/2-x,1/2+y,1/2-z
1/2-x,1/2-y,1/2-z
1/2+x,1/2+y,1/2-z
1/2-x,1/2+y,1/2+z
1/2+x,1/2-y,1/2+z
loop_
_atom_site_type_symbol
_atom_site_label
_atom_site_fract_x
_atom_site_fract_y
_atom_site_fract_z
Si Si1 0.841679 0.780667 0.216482
Si Si2 0.113530 0.169759 0.603959
Si Si3 0.123972 0.867086 0.108883
Si Si4 0.730586 0.910325 0.389756
Si Si5 0.500000 0.220165 0.388159
Si Si6 0.000000 0.619129 0.112573
Si Si7 0.120660 0.949635 0.758232
O O1 0.750000 0.750000 0.250000
O O2 0.899857 0.793079 0.314567
O O3 0.812264 0.826669 0.160062
O O4 0.900581 0.748069 0.145121
O O5 0.132664 0.192219 0.500000
O O6 0.211003 0.137197 0.626909
O O7 0.000000 0.143504 0.602470
O O8 0.150481 0.914303 0.159422
O O9 0.000000 0.855267 0.117311
O O10 0.160035 0.871244 0.000000
O O11 0.735920 0.924857 0.500000
O O12 0.607845 0.906531 0.355310
O O13 0.795325 0.946391 0.327996
O O14 0.500000 0.217167 0.500000
O O15 0.500000 0.169666 0.344626
O O16 0.000000 0.622661 0.000000
O O17 0.000000 0.941109 0.722639
O O18 0.130549 0.000000 0.800553
#
# Coordination Sequence:
#
# PCOD8289163 Si02
#       7
#    16  16  16  16   8   8  16
#     4  12  22  33  54  82 111 148 188 229 277 332
#     4  10  19  33  52  75 107 145 183 224 275 336
#     4  10  20  37  58  81 113 148 185 229 283 342
#     4  10  19  34  56  80 109 148 185 225 278 335
#     4  11  22  36  53  80 114 149 193 236 275 331
#     4   9  20  36  53  77 110 148 191 230 273 329
#     4  10  21  36  57  86 116 145 183 231 286 345
#
# _framework density 18.144034000000001
#
# number of rings (size 3 to 8) (size 9 to 14) (size 15 to 20)
#    0.000    1.667    3.333    2.000    0.000    4.333 
#    0.000    2.917    0.000    1.500    0.000    0.583 
#    0.000    1.333    0.000    0.000    0.000    0.000 
#
# Total GULP energy -594674.616340 kJ/mol
# GULP energy per Si atom -12389.054507 kJ/mol
# Density = 1.810274 g / cm^3
# Si number density = 18.144034 Si / 1000 Ang^3
#
#
#
# Elastic Constant Matrix: (Units=GPa)
#
#
# Indices 1 2 3 4 5 6 
#
# 1 111.1367 40.7473 35.4942 -0.0002 0.0009 0.0001
# 2 40.7473 114.9113 51.9013 -0.0002 0.0011 -0.0001
# 3 35.4942 51.9013 108.1184 -0.0016 0.0060 0.0005
# 4 -0.0002 -0.0002 -0.0016 21.5625 0.0020 0.0000
# 5 0.0009 0.0011 0.0060 0.0020 -9.0747 -0.0010
# 6 0.0001 -0.0001 0.0005 0.0000 -0.0010 11.2909
#
#
#
# Elastic Compliance Matrix: (Units=1/GPa)
#
#
# Indices 1 2 3 4 5 6 
#
# 1 0.010725 -0.002825 -0.002165 0.000000 -0.000001 0.000000
# 2 -0.002825 0.011856 -0.004764 0.000000 -0.000002 0.000000
# 3 -0.002165 -0.004764 0.012247 0.000001 0.000007 -0.000001
# 4 0.000000 0.000000 0.000001 0.046377 0.000010 0.000000
# 5 -0.000001 -0.000002 0.000007 0.000010 -0.110196 -0.000010
# 6 0.000000 0.000000 -0.000001 0.000000 -0.000010 0.088567
#
#
# Mechanical properties :
#
#
# Convention : Reuss Voigt Hill
#
# Bulk Modulus (GPa) = 65.27438 65.60579 65.44008
# Shear Modulus (GPa) = 59.38972 18.49063 38.94018
#
# Velocity S-wave (km/s) = 5.72743 3.19580 4.63770
# Velocity P-wave (km/s) = 8.93262 7.06076 8.05127
#
# Compressibility (1/GPa) = 0.01531995
#
# Stress axis : x y z
#
# Youngs Moduli (GPa) = 93.23854 84.34638 81.65568
#
# Poissons Ratio (x) = 0.23832 0.17676
# Poissons Ratio (y) = 0.26344 0.38899
# Poissons Ratio (z) = 0.20183 0.40181
#
# Static dielectric constant tensor:
#      x y z
#    x 3.323670 0.000000 0.000000 
#    y 0.000000 3.471730 -0.000030 
#    z 0.000000 -0.000030 3.190540 
# 
# 
# High freq. dielectric constant tensor:
#      x y z
#    x 1.687960 0.000000 0.000000 
#    y 0.000000 1.688370 0.000000 
#    z 0.000000 0.000000 1.700310 
# 
# From -- ./inp_files/33240.got.cif
#   From: 2010.06.25/outbox.cif.g09.slc.cpg/sg71_17_cif.got.tgz:33240.got - 2010.06.28 04:59:45.
