data_PCOD8289890
_publ_section_title
;
Structure prediction by ZEFSAII (Michael W. Deem and Ramdas Pophale) SiO2 
 PCOD8289890
Probable space group: I M M M
;
_chemical_formula_sum "Si O2"
_cell_formula_units_Z 72
_cell_length_a 27.402960
_cell_length_b 18.918830
_cell_length_c 8.719714
_cell_angle_alpha 90.000000
_cell_angle_beta 90.000000
_cell_angle_gamma 90.000000
_cell_volume 4520.578260
_symmetry_space_group_name_H-M "I M M M"
_symmetry_group_IT_number 71
_symmetry_cell_setting 'orthorhombic'
loop_
_space_group_symop_operation_xyz
x,y,z
-x,-y,z
x,-y,-z
-x,y,-z
-x,-y,-z
x,y,-z
-x,y,z
x,-y,z
1/2+x,1/2+y,1/2+z
1/2-x,1/2-y,1/2+z
1/2+x,1/2-y,1/2-z
1/2-x,1/2+y,1/2-z
1/2-x,1/2-y,1/2-z
1/2+x,1/2+y,1/2-z
1/2-x,1/2+y,1/2+z
1/2+x,1/2-y,1/2+z
loop_
_atom_site_type_symbol
_atom_site_label
_atom_site_fract_x
_atom_site_fract_y
_atom_site_fract_z
Si Si1 0.675909 0.217393 0.177212
Si Si2 0.847537 0.500000 0.674473
Si Si3 0.000000 0.418697 0.681312
Si Si4 0.732470 0.644027 0.177938
Si Si5 0.901133 0.629581 0.819762
Si Si6 0.267961 0.500000 0.673667
O O1 0.689684 0.298957 0.204862
O O2 0.719479 0.166487 0.230627
O O3 0.626041 0.202018 0.270221
O O4 0.666584 0.200126 0.000000
O O5 0.867744 0.500000 0.500000
O O6 0.866189 0.567640 0.763765
O O7 0.789967 0.500000 0.678930
O O8 0.953519 0.376340 0.741608
O O9 0.000000 0.500000 0.741912
O O10 0.000000 0.417936 0.500000
O O11 0.712208 0.569554 0.240098
O O12 0.746585 0.638249 0.000000
O O13 0.908488 0.626729 0.000000
O O14 0.287573 0.500000 0.500000
#
# Coordination Sequence:
#
# PCOD8289890 Si02
#       6
#    16   8   8  16  16   8
#     4  10  20  34  49  68  95 127 161 198 243 290
#     4  11  21  32  46  67  94 130 166 200 242 287
#     4  11  23  37  53  69  94 129 162 203 246 284
#     4  10  20  32  49  70  94 125 163 202 238 284
#     4  12  23  34  51  71  94 125 164 207 243 285
#     4  11  21  31  48  70  98 129 163 203 242 288
#
# _framework density 15.927166
#
# number of rings (size 3 to 8) (size 9 to 14) (size 15 to 20)
#    0.000    1.222    3.333    4.333    0.000    4.000 
#    0.000    0.000    0.000    0.000    0.000    0.000 
#    0.000    0.889    0.000    9.333    0.000    4.444 
#
# Total GULP energy -446516.391654 kJ/mol
# GULP energy per Si atom -12403.233102 kJ/mol
# Density = 1.589092 g / cm^3
# Si number density = 15.927166 Si / 1000 Ang^3
#
#
#
# Elastic Constant Matrix: (Units=GPa)
#
#
# Indices 1 2 3 4 5 6 
#
# 1 74.1635 32.5764 32.3598 0.0000 0.0000 0.0000
# 2 32.5764 102.1642 38.1425 0.0000 0.0000 0.0000
# 3 32.3598 38.1425 93.9669 0.0000 0.0000 0.0000
# 4 0.0000 0.0000 0.0000 24.3092 0.0000 0.0000
# 5 0.0000 0.0000 0.0000 0.0000 24.7649 0.0000
# 6 0.0000 0.0000 0.0000 0.0000 0.0000 15.3061
#
#
#
# Elastic Compliance Matrix: (Units=1/GPa)
#
#
# Indices 1 2 3 4 5 6 
#
# 1 0.017048 -0.003823 -0.004319 0.000000 0.000000 0.000000
# 2 -0.003823 0.012394 -0.003714 0.000000 0.000000 0.000000
# 3 -0.004319 -0.003714 0.013637 0.000000 0.000000 0.000000
# 4 0.000000 0.000000 0.000000 0.041137 0.000000 0.000000
# 5 0.000000 0.000000 0.000000 0.000000 0.040380 0.000000
# 6 0.000000 0.000000 0.000000 0.000000 0.000000 0.065333
#
#
# Mechanical properties :
#
#
# Convention : Reuss Voigt Hill
#
# Bulk Modulus (GPa) = 51.63764 52.93911 52.28838
# Shear Modulus (GPa) = 22.71734 24.02379 23.37056
#
# Velocity S-wave (km/s) = 3.78077 3.88797 3.83474
# Velocity P-wave (km/s) = 7.17987 7.31201 7.24624
#
# Compressibility (1/GPa) = 0.01936572
#
# Stress axis : x y z
#
# Youngs Moduli (GPa) = 58.65939 80.68423 73.33014
#
# Poissons Ratio (x) = 0.30849 0.31669
# Poissons Ratio (y) = 0.22428 0.27236
# Poissons Ratio (z) = 0.25334 0.29968
#
# Static dielectric constant tensor:
#      x y z
#    x 2.879560 0.000000 0.000000 
#    y 0.000000 2.542080 0.000000 
#    z 0.000000 0.000000 3.233190 
# 
# 
# High freq. dielectric constant tensor:
#      x y z
#    x 1.578240 0.000000 0.000000 
#    y 0.000000 1.602060 0.000000 
#    z 0.000000 0.000000 1.634770 
# 
# From -- ./inp_files/8200.got.cif
#   From: 2010.06.25/outbox.cif.g09.slc.cpg/sg71_5_cif.got.tgz:8200.got - 2010.06.28 04:59:45.
