data_PCOD8289805
_publ_section_title
;
Structure prediction by ZEFSAII (Michael W. Deem and Ramdas Pophale) SiO2 
 PCOD8289805
Probable space group: I M M M
;
_chemical_formula_sum "Si O2"
_cell_formula_units_Z 80
_cell_length_a 8.859722
_cell_length_b 18.911748
_cell_length_c 32.700049
_cell_angle_alpha 90.000000
_cell_angle_beta 90.000000
_cell_angle_gamma 90.000000
_cell_volume 5478.985745
_symmetry_space_group_name_H-M "I M M M"
_symmetry_group_IT_number 71
_symmetry_cell_setting 'orthorhombic'
loop_
_space_group_symop_operation_xyz
x,y,z
-x,-y,z
x,-y,-z
-x,y,-z
-x,-y,-z
x,y,-z
-x,y,z
x,-y,z
1/2+x,1/2+y,1/2+z
1/2-x,1/2-y,1/2+z
1/2+x,1/2-y,1/2-z
1/2-x,1/2+y,1/2-z
1/2-x,1/2-y,1/2-z
1/2+x,1/2+y,1/2-z
1/2-x,1/2+y,1/2+z
1/2+x,1/2-y,1/2+z
loop_
_atom_site_type_symbol
_atom_site_label
_atom_site_fract_x
_atom_site_fract_y
_atom_site_fract_z
Si Si1 0.175226 0.642719 0.236343
Si Si2 0.321878 0.134214 0.123511
Si Si3 0.673225 0.500000 0.664554
Si Si4 0.325227 0.280999 0.311545
Si Si5 0.175822 0.081611 0.046260
Si Si6 0.672668 0.500000 0.238639
O O1 0.260061 0.667854 0.276841
O O2 0.199055 0.699268 0.200089
O O3 0.244789 0.569159 0.220633
O O4 0.000000 0.633461 0.247282
O O5 0.500000 0.133075 0.125433
O O6 0.255053 0.068471 0.147765
O O7 0.259628 0.204940 0.145564
O O8 0.269298 0.132262 0.076355
O O9 0.500000 0.500000 0.649671
O O10 0.687055 0.500000 0.712875
O O11 0.500000 0.300570 0.316400
O O12 0.000000 0.097997 0.051267
O O13 0.209178 0.000000 0.057457
O O14 0.228303 0.097449 0.000000
O O15 0.500000 0.500000 0.223969
#
# Coordination Sequence:
#
# PCOD8289805 Si02
#       6
#    16  16   8  16  16   8
#     4  10  20  32  47  64  84 110 145 185 220 257
#     4  12  22  30  45  66  86 112 145 186 224 257
#     4  11  21  31  42  60  84 114 150 184 218 260
#     4  10  20  33  46  62  85 114 144 179 222 263
#     4   9  18  32  48  63  83 114 146 178 219 263
#     4  11  21  31  47  64  85 116 145 181 225 264
#
# _framework density 14.601243
#
# number of rings (size 3 to 8) (size 9 to 14) (size 15 to 20)
#    0.000    1.600    3.000    4.200    0.000    3.600 
#    0.000    1.000    0.000    0.000    0.000    0.000 
#    0.000    0.000    0.000    0.900    0.000   17.400 
#
# Total GULP energy -496090.913053 kJ/mol
# GULP energy per Si atom -12402.272826 kJ/mol
# Density = 1.456801 g / cm^3
# Si number density = 14.601243 Si / 1000 Ang^3
#
#
#
# Elastic Constant Matrix: (Units=GPa)
#
#
# Indices 1 2 3 4 5 6 
#
# 1 119.9530 48.1669 50.9441 0.0000 0.0000 0.0000
# 2 48.1669 83.7181 34.3869 0.0000 0.0000 0.0000
# 3 50.9441 34.3869 79.8505 0.0000 0.0000 0.0000
# 4 0.0000 0.0000 0.0000 27.7813 0.0000 0.0000
# 5 0.0000 0.0000 0.0000 0.0000 21.6918 0.0000
# 6 0.0000 0.0000 0.0000 0.0000 0.0000 21.7317
#
#
#
# Elastic Compliance Matrix: (Units=1/GPa)
#
#
# Indices 1 2 3 4 5 6 
#
# 1 0.012909 -0.004913 -0.006120 0.000000 0.000000 0.000000
# 2 -0.004913 0.016382 -0.003920 0.000000 0.000000 0.000000
# 3 -0.006120 -0.003920 0.018116 0.000000 0.000000 0.000000
# 4 0.000000 0.000000 0.000000 0.035995 0.000000 0.000000
# 5 0.000000 0.000000 0.000000 0.000000 0.046100 0.000000
# 6 0.000000 0.000000 0.000000 0.000000 0.000000 0.046016
#
#
# Mechanical properties :
#
#
# Convention : Reuss Voigt Hill
#
# Bulk Modulus (GPa) = 57.14225 61.16862 59.15543
# Shear Modulus (GPa) = 23.66781 24.24253 23.95517
#
# Velocity S-wave (km/s) = 4.03046 4.07911 4.05486
# Velocity P-wave (km/s) = 7.80254 8.01057 7.90724
#
# Compressibility (1/GPa) = 0.01750019
#
# Stress axis : x y z
#
# Youngs Moduli (GPa) = 77.46794 61.04332 55.20009
#
# Poissons Ratio (x) = 0.29992 0.33781
# Poissons Ratio (y) = 0.38062 0.21639
# Poissons Ratio (z) = 0.47408 0.23929
#
# Static dielectric constant tensor:
#      x y z
#    x 2.962770 0.000000 0.000000 
#    y 0.000000 2.802140 0.000000 
#    z 0.000000 0.000000 2.807190 
# 
# 
# High freq. dielectric constant tensor:
#      x y z
#    x 1.576340 0.000000 0.000000 
#    y 0.000000 1.533800 0.000000 
#    z 0.000000 0.000000 1.533050 
# 
# From -- ./inp_files/68126.got.cif
#   From: 2010.06.25/outbox.cif.g09.slc.cpg/sg71_35_cif.got.tgz:68126.got - 2010.06.28 04:59:45.
