data_PCOD8289848
_publ_section_title
;
Structure prediction by ZEFSAII (Michael W. Deem and Ramdas Pophale) SiO2 
 PCOD8289848
Probable space group: I M M M
;
_chemical_formula_sum "Si O2"
_cell_formula_units_Z 104
_cell_length_a 21.864395
_cell_length_b 26.296125
_cell_length_c 8.791688
_cell_angle_alpha 90.000000
_cell_angle_beta 90.000000
_cell_angle_gamma 90.000000
_cell_volume 5054.771028
_symmetry_space_group_name_H-M "I M M M"
_symmetry_group_IT_number 71
_symmetry_cell_setting 'orthorhombic'
loop_
_space_group_symop_operation_xyz
x,y,z
-x,-y,z
x,-y,-z
-x,y,-z
-x,-y,-z
x,y,-z
-x,y,z
x,-y,z
1/2+x,1/2+y,1/2+z
1/2-x,1/2-y,1/2+z
1/2+x,1/2-y,1/2-z
1/2-x,1/2+y,1/2-z
1/2-x,1/2-y,1/2-z
1/2+x,1/2+y,1/2-z
1/2-x,1/2+y,1/2+z
1/2+x,1/2-y,1/2+z
loop_
_atom_site_type_symbol
_atom_site_label
_atom_site_fract_x
_atom_site_fract_y
_atom_site_fract_z
Si Si1 0.843406 0.056966 0.675112
Si Si2 0.568151 0.197684 0.823035
Si Si3 0.429182 0.374189 0.326191
Si Si4 0.381606 0.895972 0.319471
Si Si5 0.252378 0.141543 0.321910
Si Si6 0.148269 0.789151 0.320490
Si Si7 0.071084 0.500000 0.319499
O O1 0.862403 0.064063 0.500000
O O2 0.900893 0.071405 0.780396
O O3 0.786482 0.091994 0.718580
O O4 0.822877 0.000000 0.711544
O O5 0.500000 0.221505 0.800712
O O6 0.567679 0.144942 0.729770
O O7 0.621218 0.235742 0.756709
O O8 0.579973 0.186025 0.000000
O O9 0.414104 0.360751 0.500000
O O10 0.500000 0.377376 0.294016
O O11 0.400936 0.331802 0.217955
O O12 0.379823 0.903785 0.500000
O O13 0.319025 0.870164 0.252771
O O14 0.395034 0.950360 0.245158
O O15 0.259952 0.149188 0.500000
O O16 0.215633 0.192104 0.257589
O O17 0.151684 0.784896 0.500000
O O18 0.076653 0.500000 0.500000
O O19 0.000000 0.500000 0.268057
#
# Coordination Sequence:
#
# PCOD8289848 Si02
#       7
#    16  16  16  16  16  16   8
#     4   9  18  33  54  74  97 137 185 231 276 331
#     4  10  21  37  58  85 117 152 191 236 281 327
#     4  10  20  32  47  72 108 144 178 227 289 337
#     4  11  23  38  61  90 118 150 186 231 290 350
#     4   8  17  34  56  83 112 142 182 232 282 330
#     4   9  18  36  60  81 106 148 195 232 270 327
#     4  11  25  45  65  85 115 153 194 241 286 331
#
# _framework density 20.574622000000002
#
# number of rings (size 3 to 8) (size 9 to 14) (size 15 to 20)
#    0.000    2.385    0.000    3.000    1.077    6.462 
#    0.000    7.692    0.000    0.000    0.000    0.000 
#    0.000    0.000    0.000    0.000    0.000    0.000 
#
# Total GULP energy -644356.668970 kJ/mol
# GULP energy per Si atom -12391.474403 kJ/mol
# Density = 2.052779 g / cm^3
# Si number density = 20.574622 Si / 1000 Ang^3
#
#
#
# Elastic Constant Matrix: (Units=GPa)
#
#
# Indices 1 2 3 4 5 6 
#
# 1 110.6308 49.4081 27.8922 0.0000 0.0000 0.0000
# 2 49.4081 132.6801 20.2412 0.0000 0.0000 0.0000
# 3 27.8922 20.2412 19.3089 0.0000 0.0000 0.0000
# 4 0.0000 0.0000 0.0000 21.4096 0.0000 0.0000
# 5 0.0000 0.0000 0.0000 0.0000 22.3137 0.0000
# 6 0.0000 0.0000 0.0000 0.0000 0.0000 26.7629
#
#
#
# Elastic Compliance Matrix: (Units=1/GPa)
#
#
# Indices 1 2 3 4 5 6 
#
# 1 0.014995 -0.002713 -0.018816 0.000000 0.000000 0.000000
# 2 -0.002713 0.009463 -0.006000 0.000000 0.000000 0.000000
# 3 -0.018816 -0.006000 0.085260 0.000000 0.000000 0.000000
# 4 0.000000 0.000000 0.000000 0.046708 0.000000 0.000000
# 5 0.000000 0.000000 0.000000 0.000000 0.044815 0.000000
# 6 0.000000 0.000000 0.000000 0.000000 0.000000 0.037365
#
#
# Mechanical properties :
#
#
# Convention : Reuss Voigt Hill
#
# Bulk Modulus (GPa) = 18.29548 50.85585 34.57566
# Shear Modulus (GPa) = 16.03160 25.10246 20.56703
#
# Velocity S-wave (km/s) = 2.79443 3.49674 3.16512
# Velocity P-wave (km/s) = 4.39583 6.40892 5.49535
#
# Compressibility (1/GPa) = 0.05465832
#
# Stress axis : x y z
#
# Youngs Moduli (GPa) = 66.69015 105.67829 11.72887
#
# Poissons Ratio (x) = 0.28674 0.22069
# Poissons Ratio (y) = 0.18095 0.07037
# Poissons Ratio (z) = 1.25484 0.63408
#
# Static dielectric constant tensor:
#      x y z
#    x 4.064650 0.000000 0.000000 
#    y 0.000000 4.118140 0.000000 
#    z 0.000000 0.000000 3.479770 
# 
# 
# High freq. dielectric constant tensor:
#      x y z
#    x 1.811920 0.000000 0.000000 
#    y 0.000000 1.809280 0.000000 
#    z 0.000000 0.000000 1.779570 
# 
# From -- ./inp_files/11045.got.cif
#   From: 2010.06.25/outbox.cif.g09.slc.cpg/sg71_6_cif.got.tgz:11045.got - 2010.06.28 04:59:45.
