data_PCOD8289639
_publ_section_title
;
Structure prediction by ZEFSAII (Michael W. Deem and Ramdas Pophale) SiO2 
 PCOD8289639
Probable space group: I M M M
;
_chemical_formula_sum "Si O2"
_cell_formula_units_Z 104
_cell_length_a 18.903886
_cell_length_b 17.847816
_cell_length_c 17.312547
_cell_angle_alpha 90.000000
_cell_angle_beta 90.000000
_cell_angle_gamma 90.000000
_cell_volume 5841.133538
_symmetry_space_group_name_H-M "I M M M"
_symmetry_group_IT_number 71
_symmetry_cell_setting 'orthorhombic'
loop_
_space_group_symop_operation_xyz
x,y,z
-x,-y,z
x,-y,-z
-x,y,-z
-x,-y,-z
x,y,-z
-x,y,z
x,-y,z
1/2+x,1/2+y,1/2+z
1/2-x,1/2-y,1/2+z
1/2+x,1/2-y,1/2-z
1/2-x,1/2+y,1/2-z
1/2-x,1/2-y,1/2-z
1/2+x,1/2+y,1/2-z
1/2-x,1/2+y,1/2+z
1/2+x,1/2-y,1/2+z
loop_
_atom_site_type_symbol
_atom_site_label
_atom_site_fract_x
_atom_site_fract_y
_atom_site_fract_z
Si Si1 0.418235 0.340800 0.589294
Si Si2 0.781736 0.800894 0.682855
Si Si3 0.417756 0.911815 0.000000
Si Si4 0.162568 0.654100 0.355115
Si Si5 0.081414 0.414519 0.784498
Si Si6 0.192454 0.912948 0.808156
Si Si7 0.144898 0.678135 0.089673
O O1 0.409337 0.362868 0.500000
O O2 0.500000 0.340049 0.613731
O O3 0.377785 0.401837 0.640788
O O4 0.384959 0.260216 0.606638
O O5 0.750000 0.750000 0.750000
O O6 0.835846 0.745213 0.637855
O O7 0.817572 0.872259 0.724707
O O8 0.723737 0.829978 0.622664
O O9 0.382839 0.877806 0.075544
O O10 0.500000 0.891191 0.000000
O O11 0.405422 0.000000 0.000000
O O12 0.127853 0.633615 0.273820
O O13 0.241504 0.619865 0.357023
O O14 0.107097 0.500000 0.781395
O O15 0.093705 0.382171 0.869966
O O16 0.000000 0.407995 0.760819
O O17 0.204276 0.000000 0.791741
O O18 0.145536 0.658592 0.000000
#
# Coordination Sequence:
#
# PCOD8289639 Si02
#       7
#    16  16   8  16  16  16  16
#     4  10  21  36  54  80 113 145 180 224 277 335
#     4  10  19  36  57  84 107 140 187 236 269 324
#     4  11  24  38  56  90 126 150 180 227 282 338
#     4  11  21  37  59  81 113 152 188 229 278 335
#     4  11  22  36  55  80 113 151 188 227 278 337
#     4  11  21  35  58  82 107 144 188 228 276 329
#     4  11  21  36  56  81 112 147 187 232 278 327
#
# _framework density 17.804763000000001
#
# number of rings (size 3 to 8) (size 9 to 14) (size 15 to 20)
#    0.000    1.308    6.154    2.308    2.154    3.077 
#    0.000    2.308    0.000    0.000    0.000    0.000 
#    0.000    0.615    0.000    0.000    0.000    0.000 
#
# Total GULP energy -644871.978795 kJ/mol
# GULP energy per Si atom -12401.384208 kJ/mol
# Density = 1.776424 g / cm^3
# Si number density = 17.804763 Si / 1000 Ang^3
#
#
#
# Elastic Constant Matrix: (Units=GPa)
#
#
# Indices 1 2 3 4 5 6 
#
# 1 89.9818 38.4709 46.2270 0.0000 0.0000 0.0000
# 2 38.4709 95.7081 32.2990 0.0000 0.0000 0.0000
# 3 46.2270 32.2990 86.3566 0.0000 0.0000 0.0000
# 4 0.0000 0.0000 0.0000 26.0048 0.0000 0.0000
# 5 0.0000 0.0000 0.0000 0.0000 5.8056 0.0000
# 6 0.0000 0.0000 0.0000 0.0000 0.0000 26.5199
#
#
#
# Elastic Compliance Matrix: (Units=1/GPa)
#
#
# Indices 1 2 3 4 5 6 
#
# 1 0.016702 -0.004230 -0.007359 0.000000 0.000000 0.000000
# 2 -0.004230 0.013029 -0.002609 0.000000 0.000000 0.000000
# 3 -0.007359 -0.002609 0.016495 0.000000 0.000000 0.000000
# 4 0.000000 0.000000 0.000000 0.038454 0.000000 0.000000
# 5 0.000000 0.000000 0.000000 0.000000 0.172248 0.000000
# 6 0.000000 0.000000 0.000000 0.000000 0.000000 0.037707
#
#
# Mechanical properties :
#
#
# Convention : Reuss Voigt Hill
#
# Bulk Modulus (GPa) = 56.08198 56.22669 56.15434
# Shear Modulus (GPa) = 15.19873 22.00271 18.60072
#
# Velocity S-wave (km/s) = 2.92487 3.51917 3.23570
# Velocity P-wave (km/s) = 6.55539 6.93981 6.75034
#
# Compressibility (1/GPa) = 0.01783104
#
# Stress axis : x y z
#
# Youngs Moduli (GPa) = 59.87155 76.75051 60.62563
#
# Poissons Ratio (x) = 0.32468 0.44612
# Poissons Ratio (y) = 0.25328 0.15815
# Poissons Ratio (z) = 0.44057 0.20021
#
# Static dielectric constant tensor:
#      x y z
#    x 3.364310 0.000000 0.000000 
#    y 0.000000 3.544740 0.000000 
#    z 0.000000 0.000000 3.884880 
# 
# 
# High freq. dielectric constant tensor:
#      x y z
#    x 1.684090 0.000000 0.000000 
#    y 0.000000 1.685880 0.000000 
#    z 0.000000 0.000000 1.684280 
# 
# From -- ./inp_files/46115.got.cif
#   From: 2010.06.25/outbox.cif.g09.slc.cpg/sg71_24_cif.got.tgz:46115.got - 2010.06.28 04:59:45.
