data_PCOD8289281
_publ_section_title
;
Structure prediction by ZEFSAII (Michael W. Deem and Ramdas Pophale) SiO2 
 PCOD8289281
Probable space group: I M M M
;
_chemical_formula_sum "Si O2"
_cell_formula_units_Z 88
_cell_length_a 17.787270
_cell_length_b 8.948746
_cell_length_c 28.527947
_cell_angle_alpha 90.000000
_cell_angle_beta 90.000000
_cell_angle_gamma 90.000000
_cell_volume 4540.900625
_symmetry_space_group_name_H-M "I M M M"
_symmetry_group_IT_number 71
_symmetry_cell_setting 'orthorhombic'
loop_
_space_group_symop_operation_xyz
x,y,z
-x,-y,z
x,-y,-z
-x,y,-z
-x,-y,-z
x,y,-z
-x,y,z
x,-y,z
1/2+x,1/2+y,1/2+z
1/2-x,1/2-y,1/2+z
1/2+x,1/2-y,1/2-z
1/2-x,1/2+y,1/2-z
1/2-x,1/2-y,1/2-z
1/2+x,1/2+y,1/2-z
1/2-x,1/2+y,1/2+z
1/2+x,1/2-y,1/2+z
loop_
_atom_site_type_symbol
_atom_site_label
_atom_site_fract_x
_atom_site_fract_y
_atom_site_fract_z
Si Si1 0.273187 0.170393 0.175551
Si Si2 0.913796 0.822677 0.500000
Si Si3 0.195345 0.177413 0.583229
Si Si4 0.848133 0.830651 0.054592
Si Si5 0.000000 0.823116 0.100229
Si Si6 0.000000 0.824522 0.793207
Si Si7 0.353046 0.830088 0.274534
O O1 0.320660 0.249771 0.134152
O O2 0.315987 0.181386 0.224054
O O3 0.193940 0.253791 0.183399
O O4 0.257126 0.000000 0.161139
O O5 0.868563 0.767292 0.546333
O O6 0.000000 0.759779 0.500000
O O7 0.916057 0.000000 0.500000
O O8 0.277356 0.228070 0.566607
O O9 0.193487 0.000000 0.587709
O O10 0.923542 0.760090 0.077186
O O11 0.833079 0.000000 0.072867
O O12 0.862400 0.831241 0.000000
O O13 0.000000 0.770238 0.153500
O O14 0.000000 0.000000 0.093889
O O15 0.070990 0.758638 0.766839
O O16 0.000000 0.000000 0.788015
O O17 0.367103 0.000000 0.289566
#
# Coordination Sequence:
#
# PCOD8289281 Si02
#       7
#    16   8  16  16   8   8  16
#     4  10  21  38  60  85 114 148 190 239 291 349
#     4   9  20  40  61  82 113 148 186 237 293 349
#     4  11  21  36  60  86 114 147 190 238 291 353
#     4  10  19  33  55  80 112 151 193 234 279 329
#     4   9  19  33  50  78 112 152 192 229 266 317
#     4  11  21  34  55  82 118 157 194 235 282 343
#     4  10  21  38  59  83 116 153 193 240 288 340
#
# _framework density 19.379415999999999
#
# number of rings (size 3 to 8) (size 9 to 14) (size 15 to 20)
#    0.000    1.909    0.909    3.273    0.000    4.727 
#    1.636    1.364    0.000    4.909    0.000    0.000 
#    0.000    0.000    0.000    0.000    0.000    0.000 
#
# Total GULP energy -545574.199078 kJ/mol
# GULP energy per Si atom -12399.413615 kJ/mol
# Density = 1.933531 g / cm^3
# Si number density = 19.379416 Si / 1000 Ang^3
#
#
#
# Elastic Constant Matrix: (Units=GPa)
#
#
# Indices 1 2 3 4 5 6 
#
# 1 119.2051 40.3740 27.2130 0.0000 0.0000 0.0000
# 2 40.3740 102.6096 41.6909 0.0000 0.0000 0.0000
# 3 27.2130 41.6909 67.1392 0.0000 0.0000 0.0000
# 4 0.0000 0.0000 0.0000 30.9438 0.0000 0.0000
# 5 0.0000 0.0000 0.0000 0.0000 24.2569 0.0000
# 6 0.0000 0.0000 0.0000 0.0000 0.0000 30.3242
#
#
#
# Elastic Compliance Matrix: (Units=1/GPa)
#
#
# Indices 1 2 3 4 5 6 
#
# 1 0.009902 -0.003030 -0.002132 0.000000 0.000000 0.000000
# 2 -0.003030 0.013961 -0.007441 0.000000 0.000000 0.000000
# 3 -0.002132 -0.007441 0.020379 0.000000 0.000000 0.000000
# 4 0.000000 0.000000 0.000000 0.032317 0.000000 0.000000
# 5 0.000000 0.000000 0.000000 0.000000 0.041225 0.000000
# 6 0.000000 0.000000 0.000000 0.000000 0.000000 0.032977
#
#
# Mechanical properties :
#
#
# Convention : Reuss Voigt Hill
#
# Bulk Modulus (GPa) = 52.53192 56.39000 54.46096
# Shear Modulus (GPa) = 27.42533 29.08339 28.25436
#
# Velocity S-wave (km/s) = 3.76597 3.87814 3.82246
# Velocity P-wave (km/s) = 6.78792 7.01529 6.90254
#
# Compressibility (1/GPa) = 0.01903604
#
# Stress axis : x y z
#
# Youngs Moduli (GPa) = 100.99176 71.62651 49.06917
#
# Poissons Ratio (x) = 0.21702 0.10462
# Poissons Ratio (y) = 0.30599 0.36514
# Poissons Ratio (z) = 0.21531 0.53300
#
# Static dielectric constant tensor:
#      x y z
#    x 3.564470 0.000000 0.000000 
#    y 0.000000 3.525050 0.000000 
#    z 0.000000 0.000000 3.664500 
# 
# 
# High freq. dielectric constant tensor:
#      x y z
#    x 1.751920 0.000000 0.000000 
#    y 0.000000 1.743230 0.000000 
#    z 0.000000 0.000000 1.765780 
# 
# From -- ./inp_files/70395.got.cif
#   From: 2010.06.25/outbox.cif.g09.slc.cpg/sg71_36_cif.got.tgz:70395.got - 2010.06.28 04:59:45.
