data_PCOD8289158
_publ_section_title
;
Structure prediction by ZEFSAII (Michael W. Deem and Ramdas Pophale) SiO2 
 PCOD8289158
Probable space group: I M M M
;
_chemical_formula_sum "Si O2"
_cell_formula_units_Z 104
_cell_length_a 26.741174
_cell_length_b 11.391722
_cell_length_c 19.084208
_cell_angle_alpha 90.000000
_cell_angle_beta 90.000000
_cell_angle_gamma 90.000000
_cell_volume 5813.584499
_symmetry_space_group_name_H-M "I M M M"
_symmetry_group_IT_number 71
_symmetry_cell_setting 'orthorhombic'
loop_
_space_group_symop_operation_xyz
x,y,z
-x,-y,z
x,-y,-z
-x,y,-z
-x,-y,-z
x,y,-z
-x,y,z
x,-y,z
1/2+x,1/2+y,1/2+z
1/2-x,1/2-y,1/2+z
1/2+x,1/2-y,1/2-z
1/2-x,1/2+y,1/2-z
1/2-x,1/2-y,1/2-z
1/2+x,1/2+y,1/2-z
1/2-x,1/2+y,1/2+z
1/2+x,1/2-y,1/2+z
loop_
_atom_site_type_symbol
_atom_site_label
_atom_site_fract_x
_atom_site_fract_y
_atom_site_fract_z
Si Si1 0.058805 0.273833 0.834480
Si Si2 0.231432 0.275763 0.921398
Si Si3 0.382499 0.867527 0.784793
Si Si4 0.333065 0.862277 0.077469
Si Si5 0.368432 0.365729 0.578604
Si Si6 0.774802 0.370329 0.221286
Si Si7 0.559093 0.000000 0.421522
O O1 0.074909 0.290513 0.753357
O O2 0.087074 0.163659 0.867718
O O3 0.077103 0.386352 0.879218
O O4 0.000000 0.251664 0.838318
O O5 0.278883 0.192078 0.911723
O O6 0.182160 0.202050 0.904711
O O7 0.233511 0.376504 0.862733
O O8 0.230471 0.329868 0.000000
O O9 0.371382 0.815891 0.862883
O O10 0.332954 0.861404 0.738193
O O11 0.402863 0.000000 0.790853
O O12 0.325478 0.000000 0.088598
O O13 0.354667 0.833003 0.000000
O O14 0.387513 0.338455 0.500000
O O15 0.354635 0.500000 0.588429
O O16 0.754962 0.500000 0.249049
O O17 0.750000 0.250000 0.250000
O O18 0.500000 0.000000 0.426991
O O19 0.582577 0.000000 0.500000
#
# Coordination Sequence:
#
# PCOD8289158 Si02
#       7
#    16  16  16  16  16  16   8
#     4  11  21  34  51  72  99 133 178 230 279 322
#     4  10  19  33  52  77 109 145 180 217 262 314
#     4  10  19  33  52  75 103 136 177 219 268 322
#     4   9  17  30  52  79 106 138 174 214 263 328
#     4  10  21  35  51  74 107 145 184 222 264 320
#     4  11  22  36  54  80 112 145 181 221 269 324
#     4   9  18  32  50  70  93 127 171 217 266 320
#
# _framework density 17.889135
#
# number of rings (size 3 to 8) (size 9 to 14) (size 15 to 20)
#    0.000    1.923    3.846    0.923    0.000    4.000 
#    0.000    0.769    0.000    0.462    0.000    2.154 
#    0.000    0.000    0.000    1.385    0.000    0.000 
#
# Total GULP energy -644415.601831 kJ/mol
# GULP energy per Si atom -12392.607728 kJ/mol
# Density = 1.784842 g / cm^3
# Si number density = 17.889135 Si / 1000 Ang^3
#
#
#
# Elastic Constant Matrix: (Units=GPa)
#
#
# Indices 1 2 3 4 5 6 
#
# 1 54.9436 15.6136 30.2472 0.0000 0.0000 0.0000
# 2 15.6136 62.7854 22.4554 0.0000 0.0000 0.0000
# 3 30.2472 22.4554 129.3732 0.0000 0.0000 0.0000
# 4 0.0000 0.0000 0.0000 24.5103 0.0000 0.0000
# 5 0.0000 0.0000 0.0000 0.0000 27.6066 0.0000
# 6 0.0000 0.0000 0.0000 0.0000 0.0000 17.3649
#
#
#
# Elastic Compliance Matrix: (Units=1/GPa)
#
#
# Indices 1 2 3 4 5 6 
#
# 1 0.021716 -0.003822 -0.004414 0.000000 0.000000 0.000000
# 2 -0.003822 0.017654 -0.002171 0.000000 0.000000 0.000000
# 3 -0.004414 -0.002171 0.009138 0.000000 0.000000 0.000000
# 4 0.000000 0.000000 0.000000 0.040799 0.000000 0.000000
# 5 0.000000 0.000000 0.000000 0.000000 0.036223 0.000000
# 6 0.000000 0.000000 0.000000 0.000000 0.000000 0.057587
#
#
# Mechanical properties :
#
#
# Convention : Reuss Voigt Hill
#
# Bulk Modulus (GPa) = 36.10637 42.63717 39.37177
# Shear Modulus (GPa) = 23.45617 25.81544 24.63580
#
# Velocity S-wave (km/s) = 3.62497 3.80291 3.71501
# Velocity P-wave (km/s) = 6.14392 6.57029 6.36068
#
# Compressibility (1/GPa) = 0.02769595
#
# Stress axis : x y z
#
# Youngs Moduli (GPa) = 46.04801 56.64425 109.42950
#
# Poissons Ratio (x) = 0.21649 0.48301
# Poissons Ratio (y) = 0.17599 0.23754
# Poissons Ratio (z) = 0.20325 0.12296
#
# Static dielectric constant tensor:
#      x y z
#    x 3.021860 0.000000 0.000000 
#    y 0.000000 3.207190 0.000000 
#    z 0.000000 0.000000 3.729320 
# 
# 
# High freq. dielectric constant tensor:
#      x y z
#    x 1.661860 0.000000 0.000000 
#    y 0.000000 1.671500 0.000000 
#    z 0.000000 0.000000 1.704880 
# 
# From -- ./inp_files/24530.got.cif
#   From: 2010.06.25/outbox.cif.g09.slc.cpg/sg71_13_cif.got.tgz:24530.got - 2010.06.28 04:59:45.
