data_PCOD8289455
_publ_section_title
;
Structure prediction by ZEFSAII (Michael W. Deem and Ramdas Pophale) SiO2 
 PCOD8289455
Probable space group: I M M M
;
_chemical_formula_sum "Si O2"
_cell_formula_units_Z 96
_cell_length_a 27.789928
_cell_length_b 23.200361
_cell_length_c 7.943676
_cell_angle_alpha 90.000000
_cell_angle_beta 90.000000
_cell_angle_gamma 90.000000
_cell_volume 5121.576763
_symmetry_space_group_name_H-M "I M M M"
_symmetry_group_IT_number 71
_symmetry_cell_setting 'orthorhombic'
loop_
_space_group_symop_operation_xyz
x,y,z
-x,-y,z
x,-y,-z
-x,y,-z
-x,-y,-z
x,y,-z
-x,y,z
x,-y,z
1/2+x,1/2+y,1/2+z
1/2-x,1/2-y,1/2+z
1/2+x,1/2-y,1/2-z
1/2-x,1/2+y,1/2-z
1/2-x,1/2-y,1/2-z
1/2+x,1/2+y,1/2-z
1/2-x,1/2+y,1/2+z
1/2+x,1/2-y,1/2+z
loop_
_atom_site_type_symbol
_atom_site_label
_atom_site_fract_x
_atom_site_fract_y
_atom_site_fract_z
Si Si1 0.593142 0.713031 0.811749
Si Si2 0.445581 0.934422 0.801132
Si Si3 0.863403 0.065618 0.000000
Si Si4 0.622169 0.832301 0.303403
Si Si5 0.177620 0.126972 0.690927
Si Si6 0.947481 0.152358 0.000000
Si Si7 0.227758 0.690151 0.807624
O O1 0.594867 0.781820 0.795611
O O2 0.645879 0.684812 0.782001
O O3 0.557606 0.689927 0.669154
O O4 0.574187 0.697755 0.000000
O O5 0.500000 0.917624 0.741647
O O6 0.405146 0.892656 0.723936
O O7 0.434206 0.000000 0.742917
O O8 0.442714 0.929949 0.000000
O O9 0.834736 0.079081 0.171247
O O10 0.912944 0.098701 0.000000
O O11 0.877264 0.000000 0.000000
O O12 0.621741 0.817766 0.500000
O O13 0.676974 0.831338 0.227994
O O14 0.170036 0.103325 0.500000
O O15 0.233165 0.140821 0.725282
O O16 0.000000 0.125366 0.000000
O O17 0.250000 0.750000 0.750000
O O18 0.216488 0.698910 0.000000
#
# Coordination Sequence:
#
# PCOD8289455 Si02
#       7
#    16  16   8  16  16   8  16
#     4  10  19  34  56  82 115 153 185 223 285 348
#     4   9  20  40  60  75  99 142 194 242 283 328
#     4  10  22  39  62  84 110 151 198 240 280 340
#     4  11  21  33  54  86 117 145 184 232 281 340
#     4   9  19  36  56  83 117 152 189 227 283 340
#     4  10  22  39  58  82 117 148 184 242 292 338
#     4  10  20  31  53  84 116 150 181 224 278 332
#
# _framework density 18.744228
#
# number of rings (size 3 to 8) (size 9 to 14) (size 15 to 20)
#    0.000    2.167    2.500    1.000    1.167    2.833 
#    0.000    1.667    0.000    3.000    0.000    4.667 
#    0.000    0.000    0.000    0.000    0.000    0.000 
#
# Total GULP energy -594891.471676 kJ/mol
# GULP energy per Si atom -12393.572327 kJ/mol
# Density = 1.870157 g / cm^3
# Si number density = 18.744228 Si / 1000 Ang^3
#
#
#
# Elastic Constant Matrix: (Units=GPa)
#
#
# Indices 1 2 3 4 5 6 
#
# 1 123.7651 54.0877 41.8973 0.0000 0.0000 0.0000
# 2 54.0877 105.1409 38.7238 0.0000 0.0000 0.0000
# 3 41.8973 38.7238 100.1820 0.0000 0.0000 0.0000
# 4 0.0000 0.0000 0.0000 21.1063 0.0000 0.0000
# 5 0.0000 0.0000 0.0000 0.0000 15.3582 0.0000
# 6 0.0000 0.0000 0.0000 0.0000 0.0000 18.9346
#
#
#
# Elastic Compliance Matrix: (Units=1/GPa)
#
#
# Indices 1 2 3 4 5 6 
#
# 1 0.011072 -0.004653 -0.002832 0.000000 0.000000 0.000000
# 2 -0.004653 0.013045 -0.003097 0.000000 0.000000 0.000000
# 3 -0.002832 -0.003097 0.012363 0.000000 0.000000 0.000000
# 4 0.000000 0.000000 0.000000 0.047379 0.000000 0.000000
# 5 0.000000 0.000000 0.000000 0.000000 0.065112 0.000000
# 6 0.000000 0.000000 0.000000 0.000000 0.000000 0.052813
#
#
# Mechanical properties :
#
#
# Convention : Reuss Voigt Hill
#
# Bulk Modulus (GPa) = 65.28436 66.50063 65.89249
# Shear Modulus (GPa) = 21.92480 24.03845 22.98162
#
# Velocity S-wave (km/s) = 3.42377 3.58501 3.50532
# Velocity P-wave (km/s) = 7.10875 7.25888 7.18421
#
# Compressibility (1/GPa) = 0.01531761
#
# Stress axis : x y z
#
# Youngs Moduli (GPa) = 90.31956 76.65785 80.88578
#
# Poissons Ratio (x) = 0.35666 0.22906
# Poissons Ratio (y) = 0.42023 0.25047
# Poissons Ratio (z) = 0.25578 0.23737
#
# Static dielectric constant tensor:
#      x y z
#    x 3.519130 0.000000 0.000000 
#    y 0.000000 3.196460 0.000000 
#    z 0.000000 0.000000 3.017150 
# 
# 
# High freq. dielectric constant tensor:
#      x y z
#    x 1.725410 0.000000 0.000000 
#    y 0.000000 1.700840 0.000000 
#    z 0.000000 0.000000 1.737670 
# 
# From -- ./inp_files/12939.got.cif
#   From: 2010.06.25/outbox.cif.g09.slc.cpg/sg71_7_cif.got.tgz:12939.got - 2010.06.28 04:59:45.
