data_PCOD8289266
_publ_section_title
;
Structure prediction by ZEFSAII (Michael W. Deem and Ramdas Pophale) SiO2 
 PCOD8289266
Probable space group: I M M M
;
_chemical_formula_sum "Si O2"
_cell_formula_units_Z 96
_cell_length_a 13.596609
_cell_length_b 18.950305
_cell_length_c 20.866775
_cell_angle_alpha 90.000000
_cell_angle_beta 90.000000
_cell_angle_gamma 90.000000
_cell_volume 5376.530899
_symmetry_space_group_name_H-M "I M M M"
_symmetry_group_IT_number 71
_symmetry_cell_setting 'orthorhombic'
loop_
_space_group_symop_operation_xyz
x,y,z
-x,-y,z
x,-y,-z
-x,y,-z
-x,-y,-z
x,y,-z
-x,y,z
x,-y,z
1/2+x,1/2+y,1/2+z
1/2-x,1/2-y,1/2+z
1/2+x,1/2-y,1/2-z
1/2-x,1/2+y,1/2-z
1/2-x,1/2-y,1/2-z
1/2+x,1/2+y,1/2-z
1/2-x,1/2+y,1/2+z
1/2+x,1/2-y,1/2+z
loop_
_atom_site_type_symbol
_atom_site_label
_atom_site_fract_x
_atom_site_fract_y
_atom_site_fract_z
Si Si1 0.888626 0.080414 0.256694
Si Si2 0.387687 0.188462 0.573264
Si Si3 0.500000 0.084361 0.929355
Si Si4 0.790343 0.422635 0.574918
Si Si5 0.734423 0.582465 0.118834
Si Si6 0.607756 0.583671 0.000000
Si Si7 0.611738 0.659734 0.372525
O O1 0.814310 0.099798 0.313214
O O2 0.869123 0.136440 0.200444
O O3 0.000000 0.087449 0.282599
O O4 0.870666 0.000000 0.232464
O O5 0.349315 0.200703 0.500000
O O6 0.500000 0.165372 0.570359
O O7 0.334339 0.125336 0.610346
O O8 0.374120 0.257344 0.617342
O O9 0.395296 0.107244 0.895426
O O10 0.500000 0.000000 0.932630
O O11 0.500000 0.118294 0.000000
O O12 0.809834 0.429495 0.500000
O O13 0.768415 0.500000 0.604420
O O14 0.694682 0.375609 0.584397
O O15 0.758392 0.500000 0.111518
O O16 0.661947 0.609879 0.063571
O O17 0.600335 0.500000 0.000000
O O18 0.500000 0.618125 0.000000
O O19 0.500000 0.637298 0.393326
#
# Coordination Sequence:
#
# PCOD8289266 Si02
#       7
#    16  16   8  16  16   8  16
#     4   9  18  33  54  80 108 137 170 209 259 319
#     4  10  21  36  53  74 104 142 179 217 263 311
#     4   7  12  24  42  64  88 122 169 216 264 306
#     4   9  16  27  47  71  96 131 177 225 264 304
#     4  10  19  33  55  79 101 132 172 217 269 321
#     4   9  16  28  51  81 105 123 153 208 274 326
#     4  10  20  33  50  73 106 145 177 210 256 309
#
# _framework density 17.855378999999999
#
# number of rings (size 3 to 8) (size 9 to 14) (size 15 to 20)
#    0.000    2.667    0.833    2.500    0.000    5.000 
#    0.000    1.667    5.500    0.000    0.000    0.000 
#    0.000    0.000    0.000    0.000    0.000    0.000 
#
# Total GULP energy -594700.368077 kJ/mol
# GULP energy per Si atom -12389.591002 kJ/mol
# Density = 1.781474 g / cm^3
# Si number density = 17.855379 Si / 1000 Ang^3
#
#
#
# Elastic Constant Matrix: (Units=GPa)
#
#
# Indices 1 2 3 4 5 6 
#
# 1 129.6713 59.2820 40.3655 0.0000 0.0000 0.0000
# 2 59.2820 74.7958 44.6949 0.0000 0.0000 0.0000
# 3 40.3655 44.6949 83.1918 0.0000 0.0000 0.0000
# 4 0.0000 0.0000 0.0000 23.0682 0.0000 0.0000
# 5 0.0000 0.0000 0.0000 0.0000 22.9526 0.0000
# 6 0.0000 0.0000 0.0000 0.0000 0.0000 21.7356
#
#
#
# Elastic Compliance Matrix: (Units=1/GPa)
#
#
# Indices 1 2 3 4 5 6 
#
# 1 0.012158 -0.009000 -0.001063 0.000000 0.000000 0.000000
# 2 -0.009000 0.026355 -0.009792 0.000000 0.000000 0.000000
# 3 -0.001063 -0.009792 0.017797 0.000000 0.000000 0.000000
# 4 0.000000 0.000000 0.000000 0.043350 0.000000 0.000000
# 5 0.000000 0.000000 0.000000 0.000000 0.043568 0.000000
# 6 0.000000 0.000000 0.000000 0.000000 0.000000 0.046007
#
#
# Mechanical properties :
#
#
# Convention : Reuss Voigt Hill
#
# Bulk Modulus (GPa) = 60.24958 64.03819 62.14388
# Shear Modulus (GPa) = 21.32387 23.10570 22.21479
#
# Velocity S-wave (km/s) = 3.45955 3.60119 3.53108
# Velocity P-wave (km/s) = 7.05509 7.29618 7.17665
#
# Compressibility (1/GPa) = 0.01659763
#
# Stress axis : x y z
#
# Youngs Moduli (GPa) = 82.25309 37.94406 56.18870
#
# Poissons Ratio (x) = 0.34151 0.05976
# Poissons Ratio (y) = 0.74031 0.55020
# Poissons Ratio (z) = 0.08748 0.37155
#
# Static dielectric constant tensor:
#      x y z
#    x 3.601490 0.000000 0.000000 
#    y 0.000000 3.018040 0.000000 
#    z 0.000000 0.000000 3.099260 
# 
# 
# High freq. dielectric constant tensor:
#      x y z
#    x 1.707350 0.000000 0.000000 
#    y 0.000000 1.662370 0.000000 
#    z 0.000000 0.000000 1.668790 
# 
# From -- ./inp_files/52057.got.cif
#   From: 2010.06.25/outbox.cif.g09.slc.cpg/sg71_27_cif.got.tgz:52057.got - 2010.06.28 04:59:45.
