data_PCOD8289343
_publ_section_title
;
Structure prediction by ZEFSAII (Michael W. Deem and Ramdas Pophale) SiO2 
 PCOD8289343
Probable space group: I M M M
;
_chemical_formula_sum "Si O2"
_cell_formula_units_Z 96
_cell_length_a 15.204001
_cell_length_b 23.530239
_cell_length_c 13.761584
_cell_angle_alpha 90.000000
_cell_angle_beta 90.000000
_cell_angle_gamma 90.000000
_cell_volume 4923.258657
_symmetry_space_group_name_H-M "I M M M"
_symmetry_group_IT_number 71
_symmetry_cell_setting 'orthorhombic'
loop_
_space_group_symop_operation_xyz
x,y,z
-x,-y,z
x,-y,-z
-x,y,-z
-x,-y,-z
x,y,-z
-x,y,z
x,-y,z
1/2+x,1/2+y,1/2+z
1/2-x,1/2-y,1/2+z
1/2+x,1/2-y,1/2-z
1/2-x,1/2+y,1/2-z
1/2-x,1/2-y,1/2-z
1/2+x,1/2+y,1/2-z
1/2-x,1/2+y,1/2+z
1/2+x,1/2-y,1/2+z
loop_
_atom_site_type_symbol
_atom_site_label
_atom_site_fract_x
_atom_site_fract_y
_atom_site_fract_z
Si Si1 0.397839 0.876593 0.389120
Si Si2 0.815032 0.891116 0.111125
Si Si3 0.500000 0.564565 0.616225
Si Si4 0.170631 0.000000 0.388340
Si Si5 0.402237 0.623214 0.887549
Si Si6 0.397894 0.000000 0.328942
Si Si7 0.729178 0.000000 0.186690
Si Si8 0.250804 0.684090 0.772054
O O1 0.384179 0.856916 0.500000
O O2 0.500000 0.870543 0.357929
O O3 0.340521 0.835598 0.320350
O O4 0.363476 0.941592 0.379592
O O5 0.913142 0.902703 0.154209
O O6 0.763429 0.842332 0.165920
O O7 0.758578 0.947614 0.123052
O O8 0.820971 0.872879 0.000000
O O9 0.500000 0.500000 0.656630
O O10 0.500000 0.562428 0.500000
O O11 0.113425 0.056276 0.370152
O O12 0.208381 0.000000 0.500000
O O13 0.242690 0.000000 0.302352
O O14 0.500000 0.636881 0.848112
O O15 0.332637 0.664207 0.836483
O O16 0.394933 0.638012 0.000000
O O17 0.500000 0.000000 0.342687
O O18 0.374892 0.000000 0.211839
O O19 0.250000 0.750000 0.750000
#
# Coordination Sequence:
#
# PCOD8289343 Si02
#       8
#    16  16   8   8  16   8   8  16
#     4  10  21  40  66  94 122 151 192 251 316 374
#     4  11  23  39  59  88 123 161 202 246 296 356
#     4   9  18  34  58  90 124 152 188 237 294 363
#     4  10  19  33  59  96 130 151 179 227 302 381
#     4  10  21  38  62  93 126 155 187 234 301 380
#     4  10  19  34  62  95 121 144 181 242 318 376
#     4  12  19  34  59  87 118 164 190 240 299 368
#     4  12  26  41  60  83 117 165 213 256 295 344
#
# _framework density 19.499279999999999
#
# number of rings (size 3 to 8) (size 9 to 14) (size 15 to 20)
#    0.000    1.417    4.167    1.250    1.167    6.000 
#    1.500    0.000    0.000    2.500    0.000    0.000 
#    0.000    0.000    0.000    0.000    0.000    0.000 
#
# Total GULP energy -594957.384018 kJ/mol
# GULP energy per Si atom -12394.945500 kJ/mol
# Density = 1.945490 g / cm^3
# Si number density = 19.499280 Si / 1000 Ang^3
#
#
#
# Elastic Constant Matrix: (Units=GPa)
#
#
# Indices 1 2 3 4 5 6 
#
# 1 85.7554 59.3495 44.0700 0.0001 0.0000 0.0000
# 2 59.3495 155.9681 45.2046 0.0003 0.0001 0.0000
# 3 44.0700 45.2046 74.6195 0.0011 0.0001 0.0000
# 4 0.0001 0.0003 0.0011 -36.4796 0.0001 0.0001
# 5 0.0000 0.0001 0.0001 0.0001 34.7359 0.0000
# 6 0.0000 0.0000 0.0000 0.0001 0.0000 18.2792
#
#
#
# Elastic Compliance Matrix: (Units=1/GPa)
#
#
# Indices 1 2 3 4 5 6 
#
# 1 0.019442 -0.004937 -0.008491 0.000000 0.000000 0.000000
# 2 -0.004937 0.009031 -0.002555 0.000000 0.000000 0.000000
# 3 -0.008491 -0.002555 0.019964 0.000001 0.000000 0.000000
# 4 0.000000 0.000000 0.000001 -0.027413 0.000000 0.000000
# 5 0.000000 0.000000 0.000000 0.000000 0.028789 0.000000
# 6 0.000000 0.000000 0.000000 0.000000 0.000000 0.054707
#
#
# Mechanical properties :
#
#
# Convention : Reuss Voigt Hill
#
# Bulk Modulus (GPa) = 60.71740 68.17682 64.44711
# Shear Modulus (GPa) = 35.21720 14.48836 24.85278
#
# Velocity S-wave (km/s) = 4.25441 2.72880 3.57396
# Velocity P-wave (km/s) = 7.43903 6.70583 7.08192
#
# Compressibility (1/GPa) = 0.01646974
#
# Stress axis : x y z
#
# Youngs Moduli (GPa) = 51.43635 110.73304 50.08979
#
# Poissons Ratio (x) = 0.54668 0.42533
# Poissons Ratio (y) = 0.25394 0.12799
# Poissons Ratio (z) = 0.43676 0.28294
#
# Static dielectric constant tensor:
#      x y z
#    x 3.863510 0.000000 0.000000 
#    y 0.000000 3.384700 0.000000 
#    z 0.000000 0.000000 3.604000 
# 
# 
# High freq. dielectric constant tensor:
#      x y z
#    x 1.767010 0.000000 0.000000 
#    y 0.000000 1.734500 0.000000 
#    z 0.000000 0.000000 1.762360 
# 
# From -- ./inp_files/34810.got.cif
#   From: 2010.06.25/outbox.cif.g09.slc.cpg/sg71_18_cif.got.tgz:34810.got - 2010.06.28 04:59:45.
