data_PCOD8289531
_publ_section_title
;
Structure prediction by ZEFSAII (Michael W. Deem and Ramdas Pophale) SiO2 
 PCOD8289531
Probable space group: I M M M
;
_chemical_formula_sum "Si O2"
_cell_formula_units_Z 56
_cell_length_a 9.209071
_cell_length_b 33.340715
_cell_length_c 10.320027
_cell_angle_alpha 90.000000
_cell_angle_beta 90.000000
_cell_angle_gamma 90.000000
_cell_volume 3168.630250
_symmetry_space_group_name_H-M "I M M M"
_symmetry_group_IT_number 71
_symmetry_cell_setting 'orthorhombic'
loop_
_space_group_symop_operation_xyz
x,y,z
-x,-y,z
x,-y,-z
-x,y,-z
-x,-y,-z
x,y,-z
-x,y,z
x,-y,z
1/2+x,1/2+y,1/2+z
1/2-x,1/2-y,1/2+z
1/2+x,1/2-y,1/2-z
1/2-x,1/2+y,1/2-z
1/2-x,1/2-y,1/2-z
1/2+x,1/2+y,1/2-z
1/2-x,1/2+y,1/2+z
1/2+x,1/2-y,1/2+z
loop_
_atom_site_type_symbol
_atom_site_label
_atom_site_fract_x
_atom_site_fract_y
_atom_site_fract_z
Si Si1 0.170262 0.836204 0.765047
Si Si2 0.335924 0.000000 0.154266
Si Si3 0.826874 0.293978 0.500000
Si Si4 0.666712 0.423359 0.351350
Si Si5 0.828556 0.797519 0.500000
O O1 0.264081 0.814599 0.873269
O O2 0.199013 0.883778 0.768005
O O3 0.228390 0.820247 0.627521
O O4 0.000000 0.826928 0.788957
O O5 0.259518 0.959897 0.207921
O O6 0.500000 0.000000 0.203869
O O7 0.323241 0.000000 0.000000
O O8 0.773323 0.248044 0.500000
O O9 0.000000 0.297781 0.500000
O O10 0.709636 0.414059 0.500000
O O11 0.500000 0.436370 0.341849
O O12 0.000000 0.798867 0.500000
#
# Coordination Sequence:
#
# PCOD8289531 Si02
#       5
#    16   8   8  16   8
#     4  10  19  35  55  75 101 137 174 212 255 301
#     4   9  17  27  43  70 101 128 154 198 253 297
#     4  11  21  33  51  78 105 134 171 216 259 301
#     4   9  16  28  47  71  96 126 165 205 246 294
#     4   9  20  35  53  76 103 134 174 216 256 301
#
# _framework density 17.673252000000002
#
# number of rings (size 3 to 8) (size 9 to 14) (size 15 to 20)
#    0.000    2.429    1.429    1.714    0.000    2.857 
#    0.000    2.143    0.000    0.857    0.000    6.000 
#    0.000    0.000    0.000    0.000    0.000    0.000 
#
# Total GULP energy -347213.273529 kJ/mol
# GULP energy per Si atom -12400.474055 kJ/mol
# Density = 1.763303 g / cm^3
# Si number density = 17.673252 Si / 1000 Ang^3
#
#
#
# Elastic Constant Matrix: (Units=GPa)
#
#
# Indices 1 2 3 4 5 6 
#
# 1 77.4954 68.8761 42.8972 0.0011 -0.0001 -0.0001
# 2 68.8761 157.0500 63.6860 0.0020 -0.0001 -0.0001
# 3 42.8972 63.6860 106.2791 0.0093 -0.0006 -0.0005
# 4 0.0011 0.0020 0.0093 22.1927 -0.0015 -0.0007
# 5 -0.0001 -0.0001 -0.0006 -0.0015 -1.1752 0.0004
# 6 -0.0001 -0.0001 -0.0005 -0.0007 0.0004 28.2556
#
#
#
# Elastic Compliance Matrix: (Units=1/GPa)
#
#
# Indices 1 2 3 4 5 6 
#
# 1 0.022470 -0.008159 -0.004180 0.000001 0.000000 0.000000
# 2 -0.008159 0.011374 -0.003522 0.000001 0.000002 0.000000
# 3 -0.004180 -0.003522 0.013207 -0.000005 -0.000006 0.000000
# 4 0.000001 0.000001 -0.000005 0.045060 -0.000059 0.000001
# 5 0.000000 0.000002 -0.000006 -0.000059 -0.850918 0.000013
# 6 0.000000 0.000000 0.000000 0.000001 0.000013 0.035391
#
#
# Mechanical properties :
#
#
# Convention : Reuss Voigt Hill
#
# Bulk Modulus (GPa) = 65.24283 76.86033 71.05158
# Shear Modulus (GPa) = -7.28243 20.87899 6.79828
#
# Velocity S-wave (km/s) = -2.03213 3.44086 1.96342
# Velocity P-wave (km/s) = 5.61162 7.70520 6.74019
#
# Compressibility (1/GPa) = 0.01532735
#
# Stress axis : x y z
#
# Youngs Moduli (GPa) = 44.50466 87.91888 75.71647
#
# Poissons Ratio (x) = 0.71735 0.31650
# Poissons Ratio (y) = 0.36312 0.26671
# Poissons Ratio (z) = 0.18603 0.30969
#
# Static dielectric constant tensor:
#      x y z
#    x 3.163190 0.000000 -0.000010 
#    y 0.000000 3.494580 0.000010 
#    z -0.000010 0.000010 4.366820 
# 
# 
# High freq. dielectric constant tensor:
#      x y z
#    x 1.670430 0.000000 0.000000 
#    y 0.000000 1.700580 0.000000 
#    z 0.000000 0.000000 1.650810 
# 
# From -- ./inp_files/3605.got.cif
#   From: 2010.06.25/outbox.cif.g09.slc.cpg/sg71_2_cif.got.tgz:3605.got - 2010.06.28 04:59:45.
