data_PCOD8289474
_publ_section_title
;
Structure prediction by ZEFSAII (Michael W. Deem and Ramdas Pophale) SiO2 
 PCOD8289474
Probable space group: I M M M
;
_chemical_formula_sum "Si O2"
_cell_formula_units_Z 104
_cell_length_a 15.037054
_cell_length_b 16.660779
_cell_length_c 21.012482
_cell_angle_alpha 90.000000
_cell_angle_beta 90.000000
_cell_angle_gamma 90.000000
_cell_volume 5264.236807
_symmetry_space_group_name_H-M "I M M M"
_symmetry_group_IT_number 71
_symmetry_cell_setting 'orthorhombic'
loop_
_space_group_symop_operation_xyz
x,y,z
-x,-y,z
x,-y,-z
-x,y,-z
-x,-y,-z
x,y,-z
-x,y,z
x,-y,z
1/2+x,1/2+y,1/2+z
1/2-x,1/2-y,1/2+z
1/2+x,1/2-y,1/2-z
1/2-x,1/2+y,1/2-z
1/2-x,1/2-y,1/2-z
1/2+x,1/2+y,1/2-z
1/2-x,1/2+y,1/2+z
1/2+x,1/2-y,1/2+z
loop_
_atom_site_type_symbol
_atom_site_label
_atom_site_fract_x
_atom_site_fract_y
_atom_site_fract_z
Si Si1 0.395457 0.405523 0.500000
Si Si2 0.638737 0.907270 0.570940
Si Si3 0.265423 0.907972 0.235098
Si Si4 0.597863 0.805936 0.685414
Si Si5 0.901306 0.908841 0.321487
Si Si6 0.318231 0.319210 0.928983
Si Si7 0.205141 0.825604 0.117050
O O1 0.376798 0.500000 0.500000
O O2 0.500000 0.386388 0.500000
O O3 0.352691 0.367353 0.437280
O O4 0.605497 0.884277 0.500000
O O5 0.582744 0.858371 0.621918
O O6 0.742191 0.886414 0.578435
O O7 0.624572 0.000000 0.584980
O O8 0.341621 0.851101 0.263170
O O9 0.171629 0.887990 0.268532
O O10 0.255226 0.892033 0.159754
O O11 0.293755 0.000000 0.245764
O O12 0.500000 0.790672 0.715116
O O13 0.641951 0.722405 0.665594
O O14 0.893966 0.846079 0.379876
O O15 0.000000 0.897673 0.291899
O O16 0.889015 0.000000 0.346179
O O17 0.278871 0.231669 0.914151
O O18 0.358246 0.318297 0.000000
#
# Coordination Sequence:
#
# PCOD8289474 Si02
#       7
#     8  16  16  16  16  16  16
#     4  11  24  42  66  96 126 157 200 250 300 361
#     4   9  17  30  50  77 113 156 196 234 286 352
#     4  11  23  41  61  85 121 162 203 247 300 364
#     4  11  23  36  59  90 122 160 201 249 299 358
#     4  10  21  36  57  86 121 160 202 248 297 356
#     4  10  19  34  57  81 111 152 197 246 297 350
#     4  11  22  41  61  88 118 158 201 247 303 356
#
# _framework density 19.755949999999999
#
# number of rings (size 3 to 8) (size 9 to 14) (size 15 to 20)
#    0.000    1.615    3.846    2.308    1.077    4.000 
#    0.000    3.077    0.000    0.000    0.000    0.000 
#    0.000    2.462    0.000    0.000    0.000    0.000 
#
# Total GULP energy -644759.496539 kJ/mol
# GULP energy per Si atom -12399.221087 kJ/mol
# Density = 1.971098 g / cm^3
# Si number density = 19.755950 Si / 1000 Ang^3
#
#
#
# Elastic Constant Matrix: (Units=GPa)
#
#
# Indices 1 2 3 4 5 6 
#
# 1 76.6142 21.5300 25.3078 0.0000 0.0000 0.0000
# 2 21.5300 75.8195 37.0347 0.0000 0.0000 0.0000
# 3 25.3078 37.0347 100.6254 0.0000 0.0000 0.0000
# 4 0.0000 0.0000 0.0000 35.8858 0.0000 0.0000
# 5 0.0000 0.0000 0.0000 0.0000 6.0330 0.0000
# 6 0.0000 0.0000 0.0000 0.0000 0.0000 20.0659
#
#
#
# Elastic Compliance Matrix: (Units=1/GPa)
#
#
# Indices 1 2 3 4 5 6 
#
# 1 0.014738 -0.002895 -0.002641 0.000000 0.000000 0.000000
# 2 -0.002895 0.016649 -0.005399 0.000000 0.000000 0.000000
# 3 -0.002641 -0.005399 0.012589 0.000000 0.000000 0.000000
# 4 0.000000 0.000000 0.000000 0.027866 0.000000 0.000000
# 5 0.000000 0.000000 0.000000 0.000000 0.165755 0.000000
# 6 0.000000 0.000000 0.000000 0.000000 0.000000 0.049836
#
#
# Mechanical properties :
#
#
# Convention : Reuss Voigt Hill
#
# Bulk Modulus (GPa) = 45.23837 46.75602 45.99720
# Shear Modulus (GPa) = 15.78915 23.67604 19.73260
#
# Velocity S-wave (km/s) = 2.83010 3.46558 3.16384
# Velocity P-wave (km/s) = 5.79893 6.30332 6.05638
#
# Compressibility (1/GPa) = 0.02210513
#
# Stress axis : x y z
#
# Youngs Moduli (GPa) = 67.84965 60.06487 79.43218
#
# Poissons Ratio (x) = 0.17389 0.20980
# Poissons Ratio (y) = 0.19643 0.42888
# Poissons Ratio (z) = 0.17921 0.32431
#
# Static dielectric constant tensor:
#      x y z
#    x 3.387160 0.000000 0.000000 
#    y 0.000000 3.577120 0.000000 
#    z 0.000000 0.000000 3.629560 
# 
# 
# High freq. dielectric constant tensor:
#      x y z
#    x 1.752130 0.000000 0.000000 
#    y 0.000000 1.771660 0.000000 
#    z 0.000000 0.000000 1.769140 
# 
# From -- ./inp_files/60081.got.cif
#   From: 2010.06.25/outbox.cif.g09.slc.cpg/sg71_31_cif.got.tgz:60081.got - 2010.06.28 04:59:45.
