data_PCOD8289329
_publ_section_title
;
Structure prediction by ZEFSAII (Michael W. Deem and Ramdas Pophale) SiO2 
 PCOD8289329
Probable space group: I M M M
;
_chemical_formula_sum "Si O2"
_cell_formula_units_Z 96
_cell_length_a 14.364437
_cell_length_b 15.906304
_cell_length_c 20.036397
_cell_angle_alpha 90.000000
_cell_angle_beta 90.000000
_cell_angle_gamma 90.000000
_cell_volume 4578.018206
_symmetry_space_group_name_H-M "I M M M"
_symmetry_group_IT_number 71
_symmetry_cell_setting 'orthorhombic'
loop_
_space_group_symop_operation_xyz
x,y,z
-x,-y,z
x,-y,-z
-x,y,-z
-x,-y,-z
x,y,-z
-x,y,z
x,-y,z
1/2+x,1/2+y,1/2+z
1/2-x,1/2-y,1/2+z
1/2+x,1/2-y,1/2-z
1/2-x,1/2+y,1/2-z
1/2-x,1/2-y,1/2-z
1/2+x,1/2+y,1/2-z
1/2-x,1/2+y,1/2+z
1/2+x,1/2-y,1/2+z
loop_
_atom_site_type_symbol
_atom_site_label
_atom_site_fract_x
_atom_site_fract_y
_atom_site_fract_z
Si Si1 0.893419 0.093702 0.661009
Si Si2 0.896368 0.649059 0.696164
Si Si3 0.392631 0.261936 0.927643
Si Si4 0.110539 0.406025 0.075710
Si Si5 0.106533 0.743994 0.169893
Si Si6 0.798848 0.908971 0.198676
O O1 0.848207 0.154292 0.605196
O O2 0.836378 0.104437 0.727847
O O3 0.000000 0.119567 0.677505
O O4 0.887499 0.000000 0.632137
O O5 0.881174 0.684474 0.622079
O O6 0.885681 0.721980 0.751667
O O7 0.813260 0.583244 0.704385
O O8 0.000000 0.607709 0.702996
O O9 0.500000 0.281440 0.939463
O O10 0.345615 0.242883 0.000000
O O11 0.147386 0.500000 0.096355
O O12 0.147885 0.333277 0.125733
O O13 0.000000 0.407664 0.080850
O O14 0.141632 0.384986 0.000000
O O15 0.166094 0.829114 0.154893
O O16 0.000000 0.762640 0.149779
O O17 0.833537 0.000000 0.170070
#
# Coordination Sequence:
#
# PCOD8289329 Si02
#       6
#    16  16  16  16  16  16
#     4   9  17  30  51  83 120 152 184 225 279 349
#     4  10  21  37  56  80 108 144 199 253 295 342
#     4   9  17  31  53  79 108 147 191 236 290 344
#     4   8  15  30  54  85 119 153 188 228 283 351
#     4  10  19  33  57  85 115 152 190 232 287 350
#     4  11  22  35  55  81 114 155 194 239 291 340
#
# _framework density 20.969771000000001
#
# number of rings (size 3 to 8) (size 9 to 14) (size 15 to 20)
#    0.000    2.500    1.667    1.500    0.000    2.333 
#    0.000    4.167    0.000    2.000    0.000    4.667 
#    0.000    0.000    0.000    0.000    0.000    0.000 
#
# Total GULP energy -594729.911740 kJ/mol
# GULP energy per Si atom -12390.206495 kJ/mol
# Density = 2.092204 g / cm^3
# Si number density = 20.969771 Si / 1000 Ang^3
#
#
#
# Elastic Constant Matrix: (Units=GPa)
#
#
# Indices 1 2 3 4 5 6 
#
# 1 73.5601 32.6492 29.4233 0.0000 0.0000 0.0000
# 2 32.6492 133.5854 58.6683 0.0000 0.0000 0.0000
# 3 29.4233 58.6683 106.7638 0.0000 0.0000 0.0000
# 4 0.0000 0.0000 0.0000 28.7570 0.0000 0.0000
# 5 0.0000 0.0000 0.0000 0.0000 4.2649 0.0000
# 6 0.0000 0.0000 0.0000 0.0000 0.0000 17.5076
#
#
#
# Elastic Compliance Matrix: (Units=1/GPa)
#
#
# Indices 1 2 3 4 5 6 
#
# 1 0.015931 -0.002591 -0.002967 0.000000 0.000000 0.000000
# 2 -0.002591 0.010288 -0.004940 0.000000 0.000000 0.000000
# 3 -0.002967 -0.004940 0.012899 0.000000 0.000000 0.000000
# 4 0.000000 0.000000 0.000000 0.034774 0.000000 0.000000
# 5 0.000000 0.000000 0.000000 0.000000 0.234473 0.000000
# 6 0.000000 0.000000 0.000000 0.000000 0.000000 0.057118
#
#
# Mechanical properties :
#
#
# Convention : Reuss Voigt Hill
#
# Bulk Modulus (GPa) = 55.17690 61.71011 58.44350
# Shear Modulus (GPa) = 12.73824 22.98380 17.86102
#
# Velocity S-wave (km/s) = 2.46734 3.31425 2.92164
# Velocity P-wave (km/s) = 5.87254 6.64362 6.26994
#
# Compressibility (1/GPa) = 0.01812353
#
# Stress axis : x y z
#
# Youngs Moduli (GPa) = 62.77125 97.19646 77.52813
#
# Poissons Ratio (x) = 0.25180 0.23001
# Poissons Ratio (y) = 0.16262 0.38297
# Poissons Ratio (z) = 0.18623 0.48012
#
# Static dielectric constant tensor:
#      x y z
#    x 3.764410 0.000000 0.000000 
#    y 0.000000 3.881650 0.000000 
#    z 0.000000 0.000000 3.820930 
# 
# 
# High freq. dielectric constant tensor:
#      x y z
#    x 1.815190 0.000000 0.000000 
#    y 0.000000 1.810260 0.000000 
#    z 0.000000 0.000000 1.793670 
# 
# From -- ./inp_files/37836.got.cif
#   From: 2010.06.25/outbox.cif.g09.slc.cpg/sg71_19_cif.got.tgz:37836.got - 2010.06.28 04:59:45.
