data_PCOD8289784
_publ_section_title
;
Structure prediction by ZEFSAII (Michael W. Deem and Ramdas Pophale) SiO2 
 PCOD8289784
Probable space group: I M M M
;
_chemical_formula_sum "Si O2"
_cell_formula_units_Z 80
_cell_length_a 24.956287
_cell_length_b 8.795437
_cell_length_c 19.828486
_cell_angle_alpha 90.000000
_cell_angle_beta 90.000000
_cell_angle_gamma 90.000000
_cell_volume 4352.381430
_symmetry_space_group_name_H-M "I M M M"
_symmetry_group_IT_number 71
_symmetry_cell_setting 'orthorhombic'
loop_
_space_group_symop_operation_xyz
x,y,z
-x,-y,z
x,-y,-z
-x,y,-z
-x,-y,-z
x,y,-z
-x,y,z
x,-y,z
1/2+x,1/2+y,1/2+z
1/2-x,1/2-y,1/2+z
1/2+x,1/2-y,1/2-z
1/2-x,1/2+y,1/2-z
1/2-x,1/2-y,1/2-z
1/2+x,1/2+y,1/2-z
1/2-x,1/2+y,1/2+z
1/2+x,1/2-y,1/2+z
loop_
_atom_site_type_symbol
_atom_site_label
_atom_site_fract_x
_atom_site_fract_y
_atom_site_fract_z
Si Si1 0.768366 0.335852 0.500000
Si Si2 0.109324 0.335103 0.500000
Si Si3 0.740598 0.677509 0.857054
Si Si4 0.940515 0.323030 0.242453
Si Si5 0.559133 0.330166 0.880870
Si Si6 0.169952 0.822318 0.233454
O O1 0.737921 0.500000 0.500000
O O2 0.829741 0.374703 0.500000
O O3 0.755727 0.248000 0.568805
O O4 0.078357 0.500000 0.500000
O O5 0.099107 0.231008 0.564018
O O6 0.744221 0.500000 0.868009
O O7 0.792262 0.731095 0.816419
O O8 0.687178 0.716988 0.811635
O O9 0.929491 0.500000 0.229430
O O10 0.941327 0.290548 0.321394
O O11 0.890927 0.225440 0.213874
O O12 0.000000 0.277757 0.212651
O O13 0.500000 0.340291 0.913002
O O14 0.577491 0.500000 0.856574
O O15 0.177216 0.000000 0.219606
#
# Coordination Sequence:
#
# PCOD8289784 Si02
#       6
#     8   8  16  16  16  16
#     4  11  23  36  50  73 103 133 170 214 259 308
#     4  11  22  32  45  64  90 127 167 208 251 298
#     4  10  21  36  55  78 105 138 175 216 263 314
#     4  10  20  33  50  73 101 132 167 209 255 303
#     4  10  20  32  45  63  90 126 168 211 252 295
#     4  10  20  35  56  80 106 138 175 216 262 312
#
# _framework density 18.380741
#
# number of rings (size 3 to 8) (size 9 to 14) (size 15 to 20)
#    0.000    1.800    0.000    4.500    0.000   10.800 
#    0.000    0.000    0.000    0.000    0.000    0.700 
#    0.000    5.600    0.000    0.000    0.000    0.000 
#
# Total GULP energy -495576.418911 kJ/mol
# GULP energy per Si atom -12389.410473 kJ/mol
# Density = 1.833891 g / cm^3
# Si number density = 18.380741 Si / 1000 Ang^3
#
#
#
# Elastic Constant Matrix: (Units=GPa)
#
#
# Indices 1 2 3 4 5 6 
#
# 1 82.7310 28.0290 19.0391 0.0000 0.0000 0.0000
# 2 28.0290 92.3662 38.5172 0.0000 0.0000 0.0000
# 3 19.0391 38.5172 81.9516 0.0000 0.0000 0.0000
# 4 0.0000 0.0000 0.0000 42.0490 0.0000 0.0000
# 5 0.0000 0.0000 0.0000 0.0000 17.9709 0.0000
# 6 0.0000 0.0000 0.0000 0.0000 0.0000 29.8076
#
#
#
# Elastic Compliance Matrix: (Units=1/GPa)
#
#
# Indices 1 2 3 4 5 6 
#
# 1 0.013623 -0.003500 -0.001520 0.000000 0.000000 0.000000
# 2 -0.003500 0.014365 -0.005938 0.000000 0.000000 0.000000
# 3 -0.001520 -0.005938 0.015346 0.000000 0.000000 0.000000
# 4 0.000000 0.000000 0.000000 0.023782 0.000000 0.000000
# 5 0.000000 0.000000 0.000000 0.000000 0.055645 0.000000
# 6 0.000000 0.000000 0.000000 0.000000 0.000000 0.033548
#
#
# Mechanical properties :
#
#
# Convention : Reuss Voigt Hill
#
# Bulk Modulus (GPa) = 46.69046 47.57991 47.13519
# Shear Modulus (GPa) = 26.97367 29.39642 28.18504
#
# Velocity S-wave (km/s) = 3.83495 4.00347 3.92011
# Velocity P-wave (km/s) = 6.71313 6.87839 6.79626
#
# Compressibility (1/GPa) = 0.02141765
#
# Stress axis : x y z
#
# Youngs Moduli (GPa) = 73.40536 69.61393 65.16174
#
# Poissons Ratio (x) = 0.24366 0.09903
# Poissons Ratio (y) = 0.25693 0.38695
# Poissons Ratio (z) = 0.11156 0.41339
#
# Static dielectric constant tensor:
#      x y z
#    x 3.595890 0.000000 0.000000 
#    y 0.000000 3.600070 0.000000 
#    z 0.000000 0.000000 3.103550 
# 
# 
# High freq. dielectric constant tensor:
#      x y z
#    x 1.712390 0.000000 0.000000 
#    y 0.000000 1.733870 0.000000 
#    z 0.000000 0.000000 1.670770 
# 
# From -- ./inp_files/12768.got.cif
#   From: 2010.06.25/outbox.cif.g09.slc.cpg/sg71_7_cif.got.tgz:12768.got - 2010.06.28 04:59:45.
