data_PCOD8289902
_publ_section_title
;
Structure prediction by ZEFSAII (Michael W. Deem and Ramdas Pophale) SiO2 
 PCOD8289902
Probable space group: I M M M
;
_chemical_formula_sum "Si O2"
_cell_formula_units_Z 104
_cell_length_a 27.555738
_cell_length_b 23.612591
_cell_length_c 8.124597
_cell_angle_alpha 90.000000
_cell_angle_beta 90.000000
_cell_angle_gamma 90.000000
_cell_volume 5286.369548
_symmetry_space_group_name_H-M "I M M M"
_symmetry_group_IT_number 71
_symmetry_cell_setting 'orthorhombic'
loop_
_space_group_symop_operation_xyz
x,y,z
-x,-y,z
x,-y,-z
-x,y,-z
-x,-y,-z
x,y,-z
-x,y,z
x,-y,z
1/2+x,1/2+y,1/2+z
1/2-x,1/2-y,1/2+z
1/2+x,1/2-y,1/2-z
1/2-x,1/2+y,1/2-z
1/2-x,1/2-y,1/2-z
1/2+x,1/2+y,1/2-z
1/2-x,1/2+y,1/2+z
1/2+x,1/2-y,1/2+z
loop_
_atom_site_type_symbol
_atom_site_label
_atom_site_fract_x
_atom_site_fract_y
_atom_site_fract_z
Si Si1 0.446409 0.932526 0.500000
Si Si2 0.204756 0.138251 0.312024
Si Si3 0.185740 0.355460 0.806060
Si Si4 0.858286 0.763794 0.807937
Si Si5 0.445694 0.338133 0.305628
Si Si6 0.877409 0.062936 0.808384
Si Si7 0.610369 0.933711 0.817226
O O1 0.500000 0.907344 0.500000
O O2 0.422407 0.909062 0.331796
O O3 0.446446 0.000000 0.500000
O O4 0.206773 0.119365 0.500000
O O5 0.259022 0.148214 0.243705
O O6 0.178132 0.197890 0.295360
O O7 0.176447 0.088350 0.217339
O O8 0.153644 0.300395 0.759725
O O9 0.163326 0.407048 0.703677
O O10 0.182944 0.367297 0.000000
O O11 0.913861 0.781840 0.763081
O O12 0.848356 0.775369 0.000000
O O13 0.450010 0.344610 0.500000
O O14 0.500000 0.333096 0.228528
O O15 0.417829 0.393835 0.233378
O O16 0.881811 0.000000 0.727676
O O17 0.886819 0.057305 0.000000
O O18 0.616432 0.000000 0.795608
O O19 0.588973 0.919693 0.000000
#
# Coordination Sequence:
#
# PCOD8289902 Si02
#       7
#     8  16  16  16  16  16  16
#     4   9  18  36  60  80 106 142 176 220 268 314
#     4  10  20  32  49  73 101 140 179 219 268 323
#     4  10  20  34  52  74 107 143 180 221 274 329
#     4   9  18  33  52  73 102 134 175 224 267 321
#     4   8  14  27  49  75 100 128 165 212 266 318
#     4   9  18  32  49  71 101 134 172 219 263 314
#     4  10  21  36  56  83 112 143 182 226 274 331
#
# _framework density 19.673237
#
# number of rings (size 3 to 8) (size 9 to 14) (size 15 to 20)
#    0.000    2.692    0.769    1.846    0.000    3.385 
#    0.000    6.923    0.000    7.385    0.000    4.308 
#    0.000    0.000    0.000    0.000    0.000    0.000 
#
# Total GULP energy -644427.365542 kJ/mol
# GULP energy per Si atom -12392.833953 kJ/mol
# Density = 1.962846 g / cm^3
# Si number density = 19.673237 Si / 1000 Ang^3
#
#
#
# Elastic Constant Matrix: (Units=GPa)
#
#
# Indices 1 2 3 4 5 6 
#
# 1 167.2535 59.7199 37.8930 0.0000 0.0000 0.0000
# 2 59.7199 47.4102 22.6180 0.0000 0.0000 0.0000
# 3 37.8930 22.6180 59.7877 0.0000 0.0000 0.0000
# 4 0.0000 0.0000 0.0000 19.3378 0.0000 0.0000
# 5 0.0000 0.0000 0.0000 0.0000 20.5353 0.0000
# 6 0.0000 0.0000 0.0000 0.0000 0.0000 21.1730
#
#
#
# Elastic Compliance Matrix: (Units=1/GPa)
#
#
# Indices 1 2 3 4 5 6 
#
# 1 0.011084 -0.012947 -0.002127 0.000000 0.000000 0.000000
# 2 -0.012947 0.040861 -0.007252 0.000000 0.000000 0.000000
# 3 -0.002127 -0.007252 0.020817 0.000000 0.000000 0.000000
# 4 0.000000 0.000000 0.000000 0.051712 0.000000 0.000000
# 5 0.000000 0.000000 0.000000 0.000000 0.048697 0.000000
# 6 0.000000 0.000000 0.000000 0.000000 0.000000 0.047230
#
#
# Mechanical properties :
#
#
# Convention : Reuss Voigt Hill
#
# Bulk Modulus (GPa) = 35.57465 57.21260 46.39362
# Shear Modulus (GPa) = 18.22010 22.49058 20.35534
#
# Velocity S-wave (km/s) = 3.04655 3.38480 3.22012
# Velocity P-wave (km/s) = 5.52244 6.66486 6.12037
#
# Compressibility (1/GPa) = 0.02810990
#
# Stress axis : x y z
#
# Youngs Moduli (GPa) = 90.22339 24.47344 48.03671
#
# Poissons Ratio (x) = 0.31685 0.10217
# Poissons Ratio (y) = 1.16810 0.34837
# Poissons Ratio (z) = 0.19190 0.17749
#
# Static dielectric constant tensor:
#      x y z
#    x 3.826520 0.000000 0.000000 
#    y 0.000000 3.581630 0.000000 
#    z 0.000000 0.000000 3.449520 
# 
# 
# High freq. dielectric constant tensor:
#      x y z
#    x 1.763420 0.000000 0.000000 
#    y 0.000000 1.754900 0.000000 
#    z 0.000000 0.000000 1.747260 
# 
# From -- ./inp_files/15564.got.cif
#   From: 2010.06.25/outbox.cif.g09.slc.cpg/sg71_8_cif.got.tgz:15564.got - 2010.06.28 04:59:45.
