data_PCOD8289887
_publ_section_title
;
Structure prediction by ZEFSAII (Michael W. Deem and Ramdas Pophale) SiO2 
 PCOD8289887
Probable space group: I M M M
;
_chemical_formula_sum "Si O2"
_cell_formula_units_Z 80
_cell_length_a 21.617134
_cell_length_b 13.924713
_cell_length_c 13.330249
_cell_angle_alpha 90.000000
_cell_angle_beta 90.000000
_cell_angle_gamma 90.000000
_cell_volume 4012.570069
_symmetry_space_group_name_H-M "I M M M"
_symmetry_group_IT_number 71
_symmetry_cell_setting 'orthorhombic'
loop_
_space_group_symop_operation_xyz
x,y,z
-x,-y,z
x,-y,-z
-x,y,-z
-x,-y,-z
x,y,-z
-x,y,z
x,-y,z
1/2+x,1/2+y,1/2+z
1/2-x,1/2-y,1/2+z
1/2+x,1/2-y,1/2-z
1/2-x,1/2+y,1/2-z
1/2-x,1/2-y,1/2-z
1/2+x,1/2+y,1/2-z
1/2-x,1/2+y,1/2+z
1/2+x,1/2-y,1/2+z
loop_
_atom_site_type_symbol
_atom_site_label
_atom_site_fract_x
_atom_site_fract_y
_atom_site_fract_z
Si Si1 0.246307 0.610902 0.796724
Si Si2 0.571715 0.896884 0.609609
Si Si3 0.930744 0.794239 0.202927
Si Si4 0.194178 0.794218 0.884575
Si Si5 0.880021 0.889813 0.613057
O O1 0.224138 0.500000 0.798679
O O2 0.196268 0.680605 0.851266
O O3 0.256742 0.645728 0.681932
O O4 0.309004 0.625087 0.858668
O O5 0.598304 0.860990 0.500000
O O6 0.500000 0.913441 0.594352
O O7 0.581347 0.819924 0.697656
O O8 0.602248 0.000000 0.639056
O O9 0.875005 0.838383 0.135213
O O10 0.924788 0.826685 0.317591
O O11 0.000000 0.821320 0.162829
O O12 0.212379 0.807868 0.000000
O O13 0.890339 0.854618 0.500000
O O14 0.899570 0.000000 0.626596
#
# Coordination Sequence:
#
# PCOD8289887 Si02
#       5
#    16  16  16  16  16
#     4   9  19  36  56  79 106 133 168 219 269 308
#     4   8  14  26  44  64  89 126 167 200 234 283
#     4  10  20  32  48  75 111 143 172 211 255 302
#     4  10  20  33  53  81 108 137 174 211 254 313
#     4   9  18  34  56  78 100 132 176 223 267 308
#
# _framework density 19.937348
#
# number of rings (size 3 to 8) (size 9 to 14) (size 15 to 20)
#    0.000    2.800    0.000    1.800    0.000    4.400 
#    0.000    1.000    0.000    2.400    0.000   14.000 
#    0.000    0.000    0.000    0.000    0.000    0.000 
#
# Total GULP energy -495533.599466 kJ/mol
# GULP energy per Si atom -12388.339987 kJ/mol
# Density = 1.989197 g / cm^3
# Si number density = 19.937348 Si / 1000 Ang^3
#
#
#
# Elastic Constant Matrix: (Units=GPa)
#
#
# Indices 1 2 3 4 5 6 
#
# 1 76.5440 10.1796 30.6380 0.0000 0.0000 0.0000
# 2 10.1796 82.7109 57.3207 0.0000 0.0000 0.0000
# 3 30.6380 57.3207 153.6755 0.0000 0.0000 0.0000
# 4 0.0000 0.0000 0.0000 30.9325 0.0000 0.0000
# 5 0.0000 0.0000 0.0000 0.0000 17.2628 0.0000
# 6 0.0000 0.0000 0.0000 0.0000 0.0000 20.6526
#
#
#
# Elastic Compliance Matrix: (Units=1/GPa)
#
#
# Indices 1 2 3 4 5 6 
#
# 1 0.014202 0.000289 -0.002939 0.000000 0.000000 0.000000
# 2 0.000289 0.016311 -0.006142 0.000000 0.000000 0.000000
# 3 -0.002939 -0.006142 0.009384 0.000000 0.000000 0.000000
# 4 0.000000 0.000000 0.000000 0.032328 0.000000 0.000000
# 5 0.000000 0.000000 0.000000 0.000000 0.057928 0.000000
# 6 0.000000 0.000000 0.000000 0.000000 0.000000 0.048420
#
#
# Mechanical properties :
#
#
# Convention : Reuss Voigt Hill
#
# Bulk Modulus (GPa) = 44.81540 56.57855 50.69697
# Shear Modulus (GPa) = 24.55845 28.08905 26.32375
#
# Velocity S-wave (km/s) = 3.51348 3.75756 3.63757
# Velocity P-wave (km/s) = 6.24390 6.87499 6.56703
#
# Compressibility (1/GPa) = 0.02231376
#
# Stress axis : x y z
#
# Youngs Moduli (GPa) = 70.41037 61.30829 106.56398
#
# Poissons Ratio (x) = -0.01772 0.31323
# Poissons Ratio (y) = -0.02035 0.65447
# Poissons Ratio (z) = 0.20696 0.37653
#
# Static dielectric constant tensor:
#      x y z
#    x 3.643660 0.000000 0.000000 
#    y 0.000000 3.741390 0.000000 
#    z 0.000000 0.000000 3.526660 
# 
# 
# High freq. dielectric constant tensor:
#      x y z
#    x 1.780060 0.000000 0.000000 
#    y 0.000000 1.764560 0.000000 
#    z 0.000000 0.000000 1.759320 
# 
# From -- ./inp_files/27090.got.cif
#   From: 2010.06.25/outbox.cif.g09.slc.cpg/sg71_14_cif.got.tgz:27090.got - 2010.06.28 04:59:45.
