data_PCOD8289846
_publ_section_title
;
Structure prediction by ZEFSAII (Michael W. Deem and Ramdas Pophale) SiO2 
 PCOD8289846
Probable space group: I M M M
;
_chemical_formula_sum "Si O2"
_cell_formula_units_Z 80
_cell_length_a 17.820923
_cell_length_b 11.581511
_cell_length_c 22.879941
_cell_angle_alpha 90.000000
_cell_angle_beta 90.000000
_cell_angle_gamma 90.000000
_cell_volume 4722.264599
_symmetry_space_group_name_H-M "I M M M"
_symmetry_group_IT_number 71
_symmetry_cell_setting 'orthorhombic'
loop_
_space_group_symop_operation_xyz
x,y,z
-x,-y,z
x,-y,-z
-x,y,-z
-x,-y,-z
x,y,-z
-x,y,z
x,-y,z
1/2+x,1/2+y,1/2+z
1/2-x,1/2-y,1/2+z
1/2+x,1/2-y,1/2-z
1/2-x,1/2+y,1/2-z
1/2-x,1/2-y,1/2-z
1/2+x,1/2+y,1/2-z
1/2-x,1/2+y,1/2+z
1/2+x,1/2-y,1/2+z
loop_
_atom_site_type_symbol
_atom_site_label
_atom_site_fract_x
_atom_site_fract_y
_atom_site_fract_z
Si Si1 0.000000 0.623390 0.066847
Si Si2 0.217878 0.634721 0.567785
Si Si3 0.865397 0.767200 0.886294
Si Si4 0.585365 0.500000 0.565590
Si Si5 0.917967 0.636505 0.351851
Si Si6 0.412264 0.866734 0.279845
O O1 0.922148 0.686719 0.078807
O O2 0.000000 0.500000 0.100922
O O3 0.000000 0.597261 0.000000
O O4 0.199193 0.648073 0.500000
O O5 0.239633 0.500000 0.582440
O O6 0.282349 0.725537 0.586042
O O7 0.144490 0.677238 0.602561
O O8 0.862627 0.718955 0.820081
O O9 0.896896 0.895088 0.891941
O O10 0.500000 0.500000 0.548249
O O11 0.627127 0.500000 0.500000
O O12 0.923733 0.500000 0.351624
O O13 0.897611 0.676115 0.286132
O O14 0.000000 0.687088 0.369705
O O15 0.500000 0.852658 0.297276
O O16 0.386981 0.000000 0.287840
#
# Coordination Sequence:
#
# PCOD8289846 Si02
#       6
#     8  16  16   8  16  16
#     4  11  22  33  47  69  97 134 178 214 241 280
#     4  10  20  32  47  72 105 136 168 207 253 304
#     4  12  20  30  48  69 102 138 169 203 246 294
#     4  11  20  30  44  64  95 141 182 202 235 294
#     4   8  16  32  53  74  97 129 168 211 258 304
#     4   9  17  32  52  73  99 131 171 211 249 292
#
# _framework density 16.941025
#
# number of rings (size 3 to 8) (size 9 to 14) (size 15 to 20)
#    0.000    2.000    3.000    3.600    0.000    1.200 
#    0.000    2.000    0.000    0.000    0.000    0.000 
#    0.000    0.000    0.000    9.800    0.000    0.800 
#
# Total GULP energy -495590.030872 kJ/mol
# GULP energy per Si atom -12389.750772 kJ/mol
# Density = 1.690247 g / cm^3
# Si number density = 16.941025 Si / 1000 Ang^3
#
#
#
# Elastic Constant Matrix: (Units=GPa)
#
#
# Indices 1 2 3 4 5 6 
#
# 1 111.6359 43.8740 70.1762 0.0000 0.0000 0.0000
# 2 43.8740 82.3064 43.4156 0.0000 0.0000 0.0000
# 3 70.1762 43.4156 115.9925 0.0000 0.0000 0.0000
# 4 0.0000 0.0000 0.0000 18.7905 0.0000 0.0000
# 5 0.0000 0.0000 0.0000 0.0000 25.9652 0.0000
# 6 0.0000 0.0000 0.0000 0.0000 0.0000 140.7882
#
#
#
# Elastic Compliance Matrix: (Units=1/GPa)
#
#
# Indices 1 2 3 4 5 6 
#
# 1 0.015507 -0.004133 -0.007835 0.000000 0.000000 0.000000
# 2 -0.004133 0.016240 -0.003578 0.000000 0.000000 0.000000
# 3 -0.007835 -0.003578 0.014701 0.000000 0.000000 0.000000
# 4 0.000000 0.000000 0.000000 0.053218 0.000000 0.000000
# 5 0.000000 0.000000 0.000000 0.000000 0.038513 0.000000
# 6 0.000000 0.000000 0.000000 0.000000 0.000000 0.007103
#
#
# Mechanical properties :
#
#
# Convention : Reuss Voigt Hill
#
# Bulk Modulus (GPa) = 65.12226 69.42960 67.27593
# Shear Modulus (GPa) = 27.54914 47.27340 37.41127
#
# Velocity S-wave (km/s) = 4.03697 5.28822 4.70438
# Velocity P-wave (km/s) = 7.76231 8.85207 8.32504
#
# Compressibility (1/GPa) = 0.01535573
#
# Stress axis : x y z
#
# Youngs Moduli (GPa) = 64.48560 61.57475 68.02433
#
# Poissons Ratio (x) = 0.25452 0.53296
# Poissons Ratio (y) = 0.26655 0.24339
# Poissons Ratio (z) = 0.50524 0.22031
#
# Static dielectric constant tensor:
#      x y z
#    x 3.633470 0.000000 0.000000 
#    y 0.000000 2.916060 0.000000 
#    z 0.000000 0.000000 3.345320 
# 
# 
# High freq. dielectric constant tensor:
#      x y z
#    x 1.646940 0.000000 0.000000 
#    y 0.000000 1.616980 0.000000 
#    z 0.000000 0.000000 1.660600 
# 
# From -- ./inp_files/60495.got.cif
#   From: 2010.06.25/outbox.cif.g09.slc.cpg/sg71_31_cif.got.tgz:60495.got - 2010.06.28 04:59:45.
