data_PCOD8289459
_publ_section_title
;
Structure prediction by ZEFSAII (Michael W. Deem and Ramdas Pophale) SiO2 
 PCOD8289459
Probable space group: I M M M
;
_chemical_formula_sum "Si O2"
_cell_formula_units_Z 72
_cell_length_a 9.065480
_cell_length_b 18.953856
_cell_length_c 21.982415
_cell_angle_alpha 90.000000
_cell_angle_beta 90.000000
_cell_angle_gamma 90.000000
_cell_volume 3777.146098
_symmetry_space_group_name_H-M "I M M M"
_symmetry_group_IT_number 71
_symmetry_cell_setting 'orthorhombic'
loop_
_space_group_symop_operation_xyz
x,y,z
-x,-y,z
x,-y,-z
-x,y,-z
-x,-y,-z
x,y,-z
-x,y,z
x,-y,z
1/2+x,1/2+y,1/2+z
1/2-x,1/2-y,1/2+z
1/2+x,1/2-y,1/2-z
1/2-x,1/2+y,1/2-z
1/2-x,1/2-y,1/2-z
1/2+x,1/2+y,1/2-z
1/2-x,1/2+y,1/2+z
1/2+x,1/2-y,1/2+z
loop_
_atom_site_type_symbol
_atom_site_label
_atom_site_fract_x
_atom_site_fract_y
_atom_site_fract_z
Si Si1 0.829259 0.418827 0.148836
Si Si2 0.324566 0.920480 0.000000
Si Si3 0.673643 0.419202 0.726713
Si Si4 0.171888 0.658443 0.381120
Si Si5 0.331092 0.310459 0.069978
O O1 0.800759 0.500000 0.131791
O O2 0.740058 0.396790 0.208721
O O3 0.773780 0.372996 0.092221
O O4 0.000000 0.403639 0.161151
O O5 0.264401 0.882098 0.939952
O O6 0.500000 0.916520 0.000000
O O7 0.264960 0.000000 0.000000
O O8 0.500000 0.408881 0.730096
O O9 0.716804 0.500000 0.710926
O O10 0.738400 0.366889 0.676932
O O11 0.199036 0.741301 0.389782
O O12 0.000000 0.641047 0.371438
O O13 0.500000 0.334813 0.076954
O O14 0.294642 0.292960 0.000000
#
# Coordination Sequence:
#
# PCOD8289459 Si02
#       5
#    16   8  16  16  16
#     4  10  22  40  61  84 109 142 188 237 284 338
#     4   9  16  28  51  81 110 145 188 228 265 311
#     4  10  21  37  57  83 115 149 187 233 284 335
#     4  10  19  34  56  83 114 150 190 229 272 328
#     4  10  21  38  59  84 116 150 186 230 279 334
#
# _framework density 19.062010999999998
#
# number of rings (size 3 to 8) (size 9 to 14) (size 15 to 20)
#    0.000    2.111    1.111    2.000    0.000    6.222 
#    0.000    2.778    0.000    2.000    0.000    0.000 
#    0.000    0.000    0.000    0.000    0.000    0.000 
#
# Total GULP energy -446559.247184 kJ/mol
# GULP energy per Si atom -12404.423533 kJ/mol
# Density = 1.901863 g / cm^3
# Si number density = 19.062011 Si / 1000 Ang^3
#
#
#
# Elastic Constant Matrix: (Units=GPa)
#
#
# Indices 1 2 3 4 5 6 
#
# 1 79.6686 47.1919 45.7341 0.0000 0.0000 0.0000
# 2 47.1919 87.8072 46.3046 0.0000 0.0000 0.0000
# 3 45.7341 46.3046 84.2915 0.0000 0.0000 0.0000
# 4 0.0000 0.0000 0.0000 37.9632 0.0000 0.0000
# 5 0.0000 0.0000 0.0000 0.0000 33.7699 0.0000
# 6 0.0000 0.0000 0.0000 0.0000 0.0000 29.7404
#
#
#
# Elastic Compliance Matrix: (Units=1/GPa)
#
#
# Indices 1 2 3 4 5 6 
#
# 1 0.021256 -0.007521 -0.007401 0.000000 0.000000 0.000000
# 2 -0.007521 0.018694 -0.006189 0.000000 0.000000 0.000000
# 3 -0.007401 -0.006189 0.019279 0.000000 0.000000 0.000000
# 4 0.000000 0.000000 0.000000 0.026341 0.000000 0.000000
# 5 0.000000 0.000000 0.000000 0.000000 0.029612 0.000000
# 6 0.000000 0.000000 0.000000 0.000000 0.000000 0.033624
#
#
# Mechanical properties :
#
#
# Convention : Reuss Voigt Hill
#
# Bulk Modulus (GPa) = 58.79891 58.91429 58.85660
# Shear Modulus (GPa) = 25.41968 27.79716 26.60842
#
# Velocity S-wave (km/s) = 3.65571 3.82285 3.74021
# Velocity P-wave (km/s) = 6.98083 7.10347 7.04242
#
# Compressibility (1/GPa) = 0.01700712
#
# Stress axis : x y z
#
# Youngs Moduli (GPa) = 47.04620 53.49202 51.86964
#
# Poissons Ratio (x) = 0.40231 0.38390
# Poissons Ratio (y) = 0.35383 0.32102
# Poissons Ratio (z) = 0.34820 0.33106
#
# Static dielectric constant tensor:
#      x y z
#    x 3.322380 0.000000 0.000000 
#    y 0.000000 3.475650 0.000000 
#    z 0.000000 0.000000 3.465160 
# 
# 
# High freq. dielectric constant tensor:
#      x y z
#    x 1.728130 0.000000 0.000000 
#    y 0.000000 1.744100 0.000000 
#    z 0.000000 0.000000 1.745430 
# 
# From -- ./inp_files/7982.got.cif
#   From: 2010.06.25/outbox.cif.g09.slc.cpg/sg71_4_cif.got.tgz:7982.got - 2010.06.28 04:59:45.
