data_PCOD8289787
_publ_section_title
;
Structure prediction by ZEFSAII (Michael W. Deem and Ramdas Pophale) SiO2 
 PCOD8289787
Probable space group: I M M M
;
_chemical_formula_sum "Si O2"
_cell_formula_units_Z 104
_cell_length_a 30.470328
_cell_length_b 9.253217
_cell_length_c 22.286941
_cell_angle_alpha 90.000000
_cell_angle_beta 90.000000
_cell_angle_gamma 90.000000
_cell_volume 6283.770856
_symmetry_space_group_name_H-M "I M M M"
_symmetry_group_IT_number 71
_symmetry_cell_setting 'orthorhombic'
loop_
_space_group_symop_operation_xyz
x,y,z
-x,-y,z
x,-y,-z
-x,y,-z
-x,-y,-z
x,y,-z
-x,y,z
x,-y,z
1/2+x,1/2+y,1/2+z
1/2-x,1/2-y,1/2+z
1/2+x,1/2-y,1/2-z
1/2-x,1/2+y,1/2-z
1/2-x,1/2-y,1/2-z
1/2+x,1/2+y,1/2-z
1/2-x,1/2+y,1/2+z
1/2+x,1/2-y,1/2+z
loop_
_atom_site_type_symbol
_atom_site_label
_atom_site_fract_x
_atom_site_fract_y
_atom_site_fract_z
Si Si1 0.107176 0.162959 0.704920
Si Si2 0.796986 0.163839 0.296723
Si Si3 0.451169 0.328264 0.567435
Si Si4 0.295214 0.165321 0.323007
Si Si5 0.877086 0.831635 0.843984
Si Si6 0.051621 0.334021 0.384274
Si Si7 0.552215 0.663202 0.000000
O O1 0.155019 0.179028 0.672823
O O2 0.110787 0.201182 0.775241
O O3 0.073564 0.274271 0.675910
O O4 0.089123 0.000000 0.696786
O O5 0.756193 0.185271 0.343672
O O6 0.794680 0.285035 0.245874
O O7 0.793900 0.000000 0.268997
O O8 0.439035 0.277829 0.500000
O O9 0.500000 0.271199 0.584581
O O10 0.451339 0.500000 0.571032
O O11 0.415309 0.265467 0.613832
O O12 0.330423 0.257554 0.361006
O O13 0.310216 0.000000 0.327317
O O14 0.871108 0.000000 0.856261
O O15 0.064573 0.500000 0.393700
O O16 0.069748 0.245000 0.441153
O O17 0.000000 0.314543 0.376688
O O18 0.570459 0.500000 0.000000
O O19 0.500000 0.665379 0.000000
#
# Coordination Sequence:
#
# PCOD8289787 Si02
#       7
#    16  16  16  16  16  16   8
#     4   9  17  28  42  63  91 119 148 183 222 269
#     4   8  15  27  41  60  87 116 146 182 218 258
#     4   8  14  26  45  67  88 114 154 200 239 274
#     4   9  15  24  41  63  87 115 144 177 218 267
#     4   9  17  28  43  66  93 117 147 189 232 274
#     4  10  20  32  45  64  91 119 147 182 222 261
#     4   9  17  31  51  69  83 107 147 185 213 249
#
# _framework density 16.550571999999999
#
# number of rings (size 3 to 8) (size 9 to 14) (size 15 to 20)
#    0.000    3.154    0.000    2.538    0.000    5.538 
#    0.000    1.538    0.000    0.923    2.000    1.077 
#    0.000    0.000    0.000    0.000    0.000    0.000 
#
# Total GULP energy -644262.282325 kJ/mol
# GULP energy per Si atom -12389.659275 kJ/mol
# Density = 1.651290 g / cm^3
# Si number density = 16.550572 Si / 1000 Ang^3
#
#
#
# Elastic Constant Matrix: (Units=GPa)
#
#
# Indices 1 2 3 4 5 6 
#
# 1 103.6986 42.6065 53.1095 0.0000 0.0000 0.0000
# 2 42.6065 74.5350 32.3209 0.0000 0.0000 0.0000
# 3 53.1095 32.3209 61.0605 0.0000 0.0000 0.0000
# 4 0.0000 0.0000 0.0000 14.2019 0.0000 0.0000
# 5 0.0000 0.0000 0.0000 0.0000 12.2918 0.0000
# 6 0.0000 0.0000 0.0000 0.0000 0.0000 26.9414
#
#
#
# Elastic Compliance Matrix: (Units=1/GPa)
#
#
# Indices 1 2 3 4 5 6 
#
# 1 0.018571 -0.004687 -0.013672 0.000000 0.000000 0.000000
# 2 -0.004687 0.018597 -0.005767 0.000000 0.000000 0.000000
# 3 -0.013672 -0.005767 0.031321 0.000000 0.000000 0.000000
# 4 0.000000 0.000000 0.000000 0.070413 0.000000 0.000000
# 5 0.000000 0.000000 0.000000 0.000000 0.081355 0.000000
# 6 0.000000 0.000000 0.000000 0.000000 0.000000 0.037118
#
#
# Mechanical properties :
#
#
# Convention : Reuss Voigt Hill
#
# Bulk Modulus (GPa) = 49.41368 55.04087 52.22728
# Shear Modulus (GPa) = 16.00652 18.10417 17.05534
#
# Velocity S-wave (km/s) = 3.11324 3.31096 3.21362
# Velocity P-wave (km/s) = 6.54553 6.92423 6.73754
#
# Compressibility (1/GPa) = 0.02023731
#
# Stress axis : x y z
#
# Youngs Moduli (GPa) = 53.84653 53.77342 31.92719
#
# Poissons Ratio (x) = 0.25205 0.43651
# Poissons Ratio (y) = 0.25240 0.18411
# Poissons Ratio (z) = 0.73619 0.31009
#
# Static dielectric constant tensor:
#      x y z
#    x 3.494380 0.000000 0.000000 
#    y 0.000000 3.044330 0.000000 
#    z 0.000000 0.000000 2.827260 
# 
# 
# High freq. dielectric constant tensor:
#      x y z
#    x 1.644080 0.000000 0.000000 
#    y 0.000000 1.629150 0.000000 
#    z 0.000000 0.000000 1.588180 
# 
# From -- ./inp_files/62327.got.cif
#   From: 2010.06.25/outbox.cif.g09.slc.cpg/sg71_32_cif.got.tgz:62327.got - 2010.06.28 04:59:45.
