data_PCOD8289279
_publ_section_title
;
Structure prediction by ZEFSAII (Michael W. Deem and Ramdas Pophale) SiO2 
 PCOD8289279
Probable space group: I M M M
;
_chemical_formula_sum "Si O2"
_cell_formula_units_Z 88
_cell_length_a 9.092504
_cell_length_b 19.124000
_cell_length_c 27.188417
_cell_angle_alpha 90.000000
_cell_angle_beta 90.000000
_cell_angle_gamma 90.000000
_cell_volume 4727.659154
_symmetry_space_group_name_H-M "I M M M"
_symmetry_group_IT_number 71
_symmetry_cell_setting 'orthorhombic'
loop_
_space_group_symop_operation_xyz
x,y,z
-x,-y,z
x,-y,-z
-x,y,-z
-x,-y,-z
x,y,-z
-x,y,z
x,-y,z
1/2+x,1/2+y,1/2+z
1/2-x,1/2-y,1/2+z
1/2+x,1/2-y,1/2-z
1/2-x,1/2+y,1/2-z
1/2-x,1/2-y,1/2-z
1/2+x,1/2+y,1/2-z
1/2-x,1/2+y,1/2+z
1/2+x,1/2-y,1/2+z
loop_
_atom_site_type_symbol
_atom_site_label
_atom_site_fract_x
_atom_site_fract_y
_atom_site_fract_z
Si Si1 0.325378 0.078993 0.000000
Si Si2 0.172381 0.305505 0.115773
Si Si3 0.674261 0.922196 0.191257
Si Si4 0.327639 0.183840 0.727677
Si Si5 0.825070 0.661647 0.596263
Si Si6 0.333967 0.420396 0.057708
O O1 0.269714 0.119576 0.048387
O O2 0.500000 0.075555 0.000000
O O3 0.261357 0.000000 0.000000
O O4 0.219756 0.324035 0.171308
O O5 0.256412 0.238297 0.095269
O O6 0.215256 0.372124 0.083828
O O7 0.000000 0.291377 0.111450
O O8 0.500000 0.927215 0.187463
O O9 0.722992 0.884486 0.241765
O O10 0.733514 0.879232 0.144318
O O11 0.743076 0.000000 0.190982
O O12 0.500000 0.195597 0.733566
O O13 0.250000 0.250000 0.750000
O O14 0.000000 0.669493 0.596570
O O15 0.500000 0.399480 0.073186
O O16 0.301610 0.500000 0.073243
O O17 0.314335 0.410941 0.000000
#
# Coordination Sequence:
#
# PCOD8289279 Si02
#       6
#     8  16  16  16  16  16
#     4   9  18  32  53  83 110 133 178 237 279 316
#     4  11  23  35  53  83 117 150 180 222 277 333
#     4   9  17  31  54  80 103 136 183 228 270 316
#     4  10  20  35  54  77 108 145 183 225 269 319
#     4  10  19  33  55  80 108 145 182 226 274 321
#     4   9  20  40  63  84 108 142 185 230 274 325
#
# _framework density 18.613862999999998
#
# number of rings (size 3 to 8) (size 9 to 14) (size 15 to 20)
#    0.000    2.273    1.818    1.636    1.273    4.364 
#    0.000    2.727    0.000    4.364    0.000    0.000 
#    0.000    0.000    0.000    0.000    0.000    0.000 
#
# Total GULP energy -545632.852110 kJ/mol
# GULP energy per Si atom -12400.746639 kJ/mol
# Density = 1.857150 g / cm^3
# Si number density = 18.613863 Si / 1000 Ang^3
#
#
#
# Elastic Constant Matrix: (Units=GPa)
#
#
# Indices 1 2 3 4 5 6 
#
# 1 29.4675 31.2138 27.4156 0.0000 0.0000 0.0000
# 2 31.2138 142.6983 72.4420 0.0000 0.0000 0.0000
# 3 27.4156 72.4420 115.4705 0.0000 0.0000 0.0000
# 4 0.0000 0.0000 0.0000 38.7474 0.0000 0.0000
# 5 0.0000 0.0000 0.0000 0.0000 20.3351 0.0000
# 6 0.0000 0.0000 0.0000 0.0000 0.0000 22.5989
#
#
#
# Elastic Compliance Matrix: (Units=1/GPa)
#
#
# Indices 1 2 3 4 5 6 
#
# 1 0.047758 -0.006882 -0.007021 0.000000 0.000000 0.000000
# 2 -0.006882 0.011274 -0.005439 0.000000 0.000000 0.000000
# 3 -0.007021 -0.005439 0.013740 0.000000 0.000000 0.000000
# 4 0.000000 0.000000 0.000000 0.025808 0.000000 0.000000
# 5 0.000000 0.000000 0.000000 0.000000 0.049176 0.000000
# 6 0.000000 0.000000 0.000000 0.000000 0.000000 0.044250
#
#
# Mechanical properties :
#
#
# Convention : Reuss Voigt Hill
#
# Bulk Modulus (GPa) = 29.33688 61.08655 45.21172
# Shear Modulus (GPa) = 20.65655 26.77394 23.71524
#
# Velocity S-wave (km/s) = 3.33489 3.79672 3.57327
# Velocity P-wave (km/s) = 5.53386 7.21867 6.43167
#
# Compressibility (1/GPa) = 0.03408679
#
# Stress axis : x y z
#
# Youngs Moduli (GPa) = 20.93885 88.69627 72.78219
#
# Poissons Ratio (x) = 0.61042 0.51103
# Poissons Ratio (y) = 0.14410 0.39588
# Poissons Ratio (z) = 0.14702 0.48244
#
# Static dielectric constant tensor:
#      x y z
#    x 2.977330 0.000000 0.000000 
#    y 0.000000 2.341560 0.000000 
#    z 0.000000 0.000000 3.409010 
# 
# 
# High freq. dielectric constant tensor:
#      x y z
#    x 1.686340 0.000000 0.000000 
#    y 0.000000 1.734100 0.000000 
#    z 0.000000 0.000000 1.733710 
# 
# From -- ./inp_files/12565.got.cif
#   From: 2010.06.25/outbox.cif.g09.slc.cpg/sg71_7_cif.got.tgz:12565.got - 2010.06.28 04:59:45.
