data_PCOD8289175
_publ_section_title
;
Structure prediction by ZEFSAII (Michael W. Deem and Ramdas Pophale) SiO2 
 PCOD8289175
Probable space group: I M M M
;
_chemical_formula_sum "Si O2"
_cell_formula_units_Z 96
_cell_length_a 24.564635
_cell_length_b 9.068833
_cell_length_c 22.747562
_cell_angle_alpha 90.000000
_cell_angle_beta 90.000000
_cell_angle_gamma 90.000000
_cell_volume 5067.532905
_symmetry_space_group_name_H-M "I M M M"
_symmetry_group_IT_number 71
_symmetry_cell_setting 'orthorhombic'
loop_
_space_group_symop_operation_xyz
x,y,z
-x,-y,z
x,-y,-z
-x,y,-z
-x,-y,-z
x,y,-z
-x,y,z
x,-y,z
1/2+x,1/2+y,1/2+z
1/2-x,1/2-y,1/2+z
1/2+x,1/2-y,1/2-z
1/2-x,1/2+y,1/2-z
1/2-x,1/2-y,1/2-z
1/2+x,1/2+y,1/2-z
1/2-x,1/2+y,1/2+z
1/2+x,1/2-y,1/2+z
loop_
_atom_site_type_symbol
_atom_site_label
_atom_site_fract_x
_atom_site_fract_y
_atom_site_fract_z
Si Si1 0.500000 0.823982 0.217998
Si Si2 0.802315 0.831032 0.887793
Si Si3 0.387020 0.174480 0.170363
Si Si4 0.804363 0.673643 0.229907
Si Si5 0.082805 0.168291 0.934540
Si Si6 0.686047 0.824399 0.934643
Si Si7 0.000000 0.674951 0.852990
O O1 0.552341 0.763326 0.182007
O O2 0.500000 0.767179 0.285530
O O3 0.500000 0.000000 0.219408
O O4 0.820485 0.729909 0.833881
O O5 0.851723 0.816565 0.933451
O O6 0.746307 0.770600 0.915896
O O7 0.794065 0.000000 0.866897
O O8 0.351523 0.222883 0.225902
O O9 0.359579 0.238311 0.110551
O O10 0.389030 0.000000 0.164989
O O11 0.795953 0.500000 0.229765
O O12 0.750000 0.750000 0.250000
O O13 0.053924 0.269060 0.886054
O O14 0.065673 0.000000 0.921815
O O15 0.063904 0.215127 0.000000
O O16 0.685490 0.000000 0.934746
O O17 0.672936 0.763741 0.000000
O O18 0.000000 0.500000 0.854252
#
# Coordination Sequence:
#
# PCOD8289175 Si02
#       7
#     8  16  16  16  16  16   8
#     4   9  18  32  49  71 103 136 167 212 269 318
#     4  10  19  33  52  78 107 136 172 214 263 318
#     4   9  17  30  48  72 101 133 170 209 255 309
#     4  11  20  32  51  77 107 139 175 217 264 313
#     4  10  21  36  54  76 105 142 180 220 266 318
#     4   9  16  28  48  73 101 133 168 206 253 312
#     4  11  22  36  53  73 100 141 184 225 272 317
#
# _framework density 18.944130000000001
#
# number of rings (size 3 to 8) (size 9 to 14) (size 15 to 20)
#    0.000    2.167    1.667    2.500    0.000    5.333 
#    0.000    0.417    0.000    4.000    0.000    0.000 
#    0.000    0.000    0.000    1.500    0.000    1.667 
#
# Total GULP energy -595049.238790 kJ/mol
# GULP energy per Si atom -12396.859141 kJ/mol
# Density = 1.890101 g / cm^3
# Si number density = 18.944130 Si / 1000 Ang^3
#
#
#
# Elastic Constant Matrix: (Units=GPa)
#
#
# Indices 1 2 3 4 5 6 
#
# 1 159.3874 23.2391 75.7203 0.0000 0.0000 0.0000
# 2 23.2391 33.7432 26.6887 0.0000 0.0000 0.0000
# 3 75.7203 26.6887 157.4982 0.0000 0.0000 0.0000
# 4 0.0000 0.0000 0.0000 22.5930 0.0000 0.0000
# 5 0.0000 0.0000 0.0000 0.0000 27.5754 0.0000
# 6 0.0000 0.0000 0.0000 0.0000 0.0000 19.3073
#
#
#
# Elastic Compliance Matrix: (Units=1/GPa)
#
#
# Indices 1 2 3 4 5 6 
#
# 1 0.008384 -0.002986 -0.003525 0.000000 0.000000 0.000000
# 2 -0.002986 0.035286 -0.004544 0.000000 0.000000 0.000000
# 3 -0.003525 -0.004544 0.008814 0.000000 0.000000 0.000000
# 4 0.000000 0.000000 0.000000 0.044261 0.000000 0.000000
# 5 0.000000 0.000000 0.000000 0.000000 0.036264 0.000000
# 6 0.000000 0.000000 0.000000 0.000000 0.000000 0.051794
#
#
# Mechanical properties :
#
#
# Convention : Reuss Voigt Hill
#
# Bulk Modulus (GPa) = 32.92234 66.88054 49.90144
# Shear Modulus (GPa) = 23.03753 28.89387 25.96570
#
# Velocity S-wave (km/s) = 3.49101 3.90964 3.70624
# Velocity P-wave (km/s) = 5.80224 7.46733 6.68682
#
# Compressibility (1/GPa) = 0.03037452
#
# Stress axis : x y z
#
# Youngs Moduli (GPa) = 119.27629 28.33985 113.45867
#
# Poissons Ratio (x) = 0.08463 0.39991
# Poissons Ratio (y) = 0.35619 0.51552
# Poissons Ratio (z) = 0.42041 0.12877
#
# Static dielectric constant tensor:
#      x y z
#    x 3.661500 0.000000 0.000000 
#    y 0.000000 3.339460 0.000000 
#    z 0.000000 0.000000 3.879370 
# 
# 
# High freq. dielectric constant tensor:
#      x y z
#    x 1.745590 0.000000 0.000000 
#    y 0.000000 1.684920 0.000000 
#    z 0.000000 0.000000 1.742140 
# 
# From -- ./inp_files/57763.got.cif
#   From: 2010.06.25/outbox.cif.g09.slc.cpg/sg71_29_cif.got.tgz:57763.got - 2010.06.28 04:59:45.
