data_PCOD8289953
_publ_section_title
;
Structure prediction by ZEFSAII (Michael W. Deem and Ramdas Pophale) SiO2 
 PCOD8289953
Probable space group: I M M M
;
_chemical_formula_sum "Si O2"
_cell_formula_units_Z 72
_cell_length_a 13.766148
_cell_length_b 25.623270
_cell_length_c 10.296959
_cell_angle_alpha 90.000000
_cell_angle_beta 90.000000
_cell_angle_gamma 90.000000
_cell_volume 3632.084725
_symmetry_space_group_name_H-M "I M M M"
_symmetry_group_IT_number 71
_symmetry_cell_setting 'orthorhombic'
loop_
_space_group_symop_operation_xyz
x,y,z
-x,-y,z
x,-y,-z
-x,y,-z
-x,-y,-z
x,y,-z
-x,y,z
x,-y,z
1/2+x,1/2+y,1/2+z
1/2-x,1/2-y,1/2+z
1/2+x,1/2-y,1/2-z
1/2-x,1/2+y,1/2-z
1/2-x,1/2-y,1/2-z
1/2+x,1/2+y,1/2-z
1/2-x,1/2+y,1/2+z
1/2+x,1/2-y,1/2+z
loop_
_atom_site_type_symbol
_atom_site_label
_atom_site_fract_x
_atom_site_fract_y
_atom_site_fract_z
Si Si1 0.392599 0.659580 0.239207
Si Si2 0.859533 0.208754 0.000000
Si Si3 0.115165 0.673606 0.000000
Si Si4 0.191450 0.391254 0.240600
Si Si5 0.107045 0.224016 0.500000
Si Si6 0.114007 0.500000 0.153767
Si Si7 0.845073 0.340454 0.500000
O O1 0.500000 0.635437 0.204051
O O2 0.414442 0.692991 0.368946
O O3 0.309051 0.615382 0.253424
O O4 0.347518 0.699480 0.131272
O O5 0.833138 0.269969 0.000000
O O6 0.765187 0.174685 0.000000
O O7 0.146580 0.642437 0.874103
O O8 0.000000 0.682594 0.000000
O O9 0.168430 0.451227 0.216461
O O10 0.134455 0.374215 0.371337
O O11 0.097088 0.286341 0.500000
O O12 0.000000 0.201006 0.500000
O O13 0.000000 0.500000 0.188711
O O14 0.128899 0.500000 0.000000
#
# Coordination Sequence:
#
# PCOD8289953 Si02
#       7
#    16   8   8  16   8   8   8
#     4  10  20  36  57  85 120 157 189 227 280 338
#     4  10  20  34  56  85 121 158 194 229 270 335
#     4  12  22  35  58  87 115 156 203 235 272 335
#     4  11  23  39  61  84 114 150 194 243 287 336
#     4  10  20  32  50  81 124 159 187 230 284 336
#     4  11  24  45  66  84 107 142 191 245 293 333
#     4  10  22  37  55  87 120 153 189 232 288 340
#
# _framework density 19.823325000000001
#
# number of rings (size 3 to 8) (size 9 to 14) (size 15 to 20)
#    0.000    1.444    1.111    5.000    0.000    7.556 
#    0.000    1.111    0.000    0.667    0.000    4.667 
#    0.000    0.000    0.000    0.000    0.000    0.000 
#
# Total GULP energy -446089.540663 kJ/mol
# GULP energy per Si atom -12391.376130 kJ/mol
# Density = 1.977821 g / cm^3
# Si number density = 19.823325 Si / 1000 Ang^3
#
#
#
# Elastic Constant Matrix: (Units=GPa)
#
#
# Indices 1 2 3 4 5 6 
#
# 1 65.8043 41.4504 34.2875 -0.0001 0.0009 0.0000
# 2 41.4504 153.3210 64.7815 -0.0001 0.0013 0.0000
# 3 34.2875 64.7815 165.4765 -0.0020 0.0046 0.0003
# 4 -0.0001 -0.0001 -0.0020 27.8105 0.0007 0.0000
# 5 0.0009 0.0013 0.0046 0.0007 34.0717 -0.0004
# 6 0.0000 0.0000 0.0003 0.0000 -0.0004 25.2773
#
#
#
# Elastic Compliance Matrix: (Units=1/GPa)
#
#
# Indices 1 2 3 4 5 6 
#
# 1 0.019026 -0.004167 -0.002311 0.000000 0.000000 0.000000
# 2 -0.004167 0.008728 -0.002553 0.000000 0.000000 0.000000
# 3 -0.002311 -0.002553 0.007522 0.000001 -0.000001 0.000000
# 4 0.000000 0.000000 0.000001 0.035958 -0.000001 0.000000
# 5 0.000000 0.000000 -0.000001 -0.000001 0.029350 0.000001
# 6 0.000000 0.000000 0.000000 0.000000 0.000001 0.039561
#
#
# Mechanical properties :
#
#
# Convention : Reuss Voigt Hill
#
# Bulk Modulus (GPa) = 58.09827 73.96007 66.02917
# Shear Modulus (GPa) = 30.49831 33.70405 32.10118
#
# Velocity S-wave (km/s) = 3.92663 4.12785 4.02850
# Velocity P-wave (km/s) = 7.06609 7.75303 7.41752
#
# Compressibility (1/GPa) = 0.01721222
#
# Stress axis : x y z
#
# Youngs Moduli (GPa) = 52.56082 114.57781 132.95161
#
# Poissons Ratio (x) = 0.47747 0.30722
# Poissons Ratio (y) = 0.21903 0.33946
# Poissons Ratio (z) = 0.12146 0.29255
#
# Static dielectric constant tensor:
#      x y z
#    x 3.644010 0.000000 -0.000010 
#    y 0.000000 3.338680 0.000000 
#    z -0.000010 0.000000 4.574350 
# 
# 
# High freq. dielectric constant tensor:
#      x y z
#    x 1.787970 0.000000 0.000000 
#    y 0.000000 1.737260 0.000000 
#    z 0.000000 0.000000 1.792970 
# 
# From -- ./inp_files/6250.got.cif
#   From: 2010.06.25/outbox.cif.g09.slc.cpg/sg71_4_cif.got.tgz:6250.got - 2010.06.28 04:59:45.
