data_PCOD8289671
_publ_section_title
;
Structure prediction by ZEFSAII (Michael W. Deem and Ramdas Pophale) SiO2 
 PCOD8289671
Probable space group: I M M M
;
_chemical_formula_sum "Si O2"
_cell_formula_units_Z 120
_cell_length_a 12.432374
_cell_length_b 22.507258
_cell_length_c 22.587319
_cell_angle_alpha 90.000000
_cell_angle_beta 90.000000
_cell_angle_gamma 90.000000
_cell_volume 6320.353091
_symmetry_space_group_name_H-M "I M M M"
_symmetry_group_IT_number 71
_symmetry_cell_setting 'orthorhombic'
loop_
_space_group_symop_operation_xyz
x,y,z
-x,-y,z
x,-y,-z
-x,y,-z
-x,-y,-z
x,y,-z
-x,y,z
x,-y,z
1/2+x,1/2+y,1/2+z
1/2-x,1/2-y,1/2+z
1/2+x,1/2-y,1/2-z
1/2-x,1/2+y,1/2-z
1/2-x,1/2-y,1/2-z
1/2+x,1/2+y,1/2-z
1/2-x,1/2+y,1/2+z
1/2+x,1/2-y,1/2+z
loop_
_atom_site_type_symbol
_atom_site_label
_atom_site_fract_x
_atom_site_fract_y
_atom_site_fract_z
Si Si1 0.375706 0.728175 0.815272
Si Si2 0.375677 0.935807 0.674103
Si Si3 0.255204 0.748612 0.067434
Si Si4 0.000000 0.570215 0.432854
Si Si5 0.380419 0.638447 0.569274
Si Si6 0.718929 0.069057 0.868066
Si Si7 0.625357 0.869175 0.435660
Si Si8 0.215616 0.345955 0.738649
O O1 0.500000 0.712039 0.809935
O O2 0.347745 0.733065 0.885160
O O3 0.312882 0.675739 0.780705
O O4 0.352600 0.790474 0.783792
O O5 0.500000 0.946008 0.662591
O O6 0.321474 0.911914 0.613367
O O7 0.363898 0.887851 0.725061
O O8 0.323107 0.000000 0.690367
O O9 0.191640 0.806216 0.091387
O O10 0.169648 0.696625 0.068425
O O11 0.301550 0.757232 0.000000
O O12 0.894093 0.591103 0.396995
O O13 0.000000 0.500000 0.438263
O O14 0.000000 0.597164 0.500000
O O15 0.394538 0.642557 0.500000
O O16 0.500000 0.639226 0.598460
O O17 0.315919 0.577993 0.585176
O O18 0.754978 0.111753 0.814415
O O19 0.711288 0.000000 0.849078
O O20 0.649545 0.897359 0.500000
O O21 0.500000 0.861943 0.423715
#
# Coordination Sequence:
#
# PCOD8289671 Si02
#       8
#    16  16  16   8  16  16  16  16
#     4  11  24  41  61  86 112 146 190 241 300 355
#     4  10  20  33  55  84 114 151 190 229 276 334
#     4  10  19  37  60  85 113 146 190 241 301 356
#     4   9  20  38  60  86 118 158 201 249 296 336
#     4  10  21  37  58  85 118 153 193 242 293 345
#     4  11  23  38  59  86 118 159 203 241 286 347
#     4   9  17  31  54  84 116 147 182 230 288 345
#     4  11  23  41  56  82 116 150 186 236 288 347
#
# _framework density 18.986280000000001
#
# number of rings (size 3 to 8) (size 9 to 14) (size 15 to 20)
#    0.000    1.800    2.667    1.600    1.867    3.733 
#    0.000    2.000    0.000    1.200    0.000    0.000 
#    0.000    2.133    0.000    0.000    0.000    0.000 
#
# Total GULP energy -743644.273026 kJ/mol
# GULP energy per Si atom -12394.071217 kJ/mol
# Density = 1.894307 g / cm^3
# Si number density = 18.986280 Si / 1000 Ang^3
#
#
#
# Elastic Constant Matrix: (Units=GPa)
#
#
# Indices 1 2 3 4 5 6 
#
# 1 93.5125 25.2403 37.8483 0.0000 0.0000 0.0000
# 2 25.2403 92.7883 42.8812 0.0000 0.0000 0.0000
# 3 37.8483 42.8812 97.0825 0.0000 0.0000 0.0000
# 4 0.0000 0.0000 0.0000 21.3482 0.0000 0.0000
# 5 0.0000 0.0000 0.0000 0.0000 23.0957 0.0000
# 6 0.0000 0.0000 0.0000 0.0000 0.0000 20.4159
#
#
#
# Elastic Compliance Matrix: (Units=1/GPa)
#
#
# Indices 1 2 3 4 5 6 
#
# 1 0.012858 -0.001484 -0.004357 0.000000 0.000000 0.000000
# 2 -0.001484 0.013713 -0.005478 0.000000 0.000000 0.000000
# 3 -0.004357 -0.005478 0.014419 0.000000 0.000000 0.000000
# 4 0.000000 0.000000 0.000000 0.046842 0.000000 0.000000
# 5 0.000000 0.000000 0.000000 0.000000 0.043298 0.000000
# 6 0.000000 0.000000 0.000000 0.000000 0.000000 0.048981
#
#
# Mechanical properties :
#
#
# Convention : Reuss Voigt Hill
#
# Bulk Modulus (GPa) = 54.49463 55.03586 54.76524
# Shear Modulus (GPa) = 23.93865 24.79953 24.36909
#
# Velocity S-wave (km/s) = 3.55468 3.61803 3.58650
# Velocity P-wave (km/s) = 6.75367 6.81936 6.78660
#
# Compressibility (1/GPa) = 0.01835043
#
# Stress axis : x y z
#
# Youngs Moduli (GPa) = 77.77348 72.92543 69.35293
#
# Poissons Ratio (x) = 0.10822 0.30219
# Poissons Ratio (y) = 0.11541 0.37994
# Poissons Ratio (z) = 0.33888 0.39951
#
# Static dielectric constant tensor:
#      x y z
#    x 3.321650 0.000000 0.000000 
#    y 0.000000 3.673480 0.000000 
#    z 0.000000 0.000000 3.821630 
# 
# 
# High freq. dielectric constant tensor:
#      x y z
#    x 1.708910 0.000000 0.000000 
#    y 0.000000 1.736540 0.000000 
#    z 0.000000 0.000000 1.751290 
# 
# From -- ./inp_files/26312.got.cif
#   From: 2010.06.25/outbox.cif.g09.slc.cpg/sg71_14_cif.got.tgz:26312.got - 2010.06.28 04:59:45.
