data_PCOD8289246
_publ_section_title
;
Structure prediction by ZEFSAII (Michael W. Deem and Ramdas Pophale) SiO2 
 PCOD8289246
Probable space group: I M M M
;
_chemical_formula_sum "Si O2"
_cell_formula_units_Z 104
_cell_length_a 21.481637
_cell_length_b 28.084477
_cell_length_c 9.128171
_cell_angle_alpha 90.000000
_cell_angle_beta 90.000000
_cell_angle_gamma 90.000000
_cell_volume 5507.030496
_symmetry_space_group_name_H-M "I M M M"
_symmetry_group_IT_number 71
_symmetry_cell_setting 'orthorhombic'
loop_
_space_group_symop_operation_xyz
x,y,z
-x,-y,z
x,-y,-z
-x,y,-z
-x,-y,-z
x,y,-z
-x,y,z
x,-y,z
1/2+x,1/2+y,1/2+z
1/2-x,1/2-y,1/2+z
1/2+x,1/2-y,1/2-z
1/2-x,1/2+y,1/2-z
1/2-x,1/2-y,1/2-z
1/2+x,1/2+y,1/2-z
1/2-x,1/2+y,1/2+z
1/2+x,1/2-y,1/2+z
loop_
_atom_site_type_symbol
_atom_site_label
_atom_site_fract_x
_atom_site_fract_y
_atom_site_fract_z
Si Si1 0.718898 0.000000 0.336898
Si Si2 0.366134 0.500000 0.835944
Si Si3 0.571289 0.232271 0.340164
Si Si4 0.281773 0.092954 0.171892
Si Si5 0.638218 0.405193 0.327474
Si Si6 0.105875 0.627673 0.827508
Si Si7 0.500000 0.945002 0.673925
Si Si8 0.574033 0.679441 0.835763
O O1 0.694784 0.955111 0.248251
O O2 0.689370 0.000000 0.500000
O O3 0.792530 0.000000 0.345923
O O4 0.387644 0.453009 0.749260
O O5 0.395099 0.500000 0.000000
O O6 0.604068 0.238002 0.500000
O O7 0.500000 0.246401 0.357430
O O8 0.574814 0.177972 0.286365
O O9 0.600120 0.269940 0.224965
O O10 0.210469 0.104700 0.211505
O O11 0.328722 0.131143 0.240575
O O12 0.291033 0.088378 0.000000
O O13 0.628789 0.411384 0.500000
O O14 0.598368 0.361605 0.269927
O O15 0.061113 0.584454 0.772870
O O16 0.118589 0.622955 0.000000
O O17 0.500000 0.945662 0.500000
O O18 0.500000 0.000000 0.733947
O O19 0.500000 0.677501 0.837835
O O20 0.600433 0.672607 0.000000
#
# Coordination Sequence:
#
# PCOD8289246 Si02
#       8
#     8   8  16  16  16  16   8  16
#     4   9  17  31  51  73  97 137 185 218 253 308
#     4   9  17  31  54  80 108 140 175 215 258 304
#     4   9  17  33  55  77 103 137 181 226 267 321
#     4  10  21  34  50  76 110 142 176 221 268 315
#     4  10  20  36  56  79 110 147 181 215 260 318
#     4  10  19  33  54  79 106 143 187 225 268 322
#     4   9  18  32  51  79 113 145 184 231 270 311
#     4  10  21  36  57  84 109 133 171 223 276 322
#
# _framework density 18.88495
#
# number of rings (size 3 to 8) (size 9 to 14) (size 15 to 20)
#    0.000    2.385    0.769    1.846    1.077    5.231 
#    0.000    1.538    0.000    2.769    0.000    0.000 
#    0.000    0.000    0.000    0.000    0.000    0.000 
#
# Total GULP energy -644544.072004 kJ/mol
# GULP energy per Si atom -12395.078308 kJ/mol
# Density = 1.884197 g / cm^3
# Si number density = 18.884950 Si / 1000 Ang^3
#
#
#
# Elastic Constant Matrix: (Units=GPa)
#
#
# Indices 1 2 3 4 5 6 
#
# 1 34.1832 26.2392 27.0699 0.0000 0.0000 0.0000
# 2 26.2392 130.4736 51.3826 0.0000 0.0000 0.0000
# 3 27.0699 51.3826 95.8733 0.0000 0.0000 0.0000
# 4 0.0000 0.0000 0.0000 29.7460 0.0000 0.0000
# 5 0.0000 0.0000 0.0000 0.0000 26.2182 0.0000
# 6 0.0000 0.0000 0.0000 0.0000 0.0000 22.1624
#
#
#
# Elastic Compliance Matrix: (Units=1/GPa)
#
#
# Indices 1 2 3 4 5 6 
#
# 1 0.039678 -0.004522 -0.008780 0.000000 0.000000 0.000000
# 2 -0.004522 0.010230 -0.004206 0.000000 0.000000 0.000000
# 3 -0.008780 -0.004206 0.015164 0.000000 0.000000 0.000000
# 4 0.000000 0.000000 0.000000 0.033618 0.000000 0.000000
# 5 0.000000 0.000000 0.000000 0.000000 0.038141 0.000000
# 6 0.000000 0.000000 0.000000 0.000000 0.000000 0.045121
#
#
# Mechanical properties :
#
#
# Convention : Reuss Voigt Hill
#
# Bulk Modulus (GPa) = 33.27074 52.21262 42.74168
# Shear Modulus (GPa) = 22.02777 26.01454 24.02116
#
# Velocity S-wave (km/s) = 3.41899 3.71553 3.57034
# Velocity P-wave (km/s) = 5.76558 6.79078 6.29907
#
# Compressibility (1/GPa) = 0.03005644
#
# Stress axis : x y z
#
# Youngs Moduli (GPa) = 25.20302 97.74997 65.94776
#
# Poissons Ratio (x) = 0.44202 0.57899
# Poissons Ratio (y) = 0.11397 0.27738
# Poissons Ratio (z) = 0.22127 0.41114
#
# Static dielectric constant tensor:
#      x y z
#    x 3.188570 0.000000 0.000000 
#    y 0.000000 3.567810 0.000000 
#    z 0.000000 0.000000 3.591140 
# 
# 
# High freq. dielectric constant tensor:
#      x y z
#    x 1.705300 0.000000 0.000000 
#    y 0.000000 1.737390 0.000000 
#    z 0.000000 0.000000 1.732440 
# 
# From -- ./inp_files/11214.got.cif
#   From: 2010.06.25/outbox.cif.g09.slc.cpg/sg71_6_cif.got.tgz:11214.got - 2010.06.28 04:59:45.
