data_PCOD8289577
_publ_section_title
;
Structure prediction by ZEFSAII (Michael W. Deem and Ramdas Pophale) SiO2 
 PCOD8289577
Probable space group: I M M M
;
_chemical_formula_sum "Si O2"
_cell_formula_units_Z 88
_cell_length_a 19.424066
_cell_length_b 27.263985
_cell_length_c 9.416829
_cell_angle_alpha 90.000000
_cell_angle_beta 90.000000
_cell_angle_gamma 90.000000
_cell_volume 4986.940233
_symmetry_space_group_name_H-M "I M M M"
_symmetry_group_IT_number 71
_symmetry_cell_setting 'orthorhombic'
loop_
_space_group_symop_operation_xyz
x,y,z
-x,-y,z
x,-y,-z
-x,y,-z
-x,-y,-z
x,y,-z
-x,y,z
x,-y,z
1/2+x,1/2+y,1/2+z
1/2-x,1/2-y,1/2+z
1/2+x,1/2-y,1/2-z
1/2-x,1/2+y,1/2-z
1/2-x,1/2-y,1/2-z
1/2+x,1/2+y,1/2-z
1/2-x,1/2+y,1/2+z
1/2+x,1/2-y,1/2+z
loop_
_atom_site_type_symbol
_atom_site_label
_atom_site_fract_x
_atom_site_fract_y
_atom_site_fract_z
Si Si1 0.169930 0.291989 0.837146
Si Si2 0.336053 0.421043 0.334330
Si Si3 0.680726 0.943373 0.160336
Si Si4 0.801016 0.185019 0.835759
Si Si5 0.918723 0.000000 0.334395
Si Si6 0.923069 0.621544 0.834881
O O1 0.158061 0.234882 0.794139
O O2 0.229656 0.317663 0.747678
O O3 0.100024 0.322005 0.809980
O O4 0.193374 0.295391 0.000000
O O5 0.348871 0.433600 0.500000
O O6 0.258877 0.435479 0.288553
O O7 0.347113 0.362970 0.302078
O O8 0.389093 0.451221 0.239110
O O9 0.627746 0.915316 0.258610
O O10 0.661331 0.000000 0.170393
O O11 0.673105 0.923598 0.000000
O O12 0.780376 0.184490 0.000000
O O13 0.898574 0.000000 0.500000
O O14 0.000000 0.000000 0.312560
O O15 0.000000 0.616043 0.773221
O O16 0.921348 0.608193 0.000000
#
# Coordination Sequence:
#
# PCOD8289577 Si02
#       6
#    16  16  16  16   8  16
#     4   9  17  30  49  76 107 138 173 214 264 313
#     4  10  19  35  58  83 109 138 176 221 265 315
#     4  10  20  35  54  77 104 134 175 224 266 309
#     4   9  17  30  52  80 106 132 171 221 263 307
#     4  11  25  41  57  81 112 143 174 213 267 328
#     4  10  21  35  50  72 107 146 180 217 262 314
#
# _framework density 17.646090999999998
#
# number of rings (size 3 to 8) (size 9 to 14) (size 15 to 20)
#    0.000    2.273    2.727    0.273    0.000    3.273 
#    0.000    2.727    0.000    3.273    0.000    0.000 
#    0.000    0.000    0.000    0.000    0.000    0.000 
#
# Total GULP energy -545507.249257 kJ/mol
# GULP energy per Si atom -12397.892029 kJ/mol
# Density = 1.760593 g / cm^3
# Si number density = 17.646091 Si / 1000 Ang^3
#
#
#
# Elastic Constant Matrix: (Units=GPa)
#
#
# Indices 1 2 3 4 5 6 
#
# 1 105.3657 53.0287 51.6768 0.0000 0.0000 0.0000
# 2 53.0287 114.2948 45.8768 0.0000 0.0000 0.0000
# 3 51.6768 45.8768 64.4678 0.0000 0.0000 0.0000
# 4 0.0000 0.0000 0.0000 26.8683 0.0000 0.0000
# 5 0.0000 0.0000 0.0000 0.0000 25.4875 0.0000
# 6 0.0000 0.0000 0.0000 0.0000 0.0000 22.9828
#
#
#
# Elastic Compliance Matrix: (Units=1/GPa)
#
#
# Indices 1 2 3 4 5 6 
#
# 1 0.016473 -0.003279 -0.010871 0.000000 0.000000 0.000000
# 2 -0.003279 0.012901 -0.006552 0.000000 0.000000 0.000000
# 3 -0.010871 -0.006552 0.028888 0.000000 0.000000 0.000000
# 4 0.000000 0.000000 0.000000 0.037219 0.000000 0.000000
# 5 0.000000 0.000000 0.000000 0.000000 0.039235 0.000000
# 6 0.000000 0.000000 0.000000 0.000000 0.000000 0.043511
#
#
# Mechanical properties :
#
#
# Convention : Reuss Voigt Hill
#
# Bulk Modulus (GPa) = 59.32026 65.03253 62.17640
# Shear Modulus (GPa) = 22.19775 23.97081 23.08428
#
# Velocity S-wave (km/s) = 3.55059 3.68967 3.62080
# Velocity P-wave (km/s) = 7.10624 7.42195 7.26581
#
# Compressibility (1/GPa) = 0.01685765
#
# Stress axis : x y z
#
# Youngs Moduli (GPa) = 60.70616 77.51594 34.61668
#
# Poissons Ratio (x) = 0.25420 0.37631
# Poissons Ratio (y) = 0.19908 0.22680
# Poissons Ratio (z) = 0.65992 0.50786
#
# Static dielectric constant tensor:
#      x y z
#    x 3.083980 0.000000 0.000000 
#    y 0.000000 3.615690 0.000000 
#    z 0.000000 0.000000 3.272920 
# 
# 
# High freq. dielectric constant tensor:
#      x y z
#    x 1.654180 0.000000 0.000000 
#    y 0.000000 1.701640 0.000000 
#    z 0.000000 0.000000 1.678630 
# 
# From -- ./inp_files/8799.got.cif
#   From: 2010.06.25/outbox.cif.g09.slc.cpg/sg71_5_cif.got.tgz:8799.got - 2010.06.28 04:59:45.
