data_PCOD8289108
_publ_section_title
;
Structure prediction by ZEFSAII (Michael W. Deem and Ramdas Pophale) SiO2 
 PCOD8289108
Probable space group: I M M M
;
_chemical_formula_sum "Si O2"
_cell_formula_units_Z 112
_cell_length_a 25.257237
_cell_length_b 26.004115
_cell_length_c 9.644025
_cell_angle_alpha 90.000000
_cell_angle_beta 90.000000
_cell_angle_gamma 90.000000
_cell_volume 6334.119389
_symmetry_space_group_name_H-M "I M M M"
_symmetry_group_IT_number 71
_symmetry_cell_setting 'orthorhombic'
loop_
_space_group_symop_operation_xyz
x,y,z
-x,-y,z
x,-y,-z
-x,y,-z
-x,-y,-z
x,y,-z
-x,y,z
x,-y,z
1/2+x,1/2+y,1/2+z
1/2-x,1/2-y,1/2+z
1/2+x,1/2-y,1/2-z
1/2-x,1/2+y,1/2-z
1/2-x,1/2-y,1/2-z
1/2+x,1/2+y,1/2-z
1/2-x,1/2+y,1/2+z
1/2+x,1/2-y,1/2+z
loop_
_atom_site_type_symbol
_atom_site_label
_atom_site_fract_x
_atom_site_fract_y
_atom_site_fract_z
Si Si1 0.843385 0.941378 0.658466
Si Si2 0.252162 0.131112 0.657921
Si Si3 0.657545 0.163174 0.837384
Si Si4 0.058050 0.911306 0.158301
Si Si5 0.440867 0.812981 0.660552
Si Si6 0.321282 0.720601 0.153162
Si Si7 0.088076 0.199997 0.155342
O O1 0.856885 0.927014 0.500000
O O2 0.795281 0.905586 0.711257
O O3 0.896835 0.934386 0.745297
O O4 0.824222 0.000000 0.672649
O O5 0.268440 0.116515 0.500000
O O6 0.302288 0.123917 0.760585
O O7 0.234619 0.191195 0.663826
O O8 0.600286 0.158846 0.763080
O O9 0.683020 0.219258 0.812129
O O10 0.652056 0.149247 0.000000
O O11 0.051592 0.849687 0.174646
O O12 0.000000 0.934180 0.197232
O O13 0.072583 0.925552 0.000000
O O14 0.424462 0.822395 0.500000
O O15 0.500000 0.834672 0.688196
O O16 0.442622 0.752132 0.695843
O O17 0.360486 0.690766 0.253206
O O18 0.345337 0.714501 0.000000
O O19 0.109408 0.204997 0.000000
#
# Coordination Sequence:
#
# PCOD8289108 Si02
#       7
#    16  16  16  16  16  16  16
#     4  10  22  39  56  72  91 120 160 206 254 299
#     4  10  19  33  51  68  92 123 157 198 244 294
#     4  10  20  30  45  72 101 126 159 197 235 282
#     4  10  20  33  50  72  96 123 159 205 254 299
#     4   9  17  30  47  67  97 136 170 197 229 273
#     4   9  17  29  45  67  94 124 157 195 238 282
#     4   9  16  27  45  68  93 124 164 202 237 281
#
# _framework density 17.682015
#
# number of rings (size 3 to 8) (size 9 to 14) (size 15 to 20)
#    0.000    2.429    1.429    1.286    0.000    4.571 
#    0.000    1.429    0.000    2.571    0.000    0.000 
#    0.000    0.571    0.000    6.571    0.000    1.857 
#
# Total GULP energy -694050.949708 kJ/mol
# GULP energy per Si atom -12393.766959 kJ/mol
# Density = 1.764177 g / cm^3
# Si number density = 17.682015 Si / 1000 Ang^3
#
#
#
# Elastic Constant Matrix: (Units=GPa)
#
#
# Indices 1 2 3 4 5 6 
#
# 1 116.7733 34.5888 72.5113 0.0000 0.0000 0.0000
# 2 34.5888 33.6173 22.9536 0.0000 0.0000 0.0000
# 3 72.5113 22.9536 94.5828 0.0000 0.0000 0.0000
# 4 0.0000 0.0000 0.0000 15.4282 0.0000 0.0000
# 5 0.0000 0.0000 0.0000 0.0000 31.2678 0.0000
# 6 0.0000 0.0000 0.0000 0.0000 0.0000 10.8569
#
#
#
# Elastic Compliance Matrix: (Units=1/GPa)
#
#
# Indices 1 2 3 4 5 6 
#
# 1 0.019651 -0.011905 -0.012176 0.000000 0.000000 0.000000
# 2 -0.011905 0.042867 -0.001276 0.000000 0.000000 0.000000
# 3 -0.012176 -0.001276 0.020217 0.000000 0.000000 0.000000
# 4 0.000000 0.000000 0.000000 0.064817 0.000000 0.000000
# 5 0.000000 0.000000 0.000000 0.000000 0.031982 0.000000
# 6 0.000000 0.000000 0.000000 0.000000 0.000000 0.092107
#
#
# Mechanical properties :
#
#
# Convention : Reuss Voigt Hill
#
# Bulk Modulus (GPa) = 31.23003 56.12011 43.67507
# Shear Modulus (GPa) = 15.01376 19.17188 17.09282
#
# Velocity S-wave (km/s) = 2.91709 3.29638 3.11252
# Velocity P-wave (km/s) = 5.38946 6.80409 6.13766
#
# Compressibility (1/GPa) = 0.03202046
#
# Stress axis : x y z
#
# Youngs Moduli (GPa) = 50.88896 23.32804 49.46317
#
# Poissons Ratio (x) = 0.27772 0.60226
# Poissons Ratio (y) = 0.60583 0.06313
# Poissons Ratio (z) = 0.61962 0.02977
#
# Static dielectric constant tensor:
#      x y z
#    x 3.170910 0.000000 0.000000 
#    y 0.000000 2.945690 0.000000 
#    z 0.000000 0.000000 3.322180 
# 
# 
# High freq. dielectric constant tensor:
#      x y z
#    x 1.674900 0.000000 0.000000 
#    y 0.000000 1.637380 0.000000 
#    z 0.000000 0.000000 1.686830 
# 
# From -- ./inp_files/26263.got.cif
#   From: 2010.06.25/outbox.cif.g09.slc.cpg/sg71_14_cif.got.tgz:26263.got - 2010.06.28 04:59:45.
