data_PCOD8289626
_publ_section_title
;
Structure prediction by ZEFSAII (Michael W. Deem and Ramdas Pophale) SiO2 
 PCOD8289626
Probable space group: I M M M
;
_chemical_formula_sum "Si O2"
_cell_formula_units_Z 72
_cell_length_a 26.730332
_cell_length_b 8.542039
_cell_length_c 15.534512
_cell_angle_alpha 90.000000
_cell_angle_beta 90.000000
_cell_angle_gamma 90.000000
_cell_volume 3547.019024
_symmetry_space_group_name_H-M "I M M M"
_symmetry_group_IT_number 71
_symmetry_cell_setting 'orthorhombic'
loop_
_space_group_symop_operation_xyz
x,y,z
-x,-y,z
x,-y,-z
-x,y,-z
-x,-y,-z
x,y,-z
-x,y,z
x,-y,z
1/2+x,1/2+y,1/2+z
1/2-x,1/2-y,1/2+z
1/2+x,1/2-y,1/2-z
1/2-x,1/2+y,1/2-z
1/2-x,1/2-y,1/2-z
1/2+x,1/2+y,1/2-z
1/2-x,1/2+y,1/2+z
1/2+x,1/2-y,1/2+z
loop_
_atom_site_type_symbol
_atom_site_label
_atom_site_fract_x
_atom_site_fract_y
_atom_site_fract_z
Si Si1 0.720075 0.817018 0.500000
Si Si2 0.440863 0.181223 0.000000
Si Si3 0.884905 0.185301 0.662053
Si Si4 0.611563 0.314854 0.500000
Si Si5 0.225331 0.684173 0.335417
Si Si6 0.944250 0.185391 0.827709
O O1 0.661550 0.784754 0.500000
O O2 0.743457 0.741561 0.583955
O O3 0.731261 0.000000 0.500000
O O4 0.419487 0.266435 0.916772
O O5 0.500000 0.202138 0.000000
O O6 0.424846 0.000000 0.000000
O O7 0.831397 0.263903 0.653653
O O8 0.910878 0.248529 0.749023
O O9 0.877826 0.000000 0.663539
O O10 0.623510 0.500000 0.500000
O O11 0.580167 0.262448 0.417104
O O12 0.228182 0.500000 0.331014
O O13 0.250000 0.750000 0.250000
O O14 0.000000 0.257525 0.821374
O O15 0.947625 0.000000 0.822750
#
# Coordination Sequence:
#
# PCOD8289626 Si02
#       6
#     8   8  16   8  16  16
#     4  12  25  42  63  89 122 161 206 253 306 365
#     4  11  24  41  60  85 119 160 206 257 312 364
#     4  11  22  38  61  89 121 158 202 250 303 363
#     4  10  19  35  61  90 121 156 196 243 294 350
#     4  12  25  43  65  91 124 161 204 253 308 369
#     4   9  18  33  57  89 121 154 194 239 287 345
#
# _framework density 20.298735000000001
#
# number of rings (size 3 to 8) (size 9 to 14) (size 15 to 20)
#    0.000    1.222    0.000    7.000    0.000    4.889 
#    0.000    1.111    0.000    4.000    0.000    0.000 
#    0.000    0.000    0.000    0.000    0.000    0.000 
#
# Total GULP energy -446583.515229 kJ/mol
# GULP energy per Si atom -12405.097645 kJ/mol
# Density = 2.025253 g / cm^3
# Si number density = 20.298735 Si / 1000 Ang^3
#
#
#
# Elastic Constant Matrix: (Units=GPa)
#
#
# Indices 1 2 3 4 5 6 
#
# 1 118.7401 31.4148 38.9151 0.0000 0.0000 0.0000
# 2 31.4148 113.0408 35.1528 0.0000 0.0000 0.0000
# 3 38.9151 35.1528 156.3594 0.0000 0.0000 0.0000
# 4 0.0000 0.0000 0.0000 19.5768 0.0000 0.0000
# 5 0.0000 0.0000 0.0000 0.0000 44.0786 0.0000
# 6 0.0000 0.0000 0.0000 0.0000 0.0000 33.9996
#
#
#
# Elastic Compliance Matrix: (Units=1/GPa)
#
#
# Indices 1 2 3 4 5 6 
#
# 1 0.009600 -0.002070 -0.001924 0.000000 0.000000 0.000000
# 2 -0.002070 0.009957 -0.001724 0.000000 0.000000 0.000000
# 3 -0.001924 -0.001724 0.007262 0.000000 0.000000 0.000000
# 4 0.000000 0.000000 0.000000 0.051081 0.000000 0.000000
# 5 0.000000 0.000000 0.000000 0.000000 0.022687 0.000000
# 6 0.000000 0.000000 0.000000 0.000000 0.000000 0.029412
#
#
# Mechanical properties :
#
#
# Convention : Reuss Voigt Hill
#
# Bulk Modulus (GPa) = 64.99829 66.56730 65.78279
# Shear Modulus (GPa) = 34.11537 38.37482 36.24510
#
# Velocity S-wave (km/s) = 4.10404 4.35271 4.23020
# Velocity P-wave (km/s) = 7.38565 7.62407 7.50581
#
# Compressibility (1/GPa) = 0.01538502
#
# Stress axis : x y z
#
# Youngs Moduli (GPa) = 104.16844 100.42686 137.70586
#
# Poissons Ratio (x) = 0.20784 0.26494
# Poissons Ratio (y) = 0.21558 0.23735
# Poissons Ratio (z) = 0.20041 0.17309
#
# Static dielectric constant tensor:
#      x y z
#    x 3.914100 0.000000 0.000000 
#    y 0.000000 3.624260 0.000000 
#    z 0.000000 0.000000 4.008560 
# 
# 
# High freq. dielectric constant tensor:
#      x y z
#    x 1.814710 0.000000 0.000000 
#    y 0.000000 1.781160 0.000000 
#    z 0.000000 0.000000 1.816620 
# 
# From -- ./inp_files/39978.got.cif
#   From: 2010.06.25/outbox.cif.g09.slc.cpg/sg71_20_cif.got.tgz:39978.got - 2010.06.28 04:59:45.
