data_PCOD8289001
_publ_section_title
;
Structure prediction by ZEFSAII (Michael W. Deem and Ramdas Pophale) SiO2 
 PCOD8289001
Probable space group: I M M M
;
_chemical_formula_sum "Si O2"
_cell_formula_units_Z 96
_cell_length_a 20.829284
_cell_length_b 17.486487
_cell_length_c 14.993286
_cell_angle_alpha 90.000000
_cell_angle_beta 90.000000
_cell_angle_gamma 90.000000
_cell_volume 5461.019611
_symmetry_space_group_name_H-M "I M M M"
_symmetry_group_IT_number 71
_symmetry_cell_setting 'orthorhombic'
loop_
_space_group_symop_operation_xyz
x,y,z
-x,-y,z
x,-y,-z
-x,y,-z
-x,-y,-z
x,y,-z
-x,y,z
x,-y,z
1/2+x,1/2+y,1/2+z
1/2-x,1/2-y,1/2+z
1/2+x,1/2-y,1/2-z
1/2-x,1/2+y,1/2-z
1/2-x,1/2-y,1/2-z
1/2+x,1/2+y,1/2-z
1/2-x,1/2+y,1/2+z
1/2+x,1/2-y,1/2+z
loop_
_atom_site_type_symbol
_atom_site_label
_atom_site_fract_x
_atom_site_fract_y
_atom_site_fract_z
Si Si1 0.926121 0.854566 0.397770
Si Si2 0.424406 0.765222 0.248512
Si Si3 0.927616 0.589551 0.500000
Si Si4 0.870766 0.415667 0.312991
Si Si5 0.867920 0.000000 0.103841
Si Si6 0.661638 0.500000 0.103730
Si Si7 0.075588 0.840797 0.901978
Si Si8 0.248851 0.500000 0.730102
O O1 0.918045 0.829611 0.500000
O O2 0.904049 0.781987 0.339462
O O3 0.881536 0.926409 0.374583
O O4 0.000000 0.877412 0.376884
O O5 0.500000 0.771842 0.254316
O O6 0.397031 0.850874 0.252567
O O7 0.395368 0.720869 0.333813
O O8 0.936588 0.500000 0.500000
O O9 0.886664 0.613788 0.586866
O O10 0.000000 0.627069 0.500000
O O11 0.903638 0.500000 0.296991
O O12 0.794861 0.424760 0.290936
O O13 0.908657 0.074025 0.131214
O O14 0.803255 0.000000 0.157735
O O15 0.850700 0.000000 0.000000
O O16 0.723858 0.500000 0.168617
O O17 0.684235 0.500000 0.000000
O O18 0.000000 0.832917 0.904888
O O19 0.105131 0.825147 0.000000
#
# Coordination Sequence:
#
# PCOD8289001 Si02
#       8
#    16  16   8  16   8   8  16   8
#     4   9  18  31  52  83 111 133 165 216 272 328
#     4  10  19  32  53  79 108 133 163 212 275 326
#     4   9  16  30  54  80 100 127 163 209 273 334
#     4   9  21  35  52  74 107 138 171 216 260 311
#     4  10  19  32  56  78 104 140 177 211 261 317
#     4  10  19  36  56  72 102 149 188 212 254 306
#     4   9  18  33  53  80 107 134 171 219 264 308
#     4  10  22  36  51  72 104 141 188 224 248 303
#
# _framework density 17.579135000000001
#
# number of rings (size 3 to 8) (size 9 to 14) (size 15 to 20)
#    0.500    2.083    0.000    2.000    2.333    3.000 
#    0.000    7.500    0.000    4.000    0.000    2.333 
#    0.000    0.000    0.000    0.000    0.000    0.000 
#
# Total GULP energy -594823.682960 kJ/mol
# GULP energy per Si atom -12392.160062 kJ/mol
# Density = 1.753912 g / cm^3
# Si number density = 17.579135 Si / 1000 Ang^3
#
#
#
# Elastic Constant Matrix: (Units=GPa)
#
#
# Indices 1 2 3 4 5 6 
#
# 1 46.0472 19.7475 47.6735 0.0000 0.0000 0.0000
# 2 19.7475 120.1332 64.3619 0.0000 0.0000 0.0000
# 3 47.6735 64.3619 97.8759 0.0000 0.0000 0.0000
# 4 0.0000 0.0000 0.0000 26.4576 0.0000 0.0000
# 5 0.0000 0.0000 0.0000 0.0000 28.9719 0.0000
# 6 0.0000 0.0000 0.0000 0.0000 0.0000 21.4848
#
#
#
# Elastic Compliance Matrix: (Units=1/GPa)
#
#
# Indices 1 2 3 4 5 6 
#
# 1 0.047402 0.007068 -0.027736 0.000000 0.000000 0.000000
# 2 0.007068 0.013906 -0.012587 0.000000 0.000000 0.000000
# 3 -0.027736 -0.012587 0.032004 0.000000 0.000000 0.000000
# 4 0.000000 0.000000 0.000000 0.037796 0.000000 0.000000
# 5 0.000000 0.000000 0.000000 0.000000 0.034516 0.000000
# 6 0.000000 0.000000 0.000000 0.000000 0.000000 0.046545
#
#
# Mechanical properties :
#
#
# Convention : Reuss Voigt Hill
#
# Bulk Modulus (GPa) = 37.31235 58.62468 47.96852
# Shear Modulus (GPa) = 17.38451 24.20108 20.79279
#
# Velocity S-wave (km/s) = 3.14814 3.71441 3.44293
# Velocity P-wave (km/s) = 5.87246 7.19841 6.56898
#
# Compressibility (1/GPa) = 0.02680078
#
# Stress axis : x y z
#
# Youngs Moduli (GPa) = 21.09634 71.91255 31.24625
#
# Poissons Ratio (x) = -0.50827 0.86665
# Poissons Ratio (y) = -0.14911 0.39329
# Poissons Ratio (z) = 0.58513 0.90516
#
# Static dielectric constant tensor:
#      x y z
#    x 3.024040 0.000000 0.000000 
#    y 0.000000 3.362480 0.000000 
#    z 0.000000 0.000000 3.593150 
# 
# 
# High freq. dielectric constant tensor:
#      x y z
#    x 1.649370 0.000000 0.000000 
#    y 0.000000 1.674790 0.000000 
#    z 0.000000 0.000000 1.682440 
# 
# From -- ./inp_files/39232.got.cif
#   From: 2010.06.25/outbox.cif.g09.slc.cpg/sg71_20_cif.got.tgz:39232.got - 2010.06.28 04:59:45.
