data_PCOD8289230
_publ_section_title
;
Structure prediction by ZEFSAII (Michael W. Deem and Ramdas Pophale) SiO2 
 PCOD8289230
Probable space group: I M M M
;
_chemical_formula_sum "Si O2"
_cell_formula_units_Z 88
_cell_length_a 9.026108
_cell_length_b 29.629694
_cell_length_c 17.214470
_cell_angle_alpha 90.000000
_cell_angle_beta 90.000000
_cell_angle_gamma 90.000000
_cell_volume 4603.851939
_symmetry_space_group_name_H-M "I M M M"
_symmetry_group_IT_number 71
_symmetry_cell_setting 'orthorhombic'
loop_
_space_group_symop_operation_xyz
x,y,z
-x,-y,z
x,-y,-z
-x,y,-z
-x,-y,-z
x,y,-z
-x,y,z
x,-y,z
1/2+x,1/2+y,1/2+z
1/2-x,1/2-y,1/2+z
1/2+x,1/2-y,1/2-z
1/2-x,1/2+y,1/2-z
1/2-x,1/2-y,1/2-z
1/2+x,1/2+y,1/2-z
1/2-x,1/2+y,1/2+z
1/2+x,1/2-y,1/2+z
loop_
_atom_site_type_symbol
_atom_site_label
_atom_site_fract_x
_atom_site_fract_y
_atom_site_fract_z
Si Si1 0.176211 0.112742 0.354954
Si Si2 0.335879 0.552927 0.586902
Si Si3 0.676054 0.552012 0.000000
Si Si4 0.172460 0.613595 0.304785
Si Si5 0.324323 0.292973 0.086126
Si Si6 0.176060 0.693859 0.588474
O O1 0.232484 0.078951 0.423233
O O2 0.243636 0.099064 0.273079
O O3 0.235580 0.164142 0.366376
O O4 0.000000 0.110627 0.351191
O O5 0.317642 0.571696 0.500000
O O6 0.500000 0.566451 0.618518
O O7 0.317495 0.500000 0.587779
O O8 0.202963 0.572641 0.637391
O O9 0.735826 0.500000 0.000000
O O10 0.500000 0.551533 0.000000
O O11 0.237959 0.658351 0.348095
O O12 0.000000 0.618634 0.286769
O O13 0.500000 0.295228 0.083417
O O14 0.274108 0.243866 0.118447
O O15 0.259889 0.298150 0.000000
O O16 0.235427 0.685154 0.500000
O O17 0.000000 0.690070 0.585868
#
# Coordination Sequence:
#
# PCOD8289230 Si02
#       6
#    16  16   8  16  16  16
#     4  10  19  33  54  77  99 131 176 224 271 316
#     4   9  19  37  59  79 100 132 174 217 258 299
#     4   9  18  34  57  81  99 121 167 229 282 323
#     4  11  22  33  48  77 114 145 171 205 256 321
#     4   8  13  26  50  74  95 128 179 228 262 305
#     4   8  15  28  47  72 103 139 176 214 256 302
#
# _framework density 19.114428
#
# number of rings (size 3 to 8) (size 9 to 14) (size 15 to 20)
#    0.000    2.818    0.909    2.727    0.000    2.909 
#    0.000    3.182    0.000    1.636    0.000    5.091 
#    0.000    0.000    0.000    0.000    0.000    0.000 
#
# Total GULP energy -545138.488853 kJ/mol
# GULP energy per Si atom -12389.511110 kJ/mol
# Density = 1.907092 g / cm^3
# Si number density = 19.114428 Si / 1000 Ang^3
#
#
#
# Elastic Constant Matrix: (Units=GPa)
#
#
# Indices 1 2 3 4 5 6 
#
# 1 21.0308 24.3401 22.7403 -0.0001 0.0000 0.0000
# 2 24.3401 102.1071 70.6556 -0.0003 0.0001 0.0000
# 3 22.7403 70.6556 115.4286 -0.0003 0.0002 0.0000
# 4 -0.0001 -0.0003 -0.0003 12.5438 0.0002 -0.0001
# 5 0.0000 0.0001 0.0002 0.0002 18.2144 0.0000
# 6 0.0000 0.0000 0.0000 -0.0001 0.0000 16.1306
#
#
#
# Elastic Compliance Matrix: (Units=1/GPa)
#
#
# Indices 1 2 3 4 5 6 
#
# 1 0.068000 -0.012039 -0.006027 0.000000 0.000000 0.000000
# 2 -0.012039 0.019122 -0.009333 0.000000 0.000000 0.000000
# 3 -0.006027 -0.009333 0.015564 0.000000 0.000000 0.000000
# 4 0.000000 0.000000 0.000000 0.079721 -0.000001 0.000000
# 5 0.000000 0.000000 0.000000 -0.000001 0.054902 0.000000
# 6 0.000000 0.000000 0.000000 0.000000 0.000000 0.061994
#
#
# Mechanical properties :
#
#
# Convention : Reuss Voigt Hill
#
# Bulk Modulus (GPa) = 20.88254 52.67094 36.77674
# Shear Modulus (GPa) = 13.51125 17.43311 15.47218
#
# Velocity S-wave (km/s) = 2.66157 3.02327 2.84817
# Velocity P-wave (km/s) = 4.51597 6.30891 5.48618
#
# Compressibility (1/GPa) = 0.04788690
#
# Stress axis : x y z
#
# Youngs Moduli (GPa) = 14.70590 52.29691 64.25268
#
# Poissons Ratio (x) = 0.62960 0.38726
# Poissons Ratio (y) = 0.17704 0.59966
# Poissons Ratio (z) = 0.08864 0.48808
#
# Static dielectric constant tensor:
#      x y z
#    x 2.973650 0.000000 0.000000 
#    y 0.000000 3.815370 0.000000 
#    z 0.000000 0.000000 3.505250 
# 
# 
# High freq. dielectric constant tensor:
#      x y z
#    x 1.686920 0.000000 0.000000 
#    y 0.000000 1.755070 0.000000 
#    z 0.000000 0.000000 1.739690 
# 
# From -- ./inp_files/42441.got.cif
#   From: 2010.06.25/outbox.cif.g09.slc.cpg/sg71_22_cif.got.tgz:42441.got - 2010.06.28 04:59:45.
