data_PCOD8289393
_publ_section_title
;
Structure prediction by ZEFSAII (Michael W. Deem and Ramdas Pophale) SiO2 
 PCOD8289393
Probable space group: I M M M
;
_chemical_formula_sum "Si O2"
_cell_formula_units_Z 120
_cell_length_a 25.591394
_cell_length_b 13.117597
_cell_length_c 18.765745
_cell_angle_alpha 90.000000
_cell_angle_beta 90.000000
_cell_angle_gamma 90.000000
_cell_volume 6299.615430
_symmetry_space_group_name_H-M "I M M M"
_symmetry_group_IT_number 71
_symmetry_cell_setting 'orthorhombic'
loop_
_space_group_symop_operation_xyz
x,y,z
-x,-y,z
x,-y,-z
-x,y,-z
-x,-y,-z
x,y,-z
-x,y,z
x,-y,z
1/2+x,1/2+y,1/2+z
1/2-x,1/2-y,1/2+z
1/2+x,1/2-y,1/2-z
1/2-x,1/2+y,1/2-z
1/2-x,1/2-y,1/2-z
1/2+x,1/2+y,1/2-z
1/2-x,1/2+y,1/2+z
1/2+x,1/2-y,1/2+z
loop_
_atom_site_type_symbol
_atom_site_label
_atom_site_fract_x
_atom_site_fract_y
_atom_site_fract_z
Si Si1 0.059031 0.253264 0.918521
Si Si2 0.893975 0.115626 0.803309
Si Si3 0.276339 0.115351 0.079662
Si Si4 0.658737 0.118584 0.417849
Si Si5 0.559949 0.000000 0.084347
Si Si6 0.059255 0.114738 0.345460
Si Si7 0.209610 0.771935 0.813513
Si Si8 0.113643 0.701516 0.418025
O O1 0.076944 0.156122 0.873183
O O2 0.098893 0.346454 0.904603
O O3 0.000000 0.288135 0.898249
O O4 0.061462 0.217372 0.000000
O O5 0.934982 0.122476 0.739254
O O6 0.844008 0.184232 0.781648
O O7 0.876068 0.000000 0.817626
O O8 0.231467 0.139836 0.135511
O O9 0.324547 0.191146 0.092468
O O10 0.296385 0.000000 0.090417
O O11 0.253768 0.129590 0.000000
O O12 0.675250 0.141464 0.500000
O O13 0.698499 0.173162 0.362942
O O14 0.661917 0.000000 0.400576
O O15 0.585456 0.102705 0.117039
O O16 0.500000 0.000000 0.106188
O O17 0.569611 0.000000 0.000000
O O18 0.097815 0.193263 0.382353
O O19 0.000000 0.142088 0.366094
O O20 0.073320 0.000000 0.371204
O O21 0.250000 0.750000 0.750000
O O22 0.097279 0.708035 0.500000
#
# Coordination Sequence:
#
# PCOD8289393 Si02
#       8
#    16  16  16  16   8  16  16  16
#     4   9  18  33  56  85 111 138 176 219 268 328
#     4  10  21  37  54  75 107 143 180 224 273 326
#     4  10  20  36  57  80 108 142 178 221 276 329
#     4   9  19  36  56  80 112 146 180 222 272 328
#     4   9  16  28  50  78 104 132 167 213 270 320
#     4  10  21  36  54  75 105 149 188 219 267 328
#     4  11  22  36  56  81 106 140 184 231 277 324
#     4  10  19  34  54  80 109 138 178 227 272 320
#
# _framework density 19.048781999999999
#
# number of rings (size 3 to 8) (size 9 to 14) (size 15 to 20)
#    0.000    2.200    0.667    2.400    0.000    4.000 
#    0.000    3.333    1.467    0.800    0.000    0.000 
#    0.000    0.000    0.000    0.000    0.000    0.000 
#
# Total GULP energy -743970.638457 kJ/mol
# GULP energy per Si atom -12399.510641 kJ/mol
# Density = 1.900543 g / cm^3
# Si number density = 19.048782 Si / 1000 Ang^3
#
#
#
# Elastic Constant Matrix: (Units=GPa)
#
#
# Indices 1 2 3 4 5 6 
#
# 1 79.6812 34.6925 39.9802 0.0000 0.0000 0.0000
# 2 34.6925 113.7307 43.1830 0.0000 0.0000 0.0000
# 3 39.9802 43.1830 69.9943 0.0000 0.0000 0.0000
# 4 0.0000 0.0000 0.0000 24.4870 0.0000 0.0000
# 5 0.0000 0.0000 0.0000 0.0000 32.4425 0.0000
# 6 0.0000 0.0000 0.0000 0.0000 0.0000 27.7896
#
#
#
# Elastic Compliance Matrix: (Units=1/GPa)
#
#
# Indices 1 2 3 4 5 6 
#
# 1 0.017956 -0.002067 -0.008981 0.000000 0.000000 0.000000
# 2 -0.002067 0.011721 -0.006050 0.000000 0.000000 0.000000
# 3 -0.008981 -0.006050 0.023149 0.000000 0.000000 0.000000
# 4 0.000000 0.000000 0.000000 0.040838 0.000000 0.000000
# 5 0.000000 0.000000 0.000000 0.000000 0.030824 0.000000
# 6 0.000000 0.000000 0.000000 0.000000 0.000000 0.035985
#
#
# Mechanical properties :
#
#
# Convention : Reuss Voigt Hill
#
# Bulk Modulus (GPa) = 53.67915 55.45752 54.56833
# Shear Modulus (GPa) = 24.89050 26.64718 25.76884
#
# Velocity S-wave (km/s) = 3.61871 3.74423 3.68201
# Velocity P-wave (km/s) = 6.76026 6.91874 6.83996
#
# Compressibility (1/GPa) = 0.01862921
#
# Stress axis : x y z
#
# Youngs Moduli (GPa) = 55.69047 85.32037 43.19754
#
# Poissons Ratio (x) = 0.17639 0.38796
# Poissons Ratio (y) = 0.11513 0.26135
# Poissons Ratio (z) = 0.50016 0.51620
#
# Static dielectric constant tensor:
#      x y z
#    x 3.498530 0.000000 0.000000 
#    y 0.000000 3.454500 0.000000 
#    z 0.000000 0.000000 3.372270 
# 
# 
# High freq. dielectric constant tensor:
#      x y z
#    x 1.744520 0.000000 0.000000 
#    y 0.000000 1.740330 0.000000 
#    z 0.000000 0.000000 1.728380 
# 
# From -- ./inp_files/55843.got.cif
#   From: 2010.06.25/outbox.cif.g09.slc.cpg/sg71_28_cif.got.tgz:55843.got - 2010.06.28 04:59:45.
