data_PCOD8289773
_publ_section_title
;
Structure prediction by ZEFSAII (Michael W. Deem and Ramdas Pophale) SiO2 
 PCOD8289773
Probable space group: I M M M
;
_chemical_formula_sum "Si O2"
_cell_formula_units_Z 88
_cell_length_a 18.546084
_cell_length_b 13.216086
_cell_length_c 19.486980
_cell_angle_alpha 90.000000
_cell_angle_beta 90.000000
_cell_angle_gamma 90.000000
_cell_volume 4776.388213
_symmetry_space_group_name_H-M "I M M M"
_symmetry_group_IT_number 71
_symmetry_cell_setting 'orthorhombic'
loop_
_space_group_symop_operation_xyz
x,y,z
-x,-y,z
x,-y,-z
-x,y,-z
-x,-y,-z
x,y,-z
-x,y,z
x,-y,z
1/2+x,1/2+y,1/2+z
1/2-x,1/2-y,1/2+z
1/2+x,1/2-y,1/2-z
1/2-x,1/2+y,1/2-z
1/2-x,1/2-y,1/2-z
1/2+x,1/2+y,1/2-z
1/2-x,1/2+y,1/2+z
1/2+x,1/2-y,1/2+z
loop_
_atom_site_type_symbol
_atom_site_label
_atom_site_fract_x
_atom_site_fract_y
_atom_site_fract_z
Si Si1 0.677332 0.791634 0.080406
Si Si2 0.155306 0.206804 0.080679
Si Si3 0.582278 0.500000 0.418447
Si Si4 0.085038 0.384329 0.164665
Si Si5 0.079953 0.110894 0.418723
Si Si6 0.578157 0.884067 0.815128
O O1 0.760576 0.793774 0.099102
O O2 0.641543 0.686985 0.106826
O O3 0.636561 0.875920 0.124534
O O4 0.663660 0.812192 0.000000
O O5 0.121615 0.307572 0.111927
O O6 0.120818 0.102172 0.109571
O O7 0.142413 0.213855 0.000000
O O8 0.500000 0.500000 0.392437
O O9 0.586729 0.500000 0.500000
O O10 0.113010 0.500000 0.151945
O O11 0.104397 0.341913 0.241079
O O12 0.000000 0.380499 0.152585
O O13 0.080529 0.106979 0.500000
O O14 0.000000 0.144194 0.393509
O O15 0.098555 0.000000 0.388883
O O16 0.500000 0.836399 0.836587
O O17 0.564907 0.000000 0.799727
#
# Coordination Sequence:
#
# PCOD8289773 Si02
#       6
#    16  16   8  16  16  16
#     4  10  20  31  49  77 108 139 174 221 265 311
#     4  10  21  34  53  82 109 138 173 217 273 327
#     4   9  18  34  54  74 101 137 174 210 259 324
#     4   9  19  37  58  78 103 137 177 222 270 320
#     4   8  14  26  44  65  93 133 175 210 251 305
#     4   9  19  35  54  75 102 141 181 217 263 315
#
# _framework density 18.423963000000001
#
# number of rings (size 3 to 8) (size 9 to 14) (size 15 to 20)
#    0.000    2.818    0.000    2.727    1.273    4.364 
#    0.000    3.636    2.000    0.000    0.000    0.000 
#    0.000    0.000    0.000    0.000    0.000    0.000 
#
# Total GULP energy -545211.402631 kJ/mol
# GULP energy per Si atom -12391.168242 kJ/mol
# Density = 1.838203 g / cm^3
# Si number density = 18.423963 Si / 1000 Ang^3
#
#
#
# Elastic Constant Matrix: (Units=GPa)
#
#
# Indices 1 2 3 4 5 6 
#
# 1 127.6478 63.0069 43.8979 0.0000 0.0000 0.0000
# 2 63.0069 105.2982 33.1652 0.0000 0.0000 0.0000
# 3 43.8979 33.1652 48.8446 0.0000 0.0000 0.0000
# 4 0.0000 0.0000 0.0000 23.6424 0.0000 0.0000
# 5 0.0000 0.0000 0.0000 0.0000 39.1059 0.0000
# 6 0.0000 0.0000 0.0000 0.0000 0.0000 -81.0923
#
#
#
# Elastic Compliance Matrix: (Units=1/GPa)
#
#
# Indices 1 2 3 4 5 6 
#
# 1 0.013355 -0.005356 -0.008365 0.000000 0.000000 0.000000
# 2 -0.005356 0.014229 -0.004847 0.000000 0.000000 0.000000
# 3 -0.008365 -0.004847 0.031283 0.000000 0.000000 0.000000
# 4 0.000000 0.000000 0.000000 0.042297 0.000000 0.000000
# 5 0.000000 0.000000 0.000000 0.000000 0.025572 0.000000
# 6 0.000000 0.000000 0.000000 0.000000 0.000000 -0.012332
#
#
# Mechanical properties :
#
#
# Convention : Reuss Voigt Hill
#
# Bulk Modulus (GPa) = 46.02357 62.43673 54.23015
# Shear Modulus (GPa) = 31.48941 5.77924 18.63432
#
# Velocity S-wave (km/s) = 4.13868 1.77302 3.18373
# Velocity P-wave (km/s) = 6.91901 6.17689 6.55845
#
# Compressibility (1/GPa) = 0.02172800
#
# Stress axis : x y z
#
# Youngs Moduli (GPa) = 74.87979 70.28116 31.96657
#
# Poissons Ratio (x) = 0.37644 0.26741
# Poissons Ratio (y) = 0.40107 0.15495
# Poissons Ratio (z) = 0.62640 0.34068
#
# Static dielectric constant tensor:
#      x y z
#    x 3.724090 0.000000 0.000000 
#    y 0.000000 3.605710 0.000000 
#    z 0.000000 0.000000 3.121780 
# 
# 
# High freq. dielectric constant tensor:
#      x y z
#    x 1.714100 0.000000 0.000000 
#    y 0.000000 1.718310 0.000000 
#    z 0.000000 0.000000 1.683800 
# 
# From -- ./inp_files/25682.got.cif
#   From: 2010.06.25/outbox.cif.g09.slc.cpg/sg71_13_cif.got.tgz:25682.got - 2010.06.28 04:59:45.
