data_PCOD8289743
_publ_section_title
;
Structure prediction by ZEFSAII (Michael W. Deem and Ramdas Pophale) SiO2 
 PCOD8289743
Probable space group: I M M M
;
_chemical_formula_sum "Si O2"
_cell_formula_units_Z 96
_cell_length_a 14.078963
_cell_length_b 27.150008
_cell_length_c 13.621635
_cell_angle_alpha 90.000000
_cell_angle_beta 90.000000
_cell_angle_gamma 90.000000
_cell_volume 5206.787678
_symmetry_space_group_name_H-M "I M M M"
_symmetry_group_IT_number 71
_symmetry_cell_setting 'orthorhombic'
loop_
_space_group_symop_operation_xyz
x,y,z
-x,-y,z
x,-y,-z
-x,y,-z
-x,-y,-z
x,y,-z
-x,y,z
x,-y,z
1/2+x,1/2+y,1/2+z
1/2-x,1/2-y,1/2+z
1/2+x,1/2-y,1/2-z
1/2-x,1/2+y,1/2-z
1/2-x,1/2-y,1/2-z
1/2+x,1/2+y,1/2-z
1/2-x,1/2+y,1/2+z
1/2+x,1/2-y,1/2+z
loop_
_atom_site_type_symbol
_atom_site_label
_atom_site_fract_x
_atom_site_fract_y
_atom_site_fract_z
Si Si1 0.889320 0.702406 0.219103
Si Si2 0.606249 0.300035 0.611690
Si Si3 0.709894 0.944151 0.786347
Si Si4 0.204580 0.349087 0.610765
Si Si5 0.896328 0.057387 0.891557
Si Si6 0.889268 0.603105 0.886774
O O1 0.855541 0.754392 0.175836
O O2 0.839354 0.693961 0.323330
O O3 0.863401 0.658832 0.143005
O O4 0.000000 0.703542 0.238730
O O5 0.605005 0.281181 0.500000
O O6 0.500000 0.316677 0.643611
O O7 0.679484 0.345855 0.623786
O O8 0.662478 0.902469 0.856480
O O9 0.822161 0.934171 0.802460
O O10 0.676299 0.934751 0.674994
O O11 0.681876 0.000000 0.817716
O O12 0.173108 0.338688 0.500000
O O13 0.000000 0.081006 0.866442
O O14 0.910152 0.000000 0.904372
O O15 0.860798 0.077740 0.000000
O O16 0.000000 0.591501 0.866262
O O17 0.863694 0.595042 0.000000
#
# Coordination Sequence:
#
# PCOD8289743 Si02
#       6
#    16  16  16  16  16  16
#     4   9  17  31  51  72  96 126 156 190 238 292
#     4   9  17  30  50  75  99 121 149 190 239 286
#     4  10  20  32  47  69  98 131 166 204 246 287
#     4  10  20  31  45  69  99 129 161 196 233 279
#     4   8  14  26  45  66  86 114 155 196 230 270
#     4   9  18  33  53  75  96 121 160 208 252 296
#
# _framework density 18.437472
#
# number of rings (size 3 to 8) (size 9 to 14) (size 15 to 20)
#    0.000    2.833    0.000    2.000    0.000    4.667 
#    0.000    2.500    0.000    2.000    0.000   11.667 
#    0.000    0.000    0.000    0.000    0.000    0.000 
#
# Total GULP energy -594692.134024 kJ/mol
# GULP energy per Si atom -12389.419459 kJ/mol
# Density = 1.839551 g / cm^3
# Si number density = 18.437472 Si / 1000 Ang^3
#
#
#
# Elastic Constant Matrix: (Units=GPa)
#
#
# Indices 1 2 3 4 5 6 
#
# 1 46.5758 18.7545 47.6496 0.0000 0.0000 0.0000
# 2 18.7545 101.0390 45.6642 0.0000 0.0001 0.0000
# 3 47.6496 45.6642 127.3902 -0.0004 0.0002 0.0000
# 4 0.0000 0.0000 -0.0004 20.5423 0.0001 0.0000
# 5 0.0000 0.0001 0.0002 0.0001 30.7678 0.0000
# 6 0.0000 0.0000 0.0000 0.0000 0.0000 22.1462
#
#
#
# Elastic Compliance Matrix: (Units=1/GPa)
#
#
# Indices 1 2 3 4 5 6 
#
# 1 0.034819 -0.000688 -0.012777 0.000000 0.000000 0.000000
# 2 -0.000688 0.011824 -0.003981 0.000000 0.000000 0.000000
# 3 -0.012777 -0.003981 0.014056 0.000000 0.000000 0.000000
# 4 0.000000 0.000000 0.000000 0.048680 0.000000 0.000000
# 5 0.000000 0.000000 0.000000 0.000000 0.032502 0.000000
# 6 0.000000 0.000000 0.000000 0.000000 0.000000 0.045154
#
#
# Mechanical properties :
#
#
# Convention : Reuss Voigt Hill
#
# Bulk Modulus (GPa) = 38.75006 55.46019 47.10512
# Shear Modulus (GPa) = 21.68907 25.55372 23.62140
#
# Velocity S-wave (km/s) = 3.43353 3.72690 3.58322
# Velocity P-wave (km/s) = 6.06477 6.97604 6.53631
#
# Compressibility (1/GPa) = 0.02580641
#
# Stress axis : x y z
#
# Youngs Moduli (GPa) = 28.71965 84.57281 71.14320
#
# Poissons Ratio (x) = 0.05822 0.90901
# Poissons Ratio (y) = 0.01977 0.28322
# Poissons Ratio (z) = 0.36696 0.33668
#
# Static dielectric constant tensor:
#      x y z
#    x 3.445670 0.000000 0.000000 
#    y 0.000000 3.514400 0.000000 
#    z 0.000000 0.000000 3.274790 
# 
# 
# High freq. dielectric constant tensor:
#      x y z
#    x 1.701550 0.000000 0.000000 
#    y 0.000000 1.725310 0.000000 
#    z 0.000000 0.000000 1.693010 
# 
# From -- ./inp_files/24472.got.cif
#   From: 2010.06.25/outbox.cif.g09.slc.cpg/sg71_13_cif.got.tgz:24472.got - 2010.06.28 04:59:45.
