data_PCOD8289348
_publ_section_title
;
Structure prediction by ZEFSAII (Michael W. Deem and Ramdas Pophale) SiO2 
 PCOD8289348
Probable space group: I M M M
;
_chemical_formula_sum "Si O2"
_cell_formula_units_Z 104
_cell_length_a 32.373517
_cell_length_b 9.126057
_cell_length_c 20.061122
_cell_angle_alpha 90.000000
_cell_angle_beta 90.000000
_cell_angle_gamma 90.000000
_cell_volume 5926.909269
_symmetry_space_group_name_H-M "I M M M"
_symmetry_group_IT_number 71
_symmetry_cell_setting 'orthorhombic'
loop_
_space_group_symop_operation_xyz
x,y,z
-x,-y,z
x,-y,-z
-x,y,-z
-x,-y,-z
x,y,-z
-x,y,z
x,-y,z
1/2+x,1/2+y,1/2+z
1/2-x,1/2-y,1/2+z
1/2+x,1/2-y,1/2-z
1/2-x,1/2+y,1/2-z
1/2-x,1/2-y,1/2-z
1/2+x,1/2+y,1/2-z
1/2-x,1/2+y,1/2+z
1/2+x,1/2-y,1/2+z
loop_
_atom_site_type_symbol
_atom_site_label
_atom_site_fract_x
_atom_site_fract_y
_atom_site_fract_z
Si Si1 0.500000 0.658630 0.075640
Si Si2 0.188090 0.826180 0.926641
Si Si3 0.929083 0.332091 0.362294
Si Si4 0.651840 0.673246 0.164946
Si Si5 0.872172 0.827269 0.186614
Si Si6 0.546362 0.832536 0.710809
Si Si7 0.217937 0.671703 0.576674
O O1 0.500000 0.500000 0.114627
O O2 0.540020 0.754805 0.088280
O O3 0.500000 0.616860 0.000000
O O4 0.157211 0.761451 0.871098
O O5 0.234903 0.778902 0.911267
O O6 0.185847 0.000000 0.925815
O O7 0.174893 0.768035 0.000000
O O8 0.922480 0.500000 0.382974
O O9 0.886250 0.248383 0.371862
O O10 0.948414 0.317498 0.289476
O O11 0.650022 0.500000 0.155014
O O12 0.649052 0.716295 0.243188
O O13 0.692818 0.735248 0.130720
O O14 0.917947 0.761625 0.175568
O O15 0.877124 0.000000 0.181043
O O16 0.500000 0.776690 0.691872
O O17 0.551680 0.000000 0.688080
O O18 0.205036 0.706708 0.500000
O O19 0.211761 0.500000 0.591226
#
# Coordination Sequence:
#
# PCOD8289348 Si02
#       7
#     8  16  16  16  16  16  16
#     4  11  23  35  47  67  95 125 158 201 254 299
#     4   8  15  31  54  75  98 129 165 205 244 288
#     4  10  19  34  52  68  89 124 167 205 239 286
#     4  10  20  32  47  73 105 130 156 204 259 299
#     4   9  18  31  49  77 103 126 162 203 248 298
#     4   9  17  31  50  72  97 125 158 197 240 287
#     4   9  18  33  52  71  92 129 176 209 240 291
#
# _framework density 17.547087000000001
#
# number of rings (size 3 to 8) (size 9 to 14) (size 15 to 20)
#    0.000    2.692    0.769    2.077    0.000    3.692 
#    0.000    0.769    0.000    1.846    0.000    3.231 
#    0.000    0.000    0.000    0.000    0.000    0.000 
#
# Total GULP energy -644573.991088 kJ/mol
# GULP energy per Si atom -12395.653675 kJ/mol
# Density = 1.750715 g / cm^3
# Si number density = 17.547087 Si / 1000 Ang^3
#
#
#
# Elastic Constant Matrix: (Units=GPa)
#
#
# Indices 1 2 3 4 5 6 
#
# 1 143.3455 51.9827 73.8621 0.0000 0.0000 0.0000
# 2 51.9827 69.8153 41.5103 0.0000 0.0000 0.0000
# 3 73.8621 41.5103 82.5088 0.0000 0.0000 0.0000
# 4 0.0000 0.0000 0.0000 16.5500 0.0000 0.0000
# 5 0.0000 0.0000 0.0000 0.0000 173.0491 0.0000
# 6 0.0000 0.0000 0.0000 0.0000 0.0000 29.8601
#
#
#
# Elastic Compliance Matrix: (Units=1/GPa)
#
#
# Indices 1 2 3 4 5 6 
#
# 1 0.013749 -0.004165 -0.010213 0.000000 0.000000 0.000000
# 2 -0.004165 0.021698 -0.007188 0.000000 0.000000 0.000000
# 3 -0.010213 -0.007188 0.024879 0.000000 0.000000 0.000000
# 4 0.000000 0.000000 0.000000 0.060423 0.000000 0.000000
# 5 0.000000 0.000000 0.000000 0.000000 0.005779 0.000000
# 6 0.000000 0.000000 0.000000 0.000000 0.000000 0.033490
#
#
# Mechanical properties :
#
#
# Convention : Reuss Voigt Hill
#
# Bulk Modulus (GPa) = 58.15757 70.04220 64.09989
# Shear Modulus (GPa) = 23.93721 52.44612 38.19166
#
# Velocity S-wave (km/s) = 3.69747 5.47300 4.67038
# Velocity P-wave (km/s) = 7.17245 8.94101 8.10511
#
# Compressibility (1/GPa) = 0.01719467
#
# Stress axis : x y z
#
# Youngs Moduli (GPa) = 72.73375 46.08637 40.19509
#
# Poissons Ratio (x) = 0.19194 0.41050
# Poissons Ratio (y) = 0.30292 0.28893
# Poissons Ratio (z) = 0.74280 0.33127
#
# Static dielectric constant tensor:
#      x y z
#    x 3.324250 0.000000 0.000000 
#    y 0.000000 3.138550 0.000000 
#    z 0.000000 0.000000 3.253010 
# 
# 
# High freq. dielectric constant tensor:
#      x y z
#    x 1.684890 0.000000 0.000000 
#    y 0.000000 1.668320 0.000000 
#    z 0.000000 0.000000 1.655510 
# 
# From -- ./inp_files/13335.got.cif
#   From: 2010.06.25/outbox.cif.g09.slc.cpg/sg71_7_cif.got.tgz:13335.got - 2010.06.28 04:59:45.
