data_PCOD8289738
_publ_section_title
;
Structure prediction by ZEFSAII (Michael W. Deem and Ramdas Pophale) SiO2 
 PCOD8289738
Probable space group: I M M M
;
_chemical_formula_sum "Si O2"
_cell_formula_units_Z 80
_cell_length_a 17.729198
_cell_length_b 27.302727
_cell_length_c 9.405243
_cell_angle_alpha 90.000000
_cell_angle_beta 90.000000
_cell_angle_gamma 90.000000
_cell_volume 4552.659160
_symmetry_space_group_name_H-M "I M M M"
_symmetry_group_IT_number 71
_symmetry_cell_setting 'orthorhombic'
loop_
_space_group_symop_operation_xyz
x,y,z
-x,-y,z
x,-y,-z
-x,y,-z
-x,-y,-z
x,y,-z
-x,y,z
x,-y,z
1/2+x,1/2+y,1/2+z
1/2-x,1/2-y,1/2+z
1/2+x,1/2-y,1/2-z
1/2-x,1/2+y,1/2-z
1/2-x,1/2-y,1/2-z
1/2+x,1/2+y,1/2-z
1/2-x,1/2+y,1/2+z
1/2+x,1/2-y,1/2+z
loop_
_atom_site_type_symbol
_atom_site_label
_atom_site_fract_x
_atom_site_fract_y
_atom_site_fract_z
Si Si1 0.274607 0.943121 0.334256
Si Si2 0.586590 0.718037 0.335486
Si Si3 0.582952 0.057983 0.841736
Si Si4 0.312221 0.221246 0.836720
Si Si5 0.706241 0.636638 0.339117
O O1 0.275722 0.932159 0.500000
O O2 0.354730 0.925300 0.271246
O O3 0.208719 0.911038 0.261509
O O4 0.258424 0.000000 0.301234
O O5 0.602058 0.730985 0.500000
O O6 0.500000 0.704600 0.307288
O O7 0.608531 0.765818 0.240543
O O8 0.637332 0.671453 0.289621
O O9 0.500000 0.078558 0.798088
O O10 0.579052 0.000000 0.844687
O O11 0.604660 0.077188 0.000000
O O12 0.250000 0.250000 0.750000
O O13 0.287434 0.164464 0.828767
O O14 0.315292 0.238969 0.000000
O O15 0.691905 0.618959 0.500000
#
# Coordination Sequence:
#
# PCOD8289738 Si02
#       5
#    16  16  16  16  16
#     4  10  20  31  45  68  96 127 166 210 249 285
#     4   9  18  33  53  77 103 128 157 197 244 293
#     4   8  14  26  44  63  83 111 148 189 234 283
#     4   9  17  30  49  73  98 124 156 192 234 286
#     4   9  18  32  50  71  96 129 164 197 236 285
#
# _framework density 17.572147000000001
#
# number of rings (size 3 to 8) (size 9 to 14) (size 15 to 20)
#    0.000    3.000    0.000    3.000    0.000    6.000 
#    0.000    3.000    0.000    1.800    0.000    4.200 
#    0.000    0.000    0.000    0.000    0.000    0.000 
#
# Total GULP energy -495671.652197 kJ/mol
# GULP energy per Si atom -12391.791305 kJ/mol
# Density = 1.753215 g / cm^3
# Si number density = 17.572147 Si / 1000 Ang^3
#
#
#
# Elastic Constant Matrix: (Units=GPa)
#
#
# Indices 1 2 3 4 5 6 
#
# 1 93.6599 37.6140 45.2633 0.0000 0.0000 0.0000
# 2 37.6140 58.0623 46.3231 0.0000 0.0000 0.0000
# 3 45.2633 46.3231 102.3524 0.0000 0.0000 0.0001
# 4 0.0000 0.0000 0.0000 28.1572 0.0000 0.0000
# 5 0.0000 0.0000 0.0000 0.0000 25.9449 0.0000
# 6 0.0000 0.0000 0.0001 0.0000 0.0000 20.0667
#
#
#
# Elastic Compliance Matrix: (Units=1/GPa)
#
#
# Indices 1 2 3 4 5 6 
#
# 1 0.015213 -0.007024 -0.003549 0.000000 0.000000 0.000000
# 2 -0.007024 0.030199 -0.010562 0.000000 0.000000 0.000000
# 3 -0.003549 -0.010562 0.016119 0.000000 0.000000 0.000000
# 4 0.000000 0.000000 0.000000 0.035515 0.000000 0.000000
# 5 0.000000 0.000000 0.000000 0.000000 0.038543 0.000000
# 6 0.000000 0.000000 0.000000 0.000000 0.000000 0.049834
#
#
# Mechanical properties :
#
#
# Convention : Reuss Voigt Hill
#
# Bulk Modulus (GPa) = 51.91221 56.94172 54.42697
# Shear Modulus (GPa) = 21.35724 23.15872 22.25798
#
# Velocity S-wave (km/s) = 3.49005 3.63426 3.56288
# Velocity P-wave (km/s) = 6.77104 7.07710 6.92576
#
# Compressibility (1/GPa) = 0.01926329
#
# Stress axis : x y z
#
# Youngs Moduli (GPa) = 65.73450 33.11330 62.03697
#
# Poissons Ratio (x) = 0.23259 0.22014
# Poissons Ratio (y) = 0.46172 0.65520
# Poissons Ratio (z) = 0.23326 0.34973
#
# Static dielectric constant tensor:
#      x y z
#    x 3.386030 0.000000 0.000000 
#    y 0.000000 3.160590 0.000000 
#    z 0.000000 0.000000 3.446180 
# 
# 
# High freq. dielectric constant tensor:
#      x y z
#    x 1.659020 0.000000 0.000000 
#    y 0.000000 1.654360 0.000000 
#    z 0.000000 0.000000 1.684390 
# 
# From -- ./inp_files/8289.got.cif
#   From: 2010.06.25/outbox.cif.g09.slc.cpg/sg71_5_cif.got.tgz:8289.got - 2010.06.28 04:59:45.
