data_PCOD8289188
_publ_section_title
;
Structure prediction by ZEFSAII (Michael W. Deem and Ramdas Pophale) SiO2 
 PCOD8289188
Probable space group: I M M M
;
_chemical_formula_sum "Si O2"
_cell_formula_units_Z 72
_cell_length_a 27.511346
_cell_length_b 8.681916
_cell_length_c 16.407050
_cell_angle_alpha 90.000000
_cell_angle_beta 90.000000
_cell_angle_gamma 90.000000
_cell_volume 3918.843499
_symmetry_space_group_name_H-M "I M M M"
_symmetry_group_IT_number 71
_symmetry_cell_setting 'orthorhombic'
loop_
_space_group_symop_operation_xyz
x,y,z
-x,-y,z
x,-y,-z
-x,y,-z
-x,-y,-z
x,y,-z
-x,y,z
x,-y,z
1/2+x,1/2+y,1/2+z
1/2-x,1/2-y,1/2+z
1/2+x,1/2-y,1/2-z
1/2-x,1/2+y,1/2-z
1/2-x,1/2-y,1/2-z
1/2+x,1/2+y,1/2-z
1/2-x,1/2+y,1/2+z
1/2+x,1/2-y,1/2+z
loop_
_atom_site_type_symbol
_atom_site_label
_atom_site_fract_x
_atom_site_fract_y
_atom_site_fract_z
Si Si1 0.889877 0.319761 0.661953
Si Si2 0.642038 0.679641 0.588471
Si Si3 0.196786 0.817116 0.245641
Si Si4 0.554854 0.677213 0.305980
Si Si5 0.444218 0.816784 0.000000
O O1 0.879759 0.500000 0.655861
O O2 0.837969 0.238911 0.680539
O O3 0.928441 0.285642 0.732673
O O4 0.914071 0.257213 0.578499
O O5 0.652153 0.757854 0.500000
O O6 0.652611 0.500000 0.581006
O O7 0.676038 0.747328 0.659677
O O8 0.586133 0.710260 0.613103
O O9 0.250000 0.750000 0.250000
O O10 0.198224 0.000000 0.248345
O O11 0.500000 0.716301 0.329156
O O12 0.561968 0.500000 0.277900
O O13 0.500000 0.751940 0.000000
O O14 0.446987 0.000000 0.000000
#
# Coordination Sequence:
#
# PCOD8289188 Si02
#       5
#    16  16  16  16   8
#     4  10  19  33  53  75 101 135 176 218 257 304
#     4   8  15  29  49  73  98 126 163 205 242 287
#     4  10  20  36  56  76 101 131 167 211 261 313
#     4   9  17  29  47  73 104 135 167 205 250 299
#     4   9  18  32  51  77 107 139 179 223 260 305
#
# _framework density 18.372765999999999
#
# number of rings (size 3 to 8) (size 9 to 14) (size 15 to 20)
#    0.000    2.778    0.000    3.333    0.000    1.778 
#    2.000    4.444    0.000   20.000    0.000    6.222 
#    0.000    0.000    0.000    0.000    0.000    0.000 
#
# Total GULP energy -446177.519757 kJ/mol
# GULP energy per Si atom -12393.819993 kJ/mol
# Density = 1.833095 g / cm^3
# Si number density = 18.372766 Si / 1000 Ang^3
#
#
#
# Elastic Constant Matrix: (Units=GPa)
#
#
# Indices 1 2 3 4 5 6 
#
# 1 177.0807 30.8987 72.2655 0.0000 0.0000 0.0000
# 2 30.8987 43.8292 21.8546 0.0000 0.0000 0.0000
# 3 72.2655 21.8546 135.5459 0.0000 0.0000 0.0000
# 4 0.0000 0.0000 0.0000 20.1645 0.0000 0.0000
# 5 0.0000 0.0000 0.0000 0.0000 20.6411 0.0000
# 6 0.0000 0.0000 0.0000 0.0000 0.0000 28.2930
#
#
#
# Elastic Compliance Matrix: (Units=1/GPa)
#
#
# Indices 1 2 3 4 5 6 
#
# 1 0.007730 -0.003691 -0.003526 0.000000 0.000000 0.000000
# 2 -0.003691 0.026573 -0.002316 0.000000 0.000000 0.000000
# 3 -0.003526 -0.002316 0.009631 0.000000 0.000000 0.000000
# 4 0.000000 0.000000 0.000000 0.049592 0.000000 0.000000
# 5 0.000000 0.000000 0.000000 0.000000 0.048447 0.000000
# 6 0.000000 0.000000 0.000000 0.000000 0.000000 0.035344
#
#
# Mechanical properties :
#
#
# Convention : Reuss Voigt Hill
#
# Bulk Modulus (GPa) = 40.21481 67.38817 53.80149
# Shear Modulus (GPa) = 24.42897 29.24884 26.83890
#
# Velocity S-wave (km/s) = 3.65036 3.99427 3.82619
# Velocity P-wave (km/s) = 6.30101 7.61776 6.99045
#
# Compressibility (1/GPa) = 0.02486646
#
# Stress axis : x y z
#
# Youngs Moduli (GPa) = 129.36167 37.63182 103.83115
#
# Poissons Ratio (x) = 0.13892 0.36613
# Poissons Ratio (y) = 0.47753 0.24052
# Poissons Ratio (z) = 0.45615 0.08717
#
# Static dielectric constant tensor:
#      x y z
#    x 3.571370 0.000000 0.000000 
#    y 0.000000 3.101160 0.000000 
#    z 0.000000 0.000000 3.679910 
# 
# 
# High freq. dielectric constant tensor:
#      x y z
#    x 1.717420 0.000000 0.000000 
#    y 0.000000 1.683640 0.000000 
#    z 0.000000 0.000000 1.710560 
# 
# From -- ./inp_files/6438.got.cif
#   From: 2010.06.25/outbox.cif.g09.slc.cpg/sg71_4_cif.got.tgz:6438.got - 2010.06.28 04:59:45.
