data_PCOD8289955
_publ_section_title
;
Structure prediction by ZEFSAII (Michael W. Deem and Ramdas Pophale) SiO2 
 PCOD8289955
Probable space group: I M M M
;
_chemical_formula_sum "Si O2"
_cell_formula_units_Z 112
_cell_length_a 22.125777
_cell_length_b 17.634680
_cell_length_c 17.520056
_cell_angle_alpha 90.000000
_cell_angle_beta 90.000000
_cell_angle_gamma 90.000000
_cell_volume 6835.992920
_symmetry_space_group_name_H-M "I M M M"
_symmetry_group_IT_number 71
_symmetry_cell_setting 'orthorhombic'
loop_
_space_group_symop_operation_xyz
x,y,z
-x,-y,z
x,-y,-z
-x,y,-z
-x,-y,-z
x,y,-z
-x,y,z
x,-y,z
1/2+x,1/2+y,1/2+z
1/2-x,1/2-y,1/2+z
1/2+x,1/2-y,1/2-z
1/2-x,1/2+y,1/2-z
1/2-x,1/2-y,1/2-z
1/2+x,1/2+y,1/2-z
1/2-x,1/2+y,1/2+z
1/2+x,1/2-y,1/2+z
loop_
_atom_site_type_symbol
_atom_site_label
_atom_site_fract_x
_atom_site_fract_y
_atom_site_fract_z
Si Si1 0.931265 0.729631 0.216955
Si Si2 0.868920 0.416400 0.780748
Si Si3 0.756156 0.287909 0.413202
Si Si4 0.066721 0.914719 0.590018
Si Si5 0.159469 0.819818 0.682065
Si Si6 0.741935 0.413610 0.704913
Si Si7 0.360301 0.816236 0.584901
O O1 0.918626 0.644282 0.249363
O O2 0.887751 0.788691 0.257149
O O3 0.914146 0.730794 0.126735
O O4 0.000000 0.753541 0.230259
O O5 0.898180 0.500000 0.782965
O O6 0.812172 0.415223 0.725108
O O7 0.847663 0.392840 0.866572
O O8 0.779147 0.303692 0.500000
O O9 0.807472 0.248772 0.361408
O O10 0.735726 0.366800 0.373927
O O11 0.699868 0.232456 0.416454
O O12 0.072395 0.913992 0.500000
O O13 0.121906 0.866243 0.620658
O O14 0.000000 0.883129 0.613975
O O15 0.073306 0.000000 0.621461
O O16 0.206266 0.873325 0.726284
O O17 0.717966 0.500000 0.693222
O O18 0.381427 0.837840 0.500000
#
# Coordination Sequence:
#
# PCOD8289955 Si02
#       7
#    16  16  16  16  16  16  16
#     4  10  20  32  51  73  99 137 174 206 240 288
#     4   9  18  33  50  72 102 132 164 205 248 292
#     4  11  20  34  54  75 102 133 162 210 261 302
#     4   9  19  34  49  70 102 134 163 198 242 295
#     4  12  18  34  51  78 101 127 166 211 247 304
#     4  11  20  34  54  75 102 133 162 210 261 302
#     4   9  18  33  50  72 102 132 164 205 248 292
#
# _framework density 16.383866999999999
#
# number of rings (size 3 to 8) (size 9 to 14) (size 15 to 20)
#    0.857    1.000    4.286    2.143    0.000    1.143 
#    0.000    0.000    0.000    0.857    0.000    0.000 
#    0.000    4.571    0.000    0.000    0.000    0.000 
#
# Total GULP energy -693896.830793 kJ/mol
# GULP energy per Si atom -12391.014836 kJ/mol
# Density = 1.634658 g / cm^3
# Si number density = 16.383867 Si / 1000 Ang^3
#
#
#
# Elastic Constant Matrix: (Units=GPa)
#
#
# Indices 1 2 3 4 5 6 
#
# 1 57.7663 7.1203 6.2677 0.0000 0.0000 0.0000
# 2 7.1203 58.8608 14.7783 0.0000 0.0000 0.0000
# 3 6.2677 14.7783 49.8694 0.0000 0.0000 0.0000
# 4 0.0000 0.0000 0.0000 16.5789 0.0000 0.0000
# 5 0.0000 0.0000 0.0000 0.0000 17.8743 0.0000
# 6 0.0000 0.0000 0.0000 0.0000 0.0000 15.6011
#
#
#
# Elastic Compliance Matrix: (Units=1/GPa)
#
#
# Indices 1 2 3 4 5 6 
#
# 1 0.017708 -0.001711 -0.001719 0.000000 0.000000 0.000000
# 2 -0.001711 0.018520 -0.005273 0.000000 0.000000 0.000000
# 3 -0.001719 -0.005273 0.021831 0.000000 0.000000 0.000000
# 4 0.000000 0.000000 0.000000 0.060318 0.000000 0.000000
# 5 0.000000 0.000000 0.000000 0.000000 0.055946 0.000000
# 6 0.000000 0.000000 0.000000 0.000000 0.000000 0.064098
#
#
# Mechanical properties :
#
#
# Convention : Reuss Voigt Hill
#
# Bulk Modulus (GPa) = 24.59755 24.75878 24.67816
# Shear Modulus (GPa) = 18.56127 19.23288 18.89708
#
# Velocity S-wave (km/s) = 3.36951 3.42993 3.39985
# Velocity P-wave (km/s) = 5.49400 5.55251 5.52333
#
# Compressibility (1/GPa) = 0.04065446
#
# Stress axis : x y z
#
# Youngs Moduli (GPa) = 56.47011 53.99531 45.80626
#
# Poissons Ratio (x) = 0.09237 0.07873
# Poissons Ratio (y) = 0.09660 0.24155
# Poissons Ratio (z) = 0.09706 0.28473
#
# Static dielectric constant tensor:
#      x y z
#    x 3.009500 0.000000 0.000000 
#    y 0.000000 3.171500 0.000000 
#    z 0.000000 0.000000 3.161800 
# 
# 
# High freq. dielectric constant tensor:
#      x y z
#    x 1.621140 0.000000 0.000000 
#    y 0.000000 1.626270 0.000000 
#    z 0.000000 0.000000 1.622510 
# 
# From -- ./inp_files/48358.got.cif
#   From: 2010.06.25/outbox.cif.g09.slc.cpg/sg71_25_cif.got.tgz:48358.got - 2010.06.28 04:59:45.
