data_PCOD8289514
_publ_section_title
;
Structure prediction by ZEFSAII (Michael W. Deem and Ramdas Pophale) SiO2 
 PCOD8289514
Probable space group: I M M M
;
_chemical_formula_sum "Si O2"
_cell_formula_units_Z 104
_cell_length_a 16.794415
_cell_length_b 18.104879
_cell_length_c 17.640658
_cell_angle_alpha 90.000000
_cell_angle_beta 90.000000
_cell_angle_gamma 90.000000
_cell_volume 5363.833492
_symmetry_space_group_name_H-M "I M M M"
_symmetry_group_IT_number 71
_symmetry_cell_setting 'orthorhombic'
loop_
_space_group_symop_operation_xyz
x,y,z
-x,-y,z
x,-y,-z
-x,y,-z
-x,-y,-z
x,y,-z
-x,y,z
x,-y,z
1/2+x,1/2+y,1/2+z
1/2-x,1/2-y,1/2+z
1/2+x,1/2-y,1/2-z
1/2-x,1/2+y,1/2-z
1/2-x,1/2-y,1/2-z
1/2+x,1/2+y,1/2-z
1/2-x,1/2+y,1/2+z
1/2+x,1/2-y,1/2+z
loop_
_atom_site_type_symbol
_atom_site_label
_atom_site_fract_x
_atom_site_fract_y
_atom_site_fract_z
Si Si1 0.640759 0.848057 0.413687
Si Si2 0.151024 0.824304 0.087555
Si Si3 0.000000 0.916368 0.909962
Si Si4 0.293113 0.195841 0.190762
Si Si5 0.695505 0.580602 0.911703
Si Si6 0.588291 0.085087 0.729791
Si Si7 0.091030 0.209830 0.411270
O O1 0.623138 0.871880 0.500000
O O2 0.627555 0.761122 0.402871
O O3 0.730333 0.868522 0.387181
O O4 0.582059 0.892941 0.359070
O O5 0.227191 0.843824 0.138569
O O6 0.078327 0.873616 0.118916
O O7 0.170825 0.842331 0.000000
O O8 0.000000 0.000000 0.878243
O O9 0.000000 0.915729 0.000000
O O10 0.250000 0.250000 0.250000
O O11 0.343039 0.132827 0.231986
O O12 0.354726 0.236735 0.136918
O O13 0.695509 0.500000 0.870772
O O14 0.615099 0.625210 0.891888
O O15 0.701344 0.566462 0.000000
O O16 0.500000 0.098789 0.764920
O O17 0.612484 0.000000 0.738373
O O18 0.105751 0.226537 0.500000
O O19 0.000000 0.221483 0.387939
#
# Coordination Sequence:
#
# PCOD8289514 Si02
#       7
#    16  16   8  16  16  16  16
#     4  10  19  34  59  88 114 148 200 247 289 351
#     4  10  20  36  63  92 119 150 192 241 293 353
#     4   9  20  38  60  92 125 147 176 234 304 353
#     4  12  22  38  60  88 112 156 201 245 292 347
#     4   9  16  28  49  79 114 148 186 237 293 345
#     4  11  25  41  56  81 122 164 199 242 298 353
#     4  10  20  35  56  83 114 151 199 252 297 346
#
# _framework density 19.389116999999999
#
# number of rings (size 3 to 8) (size 9 to 14) (size 15 to 20)
#    0.000    1.769    3.077    1.385    1.077    2.154 
#    1.385    2.308    0.000    1.385    0.000    5.385 
#    0.000    0.000    0.000    0.000    0.000    0.000 
#
# Total GULP energy -644613.563401 kJ/mol
# GULP energy per Si atom -12396.414681 kJ/mol
# Density = 1.934499 g / cm^3
# Si number density = 19.389117 Si / 1000 Ang^3
#
#
#
# Elastic Constant Matrix: (Units=GPa)
#
#
# Indices 1 2 3 4 5 6 
#
# 1 153.2610 87.3977 59.2999 0.0000 0.0000 0.0000
# 2 87.3977 139.9661 48.3474 0.0000 0.0000 0.0000
# 3 59.2999 48.3474 68.0225 0.0000 0.0000 0.0000
# 4 0.0000 0.0000 0.0000 16.2793 0.0000 0.0000
# 5 0.0000 0.0000 0.0000 0.0000 25.9101 0.0000
# 6 0.0000 0.0000 0.0000 0.0000 0.0000 32.5151
#
#
#
# Elastic Compliance Matrix: (Units=1/GPa)
#
#
# Indices 1 2 3 4 5 6 
#
# 1 0.012169 -0.005214 -0.006902 0.000000 0.000000 0.000000
# 2 -0.005214 0.011704 -0.003773 0.000000 0.000000 0.000000
# 3 -0.006902 -0.003773 0.023400 0.000000 0.000000 0.000000
# 4 0.000000 0.000000 0.000000 0.061428 0.000000 0.000000
# 5 0.000000 0.000000 0.000000 0.000000 0.038595 0.000000
# 6 0.000000 0.000000 0.000000 0.000000 0.000000 0.030755
#
#
# Mechanical properties :
#
#
# Convention : Reuss Voigt Hill
#
# Bulk Modulus (GPa) = 64.54329 83.48217 74.01273
# Shear Modulus (GPa) = 23.25649 26.02122 24.63885
#
# Velocity S-wave (km/s) = 3.46708 3.66738 3.56864
# Velocity P-wave (km/s) = 7.02767 7.81553 7.43205
#
# Compressibility (1/GPa) = 0.01549348
#
# Stress axis : x y z
#
# Youngs Moduli (GPa) = 82.17596 85.44280 42.73520
#
# Poissons Ratio (x) = 0.44553 0.29498
# Poissons Ratio (y) = 0.42849 0.16123
# Poissons Ratio (z) = 0.56722 0.32236
#
# Static dielectric constant tensor:
#      x y z
#    x 3.701810 0.000000 0.000000 
#    y 0.000000 3.603540 0.000000 
#    z 0.000000 0.000000 3.508320 
# 
# 
# High freq. dielectric constant tensor:
#      x y z
#    x 1.761550 0.000000 0.000000 
#    y 0.000000 1.750440 0.000000 
#    z 0.000000 0.000000 1.735420 
# 
# From -- ./inp_files/46132.got.cif
#   From: 2010.06.25/outbox.cif.g09.slc.cpg/sg71_24_cif.got.tgz:46132.got - 2010.06.28 04:59:45.
