data_PCOD8289250
_publ_section_title
;
Structure prediction by ZEFSAII (Michael W. Deem and Ramdas Pophale) SiO2 
 PCOD8289250
Probable space group: I M M M
;
_chemical_formula_sum "Si O2"
_cell_formula_units_Z 96
_cell_length_a 23.495594
_cell_length_b 25.087154
_cell_length_c 9.170196
_cell_angle_alpha 90.000000
_cell_angle_beta 90.000000
_cell_angle_gamma 90.000000
_cell_volume 5405.258184
_symmetry_space_group_name_H-M "I M M M"
_symmetry_group_IT_number 71
_symmetry_cell_setting 'orthorhombic'
loop_
_space_group_symop_operation_xyz
x,y,z
-x,-y,z
x,-y,-z
-x,y,-z
-x,-y,-z
x,y,-z
-x,y,z
x,-y,z
1/2+x,1/2+y,1/2+z
1/2-x,1/2-y,1/2+z
1/2+x,1/2-y,1/2-z
1/2-x,1/2+y,1/2-z
1/2-x,1/2-y,1/2-z
1/2+x,1/2+y,1/2-z
1/2-x,1/2+y,1/2+z
1/2+x,1/2-y,1/2+z
loop_
_atom_site_type_symbol
_atom_site_label
_atom_site_fract_x
_atom_site_fract_y
_atom_site_fract_z
Si Si1 0.743749 0.938134 0.829711
Si Si2 0.435996 0.500000 0.673776
Si Si3 0.064122 0.811104 0.330455
Si Si4 0.063457 0.500000 0.173166
Si Si5 0.131806 0.101354 0.171017
Si Si6 0.065185 0.312288 0.331820
Si Si7 0.634732 0.100702 0.673167
O O1 0.802722 0.909350 0.791595
O O2 0.697304 0.906441 0.737550
O O3 0.746674 0.000000 0.782443
O O4 0.729389 0.933511 0.000000
O O5 0.500000 0.500000 0.733183
O O6 0.433072 0.500000 0.500000
O O7 0.404834 0.447672 0.734655
O O8 0.069813 0.824078 0.500000
O O9 0.111113 0.844427 0.244547
O O10 0.076981 0.749435 0.300034
O O11 0.000000 0.825129 0.277164
O O12 0.095988 0.552038 0.230376
O O13 0.000000 0.500000 0.239475
O O14 0.061115 0.500000 0.000000
O O15 0.122115 0.107069 0.000000
O O16 0.077741 0.325970 0.500000
O O17 0.107440 0.344762 0.228960
O O18 0.000000 0.326658 0.293207
O O19 0.638799 0.102240 0.500000
#
# Coordination Sequence:
#
# PCOD8289250 Si02
#       7
#    16   8  16   8  16  16  16
#     4  10  20  36  55  75 106 146 184 221 263 314
#     4   9  16  27  47  77 109 135 164 213 270 315
#     4   9  19  36  56  79 110 144 175 216 271 322
#     4   9  18  31  47  73 109 137 158 203 268 319
#     4  10  19  33  54  80 106 139 183 223 263 314
#     4   9  19  37  58  79 107 143 179 216 265 322
#     4  11  21  34  54  80 109 140 178 220 268 320
#
# _framework density 17.760484000000002
#
# number of rings (size 3 to 8) (size 9 to 14) (size 15 to 20)
#    0.000    2.333    1.667    2.500    0.000    3.333 
#    0.000    2.917    0.000    3.500    0.000    0.000 
#    0.000    0.000    0.000    0.000    0.000    0.000 
#
# Total GULP energy -595288.540782 kJ/mol
# GULP energy per Si atom -12401.844600 kJ/mol
# Density = 1.772006 g / cm^3
# Si number density = 17.760484 Si / 1000 Ang^3
#
#
#
# Elastic Constant Matrix: (Units=GPa)
#
#
# Indices 1 2 3 4 5 6 
#
# 1 143.6325 77.4815 62.1312 0.0000 0.0000 0.0000
# 2 77.4815 106.6114 48.4003 0.0000 0.0000 0.0000
# 3 62.1312 48.4003 55.2053 0.0000 0.0000 0.0000
# 4 0.0000 0.0000 0.0000 29.4047 0.0000 0.0000
# 5 0.0000 0.0000 0.0000 0.0000 29.4766 0.0000
# 6 0.0000 0.0000 0.0000 0.0000 0.0000 29.3568
#
#
#
# Elastic Compliance Matrix: (Units=1/GPa)
#
#
# Indices 1 2 3 4 5 6 
#
# 1 0.015277 -0.005477 -0.012392 0.000000 0.000000 0.000000
# 2 -0.005477 0.017546 -0.009218 0.000000 0.000000 0.000000
# 3 -0.012392 -0.009218 0.040143 0.000000 0.000000 0.000000
# 4 0.000000 0.000000 0.000000 0.034008 0.000000 0.000000
# 5 0.000000 0.000000 0.000000 0.000000 0.033925 0.000000
# 6 0.000000 0.000000 0.000000 0.000000 0.000000 0.034064
#
#
# Mechanical properties :
#
#
# Convention : Reuss Voigt Hill
#
# Bulk Modulus (GPa) = 53.21790 75.71948 64.46869
# Shear Modulus (GPa) = 21.24039 25.47671 23.35855
#
# Velocity S-wave (km/s) = 3.46198 3.79154 3.63050
# Velocity P-wave (km/s) = 6.78304 7.86727 7.34519
#
# Compressibility (1/GPa) = 0.01879067
#
# Stress axis : x y z
#
# Youngs Moduli (GPa) = 65.45709 56.99459 24.91118
#
# Poissons Ratio (x) = 0.31217 0.30869
# Poissons Ratio (y) = 0.35852 0.22964
# Poissons Ratio (z) = 0.81113 0.52540
#
# Static dielectric constant tensor:
#      x y z
#    x 3.333510 0.000000 0.000000 
#    y 0.000000 3.254250 0.000000 
#    z 0.000000 0.000000 3.026580 
# 
# 
# High freq. dielectric constant tensor:
#      x y z
#    x 1.691860 0.000000 0.000000 
#    y 0.000000 1.688520 0.000000 
#    z 0.000000 0.000000 1.667900 
# 
# From -- ./inp_files/12914.got.cif
#   From: 2010.06.25/outbox.cif.g09.slc.cpg/sg71_7_cif.got.tgz:12914.got - 2010.06.28 04:59:45.
