data_PCOD8289263
_publ_section_title
;
Structure prediction by ZEFSAII (Michael W. Deem and Ramdas Pophale) SiO2 
 PCOD8289263
Probable space group: I M M M
;
_chemical_formula_sum "Si O2"
_cell_formula_units_Z 104
_cell_length_a 32.878218
_cell_length_b 18.695856
_cell_length_c 8.804976
_cell_angle_alpha 90.000000
_cell_angle_beta 90.000000
_cell_angle_gamma 90.000000
_cell_volume 5412.299257
_symmetry_space_group_name_H-M "I M M M"
_symmetry_group_IT_number 71
_symmetry_cell_setting 'orthorhombic'
loop_
_space_group_symop_operation_xyz
x,y,z
-x,-y,z
x,-y,-z
-x,y,-z
-x,-y,-z
x,y,-z
-x,y,z
x,-y,z
1/2+x,1/2+y,1/2+z
1/2-x,1/2-y,1/2+z
1/2+x,1/2-y,1/2-z
1/2-x,1/2+y,1/2-z
1/2-x,1/2-y,1/2-z
1/2+x,1/2+y,1/2-z
1/2-x,1/2+y,1/2+z
1/2+x,1/2-y,1/2+z
loop_
_atom_site_type_symbol
_atom_site_label
_atom_site_fract_x
_atom_site_fract_y
_atom_site_fract_z
Si Si1 0.736873 0.920033 0.820153
Si Si2 0.335224 0.178271 0.179122
Si Si3 0.188591 0.173847 0.821583
Si Si4 0.544444 0.330464 0.821116
Si Si5 0.073449 0.321878 0.319187
Si Si6 0.500000 0.080767 0.818873
Si Si7 0.620386 0.582608 0.176173
O O1 0.692858 0.888740 0.774202
O O2 0.772034 0.867996 0.755604
O O3 0.741126 0.000000 0.750482
O O4 0.741264 0.924364 0.000000
O O5 0.314991 0.249062 0.246575
O O6 0.380791 0.162161 0.240744
O O7 0.336425 0.189935 0.000000
O O8 0.149577 0.126744 0.783892
O O9 0.192160 0.184799 0.000000
O O10 0.500000 0.347471 0.751285
O O11 0.561124 0.255750 0.754486
O O12 0.574472 0.395255 0.780252
O O13 0.540658 0.321305 0.000000
O O14 0.073087 0.322801 0.500000
O O15 0.040807 0.379807 0.257903
O O16 0.500000 0.000000 0.755606
O O17 0.500000 0.081430 0.000000
O O18 0.626195 0.500000 0.212437
O O19 0.629501 0.600583 0.000000
#
# Coordination Sequence:
#
# PCOD8289263 Si02
#       7
#    16  16  16  16  16   8  16
#     4   9  19  34  51  74 103 134 168 210 263 316
#     4  10  19  33  55  77 100 131 173 218 255 301
#     4  11  21  34  53  75 103 138 173 210 257 310
#     4   9  15  26  46  70  99 130 162 202 251 300
#     4   9  15  25  43  67  96 131 161 196 246 294
#     4   9  16  24  38  70 110 136 159 198 253 310
#     4  10  20  33  51  77 104 132 172 215 253 301
#
# _framework density 19.215492999999999
#
# number of rings (size 3 to 8) (size 9 to 14) (size 15 to 20)
#    0.000    2.385    2.308    1.385    0.000    1.846 
#    0.000    5.385    0.000    2.769    0.000    1.077 
#    0.000    0.615    0.000    0.000    0.000    0.000 
#
# Total GULP energy -644632.543176 kJ/mol
# GULP energy per Si atom -12396.779676 kJ/mol
# Density = 1.917176 g / cm^3
# Si number density = 19.215493 Si / 1000 Ang^3
#
#
#
# Elastic Constant Matrix: (Units=GPa)
#
#
# Indices 1 2 3 4 5 6 
#
# 1 144.5936 48.1230 15.8573 0.0000 0.0000 0.0000
# 2 48.1230 115.4006 14.9908 0.0000 0.0000 0.0000
# 3 15.8573 14.9908 14.4068 0.0000 0.0000 0.0000
# 4 0.0000 0.0000 0.0000 16.7947 0.0000 0.0000
# 5 0.0000 0.0000 0.0000 0.0000 12.2054 0.0000
# 6 0.0000 0.0000 0.0000 0.0000 0.0000 31.2575
#
#
#
# Elastic Compliance Matrix: (Units=1/GPa)
#
#
# Indices 1 2 3 4 5 6 
#
# 1 0.008538 -0.002705 -0.006583 0.000000 0.000000 0.000000
# 2 -0.002705 0.010877 -0.008340 0.000000 0.000000 0.000000
# 3 -0.006583 -0.008340 0.085335 0.000000 0.000000 0.000000
# 4 0.000000 0.000000 0.000000 0.059543 0.000000 0.000000
# 5 0.000000 0.000000 0.000000 0.000000 0.081931 0.000000
# 6 0.000000 0.000000 0.000000 0.000000 0.000000 0.031992
#
#
# Mechanical properties :
#
#
# Convention : Reuss Voigt Hill
#
# Bulk Modulus (GPa) = 14.38974 48.03813 31.21394
# Shear Modulus (GPa) = 14.85274 25.08017 19.96646
#
# Velocity S-wave (km/s) = 2.78323 3.61668 3.22698
# Velocity P-wave (km/s) = 4.22295 6.51878 5.49217
#
# Compressibility (1/GPa) = 0.06949395
#
# Stress axis : x y z
#
# Youngs Moduli (GPa) = 117.11979 91.93667 11.71846
#
# Poissons Ratio (x) = 0.24873 0.07714
# Poissons Ratio (y) = 0.31686 0.09773
# Poissons Ratio (z) = 0.77098 0.76677
#
# Static dielectric constant tensor:
#      x y z
#    x 3.917720 0.000000 0.000000 
#    y 0.000000 3.663400 0.000000 
#    z 0.000000 0.000000 2.934040 
# 
# 
# High freq. dielectric constant tensor:
#      x y z
#    x 1.767450 0.000000 0.000000 
#    y 0.000000 1.751770 0.000000 
#    z 0.000000 0.000000 1.679680 
# 
# From -- ./inp_files/17054.got.cif
#   From: 2010.06.25/outbox.cif.g09.slc.cpg/sg71_9_cif.got.tgz:17054.got - 2010.06.28 04:59:45.
