data_PCOD8289490
_publ_section_title
;
Structure prediction by ZEFSAII (Michael W. Deem and Ramdas Pophale) SiO2 
 PCOD8289490
Probable space group: I M M M
;
_chemical_formula_sum "Si O2"
_cell_formula_units_Z 104
_cell_length_a 10.730455
_cell_length_b 17.703052
_cell_length_c 27.505625
_cell_angle_alpha 90.000000
_cell_angle_beta 90.000000
_cell_angle_gamma 90.000000
_cell_volume 5225.018113
_symmetry_space_group_name_H-M "I M M M"
_symmetry_group_IT_number 71
_symmetry_cell_setting 'orthorhombic'
loop_
_space_group_symop_operation_xyz
x,y,z
-x,-y,z
x,-y,-z
-x,y,-z
-x,-y,-z
x,y,-z
-x,y,z
x,-y,z
1/2+x,1/2+y,1/2+z
1/2-x,1/2-y,1/2+z
1/2+x,1/2-y,1/2-z
1/2-x,1/2+y,1/2-z
1/2-x,1/2-y,1/2-z
1/2+x,1/2+y,1/2-z
1/2-x,1/2+y,1/2+z
1/2+x,1/2-y,1/2+z
loop_
_atom_site_type_symbol
_atom_site_label
_atom_site_fract_x
_atom_site_fract_y
_atom_site_fract_z
Si Si1 0.862339 0.088255 0.295405
Si Si2 0.645471 0.147552 0.947894
Si Si3 0.853048 0.582987 0.350027
Si Si4 0.137573 0.324561 0.151147
Si Si5 0.728347 0.316536 0.944468
Si Si6 0.701044 0.689746 0.712622
Si Si7 0.000000 0.916201 0.557739
O O1 0.748803 0.127057 0.324583
O O2 0.878560 0.127784 0.242330
O O3 0.000000 0.097698 0.320911
O O4 0.830583 0.000000 0.288796
O O5 0.500000 0.130802 0.949455
O O6 0.705819 0.101723 0.903168
O O7 0.664381 0.235911 0.940311
O O8 0.704662 0.122141 0.000000
O O9 0.805492 0.500000 0.334445
O O10 0.815586 0.645201 0.311088
O O11 0.000000 0.585609 0.353422
O O12 0.156581 0.322047 0.092823
O O13 0.130514 0.238100 0.171234
O O14 0.000000 0.360754 0.160674
O O15 0.625629 0.375554 0.925023
O O16 0.772803 0.333463 0.000000
O O17 0.750000 0.750000 0.750000
O O18 0.000000 0.917286 0.500000
O O19 0.000000 0.000000 0.580370
#
# Coordination Sequence:
#
# PCOD8289490 Si02
#       7
#    16  16  16  16  16  16   8
#     4  10  23  42  64  88 115 151 196 248 303 358
#     4   9  16  29  52  84 121 160 199 241 292 349
#     4  10  20  33  55  89 125 160 197 244 303 360
#     4  11  24  39  60  90 121 157 197 241 298 358
#     4  10  19  34  57  85 120 160 199 244 294 349
#     4  10  21  38  58  82 112 152 197 245 294 352
#     4   9  18  32  54  86 117 151 201 253 298 346
#
# _framework density 19.904239
#
# number of rings (size 3 to 8) (size 9 to 14) (size 15 to 20)
#    0.000    2.077    2.308    0.923    1.077    6.462 
#    0.000    1.538    0.000    0.000    0.000    3.231 
#    0.000    2.462    0.000    0.000    0.000    0.000 
#
# Total GULP energy -644203.522312 kJ/mol
# GULP energy per Si atom -12388.529275 kJ/mol
# Density = 1.985894 g / cm^3
# Si number density = 19.904239 Si / 1000 Ang^3
#
#
#
# Elastic Constant Matrix: (Units=GPa)
#
#
# Indices 1 2 3 4 5 6 
#
# 1 98.8844 41.4861 49.5280 0.0000 0.0000 0.0000
# 2 41.4861 115.2472 53.8860 0.0000 0.0000 0.0000
# 3 49.5280 53.8860 112.3069 0.0000 0.0000 0.0000
# 4 0.0000 0.0000 0.0000 26.0060 0.0000 0.0000
# 5 0.0000 0.0000 0.0000 0.0000 24.5675 0.0000
# 6 0.0000 0.0000 0.0000 0.0000 0.0000 21.1190
#
#
#
# Elastic Compliance Matrix: (Units=1/GPa)
#
#
# Indices 1 2 3 4 5 6 
#
# 1 0.013600 -0.002696 -0.004704 0.000000 0.000000 0.000000
# 2 -0.002696 0.011721 -0.004435 0.000000 0.000000 0.000000
# 3 -0.004704 -0.004435 0.013107 0.000000 0.000000 0.000000
# 4 0.000000 0.000000 0.000000 0.038453 0.000000 0.000000
# 5 0.000000 0.000000 0.000000 0.000000 0.040704 0.000000
# 6 0.000000 0.000000 0.000000 0.000000 0.000000 0.047351
#
#
# Mechanical properties :
#
#
# Convention : Reuss Voigt Hill
#
# Bulk Modulus (GPa) = 67.76193 68.47096 68.11644
# Shear Modulus (GPa) = 25.83645 26.44105 26.13875
#
# Velocity S-wave (km/s) = 3.60674 3.64869 3.62778
# Velocity P-wave (km/s) = 7.17375 7.22672 7.20028
#
# Compressibility (1/GPa) = 0.01475755
#
# Stress axis : x y z
#
# Youngs Moduli (GPa) = 73.52884 85.31549 76.29744
#
# Poissons Ratio (x) = 0.23003 0.35891
# Poissons Ratio (y) = 0.19825 0.33837
# Poissons Ratio (z) = 0.34588 0.37837
#
# Static dielectric constant tensor:
#      x y z
#    x 3.251340 0.000000 0.000000 
#    y 0.000000 3.827710 0.000000 
#    z 0.000000 0.000000 4.018470 
# 
# 
# High freq. dielectric constant tensor:
#      x y z
#    x 1.736760 0.000000 0.000000 
#    y 0.000000 1.777550 0.000000 
#    z 0.000000 0.000000 1.789780 
# 
# From -- ./inp_files/64665.got.cif
#   From: 2010.06.25/outbox.cif.g09.slc.cpg/sg71_33_cif.got.tgz:64665.got - 2010.06.28 04:59:45.
