data_PCOD8289053
_publ_section_title
;
Structure prediction by ZEFSAII (Michael W. Deem and Ramdas Pophale) SiO2 
 PCOD8289053
Probable space group: I M M M
;
_chemical_formula_sum "Si O2"
_cell_formula_units_Z 72
_cell_length_a 23.413614
_cell_length_b 10.470641
_cell_length_c 14.232472
_cell_angle_alpha 90.000000
_cell_angle_beta 90.000000
_cell_angle_gamma 90.000000
_cell_volume 3489.169454
_symmetry_space_group_name_H-M "I M M M"
_symmetry_group_IT_number 71
_symmetry_cell_setting 'orthorhombic'
loop_
_space_group_symop_operation_xyz
x,y,z
-x,-y,z
x,-y,-z
-x,y,-z
-x,-y,-z
x,y,-z
-x,y,z
x,-y,z
1/2+x,1/2+y,1/2+z
1/2-x,1/2-y,1/2+z
1/2+x,1/2-y,1/2-z
1/2-x,1/2+y,1/2-z
1/2-x,1/2-y,1/2-z
1/2+x,1/2+y,1/2-z
1/2-x,1/2+y,1/2+z
1/2+x,1/2-y,1/2+z
loop_
_atom_site_type_symbol
_atom_site_label
_atom_site_fract_x
_atom_site_fract_y
_atom_site_fract_z
Si Si1 0.564286 0.000000 0.326066
Si Si2 0.739968 0.500000 0.109140
Si Si3 0.434760 0.645063 0.798500
Si Si4 0.065910 0.226554 0.899575
Si Si5 0.830438 0.745876 0.391497
Si Si6 0.675809 0.000000 0.223475
O O1 0.574851 0.122299 0.390872
O O2 0.607448 0.000000 0.237911
O O3 0.500000 0.000000 0.284323
O O4 0.703521 0.374482 0.134026
O O5 0.795788 0.500000 0.173717
O O6 0.758628 0.500000 0.000000
O O7 0.500000 0.697077 0.800989
O O8 0.432308 0.500000 0.832924
O O9 0.408672 0.655824 0.692189
O O10 0.397066 0.730910 0.867553
O O11 0.000000 0.189096 0.904670
O O12 0.094455 0.184261 0.000000
O O13 0.824902 0.710460 0.500000
O O14 0.805484 0.626445 0.333350
#
# Coordination Sequence:
#
# PCOD8289053 Si02
#       6
#     8   8  16  16  16   8
#     4  10  19  32  54  84 119 154 187 230 291 361
#     4  10  24  45  68  89 115 154 207 254 297 362
#     4  10  20  35  58  88 121 163 208 245 292 359
#     4   9  17  30  49  76 115 158 195 236 289 349
#     4  11  23  42  64  90 122 159 201 251 303 353
#     4  12  23  40  66  92 122 157 196 248 306 360
#
# _framework density 20.635283000000001
#
# number of rings (size 3 to 8) (size 9 to 14) (size 15 to 20)
#    0.000    1.778    3.333    1.333    0.000    3.111 
#    0.000    3.333    0.000    3.333    0.000    0.000 
#    0.000    0.000    0.000    0.000    0.000    0.000 
#
# Total GULP energy -446233.027264 kJ/mol
# GULP energy per Si atom -12395.361868 kJ/mol
# Density = 2.058832 g / cm^3
# Si number density = 20.635283 Si / 1000 Ang^3
#
#
#
# Elastic Constant Matrix: (Units=GPa)
#
#
# Indices 1 2 3 4 5 6 
#
# 1 69.5540 34.0534 43.6526 0.0000 0.0000 0.0000
# 2 34.0534 112.1895 39.4182 0.0000 0.0000 0.0000
# 3 43.6526 39.4182 103.7064 0.0000 0.0000 0.0000
# 4 0.0000 0.0000 0.0000 34.9732 0.0000 0.0000
# 5 0.0000 0.0000 0.0000 0.0000 27.4791 0.0000
# 6 0.0000 0.0000 0.0000 0.0000 0.0000 16.6982
#
#
#
# Elastic Compliance Matrix: (Units=1/GPa)
#
#
# Indices 1 2 3 4 5 6 
#
# 1 0.020815 -0.003739 -0.007340 0.000000 0.000000 0.000000
# 2 -0.003739 0.010959 -0.002592 0.000000 0.000000 0.000000
# 3 -0.007340 -0.002592 0.013717 0.000000 0.000000 0.000000
# 4 0.000000 0.000000 0.000000 0.028593 0.000000 0.000000
# 5 0.000000 0.000000 0.000000 0.000000 0.036391 0.000000
# 6 0.000000 0.000000 0.000000 0.000000 0.000000 0.059887
#
#
# Mechanical properties :
#
#
# Convention : Reuss Voigt Hill
#
# Bulk Modulus (GPa) = 55.09840 57.74425 56.42133
# Shear Modulus (GPa) = 24.53940 27.05180 25.79560
#
# Velocity S-wave (km/s) = 3.45221 3.62463 3.53947
# Velocity P-wave (km/s) = 6.53065 6.74991 6.64118
#
# Compressibility (1/GPa) = 0.01814935
#
# Stress axis : x y z
#
# Youngs Moduli (GPa) = 48.04301 91.24946 72.90023
#
# Poissons Ratio (x) = 0.34118 0.53511
# Poissons Ratio (y) = 0.17963 0.18893
# Poissons Ratio (z) = 0.35265 0.23648
#
# Static dielectric constant tensor:
#      x y z
#    x 3.447670 0.000000 0.000000 
#    y 0.000000 3.786590 0.000000 
#    z 0.000000 0.000000 3.918550 
# 
# 
# High freq. dielectric constant tensor:
#      x y z
#    x 1.770160 0.000000 0.000000 
#    y 0.000000 1.812960 0.000000 
#    z 0.000000 0.000000 1.806770 
# 
# From -- ./inp_files/29645.got.cif
#   From: 2010.06.25/outbox.cif.g09.slc.cpg/sg71_15_cif.got.tgz:29645.got - 2010.06.28 04:59:45.
