data_PCOD8289629
_publ_section_title
;
Structure prediction by ZEFSAII (Michael W. Deem and Ramdas Pophale) SiO2 
 PCOD8289629
Probable space group: I M M M
;
_chemical_formula_sum "Si O2"
_cell_formula_units_Z 52
_cell_length_a 10.400742
_cell_length_b 22.158915
_cell_length_c 11.218996
_cell_angle_alpha 90.000000
_cell_angle_beta 90.000000
_cell_angle_gamma 90.000000
_cell_volume 2585.632561
_symmetry_space_group_name_H-M "I M M M"
_symmetry_group_IT_number 71
_symmetry_cell_setting 'orthorhombic'
loop_
_space_group_symop_operation_xyz
x,y,z
-x,-y,z
x,-y,-z
-x,y,-z
-x,-y,-z
x,y,-z
-x,y,z
x,-y,z
1/2+x,1/2+y,1/2+z
1/2-x,1/2-y,1/2+z
1/2+x,1/2-y,1/2-z
1/2-x,1/2+y,1/2-z
1/2-x,1/2-y,1/2-z
1/2+x,1/2+y,1/2-z
1/2-x,1/2+y,1/2+z
1/2+x,1/2-y,1/2+z
loop_
_atom_site_type_symbol
_atom_site_label
_atom_site_fract_x
_atom_site_fract_y
_atom_site_fract_z
Si Si1 0.000000 0.402928 0.000000
Si Si2 0.354191 0.000000 0.859194
Si Si3 0.000000 0.184437 0.139538
Si Si4 0.757427 0.119383 0.244578
Si Si5 0.500000 0.181531 0.722713
Si Si6 0.727314 0.567539 0.000000
O O1 0.000000 0.356673 0.105460
O O2 0.121237 0.446699 0.000000
O O3 0.275314 0.944213 0.811454
O O4 0.500000 0.000000 0.807750
O O5 0.357679 0.000000 0.000000
O O6 0.124802 0.147085 0.174018
O O7 0.000000 0.247085 0.209641
O O8 0.000000 0.197773 0.000000
O O9 0.635076 0.162834 0.216189
O O10 0.802341 0.108272 0.382719
O O11 0.661048 0.500000 0.000000
#
# Coordination Sequence:
#
# PCOD8289629 Si02
#       6
#     4   8   8  16   8   8
#     4   8  17  30  64  96 116 149 202 258 318 364
#     4  11  22  40  66  95 132 169 215 262 312 384
#     4  12  26  44  62  90 134 174 214 259 315 384
#     4  11  23  41  68  97 125 166 211 264 328 377
#     4  10  20  42  66  91 123 164 215 259 309 372
#     4  10  19  35  64  95 125 155 199 265 323 377
#
# _framework density 20.111132999999999
#
# number of rings (size 3 to 8) (size 9 to 14) (size 15 to 20)
#    0.000    1.385    3.846    2.077    0.000    1.231 
#    0.000    2.308    6.769    0.000    0.000    0.000 
#    0.000    0.000    0.000    0.000    0.000    0.000 
#
# Total GULP energy -322182.513559 kJ/mol
# GULP energy per Si atom -12391.635137 kJ/mol
# Density = 2.006536 g / cm^3
# Si number density = 20.111133 Si / 1000 Ang^3
#
#
#
# Elastic Constant Matrix: (Units=GPa)
#
#
# Indices 1 2 3 4 5 6 
#
# 1 137.7837 65.0913 23.6371 0.0001 -0.0003 0.0000
# 2 65.0913 153.6164 22.0458 0.0000 -0.0002 0.0000
# 3 23.6371 22.0458 63.5449 0.0003 0.0011 0.0000
# 4 0.0001 0.0000 0.0003 -18.7884 0.0003 -0.0001
# 5 -0.0003 -0.0002 0.0011 0.0003 -88.5195 0.0000
# 6 0.0000 0.0000 0.0000 -0.0001 0.0000 33.9582
#
#
#
# Elastic Compliance Matrix: (Units=1/GPa)
#
#
# Indices 1 2 3 4 5 6 
#
# 1 0.009362 -0.003649 -0.002216 0.000000 0.000000 0.000000
# 2 -0.003649 0.008273 -0.001513 0.000000 0.000000 0.000000
# 3 -0.002216 -0.001513 0.017086 0.000000 0.000000 0.000000
# 4 0.000000 0.000000 0.000000 -0.053224 0.000000 0.000000
# 5 0.000000 0.000000 0.000000 0.000000 -0.011297 0.000000
# 6 0.000000 0.000000 0.000000 0.000000 0.000000 0.029448
#
#
# Mechanical properties :
#
#
# Convention : Reuss Voigt Hill
#
# Bulk Modulus (GPa) = 50.08843 64.05481 57.07162
# Shear Modulus (GPa) = 237.43095 1.60810 119.51952
#
# Velocity S-wave (km/s) = 10.87730 0.89518 7.71742
# Velocity P-wave (km/s) = 13.51718 5.74352 10.38514
#
# Compressibility (1/GPa) = 0.01996469
#
# Stress axis : x y z
#
# Youngs Moduli (GPa) = 106.81818 120.87665 58.52655
#
# Poissons Ratio (x) = 0.44104 0.12972
# Poissons Ratio (y) = 0.38975 0.08855
# Poissons Ratio (z) = 0.23676 0.18288
#
# Static dielectric constant tensor:
#      x y z
#    x 3.909210 0.000000 0.000000 
#    y 0.000000 3.500240 0.000000 
#    z 0.000000 0.000000 3.783460 
# 
# 
# High freq. dielectric constant tensor:
#      x y z
#    x 1.784200 0.000000 0.000000 
#    y 0.000000 1.793830 0.000000 
#    z 0.000000 0.000000 1.781800 
# 
# From -- ./inp_files/19308.got.cif
#   From: 2010.06.25/outbox.cif.g09.slc.cpg/sg71_10_cif.got.tgz:19308.got - 2010.06.28 04:59:45.
