data_PCOD8289582
_publ_section_title
;
Structure prediction by ZEFSAII (Michael W. Deem and Ramdas Pophale) SiO2 
 PCOD8289582
Probable space group: I M M M
;
_chemical_formula_sum "Si O2"
_cell_formula_units_Z 88
_cell_length_a 21.937745
_cell_length_b 16.560792
_cell_length_c 13.458151
_cell_angle_alpha 90.000000
_cell_angle_beta 90.000000
_cell_angle_gamma 90.000000
_cell_volume 4889.432820
_symmetry_space_group_name_H-M "I M M M"
_symmetry_group_IT_number 71
_symmetry_cell_setting 'orthorhombic'
loop_
_space_group_symop_operation_xyz
x,y,z
-x,-y,z
x,-y,-z
-x,y,-z
-x,-y,-z
x,y,-z
-x,y,z
x,-y,z
1/2+x,1/2+y,1/2+z
1/2-x,1/2-y,1/2+z
1/2+x,1/2-y,1/2-z
1/2-x,1/2+y,1/2-z
1/2-x,1/2-y,1/2-z
1/2+x,1/2+y,1/2-z
1/2-x,1/2+y,1/2+z
1/2+x,1/2-y,1/2+z
loop_
_atom_site_type_symbol
_atom_site_label
_atom_site_fract_x
_atom_site_fract_y
_atom_site_fract_z
Si Si1 0.428344 0.595339 0.714071
Si Si2 0.677141 0.000000 0.385028
Si Si3 0.069287 0.500000 0.255445
Si Si4 0.070252 0.906321 0.000000
Si Si5 0.068498 0.347769 0.613438
Si Si6 0.156436 0.774357 0.708701
Si Si7 0.783668 0.677598 0.881782
O O1 0.500000 0.615885 0.731255
O O2 0.418213 0.500000 0.729378
O O3 0.404802 0.626394 0.604756
O O4 0.383463 0.644010 0.784846
O O5 0.609679 0.000000 0.341896
O O6 0.712229 0.082204 0.353869
O O7 0.665933 0.000000 0.500000
O O8 0.085772 0.576426 0.320788
O O9 0.000000 0.500000 0.218961
O O10 0.000000 0.886927 0.000000
O O11 0.082829 0.000000 0.000000
O O12 0.073844 0.374957 0.500000
O O13 0.117090 0.279976 0.636091
O O14 0.000000 0.316859 0.637454
O O15 0.169035 0.730089 0.814808
O O16 0.216875 0.794101 0.648173
O O17 0.795970 0.692628 0.000000
#
# Coordination Sequence:
#
# PCOD8289582 Si02
#       7
#    16   8   8   8  16  16  16
#     4   9  18  32  52  80 112 143 174 213 267 327
#     4  10  20  40  61  78 111 149 184 225 270 327
#     4  10  19  35  58  85 113 143 182 218 274 337
#     4   7  12  26  46  70 102 137 167 199 249 313
#     4  10  20  35  57  84 113 142 176 224 279 331
#     4  11  21  35  59  80 108 142 183 234 268 320
#     4  10  23  39  56  79 106 145 188 227 272 321
#
# _framework density 17.997997999999999
#
# number of rings (size 3 to 8) (size 9 to 14) (size 15 to 20)
#    0.000    2.273    1.818    2.455    2.545    1.273 
#    0.000    0.000    0.000    0.000    0.000    3.818 
#    0.000    0.000    0.000    0.000    0.000    0.000 
#
# Total GULP energy -545122.206035 kJ/mol
# GULP energy per Si atom -12389.141046 kJ/mol
# Density = 1.795703 g / cm^3
# Si number density = 17.997998 Si / 1000 Ang^3
#
#
#
# Elastic Constant Matrix: (Units=GPa)
#
#
# Indices 1 2 3 4 5 6 
#
# 1 72.0731 43.0882 22.0482 0.0000 0.0000 0.0000
# 2 43.0882 94.0318 19.8079 0.0000 0.0000 0.0000
# 3 22.0482 19.8079 37.3182 0.0000 0.0000 0.0000
# 4 0.0000 0.0000 0.0000 35.9857 0.0000 0.0000
# 5 0.0000 0.0000 0.0000 0.0000 26.0924 0.0000
# 6 0.0000 0.0000 0.0000 0.0000 0.0000 41.0822
#
#
#
# Elastic Compliance Matrix: (Units=1/GPa)
#
#
# Indices 1 2 3 4 5 6 
#
# 1 0.021163 -0.007953 -0.008282 0.000000 0.000000 0.000000
# 2 -0.007953 0.014962 -0.003243 0.000000 0.000000 0.000000
# 3 -0.008282 -0.003243 0.033411 0.000000 0.000000 0.000000
# 4 0.000000 0.000000 0.000000 0.027789 0.000000 0.000000
# 5 0.000000 0.000000 0.000000 0.000000 0.038325 0.000000
# 6 0.000000 0.000000 0.000000 0.000000 0.000000 0.024341
#
#
# Mechanical properties :
#
#
# Convention : Reuss Voigt Hill
#
# Bulk Modulus (GPa) = 32.70088 41.47908 37.08998
# Shear Modulus (GPa) = 23.90729 28.53065 26.21897
#
# Velocity S-wave (km/s) = 3.64858 3.98579 3.82091
# Velocity P-wave (km/s) = 5.99651 6.65421 6.33391
#
# Compressibility (1/GPa) = 0.03058021
#
# Stress axis : x y z
#
# Youngs Moduli (GPa) = 47.25228 66.83567 29.93011
#
# Poissons Ratio (x) = 0.53154 0.24789
# Poissons Ratio (y) = 0.37579 0.09706
# Poissons Ratio (z) = 0.39135 0.21674
#
# Static dielectric constant tensor:
#      x y z
#    x 3.214420 0.000000 0.000000 
#    y 0.000000 3.427740 0.000000 
#    z 0.000000 0.000000 3.399030 
# 
# 
# High freq. dielectric constant tensor:
#      x y z
#    x 1.690590 0.000000 0.000000 
#    y 0.000000 1.698170 0.000000 
#    z 0.000000 0.000000 1.697610 
# 
# From -- ./inp_files/25703.got.cif
#   From: 2010.06.25/outbox.cif.g09.slc.cpg/sg71_13_cif.got.tgz:25703.got - 2010.06.28 04:59:45.
