data_PCOD8289497
_publ_section_title
;
Structure prediction by ZEFSAII (Michael W. Deem and Ramdas Pophale) SiO2 
 PCOD8289497
Probable space group: I M M M
;
_chemical_formula_sum "Si O2"
_cell_formula_units_Z 88
_cell_length_a 17.963550
_cell_length_b 28.683012
_cell_length_c 8.840953
_cell_angle_alpha 90.000000
_cell_angle_beta 90.000000
_cell_angle_gamma 90.000000
_cell_volume 4555.289719
_symmetry_space_group_name_H-M "I M M M"
_symmetry_group_IT_number 71
_symmetry_cell_setting 'orthorhombic'
loop_
_space_group_symop_operation_xyz
x,y,z
-x,-y,z
x,-y,-z
-x,y,-z
-x,-y,-z
x,y,-z
-x,y,z
x,-y,z
1/2+x,1/2+y,1/2+z
1/2-x,1/2-y,1/2+z
1/2+x,1/2-y,1/2-z
1/2-x,1/2+y,1/2-z
1/2-x,1/2-y,1/2-z
1/2+x,1/2+y,1/2-z
1/2-x,1/2+y,1/2+z
1/2+x,1/2-y,1/2+z
loop_
_atom_site_type_symbol
_atom_site_label
_atom_site_fract_x
_atom_site_fract_y
_atom_site_fract_z
Si Si1 0.169362 0.696238 0.174875
Si Si2 0.217837 0.945988 0.321684
Si Si3 0.640157 0.101639 0.178763
Si Si4 0.157933 0.790819 0.324323
Si Si5 0.082401 0.115659 0.320396
Si Si6 0.000000 0.444857 0.171407
O O1 0.131370 0.654863 0.268109
O O2 0.135198 0.745126 0.230579
O O3 0.257169 0.694944 0.205960
O O4 0.150285 0.689337 0.000000
O O5 0.229636 0.938282 0.500000
O O6 0.283252 0.919991 0.236300
O O7 0.139668 0.924053 0.265653
O O8 0.217339 0.000000 0.277669
O O9 0.572938 0.071950 0.243514
O O10 0.637931 0.099513 0.000000
O O11 0.144392 0.780100 0.500000
O O12 0.107813 0.833338 0.263791
O O13 0.081084 0.116167 0.500000
O O14 0.000000 0.104631 0.255556
O O15 0.000000 0.500000 0.172618
O O16 0.000000 0.425758 0.000000
#
# Coordination Sequence:
#
# PCOD8289497 Si02
#       6
#    16  16  16  16  16   8
#     4  10  19  34  58  84 114 150 193 242 293 350
#     4  10  20  36  59  86 116 152 196 243 294 351
#     4  12  24  39  61  88 119 153 194 239 288 352
#     4   9  17  32  54  82 115 150 193 243 295 347
#     4   9  17  32  55  84 118 155 196 246 295 342
#     4  11  25  45  67  89 117 153 191 239 300 355
#
# _framework density 19.318200999999998
#
# number of rings (size 3 to 8) (size 9 to 14) (size 15 to 20)
#    0.000    1.909    1.818    3.000    0.000    4.364 
#    1.636    1.818    0.000    1.636    0.000    1.273 
#    0.000    0.000    0.000    0.000    0.000    0.000 
#
# Total GULP energy -545700.188669 kJ/mol
# GULP energy per Si atom -12402.277015 kJ/mol
# Density = 1.927423 g / cm^3
# Si number density = 19.318201 Si / 1000 Ang^3
#
#
#
# Elastic Constant Matrix: (Units=GPa)
#
#
# Indices 1 2 3 4 5 6 
#
# 1 70.2860 28.1271 22.5801 0.0004 -0.0003 -0.0001
# 2 28.1271 112.5465 39.3854 0.0006 -0.0004 -0.0005
# 3 22.5801 39.3854 70.4276 0.0059 -0.0136 -0.0012
# 4 0.0004 0.0006 0.0059 30.5470 -0.0022 -0.0005
# 5 -0.0003 -0.0004 -0.0136 -0.0022 -95.4515 -0.0005
# 6 -0.0001 -0.0005 -0.0012 -0.0005 -0.0005 31.9952
#
#
#
# Elastic Compliance Matrix: (Units=1/GPa)
#
#
# Indices 1 2 3 4 5 6 
#
# 1 0.016558 -0.002835 -0.003723 0.000001 0.000000 0.000000
# 2 -0.002835 0.011533 -0.005540 0.000001 0.000001 0.000000
# 3 -0.003723 -0.005540 0.018491 -0.000003 -0.000003 0.000001
# 4 0.000001 0.000001 -0.000003 0.032736 -0.000001 0.000001
# 5 0.000000 0.000001 -0.000003 -0.000001 -0.010477 0.000000
# 6 0.000000 0.000000 0.000001 0.000001 0.000000 0.031255
#
#
# Mechanical properties :
#
#
# Convention : Reuss Voigt Hill
#
# Bulk Modulus (GPa) = 44.67434 48.16058 46.41746
# Shear Modulus (GPa) = 37.94895 4.29596 21.12246
#
# Velocity S-wave (km/s) = 4.43698 1.49286 3.31024
# Velocity P-wave (km/s) = 7.03028 5.28732 6.22015
#
# Compressibility (1/GPa) = 0.02238421
#
# Stress axis : x y z
#
# Youngs Moduli (GPa) = 60.39254 86.71052 54.08010
#
# Poissons Ratio (x) = 0.24584 0.20136
# Poissons Ratio (y) = 0.17123 0.29963
# Poissons Ratio (z) = 0.22486 0.48041
#
# Static dielectric constant tensor:
#      x y z
#    x 3.656500 0.000000 -0.000010 
#    y 0.000000 3.726890 0.000000 
#    z -0.000010 0.000000 3.386690 
# 
# 
# High freq. dielectric constant tensor:
#      x y z
#    x 1.745140 0.000000 0.000000 
#    y 0.000000 1.767690 0.000000 
#    z 0.000000 0.000000 1.731400 
# 
# From -- ./inp_files/8739.got.cif
#   From: 2010.06.25/outbox.cif.g09.slc.cpg/sg71_5_cif.got.tgz:8739.got - 2010.06.28 04:59:45.
