data_PCOD8289516
_publ_section_title
;
Structure prediction by ZEFSAII (Michael W. Deem and Ramdas Pophale) SiO2 
 PCOD8289516
Probable space group: I M M M
;
_chemical_formula_sum "Si O2"
_cell_formula_units_Z 112
_cell_length_a 29.671375
_cell_length_b 14.040403
_cell_length_c 13.579905
_cell_angle_alpha 90.000000
_cell_angle_beta 90.000000
_cell_angle_gamma 90.000000
_cell_volume 5657.362113
_symmetry_space_group_name_H-M "I M M M"
_symmetry_group_IT_number 71
_symmetry_cell_setting 'orthorhombic'
loop_
_space_group_symop_operation_xyz
x,y,z
-x,-y,z
x,-y,-z
-x,y,-z
-x,-y,-z
x,y,-z
-x,y,z
x,-y,z
1/2+x,1/2+y,1/2+z
1/2-x,1/2-y,1/2+z
1/2+x,1/2-y,1/2-z
1/2-x,1/2+y,1/2-z
1/2-x,1/2-y,1/2-z
1/2+x,1/2+y,1/2-z
1/2-x,1/2+y,1/2+z
1/2+x,1/2-y,1/2+z
loop_
_atom_site_type_symbol
_atom_site_label
_atom_site_fract_x
_atom_site_fract_y
_atom_site_fract_z
Si Si1 0.624382 0.761256 0.615803
Si Si2 0.716001 0.828813 0.287442
Si Si3 0.835814 0.395156 0.391963
Si Si4 0.049905 0.389662 0.213032
Si Si5 0.617310 0.613511 0.224886
Si Si6 0.702138 0.606726 0.106212
Si Si7 0.577188 0.772044 0.112292
O O1 0.623751 0.744288 0.500000
O O2 0.673526 0.794770 0.649556
O O3 0.587219 0.840528 0.644071
O O4 0.612171 0.660384 0.667199
O O5 0.750000 0.750000 0.250000
O O6 0.702237 0.886488 0.190390
O O7 0.746260 0.893955 0.358421
O O8 0.813376 0.382821 0.500000
O O9 0.858101 0.500000 0.383400
O O10 0.873202 0.315700 0.375845
O O11 0.063569 0.500000 0.227563
O O12 0.045706 0.336721 0.318911
O O13 0.000000 0.382265 0.164516
O O14 0.609370 0.500000 0.230661
O O15 0.666836 0.647094 0.186111
O O16 0.580506 0.662711 0.151782
O O17 0.686338 0.500000 0.088528
O O18 0.697705 0.660732 0.000000
O O19 0.559365 0.773230 0.000000
#
# Coordination Sequence:
#
# PCOD8289516 Si02
#       7
#    16  16  16  16  16  16  16
#     4  11  24  41  61  87 117 157 207 260 314 370
#     4  12  21  36  54  80 119 159 199 250 302 361
#     4  10  20  34  55  82 115 157 199 240 294 361
#     4  10  22  41  65  95 130 164 200 247 306 373
#     4  10  20  38  59  82 116 157 200 250 303 356
#     4  10  20  33  51  77 110 150 195 240 290 353
#     4  10  19  34  59  91 122 156 197 241 291 356
#
# _framework density 19.797212999999999
#
# number of rings (size 3 to 8) (size 9 to 14) (size 15 to 20)
#    0.000    1.571    4.286    1.714    0.000    5.714 
#    0.000    1.429    0.000    6.857    0.000    8.000 
#    0.000    0.000    0.000    0.000    0.000    0.000 
#
# Total GULP energy -693928.075192 kJ/mol
# GULP energy per Si atom -12391.572771 kJ/mol
# Density = 1.975215 g / cm^3
# Si number density = 19.797213 Si / 1000 Ang^3
#
#
#
# Elastic Constant Matrix: (Units=GPa)
#
#
# Indices 1 2 3 4 5 6 
#
# 1 78.5114 36.3436 33.9267 0.0000 0.0000 0.0000
# 2 36.3436 121.7296 40.0396 0.0000 0.0000 0.0000
# 3 33.9267 40.0396 139.8420 0.0000 0.0000 0.0000
# 4 0.0000 0.0000 0.0000 19.3821 0.0000 0.0000
# 5 0.0000 0.0000 0.0000 0.0000 14.6177 0.0000
# 6 0.0000 0.0000 0.0000 0.0000 0.0000 23.4217
#
#
#
# Elastic Compliance Matrix: (Units=1/GPa)
#
#
# Indices 1 2 3 4 5 6 
#
# 1 0.015662 -0.003782 -0.002717 0.000000 0.000000 0.000000
# 2 -0.003782 0.009983 -0.001941 0.000000 0.000000 0.000000
# 3 -0.002717 -0.001941 0.008366 0.000000 0.000000 0.000000
# 4 0.000000 0.000000 0.000000 0.051594 0.000000 0.000000
# 5 0.000000 0.000000 0.000000 0.000000 0.068410 0.000000
# 6 0.000000 0.000000 0.000000 0.000000 0.000000 0.042695
#
#
# Mechanical properties :
#
#
# Convention : Reuss Voigt Hill
#
# Bulk Modulus (GPa) = 58.37487 62.30031 60.33759
# Shear Modulus (GPa) = 22.79987 26.80249 24.80118
#
# Velocity S-wave (km/s) = 3.39731 3.68346 3.54328
# Velocity P-wave (km/s) = 6.70368 7.04472 6.87632
#
# Compressibility (1/GPa) = 0.01713066
#
# Stress axis : x y z
#
# Youngs Moduli (GPa) = 63.84935 100.17527 119.53666
#
# Poissons Ratio (x) = 0.37891 0.32475
# Poissons Ratio (y) = 0.24151 0.23197
# Poissons Ratio (z) = 0.17346 0.19439
#
# Static dielectric constant tensor:
#      x y z
#    x 5.441650 0.000000 0.000000 
#    y 0.000000 3.585840 0.000000 
#    z 0.000000 0.000000 3.711800 
# 
# 
# High freq. dielectric constant tensor:
#      x y z
#    x 1.750160 0.000000 0.000000 
#    y 0.000000 1.775650 0.000000 
#    z 0.000000 0.000000 1.774990 
# 
# From -- ./inp_files/40372.got.cif
#   From: 2010.06.25/outbox.cif.g09.slc.cpg/sg71_21_cif.got.tgz:40372.got - 2010.06.28 04:59:45.
