data_PCOD8289928
_publ_section_title
;
Structure prediction by ZEFSAII (Michael W. Deem and Ramdas Pophale) SiO2 
 PCOD8289928
Probable space group: I M M M
;
_chemical_formula_sum "Si O2"
_cell_formula_units_Z 96
_cell_length_a 9.113972
_cell_length_b 19.245924
_cell_length_c 30.734473
_cell_angle_alpha 90.000000
_cell_angle_beta 90.000000
_cell_angle_gamma 90.000000
_cell_volume 5391.035941
_symmetry_space_group_name_H-M "I M M M"
_symmetry_group_IT_number 71
_symmetry_cell_setting 'orthorhombic'
loop_
_space_group_symop_operation_xyz
x,y,z
-x,-y,z
x,-y,-z
-x,y,-z
-x,-y,-z
x,y,-z
-x,y,z
x,-y,z
1/2+x,1/2+y,1/2+z
1/2-x,1/2-y,1/2+z
1/2+x,1/2-y,1/2-z
1/2-x,1/2+y,1/2-z
1/2-x,1/2-y,1/2-z
1/2+x,1/2+y,1/2-z
1/2-x,1/2+y,1/2+z
1/2+x,1/2-y,1/2+z
loop_
_atom_site_type_symbol
_atom_site_label
_atom_site_fract_x
_atom_site_fract_y
_atom_site_fract_z
Si Si1 0.667764 0.417261 0.639511
Si Si2 0.674021 0.422361 0.545903
Si Si3 0.830764 0.082079 0.367779
Si Si4 0.665016 0.917488 0.452102
Si Si5 0.670560 0.819510 0.798566
Si Si6 0.328684 0.820284 0.697698
O O1 0.500000 0.394876 0.649119
O O2 0.681893 0.500000 0.640392
O O3 0.722161 0.387828 0.591846
O O4 0.774375 0.386596 0.675692
O O5 0.722845 0.384370 0.500000
O O6 0.500000 0.426777 0.547629
O O7 0.738747 0.500000 0.544305
O O8 0.771613 0.110472 0.414265
O O9 0.742665 0.116994 0.328736
O O10 0.000000 0.102708 0.364268
O O11 0.806296 0.000000 0.363545
O O12 0.717244 0.890916 0.500000
O O13 0.500000 0.890711 0.442815
O O14 0.666892 0.000000 0.452090
O O15 0.500000 0.806849 0.807025
O O16 0.703685 0.834320 0.748210
O O17 0.756994 0.752532 0.816215
O O18 0.500000 0.817114 0.687207
#
# Coordination Sequence:
#
# PCOD8289928 Si02
#       6
#    16  16  16  16  16  16
#     4   9  17  29  48  75 103 130 161 198 239 282
#     4   7  10  19  38  65  95 125 158 194 228 265
#     4  10  20  32  49  76 106 132 160 200 248 291
#     4   8  14  26  45  69  98 132 167 200 235 281
#     4  10  21  36  53  72  95 125 161 202 249 299
#     4  10  21  37  55  71  91 125 166 204 244 295
#
# _framework density 17.807338000000001
#
# number of rings (size 3 to 8) (size 9 to 14) (size 15 to 20)
#    0.000    3.000    0.000    3.500    0.000    4.333 
#    0.000    5.000    0.000    1.500    0.000    4.667 
#    0.000    0.000    0.000    0.000    0.000    0.000 
#
# Total GULP energy -594734.355213 kJ/mol
# GULP energy per Si atom -12390.299067 kJ/mol
# Density = 1.776681 g / cm^3
# Si number density = 17.807338 Si / 1000 Ang^3
#
#
#
# Elastic Constant Matrix: (Units=GPa)
#
#
# Indices 1 2 3 4 5 6 
#
# 1 95.0231 34.4177 63.3860 0.0000 0.0000 0.0000
# 2 34.4177 39.4403 42.8599 0.0000 0.0000 0.0000
# 3 63.3860 42.8599 117.8601 0.0000 0.0000 0.0000
# 4 0.0000 0.0000 0.0000 4.5100 0.0000 0.0000
# 5 0.0000 0.0000 0.0000 0.0000 28.3113 0.0000
# 6 0.0000 0.0000 0.0000 0.0000 0.0000 26.0903
#
#
#
# Elastic Compliance Matrix: (Units=1/GPa)
#
#
# Indices 1 2 3 4 5 6 
#
# 1 0.018013 -0.008584 -0.006566 0.000000 0.000000 0.000000
# 2 -0.008584 0.046012 -0.012116 0.000000 0.000000 0.000000
# 3 -0.006566 -0.012116 0.016422 0.000000 0.000000 0.000000
# 4 0.000000 0.000000 0.000000 0.221730 0.000000 0.000000
# 5 0.000000 0.000000 0.000000 0.000000 0.035322 0.000000
# 6 0.000000 0.000000 0.000000 0.000000 0.000000 0.038328
#
#
# Mechanical properties :
#
#
# Convention : Reuss Voigt Hill
#
# Bulk Modulus (GPa) = 38.58719 59.29453 48.94086
# Shear Modulus (GPa) = 11.38966 19.22630 15.30798
#
# Velocity S-wave (km/s) = 2.53178 3.28942 2.93515
# Velocity P-wave (km/s) = 5.50117 6.91355 6.24740
#
# Compressibility (1/GPa) = 0.02591534
#
# Stress axis : x y z
#
# Youngs Moduli (GPa) = 55.51676 21.73366 60.89483
#
# Poissons Ratio (x) = 0.18655 0.39983
# Poissons Ratio (y) = 0.47653 0.73779
# Poissons Ratio (z) = 0.36452 0.26332
#
# Static dielectric constant tensor:
#      x y z
#    x 3.201760 0.000000 0.000000 
#    y 0.000000 2.872170 0.000000 
#    z 0.000000 0.000000 3.798690 
# 
# 
# High freq. dielectric constant tensor:
#      x y z
#    x 1.675350 0.000000 0.000000 
#    y 0.000000 1.642110 0.000000 
#    z 0.000000 0.000000 1.709600 
# 
# From -- ./inp_files/63194.got.cif
#   From: 2010.06.25/outbox.cif.g09.slc.cpg/sg71_32_cif.got.tgz:63194.got - 2010.06.28 04:59:45.
