data_PCOD8289327
_publ_section_title
;
Structure prediction by ZEFSAII (Michael W. Deem and Ramdas Pophale) SiO2 
 PCOD8289327
Probable space group: I M M M
;
_chemical_formula_sum "Si O2"
_cell_formula_units_Z 96
_cell_length_a 11.270127
_cell_length_b 28.412529
_cell_length_c 15.690981
_cell_angle_alpha 90.000000
_cell_angle_beta 90.000000
_cell_angle_gamma 90.000000
_cell_volume 5024.453121
_symmetry_space_group_name_H-M "I M M M"
_symmetry_group_IT_number 71
_symmetry_cell_setting 'orthorhombic'
loop_
_space_group_symop_operation_xyz
x,y,z
-x,-y,z
x,-y,-z
-x,y,-z
-x,-y,-z
x,y,-z
-x,y,z
x,-y,z
1/2+x,1/2+y,1/2+z
1/2-x,1/2-y,1/2+z
1/2+x,1/2-y,1/2-z
1/2-x,1/2+y,1/2-z
1/2-x,1/2-y,1/2-z
1/2+x,1/2+y,1/2-z
1/2-x,1/2+y,1/2+z
1/2+x,1/2-y,1/2+z
loop_
_atom_site_type_symbol
_atom_site_label
_atom_site_fract_x
_atom_site_fract_y
_atom_site_fract_z
Si Si1 0.778316 0.290793 0.653675
Si Si2 0.138147 0.614930 0.405375
Si Si3 0.860653 0.552255 0.750325
Si Si4 0.740484 0.889825 0.402999
Si Si5 0.000000 0.129458 0.599996
Si Si6 0.000000 0.767249 0.399321
Si Si7 0.640176 0.202984 0.338228
O O1 0.782966 0.337431 0.595940
O O2 0.663495 0.257673 0.634142
O O3 0.789738 0.307683 0.750932
O O4 0.886524 0.257075 0.637272
O O5 0.152387 0.592587 0.500000
O O6 0.187587 0.579311 0.333689
O O7 0.000000 0.628030 0.387909
O O8 0.803615 0.500000 0.752538
O O9 0.834719 0.579007 0.838093
O O10 0.000000 0.548018 0.740734
O O11 0.722754 0.908088 0.500000
O O12 0.878371 0.896777 0.374168
O O13 0.696683 0.835372 0.402519
O O14 0.000000 0.137566 0.500000
O O15 0.000000 0.180938 0.641326
O O16 0.000000 0.765193 0.500000
O O17 0.500000 0.194439 0.330416
#
# Coordination Sequence:
#
# PCOD8289327 Si02
#       7
#    16  16  16  16   8   8  16
#     4  11  20  32  51  80 113 148 191 228 264 320
#     4  10  19  33  57  85 111 143 184 231 281 327
#     4  10  22  40  59  83 114 143 179 229 284 343
#     4  11  22  38  59  83 112 148 187 229 277 329
#     4   9  20  36  55  82 112 141 186 236 274 320
#     4  11  18  30  52  77 106 146 186 223 266 313
#     4  11  22  34  50  77 118 157 188 223 266 323
#
# _framework density 19.106556999999999
#
# number of rings (size 3 to 8) (size 9 to 14) (size 15 to 20)
#    0.000    1.500    5.000    1.000    0.000    2.667 
#    0.000    2.917    0.000    1.500    0.000    0.000 
#    0.000    1.333    0.000    0.000    0.000    0.000 
#
# Total GULP energy -594912.621252 kJ/mol
# GULP energy per Si atom -12394.012943 kJ/mol
# Density = 1.906307 g / cm^3
# Si number density = 19.106557 Si / 1000 Ang^3
#
#
#
# Elastic Constant Matrix: (Units=GPa)
#
#
# Indices 1 2 3 4 5 6 
#
# 1 51.9596 13.3470 7.7255 0.0000 0.0000 0.0000
# 2 13.3470 97.8480 42.8036 0.0002 0.0000 0.0000
# 3 7.7255 42.8036 105.7376 0.0008 0.0001 0.0001
# 4 0.0000 0.0002 0.0008 13.3586 0.0000 0.0000
# 5 0.0000 0.0000 0.0001 0.0000 18.2801 0.0000
# 6 0.0000 0.0000 0.0001 0.0000 0.0000 25.7165
#
#
#
# Elastic Compliance Matrix: (Units=1/GPa)
#
#
# Indices 1 2 3 4 5 6 
#
# 1 0.019961 -0.002533 -0.000433 0.000000 0.000000 0.000000
# 2 -0.002533 0.012741 -0.004972 0.000000 0.000000 0.000000
# 3 -0.000433 -0.004972 0.011502 -0.000001 0.000000 0.000000
# 4 0.000000 0.000000 -0.000001 0.074858 0.000000 0.000000
# 5 0.000000 0.000000 0.000000 0.000000 0.054704 0.000000
# 6 0.000000 0.000000 0.000000 0.000000 0.000000 0.038885
#
#
# Mechanical properties :
#
#
# Convention : Reuss Voigt Hill
#
# Bulk Modulus (GPa) = 35.30325 42.58861 38.94593
# Shear Modulus (GPa) = 21.01096 24.24897 22.62996
#
# Velocity S-wave (km/s) = 3.31973 3.56637 3.44526
# Velocity P-wave (km/s) = 5.76292 6.26874 6.02114
#
# Compressibility (1/GPa) = 0.02832600
#
# Stress axis : x y z
#
# Youngs Moduli (GPa) = 50.09805 78.48848 86.94210
#
# Poissons Ratio (x) = 0.19884 0.03763
# Poissons Ratio (y) = 0.12692 0.43232
# Poissons Ratio (z) = 0.02168 0.39028
#
# Static dielectric constant tensor:
#      x y z
#    x 3.207720 0.000000 0.000000 
#    y 0.000000 3.571120 0.000000 
#    z 0.000000 0.000000 3.718530 
# 
# 
# High freq. dielectric constant tensor:
#      x y z
#    x 1.716200 0.000000 0.000000 
#    y 0.000000 1.727610 0.000000 
#    z 0.000000 0.000000 1.743460 
# 
# From -- ./inp_files/33202.got.cif
#   From: 2010.06.25/outbox.cif.g09.slc.cpg/sg71_17_cif.got.tgz:33202.got - 2010.06.28 04:59:45.
