data_PCOD8289268
_publ_section_title
;
Structure prediction by ZEFSAII (Michael W. Deem and Ramdas Pophale) SiO2 
 PCOD8289268
Probable space group: I M M M
;
_chemical_formula_sum "Si O2"
_cell_formula_units_Z 96
_cell_length_a 19.702631
_cell_length_b 28.548447
_cell_length_c 9.089242
_cell_angle_alpha 90.000000
_cell_angle_beta 90.000000
_cell_angle_gamma 90.000000
_cell_volume 5112.512449
_symmetry_space_group_name_H-M "I M M M"
_symmetry_group_IT_number 71
_symmetry_cell_setting 'orthorhombic'
loop_
_space_group_symop_operation_xyz
x,y,z
-x,-y,z
x,-y,-z
-x,y,-z
-x,-y,-z
x,y,-z
-x,y,z
x,-y,z
1/2+x,1/2+y,1/2+z
1/2-x,1/2-y,1/2+z
1/2+x,1/2-y,1/2-z
1/2-x,1/2+y,1/2-z
1/2-x,1/2-y,1/2-z
1/2+x,1/2+y,1/2-z
1/2-x,1/2+y,1/2+z
1/2+x,1/2-y,1/2+z
loop_
_atom_site_type_symbol
_atom_site_label
_atom_site_fract_x
_atom_site_fract_y
_atom_site_fract_z
Si Si1 0.697745 0.402916 0.826781
Si Si2 0.697687 0.692604 0.662740
Si Si3 0.150530 0.725837 0.337039
Si Si4 0.923403 0.054697 0.833735
Si Si5 0.423516 0.866722 0.824911
Si Si6 0.677685 0.053413 0.828512
O O1 0.707918 0.350826 0.769449
O O2 0.622721 0.419096 0.783766
O O3 0.752566 0.437842 0.756641
O O4 0.706791 0.403681 0.000000
O O5 0.671578 0.677631 0.500000
O O6 0.770402 0.715957 0.646575
O O7 0.642844 0.729030 0.731300
O O8 0.121051 0.737297 0.500000
O O9 0.110706 0.681417 0.267532
O O10 0.000000 0.072821 0.811771
O O11 0.919407 0.000000 0.802108
O O12 0.898820 0.065524 0.000000
O O13 0.500000 0.870576 0.762545
O O14 0.380692 0.911583 0.768592
O O15 0.423581 0.866616 0.000000
O O16 0.653779 0.000000 0.801339
O O17 0.691826 0.062896 0.000000
#
# Coordination Sequence:
#
# PCOD8289268 Si02
#       6
#    16  16  16  16  16  16
#     4  12  23  34  53  82 114 147 184 226 275 325
#     4  10  19  33  55  79 106 138 178 223 270 324
#     4   9  17  32  53  79 107 136 175 222 275 329
#     4   9  19  37  59  80 105 141 181 220 270 331
#     4   9  17  32  55  82 112 145 183 232 286 334
#     4  10  20  35  55  80 111 147 190 236 280 329
#
# _framework density 18.777460000000001
#
# number of rings (size 3 to 8) (size 9 to 14) (size 15 to 20)
#    0.000    2.167    1.667    3.000    0.000    4.000 
#    0.000    3.333    0.000    5.000    0.000    1.167 
#    0.000    0.000    0.000    0.000    0.000    0.000 
#
# Total GULP energy -595136.683063 kJ/mol
# GULP energy per Si atom -12398.680897 kJ/mol
# Density = 1.873472 g / cm^3
# Si number density = 18.777460 Si / 1000 Ang^3
#
#
#
# Elastic Constant Matrix: (Units=GPa)
#
#
# Indices 1 2 3 4 5 6 
#
# 1 66.5222 23.0916 26.2527 0.0000 0.0000 0.0000
# 2 23.0916 78.3675 33.8444 0.0000 0.0000 0.0000
# 3 26.2527 33.8444 85.4540 0.0000 0.0000 0.0000
# 4 0.0000 0.0000 0.0000 23.1212 0.0000 0.0000
# 5 0.0000 0.0000 0.0000 0.0000 15.3388 0.0000
# 6 0.0000 0.0000 0.0000 0.0000 0.0000 18.8039
#
#
#
# Elastic Compliance Matrix: (Units=1/GPa)
#
#
# Indices 1 2 3 4 5 6 
#
# 1 0.017865 -0.003491 -0.004106 0.000000 0.000000 0.000000
# 2 -0.003491 0.016075 -0.005294 0.000000 0.000000 0.000000
# 3 -0.004106 -0.005294 0.015060 0.000000 0.000000 0.000000
# 4 0.000000 0.000000 0.000000 0.043250 0.000000 0.000000
# 5 0.000000 0.000000 0.000000 0.000000 0.065194 0.000000
# 6 0.000000 0.000000 0.000000 0.000000 0.000000 0.053181
#
#
# Mechanical properties :
#
#
# Convention : Reuss Voigt Hill
#
# Bulk Modulus (GPa) = 43.06866 44.08011 43.57438
# Shear Modulus (GPa) = 20.47949 21.26312 20.87130
#
# Velocity S-wave (km/s) = 3.30607 3.36873 3.33755
# Velocity P-wave (km/s) = 6.12859 6.21748 6.17320
#
# Compressibility (1/GPa) = 0.02321874
#
# Stress axis : x y z
#
# Youngs Moduli (GPa) = 55.97654 62.20677 66.39950
#
# Poissons Ratio (x) = 0.21715 0.27262
# Poissons Ratio (y) = 0.19540 0.35154
# Poissons Ratio (z) = 0.22982 0.32934
#
# Static dielectric constant tensor:
#      x y z
#    x 3.454770 0.000000 0.000000 
#    y 0.000000 3.548540 0.000000 
#    z 0.000000 0.000000 3.410420 
# 
# 
# High freq. dielectric constant tensor:
#      x y z
#    x 1.711800 0.000000 0.000000 
#    y 0.000000 1.734750 0.000000 
#    z 0.000000 0.000000 1.707110 
# 
# From -- ./inp_files/10932.got.cif
#   From: 2010.06.25/outbox.cif.g09.slc.cpg/sg71_6_cif.got.tgz:10932.got - 2010.06.28 04:59:45.
