data_PCOD8289587
_publ_section_title
;
Structure prediction by ZEFSAII (Michael W. Deem and Ramdas Pophale) SiO2 
 PCOD8289587
Probable space group: I M M M
;
_chemical_formula_sum "Si O2"
_cell_formula_units_Z 72
_cell_length_a 9.163964
_cell_length_b 17.682189
_cell_length_c 23.792037
_cell_angle_alpha 90.000000
_cell_angle_beta 90.000000
_cell_angle_gamma 90.000000
_cell_volume 3855.236538
_symmetry_space_group_name_H-M "I M M M"
_symmetry_group_IT_number 71
_symmetry_cell_setting 'orthorhombic'
loop_
_space_group_symop_operation_xyz
x,y,z
-x,-y,z
x,-y,-z
-x,y,-z
-x,-y,-z
x,y,-z
-x,y,z
x,-y,z
1/2+x,1/2+y,1/2+z
1/2-x,1/2-y,1/2+z
1/2+x,1/2-y,1/2-z
1/2-x,1/2+y,1/2-z
1/2-x,1/2-y,1/2-z
1/2+x,1/2+y,1/2-z
1/2-x,1/2+y,1/2+z
1/2+x,1/2-y,1/2+z
loop_
_atom_site_type_symbol
_atom_site_label
_atom_site_fract_x
_atom_site_fract_y
_atom_site_fract_z
Si Si1 0.672268 0.416474 0.761295
Si Si2 0.672575 0.359791 0.878613
Si Si3 0.672163 0.205856 0.935963
Si Si4 0.832309 0.500000 0.933577
Si Si5 0.832134 0.910963 0.138038
O O1 0.500000 0.424001 0.756000
O O2 0.736671 0.500000 0.774639
O O3 0.716068 0.361090 0.812347
O O4 0.728172 0.387663 0.700364
O O5 0.500000 0.371875 0.887005
O O6 0.726306 0.280072 0.902910
O O7 0.753828 0.425682 0.911111
O O8 0.500000 0.198137 0.932455
O O9 0.739814 0.131514 0.908769
O O10 0.725908 0.212237 0.000000
O O11 0.000000 0.500000 0.913794
O O12 0.818866 0.500000 0.000000
O O13 0.000000 0.887371 0.130865
O O14 0.811359 0.000000 0.128919
#
# Coordination Sequence:
#
# PCOD8289587 Si02
#       5
#    16  16  16   8  16
#     4   8  14  29  55  83 106 132 172 221 265 310
#     4  10  19  35  59  80 103 144 187 219 261 320
#     4  10  22  37  52  77 111 142 180 229 270 310
#     4  11  23  35  49  77 115 149 182 223 266 305
#     4   9  19  36  58  81 105 137 176 219 274 334
#
# _framework density 18.675896999999999
#
# number of rings (size 3 to 8) (size 9 to 14) (size 15 to 20)
#    0.000    2.556    1.111    2.333    0.000    4.889 
#    0.000    3.333    0.000    0.000    0.000    0.000 
#    0.000    0.000    0.000    0.000    0.000    0.000 
#
# Total GULP energy -446291.873741 kJ/mol
# GULP energy per Si atom -12396.996493 kJ/mol
# Density = 1.863339 g / cm^3
# Si number density = 18.675897 Si / 1000 Ang^3
#
#
#
# Elastic Constant Matrix: (Units=GPa)
#
#
# Indices 1 2 3 4 5 6 
#
# 1 32.3068 30.4389 33.3088 0.0000 0.0000 0.0000
# 2 30.4389 92.9878 73.9596 0.0000 0.0000 0.0000
# 3 33.3088 73.9596 149.4767 0.0000 0.0000 0.0000
# 4 0.0000 0.0000 0.0000 34.0954 0.0000 0.0000
# 5 0.0000 0.0000 0.0000 0.0000 26.7286 0.0000
# 6 0.0000 0.0000 0.0000 0.0000 0.0000 23.0380
#
#
#
# Elastic Compliance Matrix: (Units=1/GPa)
#
#
# Indices 1 2 3 4 5 6 
#
# 1 0.046664 -0.011550 -0.004684 0.000000 0.000000 0.000000
# 2 -0.011550 0.020591 -0.007615 0.000000 0.000000 0.000000
# 3 -0.004684 -0.007615 0.011501 0.000000 0.000000 0.000000
# 4 0.000000 0.000000 0.000000 0.029329 0.000000 0.000000
# 5 0.000000 0.000000 0.000000 0.000000 0.037413 0.000000
# 6 0.000000 0.000000 0.000000 0.000000 0.000000 0.043407
#
#
# Mechanical properties :
#
#
# Convention : Reuss Voigt Hill
#
# Bulk Modulus (GPa) = 32.19531 61.13176 46.66353
# Shear Modulus (GPa) = 20.24651 25.91001 23.07826
#
# Velocity S-wave (km/s) = 3.29614 3.72876 3.51910
# Velocity P-wave (km/s) = 5.63581 7.16535 6.44611
#
# Compressibility (1/GPa) = 0.03106043
#
# Stress axis : x y z
#
# Youngs Moduli (GPa) = 21.42966 48.56417 86.94637
#
# Poissons Ratio (x) = 0.56091 0.40723
# Poissons Ratio (y) = 0.24751 0.66206
# Poissons Ratio (z) = 0.10037 0.36980
#
# Static dielectric constant tensor:
#      x y z
#    x 3.145080 0.000000 0.000000 
#    y 0.000000 3.426310 0.000000 
#    z 0.000000 0.000000 3.769060 
# 
# 
# High freq. dielectric constant tensor:
#      x y z
#    x 1.693760 0.000000 0.000000 
#    y 0.000000 1.718360 0.000000 
#    z 0.000000 0.000000 1.743450 
# 
# From -- ./inp_files/7916.got.cif
#   From: 2010.06.25/outbox.cif.g09.slc.cpg/sg71_4_cif.got.tgz:7916.got - 2010.06.28 04:59:45.
