data_PCOD8289611
_publ_section_title
;
Structure prediction by ZEFSAII (Michael W. Deem and Ramdas Pophale) SiO2 
 PCOD8289611
Probable space group: I M M M
;
_chemical_formula_sum "Si O2"
_cell_formula_units_Z 88
_cell_length_a 17.376466
_cell_length_b 21.194847
_cell_length_c 13.429667
_cell_angle_alpha 90.000000
_cell_angle_beta 90.000000
_cell_angle_gamma 90.000000
_cell_volume 4946.032718
_symmetry_space_group_name_H-M "I M M M"
_symmetry_group_IT_number 71
_symmetry_cell_setting 'orthorhombic'
loop_
_space_group_symop_operation_xyz
x,y,z
-x,-y,z
x,-y,-z
-x,y,-z
-x,-y,-z
x,y,-z
-x,y,z
x,-y,z
1/2+x,1/2+y,1/2+z
1/2-x,1/2-y,1/2+z
1/2+x,1/2-y,1/2-z
1/2-x,1/2+y,1/2-z
1/2-x,1/2-y,1/2-z
1/2+x,1/2+y,1/2-z
1/2-x,1/2+y,1/2+z
1/2+x,1/2-y,1/2+z
loop_
_atom_site_type_symbol
_atom_site_label
_atom_site_fract_x
_atom_site_fract_y
_atom_site_fract_z
Si Si1 0.645089 0.863642 0.302133
Si Si2 0.655550 0.210106 0.112565
Si Si3 0.296309 0.426300 0.883564
Si Si4 0.410360 0.669077 0.206274
Si Si5 0.833491 0.770096 0.887456
Si Si6 0.000000 0.426331 0.110208
O O1 0.639354 0.848903 0.184409
O O2 0.723840 0.899444 0.324306
O O3 0.635578 0.799517 0.364603
O O4 0.575098 0.908178 0.328915
O O5 0.601274 0.269081 0.138432
O O6 0.742471 0.232848 0.129996
O O7 0.640060 0.187924 0.000000
O O8 0.306079 0.500000 0.860906
O O9 0.372970 0.391421 0.846574
O O10 0.283311 0.413235 0.000000
O O11 0.500000 0.655100 0.219022
O O12 0.372759 0.679081 0.315077
O O13 0.854505 0.789392 0.000000
O O14 0.000000 0.500000 0.097566
O O15 0.000000 0.395093 0.000000
#
# Coordination Sequence:
#
# PCOD8289611 Si02
#       6
#    16  16  16  16  16   8
#     4  11  20  37  57  84 113 143 183 230 277 327
#     4  10  20  36  59  84 110 143 182 227 278 331
#     4  11  22  37  58  79 105 147 190 227 272 328
#     4  11  22  36  53  83 119 146 180 226 277 328
#     4  10  19  35  60  85 110 140 181 231 279 330
#     4  11  24  38  55  83 117 151 185 228 278 324
#
# _framework density 17.792037000000001
#
# number of rings (size 3 to 8) (size 9 to 14) (size 15 to 20)
#    0.000    1.364    3.636    3.818    5.091    3.636 
#    0.000    0.909    0.000    4.364    0.000    1.273 
#    0.000    0.000    0.000    0.000    0.000    0.000 
#
# Total GULP energy -545761.905762 kJ/mol
# GULP energy per Si atom -12403.679676 kJ/mol
# Density = 1.775154 g / cm^3
# Si number density = 17.792037 Si / 1000 Ang^3
#
#
#
# Elastic Constant Matrix: (Units=GPa)
#
#
# Indices 1 2 3 4 5 6 
#
# 1 79.4140 21.0079 28.0162 0.0000 0.0000 0.0000
# 2 21.0079 82.7004 44.9969 0.0000 0.0000 0.0000
# 3 28.0162 44.9969 139.3342 0.0000 0.0000 0.0000
# 4 0.0000 0.0000 0.0000 26.4021 0.0000 0.0000
# 5 0.0000 0.0000 0.0000 0.0000 22.1464 0.0000
# 6 0.0000 0.0000 0.0000 0.0000 0.0000 19.6226
#
#
#
# Elastic Compliance Matrix: (Units=1/GPa)
#
#
# Indices 1 2 3 4 5 6 
#
# 1 0.013950 -0.002448 -0.002015 0.000000 0.000000 0.000000
# 2 -0.002448 0.015099 -0.004384 0.000000 0.000000 0.000000
# 3 -0.002015 -0.004384 0.008998 0.000000 0.000000 0.000000
# 4 0.000000 0.000000 0.000000 0.037876 0.000000 0.000000
# 5 0.000000 0.000000 0.000000 0.000000 0.045154 0.000000
# 6 0.000000 0.000000 0.000000 0.000000 0.000000 0.050962
#
#
# Mechanical properties :
#
#
# Convention : Reuss Voigt Hill
#
# Bulk Modulus (GPa) = 49.12832 54.38786 51.75809
# Shear Modulus (GPa) = 25.44321 27.46270 26.45296
#
# Velocity S-wave (km/s) = 3.78568 3.93305 3.86007
# Velocity P-wave (km/s) = 6.83966 7.15962 7.00147
#
# Compressibility (1/GPa) = 0.02035486
#
# Stress axis : x y z
#
# Youngs Moduli (GPa) = 71.68225 66.23015 111.13801
#
# Poissons Ratio (x) = 0.16211 0.22390
# Poissons Ratio (y) = 0.17545 0.48722
# Poissons Ratio (z) = 0.14441 0.29035
#
# Static dielectric constant tensor:
#      x y z
#    x 3.238120 0.000000 0.000000 
#    y 0.000000 3.151680 0.000000 
#    z 0.000000 0.000000 3.510050 
# 
# 
# High freq. dielectric constant tensor:
#      x y z
#    x 1.691840 0.000000 0.000000 
#    y 0.000000 1.667330 0.000000 
#    z 0.000000 0.000000 1.696600 
# 
# From -- ./inp_files/34429.got.cif
#   From: 2010.06.25/outbox.cif.g09.slc.cpg/sg71_18_cif.got.tgz:34429.got - 2010.06.28 04:59:45.
