data_PCOD8289181
_publ_section_title
;
Structure prediction by ZEFSAII (Michael W. Deem and Ramdas Pophale) SiO2 
 PCOD8289181
Probable space group: I M M M
;
_chemical_formula_sum "Si O2"
_cell_formula_units_Z 72
_cell_length_a 11.916490
_cell_length_b 24.529209
_cell_length_c 12.854622
_cell_angle_alpha 90.000000
_cell_angle_beta 90.000000
_cell_angle_gamma 90.000000
_cell_volume 3757.432668
_symmetry_space_group_name_H-M "I M M M"
_symmetry_group_IT_number 71
_symmetry_cell_setting 'orthorhombic'
loop_
_space_group_symop_operation_xyz
x,y,z
-x,-y,z
x,-y,-z
-x,y,-z
-x,-y,-z
x,y,-z
-x,y,z
x,-y,z
1/2+x,1/2+y,1/2+z
1/2-x,1/2-y,1/2+z
1/2+x,1/2-y,1/2-z
1/2-x,1/2+y,1/2-z
1/2-x,1/2-y,1/2-z
1/2+x,1/2+y,1/2-z
1/2-x,1/2+y,1/2+z
1/2+x,1/2-y,1/2+z
loop_
_atom_site_type_symbol
_atom_site_label
_atom_site_fract_x
_atom_site_fract_y
_atom_site_fract_z
Si Si1 0.726289 0.885024 0.822971
Si Si2 0.367982 0.562998 0.500000
Si Si3 0.500000 0.936318 0.787145
Si Si4 0.254822 0.165771 0.379849
Si Si5 0.875406 0.272960 0.622321
Si Si6 0.500000 0.150324 0.615602
O O1 0.612965 0.919069 0.848608
O O2 0.764995 0.885396 0.700330
O O3 0.705744 0.821415 0.844296
O O4 0.822858 0.908484 0.895804
O O5 0.332395 0.500000 0.500000
O O6 0.500000 0.570494 0.500000
O O7 0.500000 0.905490 0.678676
O O8 0.500000 0.000000 0.767284
O O9 0.230885 0.148015 0.500000
O O10 0.177549 0.215557 0.343580
O O11 0.385817 0.184876 0.364797
O O12 0.887130 0.273779 0.500000
O O13 0.000000 0.279908 0.672731
O O14 0.500000 0.127678 0.500000
#
# Coordination Sequence:
#
# PCOD8289181 Si02
#       6
#    16   8   8  16  16   8
#     4  11  20  38  57  81 115 147 191 239 281 339
#     4  11  26  45  61  81 111 148 189 239 295 344
#     4  10  20  32  56  84 105 143 193 238 289 328
#     4   9  19  34  55  83 115 155 187 225 283 334
#     4  10  19  33  52  79 115 150 189 238 280 334
#     4   8  16  33  51  77 118 150 181 230 273 337
#
# _framework density 19.162020999999999
#
# number of rings (size 3 to 8) (size 9 to 14) (size 15 to 20)
#    0.000    2.111    2.222    1.333    0.000    1.556 
#    2.000    1.111    0.000    2.000    0.000    1.556 
#    0.000    0.000    0.000    0.000    0.000    0.000 
#
# Total GULP energy -446114.724372 kJ/mol
# GULP energy per Si atom -12392.075677 kJ/mol
# Density = 1.911841 g / cm^3
# Si number density = 19.162021 Si / 1000 Ang^3
#
#
#
# Elastic Constant Matrix: (Units=GPa)
#
#
# Indices 1 2 3 4 5 6 
#
# 1 79.0954 38.8038 58.6416 -0.0001 0.0000 0.0000
# 2 38.8038 78.9109 48.5648 -0.0001 0.0001 0.0000
# 3 58.6416 48.5648 73.3602 -0.0010 0.0009 0.0003
# 4 -0.0001 -0.0001 -0.0010 18.3032 0.0001 0.0000
# 5 0.0000 0.0001 0.0009 0.0001 27.3669 -0.0001
# 6 0.0000 0.0000 0.0003 0.0000 -0.0001 28.7448
#
#
#
# Elastic Compliance Matrix: (Units=1/GPa)
#
#
# Indices 1 2 3 4 5 6 
#
# 1 0.031037 0.000011 -0.024818 -0.000001 0.000001 0.000000
# 2 0.000011 0.021385 -0.014166 -0.000001 0.000000 0.000000
# 3 -0.024818 -0.014166 0.042848 0.000002 -0.000001 0.000000
# 4 -0.000001 -0.000001 0.000002 0.054635 0.000000 0.000000
# 5 0.000001 0.000000 -0.000001 0.000000 0.036540 0.000000
# 6 0.000000 0.000000 0.000000 0.000000 0.000000 0.034789
#
#
# Mechanical properties :
#
#
# Convention : Reuss Voigt Hill
#
# Bulk Modulus (GPa) = 57.71875 58.15410 57.93642
# Shear Modulus (GPa) = 16.39579 20.57340 18.48460
#
# Velocity S-wave (km/s) = 2.92831 3.28022 3.10925
# Velocity P-wave (km/s) = 6.45137 6.69037 6.57195
#
# Compressibility (1/GPa) = 0.01732539
#
# Stress axis : x y z
#
# Youngs Moduli (GPa) = 32.21929 46.76072 23.33824
#
# Poissons Ratio (x) = -0.00054 0.57920
# Poissons Ratio (y) = -0.00037 0.33062
# Poissons Ratio (z) = 0.79961 0.66243
#
# Static dielectric constant tensor:
#      x y z
#    x 3.810620 0.000000 0.000000 
#    y 0.000000 3.208420 0.000000 
#    z 0.000000 0.000000 3.946730 
# 
# 
# High freq. dielectric constant tensor:
#      x y z
#    x 1.744540 0.000000 0.000000 
#    y 0.000000 1.711160 0.000000 
#    z 0.000000 0.000000 1.763450 
# 
# From -- ./inp_files/32622.got.cif
#   From: 2010.06.25/outbox.cif.g09.slc.cpg/sg71_17_cif.got.tgz:32622.got - 2010.06.28 04:59:45.
