data_PCOD8289651
_publ_section_title
;
Structure prediction by ZEFSAII (Michael W. Deem and Ramdas Pophale) SiO2 
 PCOD8289651
Probable space group: I M M M
;
_chemical_formula_sum "Si O2"
_cell_formula_units_Z 60
_cell_length_a 11.067812
_cell_length_b 15.441470
_cell_length_c 17.637840
_cell_angle_alpha 90.000000
_cell_angle_beta 90.000000
_cell_angle_gamma 90.000000
_cell_volume 3014.364831
_symmetry_space_group_name_H-M "I M M M"
_symmetry_group_IT_number 71
_symmetry_cell_setting 'orthorhombic'
loop_
_space_group_symop_operation_xyz
x,y,z
-x,-y,z
x,-y,-z
-x,y,-z
-x,-y,-z
x,y,-z
-x,y,z
x,-y,z
1/2+x,1/2+y,1/2+z
1/2-x,1/2-y,1/2+z
1/2+x,1/2-y,1/2-z
1/2-x,1/2+y,1/2-z
1/2-x,1/2-y,1/2-z
1/2+x,1/2+y,1/2-z
1/2-x,1/2+y,1/2+z
1/2+x,1/2-y,1/2+z
loop_
_atom_site_type_symbol
_atom_site_label
_atom_site_fract_x
_atom_site_fract_y
_atom_site_fract_z
Si Si1 0.233889 0.330584 0.586044
Si Si2 0.000000 0.856968 0.083454
Si Si3 0.000000 0.000000 0.207199
Si Si4 0.728032 0.500000 0.186076
Si Si5 0.138711 0.149488 0.411715
Si Si6 0.140240 0.500000 0.668519
O O1 0.195288 0.352356 0.500000
O O2 0.375648 0.302761 0.590271
O O3 0.159581 0.247859 0.616408
O O4 0.205127 0.414766 0.635701
O O5 0.000000 0.918882 0.153691
O O6 0.000000 0.903370 0.000000
O O7 0.116571 0.000000 0.257903
O O8 0.725846 0.414841 0.133806
O O9 0.846276 0.500000 0.239851
O O10 0.171770 0.141465 0.500000
O O11 0.000000 0.123337 0.396587
O O12 0.000000 0.500000 0.646375
#
# Coordination Sequence:
#
# PCOD8289651 Si02
#       6
#    16   8   4   8  16   8
#     4  10  21  38  62  88 118 153 194 237 285 345
#     4  10  19  36  60  88 119 155 193 232 281 350
#     4  12  19  36  59  88 112 152 192 238 293 340
#     4  12  23  39  60  85 118 154 194 243 292 344
#     4  10  21  39  63  89 114 150 196 242 287 341
#     4  12  25  40  56  87 121 154 189 237 299 350
#
# _framework density 19.904689999999999
#
# number of rings (size 3 to 8) (size 9 to 14) (size 15 to 20)
#    0.000    1.333    4.000    1.800    0.000    6.400 
#    2.400    0.000    0.000    0.800    0.000    0.000 
#    0.000    0.000    0.000    0.000    0.000    0.000 
#
# Total GULP energy -371897.438702 kJ/mol
# GULP energy per Si atom -12396.581290 kJ/mol
# Density = 1.985939 g / cm^3
# Si number density = 19.904690 Si / 1000 Ang^3
#
#
#
# Elastic Constant Matrix: (Units=GPa)
#
#
# Indices 1 2 3 4 5 6 
#
# 1 82.9211 16.8428 20.2395 0.0000 0.0000 0.0000
# 2 16.8428 128.9305 58.2100 0.0000 0.0000 0.0000
# 3 20.2395 58.2100 86.9261 0.0000 0.0000 0.0000
# 4 0.0000 0.0000 0.0000 1.7008 0.0000 0.0000
# 5 0.0000 0.0000 0.0000 0.0000 29.8172 0.0000
# 6 0.0000 0.0000 0.0000 0.0000 0.0000 23.5273
#
#
#
# Elastic Compliance Matrix: (Units=1/GPa)
#
#
# Indices 1 2 3 4 5 6 
#
# 1 0.012806 -0.000468 -0.002668 0.000000 0.000000 0.000000
# 2 -0.000468 0.011134 -0.007347 0.000000 0.000000 0.000000
# 3 -0.002668 -0.007347 0.017045 0.000000 0.000000 0.000000
# 4 0.000000 0.000000 0.000000 0.587958 0.000000 0.000000
# 5 0.000000 0.000000 0.000000 0.000000 0.033538 0.000000
# 6 0.000000 0.000000 0.000000 0.000000 0.000000 0.042504
#
#
# Mechanical properties :
#
#
# Convention : Reuss Voigt Hill
#
# Bulk Modulus (GPa) = 49.95350 54.37361 52.16355
# Shear Modulus (GPa) = 6.82477 24.57474 15.69976
#
# Velocity S-wave (km/s) = 1.85369 3.51753 2.81151
# Velocity P-wave (km/s) = 5.45274 6.62372 6.06655
#
# Compressibility (1/GPa) = 0.02001862
#
# Stress axis : x y z
#
# Youngs Moduli (GPa) = 78.08835 89.81183 58.66742
#
# Poissons Ratio (x) = 0.04206 0.15653
# Poissons Ratio (y) = 0.03657 0.43104
# Poissons Ratio (z) = 0.20835 0.65986
#
# Static dielectric constant tensor:
#      x y z
#    x 3.727260 0.000000 0.000000 
#    y 0.000000 3.517980 0.000000 
#    z 0.000000 0.000000 3.751150 
# 
# 
# High freq. dielectric constant tensor:
#      x y z
#    x 1.772130 0.000000 0.000000 
#    y 0.000000 1.763260 0.000000 
#    z 0.000000 0.000000 1.780970 
# 
# From -- ./inp_files/42887.got.cif
#   From: 2010.06.25/outbox.cif.g09.slc.cpg/sg71_22_cif.got.tgz:42887.got - 2010.06.28 04:59:45.
