data_PCOD8289424
_publ_section_title
;
Structure prediction by ZEFSAII (Michael W. Deem and Ramdas Pophale) SiO2 
 PCOD8289424
Probable space group: I M M M
;
_chemical_formula_sum "Si O2"
_cell_formula_units_Z 104
_cell_length_a 16.585333
_cell_length_b 19.195453
_cell_length_c 17.437818
_cell_angle_alpha 90.000000
_cell_angle_beta 90.000000
_cell_angle_gamma 90.000000
_cell_volume 5551.555705
_symmetry_space_group_name_H-M "I M M M"
_symmetry_group_IT_number 71
_symmetry_cell_setting 'orthorhombic'
loop_
_space_group_symop_operation_xyz
x,y,z
-x,-y,z
x,-y,-z
-x,y,-z
-x,-y,-z
x,y,-z
-x,y,z
x,-y,z
1/2+x,1/2+y,1/2+z
1/2-x,1/2-y,1/2+z
1/2+x,1/2-y,1/2-z
1/2-x,1/2+y,1/2-z
1/2-x,1/2-y,1/2-z
1/2+x,1/2+y,1/2-z
1/2-x,1/2+y,1/2+z
1/2+x,1/2-y,1/2+z
loop_
_atom_site_type_symbol
_atom_site_label
_atom_site_fract_x
_atom_site_fract_y
_atom_site_fract_z
Si Si1 0.000000 0.918680 0.914873
Si Si2 0.676782 0.783332 0.413498
Si Si3 0.215961 0.580511 0.711975
Si Si4 0.094810 0.310454 0.238466
Si Si5 0.670496 0.380253 0.586126
Si Si6 0.323948 0.323070 0.183792
Si Si7 0.906863 0.075308 0.416667
O O1 0.916811 0.895498 0.872871
O O2 0.000000 0.000000 0.920538
O O3 0.000000 0.883986 0.000000
O O4 0.658792 0.811642 0.500000
O O5 0.609660 0.812426 0.353598
O O6 0.680130 0.701271 0.413955
O O7 0.764699 0.805549 0.385799
O O8 0.205988 0.500000 0.738267
O O9 0.129508 0.619462 0.721022
O O10 0.253163 0.582744 0.626552
O O11 0.280650 0.624006 0.759595
O O12 0.144028 0.244615 0.271900
O O13 0.000000 0.305226 0.256189
O O14 0.669198 0.411042 0.500000
O O15 0.396576 0.364633 0.145822
O O16 0.869336 0.095525 0.500000
O O17 0.000000 0.065199 0.427311
O O18 0.869808 0.000000 0.390366
#
# Coordination Sequence:
#
# PCOD8289424 Si02
#       7
#     8  16  16  16  16  16  16
#     4   9  18  30  46  74 112 146 178 220 274 337
#     4  10  20  35  58  83 109 142 184 233 288 344
#     4  11  22  38  58  81 112 153 196 237 290 346
#     4  11  23  39  58  83 117 152 194 244 290 344
#     4  10  19  34  55  82 114 149 187 228 280 343
#     4  11  19  37  55  83 108 144 184 238 286 344
#     4   9  18  32  51  77 108 141 177 221 278 340
#
# _framework density 18.733487
#
# number of rings (size 3 to 8) (size 9 to 14) (size 15 to 20)
#    0.000    1.769    3.077    3.231    1.077    1.538 
#    1.385    0.000    0.000    5.538    0.000    5.385 
#    0.000    0.000    0.000    0.000    0.000    0.000 
#
# Total GULP energy -644295.270026 kJ/mol
# GULP energy per Si atom -12390.293654 kJ/mol
# Density = 1.869085 g / cm^3
# Si number density = 18.733487 Si / 1000 Ang^3
#
#
#
# Elastic Constant Matrix: (Units=GPa)
#
#
# Indices 1 2 3 4 5 6 
#
# 1 78.5999 38.5199 29.4114 0.0000 0.0000 0.0000
# 2 38.5199 109.8164 36.0620 0.0000 0.0000 0.0000
# 3 29.4114 36.0620 83.6381 0.0000 0.0000 0.0000
# 4 0.0000 0.0000 0.0000 45.9727 0.0000 0.0000
# 5 0.0000 0.0000 0.0000 0.0000 21.1552 0.0000
# 6 0.0000 0.0000 0.0000 0.0000 0.0000 20.6588
#
#
#
# Elastic Compliance Matrix: (Units=1/GPa)
#
#
# Indices 1 2 3 4 5 6 
#
# 1 0.016347 -0.004481 -0.003816 0.000000 0.000000 0.000000
# 2 -0.004481 0.011836 -0.003528 0.000000 0.000000 0.000000
# 3 -0.003816 -0.003528 0.014819 0.000000 0.000000 0.000000
# 4 0.000000 0.000000 0.000000 0.021752 0.000000 0.000000
# 5 0.000000 0.000000 0.000000 0.000000 0.047270 0.000000
# 6 0.000000 0.000000 0.000000 0.000000 0.000000 0.048405
#
#
# Mechanical properties :
#
#
# Convention : Reuss Voigt Hill
#
# Bulk Modulus (GPa) = 51.67260 53.33789 52.50524
# Shear Modulus (GPa) = 26.24262 28.76142 27.50202
#
# Velocity S-wave (km/s) = 3.74684 3.92253 3.83569
# Velocity P-wave (km/s) = 6.80891 7.00348 6.90688
#
# Compressibility (1/GPa) = 0.01935262
#
# Stress axis : x y z
#
# Youngs Moduli (GPa) = 61.17498 84.48648 67.47920
#
# Poissons Ratio (x) = 0.37855 0.25753
# Poissons Ratio (y) = 0.27410 0.23805
# Poissons Ratio (z) = 0.23347 0.29805
#
# Static dielectric constant tensor:
#      x y z
#    x 3.023790 0.000000 0.000000 
#    y 0.000000 3.124050 0.000000 
#    z 0.000000 0.000000 3.948010 
# 
# 
# High freq. dielectric constant tensor:
#      x y z
#    x 1.712390 0.000000 0.000000 
#    y 0.000000 1.725930 0.000000 
#    z 0.000000 0.000000 1.725290 
# 
# From -- ./inp_files/46144.got.cif
#   From: 2010.06.25/outbox.cif.g09.slc.cpg/sg71_24_cif.got.tgz:46144.got - 2010.06.28 04:59:45.
