data_PCOD8289061
_publ_section_title
;
Structure prediction by ZEFSAII (Michael W. Deem and Ramdas Pophale) SiO2 
 PCOD8289061
Probable space group: I M M M
;
_chemical_formula_sum "Si O2"
_cell_formula_units_Z 88
_cell_length_a 21.508146
_cell_length_b 19.357498
_cell_length_c 11.972224
_cell_angle_alpha 90.000000
_cell_angle_beta 90.000000
_cell_angle_gamma 90.000000
_cell_volume 4984.562350
_symmetry_space_group_name_H-M "I M M M"
_symmetry_group_IT_number 71
_symmetry_cell_setting 'orthorhombic'
loop_
_space_group_symop_operation_xyz
x,y,z
-x,-y,z
x,-y,-z
-x,y,-z
-x,-y,-z
x,y,-z
-x,y,z
x,-y,z
1/2+x,1/2+y,1/2+z
1/2-x,1/2-y,1/2+z
1/2+x,1/2-y,1/2-z
1/2-x,1/2+y,1/2-z
1/2-x,1/2-y,1/2-z
1/2+x,1/2+y,1/2-z
1/2-x,1/2+y,1/2+z
1/2+x,1/2-y,1/2+z
loop_
_atom_site_type_symbol
_atom_site_label
_atom_site_fract_x
_atom_site_fract_y
_atom_site_fract_z
Si Si1 0.703815 0.201588 0.126006
Si Si2 0.071207 0.281622 0.000000
Si Si3 0.628944 0.920696 0.500000
Si Si4 0.710670 0.076700 0.714181
Si Si5 0.156966 0.213874 0.179533
Si Si6 0.852639 0.078264 0.288644
Si Si7 0.569171 0.581684 0.000000
O O1 0.696966 0.126900 0.183024
O O2 0.775948 0.224974 0.122218
O O3 0.661900 0.255951 0.194638
O O4 0.678051 0.197891 0.000000
O O5 0.073043 0.365445 0.000000
O O6 0.104140 0.252122 0.889883
O O7 0.000000 0.257788 0.000000
O O8 0.669441 0.903818 0.391591
O O9 0.604374 0.000000 0.500000
O O10 0.781373 0.081280 0.671510
O O11 0.695104 0.000000 0.757738
O O12 0.138709 0.132438 0.186750
O O13 0.894904 0.105537 0.389626
O O14 0.870368 0.000000 0.250025
O O15 0.565956 0.500000 0.000000
O O16 0.500000 0.614083 0.000000
#
# Coordination Sequence:
#
# PCOD8289061 Si02
#       7
#    16   8   8  16  16  16   8
#     4  10  19  32  55  81 110 139 176 224 274 338
#     4  12  24  40  58  79 113 149 189 227 266 325
#     4  10  19  35  57  82 112 141 183 228 275 323
#     4   9  17  30  52  82 112 139 170 221 276 333
#     4  10  21  35  53  79 108 142 181 221 277 319
#     4   9  18  31  49  76 106 140 177 219 272 323
#     4   9  17  29  46  68  97 134 178 223 260 303
#
# _framework density 17.654508
#
# number of rings (size 3 to 8) (size 9 to 14) (size 15 to 20)
#    0.000    2.273    2.727    0.545    1.273    3.455 
#    0.000    0.455    0.000    0.545    0.000    0.000 
#    0.000    2.909    0.000    0.000    0.000    0.000 
#
# Total GULP energy -545452.559349 kJ/mol
# GULP energy per Si atom -12396.649076 kJ/mol
# Density = 1.761433 g / cm^3
# Si number density = 17.654508 Si / 1000 Ang^3
#
#
#
# Elastic Constant Matrix: (Units=GPa)
#
#
# Indices 1 2 3 4 5 6 
#
# 1 68.1353 40.0991 34.8119 0.0000 0.0000 0.0000
# 2 40.0991 104.9565 46.1128 0.0000 0.0000 0.0000
# 3 34.8119 46.1128 112.9014 0.0000 0.0000 0.0000
# 4 0.0000 0.0000 0.0000 22.9976 0.0000 0.0000
# 5 0.0000 0.0000 0.0000 0.0000 16.9294 0.0000
# 6 0.0000 0.0000 0.0000 0.0000 0.0000 16.9180
#
#
#
# Elastic Compliance Matrix: (Units=1/GPa)
#
#
# Indices 1 2 3 4 5 6 
#
# 1 0.020152 -0.006056 -0.003740 0.000000 0.000000 0.000000
# 2 -0.006056 0.013431 -0.003619 0.000000 0.000000 0.000000
# 3 -0.003740 -0.003619 0.011488 0.000000 0.000000 0.000000
# 4 0.000000 0.000000 0.000000 0.043483 0.000000 0.000000
# 5 0.000000 0.000000 0.000000 0.000000 0.059069 0.000000
# 6 0.000000 0.000000 0.000000 0.000000 0.000000 0.059109
#
#
# Mechanical properties :
#
#
# Convention : Reuss Voigt Hill
#
# Bulk Modulus (GPa) = 54.81753 58.67122 56.74437
# Shear Modulus (GPa) = 20.86455 22.36697 21.61576
#
# Velocity S-wave (km/s) = 3.44150 3.56325 3.50290
# Velocity P-wave (km/s) = 6.84905 7.08761 6.96935
#
# Compressibility (1/GPa) = 0.01824234
#
# Stress axis : x y z
#
# Youngs Moduli (GPa) = 49.62403 74.45349 87.04402
#
# Poissons Ratio (x) = 0.45087 0.32555
# Poissons Ratio (y) = 0.30051 0.31497
# Poissons Ratio (z) = 0.18560 0.26941
#
# Static dielectric constant tensor:
#      x y z
#    x 3.040650 0.000000 0.000000 
#    y 0.000000 3.547830 0.000000 
#    z 0.000000 0.000000 3.094690 
# 
# 
# High freq. dielectric constant tensor:
#      x y z
#    x 1.644450 0.000000 0.000000 
#    y 0.000000 1.696970 0.000000 
#    z 0.000000 0.000000 1.668590 
# 
# From -- ./inp_files/23993.got.cif
#   From: 2010.06.25/outbox.cif.g09.slc.cpg/sg71_12_cif.got.tgz:23993.got - 2010.06.28 04:59:45.
