data_PCOD8289673
_publ_section_title
;
Structure prediction by ZEFSAII (Michael W. Deem and Ramdas Pophale) SiO2 
 PCOD8289673
Probable space group: I M M M
;
_chemical_formula_sum "Si O2"
_cell_formula_units_Z 68
_cell_length_a 10.411431
_cell_length_b 17.641551
_cell_length_c 18.427590
_cell_angle_alpha 90.000000
_cell_angle_beta 90.000000
_cell_angle_gamma 90.000000
_cell_volume 3384.665314
_symmetry_space_group_name_H-M "I M M M"
_symmetry_group_IT_number 71
_symmetry_cell_setting 'orthorhombic'
loop_
_space_group_symop_operation_xyz
x,y,z
-x,-y,z
x,-y,-z
-x,y,-z
-x,-y,-z
x,y,-z
-x,y,z
x,-y,z
1/2+x,1/2+y,1/2+z
1/2-x,1/2-y,1/2+z
1/2+x,1/2-y,1/2-z
1/2-x,1/2+y,1/2-z
1/2-x,1/2-y,1/2-z
1/2+x,1/2+y,1/2-z
1/2-x,1/2+y,1/2+z
1/2+x,1/2-y,1/2+z
loop_
_atom_site_type_symbol
_atom_site_label
_atom_site_fract_x
_atom_site_fract_y
_atom_site_fract_z
Si Si1 0.791956 0.914256 0.000000
Si Si2 0.500000 0.414281 0.621268
Si Si3 0.280378 0.000000 0.579708
Si Si4 0.727146 0.342474 0.873294
Si Si5 0.000000 0.661101 0.200991
Si Si6 0.000000 0.182570 0.734257
Si Si7 0.649443 0.236220 0.000000
Si Si8 0.500000 0.000000 0.304024
O O1 0.875372 0.901009 0.072099
O O2 0.677978 0.853433 0.000000
O O3 0.736002 0.000000 0.000000
O O4 0.500000 0.500000 0.652545
O O5 0.500000 0.355152 0.686805
O O6 0.197773 0.922984 0.587683
O O7 0.378926 0.000000 0.644439
O O8 0.345376 0.000000 0.500000
O O9 0.874368 0.333785 0.849059
O O10 0.630105 0.339952 0.805979
O O11 0.706623 0.273742 0.928112
O O12 0.000000 0.726280 0.260487
O O13 0.000000 0.578245 0.242210
O O14 0.500000 0.250037 0.000000
#
# Coordination Sequence:
#
# PCOD8289673 Si02
#       8
#     8   8   8  16   8   8   8   4
#     4   9  20  41  68  92 118 154 209 268 310 357
#     4   9  20  40  67  97 120 153 208 262 310 366
#     4  10  19  37  60  89 123 157 197 244 301 360
#     4  11  24  39  63  91 124 166 204 249 304 370
#     4  10  22  41  62  86 120 157 212 254 301 357
#     4  12  23  39  62  91 129 165 195 249 308 364
#     4  12  23  41  60  89 129 162 209 254 309 367
#     4   8  19  36  60  90 114 151 200 254 302 355
#
# _framework density 20.090613000000001
#
# number of rings (size 3 to 8) (size 9 to 14) (size 15 to 20)
#    0.000    1.647    2.353    3.000    1.647    1.647 
#    0.000    1.176    2.588    0.000    0.000    0.000 
#    0.000    0.000    0.000    0.000    0.000    0.000 
#
# Total GULP energy -421451.178238 kJ/mol
# GULP energy per Si atom -12395.622889 kJ/mol
# Density = 2.004489 g / cm^3
# Si number density = 20.090613 Si / 1000 Ang^3
#
#
#
# Elastic Constant Matrix: (Units=GPa)
#
#
# Indices 1 2 3 4 5 6 
#
# 1 115.2376 39.3010 29.5464 0.0000 0.0000 0.0000
# 2 39.3010 161.0924 39.1721 0.0000 0.0000 0.0000
# 3 29.5464 39.1721 84.4999 0.0000 0.0000 0.0000
# 4 0.0000 0.0000 0.0000 34.8761 0.0000 0.0000
# 5 0.0000 0.0000 0.0000 0.0000 27.8812 0.0000
# 6 0.0000 0.0000 0.0000 0.0000 0.0000 13.9055
#
#
#
# Elastic Compliance Matrix: (Units=1/GPa)
#
#
# Indices 1 2 3 4 5 6 
#
# 1 0.009968 -0.001786 -0.002658 0.000000 0.000000 0.000000
# 2 -0.001786 0.007316 -0.002767 0.000000 0.000000 0.000000
# 3 -0.002658 -0.002767 0.014046 0.000000 0.000000 0.000000
# 4 0.000000 0.000000 0.000000 0.028673 0.000000 0.000000
# 5 0.000000 0.000000 0.000000 0.000000 0.035866 0.000000
# 6 0.000000 0.000000 0.000000 0.000000 0.000000 0.071914
#
#
# Mechanical properties :
#
#
# Convention : Reuss Voigt Hill
#
# Bulk Modulus (GPa) = 59.13791 64.09655 61.61723
# Shear Modulus (GPa) = 26.61818 32.18659 29.40239
#
# Velocity S-wave (km/s) = 3.64388 4.00693 3.82971
# Velocity P-wave (km/s) = 6.87046 7.30618 7.09167
#
# Compressibility (1/GPa) = 0.01690963
#
# Stress axis : x y z
#
# Youngs Moduli (GPa) = 100.31982 136.68410 71.19236
#
# Poissons Ratio (x) = 0.24407 0.18921
# Poissons Ratio (y) = 0.17913 0.19701
# Poissons Ratio (z) = 0.26662 0.37824
#
# Static dielectric constant tensor:
#      x y z
#    x 3.522090 0.000000 0.000000 
#    y 0.000000 4.323390 0.000000 
#    z 0.000000 0.000000 3.430190 
# 
# 
# High freq. dielectric constant tensor:
#      x y z
#    x 1.775250 0.000000 0.000000 
#    y 0.000000 1.810700 0.000000 
#    z 0.000000 0.000000 1.769640 
# 
# From -- ./inp_files/45743.got.cif
#   From: 2010.06.25/outbox.cif.g09.slc.cpg/sg71_23_cif.got.tgz:45743.got - 2010.06.28 04:59:45.
