data_PCOD8289110
_publ_section_title
;
Structure prediction by ZEFSAII (Michael W. Deem and Ramdas Pophale) SiO2 
 PCOD8289110
Probable space group: I M M M
;
_chemical_formula_sum "Si O2"
_cell_formula_units_Z 104
_cell_length_a 9.361159
_cell_length_b 27.916757
_cell_length_c 24.032731
_cell_angle_alpha 90.000000
_cell_angle_beta 90.000000
_cell_angle_gamma 90.000000
_cell_volume 6280.550522
_symmetry_space_group_name_H-M "I M M M"
_symmetry_group_IT_number 71
_symmetry_cell_setting 'orthorhombic'
loop_
_space_group_symop_operation_xyz
x,y,z
-x,-y,z
x,-y,-z
-x,y,-z
-x,-y,-z
x,y,-z
-x,y,z
x,-y,z
1/2+x,1/2+y,1/2+z
1/2-x,1/2-y,1/2+z
1/2+x,1/2-y,1/2-z
1/2-x,1/2+y,1/2-z
1/2-x,1/2-y,1/2-z
1/2+x,1/2+y,1/2-z
1/2-x,1/2+y,1/2+z
1/2+x,1/2-y,1/2+z
loop_
_atom_site_type_symbol
_atom_site_label
_atom_site_fract_x
_atom_site_fract_y
_atom_site_fract_z
Si Si1 0.335086 0.684189 0.564443
Si Si2 0.666917 0.945676 0.348360
Si Si3 0.661426 0.724782 0.066159
Si Si4 0.834465 0.500000 0.565617
Si Si5 0.833830 0.366907 0.935998
Si Si6 0.833737 0.914628 0.121220
Si Si7 0.836462 0.055152 0.242019
O O1 0.301465 0.673757 0.500000
O O2 0.500000 0.698071 0.572771
O O3 0.240820 0.727808 0.588222
O O4 0.292500 0.637525 0.599073
O O5 0.500000 0.943347 0.336759
O O6 0.710243 0.913631 0.401083
O O7 0.742699 0.925498 0.293113
O O8 0.716988 0.000000 0.361144
O O9 0.500000 0.724094 0.089188
O O10 0.743974 0.677792 0.087561
O O11 0.664837 0.725110 0.000000
O O12 0.814220 0.500000 0.500000
O O13 0.761499 0.547174 0.589501
O O14 0.000000 0.500000 0.582939
O O15 0.000000 0.354135 0.929008
O O16 0.796405 0.378193 0.000000
O O17 0.799778 0.914803 0.186890
O O18 0.000000 0.926904 0.110155
O O19 0.000000 0.061595 0.259571
O O20 0.800403 0.000000 0.228598
#
# Coordination Sequence:
#
# PCOD8289110 Si02
#       7
#    16  16  16   8  16  16  16
#     4   9  17  29  47  70  93 120 156 197 240 284
#     4   9  18  31  48  72  99 126 156 191 233 280
#     4   9  17  29  46  68  95 125 155 190 233 283
#     4  11  23  33  43  67 101 131 158 197 250 295
#     4   9  17  30  49  72  98 127 157 189 227 277
#     4  10  19  33  51  69  91 125 167 204 238 285
#     4   9  17  31  49  68  91 122 162 201 235 276
#
# _framework density 16.559056999999999
#
# number of rings (size 3 to 8) (size 9 to 14) (size 15 to 20)
#    0.000    2.692    0.769    1.154    0.000    5.231 
#    0.000    3.077    0.000    0.923    0.000    4.308 
#    0.000    0.000    0.000    0.000    0.000    0.000 
#
# Total GULP energy -644848.761509 kJ/mol
# GULP energy per Si atom -12400.937721 kJ/mol
# Density = 1.652137 g / cm^3
# Si number density = 16.559057 Si / 1000 Ang^3
#
#
#
# Elastic Constant Matrix: (Units=GPa)
#
#
# Indices 1 2 3 4 5 6 
#
# 1 81.0486 67.3876 49.1517 0.0000 0.0000 0.0000
# 2 67.3876 126.9426 67.3656 0.0000 0.0000 0.0000
# 3 49.1517 67.3656 88.0291 -0.0001 0.0000 0.0000
# 4 0.0000 0.0000 -0.0001 -0.5935 0.0000 0.0000
# 5 0.0000 0.0000 0.0000 0.0000 24.8212 0.0000
# 6 0.0000 0.0000 0.0000 0.0000 0.0000 20.1403
#
#
#
# Elastic Compliance Matrix: (Units=1/GPa)
#
#
# Indices 1 2 3 4 5 6 
#
# 1 0.023897 -0.009438 -0.006121 0.000000 0.000000 0.000000
# 2 -0.009438 0.016992 -0.007733 0.000001 0.000000 0.000000
# 3 -0.006121 -0.007733 0.020696 -0.000002 0.000000 0.000000
# 4 0.000000 0.000001 -0.000002 -1.684871 0.000001 0.000001
# 5 0.000000 0.000000 0.000000 0.000001 0.040288 0.000000
# 6 0.000000 0.000000 0.000000 0.000001 0.000000 0.049652
#
#
# Mechanical properties :
#
#
# Convention : Reuss Voigt Hill
#
# Bulk Modulus (GPa) = 66.66474 73.75890 70.21182
# Shear Modulus (GPa) = -3.37436 16.34796 6.48680
#
# Velocity S-wave (km/s) = -1.42905 3.14546 1.98138
# Velocity P-wave (km/s) = 6.13378 7.60471 6.90850
#
# Compressibility (1/GPa) = 0.01500043
#
# Stress axis : x y z
#
# Youngs Moduli (GPa) = 41.84598 58.85292 48.31933
#
# Poissons Ratio (x) = 0.55543 0.29576
# Poissons Ratio (y) = 0.39493 0.37367
# Poissons Ratio (z) = 0.25613 0.45514
#
# Static dielectric constant tensor:
#      x y z
#    x 3.178690 0.000000 0.000000 
#    y 0.000000 3.226850 0.000000 
#    z 0.000000 0.000000 2.994110 
# 
# 
# High freq. dielectric constant tensor:
#      x y z
#    x 1.639220 0.000000 0.000000 
#    y 0.000000 1.633320 0.000000 
#    z 0.000000 0.000000 1.615760 
# 
# From -- ./inp_files/58014.got.cif
#   From: 2010.06.25/outbox.cif.g09.slc.cpg/sg71_30_cif.got.tgz:58014.got - 2010.06.28 04:59:45.
