data_PCOD8289316
_publ_section_title
;
Structure prediction by ZEFSAII (Michael W. Deem and Ramdas Pophale) SiO2 
 PCOD8289316
Probable space group: I M M M
;
_chemical_formula_sum "Si O2"
_cell_formula_units_Z 96
_cell_length_a 22.893167
_cell_length_b 22.449616
_cell_length_c 9.614299
_cell_angle_alpha 90.000000
_cell_angle_beta 90.000000
_cell_angle_gamma 90.000000
_cell_volume 4941.199827
_symmetry_space_group_name_H-M "I M M M"
_symmetry_group_IT_number 71
_symmetry_cell_setting 'orthorhombic'
loop_
_space_group_symop_operation_xyz
x,y,z
-x,-y,z
x,-y,-z
-x,y,-z
-x,-y,-z
x,y,-z
-x,y,z
x,-y,z
1/2+x,1/2+y,1/2+z
1/2-x,1/2-y,1/2+z
1/2+x,1/2-y,1/2-z
1/2-x,1/2+y,1/2-z
1/2-x,1/2-y,1/2-z
1/2+x,1/2+y,1/2-z
1/2-x,1/2+y,1/2+z
1/2+x,1/2-y,1/2+z
loop_
_atom_site_type_symbol
_atom_site_label
_atom_site_fract_x
_atom_site_fract_y
_atom_site_fract_z
Si Si1 0.838661 0.763291 0.338529
Si Si2 0.431102 0.565163 0.000000
Si Si3 0.569048 0.353186 0.246715
Si Si4 0.430883 0.432605 0.500000
Si Si5 0.064501 0.429437 0.155040
Si Si6 0.671264 0.070248 0.161385
Si Si7 0.222183 0.664742 0.838373
O O1 0.848248 0.744287 0.500000
O O2 0.897427 0.790903 0.271725
O O3 0.823244 0.707065 0.243257
O O4 0.787621 0.811728 0.327760
O O5 0.409761 0.602919 0.871963
O O6 0.401346 0.500000 0.000000
O O7 0.500000 0.557003 0.000000
O O8 0.500000 0.339106 0.248271
O O9 0.590680 0.391891 0.375199
O O10 0.403687 0.500000 0.500000
O O11 0.500000 0.440254 0.500000
O O12 0.062317 0.500000 0.154549
O O13 0.109587 0.407903 0.272755
O O14 0.000000 0.404252 0.192000
O O15 0.083222 0.407271 0.000000
O O16 0.720982 0.102079 0.254779
O O17 0.680528 0.000000 0.176253
O O18 0.673883 0.089918 0.000000
O O19 0.203304 0.657980 0.000000
#
# Coordination Sequence:
#
# PCOD8289316 Si02
#       7
#    16   8  16   8  16  16  16
#     4  10  21  39  60  83 109 141 189 235 278 337
#     4   9  16  28  50  79 112 150 185 216 266 338
#     4  10  19  33  56  84 115 149 184 231 284 329
#     4   9  18  32  50  77 116 158 193 222 264 330
#     4   8  14  26  47  75 106 140 175 211 259 324
#     4  10  20  35  56  82 113 145 180 227 282 333
#     4  10  22  39  61  81 103 146 192 232 278 335
#
# _framework density 19.42848
#
# number of rings (size 3 to 8) (size 9 to 14) (size 15 to 20)
#    0.000    2.500    0.833    2.000    1.167    4.000 
#    0.000    4.167    0.000    3.000    0.000    0.000 
#    0.000    0.000    0.000    0.000    0.000    0.000 
#
# Total GULP energy -594810.497424 kJ/mol
# GULP energy per Si atom -12391.885363 kJ/mol
# Density = 1.938426 g / cm^3
# Si number density = 19.428480 Si / 1000 Ang^3
#
#
#
# Elastic Constant Matrix: (Units=GPa)
#
#
# Indices 1 2 3 4 5 6 
#
# 1 51.0658 28.7777 32.6858 0.0000 0.0000 0.0000
# 2 28.7777 66.4465 48.6761 0.0000 0.0000 0.0000
# 3 32.6858 48.6761 170.1964 0.0000 0.0000 0.0000
# 4 0.0000 0.0000 0.0000 39.4727 0.0000 0.0000
# 5 0.0000 0.0000 0.0000 0.0000 27.7582 0.0000
# 6 0.0000 0.0000 0.0000 0.0000 0.0000 25.7230
#
#
#
# Elastic Compliance Matrix: (Units=1/GPa)
#
#
# Indices 1 2 3 4 5 6 
#
# 1 0.026595 -0.009838 -0.002294 0.000000 0.000000 0.000000
# 2 -0.009838 0.022678 -0.004596 0.000000 0.000000 0.000000
# 3 -0.002294 -0.004596 0.007631 0.000000 0.000000 0.000000
# 4 0.000000 0.000000 0.000000 0.025334 0.000000 0.000000
# 5 0.000000 0.000000 0.000000 0.000000 0.036025 0.000000
# 6 0.000000 0.000000 0.000000 0.000000 0.000000 0.038876
#
#
# Mechanical properties :
#
#
# Convention : Reuss Voigt Hill
#
# Bulk Modulus (GPa) = 42.64949 56.44312 49.54630
# Shear Modulus (GPa) = 25.20037 30.42872 27.81455
#
# Velocity S-wave (km/s) = 3.60541 3.96181 3.78780
# Velocity P-wave (km/s) = 6.27150 7.07409 6.68485
#
# Compressibility (1/GPa) = 0.02344694
#
# Stress axis : x y z
#
# Youngs Moduli (GPa) = 37.60138 44.09648 131.04973
#
# Poissons Ratio (x) = 0.43381 0.30061
# Poissons Ratio (y) = 0.36991 0.60237
# Poissons Ratio (z) = 0.08625 0.20269
#
# Static dielectric constant tensor:
#      x y z
#    x 3.407120 0.000000 0.000000 
#    y 0.000000 3.468130 0.000000 
#    z 0.000000 0.000000 5.206410 
# 
# 
# High freq. dielectric constant tensor:
#      x y z
#    x 1.731370 0.000000 0.000000 
#    y 0.000000 1.744050 0.000000 
#    z 0.000000 0.000000 1.772210 
# 
# From -- ./inp_files/12954.got.cif
#   From: 2010.06.25/outbox.cif.g09.slc.cpg/sg71_7_cif.got.tgz:12954.got - 2010.06.28 04:59:45.
