data_PCOD8289675
_publ_section_title
;
Structure prediction by ZEFSAII (Michael W. Deem and Ramdas Pophale) SiO2 
 PCOD8289675
Probable space group: I M M M
;
_chemical_formula_sum "Si O2"
_cell_formula_units_Z 64
_cell_length_a 24.390955
_cell_length_b 18.434591
_cell_length_c 7.455929
_cell_angle_alpha 90.000000
_cell_angle_beta 90.000000
_cell_angle_gamma 90.000000
_cell_volume 3352.463632
_symmetry_space_group_name_H-M "I M M M"
_symmetry_group_IT_number 71
_symmetry_cell_setting 'orthorhombic'
loop_
_space_group_symop_operation_xyz
x,y,z
-x,-y,z
x,-y,-z
-x,y,-z
-x,-y,-z
x,y,-z
-x,y,z
x,-y,z
1/2+x,1/2+y,1/2+z
1/2-x,1/2-y,1/2+z
1/2+x,1/2-y,1/2-z
1/2-x,1/2+y,1/2-z
1/2-x,1/2-y,1/2-z
1/2+x,1/2+y,1/2-z
1/2-x,1/2+y,1/2+z
1/2+x,1/2-y,1/2+z
loop_
_atom_site_type_symbol
_atom_site_label
_atom_site_fract_x
_atom_site_fract_y
_atom_site_fract_z
Si Si1 0.000000 0.344070 0.804971
Si Si2 0.500000 0.687902 0.205458
Si Si3 0.684017 0.584552 0.500000
Si Si4 0.880689 0.832214 0.294982
Si Si5 0.688005 0.915478 0.000000
Si Si6 0.118704 0.663314 0.211751
O O1 0.058414 0.363599 0.712832
O O2 0.000000 0.257270 0.833645
O O3 0.000000 0.380859 0.000000
O O4 0.444093 0.642845 0.240970
O O5 0.500000 0.716670 0.000000
O O6 0.671037 0.500000 0.500000
O O7 0.658807 0.618967 0.677699
O O8 0.748023 0.601232 0.500000
O O9 0.864019 0.845745 0.500000
O O10 0.873013 0.748064 0.247872
O O11 0.663834 0.881181 0.819074
O O12 0.674831 0.000000 0.000000
O O13 0.124685 0.647579 0.000000
#
# Coordination Sequence:
#
# PCOD8289675 Si02
#       6
#     8   8   8  16   8  16
#     4   8  16  28  54  89 119 142 180 231 291 350
#     4   8  16  28  54  89 119 142 180 231 291 350
#     4  11  26  43  57  81 118 159 203 246 291 340
#     4  10  19  37  62  91 117 150 191 240 289 346
#     4  11  26  43  57  81 118 159 203 246 291 340
#     4  10  19  37  62  91 117 150 191 240 289 346
#
# _framework density 19.090437000000001
#
# number of rings (size 3 to 8) (size 9 to 14) (size 15 to 20)
#    0.000    2.250    2.500    0.000    3.500    3.000 
#    0.000    5.000    0.000    4.500    0.000    0.000 
#    0.000    0.000    0.000    0.000    0.000    0.000 
#
# Total GULP energy -396493.593900 kJ/mol
# GULP energy per Si atom -12390.424809 kJ/mol
# Density = 1.904699 g / cm^3
# Si number density = 19.090437 Si / 1000 Ang^3
#
#
#
# Elastic Constant Matrix: (Units=GPa)
#
#
# Indices 1 2 3 4 5 6 
#
# 1 149.4529 86.2143 72.4752 0.0000 0.0000 0.0000
# 2 86.2143 84.5476 51.4610 0.0000 0.0000 0.0000
# 3 72.4752 51.4610 131.7644 0.0000 0.0000 0.0000
# 4 0.0000 0.0000 0.0000 21.0776 0.0000 0.0000
# 5 0.0000 0.0000 0.0000 0.0000 32.6594 0.0000
# 6 0.0000 0.0000 0.0000 0.0000 0.0000 -25.5080
#
#
#
# Elastic Compliance Matrix: (Units=1/GPa)
#
#
# Indices 1 2 3 4 5 6 
#
# 1 0.017374 -0.015611 -0.003459 0.000000 0.000000 0.000000
# 2 -0.015611 0.029543 -0.002951 0.000000 0.000000 0.000000
# 3 -0.003459 -0.002951 0.010645 0.000000 0.000000 0.000000
# 4 0.000000 0.000000 0.000000 0.047444 0.000000 0.000000
# 5 0.000000 0.000000 0.000000 0.000000 0.030619 0.000000
# 6 0.000000 0.000000 0.000000 0.000000 0.000000 -0.039203
#
#
# Mechanical properties :
#
#
# Convention : Reuss Voigt Hill
#
# Bulk Modulus (GPa) = 73.97552 87.34067 80.65810
# Shear Modulus (GPa) = 34.48958 16.02008 25.25483
#
# Velocity S-wave (km/s) = 4.25507 2.89998 3.64112
# Velocity P-wave (km/s) = 7.93568 7.55404 7.74721
#
# Compressibility (1/GPa) = 0.01351799
#
# Stress axis : x y z
#
# Youngs Moduli (GPa) = 57.55665 33.84910 93.94222
#
# Poissons Ratio (x) = 0.52842 0.32499
# Poissons Ratio (y) = 0.89852 0.27726
# Poissons Ratio (z) = 0.19912 0.09990
#
# Static dielectric constant tensor:
#      x y z
#    x 3.744610 0.000000 0.000000 
#    y 0.000000 3.088780 0.000000 
#    z 0.000000 0.000000 3.487620 
# 
# 
# High freq. dielectric constant tensor:
#      x y z
#    x 1.755070 0.000000 0.000000 
#    y 0.000000 1.696050 0.000000 
#    z 0.000000 0.000000 1.754030 
# 
# From -- ./inp_files/9573.got.cif
#   From: 2010.06.25/outbox.cif.g09.slc.cpg/sg71_5_cif.got.tgz:9573.got - 2010.06.28 04:59:45.
