data_PCOD8289201
_publ_section_title
;
Structure prediction by ZEFSAII (Michael W. Deem and Ramdas Pophale) SiO2 
 PCOD8289201
Probable space group: I M M M
;
_chemical_formula_sum "Si O2"
_cell_formula_units_Z 72
_cell_length_a 29.000892
_cell_length_b 16.432044
_cell_length_c 8.015937
_cell_angle_alpha 90.000000
_cell_angle_beta 90.000000
_cell_angle_gamma 90.000000
_cell_volume 3819.946148
_symmetry_space_group_name_H-M "I M M M"
_symmetry_group_IT_number 71
_symmetry_cell_setting 'orthorhombic'
loop_
_space_group_symop_operation_xyz
x,y,z
-x,-y,z
x,-y,-z
-x,y,-z
-x,-y,-z
x,y,-z
-x,y,z
x,-y,z
1/2+x,1/2+y,1/2+z
1/2-x,1/2-y,1/2+z
1/2+x,1/2-y,1/2-z
1/2-x,1/2+y,1/2-z
1/2-x,1/2-y,1/2-z
1/2+x,1/2+y,1/2-z
1/2-x,1/2+y,1/2+z
1/2+x,1/2-y,1/2+z
loop_
_atom_site_type_symbol
_atom_site_label
_atom_site_fract_x
_atom_site_fract_y
_atom_site_fract_z
Si Si1 0.384870 0.827035 0.688858
Si Si2 0.718342 0.175179 0.801492
Si Si3 0.445289 0.589870 0.500000
Si Si4 0.617230 0.000000 0.815694
Si Si5 0.273604 0.000000 0.181760
Si Si6 0.553165 0.307257 0.185791
O O1 0.395869 0.802287 0.500000
O O2 0.331577 0.808598 0.725552
O O3 0.416928 0.774455 0.809845
O O4 0.398614 0.920737 0.715343
O O5 0.750000 0.250000 0.750000
O O6 0.738950 0.087541 0.731219
O O7 0.713914 0.168440 0.000000
O O8 0.423571 0.500000 0.500000
O O9 0.500000 0.585391 0.500000
O O10 0.428003 0.632591 0.329681
O O11 0.671734 0.000000 0.834761
O O12 0.594853 0.000000 0.000000
O O13 0.249905 0.000000 0.000000
O O14 0.500000 0.284930 0.220317
O O15 0.558715 0.346233 0.000000
#
# Coordination Sequence:
#
# PCOD8289201 Si02
#       6
#    16  16   8   8   8  16
#     4  11  20  33  54  79 108 141 181 223 264 316
#     4  10  19  33  53  77 103 137 178 220 269 319
#     4   9  18  34  56  81 107 137 179 226 270 324
#     4   9  17  31  50  76 105 139 179 218 260 312
#     4   7  14  29  49  70  98 131 168 214 259 313
#     4  10  20  35  56  81 110 144 179 222 273 321
#
# _framework density 18.848433
#
# number of rings (size 3 to 8) (size 9 to 14) (size 15 to 20)
#    0.000    2.333    1.111    4.333    0.000    0.444 
#    0.000    4.444    2.444    3.333    0.000    0.000 
#    0.000    0.000    0.000    0.000    0.000    0.000 
#
# Total GULP energy -446069.321082 kJ/mol
# GULP energy per Si atom -12390.814474 kJ/mol
# Density = 1.880553 g / cm^3
# Si number density = 18.848433 Si / 1000 Ang^3
#
#
#
# Elastic Constant Matrix: (Units=GPa)
#
#
# Indices 1 2 3 4 5 6 
#
# 1 44.2011 45.7091 19.9650 0.0000 0.0000 0.0000
# 2 45.7091 160.3755 42.4128 0.0000 0.0000 0.0000
# 3 19.9650 42.4128 114.8993 0.0000 0.0000 0.0000
# 4 0.0000 0.0000 0.0000 22.2368 0.0000 0.0000
# 5 0.0000 0.0000 0.0000 0.0000 22.6452 0.0000
# 6 0.0000 0.0000 0.0000 0.0000 0.0000 22.5575
#
#
#
# Elastic Compliance Matrix: (Units=1/GPa)
#
#
# Indices 1 2 3 4 5 6 
#
# 1 0.032706 -0.008665 -0.002485 0.000000 0.000000 0.000000
# 2 -0.008665 0.009205 -0.001892 0.000000 0.000000 0.000000
# 3 -0.002485 -0.001892 0.009834 0.000000 0.000000 0.000000
# 4 0.000000 0.000000 0.000000 0.044971 0.000000 0.000000
# 5 0.000000 0.000000 0.000000 0.000000 0.044159 0.000000
# 6 0.000000 0.000000 0.000000 0.000000 0.000000 0.044331
#
#
# Mechanical properties :
#
#
# Convention : Reuss Voigt Hill
#
# Bulk Modulus (GPa) = 38.96837 59.51663 49.24250
# Shear Modulus (GPa) = 22.74340 27.58050 25.16195
#
# Velocity S-wave (km/s) = 3.47745 3.82943 3.65768
# Velocity P-wave (km/s) = 6.06985 7.15526 6.63478
#
# Compressibility (1/GPa) = 0.02566184
#
# Stress axis : x y z
#
# Youngs Moduli (GPa) = 30.57499 108.63230 101.69250
#
# Poissons Ratio (x) = 0.94126 0.25268
# Poissons Ratio (y) = 0.26492 0.19244
# Poissons Ratio (z) = 0.07597 0.20558
#
# Static dielectric constant tensor:
#      x y z
#    x 3.013460 0.000000 0.000000 
#    y 0.000000 4.075390 0.000000 
#    z 0.000000 0.000000 3.542150 
# 
# 
# High freq. dielectric constant tensor:
#      x y z
#    x 1.683790 0.000000 0.000000 
#    y 0.000000 1.741440 0.000000 
#    z 0.000000 0.000000 1.740270 
# 
# From -- ./inp_files/16391.got.cif
#   From: 2010.06.25/outbox.cif.g09.slc.cpg/sg71_9_cif.got.tgz:16391.got - 2010.06.28 04:59:45.
