data_PCOD8289704
_publ_section_title
;
Structure prediction by ZEFSAII (Michael W. Deem and Ramdas Pophale) SiO2 
 PCOD8289704
Probable space group: I M M M
;
_chemical_formula_sum "Si O2"
_cell_formula_units_Z 88
_cell_length_a 17.083193
_cell_length_b 13.593095
_cell_length_c 22.665751
_cell_angle_alpha 90.000000
_cell_angle_beta 90.000000
_cell_angle_gamma 90.000000
_cell_volume 5263.292585
_symmetry_space_group_name_H-M "I M M M"
_symmetry_group_IT_number 71
_symmetry_cell_setting 'orthorhombic'
loop_
_space_group_symop_operation_xyz
x,y,z
-x,-y,z
x,-y,-z
-x,y,-z
-x,-y,-z
x,y,-z
-x,y,z
x,-y,z
1/2+x,1/2+y,1/2+z
1/2-x,1/2-y,1/2+z
1/2+x,1/2-y,1/2-z
1/2-x,1/2+y,1/2-z
1/2-x,1/2-y,1/2-z
1/2+x,1/2+y,1/2-z
1/2-x,1/2+y,1/2+z
1/2+x,1/2-y,1/2+z
loop_
_atom_site_type_symbol
_atom_site_label
_atom_site_fract_x
_atom_site_fract_y
_atom_site_fract_z
Si Si1 0.000000 0.617098 0.274209
Si Si2 0.342984 0.792193 0.817795
Si Si3 0.411520 0.500000 0.069761
Si Si4 0.667596 0.111791 0.387230
Si Si5 0.735636 0.389408 0.770501
Si Si6 0.317298 0.692971 0.066813
Si Si7 0.500000 0.882699 0.358927
O O1 0.925773 0.659738 0.307384
O O2 0.000000 0.656501 0.207692
O O3 0.000000 0.500000 0.278290
O O4 0.334888 0.684501 0.786993
O O5 0.273815 0.861339 0.792411
O O6 0.335579 0.782315 0.888843
O O7 0.500000 0.500000 0.096010
O O8 0.364509 0.596875 0.090398
O O9 0.415395 0.500000 0.000000
O O10 0.696008 0.119692 0.319466
O O11 0.724350 0.171537 0.430656
O O12 0.578989 0.154896 0.391365
O O13 0.668095 0.000000 0.409134
O O14 0.701844 0.500000 0.767275
O O15 0.340857 0.721844 0.000000
O O16 0.500000 0.000000 0.356692
#
# Coordination Sequence:
#
# PCOD8289704 Si02
#       7
#     8  16   8  16  16  16   8
#     4  11  20  34  52  76 109 138 164 209 262 320
#     4  10  20  30  50  77  97 135 175 205 255 314
#     4   9  18  32  48  63  87 133 177 216 267 310
#     4   9  15  27  47  71  98 131 165 203 258 317
#     4   9  17  32  50  72 102 131 167 214 258 303
#     4  10  20  33  48  68  99 135 177 222 260 310
#     4   9  16  26  47  74 102 130 159 197 246 314
#
# _framework density 16.719571999999999
#
# number of rings (size 3 to 8) (size 9 to 14) (size 15 to 20)
#    0.000    2.455    2.727    0.545    2.545    0.000 
#    0.000    0.909    0.000    4.364    0.000    0.000 
#    0.000    0.000    0.000    1.636    0.000    0.000 
#
# Total GULP energy -545387.510849 kJ/mol
# GULP energy per Si atom -12395.170701 kJ/mol
# Density = 1.668152 g / cm^3
# Si number density = 16.719572 Si / 1000 Ang^3
#
#
#
# Elastic Constant Matrix: (Units=GPa)
#
#
# Indices 1 2 3 4 5 6 
#
# 1 108.9174 25.9054 16.7999 0.0000 0.0000 0.0000
# 2 25.9054 67.4200 19.1482 0.0000 0.0000 0.0000
# 3 16.7999 19.1482 70.0621 0.0000 0.0000 0.0000
# 4 0.0000 0.0000 0.0000 19.9742 0.0000 0.0000
# 5 0.0000 0.0000 0.0000 0.0000 22.9587 0.0000
# 6 0.0000 0.0000 0.0000 0.0000 0.0000 20.4886
#
#
#
# Elastic Compliance Matrix: (Units=1/GPa)
#
#
# Indices 1 2 3 4 5 6 
#
# 1 0.010248 -0.003512 -0.001497 0.000000 0.000000 0.000000
# 2 -0.003512 0.017284 -0.003882 0.000000 0.000000 0.000000
# 3 -0.001497 -0.003882 0.015693 0.000000 0.000000 0.000000
# 4 0.000000 0.000000 0.000000 0.050065 0.000000 0.000000
# 5 0.000000 0.000000 0.000000 0.000000 0.043557 0.000000
# 6 0.000000 0.000000 0.000000 0.000000 0.000000 0.048808
#
#
# Mechanical properties :
#
#
# Convention : Reuss Voigt Hill
#
# Bulk Modulus (GPa) = 39.30446 41.12295 40.21370
# Shear Modulus (GPa) = 23.59412 24.98735 24.29074
#
# Velocity S-wave (km/s) = 3.76063 3.87007 3.81574
# Velocity P-wave (km/s) = 6.51272 6.67974 6.59676
#
# Compressibility (1/GPa) = 0.02544241
#
# Stress axis : x y z
#
# Youngs Moduli (GPa) = 97.58381 57.85560 63.72285
#
# Poissons Ratio (x) = 0.20321 0.09541
# Poissons Ratio (y) = 0.34274 0.24735
# Poissons Ratio (z) = 0.14611 0.22458
#
# Static dielectric constant tensor:
#      x y z
#    x 3.307060 0.000000 0.000000 
#    y 0.000000 3.009980 0.000000 
#    z 0.000000 0.000000 2.997550 
# 
# 
# High freq. dielectric constant tensor:
#      x y z
#    x 1.645180 0.000000 0.000000 
#    y 0.000000 1.608770 0.000000 
#    z 0.000000 0.000000 1.625670 
# 
# From -- ./inp_files/60681.got.cif
#   From: 2010.06.25/outbox.cif.g09.slc.cpg/sg71_31_cif.got.tgz:60681.got - 2010.06.28 04:59:45.
