data_PCOD8289501
_publ_section_title
;
Structure prediction by ZEFSAII (Michael W. Deem and Ramdas Pophale) SiO2 
 PCOD8289501
Probable space group: I M M M
;
_chemical_formula_sum "Si O2"
_cell_formula_units_Z 96
_cell_length_a 24.533457
_cell_length_b 8.892310
_cell_length_c 22.306007
_cell_angle_alpha 90.000000
_cell_angle_beta 90.000000
_cell_angle_gamma 90.000000
_cell_volume 4866.258524
_symmetry_space_group_name_H-M "I M M M"
_symmetry_group_IT_number 71
_symmetry_cell_setting 'orthorhombic'
loop_
_space_group_symop_operation_xyz
x,y,z
-x,-y,z
x,-y,-z
-x,y,-z
-x,-y,-z
x,y,-z
-x,y,z
x,-y,z
1/2+x,1/2+y,1/2+z
1/2-x,1/2-y,1/2+z
1/2+x,1/2-y,1/2-z
1/2-x,1/2+y,1/2-z
1/2-x,1/2-y,1/2-z
1/2+x,1/2+y,1/2-z
1/2-x,1/2+y,1/2+z
1/2+x,1/2-y,1/2+z
loop_
_atom_site_type_symbol
_atom_site_label
_atom_site_fract_x
_atom_site_fract_y
_atom_site_fract_z
Si Si1 0.000000 0.679262 0.654577
Si Si2 0.703976 0.169246 0.105958
Si Si3 0.384234 0.323813 0.666230
Si Si4 0.500000 0.326309 0.716283
Si Si5 0.186642 0.322395 0.931409
Si Si6 0.306609 0.830922 0.757492
Si Si7 0.090684 0.678367 0.565452
O O1 0.000000 0.733525 0.722505
O O2 0.052500 0.743126 0.618310
O O3 0.000000 0.500000 0.655149
O O4 0.756567 0.273490 0.098710
O O5 0.680055 0.166373 0.172768
O O6 0.653222 0.236711 0.068697
O O7 0.720263 0.000000 0.085758
O O8 0.372510 0.500000 0.661985
O O9 0.447879 0.286693 0.675372
O O10 0.363768 0.248493 0.604765
O O11 0.353160 0.259986 0.723698
O O12 0.500000 0.500000 0.735024
O O13 0.182097 0.500000 0.927486
O O14 0.183878 0.266099 0.000000
O O15 0.250000 0.750000 0.750000
O O16 0.303769 0.000000 0.731055
O O17 0.067382 0.724891 0.500000
O O18 0.092207 0.500000 0.572160
#
# Coordination Sequence:
#
# PCOD8289501 Si02
#       7
#     8  16  16   8  16  16  16
#     4  10  19  34  58  85 111 148 195 241 289 340
#     4  10  20  34  55  83 116 156 197 235 285 346
#     4  11  23  41  63  87 116 154 195 239 291 350
#     4  10  24  43  62  86 116 149 189 238 295 350
#     4  11  24  40  59  85 116 149 188 238 295 354
#     4  11  21  34  56  89 123 155 193 240 291 344
#     4   9  17  30  51  81 115 151 195 243 282 325
#
# _framework density 19.727681
#
# number of rings (size 3 to 8) (size 9 to 14) (size 15 to 20)
#    0.000    1.667    1.667    3.250    0.000    6.333 
#    0.000    1.250    0.000    4.500    0.000    0.000 
#    0.000    0.000    0.000    0.000    0.000    0.000 
#
# Total GULP energy -595154.939971 kJ/mol
# GULP energy per Si atom -12399.061249 kJ/mol
# Density = 1.968278 g / cm^3
# Si number density = 19.727681 Si / 1000 Ang^3
#
#
#
# Elastic Constant Matrix: (Units=GPa)
#
#
# Indices 1 2 3 4 5 6 
#
# 1 142.9956 45.5811 50.1856 0.0000 0.0000 0.0000
# 2 45.5811 73.6119 33.7013 0.0000 0.0000 0.0000
# 3 50.1856 33.7013 112.2702 0.0000 0.0000 0.0000
# 4 0.0000 0.0000 0.0000 24.2740 0.0000 0.0000
# 5 0.0000 0.0000 0.0000 0.0000 32.3016 0.0000
# 6 0.0000 0.0000 0.0000 0.0000 0.0000 22.2140
#
#
#
# Elastic Compliance Matrix: (Units=1/GPa)
#
#
# Indices 1 2 3 4 5 6 
#
# 1 0.009443 -0.004539 -0.002859 0.000000 0.000000 0.000000
# 2 -0.004539 0.017930 -0.003354 0.000000 0.000000 0.000000
# 3 -0.002859 -0.003354 0.011192 0.000000 0.000000 0.000000
# 4 0.000000 0.000000 0.000000 0.041196 0.000000 0.000000
# 5 0.000000 0.000000 0.000000 0.000000 0.030958 0.000000
# 6 0.000000 0.000000 0.000000 0.000000 0.000000 0.045017
#
#
# Mechanical properties :
#
#
# Convention : Reuss Voigt Hill
#
# Bulk Modulus (GPa) = 58.60476 65.31263 61.95869
# Shear Modulus (GPa) = 27.33341 29.05189 28.19265
#
# Velocity S-wave (km/s) = 3.72632 3.84167 3.78443
# Velocity P-wave (km/s) = 6.94876 7.27027 7.11133
#
# Compressibility (1/GPa) = 0.01706346
#
# Stress axis : x y z
#
# Youngs Moduli (GPa) = 105.89576 55.77117 89.35199
#
# Poissons Ratio (x) = 0.25312 0.25544
# Poissons Ratio (y) = 0.48061 0.29965
# Poissons Ratio (z) = 0.30274 0.18703
#
# Static dielectric constant tensor:
#      x y z
#    x 3.652600 0.000000 0.000000 
#    y 0.000000 3.509310 0.000000 
#    z 0.000000 0.000000 3.954170 
# 
# 
# High freq. dielectric constant tensor:
#      x y z
#    x 1.772360 0.000000 0.000000 
#    y 0.000000 1.749960 0.000000 
#    z 0.000000 0.000000 1.776330 
# 
# From -- ./inp_files/61556.got.cif
#   From: 2010.06.25/outbox.cif.g09.slc.cpg/sg71_31_cif.got.tgz:61556.got - 2010.06.28 04:59:45.
