data_PCOD8289803
_publ_section_title
;
Structure prediction by ZEFSAII (Michael W. Deem and Ramdas Pophale) SiO2 
 PCOD8289803
Probable space group: I M M M
;
_chemical_formula_sum "Si O2"
_cell_formula_units_Z 104
_cell_length_a 9.090175
_cell_length_b 28.105578
_cell_length_c 24.153312
_cell_angle_alpha 90.000000
_cell_angle_beta 90.000000
_cell_angle_gamma 90.000000
_cell_volume 6170.799798
_symmetry_space_group_name_H-M "I M M M"
_symmetry_group_IT_number 71
_symmetry_cell_setting 'orthorhombic'
loop_
_space_group_symop_operation_xyz
x,y,z
-x,-y,z
x,-y,-z
-x,y,-z
-x,-y,-z
x,y,-z
-x,y,z
x,-y,z
1/2+x,1/2+y,1/2+z
1/2-x,1/2-y,1/2+z
1/2+x,1/2-y,1/2-z
1/2-x,1/2+y,1/2-z
1/2-x,1/2-y,1/2-z
1/2+x,1/2+y,1/2-z
1/2-x,1/2+y,1/2+z
1/2+x,1/2-y,1/2+z
loop_
_atom_site_type_symbol
_atom_site_label
_atom_site_fract_x
_atom_site_fract_y
_atom_site_fract_z
Si Si1 0.827106 0.088863 0.881832
Si Si2 0.830964 0.054504 0.237107
Si Si3 0.836916 0.269099 0.065605
Si Si4 0.667210 0.000000 0.065507
Si Si5 0.330426 0.176800 0.065343
Si Si6 0.825936 0.554085 0.846939
Si Si7 0.175190 0.626247 0.938313
O O1 0.793076 0.085879 0.816487
O O2 0.767435 0.138758 0.902988
O O3 0.000000 0.084763 0.893671
O O4 0.748005 0.046820 0.913987
O O5 0.735450 0.073065 0.288580
O O6 0.000000 0.059573 0.254182
O O7 0.791885 0.000000 0.222342
O O8 0.723776 0.228697 0.085572
O O9 0.777675 0.321276 0.083650
O O10 0.000000 0.259150 0.090531
O O11 0.849219 0.269174 0.000000
O O12 0.500000 0.000000 0.087718
O O13 0.669878 0.000000 0.000000
O O14 0.500000 0.170681 0.081923
O O15 0.307310 0.170105 0.000000
O O16 0.773235 0.500000 0.857731
O O17 0.761994 0.586651 0.896358
O O18 0.000000 0.557526 0.844377
O O19 0.000000 0.624109 0.940749
O O20 0.238742 0.616178 0.000000
#
# Coordination Sequence:
#
# PCOD8289803 Si02
#       7
#    16  16  16   8  16  16  16
#     4  11  21  34  51  69  90 124 167 202 234 284
#     4   9  18  34  50  65  89 122 162 202 237 273
#     4   8  14  27  47  67  89 124 164 194 226 276
#     4  11  23  35  47  69 101 129 152 191 248 293
#     4  10  20  32  46  69  99 124 150 194 249 292
#     4   9  17  28  46  74 101 127 160 194 233 282
#     4   8  14  26  46  73 103 130 157 192 232 277
#
# _framework density 16.853567999999999
#
# number of rings (size 3 to 8) (size 9 to 14) (size 15 to 20)
#    0.000    2.692    0.769    2.538    0.000    4.923 
#    0.000    2.308    0.000    2.308    0.000    2.154 
#    0.000    0.000    0.000    0.000    0.000    0.000 
#
# Total GULP energy -644677.728204 kJ/mol
# GULP energy per Si atom -12397.648619 kJ/mol
# Density = 1.681521 g / cm^3
# Si number density = 16.853568 Si / 1000 Ang^3
#
#
#
# Elastic Constant Matrix: (Units=GPa)
#
#
# Indices 1 2 3 4 5 6 
#
# 1 66.8736 45.5574 42.9465 0.0000 0.0000 0.0000
# 2 45.5574 117.1922 62.1269 0.0000 0.0000 0.0000
# 3 42.9465 62.1269 86.7775 0.0001 0.0000 0.0000
# 4 0.0000 0.0000 0.0001 -11.7730 0.0000 0.0000
# 5 0.0000 0.0000 0.0000 0.0000 20.5393 0.0000
# 6 0.0000 0.0000 0.0000 0.0000 0.0000 18.2827
#
#
#
# Elastic Compliance Matrix: (Units=1/GPa)
#
#
# Indices 1 2 3 4 5 6 
#
# 1 0.023473 -0.004781 -0.008194 0.000000 0.000000 0.000000
# 2 -0.004781 0.014726 -0.008177 0.000000 0.000000 0.000000
# 3 -0.008194 -0.008177 0.021433 0.000000 0.000000 0.000000
# 4 0.000000 0.000000 0.000000 -0.084940 0.000000 0.000000
# 5 0.000000 0.000000 0.000000 0.000000 0.048687 0.000000
# 6 0.000000 0.000000 0.000000 0.000000 0.000000 0.054696
#
#
# Mechanical properties :
#
#
# Convention : Reuss Voigt Hill
#
# Bulk Modulus (GPa) = 57.70835 63.56722 60.63778
# Shear Modulus (GPa) = 39.63352 13.42397 26.52874
#
# Velocity S-wave (km/s) = 4.85463 2.82531 3.97176
# Velocity P-wave (km/s) = 8.10794 6.96006 7.55583
#
# Compressibility (1/GPa) = 0.01732851
#
# Stress axis : x y z
#
# Youngs Moduli (GPa) = 42.60252 67.90513 46.65678
#
# Poissons Ratio (x) = 0.32466 0.38230
# Poissons Ratio (y) = 0.20368 0.38151
# Poissons Ratio (z) = 0.34908 0.55526
#
# Static dielectric constant tensor:
#      x y z
#    x 3.107030 0.000000 0.000000 
#    y 0.000000 3.379450 0.000000 
#    z 0.000000 0.000000 3.120090 
# 
# 
# High freq. dielectric constant tensor:
#      x y z
#    x 1.639650 0.000000 0.000000 
#    y 0.000000 1.649130 0.000000 
#    z 0.000000 0.000000 1.628220 
# 
# From -- ./inp_files/58019.got.cif
#   From: 2010.06.25/outbox.cif.g09.slc.cpg/sg71_30_cif.got.tgz:58019.got - 2010.06.28 04:59:45.
