data_PCOD8289560
_publ_section_title
;
Structure prediction by ZEFSAII (Michael W. Deem and Ramdas Pophale) SiO2 
 PCOD8289560
Probable space group: I M M M
;
_chemical_formula_sum "Si O2"
_cell_formula_units_Z 76
_cell_length_a 11.069571
_cell_length_b 14.472520
_cell_length_c 25.396218
_cell_angle_alpha 90.000000
_cell_angle_beta 90.000000
_cell_angle_gamma 90.000000
_cell_volume 4068.590634
_symmetry_space_group_name_H-M "I M M M"
_symmetry_group_IT_number 71
_symmetry_cell_setting 'orthorhombic'
loop_
_space_group_symop_operation_xyz
x,y,z
-x,-y,z
x,-y,-z
-x,y,-z
-x,-y,-z
x,y,-z
-x,y,z
x,-y,z
1/2+x,1/2+y,1/2+z
1/2-x,1/2-y,1/2+z
1/2+x,1/2-y,1/2-z
1/2-x,1/2+y,1/2-z
1/2-x,1/2-y,1/2-z
1/2+x,1/2+y,1/2-z
1/2-x,1/2+y,1/2+z
1/2+x,1/2-y,1/2+z
loop_
_atom_site_type_symbol
_atom_site_label
_atom_site_fract_x
_atom_site_fract_y
_atom_site_fract_z
Si Si1 0.242752 0.000000 0.846630
Si Si2 0.000000 0.500000 0.356935
Si Si3 0.241230 0.685059 0.800020
Si Si4 0.500000 0.108552 0.660404
Si Si5 0.249763 0.695090 0.400137
Si Si6 0.500000 0.843276 0.941871
Si Si7 0.137487 0.000000 0.734207
Si Si8 0.000000 0.722078 0.939482
O O1 0.379346 0.000000 0.821698
O O2 0.225785 0.910751 0.883203
O O3 0.154548 0.000000 0.797213
O O4 0.000000 0.413264 0.394579
O O5 0.250000 0.750000 0.750000
O O6 0.284333 0.742034 0.850409
O O7 0.315671 0.591916 0.793324
O O8 0.105684 0.655111 0.807695
O O9 0.500000 0.132667 0.598294
O O10 0.500000 0.000000 0.666349
O O11 0.129723 0.710014 0.436587
O O12 0.375456 0.721988 0.428798
O O13 0.500000 0.888125 0.000000
O O14 0.000000 0.000000 0.721447
O O15 0.000000 0.689562 0.000000
#
# Coordination Sequence:
#
# PCOD8289560 Si02
#       8
#     8   4  16   8  16   8   8   8
#     4  10  20  37  55  88 115 157 192 241 280 353
#     4   8  19  34  54  82 110 142 194 242 285 332
#     4  11  23  39  59  88 118 158 193 240 287 352
#     4  10  22  41  63  86 115 153 206 255 293 344
#     4  10  22  36  60  85 120 151 197 242 295 348
#     4  10  19  35  57  81 112 150 192 240 292 344
#     4  12  26  36  57  84 125 160 196 228 295 353
#     4  10  22  40  60  85 116 156 200 249 307 356
#
# _framework density 18.679687000000001
#
# number of rings (size 3 to 8) (size 9 to 14) (size 15 to 20)
#    0.000    1.684    3.158    0.789    4.421    1.053 
#    0.000    2.105    0.000    0.000    0.000    0.737 
#    0.000    0.000    0.000    0.000    0.000    0.000 
#
# Total GULP energy -470807.220388 kJ/mol
# GULP energy per Si atom -12389.663694 kJ/mol
# Density = 1.863717 g / cm^3
# Si number density = 18.679687 Si / 1000 Ang^3
#
#
#
# Elastic Constant Matrix: (Units=GPa)
#
#
# Indices 1 2 3 4 5 6 
#
# 1 136.3157 33.4972 43.8094 0.0000 0.0000 0.0000
# 2 33.4972 115.2236 45.4208 0.0000 0.0000 0.0000
# 3 43.8094 45.4208 101.1992 0.0000 0.0000 0.0000
# 4 0.0000 0.0000 0.0000 74.3171 0.0000 0.0000
# 5 0.0000 0.0000 0.0000 0.0000 26.8951 0.0000
# 6 0.0000 0.0000 0.0000 0.0000 0.0000 15.3825
#
#
#
# Elastic Compliance Matrix: (Units=1/GPa)
#
#
# Indices 1 2 3 4 5 6 
#
# 1 0.008671 -0.001265 -0.003186 0.000000 0.000000 0.000000
# 2 -0.001265 0.010729 -0.004268 0.000000 0.000000 0.000000
# 3 -0.003186 -0.004268 0.013176 0.000000 0.000000 0.000000
# 4 0.000000 0.000000 0.000000 0.013456 0.000000 0.000000
# 5 0.000000 0.000000 0.000000 0.000000 0.037181 0.000000
# 6 0.000000 0.000000 0.000000 0.000000 0.000000 0.065009
#
#
# Mechanical properties :
#
#
# Convention : Reuss Voigt Hill
#
# Bulk Modulus (GPa) = 66.05624 66.46593 66.26108
# Shear Modulus (GPa) = 29.29028 38.65303 33.97165
#
# Velocity S-wave (km/s) = 3.96413 4.55384 4.26918
# Velocity P-wave (km/s) = 7.50945 7.95670 7.73631
#
# Compressibility (1/GPa) = 0.01513862
#
# Stress axis : x y z
#
# Youngs Moduli (GPa) = 115.33242 93.20667 75.89458
#
# Poissons Ratio (x) = 0.11789 0.24179
# Poissons Ratio (y) = 0.14587 0.32391
# Poissons Ratio (z) = 0.36743 0.39779
#
# Static dielectric constant tensor:
#      x y z
#    x 3.946740 0.000000 0.000000 
#    y 0.000000 3.434220 0.000000 
#    z 0.000000 0.000000 3.372930 
# 
# 
# High freq. dielectric constant tensor:
#      x y z
#    x 1.748160 0.000000 0.000000 
#    y 0.000000 1.720710 0.000000 
#    z 0.000000 0.000000 1.719340 
# 
# From -- ./inp_files/21983.got.cif
#   From: 2010.06.25/outbox.cif.g09.slc.cpg/sg71_11_cif.got.tgz:21983.got - 2010.06.28 04:59:45.
