data_PCOD8289306
_publ_section_title
;
Structure prediction by ZEFSAII (Michael W. Deem and Ramdas Pophale) SiO2 
 PCOD8289306
Probable space group: I M M M
;
_chemical_formula_sum "Si O2"
_cell_formula_units_Z 88
_cell_length_a 21.724182
_cell_length_b 12.019839
_cell_length_c 17.598333
_cell_angle_alpha 90.000000
_cell_angle_beta 90.000000
_cell_angle_gamma 90.000000
_cell_volume 4595.297304
_symmetry_space_group_name_H-M "I M M M"
_symmetry_group_IT_number 71
_symmetry_cell_setting 'orthorhombic'
loop_
_space_group_symop_operation_xyz
x,y,z
-x,-y,z
x,-y,-z
-x,y,-z
-x,-y,-z
x,y,-z
-x,y,z
x,-y,z
1/2+x,1/2+y,1/2+z
1/2-x,1/2-y,1/2+z
1/2+x,1/2-y,1/2-z
1/2-x,1/2+y,1/2-z
1/2-x,1/2-y,1/2-z
1/2+x,1/2+y,1/2-z
1/2-x,1/2+y,1/2+z
1/2+x,1/2-y,1/2+z
loop_
_atom_site_type_symbol
_atom_site_label
_atom_site_fract_x
_atom_site_fract_y
_atom_site_fract_z
Si Si1 0.500000 0.629478 0.687951
Si Si2 0.779081 0.123833 0.912679
Si Si3 0.193619 0.278405 0.697391
Si Si4 0.370940 0.369955 0.915342
Si Si5 0.569990 0.000000 0.589949
Si Si6 0.882487 0.724517 0.160568
Si Si7 0.500000 0.627148 0.132642
O O1 0.500000 0.500000 0.661091
O O2 0.559784 0.692383 0.656195
O O3 0.500000 0.637348 0.777616
O O4 0.715993 0.127162 0.862171
O O5 0.827288 0.214345 0.882913
O O6 0.807109 0.000000 0.904440
O O7 0.762532 0.149859 0.000000
O O8 0.250000 0.250000 0.750000
O O9 0.177386 0.172183 0.646141
O O10 0.136100 0.307624 0.752329
O O11 0.375255 0.500000 0.901687
O O12 0.438578 0.315611 0.901257
O O13 0.348371 0.339907 0.000000
O O14 0.604069 0.890532 0.619086
O O15 0.500000 0.000000 0.620252
O O16 0.572116 0.000000 0.500000
O O17 0.500000 0.500000 0.105506
#
# Coordination Sequence:
#
# PCOD8289306 Si02
#       7
#     8  16  16  16   8  16   8
#     4  11  20  34  61  95 124 150 195 248 295 355
#     4  10  22  41  61  83 115 153 197 248 297 348
#     4  10  22  36  56  81 113 153 202 247 287 343
#     4  10  19  33  55  85 122 158 192 237 297 361
#     4  11  24  42  64  88 123 157 191 240 296 365
#     4  11  22  40  62  90 117 157 198 243 298 355
#     4   9  17  30  52  85 121 152 185 231 291 349
#
# _framework density 19.150010999999999
#
# number of rings (size 3 to 8) (size 9 to 14) (size 15 to 20)
#    0.000    1.727    2.727    1.909    1.273    4.000 
#    4.909    0.000    0.000    2.182    0.000    0.000 
#    0.000    7.273    0.000    0.000    0.000    0.000 
#
# Total GULP energy -545327.310311 kJ/mol
# GULP energy per Si atom -12393.802507 kJ/mol
# Density = 1.910643 g / cm^3
# Si number density = 19.150011 Si / 1000 Ang^3
#
#
#
# Elastic Constant Matrix: (Units=GPa)
#
#
# Indices 1 2 3 4 5 6 
#
# 1 90.4534 45.0861 51.0601 0.0000 0.0000 0.0000
# 2 45.0861 109.7111 52.8177 0.0000 0.0000 0.0000
# 3 51.0601 52.8177 122.9882 0.0000 0.0000 0.0000
# 4 0.0000 0.0000 0.0000 30.7849 0.0000 0.0000
# 5 0.0000 0.0000 0.0000 0.0000 28.5302 0.0000
# 6 0.0000 0.0000 0.0000 0.0000 0.0000 21.7756
#
#
#
# Elastic Compliance Matrix: (Units=1/GPa)
#
#
# Indices 1 2 3 4 5 6 
#
# 1 0.015850 -0.004218 -0.004769 0.000000 0.000000 0.000000
# 2 -0.004218 0.012613 -0.003666 0.000000 0.000000 0.000000
# 3 -0.004769 -0.003666 0.011685 0.000000 0.000000 0.000000
# 4 0.000000 0.000000 0.000000 0.032483 0.000000 0.000000
# 5 0.000000 0.000000 0.000000 0.000000 0.035051 0.000000
# 6 0.000000 0.000000 0.000000 0.000000 0.000000 0.045923
#
#
# Mechanical properties :
#
#
# Convention : Reuss Voigt Hill
#
# Bulk Modulus (GPa) = 67.37118 69.00894 68.19006
# Shear Modulus (GPa) = 27.19512 27.83072 27.51292
#
# Velocity S-wave (km/s) = 3.77252 3.81635 3.79450
# Velocity P-wave (km/s) = 7.36431 7.45209 7.40833
#
# Compressibility (1/GPa) = 0.01484314
#
# Stress axis : x y z
#
# Youngs Moduli (GPa) = 63.09277 79.28444 85.58010
#
# Poissons Ratio (x) = 0.33439 0.40813
# Poissons Ratio (y) = 0.26610 0.31370
# Poissons Ratio (z) = 0.30088 0.29063
#
# Static dielectric constant tensor:
#      x y z
#    x 3.791730 0.000000 0.000000 
#    y 0.000000 3.329290 0.000000 
#    z 0.000000 0.000000 3.840770 
# 
# 
# High freq. dielectric constant tensor:
#      x y z
#    x 1.748940 0.000000 0.000000 
#    y 0.000000 1.720230 0.000000 
#    z 0.000000 0.000000 1.760920 
# 
# From -- ./inp_files/25707.got.cif
#   From: 2010.06.25/outbox.cif.g09.slc.cpg/sg71_13_cif.got.tgz:25707.got - 2010.06.28 04:59:45.
