data_PCOD8289505
_publ_section_title
;
Structure prediction by ZEFSAII (Michael W. Deem and Ramdas Pophale) SiO2 
 PCOD8289505
Probable space group: I M M M
;
_chemical_formula_sum "Si O2"
_cell_formula_units_Z 88
_cell_length_a 18.003107
_cell_length_b 28.759875
_cell_length_c 8.879948
_cell_angle_alpha 90.000000
_cell_angle_beta 90.000000
_cell_angle_gamma 90.000000
_cell_volume 4597.744986
_symmetry_space_group_name_H-M "I M M M"
_symmetry_group_IT_number 71
_symmetry_cell_setting 'orthorhombic'
loop_
_space_group_symop_operation_xyz
x,y,z
-x,-y,z
x,-y,-z
-x,y,-z
-x,-y,-z
x,y,-z
-x,y,z
x,-y,z
1/2+x,1/2+y,1/2+z
1/2-x,1/2-y,1/2+z
1/2+x,1/2-y,1/2-z
1/2-x,1/2+y,1/2-z
1/2-x,1/2-y,1/2-z
1/2+x,1/2+y,1/2-z
1/2-x,1/2+y,1/2+z
1/2+x,1/2-y,1/2+z
loop_
_atom_site_type_symbol
_atom_site_label
_atom_site_fract_x
_atom_site_fract_y
_atom_site_fract_z
Si Si1 0.158293 0.298118 0.825592
Si Si2 0.355988 0.394635 0.178098
Si Si3 0.705949 0.053143 0.678091
Si Si4 0.815162 0.195179 0.825085
Si Si5 0.000000 0.948890 0.321383
Si Si6 0.914701 0.618122 0.675202
O O1 0.141255 0.243629 0.796702
O O2 0.241160 0.308687 0.772784
O O3 0.100294 0.329988 0.736774
O O4 0.152705 0.311438 0.000000
O O5 0.281462 0.421377 0.228845
O O6 0.366393 0.346334 0.266803
O O7 0.425874 0.423928 0.234796
O O8 0.357144 0.385631 0.000000
O O9 0.698328 0.054337 0.500000
O O10 0.635569 0.079405 0.746392
O O11 0.707401 0.000000 0.736747
O O12 0.794337 0.189963 0.000000
O O13 0.000000 0.951654 0.500000
O O14 0.000000 0.000000 0.250036
O O15 0.896268 0.617967 0.500000
O O16 0.000000 0.605296 0.707666
#
# Coordination Sequence:
#
# PCOD8289505 Si02
#       6
#    16  16  16  16   8  16
#     4  10  20  36  58  84 112 148 191 232 280 341
#     4  10  19  34  58  86 116 151 192 235 281 337
#     4  10  21  37  59  86 113 147 194 240 284 342
#     4  10  20  34  57  86 116 148 184 232 286 341
#     4   9  18  34  57  85 117 153 193 237 282 331
#     4  11  24  40  58  83 116 153 194 242 291 340
#
# _framework density 19.139818000000002
#
# number of rings (size 3 to 8) (size 9 to 14) (size 15 to 20)
#    0.000    1.909    1.818    2.182    0.000    6.545 
#    1.636    2.273    0.000    2.182    0.000    0.000 
#    0.000    0.000    0.000    0.000    0.000    0.000 
#
# Total GULP energy -545666.689427 kJ/mol
# GULP energy per Si atom -12401.515669 kJ/mol
# Density = 1.909626 g / cm^3
# Si number density = 19.139818 Si / 1000 Ang^3
#
#
#
# Elastic Constant Matrix: (Units=GPa)
#
#
# Indices 1 2 3 4 5 6 
#
# 1 106.7442 64.0002 27.1938 0.0003 0.0004 0.0002
# 2 64.0002 165.3685 38.2289 0.0003 0.0001 0.0000
# 3 27.1938 38.2289 28.6012 0.0025 0.0028 0.0012
# 4 0.0003 0.0003 0.0025 31.7134 0.0006 0.0001
# 5 0.0004 0.0001 0.0028 0.0006 22.6863 0.0001
# 6 0.0002 0.0000 0.0012 0.0001 0.0001 27.9944
#
#
#
# Elastic Compliance Matrix: (Units=1/GPa)
#
#
# Indices 1 2 3 4 5 6 
#
# 1 0.013478 -0.003261 -0.008455 0.000001 0.000001 0.000000
# 2 -0.003261 0.009540 -0.009651 0.000001 0.000001 0.000000
# 3 -0.008455 -0.009651 0.055902 -0.000004 -0.000007 -0.000002
# 4 0.000001 0.000001 -0.000004 0.031532 -0.000001 0.000000
# 5 0.000001 0.000001 -0.000007 -0.000001 0.044079 0.000000
# 6 0.000000 0.000000 -0.000002 0.000000 0.000000 0.035721
#
#
# Mechanical properties :
#
#
# Convention : Reuss Voigt Hill
#
# Bulk Modulus (GPa) = 27.63550 62.17330 44.90440
# Shear Modulus (GPa) = 20.40397 27.89821 24.15109
#
# Velocity S-wave (km/s) = 3.26858 3.82200 3.55607
# Velocity P-wave (km/s) = 5.35863 7.21326 6.35398
#
# Compressibility (1/GPa) = 0.03618535
#
# Stress axis : x y z
#
# Youngs Moduli (GPa) = 74.19686 104.81765 17.88835
#
# Poissons Ratio (x) = 0.34186 0.15125
# Poissons Ratio (y) = 0.24199 0.17264
# Poissons Ratio (z) = 0.62734 1.01158
#
# Static dielectric constant tensor:
#      x y z
#    x 3.360220 0.000000 0.000000 
#    y 0.000000 3.827250 0.000000 
#    z 0.000000 0.000000 3.379470 
# 
# 
# High freq. dielectric constant tensor:
#      x y z
#    x 1.730820 0.000000 0.000000 
#    y 0.000000 1.762030 0.000000 
#    z 0.000000 0.000000 1.736100 
# 
# From -- ./inp_files/8804.got.cif
#   From: 2010.06.25/outbox.cif.g09.slc.cpg/sg71_5_cif.got.tgz:8804.got - 2010.06.28 04:59:45.
