data_PCOD8289105
_publ_section_title
;
Structure prediction by ZEFSAII (Michael W. Deem and Ramdas Pophale) SiO2 
 PCOD8289105
Probable space group: I M M M
;
_chemical_formula_sum "Si O2"
_cell_formula_units_Z 72
_cell_length_a 15.913162
_cell_length_b 26.010520
_cell_length_c 9.824315
_cell_angle_alpha 90.000000
_cell_angle_beta 90.000000
_cell_angle_gamma 90.000000
_cell_volume 4066.378473
_symmetry_space_group_name_H-M "I M M M"
_symmetry_group_IT_number 71
_symmetry_cell_setting 'orthorhombic'
loop_
_space_group_symop_operation_xyz
x,y,z
-x,-y,z
x,-y,-z
-x,y,-z
-x,-y,-z
x,y,-z
-x,y,z
x,-y,z
1/2+x,1/2+y,1/2+z
1/2-x,1/2-y,1/2+z
1/2+x,1/2-y,1/2-z
1/2-x,1/2+y,1/2-z
1/2-x,1/2-y,1/2-z
1/2+x,1/2+y,1/2-z
1/2-x,1/2+y,1/2+z
1/2+x,1/2-y,1/2+z
loop_
_atom_site_type_symbol
_atom_site_label
_atom_site_fract_x
_atom_site_fract_y
_atom_site_fract_z
Si Si1 0.095381 0.155372 0.500000
Si Si2 0.600459 0.841570 0.500000
Si Si3 0.296357 0.057919 0.500000
Si Si4 0.303032 0.801994 0.245110
Si Si5 0.404068 0.439451 0.500000
Si Si6 0.687548 0.603216 0.766372
Si Si7 0.401114 0.231952 0.000000
O O1 0.114857 0.124247 0.364012
O O2 0.142225 0.210817 0.500000
O O3 0.000000 0.169354 0.500000
O O4 0.500000 0.837507 0.500000
O O5 0.626946 0.901629 0.500000
O O6 0.641446 0.810947 0.622908
O O7 0.242352 0.064945 0.361158
O O8 0.332438 0.000000 0.500000
O O9 0.250000 0.750000 0.250000
O O10 0.242535 0.849576 0.212898
O O11 0.371773 0.799875 0.128651
O O12 0.408862 0.500000 0.500000
O O13 0.500000 0.417020 0.500000
O O14 0.354155 0.423292 0.635868
O O15 0.500000 0.235034 0.000000
#
# Coordination Sequence:
#
# PCOD8289105 Si02
#       7
#     8   8   8  16   8  16   8
#     4  10  19  33  50  74 103 136 177 217 256 308
#     4  10  22  37  55  83 114 140 179 229 275 318
#     4   9  19  36  61  81 100 139 184 227 275 325
#     4  11  20  36  55  77 109 144 180 215 260 317
#     4  11  23  37  53  78 110 141 178 229 281 318
#     4  10  20  36  55  77 106 140 180 221 265 324
#     4  11  21  33  51  74 105 142 177 210 255 310
#
# _framework density 17.706173
#
# number of rings (size 3 to 8) (size 9 to 14) (size 15 to 20)
#    0.000    1.667    2.222    4.000    0.000    0.222 
#    0.000    1.111    0.000    5.333    0.000    0.000 
#    0.000   16.000    0.000    0.000    0.000    0.000 
#
# Total GULP energy -446198.152079 kJ/mol
# GULP energy per Si atom -12394.393113 kJ/mol
# Density = 1.766587 g / cm^3
# Si number density = 17.706173 Si / 1000 Ang^3
#
#
#
# Elastic Constant Matrix: (Units=GPa)
#
#
# Indices 1 2 3 4 5 6 
#
# 1 111.8895 47.7274 54.0859 0.0001 -0.0002 0.0000
# 2 47.7274 109.6548 51.8420 -0.0001 0.0003 0.0000
# 3 54.0859 51.8420 142.8417 -0.0006 0.0025 0.0000
# 4 0.0001 -0.0001 -0.0006 22.6287 0.0008 0.0000
# 5 -0.0002 0.0003 0.0025 0.0008 29.9679 0.0000
# 6 0.0000 0.0000 0.0000 0.0000 0.0000 21.8857
#
#
#
# Elastic Compliance Matrix: (Units=1/GPa)
#
#
# Indices 1 2 3 4 5 6 
#
# 1 0.012089 -0.003739 -0.003220 0.000000 0.000000 0.000000
# 2 -0.003739 0.012165 -0.002999 0.000000 0.000000 0.000000
# 3 -0.003220 -0.002999 0.009309 0.000000 -0.000001 0.000000
# 4 0.000000 0.000000 0.000000 0.044192 -0.000001 0.000000
# 5 0.000000 0.000000 -0.000001 -0.000001 0.033369 0.000000
# 6 0.000000 0.000000 0.000000 0.000000 0.000000 0.045692
#
#
# Mechanical properties :
#
#
# Convention : Reuss Voigt Hill
#
# Bulk Modulus (GPa) = 73.28679 74.63295 73.95987
# Shear Modulus (GPa) = 27.58143 28.94517 28.26330
#
# Velocity S-wave (km/s) = 3.95109 4.04759 3.99963
# Velocity P-wave (km/s) = 7.89273 8.00539 7.94926
#
# Compressibility (1/GPa) = 0.01364502
#
# Stress axis : x y z
#
# Youngs Moduli (GPa) = 82.71930 82.20282 107.42718
#
# Poissons Ratio (x) = 0.30738 0.34595
# Poissons Ratio (y) = 0.30931 0.32220
# Poissons Ratio (z) = 0.26638 0.24655
#
# Static dielectric constant tensor:
#      x y z
#    x 3.307120 0.000000 0.000000 
#    y 0.000000 3.321480 0.000000 
#    z 0.000000 0.000000 3.305210 
# 
# 
# High freq. dielectric constant tensor:
#      x y z
#    x 1.684770 0.000000 0.000000 
#    y 0.000000 1.684520 0.000000 
#    z 0.000000 0.000000 1.697960 
# 
# From -- ./inp_files/6258.got.cif
#   From: 2010.06.25/outbox.cif.g09.slc.cpg/sg71_4_cif.got.tgz:6258.got - 2010.06.28 04:59:45.
