data_PCOD8289028
_publ_section_title
;
Structure prediction by ZEFSAII (Michael W. Deem and Ramdas Pophale) SiO2 
 PCOD8289028
Probable space group: I M M M
;
_chemical_formula_sum "Si O2"
_cell_formula_units_Z 80
_cell_length_a 9.443670
_cell_length_b 36.113105
_cell_length_c 12.653417
_cell_angle_alpha 90.000000
_cell_angle_beta 90.000000
_cell_angle_gamma 90.000000
_cell_volume 4315.324450
_symmetry_space_group_name_H-M "I M M M"
_symmetry_group_IT_number 71
_symmetry_cell_setting 'orthorhombic'
loop_
_space_group_symop_operation_xyz
x,y,z
-x,-y,z
x,-y,-z
-x,y,-z
-x,-y,-z
x,y,-z
-x,y,z
x,-y,z
1/2+x,1/2+y,1/2+z
1/2-x,1/2-y,1/2+z
1/2+x,1/2-y,1/2-z
1/2-x,1/2+y,1/2-z
1/2-x,1/2-y,1/2-z
1/2+x,1/2+y,1/2-z
1/2-x,1/2+y,1/2+z
1/2+x,1/2-y,1/2+z
loop_
_atom_site_type_symbol
_atom_site_label
_atom_site_fract_x
_atom_site_fract_y
_atom_site_fract_z
Si Si1 0.333828 0.174783 0.500000
Si Si2 0.162454 0.348600 0.619765
Si Si3 0.835353 0.078942 0.882322
Si Si4 0.169045 0.902513 0.500000
Si Si5 0.666846 0.540461 0.825334
Si Si6 0.334461 0.786087 0.282237
O O1 0.500000 0.164616 0.500000
O O2 0.246088 0.136820 0.500000
O O3 0.292542 0.199283 0.601687
O O4 0.188425 0.335083 0.500000
O O5 0.253930 0.384073 0.647525
O O6 0.211856 0.316519 0.697356
O O7 0.000000 0.359395 0.639175
O O8 0.793046 0.047986 0.796946
O O9 0.000000 0.088698 0.875034
O O10 0.794948 0.064624 0.000000
O O11 0.222623 0.926368 0.600836
O O12 0.000000 0.895868 0.500000
O O13 0.500000 0.538506 0.840855
O O14 0.731066 0.500000 0.855676
O O15 0.500000 0.776967 0.275853
O O16 0.250000 0.750000 0.250000
#
# Coordination Sequence:
#
# PCOD8289028 Si02
#       6
#     8  16  16   8  16  16
#     4  10  22  39  55  77 108 138 166 206 263 309
#     4   9  18  33  52  72  96 130 168 204 247 299
#     4   9  17  29  47  72  98 127 167 208 248 297
#     4  10  19  32  54  78  98 130 178 214 244 297
#     4   9  17  29  47  73 104 133 165 211 258 296
#     4  10  22  37  54  76 103 133 166 205 253 307
#
# _framework density 18.538584
#
# number of rings (size 3 to 8) (size 9 to 14) (size 15 to 20)
#    0.000    2.600    0.000    1.500    1.400    3.200 
#    0.000    2.000    0.000    3.000    0.000    2.800 
#    0.000    0.000    0.000    0.000    0.000    0.000 
#
# Total GULP energy -495880.917651 kJ/mol
# GULP energy per Si atom -12397.022941 kJ/mol
# Density = 1.849639 g / cm^3
# Si number density = 18.538584 Si / 1000 Ang^3
#
#
#
# Elastic Constant Matrix: (Units=GPa)
#
#
# Indices 1 2 3 4 5 6 
#
# 1 34.5495 43.9363 33.3409 0.0016 0.0001 -0.0001
# 2 43.9363 135.0332 79.0979 0.0033 0.0002 -0.0001
# 3 33.3409 79.0979 129.1158 0.0060 0.0004 -0.0004
# 4 0.0016 0.0033 0.0060 19.9319 0.0003 -0.0003
# 5 0.0001 0.0002 0.0004 0.0003 17.7820 0.0003
# 6 -0.0001 -0.0001 -0.0004 -0.0003 0.0003 23.9100
#
#
#
# Elastic Compliance Matrix: (Units=1/GPa)
#
#
# Indices 1 2 3 4 5 6 
#
# 1 0.051137 -0.013887 -0.004698 0.000000 0.000000 0.000000
# 2 -0.013887 0.015322 -0.005800 0.000000 0.000000 0.000000
# 3 -0.004698 -0.005800 0.012511 -0.000002 0.000000 0.000000
# 4 0.000000 0.000000 -0.000002 0.050171 -0.000001 0.000001
# 5 0.000000 0.000000 0.000000 -0.000001 0.056237 -0.000001
# 6 0.000000 0.000000 0.000000 0.000001 -0.000001 0.041823
#
#
# Mechanical properties :
#
#
# Convention : Reuss Voigt Hill
#
# Bulk Modulus (GPa) = 33.11196 67.93875 50.52536
# Shear Modulus (GPa) = 17.48019 21.81300 19.64660
#
# Velocity S-wave (km/s) = 3.07401 3.43392 3.25894
# Velocity P-wave (km/s) = 5.52262 7.24218 6.44005
#
# Compressibility (1/GPa) = 0.03020057
#
# Stress axis : x y z
#
# Youngs Moduli (GPa) = 19.55518 65.26700 79.92767
#
# Poissons Ratio (x) = 0.90637 0.37546
# Poissons Ratio (y) = 0.27156 0.46360
# Poissons Ratio (z) = 0.09186 0.37857
#
# Static dielectric constant tensor:
#      x y z
#    x 3.152870 0.000000 0.000000 
#    y 0.000000 3.417180 0.000000 
#    z 0.000000 0.000000 3.785260 
# 
# 
# High freq. dielectric constant tensor:
#      x y z
#    x 1.687670 0.000000 0.000000 
#    y 0.000000 1.717150 0.000000 
#    z 0.000000 0.000000 1.741300 
# 
# From -- ./inp_files/20195.got.cif
#   From: 2010.06.25/outbox.cif.g09.slc.cpg/sg71_11_cif.got.tgz:20195.got - 2010.06.28 04:59:45.
