data_PCOD8289261
_publ_section_title
;
Structure prediction by ZEFSAII (Michael W. Deem and Ramdas Pophale) SiO2 
 PCOD8289261
Probable space group: I M M M
;
_chemical_formula_sum "Si O2"
_cell_formula_units_Z 112
_cell_length_a 13.393988
_cell_length_b 22.891066
_cell_length_c 18.731438
_cell_angle_alpha 90.000000
_cell_angle_beta 90.000000
_cell_angle_gamma 90.000000
_cell_volume 5743.108778
_symmetry_space_group_name_H-M "I M M M"
_symmetry_group_IT_number 71
_symmetry_cell_setting 'orthorhombic'
loop_
_space_group_symop_operation_xyz
x,y,z
-x,-y,z
x,-y,-z
-x,y,-z
-x,-y,-z
x,y,-z
-x,y,z
x,-y,z
1/2+x,1/2+y,1/2+z
1/2-x,1/2-y,1/2+z
1/2+x,1/2-y,1/2-z
1/2-x,1/2+y,1/2-z
1/2-x,1/2-y,1/2-z
1/2+x,1/2+y,1/2-z
1/2-x,1/2+y,1/2+z
1/2+x,1/2-y,1/2+z
loop_
_atom_site_type_symbol
_atom_site_label
_atom_site_fract_x
_atom_site_fract_y
_atom_site_fract_z
Si Si1 0.288785 0.067447 0.917878
Si Si2 0.387140 0.387948 0.918391
Si Si3 0.256877 0.434278 0.803849
Si Si4 0.110443 0.932088 0.824528
Si Si5 0.239501 0.225452 0.581870
Si Si6 0.385070 0.830495 0.689380
Si Si7 0.113863 0.674832 0.353536
O O1 0.172328 0.078262 0.897381
O O2 0.360564 0.106848 0.868622
O O3 0.317887 0.000000 0.903363
O O4 0.303106 0.084390 0.000000
O O5 0.500000 0.387375 0.890379
O O6 0.324853 0.435398 0.874448
O O7 0.343897 0.323533 0.905788
O O8 0.380783 0.407385 0.000000
O O9 0.222019 0.500000 0.785565
O O10 0.323704 0.405825 0.740325
O O11 0.159536 0.395454 0.817727
O O12 0.000000 0.902569 0.829951
O O13 0.095865 0.000000 0.808605
O O14 0.277967 0.225704 0.500000
O O15 0.331842 0.214453 0.635259
O O16 0.188918 0.287183 0.599013
O O17 0.500000 0.833925 0.666962
O O18 0.372139 0.808724 0.770569
O O19 0.000000 0.686244 0.377136
#
# Coordination Sequence:
#
# PCOD8289261 Si02
#       7
#    16  16  16  16  16  16  16
#     4  10  21  36  54  82 120 156 191 234 283 337
#     4   9  18  32  51  79 113 146 183 233 292 342
#     4  10  19  33  54  81 114 150 192 233 276 334
#     4   9  17  31  51  74 104 146 191 230 271 323
#     4  10  21  38  60  84 113 147 189 239 289 341
#     4  10  22  39  60  85 115 151 190 234 284 338
#     4  11  22  38  62  88 114 149 193 236 284 341
#
# _framework density 19.501633000000002
#
# number of rings (size 3 to 8) (size 9 to 14) (size 15 to 20)
#    0.000    2.143    1.429    1.714    0.000    4.000 
#    0.000    5.000    0.000    1.714    0.000    4.000 
#    0.000    0.000    0.000    0.000    0.000    0.000 
#
# Total GULP energy -694391.555866 kJ/mol
# GULP energy per Si atom -12399.849212 kJ/mol
# Density = 1.945725 g / cm^3
# Si number density = 19.501633 Si / 1000 Ang^3
#
#
#
# Elastic Constant Matrix: (Units=GPa)
#
#
# Indices 1 2 3 4 5 6 
#
# 1 129.0184 36.1075 51.8628 0.0000 0.0000 0.0000
# 2 36.1075 67.9735 31.2324 0.0000 0.0000 0.0000
# 3 51.8628 31.2324 102.8577 -0.0001 0.0000 0.0000
# 4 0.0000 0.0000 -0.0001 24.9014 0.0000 0.0000
# 5 0.0000 0.0000 0.0000 0.0000 27.1508 0.0000
# 6 0.0000 0.0000 0.0000 0.0000 0.0000 21.3974
#
#
#
# Elastic Compliance Matrix: (Units=1/GPa)
#
#
# Indices 1 2 3 4 5 6 
#
# 1 0.010440 -0.003634 -0.004161 0.000000 0.000000 0.000000
# 2 -0.003634 0.018362 -0.003743 0.000000 0.000000 0.000000
# 3 -0.004161 -0.003743 0.012957 0.000000 0.000000 0.000000
# 4 0.000000 0.000000 0.000000 0.040158 0.000000 0.000000
# 5 0.000000 0.000000 0.000000 0.000000 0.036831 0.000000
# 6 0.000000 0.000000 0.000000 0.000000 0.000000 0.046735
#
#
# Mechanical properties :
#
#
# Convention : Reuss Voigt Hill
#
# Bulk Modulus (GPa) = 53.52465 59.80608 56.66536
# Shear Modulus (GPa) = 25.66902 26.73304 26.20103
#
# Velocity S-wave (km/s) = 3.63195 3.70646 3.66940
# Velocity P-wave (km/s) = 6.71520 7.00364 6.86093
#
# Compressibility (1/GPa) = 0.01868298
#
# Stress axis : x y z
#
# Youngs Moduli (GPa) = 95.78132 54.46037 77.18017
#
# Poissons Ratio (x) = 0.19792 0.32113
# Poissons Ratio (y) = 0.34809 0.28890
# Poissons Ratio (z) = 0.39852 0.20385
#
# Static dielectric constant tensor:
#      x y z
#    x 3.595850 0.000000 0.000000 
#    y 0.000000 3.296310 0.000000 
#    z 0.000000 0.000000 3.640080 
# 
# 
# High freq. dielectric constant tensor:
#      x y z
#    x 1.754160 0.000000 0.000000 
#    y 0.000000 1.741010 0.000000 
#    z 0.000000 0.000000 1.766090 
# 
# From -- ./inp_files/52193.got.cif
#   From: 2010.06.25/outbox.cif.g09.slc.cpg/sg71_27_cif.got.tgz:52193.got - 2010.06.28 04:59:45.
