data_PCOD8289305
_publ_section_title
;
Structure prediction by ZEFSAII (Michael W. Deem and Ramdas Pophale) SiO2 
 PCOD8289305
Probable space group: I M M M
;
_chemical_formula_sum "Si O2"
_cell_formula_units_Z 88
_cell_length_a 21.306270
_cell_length_b 13.426854
_cell_length_c 16.605022
_cell_angle_alpha 90.000000
_cell_angle_beta 90.000000
_cell_angle_gamma 90.000000
_cell_volume 4750.301206
_symmetry_space_group_name_H-M "I M M M"
_symmetry_group_IT_number 71
_symmetry_cell_setting 'orthorhombic'
loop_
_space_group_symop_operation_xyz
x,y,z
-x,-y,z
x,-y,-z
-x,y,-z
-x,-y,-z
x,y,-z
-x,y,z
x,-y,z
1/2+x,1/2+y,1/2+z
1/2-x,1/2-y,1/2+z
1/2+x,1/2-y,1/2-z
1/2-x,1/2+y,1/2-z
1/2-x,1/2-y,1/2-z
1/2+x,1/2+y,1/2-z
1/2-x,1/2+y,1/2+z
1/2+x,1/2-y,1/2+z
loop_
_atom_site_type_symbol
_atom_site_label
_atom_site_fract_x
_atom_site_fract_y
_atom_site_fract_z
Si Si1 0.000000 0.883782 0.829435
Si Si2 0.425676 0.116791 0.500000
Si Si3 0.500000 0.384973 0.859753
Si Si4 0.239310 0.887871 0.907968
Si Si5 0.367925 0.384692 0.090765
Si Si6 0.686465 0.231173 0.794567
Si Si7 0.380361 0.742684 0.362436
O O1 0.000000 0.866653 0.734741
O O2 0.938384 0.833283 0.866554
O O3 0.000000 0.000000 0.852741
O O4 0.500000 0.135487 0.500000
O O5 0.394710 0.164551 0.579574
O O6 0.409594 0.000000 0.500000
O O7 0.500000 0.500000 0.882820
O O8 0.562161 0.338158 0.899650
O O9 0.301217 0.861899 0.854322
O O10 0.181071 0.815500 0.891350
O O11 0.218157 0.000000 0.887419
O O12 0.260518 0.877300 0.000000
O O13 0.367276 0.500000 0.116014
O O14 0.322969 0.329456 0.152103
O O15 0.343887 0.369192 0.000000
O O16 0.750000 0.250000 0.750000
O O17 0.630888 0.215286 0.728842
#
# Coordination Sequence:
#
# PCOD8289305 Si02
#       7
#     8   8   8  16  16  16  16
#     4  11  20  32  58  92 123 148 185 239 292 347
#     4  11  24  42  62  84 116 152 188 235 286 351
#     4   9  17  30  52  86 118 148 181 220 285 344
#     4  10  21  38  59  82 113 148 188 239 289 336
#     4  10  19  33  55  85 120 153 185 227 281 346
#     4  10  22  35  55  78 112 151 194 235 277 335
#     4  11  21  39  60  86 115 150 192 237 289 351
#
# _framework density 18.525141000000001
#
# number of rings (size 3 to 8) (size 9 to 14) (size 15 to 20)
#    0.000    1.727    3.636    1.364    0.000    4.727 
#    0.000    3.182    0.000    0.000    0.000    0.000 
#    0.000    4.364    0.000    0.000    0.000    0.000 
#
# Total GULP energy -545429.007955 kJ/mol
# GULP energy per Si atom -12396.113817 kJ/mol
# Density = 1.848298 g / cm^3
# Si number density = 18.525141 Si / 1000 Ang^3
#
#
#
# Elastic Constant Matrix: (Units=GPa)
#
#
# Indices 1 2 3 4 5 6 
#
# 1 80.8624 51.0982 48.5129 0.0000 0.0000 0.0000
# 2 51.0982 112.5396 68.9682 0.0000 0.0000 0.0000
# 3 48.5129 68.9682 121.9132 0.0000 0.0000 0.0000
# 4 0.0000 0.0000 0.0000 27.7455 0.0000 0.0000
# 5 0.0000 0.0000 0.0000 0.0000 29.9477 0.0000
# 6 0.0000 0.0000 0.0000 0.0000 0.0000 26.1910
#
#
#
# Elastic Compliance Matrix: (Units=1/GPa)
#
#
# Indices 1 2 3 4 5 6 
#
# 1 0.018536 -0.005964 -0.004003 0.000000 0.000000 0.000000
# 2 -0.005964 0.015520 -0.006407 0.000000 0.000000 0.000000
# 3 -0.004003 -0.006407 0.013420 0.000000 0.000000 0.000000
# 4 0.000000 0.000000 0.000000 0.036042 0.000000 0.000000
# 5 0.000000 0.000000 0.000000 0.000000 0.033392 0.000000
# 6 0.000000 0.000000 0.000000 0.000000 0.000000 0.038181
#
#
# Mechanical properties :
#
#
# Convention : Reuss Voigt Hill
#
# Bulk Modulus (GPa) = 67.88720 72.49709 70.19215
# Shear Modulus (GPa) = 25.94090 26.55924 26.25007
#
# Velocity S-wave (km/s) = 3.74613 3.79051 3.76839
# Velocity P-wave (km/s) = 7.44559 7.64047 7.54366
#
# Compressibility (1/GPa) = 0.01473032
#
# Stress axis : x y z
#
# Youngs Moduli (GPa) = 53.94782 64.43416 74.51754
#
# Poissons Ratio (x) = 0.38425 0.29826
# Poissons Ratio (y) = 0.32172 0.47741
# Poissons Ratio (z) = 0.21593 0.41281
#
# Static dielectric constant tensor:
#      x y z
#    x 3.553770 0.000000 0.000000 
#    y 0.000000 3.362860 0.000000 
#    z 0.000000 0.000000 3.817220 
# 
# 
# High freq. dielectric constant tensor:
#      x y z
#    x 1.715080 0.000000 0.000000 
#    y 0.000000 1.693570 0.000000 
#    z 0.000000 0.000000 1.737720 
# 
# From -- ./inp_files/47132.got.cif
#   From: 2010.06.25/outbox.cif.g09.slc.cpg/sg71_24_cif.got.tgz:47132.got - 2010.06.28 04:59:45.
