data_PCOD8289652
_publ_section_title
;
Structure prediction by ZEFSAII (Michael W. Deem and Ramdas Pophale) SiO2 
 PCOD8289652
Probable space group: I M M M
;
_chemical_formula_sum "Si O2"
_cell_formula_units_Z 88
_cell_length_a 28.641564
_cell_length_b 17.719957
_cell_length_c 9.125513
_cell_angle_alpha 90.000000
_cell_angle_beta 90.000000
_cell_angle_gamma 90.000000
_cell_volume 4631.446814
_symmetry_space_group_name_H-M "I M M M"
_symmetry_group_IT_number 71
_symmetry_cell_setting 'orthorhombic'
loop_
_space_group_symop_operation_xyz
x,y,z
-x,-y,z
x,-y,-z
-x,y,-z
-x,-y,-z
x,y,-z
-x,y,z
x,-y,z
1/2+x,1/2+y,1/2+z
1/2-x,1/2-y,1/2+z
1/2+x,1/2-y,1/2-z
1/2-x,1/2+y,1/2-z
1/2-x,1/2-y,1/2-z
1/2+x,1/2+y,1/2-z
1/2-x,1/2+y,1/2+z
1/2+x,1/2-y,1/2+z
loop_
_atom_site_type_symbol
_atom_site_label
_atom_site_fract_x
_atom_site_fract_y
_atom_site_fract_z
Si Si1 0.075859 0.690811 0.172673
Si Si2 0.177106 0.733881 0.836138
Si Si3 0.605213 0.500000 0.326443
Si Si4 0.212171 0.000000 0.170935
Si Si5 0.772694 0.854871 0.664574
Si Si6 0.552901 0.356471 0.668925
Si Si7 0.000000 0.410856 0.673856
O O1 0.131535 0.683880 0.205891
O O2 0.061608 0.773389 0.235569
O O3 0.046733 0.627080 0.258650
O O4 0.064407 0.681771 0.000000
O O5 0.184886 0.804599 0.728652
O O6 0.222916 0.684282 0.829988
O O7 0.169463 0.766854 0.000000
O O8 0.596097 0.500000 0.500000
O O9 0.658600 0.500000 0.282641
O O10 0.583165 0.576490 0.257498
O O11 0.236457 0.072595 0.237787
O O12 0.220645 0.000000 0.000000
O O13 0.786909 0.876526 0.500000
O O14 0.567029 0.349765 0.500000
O O15 0.500000 0.381063 0.691916
O O16 0.000000 0.500000 0.712433
O O17 0.000000 0.398236 0.500000
#
# Coordination Sequence:
#
# PCOD8289652 Si02
#       7
#    16  16   8   8  16  16   8
#     4  10  19  36  61  86 109 141 187 232 275 334
#     4   9  19  36  59  85 111 142 183 231 278 336
#     4   9  17  27  44  75 113 147 178 219 262 301
#     4  11  21  34  51  74 108 151 193 233 274 323
#     4  10  20  35  55  81 115 149 184 230 284 337
#     4   9  15  25  46  78 110 136 171 218 264 306
#     4  11  25  43  59  80 113 144 178 233 297 355
#
# _framework density 19.000543
#
# number of rings (size 3 to 8) (size 9 to 14) (size 15 to 20)
#    0.000    2.273    0.909    2.455    0.000    6.182 
#    1.636    0.000    0.000    0.000    0.000    0.636 
#    0.000    0.000    0.000    0.000    0.000    0.000 
#
# Total GULP energy -545403.151102 kJ/mol
# GULP energy per Si atom -12395.526161 kJ/mol
# Density = 1.895730 g / cm^3
# Si number density = 19.000543 Si / 1000 Ang^3
#
#
#
# Elastic Constant Matrix: (Units=GPa)
#
#
# Indices 1 2 3 4 5 6 
#
# 1 80.7219 26.0603 37.7253 0.0000 0.0000 0.0000
# 2 26.0603 91.5541 39.3874 0.0000 0.0000 0.0000
# 3 37.7253 39.3874 84.0690 0.0000 0.0000 0.0000
# 4 0.0000 0.0000 0.0000 29.4309 0.0000 0.0000
# 5 0.0000 0.0000 0.0000 0.0000 21.2761 0.0000
# 6 0.0000 0.0000 0.0000 0.0000 0.0000 17.1994
#
#
#
# Elastic Compliance Matrix: (Units=1/GPa)
#
#
# Indices 1 2 3 4 5 6 
#
# 1 0.015916 -0.001826 -0.006287 0.000000 0.000000 0.000000
# 2 -0.001826 0.013889 -0.005688 0.000000 0.000000 0.000000
# 3 -0.006287 -0.005688 0.017381 0.000000 0.000000 0.000000
# 4 0.000000 0.000000 0.000000 0.033978 0.000000 0.000000
# 5 0.000000 0.000000 0.000000 0.000000 0.047001 0.000000
# 6 0.000000 0.000000 0.000000 0.000000 0.000000 0.058142
#
#
# Mechanical properties :
#
#
# Convention : Reuss Voigt Hill
#
# Bulk Modulus (GPa) = 51.05919 51.41012 51.23466
# Shear Modulus (GPa) = 22.68236 23.79275 23.23755
#
# Velocity S-wave (km/s) = 3.45885 3.54250 3.50093
# Velocity P-wave (km/s) = 6.54846 6.62181 6.58524
#
# Compressibility (1/GPa) = 0.01958511
#
# Stress axis : x y z
#
# Youngs Moduli (GPa) = 62.83106 71.99829 57.53411
#
# Poissons Ratio (x) = 0.13145 0.36170
# Poissons Ratio (y) = 0.11471 0.32725
# Poissons Ratio (z) = 0.39500 0.40953
#
# Static dielectric constant tensor:
#      x y z
#    x 3.526840 0.000000 0.000000 
#    y 0.000000 3.570890 0.000000 
#    z 0.000000 0.000000 3.314910 
# 
# 
# High freq. dielectric constant tensor:
#      x y z
#    x 1.747990 0.000000 0.000000 
#    y 0.000000 1.739130 0.000000 
#    z 0.000000 0.000000 1.704860 
# 
# From -- ./inp_files/16760.got.cif
#   From: 2010.06.25/outbox.cif.g09.slc.cpg/sg71_9_cif.got.tgz:16760.got - 2010.06.28 04:59:45.
