data_PCOD8289009
_publ_section_title
;
Structure prediction by ZEFSAII (Michael W. Deem and Ramdas Pophale) SiO2 
 PCOD8289009
Probable space group: I M M M
;
_chemical_formula_sum "Si O2"
_cell_formula_units_Z 88
_cell_length_a 24.632459
_cell_length_b 21.329459
_cell_length_c 9.018686
_cell_angle_alpha 90.000000
_cell_angle_beta 90.000000
_cell_angle_gamma 90.000000
_cell_volume 4738.390788
_symmetry_space_group_name_H-M "I M M M"
_symmetry_group_IT_number 71
_symmetry_cell_setting 'orthorhombic'
loop_
_space_group_symop_operation_xyz
x,y,z
-x,-y,z
x,-y,-z
-x,y,-z
-x,-y,-z
x,y,-z
-x,y,z
x,-y,z
1/2+x,1/2+y,1/2+z
1/2-x,1/2-y,1/2+z
1/2+x,1/2-y,1/2-z
1/2-x,1/2+y,1/2-z
1/2-x,1/2-y,1/2-z
1/2+x,1/2+y,1/2-z
1/2-x,1/2+y,1/2+z
1/2+x,1/2-y,1/2+z
loop_
_atom_site_type_symbol
_atom_site_label
_atom_site_fract_x
_atom_site_fract_y
_atom_site_fract_z
Si Si1 0.000000 0.751492 0.674418
Si Si2 0.084654 0.650419 0.324718
Si Si3 0.199680 0.830598 0.828313
Si Si4 0.500000 0.073117 0.664528
Si Si5 0.000000 0.891073 0.323217
Si Si6 0.309735 0.814579 0.671213
Si Si7 0.891455 0.070748 0.829272
O O1 0.946281 0.714113 0.725271
O O2 0.000000 0.758433 0.500000
O O3 0.000000 0.820585 0.743892
O O4 0.084766 0.642570 0.500000
O O5 0.053636 0.592115 0.253880
O O6 0.145224 0.649488 0.264543
O O7 0.252646 0.840969 0.729001
O O8 0.180945 0.759322 0.802818
O O9 0.153264 0.878886 0.773201
O O10 0.214205 0.842761 0.000000
O O11 0.500000 0.103897 0.500000
O O12 0.500000 0.000000 0.649057
O O13 0.946160 0.925006 0.265759
O O14 0.000000 0.893475 0.500000
O O15 0.314898 0.832298 0.500000
O O16 0.868245 0.000000 0.810587
O O17 0.905843 0.084797 0.000000
#
# Coordination Sequence:
#
# PCOD8289009 Si02
#       7
#     8  16  16   8   8  16  16
#     4   8  17  31  48  75 106 135 167 208 254 294
#     4  10  19  33  54  78 106 138 173 211 253 308
#     4   9  19  35  54  76 102 135 173 213 260 312
#     4  10  21  37  55  76 105 138 172 214 262 308
#     4  11  21  33  52  77 105 135 169 209 254 301
#     4  10  19  32  53  80 106 132 167 214 266 313
#     4  10  21  37  54  72  99 135 173 211 250 297
#
# _framework density 18.571707
#
# number of rings (size 3 to 8) (size 9 to 14) (size 15 to 20)
#    0.000    2.273    0.000    3.545    0.000    3.636 
#    0.000    5.455    0.000    3.273    0.000    0.000 
#    0.000    0.000    0.000    0.000    0.000    0.000 
#
# Total GULP energy -545620.619179 kJ/mol
# GULP energy per Si atom -12400.468618 kJ/mol
# Density = 1.852944 g / cm^3
# Si number density = 18.571707 Si / 1000 Ang^3
#
#
#
# Elastic Constant Matrix: (Units=GPa)
#
#
# Indices 1 2 3 4 5 6 
#
# 1 130.7582 47.4697 65.0126 0.0000 0.0000 0.0000
# 2 47.4697 81.8933 34.0020 0.0000 0.0000 0.0000
# 3 65.0126 34.0020 101.6889 0.0000 0.0000 0.0000
# 4 0.0000 0.0000 0.0000 23.1166 0.0000 0.0000
# 5 0.0000 0.0000 0.0000 0.0000 32.0129 0.0000
# 6 0.0000 0.0000 0.0000 0.0000 0.0000 12.4314
#
#
#
# Elastic Compliance Matrix: (Units=1/GPa)
#
#
# Indices 1 2 3 4 5 6 
#
# 1 0.012530 -0.004572 -0.006482 0.000000 0.000000 0.000000
# 2 -0.004572 0.015848 -0.002376 0.000000 0.000000 0.000000
# 3 -0.006482 -0.002376 0.014773 0.000000 0.000000 0.000000
# 4 0.000000 0.000000 0.000000 0.043259 0.000000 0.000000
# 5 0.000000 0.000000 0.000000 0.000000 0.031237 0.000000
# 6 0.000000 0.000000 0.000000 0.000000 0.000000 0.080441
#
#
# Mechanical properties :
#
#
# Convention : Reuss Voigt Hill
#
# Bulk Modulus (GPa) = 61.38648 67.47877 64.43263
# Shear Modulus (GPa) = 21.70332 24.70259 23.20295
#
# Velocity S-wave (km/s) = 3.42222 3.65104 3.53848
# Velocity P-wave (km/s) = 6.98147 7.36115 7.17382
#
# Compressibility (1/GPa) = 0.01629023
#
# Stress axis : x y z
#
# Youngs Moduli (GPa) = 79.80554 63.10076 67.69202
#
# Poissons Ratio (x) = 0.28849 0.43880
# Poissons Ratio (y) = 0.36486 0.16084
# Poissons Ratio (z) = 0.51733 0.14994
#
# Static dielectric constant tensor:
#      x y z
#    x 3.423720 0.000000 0.000000 
#    y 0.000000 3.419740 0.000000 
#    z 0.000000 0.000000 3.397990 
# 
# 
# High freq. dielectric constant tensor:
#      x y z
#    x 1.721050 0.000000 0.000000 
#    y 0.000000 1.708430 0.000000 
#    z 0.000000 0.000000 1.722110 
# 
# From -- ./inp_files/12634.got.cif
#   From: 2010.06.25/outbox.cif.g09.slc.cpg/sg71_7_cif.got.tgz:12634.got - 2010.06.28 04:59:45.
