data_PCOD8289985
_publ_section_title
;
Structure prediction by ZEFSAII (Michael W. Deem and Ramdas Pophale) SiO2 
 PCOD8289985
Probable space group: I M M M
;
_chemical_formula_sum "Si O2"
_cell_formula_units_Z 72
_cell_length_a 8.603727
_cell_length_b 33.935898
_cell_length_c 14.458929
_cell_angle_alpha 90.000000
_cell_angle_beta 90.000000
_cell_angle_gamma 90.000000
_cell_volume 4221.648714
_symmetry_space_group_name_H-M "I M M M"
_symmetry_group_IT_number 71
_symmetry_cell_setting 'orthorhombic'
loop_
_space_group_symop_operation_xyz
x,y,z
-x,-y,z
x,-y,-z
-x,y,-z
-x,-y,-z
x,y,-z
-x,y,z
x,-y,z
1/2+x,1/2+y,1/2+z
1/2-x,1/2-y,1/2+z
1/2+x,1/2-y,1/2-z
1/2-x,1/2+y,1/2-z
1/2-x,1/2-y,1/2-z
1/2+x,1/2+y,1/2-z
1/2-x,1/2+y,1/2+z
1/2+x,1/2-y,1/2+z
loop_
_atom_site_type_symbol
_atom_site_label
_atom_site_fract_x
_atom_site_fract_y
_atom_site_fract_z
Si Si1 0.820632 0.223326 0.106971
Si Si2 0.313705 0.084608 0.103947
Si Si3 0.169869 0.500000 0.390405
Si Si4 0.181963 0.343909 0.273133
Si Si5 0.819685 0.193127 0.604572
O O1 0.714363 0.194694 0.166595
O O2 0.776834 0.268044 0.130913
O O3 0.000000 0.216505 0.132609
O O4 0.786474 0.214484 0.000000
O O5 0.500000 0.083165 0.104004
O O6 0.246537 0.041491 0.136829
O O7 0.250803 0.117871 0.173529
O O8 0.255105 0.094609 0.000000
O O9 0.150147 0.500000 0.500000
O O10 0.000000 0.500000 0.343345
O O11 0.267092 0.341408 0.174004
O O12 0.000000 0.348063 0.256149
O O13 0.783068 0.179322 0.500000
O O14 0.000000 0.202910 0.617241
#
# Coordination Sequence:
#
# PCOD8289985 Si02
#       5
#    16  16   8  16  16
#     4  10  20  33  48  66  90 120 152 185 221 263
#     4   8  14  24  40  65  95 123 147 172 208 256
#     4   7  10  20  38  60  90 123 148 170 201 249
#     4  11  20  29  45  69  95 119 146 184 226 268
#     4  10  21  36  50  62  81 114 155 195 231 266
#
# _framework density 17.054949000000001
#
# number of rings (size 3 to 8) (size 9 to 14) (size 15 to 20)
#    0.000    2.556    0.000    4.667    0.000    3.556 
#    0.000    0.000    0.000    0.000    0.000    3.889 
#    0.000   18.667    0.000    0.000    0.000    0.000 
#
# Total GULP energy -446214.153853 kJ/mol
# GULP energy per Si atom -12394.837607 kJ/mol
# Density = 1.701613 g / cm^3
# Si number density = 17.054949 Si / 1000 Ang^3
#
#
#
# Elastic Constant Matrix: (Units=GPa)
#
#
# Indices 1 2 3 4 5 6 
#
# 1 32.2724 11.2731 18.2800 0.0000 0.0000 0.0000
# 2 11.2731 103.7598 72.4364 -0.0002 0.0000 0.0000
# 3 18.2800 72.4364 99.0598 -0.0004 0.0000 -0.0001
# 4 0.0000 -0.0002 -0.0004 22.6626 0.0000 0.0000
# 5 0.0000 0.0000 0.0000 0.0000 24.2397 0.0000
# 6 0.0000 0.0000 -0.0001 0.0000 0.0000 10.9318
#
#
#
# Elastic Compliance Matrix: (Units=1/GPa)
#
#
# Indices 1 2 3 4 5 6 
#
# 1 0.034707 0.001431 -0.007451 0.000000 0.000000 0.000000
# 2 0.001431 0.019747 -0.014704 0.000000 0.000000 0.000000
# 3 -0.007451 -0.014704 0.022222 0.000000 0.000000 0.000000
# 4 0.000000 0.000000 0.000000 0.044126 0.000000 0.000000
# 5 0.000000 0.000000 0.000000 0.000000 0.041255 0.000000
# 6 0.000000 0.000000 0.000000 0.000000 0.000000 0.091476
#
#
# Mechanical properties :
#
#
# Convention : Reuss Voigt Hill
#
# Bulk Modulus (GPa) = 28.38657 48.78567 38.58612
# Shear Modulus (GPa) = 16.30133 20.44033 18.37083
#
# Velocity S-wave (km/s) = 3.09498 3.46569 3.28556
# Velocity P-wave (km/s) = 5.42698 6.68444 6.08826
#
# Compressibility (1/GPa) = 0.03522793
#
# Stress axis : x y z
#
# Youngs Moduli (GPa) = 28.81278 50.63979 45.00034
#
# Poissons Ratio (x) = -0.07246 0.33529
# Poissons Ratio (y) = -0.04123 0.66169
# Poissons Ratio (z) = 0.21468 0.74461
#
# Static dielectric constant tensor:
#      x y z
#    x 2.923220 0.000000 0.000000 
#    y 0.000000 3.460110 0.000000 
#    z 0.000000 0.000000 3.244990 
# 
# 
# High freq. dielectric constant tensor:
#      x y z
#    x 1.636850 0.000000 0.000000 
#    y 0.000000 1.645870 0.000000 
#    z 0.000000 0.000000 1.643150 
# 
# From -- ./inp_files/16382.got.cif
#   From: 2010.06.25/outbox.cif.g09.slc.cpg/sg71_9_cif.got.tgz:16382.got - 2010.06.28 04:59:45.
