data_PCOD8289465
_publ_section_title
;
Structure prediction by ZEFSAII (Michael W. Deem and Ramdas Pophale) SiO2 
 PCOD8289465
Probable space group: I M M M
;
_chemical_formula_sum "Si O2"
_cell_formula_units_Z 104
_cell_length_a 25.709847
_cell_length_b 9.899392
_cell_length_c 23.211410
_cell_angle_alpha 90.000000
_cell_angle_beta 90.000000
_cell_angle_gamma 90.000000
_cell_volume 5907.578986
_symmetry_space_group_name_H-M "I M M M"
_symmetry_group_IT_number 71
_symmetry_cell_setting 'orthorhombic'
loop_
_space_group_symop_operation_xyz
x,y,z
-x,-y,z
x,-y,-z
-x,y,-z
-x,-y,-z
x,y,-z
-x,y,z
x,-y,z
1/2+x,1/2+y,1/2+z
1/2-x,1/2-y,1/2+z
1/2+x,1/2-y,1/2-z
1/2-x,1/2+y,1/2-z
1/2-x,1/2-y,1/2-z
1/2+x,1/2+y,1/2-z
1/2-x,1/2+y,1/2+z
1/2+x,1/2-y,1/2+z
loop_
_atom_site_type_symbol
_atom_site_label
_atom_site_fract_x
_atom_site_fract_y
_atom_site_fract_z
Si Si1 0.000000 0.842322 0.936645
Si Si2 0.303227 0.347030 0.690457
Si Si3 0.559578 0.000000 0.067730
Si Si4 0.209466 0.157023 0.676729
Si Si5 0.418425 0.343861 0.342702
Si Si6 0.060671 0.000000 0.436032
Si Si7 0.441841 0.848223 0.240450
Si Si8 0.892698 0.750995 0.627502
O O1 0.946978 0.803440 0.902370
O O2 0.000000 0.000000 0.946507
O O3 0.000000 0.771219 0.000000
O O4 0.282863 0.500000 0.680880
O O5 0.261775 0.241396 0.666040
O O6 0.312324 0.321415 0.758492
O O7 0.356287 0.322951 0.654787
O O8 0.593854 0.124899 0.087990
O O9 0.500000 0.000000 0.092669
O O10 0.556096 0.000000 0.000000
O O11 0.168330 0.212189 0.629782
O O12 0.221176 0.000000 0.664882
O O13 0.431125 0.500000 0.326160
O O14 0.442361 0.242849 0.296719
O O15 0.075610 0.872463 0.398847
O O16 0.086959 0.000000 0.500000
O O17 0.000000 0.000000 0.445140
O O18 0.500000 0.859250 0.216282
O O19 0.407568 0.775087 0.193107
O O20 0.420342 0.000000 0.253271
#
# Coordination Sequence:
#
# PCOD8289465 Si02
#       8
#     8  16   8  16  16   8  16  16
#     4   9  18  34  59  89 119 153 186 221 276 337
#     4   9  19  33  52  79 116 149 184 228 280 343
#     4  11  24  42  60  79 112 156 198 236 285 347
#     4  10  20  35  53  81 112 148 187 230 289 344
#     4  10  19  34  56  86 115 148 186 232 277 336
#     4  11  24  40  58  81 110 150 194 236 283 339
#     4  11  22  33  49  80 121 150 181 227 288 339
#     4  12  22  37  57  83 112 148 190 243 285 342
#
# _framework density 17.604503999999999
#
# number of rings (size 3 to 8) (size 9 to 14) (size 15 to 20)
#    0.000    1.615    3.846    1.846    2.154    1.846 
#    0.000    0.000    0.000    2.769    0.000    0.000 
#    0.000    0.000    0.000    0.000    0.000    0.000 
#
# Total GULP energy -644612.097858 kJ/mol
# GULP energy per Si atom -12396.386497 kJ/mol
# Density = 1.756444 g / cm^3
# Si number density = 17.604504 Si / 1000 Ang^3
#
#
#
# Elastic Constant Matrix: (Units=GPa)
#
#
# Indices 1 2 3 4 5 6 
#
# 1 117.8132 56.2345 41.1716 0.0000 0.0000 0.0000
# 2 56.2345 126.5775 46.6741 0.0000 0.0000 0.0000
# 3 41.1716 46.6741 90.6985 0.0000 0.0000 0.0000
# 4 0.0000 0.0000 0.0000 -51.9334 0.0000 0.0000
# 5 0.0000 0.0000 0.0000 0.0000 -11.2855 0.0000
# 6 0.0000 0.0000 0.0000 0.0000 0.0000 50.6896
#
#
#
# Elastic Compliance Matrix: (Units=1/GPa)
#
#
# Indices 1 2 3 4 5 6 
#
# 1 0.011475 -0.003921 -0.003191 0.000000 0.000000 0.000000
# 2 -0.003921 0.011091 -0.003927 0.000000 0.000000 0.000000
# 3 -0.003191 -0.003927 0.014495 0.000000 0.000000 0.000000
# 4 0.000000 0.000000 0.000000 -0.019255 0.000000 0.000000
# 5 0.000000 0.000000 0.000000 0.000000 -0.088610 0.000000
# 6 0.000000 0.000000 0.000000 0.000000 0.000000 0.019728
#
#
# Mechanical properties :
#
#
# Convention : Reuss Voigt Hill
#
# Bulk Modulus (GPa) = 66.74931 69.24996 67.99963
# Shear Modulus (GPa) = -208.29924 10.22809 -99.03557
#
# Velocity S-wave (km/s) = -10.88937 2.41299 -7.50852
# Velocity P-wave (km/s) = 10.95930 6.86915 6.03825
#
# Compressibility (1/GPa) = 0.01498143
#
# Stress axis : x y z
#
# Youngs Moduli (GPa) = 87.14717 90.16689 68.98916
#
# Poissons Ratio (x) = 0.35357 0.22014
# Poissons Ratio (y) = 0.34173 0.27094
# Poissons Ratio (z) = 0.27808 0.35411
#
# Static dielectric constant tensor:
#      x y z
#    x 3.297770 0.000000 0.000000 
#    y 0.000000 3.356340 0.000000 
#    z 0.000000 0.000000 3.257390 
# 
# 
# High freq. dielectric constant tensor:
#      x y z
#    x 1.679450 0.000000 0.000000 
#    y 0.000000 1.689410 0.000000 
#    z 0.000000 0.000000 1.653600 
# 
# From -- ./inp_files/13398.got.cif
#   From: 2010.06.25/outbox.cif.g09.slc.cpg/sg71_7_cif.got.tgz:13398.got - 2010.06.28 04:59:45.
