data_PCOD8289748
_publ_section_title
;
Structure prediction by ZEFSAII (Michael W. Deem and Ramdas Pophale) SiO2 
 PCOD8289748
Probable space group: I M M M
;
_chemical_formula_sum "Si O2"
_cell_formula_units_Z 104
_cell_length_a 9.252063
_cell_length_b 27.332807
_cell_length_c 22.828587
_cell_angle_alpha 90.000000
_cell_angle_beta 90.000000
_cell_angle_gamma 90.000000
_cell_volume 5773.003852
_symmetry_space_group_name_H-M "I M M M"
_symmetry_group_IT_number 71
_symmetry_cell_setting 'orthorhombic'
loop_
_space_group_symop_operation_xyz
x,y,z
-x,-y,z
x,-y,-z
-x,y,-z
-x,-y,-z
x,y,-z
-x,y,z
x,-y,z
1/2+x,1/2+y,1/2+z
1/2-x,1/2-y,1/2+z
1/2+x,1/2-y,1/2-z
1/2-x,1/2+y,1/2-z
1/2-x,1/2-y,1/2-z
1/2+x,1/2+y,1/2-z
1/2-x,1/2+y,1/2+z
1/2+x,1/2-y,1/2+z
loop_
_atom_site_type_symbol
_atom_site_label
_atom_site_fract_x
_atom_site_fract_y
_atom_site_fract_z
Si Si1 0.168794 0.690224 0.566086
Si Si2 0.170194 0.500000 0.933742
Si Si3 0.837522 0.000000 0.129110
Si Si4 0.169424 0.575625 0.164251
Si Si5 0.835458 0.218250 0.173715
Si Si6 0.336554 0.174475 0.725181
Si Si7 0.663560 0.592271 0.433566
Si Si8 0.162640 0.000000 0.733965
O O1 0.201302 0.708768 0.500000
O O2 0.252174 0.723715 0.612290
O O3 0.227618 0.636244 0.575739
O O4 0.000000 0.691464 0.579712
O O5 0.217235 0.450052 0.898041
O O6 0.000000 0.500000 0.940788
O O7 0.238648 0.500000 0.000000
O O8 0.764748 0.950809 0.104892
O O9 0.836728 0.000000 0.197533
O O10 0.000000 0.000000 0.103320
O O11 0.208097 0.633123 0.176104
O O12 0.254358 0.548436 0.215087
O O13 0.000000 0.566404 0.171734
O O14 0.764958 0.177327 0.217096
O O15 0.825378 0.272831 0.196764
O O16 0.000000 0.201717 0.163927
O O17 0.500000 0.163591 0.746233
O O18 0.660924 0.574475 0.500000
O O19 0.500000 0.606771 0.413292
O O20 0.000000 0.000000 0.708468
#
# Coordination Sequence:
#
# PCOD8289748 Si02
#       8
#    16   8   8  16  16  16  16   8
#     4  10  21  36  52  72 101 137 175 215 259 306
#     4   8  14  28  53  80 103 131 165 200 244 300
#     4   9  18  30  45  69  97 124 161 208 253 301
#     4   9  18  34  53  74 103 135 169 207 251 304
#     4  10  20  34  54  78 103 134 174 218 264 313
#     4   9  19  35  54  78 106 135 168 211 263 316
#     4   9  17  31  50  69  92 127 169 212 256 301
#     4  10  20  31  45  72 106 135 168 205 246 297
#
# _framework density 18.014883999999999
#
# number of rings (size 3 to 8) (size 9 to 14) (size 15 to 20)
#    0.000    2.692    0.000    1.846    2.154    3.077 
#    0.000    1.923    0.000    8.308    0.000    0.000 
#    0.000    0.000    0.000    0.000    0.000    0.000 
#
# Total GULP energy -644244.694394 kJ/mol
# GULP energy per Si atom -12389.321046 kJ/mol
# Density = 1.797388 g / cm^3
# Si number density = 18.014884 Si / 1000 Ang^3
#
#
#
# Elastic Constant Matrix: (Units=GPa)
#
#
# Indices 1 2 3 4 5 6 
#
# 1 80.2782 22.2526 44.9741 0.0000 0.0000 0.0000
# 2 22.2526 64.6639 30.5301 0.0000 0.0000 0.0000
# 3 44.9741 30.5301 88.3377 -0.0001 0.0000 0.0000
# 4 0.0000 0.0000 -0.0001 24.2304 0.0000 0.0000
# 5 0.0000 0.0000 0.0000 0.0000 27.6631 0.0000
# 6 0.0000 0.0000 0.0000 0.0000 0.0000 16.2909
#
#
#
# Elastic Compliance Matrix: (Units=1/GPa)
#
#
# Indices 1 2 3 4 5 6 
#
# 1 0.017684 -0.002193 -0.008245 0.000000 0.000000 0.000000
# 2 -0.002193 0.018752 -0.005365 0.000000 0.000000 0.000000
# 3 -0.008245 -0.005365 0.017372 0.000000 0.000000 0.000000
# 4 0.000000 0.000000 0.000000 0.041270 0.000000 0.000000
# 5 0.000000 0.000000 0.000000 0.000000 0.036149 0.000000
# 6 0.000000 0.000000 0.000000 0.000000 0.000000 0.061384
#
#
# Mechanical properties :
#
#
# Convention : Reuss Voigt Hill
#
# Bulk Modulus (GPa) = 45.03920 47.64372 46.34146
# Shear Modulus (GPa) = 21.58737 22.67175 22.12956
#
# Velocity S-wave (km/s) = 3.46541 3.55138 3.50866
# Velocity P-wave (km/s) = 6.40839 6.58185 6.49570
#
# Compressibility (1/GPa) = 0.02220288
#
# Stress axis : x y z
#
# Youngs Moduli (GPa) = 56.54927 53.32801 57.56382
#
# Poissons Ratio (x) = 0.11692 0.47463
# Poissons Ratio (y) = 0.12399 0.30880
# Poissons Ratio (z) = 0.46627 0.28608
#
# Static dielectric constant tensor:
#      x y z
#    x 3.383580 0.000000 0.000000 
#    y 0.000000 3.358780 0.000000 
#    z 0.000000 0.000000 3.538250 
# 
# 
# High freq. dielectric constant tensor:
#      x y z
#    x 1.685990 0.000000 0.000000 
#    y 0.000000 1.690160 0.000000 
#    z 0.000000 0.000000 1.696520 
# 
# From -- ./inp_files/58056.got.cif
#   From: 2010.06.25/outbox.cif.g09.slc.cpg/sg71_30_cif.got.tgz:58056.got - 2010.06.28 04:59:45.
