data_PCOD8289478
_publ_section_title
;
Structure prediction by ZEFSAII (Michael W. Deem and Ramdas Pophale) SiO2 
 PCOD8289478
Probable space group: I M M M
;
_chemical_formula_sum "Si O2"
_cell_formula_units_Z 104
_cell_length_a 27.371701
_cell_length_b 21.841825
_cell_length_c 8.568347
_cell_angle_alpha 90.000000
_cell_angle_beta 90.000000
_cell_angle_gamma 90.000000
_cell_volume 5122.568288
_symmetry_space_group_name_H-M "I M M M"
_symmetry_group_IT_number 71
_symmetry_cell_setting 'orthorhombic'
loop_
_space_group_symop_operation_xyz
x,y,z
-x,-y,z
x,-y,-z
-x,y,-z
-x,-y,-z
x,y,-z
-x,y,z
x,-y,z
1/2+x,1/2+y,1/2+z
1/2-x,1/2-y,1/2+z
1/2+x,1/2-y,1/2-z
1/2-x,1/2+y,1/2-z
1/2-x,1/2-y,1/2-z
1/2+x,1/2+y,1/2-z
1/2-x,1/2+y,1/2+z
1/2+x,1/2-y,1/2+z
loop_
_atom_site_type_symbol
_atom_site_label
_atom_site_fract_x
_atom_site_fract_y
_atom_site_fract_z
Si Si1 0.553924 0.933015 0.685037
Si Si2 0.887947 0.680169 0.815978
Si Si3 0.945614 0.786780 0.683750
Si Si4 0.277347 0.810099 0.684711
Si Si5 0.377662 0.606661 0.815280
Si Si6 0.225213 0.929120 0.183302
Si Si7 0.053064 0.000000 0.316088
O O1 0.552276 0.935546 0.500000
O O2 0.500000 0.912396 0.745432
O O3 0.597269 0.888041 0.738165
O O4 0.566728 0.000000 0.753026
O O5 0.929089 0.719982 0.732545
O O6 0.833345 0.695283 0.759062
O O7 0.892333 0.689645 0.000000
O O8 0.949194 0.793841 0.500000
O O9 0.901867 0.830405 0.743488
O O10 0.000000 0.801078 0.753013
O O11 0.271965 0.808533 0.500000
O O12 0.250000 0.750000 0.750000
O O13 0.259127 0.877041 0.739782
O O14 0.329402 0.591730 0.720442
O O15 0.418023 0.558872 0.761836
O O16 0.365807 0.605060 0.000000
O O17 0.234698 0.000000 0.243306
O O18 0.233905 0.927141 0.000000
O O19 0.046828 0.000000 0.500000
O O20 0.000000 0.000000 0.235318
#
# Coordination Sequence:
#
# PCOD8289478 Si02
#       7
#    16  16  16  16  16  16   8
#     4   8  14  27  50  79 108 135 165 207 261 320
#     4  10  21  36  56  82 108 140 184 233 283 338
#     4  10  21  35  53  82 118 153 188 228 279 341
#     4  11  24  41  62  87 116 152 198 251 305 361
#     4  10  19  34  57  82 110 148 194 239 284 336
#     4  11  24  41  61  86 119 157 199 250 304 360
#     4   9  16  28  51  81 109 139 183 237 284 333
#
# _framework density 20.302315
#
# number of rings (size 3 to 8) (size 9 to 14) (size 15 to 20)
#    0.000    2.077    0.769    3.231    0.000    8.615 
#    0.000    1.538    0.000    2.308    0.000    2.154 
#    0.000    0.000    0.000    0.000    0.000    0.000 
#
# Total GULP energy -644336.352871 kJ/mol
# GULP energy per Si atom -12391.083709 kJ/mol
# Density = 2.025611 g / cm^3
# Si number density = 20.302315 Si / 1000 Ang^3
#
#
#
# Elastic Constant Matrix: (Units=GPa)
#
#
# Indices 1 2 3 4 5 6 
#
# 1 106.3560 54.4104 21.4157 0.0000 0.0000 0.0000
# 2 54.4104 142.1131 23.5419 0.0000 0.0000 0.0000
# 3 21.4157 23.5419 33.7045 0.0000 0.0000 0.0000
# 4 0.0000 0.0000 0.0000 29.6569 0.0000 0.0000
# 5 0.0000 0.0000 0.0000 0.0000 23.7797 0.0000
# 6 0.0000 0.0000 0.0000 0.0000 0.0000 42.1404
#
#
#
# Elastic Compliance Matrix: (Units=1/GPa)
#
#
# Indices 1 2 3 4 5 6 
#
# 1 0.012443 -0.003906 -0.005178 0.000000 0.000000 0.000000
# 2 -0.003906 0.009184 -0.003933 0.000000 0.000000 0.000000
# 3 -0.005178 -0.003933 0.035706 0.000000 0.000000 0.000000
# 4 0.000000 0.000000 0.000000 0.033719 0.000000 0.000000
# 5 0.000000 0.000000 0.000000 0.000000 0.042053 0.000000
# 6 0.000000 0.000000 0.000000 0.000000 0.000000 0.023730
#
#
# Mechanical properties :
#
#
# Convention : Reuss Voigt Hill
#
# Bulk Modulus (GPa) = 31.94906 53.43439 42.69173
# Shear Modulus (GPa) = 25.86618 31.30244 28.58431
#
# Velocity S-wave (km/s) = 3.57326 3.93086 3.75631
# Velocity P-wave (km/s) = 5.72670 6.85410 6.31560
#
# Compressibility (1/GPa) = 0.03129982
#
# Stress axis : x y z
#
# Youngs Moduli (GPa) = 80.36328 108.88814 28.00618
#
# Poissons Ratio (x) = 0.42537 0.14501
# Poissons Ratio (y) = 0.31393 0.11013
# Poissons Ratio (z) = 0.41612 0.42820
#
# Static dielectric constant tensor:
#      x y z
#    x 3.981860 0.000000 0.000000 
#    y 0.000000 4.107060 0.000000 
#    z 0.000000 0.000000 3.309740 
# 
# 
# High freq. dielectric constant tensor:
#      x y z
#    x 1.802740 0.000000 0.000000 
#    y 0.000000 1.811100 0.000000 
#    z 0.000000 0.000000 1.756780 
# 
# From -- ./inp_files/14977.got.cif
#   From: 2010.06.25/outbox.cif.g09.slc.cpg/sg71_8_cif.got.tgz:14977.got - 2010.06.28 04:59:45.
