data_PCOD8289470
_publ_section_title
;
Structure prediction by ZEFSAII (Michael W. Deem and Ramdas Pophale) SiO2 
 PCOD8289470
Probable space group: I M M M
;
_chemical_formula_sum "Si O2"
_cell_formula_units_Z 96
_cell_length_a 13.064570
_cell_length_b 18.649140
_cell_length_c 21.742017
_cell_angle_alpha 90.000000
_cell_angle_beta 90.000000
_cell_angle_gamma 90.000000
_cell_volume 5297.290139
_symmetry_space_group_name_H-M "I M M M"
_symmetry_group_IT_number 71
_symmetry_cell_setting 'orthorhombic'
loop_
_space_group_symop_operation_xyz
x,y,z
-x,-y,z
x,-y,-z
-x,y,-z
-x,-y,-z
x,y,-z
-x,y,z
x,-y,z
1/2+x,1/2+y,1/2+z
1/2-x,1/2-y,1/2+z
1/2+x,1/2-y,1/2-z
1/2-x,1/2+y,1/2-z
1/2-x,1/2-y,1/2-z
1/2+x,1/2+y,1/2-z
1/2-x,1/2+y,1/2+z
1/2+x,1/2-y,1/2+z
loop_
_atom_site_type_symbol
_atom_site_label
_atom_site_fract_x
_atom_site_fract_y
_atom_site_fract_z
Si Si1 0.883097 0.918567 0.245700
Si Si2 0.383456 0.179012 0.428375
Si Si3 0.500000 0.085518 0.932666
Si Si4 0.784969 0.421967 0.571459
Si Si5 0.707338 0.583366 0.126018
Si Si6 0.500000 0.581559 0.072111
Si Si7 0.615569 0.668079 0.374254
O O1 0.802792 0.905406 0.300701
O O2 0.856611 0.859287 0.194136
O O3 0.000000 0.908293 0.269387
O O4 0.870107 0.000000 0.220122
O O5 0.358238 0.197029 0.500000
O O6 0.500000 0.150424 0.423418
O O7 0.307801 0.119601 0.401763
O O8 0.370267 0.247463 0.383780
O O9 0.392826 0.107623 0.898546
O O10 0.500000 0.000000 0.937829
O O11 0.500000 0.121951 0.000000
O O12 0.808321 0.430880 0.500000
O O13 0.756878 0.500000 0.599750
O O14 0.691433 0.368906 0.578565
O O15 0.716420 0.500000 0.108508
O O16 0.604582 0.618120 0.096266
O O17 0.500000 0.500000 0.097093
O O18 0.500000 0.586170 0.000000
O O19 0.500000 0.644679 0.390717
#
# Coordination Sequence:
#
# PCOD8289470 Si02
#       7
#    16  16   8  16  16   8  16
#     4   9  17  32  55  82 109 137 171 213 264 317
#     4  10  22  38  53  73 106 146 181 215 262 315
#     4   7  12  24  41  61  87 123 167 212 260 308
#     4   9  16  27  46  70  96 131 176 223 266 308
#     4  10  19  34  57  81 104 133 171 219 270 321
#     4   9  16  28  51  83 109 125 152 207 276 327
#     4  10  20  33  50  73 105 143 178 213 255 306
#
# _framework density 18.122472999999999
#
# number of rings (size 3 to 8) (size 9 to 14) (size 15 to 20)
#    0.000    2.667    0.833    2.500    0.000    4.000 
#    0.000    2.500    1.833    1.000    0.000    0.000 
#    0.000    0.000    0.000    0.000    0.000    0.000 
#
# Total GULP energy -594668.569123 kJ/mol
# GULP energy per Si atom -12388.928523 kJ/mol
# Density = 1.808123 g / cm^3
# Si number density = 18.122473 Si / 1000 Ang^3
#
#
#
# Elastic Constant Matrix: (Units=GPa)
#
#
# Indices 1 2 3 4 5 6 
#
# 1 133.9594 57.8011 44.5166 0.0000 0.0000 0.0000
# 2 57.8011 68.7518 39.4986 0.0000 0.0000 0.0000
# 3 44.5166 39.4986 74.0058 0.0000 0.0000 0.0000
# 4 0.0000 0.0000 0.0000 25.1866 0.0000 0.0000
# 5 0.0000 0.0000 0.0000 0.0000 22.7176 0.0000
# 6 0.0000 0.0000 0.0000 0.0000 0.0000 14.1513
#
#
#
# Elastic Compliance Matrix: (Units=1/GPa)
#
#
# Indices 1 2 3 4 5 6 
#
# 1 0.012067 -0.008617 -0.002659 0.000000 0.000000 0.000000
# 2 -0.008617 0.027131 -0.009297 0.000000 0.000000 0.000000
# 3 -0.002659 -0.009297 0.020074 0.000000 0.000000 0.000000
# 4 0.000000 0.000000 0.000000 0.039704 0.000000 0.000000
# 5 0.000000 0.000000 0.000000 0.000000 0.044019 0.000000
# 6 0.000000 0.000000 0.000000 0.000000 0.000000 0.070665
#
#
# Mechanical properties :
#
#
# Convention : Reuss Voigt Hill
#
# Bulk Modulus (GPa) = 55.17240 62.26106 58.71673
# Shear Modulus (GPa) = 19.16833 21.40449 20.28641
#
# Velocity S-wave (km/s) = 3.25577 3.44044 3.34938
# Velocity P-wave (km/s) = 6.68159 7.08608 6.88681
#
# Compressibility (1/GPa) = 0.01812501
#
# Stress axis : x y z
#
# Youngs Moduli (GPa) = 82.87231 36.85872 49.81522
#
# Poissons Ratio (x) = 0.31761 0.13248
# Poissons Ratio (y) = 0.71410 0.46313
# Poissons Ratio (z) = 0.22040 0.34267
#
# Static dielectric constant tensor:
#      x y z
#    x 3.593420 0.000000 0.000000 
#    y 0.000000 3.032520 0.000000 
#    z 0.000000 0.000000 3.123200 
# 
# 
# High freq. dielectric constant tensor:
#      x y z
#    x 1.715780 0.000000 0.000000 
#    y 0.000000 1.667750 0.000000 
#    z 0.000000 0.000000 1.683110 
# 
# From -- ./inp_files/52058.got.cif
#   From: 2010.06.25/outbox.cif.g09.slc.cpg/sg71_27_cif.got.tgz:52058.got - 2010.06.28 04:59:45.
