data_PCOD8289569
_publ_section_title
;
Structure prediction by ZEFSAII (Michael W. Deem and Ramdas Pophale) SiO2 
 PCOD8289569
Probable space group: I M M M
;
_chemical_formula_sum "Si O2"
_cell_formula_units_Z 88
_cell_length_a 28.777022
_cell_length_b 8.900517
_cell_length_c 18.423564
_cell_angle_alpha 90.000000
_cell_angle_beta 90.000000
_cell_angle_gamma 90.000000
_cell_volume 4718.834329
_symmetry_space_group_name_H-M "I M M M"
_symmetry_group_IT_number 71
_symmetry_cell_setting 'orthorhombic'
loop_
_space_group_symop_operation_xyz
x,y,z
-x,-y,z
x,-y,-z
-x,y,-z
-x,-y,-z
x,y,-z
-x,y,z
x,-y,z
1/2+x,1/2+y,1/2+z
1/2-x,1/2-y,1/2+z
1/2+x,1/2-y,1/2-z
1/2-x,1/2+y,1/2-z
1/2-x,1/2-y,1/2-z
1/2+x,1/2+y,1/2-z
1/2-x,1/2+y,1/2+z
1/2+x,1/2-y,1/2+z
loop_
_atom_site_type_symbol
_atom_site_label
_atom_site_fract_x
_atom_site_fract_y
_atom_site_fract_z
Si Si1 0.618059 0.677227 0.706869
Si Si2 0.291085 0.677015 0.920930
Si Si3 0.551951 0.321670 0.419639
Si Si4 0.717299 0.823335 0.308363
Si Si5 0.109957 0.823533 0.630220
Si Si6 0.553902 0.177235 0.000000
O O1 0.625998 0.500000 0.699903
O O2 0.584079 0.742321 0.644663
O O3 0.666648 0.755642 0.693231
O O4 0.596529 0.715066 0.786270
O O5 0.295642 0.500000 0.927348
O O6 0.242365 0.718857 0.883904
O O7 0.336829 0.733952 0.878242
O O8 0.290963 0.753135 0.000000
O O9 0.570109 0.272283 0.500000
O O10 0.500000 0.258483 0.407881
O O11 0.551046 0.500000 0.414861
O O12 0.750000 0.750000 0.250000
O O13 0.714620 0.000000 0.294912
O O14 0.076824 0.740392 0.573433
O O15 0.105140 0.000000 0.614537
O O16 0.500000 0.224211 0.000000
O O17 0.560394 0.000000 0.000000
#
# Coordination Sequence:
#
# PCOD8289569 Si02
#       6
#    16  16  16  16  16   8
#     4  10  20  34  55  85 115 141 181 233 276 326
#     4   9  17  32  53  74  99 137 183 225 261 307
#     4   8  15  30  53  80 111 146 181 224 279 329
#     4  11  21  34  53  78 109 144 180 222 271 323
#     4  10  19  35  58  79 102 141 189 229 270 324
#     4  11  25  41  55  79 115 145 177 231 290 335
#
# _framework density 18.648672999999999
#
# number of rings (size 3 to 8) (size 9 to 14) (size 15 to 20)
#    0.000    2.273    2.727    1.364    0.000    2.909 
#    0.000    1.818    0.000    0.545    0.000    1.273 
#    0.000    0.000    0.000    0.000    0.000    0.000 
#
# Total GULP energy -545336.024857 kJ/mol
# GULP energy per Si atom -12394.000565 kJ/mol
# Density = 1.860623 g / cm^3
# Si number density = 18.648673 Si / 1000 Ang^3
#
#
#
# Elastic Constant Matrix: (Units=GPa)
#
#
# Indices 1 2 3 4 5 6 
#
# 1 139.1083 41.2626 91.2674 0.0000 0.0000 0.0000
# 2 41.2626 42.2558 40.5643 0.0000 0.0000 0.0000
# 3 91.2674 40.5643 180.0312 0.0000 0.0000 0.0000
# 4 0.0000 0.0000 0.0000 15.6550 0.0000 0.0000
# 5 0.0000 0.0000 0.0000 0.0000 36.7250 0.0000
# 6 0.0000 0.0000 0.0000 0.0000 0.0000 27.3249
#
#
#
# Elastic Compliance Matrix: (Units=1/GPa)
#
#
# Indices 1 2 3 4 5 6 
#
# 1 0.012515 -0.007822 -0.004582 0.000000 0.000000 0.000000
# 2 -0.007822 0.035086 -0.003940 0.000000 0.000000 0.000000
# 3 -0.004582 -0.003940 0.008765 0.000000 0.000000 0.000000
# 4 0.000000 0.000000 0.000000 0.063878 0.000000 0.000000
# 5 0.000000 0.000000 0.000000 0.000000 0.027229 0.000000
# 6 0.000000 0.000000 0.000000 0.000000 0.000000 0.036597
#
#
# Mechanical properties :
#
#
# Convention : Reuss Voigt Hill
#
# Bulk Modulus (GPa) = 42.23383 78.62042 60.42713
# Shear Modulus (GPa) = 22.25669 28.49437 25.37553
#
# Velocity S-wave (km/s) = 3.45842 3.91315 3.69279
# Velocity P-wave (km/s) = 6.21641 7.91626 7.11727
#
# Compressibility (1/GPa) = 0.02367770
#
# Stress axis : x y z
#
# Youngs Moduli (GPa) = 79.90290 28.50134 114.08689
#
# Poissons Ratio (x) = 0.22295 0.52276
# Poissons Ratio (y) = 0.62503 0.44950
# Poissons Ratio (z) = 0.36612 0.11229
#
# Static dielectric constant tensor:
#      x y z
#    x 3.304660 0.000000 0.000000 
#    y 0.000000 3.107930 0.000000 
#    z 0.000000 0.000000 3.757940 
# 
# 
# High freq. dielectric constant tensor:
#      x y z
#    x 1.723320 0.000000 0.000000 
#    y 0.000000 1.684930 0.000000 
#    z 0.000000 0.000000 1.742280 
# 
# From -- ./inp_files/49242.got.cif
#   From: 2010.06.25/outbox.cif.g09.slc.cpg/sg71_25_cif.got.tgz:49242.got - 2010.06.28 04:59:45.
