data_PCOD8289382
_publ_section_title
;
Structure prediction by ZEFSAII (Michael W. Deem and Ramdas Pophale) SiO2 
 PCOD8289382
Probable space group: I M M M
;
_chemical_formula_sum "Si O2"
_cell_formula_units_Z 72
_cell_length_a 28.634877
_cell_length_b 15.612706
_cell_length_c 8.661244
_cell_angle_alpha 90.000000
_cell_angle_beta 90.000000
_cell_angle_gamma 90.000000
_cell_volume 3872.164305
_symmetry_space_group_name_H-M "I M M M"
_symmetry_group_IT_number 71
_symmetry_cell_setting 'orthorhombic'
loop_
_space_group_symop_operation_xyz
x,y,z
-x,-y,z
x,-y,-z
-x,y,-z
-x,-y,-z
x,y,-z
-x,y,z
x,-y,z
1/2+x,1/2+y,1/2+z
1/2-x,1/2-y,1/2+z
1/2+x,1/2-y,1/2-z
1/2-x,1/2+y,1/2-z
1/2-x,1/2-y,1/2-z
1/2+x,1/2+y,1/2-z
1/2-x,1/2+y,1/2+z
1/2+x,1/2-y,1/2+z
loop_
_atom_site_type_symbol
_atom_site_label
_atom_site_fract_x
_atom_site_fract_y
_atom_site_fract_z
Si Si1 0.392158 0.500000 0.829558
Si Si2 0.285851 0.682829 0.184666
Si Si3 0.555316 0.824417 0.823283
Si Si4 0.281766 0.500000 0.168376
Si Si5 0.613483 0.323499 0.319010
Si Si6 0.055527 0.500000 0.174408
O O1 0.337148 0.500000 0.848807
O O2 0.407319 0.414133 0.739556
O O3 0.415578 0.500000 0.000000
O O4 0.250000 0.750000 0.250000
O O5 0.268605 0.589509 0.251621
O O6 0.337876 0.703173 0.240040
O O7 0.285646 0.682228 0.000000
O O8 0.500000 0.819721 0.806510
O O9 0.576253 0.749364 0.719541
O O10 0.574201 0.915804 0.762194
O O11 0.571275 0.813313 0.000000
O O12 0.258007 0.500000 0.000000
O O13 0.621732 0.329758 0.500000
O O14 0.000000 0.500000 0.174514
O O15 0.075057 0.500000 0.000000
#
# Coordination Sequence:
#
# PCOD8289382 Si02
#       6
#     8  16  16   8  16   8
#     4   9  17  33  54  75 102 137 174 212 257 312
#     4  10  19  34  54  77 104 136 174 215 259 307
#     4  10  20  35  55  78 105 139 177 216 260 311
#     4   7  14  29  50  71  96 131 166 202 248 303
#     4  11  21  34  54  80 107 137 175 218 262 309
#     4   9  17  31  52  77 104 135 172 214 259 310
#
# _framework density 18.594251
#
# number of rings (size 3 to 8) (size 9 to 14) (size 15 to 20)
#    0.000    2.333    0.000    5.333    0.000    2.667 
#    0.000    3.333    0.000    4.667    0.000    0.000 
#    0.000    0.000    0.000    0.000    0.000    0.000 
#
# Total GULP energy -446210.052191 kJ/mol
# GULP energy per Si atom -12394.723672 kJ/mol
# Density = 1.855193 g / cm^3
# Si number density = 18.594251 Si / 1000 Ang^3
#
#
#
# Elastic Constant Matrix: (Units=GPa)
#
#
# Indices 1 2 3 4 5 6 
#
# 1 32.5419 38.7321 23.0855 0.0000 0.0000 0.0000
# 2 38.7321 168.5014 49.8403 0.0000 0.0000 0.0000
# 3 23.0855 49.8403 112.2966 0.0000 0.0000 0.0000
# 4 0.0000 0.0000 0.0000 36.2173 0.0000 0.0000
# 5 0.0000 0.0000 0.0000 0.0000 25.3896 0.0000
# 6 0.0000 0.0000 0.0000 0.0000 0.0000 28.2960
#
#
#
# Elastic Compliance Matrix: (Units=1/GPa)
#
#
# Indices 1 2 3 4 5 6 
#
# 1 0.044939 -0.008745 -0.005357 0.000000 0.000000 0.000000
# 2 -0.008745 0.008533 -0.001990 0.000000 0.000000 0.000000
# 3 -0.005357 -0.001990 0.010889 0.000000 0.000000 0.000000
# 4 0.000000 0.000000 0.000000 0.027611 0.000000 0.000000
# 5 0.000000 0.000000 0.000000 0.000000 0.039386 0.000000
# 6 0.000000 0.000000 0.000000 0.000000 0.000000 0.035341
#
#
# Mechanical properties :
#
#
# Convention : Reuss Voigt Hill
#
# Bulk Modulus (GPa) = 31.07730 59.62841 45.35285
# Shear Modulus (GPa) = 23.85400 31.42605 27.64003
#
# Velocity S-wave (km/s) = 3.58560 4.11554 3.85968
# Velocity P-wave (km/s) = 5.82166 7.39739 6.65632
#
# Compressibility (1/GPa) = 0.03217783
#
# Stress axis : x y z
#
# Youngs Moduli (GPa) = 22.25260 117.18757 91.83357
#
# Poissons Ratio (x) = 1.02483 0.49195
# Poissons Ratio (y) = 0.19460 0.18270
# Poissons Ratio (z) = 0.11921 0.23315
#
# Static dielectric constant tensor:
#      x y z
#    x 2.953080 0.000000 0.000000 
#    y 0.000000 3.250010 0.000000 
#    z 0.000000 0.000000 3.511080 
# 
# 
# High freq. dielectric constant tensor:
#      x y z
#    x 1.673790 0.000000 0.000000 
#    y 0.000000 1.745290 0.000000 
#    z 0.000000 0.000000 1.727650 
# 
# From -- ./inp_files/6547.got.cif
#   From: 2010.06.25/outbox.cif.g09.slc.cpg/sg71_4_cif.got.tgz:6547.got - 2010.06.28 04:59:45.
