data_PCOD8289376
_publ_section_title
;
Structure prediction by ZEFSAII (Michael W. Deem and Ramdas Pophale) SiO2 
 PCOD8289376
Probable space group: I M M M
;
_chemical_formula_sum "Si O2"
_cell_formula_units_Z 104
_cell_length_a 23.295452
_cell_length_b 25.627824
_cell_length_c 10.194926
_cell_angle_alpha 90.000000
_cell_angle_beta 90.000000
_cell_angle_gamma 90.000000
_cell_volume 6086.490550
_symmetry_space_group_name_H-M "I M M M"
_symmetry_group_IT_number 71
_symmetry_cell_setting 'orthorhombic'
loop_
_space_group_symop_operation_xyz
x,y,z
-x,-y,z
x,-y,-z
-x,y,-z
-x,-y,-z
x,y,-z
-x,y,z
x,-y,z
1/2+x,1/2+y,1/2+z
1/2-x,1/2-y,1/2+z
1/2+x,1/2-y,1/2-z
1/2-x,1/2+y,1/2-z
1/2-x,1/2-y,1/2-z
1/2+x,1/2+y,1/2-z
1/2-x,1/2+y,1/2+z
1/2+x,1/2-y,1/2+z
loop_
_atom_site_type_symbol
_atom_site_label
_atom_site_fract_x
_atom_site_fract_y
_atom_site_fract_z
Si Si1 0.227965 0.939259 0.647254
Si Si2 0.000000 0.736394 0.345220
Si Si3 0.113367 0.898442 0.252880
Si Si4 0.562066 0.500000 0.352100
Si Si5 0.624989 0.214857 0.846864
Si Si6 0.170014 0.199582 0.147092
Si Si7 0.500000 0.350209 0.852855
Si Si8 0.280611 0.864793 0.850993
O O1 0.252401 0.932264 0.500000
O O2 0.165864 0.911344 0.649880
O O3 0.271028 0.912340 0.750744
O O4 0.222528 0.000000 0.684030
O O5 0.941409 0.707119 0.301653
O O6 0.000000 0.739069 0.500000
O O7 0.000000 0.794345 0.277654
O O8 0.129772 0.851431 0.156174
O O9 0.056174 0.884237 0.330173
O O10 0.101009 0.949962 0.171652
O O11 0.500000 0.500000 0.274836
O O12 0.544164 0.500000 0.500000
O O13 0.653884 0.259170 0.758100
O O14 0.656623 0.159730 0.825235
O O15 0.629716 0.232461 0.000000
O O16 0.235498 0.182051 0.171540
O O17 0.162884 0.223058 0.000000
O O18 0.500000 0.331969 0.000000
O O19 0.275305 0.886318 0.000000
#
# Coordination Sequence:
#
# PCOD8289376 Si02
#       8
#    16   8  16   8  16  16   8  16
#     4  10  21  36  54  77 103 132 169 213 263 306
#     4   9  18  32  51  75  99 132 169 205 247 295
#     4  11  20  35  48  68  96 134 176 221 259 303
#     4  11  22  34  46  62  90 136 187 226 267 306
#     4  10  19  34  54  75 102 133 169 207 251 308
#     4  10  20  32  48  72 100 130 169 212 257 302
#     4  11  20  31  49  70  95 134 177 214 258 300
#     4   9  20  35  52  76 102 133 169 207 254 306
#
# _framework density 17.087022000000001
#
# number of rings (size 3 to 8) (size 9 to 14) (size 15 to 20)
#    0.000    1.923    3.077    1.385    0.000    4.000 
#    0.000    1.538    0.000    0.000    0.000    0.538 
#    0.000    4.308    0.000    0.000    0.000    0.000 
#
# Total GULP energy -644463.359262 kJ/mol
# GULP energy per Si atom -12393.526140 kJ/mol
# Density = 1.704813 g / cm^3
# Si number density = 17.087022 Si / 1000 Ang^3
#
#
#
# Elastic Constant Matrix: (Units=GPa)
#
#
# Indices 1 2 3 4 5 6 
#
# 1 96.1524 50.6691 37.7630 0.0000 0.0000 0.0000
# 2 50.6691 73.6406 41.2359 0.0000 0.0000 0.0000
# 3 37.7630 41.2359 86.2363 0.0000 0.0000 0.0000
# 4 0.0000 0.0000 0.0000 22.5004 0.0000 0.0000
# 5 0.0000 0.0000 0.0000 0.0000 10.7497 0.0000
# 6 0.0000 0.0000 0.0000 0.0000 0.0000 33.0643
#
#
#
# Elastic Compliance Matrix: (Units=1/GPa)
#
#
# Indices 1 2 3 4 5 6 
#
# 1 0.016697 -0.010098 -0.002483 0.000000 0.000000 0.000000
# 2 -0.010098 0.024652 -0.007366 0.000000 0.000000 0.000000
# 3 -0.002483 -0.007366 0.016206 0.000000 0.000000 0.000000
# 4 0.000000 0.000000 0.000000 0.044444 0.000000 0.000000
# 5 0.000000 0.000000 0.000000 0.000000 0.093026 0.000000
# 6 0.000000 0.000000 0.000000 0.000000 0.000000 0.030244
#
#
# Mechanical properties :
#
#
# Convention : Reuss Voigt Hill
#
# Bulk Modulus (GPa) = 56.62364 57.26283 56.94323
# Shear Modulus (GPa) = 18.44685 21.68695 20.06690
#
# Velocity S-wave (km/s) = 3.28926 3.56646 3.43066
# Velocity P-wave (km/s) = 6.90188 7.10948 7.00645
#
# Compressibility (1/GPa) = 0.01766047
#
# Stress axis : x y z
#
# Youngs Moduli (GPa) = 59.89260 40.56434 61.70706
#
# Poissons Ratio (x) = 0.40961 0.15321
# Poissons Ratio (y) = 0.60479 0.45454
# Poissons Ratio (z) = 0.14871 0.29880
#
# Static dielectric constant tensor:
#      x y z
#    x 3.370910 0.000000 0.000000 
#    y 0.000000 3.033100 0.000000 
#    z 0.000000 0.000000 3.096500 
# 
# 
# High freq. dielectric constant tensor:
#      x y z
#    x 1.653930 0.000000 0.000000 
#    y 0.000000 1.638220 0.000000 
#    z 0.000000 0.000000 1.650630 
# 
# From -- ./inp_files/13393.got.cif
#   From: 2010.06.25/outbox.cif.g09.slc.cpg/sg71_7_cif.got.tgz:13393.got - 2010.06.28 04:59:45.
