data_PCOD8289121
_publ_section_title
;
Structure prediction by ZEFSAII (Michael W. Deem and Ramdas Pophale) SiO2 
 PCOD8289121
Probable space group: I M M M
;
_chemical_formula_sum "Si O2"
_cell_formula_units_Z 120
_cell_length_a 7.721410
_cell_length_b 25.827786
_cell_length_c 28.908058
_cell_angle_alpha 90.000000
_cell_angle_beta 90.000000
_cell_angle_gamma 90.000000
_cell_volume 5765.045118
_symmetry_space_group_name_H-M "I M M M"
_symmetry_group_IT_number 71
_symmetry_cell_setting 'orthorhombic'
loop_
_space_group_symop_operation_xyz
x,y,z
-x,-y,z
x,-y,-z
-x,y,-z
-x,-y,-z
x,y,-z
-x,y,z
x,-y,z
1/2+x,1/2+y,1/2+z
1/2-x,1/2-y,1/2+z
1/2+x,1/2-y,1/2-z
1/2-x,1/2+y,1/2-z
1/2-x,1/2-y,1/2-z
1/2+x,1/2+y,1/2-z
1/2-x,1/2+y,1/2+z
1/2+x,1/2-y,1/2+z
loop_
_atom_site_type_symbol
_atom_site_label
_atom_site_fract_x
_atom_site_fract_y
_atom_site_fract_z
Si Si1 0.295945 0.646429 0.192576
Si Si2 0.705594 0.443682 0.356473
Si Si3 0.000000 0.561024 0.051587
Si Si4 0.700432 0.395605 0.449393
Si Si5 0.200028 0.939847 0.379624
Si Si6 0.695880 0.218300 0.049831
Si Si7 0.205706 0.250503 0.352825
Si Si8 0.202958 0.148888 0.204526
O O1 0.500000 0.653216 0.196117
O O2 0.248831 0.593815 0.165325
O O3 0.219312 0.696461 0.166214
O O4 0.214939 0.645619 0.244060
O O5 0.500000 0.443155 0.352144
O O6 0.777732 0.500000 0.340978
O O7 0.761026 0.435198 0.409851
O O8 0.786544 0.398099 0.325034
O O9 0.825173 0.577938 0.078546
O O10 0.000000 0.500000 0.046580
O O11 0.000000 0.586068 0.000000
O O12 0.732527 0.420969 0.500000
O O13 0.500000 0.380437 0.442748
O O14 0.808155 0.343295 0.444046
O O15 0.000000 0.929865 0.394478
O O16 0.229687 0.000000 0.366695
O O17 0.500000 0.238371 0.047741
O O18 0.786675 0.242752 0.095396
O O19 0.786331 0.232898 0.000000
O O20 0.261255 0.296149 0.318656
O O21 0.000000 0.250685 0.356083
O O22 0.000000 0.140060 0.207855
#
# Coordination Sequence:
#
# PCOD8289121 Si02
#       8
#    16  16   8  16  16  16  16  16
#     4   9  19  34  52  77 105 135 176 220 263 316
#     4   9  17  28  44  69  97 125 161 207 257 305
#     4   9  18  34  58  88 120 150 184 228 276 332
#     4   9  16  27  45  66  89 120 158 201 246 294
#     4   9  18  35  58  83 114 152 191 229 275 332
#     4   9  17  29  47  68  91 126 164 197 247 309
#     4  10  19  33  51  72 102 131 168 218 264 317
#     4  10  19  33  51  72 100 133 174 219 265 318
#
# _framework density 20.815102
#
# number of rings (size 3 to 8) (size 9 to 14) (size 15 to 20)
#    0.000    2.733    1.333    0.400    0.000    1.067 
#    2.400    6.000    0.000    4.000    0.000    1.867 
#    0.000    0.000    0.000    0.000    0.000    0.000 
#
# Total GULP energy -743487.633199 kJ/mol
# GULP energy per Si atom -12391.460553 kJ/mol
# Density = 2.076773 g / cm^3
# Si number density = 20.815102 Si / 1000 Ang^3
#
#
#
# Elastic Constant Matrix: (Units=GPa)
#
#
# Indices 1 2 3 4 5 6 
#
# 1 38.3525 10.2150 28.9497 0.0000 0.0000 0.0000
# 2 10.2150 130.2894 87.1045 0.0000 0.0000 0.0000
# 3 28.9497 87.1045 204.9241 0.0000 0.0000 0.0000
# 4 0.0000 0.0000 0.0000 24.2178 0.0000 0.0000
# 5 0.0000 0.0000 0.0000 0.0000 15.6188 0.0000
# 6 0.0000 0.0000 0.0000 0.0000 0.0000 16.4353
#
#
#
# Elastic Compliance Matrix: (Units=1/GPa)
#
#
# Indices 1 2 3 4 5 6 
#
# 1 0.029226 0.000655 -0.004407 0.000000 0.000000 0.000000
# 2 0.000655 0.010737 -0.004656 0.000000 0.000000 0.000000
# 3 -0.004407 -0.004656 0.007482 0.000000 0.000000 0.000000
# 4 0.000000 0.000000 0.000000 0.041292 0.000000 0.000000
# 5 0.000000 0.000000 0.000000 0.000000 0.064025 0.000000
# 6 0.000000 0.000000 0.000000 0.000000 0.000000 0.060845
#
#
# Mechanical properties :
#
#
# Convention : Reuss Voigt Hill
#
# Bulk Modulus (GPa) = 32.65021 69.56714 51.10867
# Shear Modulus (GPa) = 20.77854 27.74083 24.25968
#
# Velocity S-wave (km/s) = 3.16293 3.65461 3.41762
# Velocity P-wave (km/s) = 5.39061 7.16256 6.33881
#
# Compressibility (1/GPa) = 0.03062768
#
# Stress axis : x y z
#
# Youngs Moduli (GPa) = 34.21589 93.13751 133.66027
#
# Poissons Ratio (x) = -0.06101 0.58907
# Poissons Ratio (y) = -0.02241 0.62236
# Poissons Ratio (z) = 0.15080 0.43368
#
# Static dielectric constant tensor:
#      x y z
#    x 3.462520 0.000000 0.000000 
#    y 0.000000 3.710620 0.000000 
#    z 0.000000 0.000000 4.309480 
# 
# 
# High freq. dielectric constant tensor:
#      x y z
#    x 1.783770 0.000000 0.000000 
#    y 0.000000 1.794810 0.000000 
#    z 0.000000 0.000000 1.826690 
# 
# From -- ./inp_files/63757.got.cif
#   From: 2010.06.25/outbox.cif.g09.slc.cpg/sg71_32_cif.got.tgz:63757.got - 2010.06.28 04:59:45.
