data_PCOD8289653
_publ_section_title
;
Structure prediction by ZEFSAII (Michael W. Deem and Ramdas Pophale) SiO2 
 PCOD8289653
Probable space group: I M M M
;
_chemical_formula_sum "Si O2"
_cell_formula_units_Z 72
_cell_length_a 20.273911
_cell_length_b 21.476396
_cell_length_c 8.667275
_cell_angle_alpha 90.000000
_cell_angle_beta 90.000000
_cell_angle_gamma 90.000000
_cell_volume 3773.822898
_symmetry_space_group_name_H-M "I M M M"
_symmetry_group_IT_number 71
_symmetry_cell_setting 'orthorhombic'
loop_
_space_group_symop_operation_xyz
x,y,z
-x,-y,z
x,-y,-z
-x,y,-z
-x,-y,-z
x,y,-z
-x,y,z
x,-y,z
1/2+x,1/2+y,1/2+z
1/2-x,1/2-y,1/2+z
1/2+x,1/2-y,1/2-z
1/2-x,1/2+y,1/2-z
1/2-x,1/2-y,1/2-z
1/2+x,1/2+y,1/2-z
1/2-x,1/2+y,1/2+z
1/2+x,1/2-y,1/2+z
loop_
_atom_site_type_symbol
_atom_site_label
_atom_site_fract_x
_atom_site_fract_y
_atom_site_fract_z
Si Si1 0.500000 0.842203 0.815986
Si Si2 0.500000 0.293442 0.318674
Si Si3 0.115712 0.568691 0.316733
Si Si4 0.386164 0.375105 0.180660
Si Si5 0.573970 0.500000 0.668133
Si Si6 0.236923 0.072037 0.819453
O O1 0.500000 0.778096 0.726848
O O2 0.435736 0.879979 0.758587
O O3 0.500000 0.831922 0.000000
O O4 0.500000 0.302646 0.500000
O O5 0.432143 0.322581 0.255406
O O6 0.117088 0.567717 0.500000
O O7 0.094085 0.500000 0.257859
O O8 0.189323 0.583541 0.254719
O O9 0.414321 0.441316 0.225512
O O10 0.310355 0.376506 0.239920
O O11 0.387542 0.363627 0.000000
O O12 0.500000 0.500000 0.615596
O O13 0.613123 0.500000 0.500000
O O14 0.214244 0.000000 0.783214
O O15 0.235387 0.084669 0.000000
#
# Coordination Sequence:
#
# PCOD8289653 Si02
#       6
#     8   8  16  16   8  16
#     4  10  19  36  61  87 114 141 186 239 275 319
#     4  12  26  42  56  73 106 153 197 229 280 338
#     4   8  15  30  58  93 119 144 177 221 277 336
#     4  12  23  35  54  81 111 144 189 237 277 314
#     4  11  21  33  53  79 110 147 182 221 278 334
#     4   9  17  31  53  82 118 152 181 216 274 339
#
# _framework density 19.078796000000001
#
# number of rings (size 3 to 8) (size 9 to 14) (size 15 to 20)
#    0.000    1.889    2.222    5.000    0.000    1.778 
#    0.000    2.222    0.000    2.667    0.000    0.000 
#    0.000    0.000    0.000    0.000    0.000    0.000 
#
# Total GULP energy -446126.280244 kJ/mol
# GULP energy per Si atom -12392.396673 kJ/mol
# Density = 1.903537 g / cm^3
# Si number density = 19.078796 Si / 1000 Ang^3
#
#
#
# Elastic Constant Matrix: (Units=GPa)
#
#
# Indices 1 2 3 4 5 6 
#
# 1 147.2847 75.9984 46.0537 0.0000 0.0000 0.0000
# 2 75.9984 118.9356 40.1683 0.0000 0.0000 0.0000
# 3 46.0537 40.1683 96.4723 0.0000 0.0000 0.0000
# 4 0.0000 0.0000 0.0000 23.4588 0.0000 0.0000
# 5 0.0000 0.0000 0.0000 0.0000 12.7347 0.0000
# 6 0.0000 0.0000 0.0000 0.0000 0.0000 13.0656
#
#
#
# Elastic Compliance Matrix: (Units=1/GPa)
#
#
# Indices 1 2 3 4 5 6 
#
# 1 0.010671 -0.005933 -0.002624 0.000000 0.000000 0.000000
# 2 -0.005933 0.013082 -0.002615 0.000000 0.000000 0.000000
# 3 -0.002624 -0.002615 0.012707 0.000000 0.000000 0.000000
# 4 0.000000 0.000000 0.000000 0.042628 0.000000 0.000000
# 5 0.000000 0.000000 0.000000 0.000000 0.078526 0.000000
# 6 0.000000 0.000000 0.000000 0.000000 0.000000 0.076537
#
#
# Mechanical properties :
#
#
# Convention : Reuss Voigt Hill
#
# Bulk Modulus (GPa) = 70.83530 76.34815 73.59173
# Shear Modulus (GPa) = 19.14248 23.21663 21.17956
#
# Velocity S-wave (km/s) = 3.17099 3.49217 3.33545
# Velocity P-wave (km/s) = 7.11444 7.50763 7.31368
#
# Compressibility (1/GPa) = 0.01411725
#
# Stress axis : x y z
#
# Youngs Moduli (GPa) = 93.70961 76.44166 78.69624
#
# Poissons Ratio (x) = 0.45350 0.20650
# Poissons Ratio (y) = 0.55594 0.20578
# Poissons Ratio (z) = 0.24590 0.19988
#
# Static dielectric constant tensor:
#      x y z
#    x 4.134080 0.000000 0.000000 
#    y 0.000000 3.319250 0.000000 
#    z 0.000000 0.000000 3.179610 
# 
# 
# High freq. dielectric constant tensor:
#      x y z
#    x 1.764520 0.000000 0.000000 
#    y 0.000000 1.714030 0.000000 
#    z 0.000000 0.000000 1.718660 
# 
# From -- ./inp_files/9996.got.cif
#   From: 2010.06.25/outbox.cif.g09.slc.cpg/sg71_5_cif.got.tgz:9996.got - 2010.06.28 04:59:45.
