data_PCOD8289823
_publ_section_title
;
Structure prediction by ZEFSAII (Michael W. Deem and Ramdas Pophale) SiO2 
 PCOD8289823
Probable space group: I M M M
;
_chemical_formula_sum "Si O2"
_cell_formula_units_Z 120
_cell_length_a 26.103558
_cell_length_b 19.053896
_cell_length_c 13.271417
_cell_angle_alpha 90.000000
_cell_angle_beta 90.000000
_cell_angle_gamma 90.000000
_cell_volume 6600.864121
_symmetry_space_group_name_H-M "I M M M"
_symmetry_group_IT_number 71
_symmetry_cell_setting 'orthorhombic'
loop_
_space_group_symop_operation_xyz
x,y,z
-x,-y,z
x,-y,-z
-x,y,-z
-x,-y,-z
x,y,-z
-x,y,z
x,-y,z
1/2+x,1/2+y,1/2+z
1/2-x,1/2-y,1/2+z
1/2+x,1/2-y,1/2-z
1/2-x,1/2+y,1/2-z
1/2-x,1/2-y,1/2-z
1/2+x,1/2+y,1/2-z
1/2-x,1/2+y,1/2+z
1/2+x,1/2-y,1/2+z
loop_
_atom_site_type_symbol
_atom_site_label
_atom_site_fract_x
_atom_site_fract_y
_atom_site_fract_z
Si Si1 0.734995 0.175360 0.712661
Si Si2 0.266737 0.078281 0.890707
Si Si3 0.665987 0.330571 0.114965
Si Si4 0.404787 0.582451 0.242439
Si Si5 0.388424 0.922028 0.112842
Si Si6 0.124535 0.703046 0.745671
Si Si7 0.560538 0.697182 0.382738
Si Si8 0.500000 0.582963 0.888950
O O1 0.750000 0.250000 0.750000
O O2 0.754985 0.124117 0.800745
O O3 0.771702 0.162011 0.616259
O O4 0.673832 0.171571 0.692343
O O5 0.327595 0.079005 0.889237
O O6 0.245456 0.000000 0.875812
O O7 0.248092 0.107395 0.000000
O O8 0.645802 0.395668 0.181727
O O9 0.645218 0.257590 0.161795
O O10 0.647299 0.335746 0.000000
O O11 0.404875 0.500000 0.266895
O O12 0.412447 0.624843 0.346634
O O13 0.450443 0.608313 0.170371
O O14 0.405814 0.860732 0.190043
O O15 0.407206 0.000000 0.148130
O O16 0.409684 0.906960 0.000000
O O17 0.084967 0.737389 0.823073
O O18 0.572793 0.706562 0.500000
O O19 0.500000 0.694773 0.362323
O O20 0.500000 0.500000 0.898078
O O21 0.500000 0.617419 0.000000
#
# Coordination Sequence:
#
# PCOD8289823 Si02
#       8
#    16  16  16  16  16  16  16   8
#     4   9  18  30  45  70 100 135 173 208 249 305
#     4   8  14  26  45  68  93 122 159 205 250 290
#     4  10  20  32  47  69 101 140 176 211 255 310
#     4  10  20  35  53  76 104 134 174 220 264 310
#     4   8  13  24  48  79 103 125 157 197 246 305
#     4   9  18  33  52  74 102 134 170 214 263 314
#     4  10  21  37  57  79 102 133 176 225 274 316
#     4   9  16  28  49  73  97 129 167 206 248 297
#
# _framework density 18.179438000000001
#
# number of rings (size 3 to 8) (size 9 to 14) (size 15 to 20)
#    0.000    2.867    0.667    1.600    0.000    5.333 
#    0.000    6.000    0.000    0.800    0.000    5.600 
#    0.000    0.000    0.000    0.000    0.000    0.000 
#
# Total GULP energy -743407.073952 kJ/mol
# GULP energy per Si atom -12390.117899 kJ/mol
# Density = 1.813806 g / cm^3
# Si number density = 18.179438 Si / 1000 Ang^3
#
#
#
# Elastic Constant Matrix: (Units=GPa)
#
#
# Indices 1 2 3 4 5 6 
#
# 1 56.5224 24.4503 33.2293 0.0000 0.0000 0.0000
# 2 24.4503 112.4285 58.4274 0.0000 0.0000 0.0000
# 3 33.2293 58.4274 109.6148 0.0000 0.0000 0.0000
# 4 0.0000 0.0000 0.0000 27.0768 0.0000 0.0000
# 5 0.0000 0.0000 0.0000 0.0000 24.7730 0.0000
# 6 0.0000 0.0000 0.0000 0.0000 0.0000 19.1522
#
#
#
# Elastic Compliance Matrix: (Units=1/GPa)
#
#
# Indices 1 2 3 4 5 6 
#
# 1 0.021791 -0.001806 -0.005643 0.000000 0.000000 0.000000
# 2 -0.001806 0.012452 -0.006090 0.000000 0.000000 0.000000
# 3 -0.005643 -0.006090 0.014079 0.000000 0.000000 0.000000
# 4 0.000000 0.000000 0.000000 0.036932 0.000000 0.000000
# 5 0.000000 0.000000 0.000000 0.000000 0.040367 0.000000
# 6 0.000000 0.000000 0.000000 0.000000 0.000000 0.052213
#
#
# Mechanical properties :
#
#
# Convention : Reuss Voigt Hill
#
# Bulk Modulus (GPa) = 47.07121 56.75329 51.91225
# Shear Modulus (GPa) = 23.58558 25.03098 24.30828
#
# Velocity S-wave (km/s) = 3.60582 3.71466 3.66065
# Velocity P-wave (km/s) = 6.57911 7.04872 6.81796
#
# Compressibility (1/GPa) = 0.02124441
#
# Stress axis : x y z
#
# Youngs Moduli (GPa) = 45.89053 80.30774 71.02547
#
# Poissons Ratio (x) = 0.14507 0.40080
# Poissons Ratio (y) = 0.08290 0.43252
# Poissons Ratio (z) = 0.25896 0.48905
#
# Static dielectric constant tensor:
#      x y z
#    x 3.452840 0.000000 0.000000 
#    y 0.000000 3.512030 0.000000 
#    z 0.000000 0.000000 3.254100 
# 
# 
# High freq. dielectric constant tensor:
#      x y z
#    x 1.680600 0.000000 0.000000 
#    y 0.000000 1.700780 0.000000 
#    z 0.000000 0.000000 1.691050 
# 
# From -- ./inp_files/29165.got.cif
#   From: 2010.06.25/outbox.cif.g09.slc.cpg/sg71_15_cif.got.tgz:29165.got - 2010.06.28 04:59:45.
