data_PCOD8289755
_publ_section_title
;
Structure prediction by ZEFSAII (Michael W. Deem and Ramdas Pophale) SiO2 
 PCOD8289755
Probable space group: I M M M
;
_chemical_formula_sum "Si O2"
_cell_formula_units_Z 120
_cell_length_a 24.254449
_cell_length_b 9.220898
_cell_length_c 29.805031
_cell_angle_alpha 90.000000
_cell_angle_beta 90.000000
_cell_angle_gamma 90.000000
_cell_volume 6665.829620
_symmetry_space_group_name_H-M "I M M M"
_symmetry_group_IT_number 71
_symmetry_cell_setting 'orthorhombic'
loop_
_space_group_symop_operation_xyz
x,y,z
-x,-y,z
x,-y,-z
-x,y,-z
-x,-y,-z
x,y,-z
-x,y,z
x,-y,z
1/2+x,1/2+y,1/2+z
1/2-x,1/2-y,1/2+z
1/2+x,1/2-y,1/2-z
1/2-x,1/2+y,1/2-z
1/2-x,1/2-y,1/2-z
1/2+x,1/2+y,1/2-z
1/2-x,1/2+y,1/2+z
1/2+x,1/2-y,1/2+z
loop_
_atom_site_type_symbol
_atom_site_label
_atom_site_fract_x
_atom_site_fract_y
_atom_site_fract_z
Si Si1 0.563084 0.833908 0.750698
Si Si2 0.565313 0.831368 0.000000
Si Si3 0.747243 0.665148 0.296191
Si Si4 0.368933 0.672416 0.075934
Si Si5 0.754754 0.668981 0.948491
Si Si6 0.366512 0.167007 0.165723
Si Si7 0.561174 0.668711 0.660920
Si Si8 0.826178 0.169591 0.876974
O O1 0.500000 0.812308 0.764801
O O2 0.599956 0.776219 0.791371
O O3 0.578229 0.745799 0.706629
O O4 0.577232 0.000000 0.740159
O O5 0.588756 0.751898 0.043498
O O6 0.500000 0.814453 0.000000
O O7 0.582942 0.000000 0.000000
O O8 0.736693 0.500000 0.282495
O O9 0.750000 0.750000 0.250000
O O10 0.802371 0.684136 0.324658
O O11 0.699251 0.722764 0.329352
O O12 0.376790 0.500000 0.072160
O O13 0.306920 0.719958 0.063267
O O14 0.383144 0.727615 0.125454
O O15 0.760877 0.500000 0.938679
O O16 0.800039 0.749703 0.918946
O O17 0.767178 0.706966 0.000000
O O18 0.381716 0.000000 0.154191
O O19 0.500000 0.719021 0.644135
O O20 0.560905 0.500000 0.671984
O O21 0.608000 0.703669 0.623820
O O22 0.813820 0.000000 0.883106
#
# Coordination Sequence:
#
# PCOD8289755 Si02
#       8
#    16   8  16  16  16  16  16  16
#     4   9  18  32  50  72 101 141 186 224 260 311
#     4  11  25  43  63  85 109 143 184 225 274 329
#     4  10  20  31  46  72 106 142 180 223 269 322
#     4  11  22  38  59  82 109 141 179 227 277 324
#     4  10  21  38  58  82 110 139 174 220 276 330
#     4  10  20  34  50  73 107 144 181 224 273 324
#     4   9  18  33  53  77 108 142 177 222 268 313
#     4  10  20  34  53  80 108 138 181 221 264 328
#
# _framework density 18.002261000000001
#
# number of rings (size 3 to 8) (size 9 to 14) (size 15 to 20)
#    0.000    2.067    2.000    1.400    0.000    4.000 
#    0.000    1.333    0.000    0.400    0.000    2.800 
#    0.000    0.000    0.000    0.000    0.000    0.000 
#
# Total GULP energy -744033.871996 kJ/mol
# GULP energy per Si atom -12400.564533 kJ/mol
# Density = 1.796129 g / cm^3
# Si number density = 18.002261 Si / 1000 Ang^3
#
#
#
# Elastic Constant Matrix: (Units=GPa)
#
#
# Indices 1 2 3 4 5 6 
#
# 1 107.8922 42.5694 52.5951 0.0000 0.0000 0.0000
# 2 42.5694 63.2091 47.5263 0.0000 0.0000 0.0000
# 3 52.5951 47.5263 95.5801 0.0000 0.0000 0.0000
# 4 0.0000 0.0000 0.0000 36.2383 0.0000 0.0000
# 5 0.0000 0.0000 0.0000 0.0000 28.9639 0.0000
# 6 0.0000 0.0000 0.0000 0.0000 0.0000 23.4537
#
#
#
# Elastic Compliance Matrix: (Units=1/GPa)
#
#
# Indices 1 2 3 4 5 6 
#
# 1 0.013862 -0.005750 -0.004769 0.000000 0.000000 0.000000
# 2 -0.005750 0.027652 -0.010586 0.000000 0.000000 0.000000
# 3 -0.004769 -0.010586 0.018350 0.000000 0.000000 0.000000
# 4 0.000000 0.000000 0.000000 0.027595 0.000000 0.000000
# 5 0.000000 0.000000 0.000000 0.000000 0.034526 0.000000
# 6 0.000000 0.000000 0.000000 0.000000 0.000000 0.042637
#
#
# Mechanical properties :
#
#
# Convention : Reuss Voigt Hill
#
# Bulk Modulus (GPa) = 56.63983 61.34035 58.99009
# Shear Modulus (GPa) = 23.50549 25.99721 24.75135
#
# Velocity S-wave (km/s) = 3.61736 3.80427 3.71199
# Velocity P-wave (km/s) = 6.99843 7.31056 7.15619
#
# Compressibility (1/GPa) = 0.01765542
#
# Stress axis : x y z
#
# Youngs Moduli (GPa) = 72.14064 36.16338 54.49547
#
# Poissons Ratio (x) = 0.20794 0.25987
# Poissons Ratio (y) = 0.41481 0.57688
# Poissons Ratio (z) = 0.34401 0.38282
#
# Static dielectric constant tensor:
#      x y z
#    x 3.521390 0.000000 0.000000 
#    y 0.000000 3.321200 0.000000 
#    z 0.000000 0.000000 3.213620 
# 
# 
# High freq. dielectric constant tensor:
#      x y z
#    x 1.702930 0.000000 0.000000 
#    y 0.000000 1.694030 0.000000 
#    z 0.000000 0.000000 1.687250 
# 
# From -- ./inp_files/67207.got.cif
#   From: 2010.06.25/outbox.cif.g09.slc.cpg/sg71_34_cif.got.tgz:67207.got - 2010.06.28 04:59:45.
