data_PCOD8289663
_publ_section_title
;
Structure prediction by ZEFSAII (Michael W. Deem and Ramdas Pophale) SiO2 
 PCOD8289663
Probable space group: I M M M
;
_chemical_formula_sum "Si O2"
_cell_formula_units_Z 88
_cell_length_a 14.046567
_cell_length_b 27.873224
_cell_length_c 11.682546
_cell_angle_alpha 90.000000
_cell_angle_beta 90.000000
_cell_angle_gamma 90.000000
_cell_volume 4573.986724
_symmetry_space_group_name_H-M "I M M M"
_symmetry_group_IT_number 71
_symmetry_cell_setting 'orthorhombic'
loop_
_space_group_symop_operation_xyz
x,y,z
-x,-y,z
x,-y,-z
-x,y,-z
-x,-y,-z
x,y,-z
-x,y,z
x,-y,z
1/2+x,1/2+y,1/2+z
1/2-x,1/2-y,1/2+z
1/2+x,1/2-y,1/2-z
1/2-x,1/2+y,1/2-z
1/2-x,1/2-y,1/2-z
1/2+x,1/2+y,1/2-z
1/2-x,1/2+y,1/2+z
1/2+x,1/2-y,1/2+z
loop_
_atom_site_type_symbol
_atom_site_label
_atom_site_fract_x
_atom_site_fract_y
_atom_site_fract_z
Si Si1 0.675420 0.445060 0.000000
Si Si2 0.391421 0.555467 0.752369
Si Si3 0.789408 0.141781 0.135578
Si Si4 0.854859 0.769170 0.739336
Si Si5 0.198147 0.366405 0.000000
Si Si6 0.894268 0.812014 0.500000
Si Si7 0.603797 0.167074 0.269721
O O1 0.616390 0.430925 0.113680
O O2 0.698341 0.500000 0.000000
O O3 0.782836 0.423106 0.000000
O O4 0.500000 0.563998 0.713415
O O5 0.361760 0.500000 0.730346
O O6 0.322145 0.589596 0.679094
O O7 0.862411 0.182026 0.185993
O O8 0.680414 0.152152 0.173513
O O9 0.794312 0.143572 0.000000
O O10 0.750000 0.750000 0.750000
O O11 0.884263 0.778290 0.609571
O O12 0.916531 0.724235 0.781899
O O13 0.141289 0.350294 0.109165
O O14 0.309487 0.350130 0.000000
O O15 0.000000 0.835954 0.500000
O O16 0.500000 0.143571 0.243331
#
# Coordination Sequence:
#
# PCOD8289663 Si02
#       7
#     8  16  16  16   8   8  16
#     4  10  19  36  64  92 118 149 189 243 299 350
#     4  10  21  39  64  93 123 156 194 239 299 365
#     4  11  24  40  61  86 122 162 201 246 296 353
#     4  10  22  38  59  84 121 156 201 249 296 342
#     4  12  21  40  60  91 122 157 190 251 304 358
#     4  12  22  37  63  87 115 159 204 246 300 358
#     4  11  24  40  61  86 119 161 205 249 299 353
#
# _framework density 19.239232999999999
#
# number of rings (size 3 to 8) (size 9 to 14) (size 15 to 20)
#    0.000    1.273    5.455    1.091    6.364    5.818 
#    0.000    0.909    0.000    2.727    0.000    1.273 
#    0.000    0.000    0.000    0.000    0.000    0.000 
#
# Total GULP energy -545241.207700 kJ/mol
# GULP energy per Si atom -12391.845630 kJ/mol
# Density = 1.919544 g / cm^3
# Si number density = 19.239233 Si / 1000 Ang^3
#
#
#
# Elastic Constant Matrix: (Units=GPa)
#
#
# Indices 1 2 3 4 5 6 
#
# 1 122.6713 45.3099 43.0172 0.0000 0.0001 0.0000
# 2 45.3099 87.2516 46.5049 0.0001 -0.0001 0.0000
# 3 43.0172 46.5049 140.5929 -0.0020 0.0026 0.0000
# 4 0.0000 0.0001 -0.0020 21.6546 0.0014 0.0000
# 5 0.0001 -0.0001 0.0026 0.0014 73.2120 0.0002
# 6 0.0000 0.0000 0.0000 0.0000 0.0002 17.0577
#
#
#
# Elastic Compliance Matrix: (Units=1/GPa)
#
#
# Indices 1 2 3 4 5 6 
#
# 1 0.010409 -0.004502 -0.001696 0.000000 0.000000 0.000000
# 2 -0.004502 0.015861 -0.003869 0.000000 0.000000 0.000000
# 3 -0.001696 -0.003869 0.008911 0.000001 0.000000 0.000000
# 4 0.000000 0.000000 0.000001 0.046180 -0.000001 0.000000
# 5 0.000000 0.000000 0.000000 -0.000001 0.013659 0.000000
# 6 0.000000 0.000000 0.000000 0.000000 0.000000 0.058624
#
#
# Mechanical properties :
#
#
# Convention : Reuss Voigt Hill
#
# Bulk Modulus (GPa) = 66.45184 68.90885 67.68035
# Shear Modulus (GPa) = 27.96512 36.76379 32.36446
#
# Velocity S-wave (km/s) = 3.81668 4.37610 4.10593
# Velocity P-wave (km/s) = 7.35102 7.83762 7.59821
#
# Compressibility (1/GPa) = 0.01504849
#
# Stress axis : x y z
#
# Youngs Moduli (GPa) = 96.06798 63.04758 112.21543
#
# Poissons Ratio (x) = 0.28382 0.19030
# Poissons Ratio (y) = 0.43246 0.43417
# Poissons Ratio (z) = 0.16292 0.24394
#
# Static dielectric constant tensor:
#      x y z
#    x 3.774790 0.000000 0.000000 
#    y 0.000000 3.902190 0.000000 
#    z 0.000000 0.000000 3.652720 
# 
# 
# High freq. dielectric constant tensor:
#      x y z
#    x 1.744330 0.000000 0.000000 
#    y 0.000000 1.749780 0.000000 
#    z 0.000000 0.000000 1.746200 
# 
# From -- ./inp_files/22357.got.cif
#   From: 2010.06.25/outbox.cif.g09.slc.cpg/sg71_12_cif.got.tgz:22357.got - 2010.06.28 04:59:45.
