data_PCOD8289067
_publ_section_title
;
Structure prediction by ZEFSAII (Michael W. Deem and Ramdas Pophale) SiO2 
 PCOD8289067
Probable space group: I M M M
;
_chemical_formula_sum "Si O2"
_cell_formula_units_Z 88
_cell_length_a 13.097168
_cell_length_b 18.252505
_cell_length_c 18.062346
_cell_angle_alpha 90.000000
_cell_angle_beta 90.000000
_cell_angle_gamma 90.000000
_cell_volume 4317.914432
_symmetry_space_group_name_H-M "I M M M"
_symmetry_group_IT_number 71
_symmetry_cell_setting 'orthorhombic'
loop_
_space_group_symop_operation_xyz
x,y,z
-x,-y,z
x,-y,-z
-x,y,-z
-x,-y,-z
x,y,-z
-x,y,z
x,-y,z
1/2+x,1/2+y,1/2+z
1/2-x,1/2-y,1/2+z
1/2+x,1/2-y,1/2-z
1/2-x,1/2+y,1/2-z
1/2-x,1/2-y,1/2-z
1/2+x,1/2+y,1/2-z
1/2-x,1/2+y,1/2+z
1/2+x,1/2-y,1/2+z
loop_
_atom_site_type_symbol
_atom_site_label
_atom_site_fract_x
_atom_site_fract_y
_atom_site_fract_z
Si Si1 0.796774 0.417139 0.341757
Si Si2 0.383864 0.889434 0.000000
Si Si3 0.383847 0.625064 0.249328
Si Si4 0.111987 0.583615 0.000000
Si Si5 0.744342 0.645173 0.878153
Si Si6 0.887158 0.295073 0.238304
Si Si7 0.387103 0.717681 0.000000
O O1 0.821417 0.500000 0.313636
O O2 0.819418 0.415460 0.429043
O O3 0.677132 0.398930 0.323524
O O4 0.865094 0.355986 0.301035
O O5 0.392979 0.803561 0.000000
O O6 0.500000 0.922324 0.000000
O O7 0.500000 0.595835 0.254949
O O8 0.323225 0.593068 0.177069
O O9 0.380472 0.712154 0.232592
O O10 0.177773 0.598978 0.927065
O O11 0.086011 0.500000 0.000000
O O12 0.000000 0.624387 0.000000
O O13 0.810142 0.701262 0.829615
O O14 0.669480 0.692988 0.926899
O O15 0.000000 0.311128 0.208361
O O16 0.500000 0.682855 0.000000
#
# Coordination Sequence:
#
# PCOD8289067 Si02
#       7
#    16   8  16   8  16  16   8
#     4  11  23  37  55  82 115 148 183 225 275 330
#     4  11  22  37  57  81 112 147 181 221 273 332
#     4  10  21  39  61  83 110 145 187 233 276 323
#     4  10  22  38  53  75 111 150 183 220 272 330
#     4  10  19  33  56  83 110 138 179 228 274 324
#     4  10  20  36  59  85 111 142 182 229 280 330
#     4  10  19  32  55  83 109 141 179 221 270 322
#
# _framework density 20.380210000000002
#
# number of rings (size 3 to 8) (size 9 to 14) (size 15 to 20)
#    0.000    1.727    0.000    6.273    0.000    8.000 
#    0.000    0.455    0.000   13.636    0.000    0.000 
#    0.000    0.000    0.000    0.000    0.000    0.000 
#
# Total GULP energy -545257.632709 kJ/mol
# GULP energy per Si atom -12392.218925 kJ/mol
# Density = 2.033382 g / cm^3
# Si number density = 20.380210 Si / 1000 Ang^3
#
#
#
# Elastic Constant Matrix: (Units=GPa)
#
#
# Indices 1 2 3 4 5 6 
#
# 1 190.5252 19.8091 79.7382 0.0000 0.0000 0.0000
# 2 19.8091 77.1032 21.0526 0.0000 0.0000 0.0000
# 3 79.7382 21.0526 137.5995 0.0000 0.0000 0.0000
# 4 0.0000 0.0000 0.0000 -263.8050 0.0000 0.0000
# 5 0.0000 0.0000 0.0000 0.0000 -18.4400 0.0000
# 6 0.0000 0.0000 0.0000 0.0000 0.0000 9.0796
#
#
#
# Elastic Compliance Matrix: (Units=1/GPa)
#
#
# Indices 1 2 3 4 5 6 
#
# 1 0.006967 -0.000718 -0.003928 0.000000 0.000000 0.000000
# 2 -0.000718 0.013609 -0.001666 0.000000 0.000000 0.000000
# 3 -0.003928 -0.001666 0.009798 0.000000 0.000000 0.000000
# 4 0.000000 0.000000 0.000000 -0.003791 0.000000 0.000000
# 5 0.000000 0.000000 0.000000 0.000000 -0.054230 0.000000
# 6 0.000000 0.000000 0.000000 0.000000 0.000000 0.110137
#
#
# Mechanical properties :
#
#
# Convention : Reuss Voigt Hill
#
# Bulk Modulus (GPa) = 56.33328 71.82530 64.07929
# Shear Modulus (GPa) = 49.48978 -35.65788 6.91595
#
# Velocity S-wave (km/s) = 4.93315 -4.18740 1.84413
# Velocity P-wave (km/s) = 7.75559 3.45544 6.00372
#
# Compressibility (1/GPa) = 0.01775150
#
# Stress axis : x y z
#
# Youngs Moduli (GPa) = 143.53362 73.48095 102.05727
#
# Poissons Ratio (x) = 0.05273 0.40084
# Poissons Ratio (y) = 0.10299 0.17006
# Poissons Ratio (z) = 0.56374 0.12244
#
# Static dielectric constant tensor:
#      x y z
#    x 4.231860 0.000000 0.000000 
#    y 0.000000 3.517370 0.000000 
#    z 0.000000 0.000000 3.864100 
# 
# 
# High freq. dielectric constant tensor:
#      x y z
#    x 1.816660 0.000000 0.000000 
#    y 0.000000 1.780560 0.000000 
#    z 0.000000 0.000000 1.794410 
# 
# From -- ./inp_files/44763.got.cif
#   From: 2010.06.25/outbox.cif.g09.slc.cpg/sg71_23_cif.got.tgz:44763.got - 2010.06.28 04:59:45.
