data_PCOD8289361
_publ_section_title
;
Structure prediction by ZEFSAII (Michael W. Deem and Ramdas Pophale) SiO2 
 PCOD8289361
Probable space group: I M M M
;
_chemical_formula_sum "Si O2"
_cell_formula_units_Z 80
_cell_length_a 18.301441
_cell_length_b 14.326809
_cell_length_c 16.665149
_cell_angle_alpha 90.000000
_cell_angle_beta 90.000000
_cell_angle_gamma 90.000000
_cell_volume 4369.622893
_symmetry_space_group_name_H-M "I M M M"
_symmetry_group_IT_number 71
_symmetry_cell_setting 'orthorhombic'
loop_
_space_group_symop_operation_xyz
x,y,z
-x,-y,z
x,-y,-z
-x,y,-z
-x,-y,-z
x,y,-z
-x,y,z
x,-y,z
1/2+x,1/2+y,1/2+z
1/2-x,1/2-y,1/2+z
1/2+x,1/2-y,1/2-z
1/2-x,1/2+y,1/2-z
1/2-x,1/2-y,1/2-z
1/2+x,1/2+y,1/2-z
1/2-x,1/2+y,1/2+z
1/2+x,1/2-y,1/2+z
loop_
_atom_site_type_symbol
_atom_site_label
_atom_site_fract_x
_atom_site_fract_y
_atom_site_fract_z
Si Si1 0.707498 0.607588 0.211069
Si Si2 0.922212 0.395421 0.652768
Si Si3 0.191533 0.716585 0.911553
Si Si4 0.731823 0.103744 0.883066
Si Si5 0.917529 0.764278 0.220874
O O1 0.690988 0.500000 0.189015
O O2 0.747898 0.656676 0.136401
O O3 0.761314 0.616449 0.286829
O O4 0.630999 0.657446 0.233700
O O5 0.915992 0.500000 0.688187
O O6 0.853375 0.378943 0.594149
O O7 0.920311 0.327896 0.727503
O O8 0.000000 0.382401 0.606172
O O9 0.221381 0.820519 0.929040
O O10 0.116310 0.730652 0.863716
O O11 0.177196 0.671792 0.000000
O O12 0.757575 0.000000 0.909330
O O13 0.000000 0.803663 0.206979
#
# Coordination Sequence:
#
# PCOD8289361 Si02
#       5
#    16  16  16  16  16
#     4  10  19  34  53  74 100 138 190 230 255 297
#     4   9  15  25  49  79 100 120 155 211 267 306
#     4  11  21  33  49  77 113 142 171 210 267 331
#     4   9  16  31  53  72  96 130 174 223 261 301
#     4  10  19  34  55  78 104 136 180 226 265 308
#
# _framework density 18.308216000000002
#
# number of rings (size 3 to 8) (size 9 to 14) (size 15 to 20)
#    0.000    2.200    4.000    1.200    0.000    1.600 
#    0.000    0.000    0.000    2.400    0.000   14.000 
#    0.000    0.000    0.000    0.000    0.000    0.000 
#
# Total GULP energy -495538.205881 kJ/mol
# GULP energy per Si atom -12388.455147 kJ/mol
# Density = 1.826655 g / cm^3
# Si number density = 18.308216 Si / 1000 Ang^3
#
#
#
# Elastic Constant Matrix: (Units=GPa)
#
#
# Indices 1 2 3 4 5 6 
#
# 1 126.1792 27.9373 16.9851 0.0000 0.0000 0.0000
# 2 27.9373 73.4883 14.8378 0.0000 0.0000 0.0000
# 3 16.9851 14.8378 78.5479 0.0000 0.0000 0.0000
# 4 0.0000 0.0000 0.0000 4.8190 0.0000 0.0000
# 5 0.0000 0.0000 0.0000 0.0000 4.1463 0.0000
# 6 0.0000 0.0000 0.0000 0.0000 0.0000 23.1281
#
#
#
# Elastic Compliance Matrix: (Units=1/GPa)
#
#
# Indices 1 2 3 4 5 6 
#
# 1 0.008783 -0.003073 -0.001319 0.000000 0.000000 0.000000
# 2 -0.003073 0.015222 -0.002211 0.000000 0.000000 0.000000
# 3 -0.001319 -0.002211 0.013434 0.000000 0.000000 0.000000
# 4 0.000000 0.000000 0.000000 0.207511 0.000000 0.000000
# 5 0.000000 0.000000 0.000000 0.000000 0.241179 0.000000
# 6 0.000000 0.000000 0.000000 0.000000 0.000000 0.043237
#
#
# Mechanical properties :
#
#
# Convention : Reuss Voigt Hill
#
# Bulk Modulus (GPa) = 41.26423 44.19285 42.72854
# Shear Modulus (GPa) = 9.08019 20.98238 15.03128
#
# Velocity S-wave (km/s) = 2.22944 3.38903 2.86844
# Velocity P-wave (km/s) = 5.40507 6.28528 5.86172
#
# Compressibility (1/GPa) = 0.02423407
#
# Stress axis : x y z
#
# Youngs Moduli (GPa) = 113.85524 65.69373 74.43837
#
# Poissons Ratio (x) = 0.20186 0.09817
# Poissons Ratio (y) = 0.34984 0.16459
# Poissons Ratio (z) = 0.15015 0.14525
#
# Static dielectric constant tensor:
#      x y z
#    x 3.813750 0.000000 0.000000 
#    y 0.000000 3.498640 0.000000 
#    z 0.000000 0.000000 3.042910 
# 
# 
# High freq. dielectric constant tensor:
#      x y z
#    x 1.714230 0.000000 0.000000 
#    y 0.000000 1.712580 0.000000 
#    z 0.000000 0.000000 1.679620 
# 
# From -- ./inp_files/34285.got.cif
#   From: 2010.06.25/outbox.cif.g09.slc.cpg/sg71_18_cif.got.tgz:34285.got - 2010.06.28 04:59:45.
