data_PCOD8289682
_publ_section_title
;
Structure prediction by ZEFSAII (Michael W. Deem and Ramdas Pophale) SiO2 
 PCOD8289682
Probable space group: I M M M
;
_chemical_formula_sum "Si O2"
_cell_formula_units_Z 52
_cell_length_a 11.627003
_cell_length_b 29.486804
_cell_length_c 7.664773
_cell_angle_alpha 90.000000
_cell_angle_beta 90.000000
_cell_angle_gamma 90.000000
_cell_volume 2627.814985
_symmetry_space_group_name_H-M "I M M M"
_symmetry_group_IT_number 71
_symmetry_cell_setting 'orthorhombic'
loop_
_space_group_symop_operation_xyz
x,y,z
-x,-y,z
x,-y,-z
-x,y,-z
-x,-y,-z
x,y,-z
-x,y,z
x,-y,z
1/2+x,1/2+y,1/2+z
1/2-x,1/2-y,1/2+z
1/2+x,1/2-y,1/2-z
1/2-x,1/2+y,1/2-z
1/2-x,1/2-y,1/2-z
1/2+x,1/2+y,1/2-z
1/2-x,1/2+y,1/2+z
1/2+x,1/2-y,1/2+z
loop_
_atom_site_type_symbol
_atom_site_label
_atom_site_fract_x
_atom_site_fract_y
_atom_site_fract_z
Si Si1 0.135211 0.112077 0.293568
Si Si2 0.759661 0.698823 0.807719
Si Si3 0.754573 0.051649 0.000000
Si Si4 0.500000 0.168173 0.193395
Si Si5 0.500000 0.918661 0.000000
O O1 0.165608 0.105046 0.500000
O O2 0.180126 0.160716 0.215250
O O3 0.197260 0.074121 0.177101
O O4 0.000000 0.109196 0.262098
O O5 0.750000 0.750000 0.750000
O O6 0.891041 0.684023 0.800846
O O7 0.711500 0.698175 0.000000
O O8 0.615426 0.051744 0.000000
O O9 0.796562 0.000000 0.000000
O O10 0.500000 0.191107 0.000000
O O11 0.500000 0.113590 0.172515
#
# Coordination Sequence:
#
# PCOD8289682 Si02
#       5
#    16  16   8   8   4
#     4  10  23  43  64  92 130 168 210 264 320 386
#     4  11  23  37  59  90 125 167 214 259 312 373
#     4  12  24  44  71  97 124 166 214 271 331 384
#     4  10  19  38  62  81 123 166 200 262 314 366
#     4  10  21  42  68  88 132 164 212 266 319 384
#
# _framework density 19.788302000000002
#
# number of rings (size 3 to 8) (size 9 to 14) (size 15 to 20)
#    0.462    0.923    3.077    2.077    4.308    1.846 
#    0.000    2.308    0.000    1.846    0.000    0.000 
#    0.000    0.000    0.000    0.000    0.000    0.000 
#
# Total GULP energy -322135.192504 kJ/mol
# GULP energy per Si atom -12389.815096 kJ/mol
# Density = 1.974326 g / cm^3
# Si number density = 19.788302 Si / 1000 Ang^3
#
#
#
# Elastic Constant Matrix: (Units=GPa)
#
#
# Indices 1 2 3 4 5 6 
#
# 1 135.4533 56.0324 33.9276 0.0002 0.0009 0.0009
# 2 56.0324 175.0554 51.8117 -0.0013 0.0026 0.0000
# 3 33.9276 51.8117 80.9201 -0.0070 0.0015 -0.0003
# 4 0.0002 -0.0013 -0.0070 28.0550 0.0043 -0.0028
# 5 0.0009 0.0026 0.0015 0.0043 24.9861 0.0001
# 6 0.0009 0.0000 -0.0003 -0.0028 0.0001 8.7929
#
#
#
# Elastic Compliance Matrix: (Units=1/GPa)
#
#
# Indices 1 2 3 4 5 6 
#
# 1 0.008855 -0.002141 -0.002342 -0.000001 0.000000 -0.000001
# 2 -0.002141 0.007566 -0.003947 -0.000001 0.000000 0.000000
# 3 -0.002342 -0.003947 0.015867 0.000004 0.000000 0.000001
# 4 -0.000001 -0.000001 0.000004 0.035644 -0.000006 0.000011
# 5 0.000000 0.000000 0.000000 -0.000006 0.040022 -0.000001
# 6 -0.000001 0.000000 0.000001 0.000011 -0.000001 0.113728
#
#
# Mechanical properties :
#
#
# Convention : Reuss Voigt Hill
#
# Bulk Modulus (GPa) = 64.81500 74.99694 69.90597
# Shear Modulus (GPa) = 20.51839 29.01060 24.76450
#
# Velocity S-wave (km/s) = 3.22358 3.83305 3.54145
# Velocity P-wave (km/s) = 6.83232 7.58760 7.21984
#
# Compressibility (1/GPa) = 0.01542853
#
# Stress axis : x y z
#
# Youngs Moduli (GPa) = 112.93190 132.17136 63.02565
#
# Poissons Ratio (x) = 0.28301 0.14758
# Poissons Ratio (y) = 0.24182 0.24873
# Poissons Ratio (z) = 0.26444 0.52162
#
# Static dielectric constant tensor:
#      x y z
#    x 3.518490 0.000000 0.000010 
#    y 0.000000 3.481310 -0.000010 
#    z 0.000010 -0.000010 3.665220 
# 
# 
# High freq. dielectric constant tensor:
#      x y z
#    x 1.782360 0.000000 0.000000 
#    y 0.000000 1.767080 0.000000 
#    z 0.000000 0.000000 1.767740 
# 
# From -- ./inp_files/3530.got.cif
#   From: 2010.06.25/outbox.cif.g09.slc.cpg/sg71_2_cif.got.tgz:3530.got - 2010.06.28 04:59:45.
