data_PCOD8289276
_publ_section_title
;
Structure prediction by ZEFSAII (Michael W. Deem and Ramdas Pophale) SiO2 
 PCOD8289276
Probable space group: I M M M
;
_chemical_formula_sum "Si O2"
_cell_formula_units_Z 104
_cell_length_a 9.031329
_cell_length_b 21.965795
_cell_length_c 27.604087
_cell_angle_alpha 90.000000
_cell_angle_beta 90.000000
_cell_angle_gamma 90.000000
_cell_volume 5476.107651
_symmetry_space_group_name_H-M "I M M M"
_symmetry_group_IT_number 71
_symmetry_cell_setting 'orthorhombic'
loop_
_space_group_symop_operation_xyz
x,y,z
-x,-y,z
x,-y,-z
-x,y,-z
-x,-y,-z
x,y,-z
-x,y,z
x,-y,z
1/2+x,1/2+y,1/2+z
1/2-x,1/2-y,1/2+z
1/2+x,1/2-y,1/2-z
1/2-x,1/2+y,1/2-z
1/2-x,1/2-y,1/2-z
1/2+x,1/2+y,1/2-z
1/2-x,1/2+y,1/2+z
1/2+x,1/2-y,1/2+z
loop_
_atom_site_type_symbol
_atom_site_label
_atom_site_fract_x
_atom_site_fract_y
_atom_site_fract_z
Si Si1 0.161687 0.113515 0.054427
Si Si2 0.165171 0.500000 0.441886
Si Si3 0.172998 0.653771 0.055863
Si Si4 0.824778 0.568283 0.858153
Si Si5 0.331677 0.841751 0.725136
Si Si6 0.167670 0.794306 0.813167
Si Si7 0.324642 0.223569 0.088699
O O1 0.251752 0.059094 0.080080
O O2 0.257476 0.174998 0.051726
O O3 0.000000 0.123362 0.079462
O O4 0.134208 0.092311 0.000000
O O5 0.158644 0.500000 0.500000
O O6 0.000000 0.500000 0.420519
O O7 0.219381 0.596929 0.089752
O O8 0.265384 0.710669 0.074434
O O9 0.000000 0.669529 0.062100
O O10 0.210671 0.637859 0.000000
O O11 0.757529 0.500000 0.854777
O O12 0.765665 0.609814 0.813660
O O13 0.000000 0.565759 0.854307
O O14 0.500000 0.858641 0.739584
O O15 0.228864 0.840758 0.772541
O O16 0.326517 0.775486 0.702021
O O17 0.272307 0.800423 0.859259
O O18 0.000000 0.813632 0.825289
O O19 0.500000 0.224799 0.085962
#
# Coordination Sequence:
#
# PCOD8289276 Si02
#       7
#    16   8  16  16  16  16  16
#     4  10  20  34  53  76 104 141 182 223 271 325
#     4   9  17  31  51  75 103 135 175 219 259 311
#     4  10  20  35  54  79 114 152 192 238 285 335
#     4   9  17  32  56  84 113 147 188 235 285 338
#     4   9  17  32  54  81 109 135 172 219 271 330
#     4  10  19  33  55  80 107 136 171 218 273 333
#     4  12  23  34  52  79 111 145 185 230 283 339
#
# _framework density 18.991592000000001
#
# number of rings (size 3 to 8) (size 9 to 14) (size 15 to 20)
#    0.000    2.077    1.538    3.000    0.000    4.923 
#    0.000    1.538    1.692    1.846    0.000    1.077 
#    0.000    0.000    0.000    0.000    0.000    0.000 
#
# Total GULP energy -644589.345052 kJ/mol
# GULP energy per Si atom -12395.948943 kJ/mol
# Density = 1.894837 g / cm^3
# Si number density = 18.991592 Si / 1000 Ang^3
#
#
#
# Elastic Constant Matrix: (Units=GPa)
#
#
# Indices 1 2 3 4 5 6 
#
# 1 113.4463 48.9832 37.8111 0.0000 0.0000 0.0000
# 2 48.9832 122.7901 51.9322 0.0000 0.0000 0.0000
# 3 37.8111 51.9322 99.0930 0.0000 0.0000 0.0000
# 4 0.0000 0.0000 0.0000 25.8747 0.0000 0.0000
# 5 0.0000 0.0000 0.0000 0.0000 24.5439 0.0000
# 6 0.0000 0.0000 0.0000 0.0000 0.0000 21.2110
#
#
#
# Elastic Compliance Matrix: (Units=1/GPa)
#
#
# Indices 1 2 3 4 5 6 
#
# 1 0.011097 -0.003386 -0.002459 0.000000 0.000000 0.000000
# 2 -0.003386 0.011497 -0.004733 0.000000 0.000000 0.000000
# 3 -0.002459 -0.004733 0.013510 0.000000 0.000000 0.000000
# 4 0.000000 0.000000 0.000000 0.038648 0.000000 0.000000
# 5 0.000000 0.000000 0.000000 0.000000 0.040743 0.000000
# 6 0.000000 0.000000 0.000000 0.000000 0.000000 0.047145
#
#
# Mechanical properties :
#
#
# Convention : Reuss Voigt Hill
#
# Bulk Modulus (GPa) = 66.90728 68.08693 67.49710
# Shear Modulus (GPa) = 26.48589 27.43277 26.95933
#
# Velocity S-wave (km/s) = 3.73850 3.80474 3.77177
# Velocity P-wave (km/s) = 7.34450 7.43171 7.38823
#
# Compressibility (1/GPa) = 0.01494606
#
# Stress axis : x y z
#
# Youngs Moduli (GPa) = 90.11741 86.98210 74.01724
#
# Poissons Ratio (x) = 0.29456 0.18204
# Poissons Ratio (y) = 0.30518 0.35032
# Poissons Ratio (z) = 0.22163 0.41168
#
# Static dielectric constant tensor:
#      x y z
#    x 3.501600 0.000000 0.000000 
#    y 0.000000 3.542210 0.000000 
#    z 0.000000 0.000000 3.483070 
# 
# 
# High freq. dielectric constant tensor:
#      x y z
#    x 1.727390 0.000000 0.000000 
#    y 0.000000 1.728210 0.000000 
#    z 0.000000 0.000000 1.726000 
# 
# From -- ./inp_files/15011.got.cif
#   From: 2010.06.25/outbox.cif.g09.slc.cpg/sg71_8_cif.got.tgz:15011.got - 2010.06.28 04:59:45.
