data_PCOD8289809
_publ_section_title
;
Structure prediction by ZEFSAII (Michael W. Deem and Ramdas Pophale) SiO2 
 PCOD8289809
Probable space group: I M M M
;
_chemical_formula_sum "Si O2"
_cell_formula_units_Z 72
_cell_length_a 8.102482
_cell_length_b 14.402491
_cell_length_c 36.647573
_cell_angle_alpha 90.000000
_cell_angle_beta 90.000000
_cell_angle_gamma 90.000000
_cell_volume 4276.622397
_symmetry_space_group_name_H-M "I M M M"
_symmetry_group_IT_number 71
_symmetry_cell_setting 'orthorhombic'
loop_
_space_group_symop_operation_xyz
x,y,z
-x,-y,z
x,-y,-z
-x,y,-z
-x,-y,-z
x,y,-z
-x,y,z
x,-y,z
1/2+x,1/2+y,1/2+z
1/2-x,1/2-y,1/2+z
1/2+x,1/2-y,1/2-z
1/2-x,1/2+y,1/2-z
1/2-x,1/2-y,1/2-z
1/2+x,1/2+y,1/2-z
1/2-x,1/2+y,1/2+z
1/2+x,1/2-y,1/2+z
loop_
_atom_site_type_symbol
_atom_site_label
_atom_site_fract_x
_atom_site_fract_y
_atom_site_fract_z
Si Si1 0.805904 0.603814 0.729539
Si Si2 0.307555 0.390725 0.410135
Si Si3 0.307043 0.397309 0.808108
Si Si4 0.000000 0.609710 0.540640
Si Si5 0.191707 0.782363 0.160857
O O1 0.734311 0.500000 0.723621
O O2 0.747503 0.641928 0.768696
O O3 0.742911 0.669419 0.698032
O O4 0.000000 0.603066 0.728600
O O5 0.500000 0.366014 0.420920
O O6 0.294924 0.500000 0.402261
O O7 0.173091 0.359073 0.440423
O O8 0.242068 0.337801 0.374137
O O9 0.500000 0.406412 0.809082
O O10 0.228270 0.500000 0.815291
O O11 0.252472 0.324411 0.839114
O O12 0.000000 0.500000 0.538703
O O13 0.000000 0.652950 0.500000
O O14 0.000000 0.782314 0.157598
#
# Coordination Sequence:
#
# PCOD8289809 Si02
#       5
#    16  16  16   8  16
#     4  10  20  32  47  66  89 122 162 203 246 291
#     4   9  19  33  49  74 105 133 163 198 236 283
#     4  10  21  35  48  63  87 121 163 209 250 291
#     4   9  18  32  52  76 103 137 167 193 232 284
#     4  11  21  32  48  68  93 125 159 200 248 291
#
# _framework density 16.835715
#
# number of rings (size 3 to 8) (size 9 to 14) (size 15 to 20)
#    0.000    2.111    0.000    3.333    3.111    4.000 
#    0.000    2.222    0.000    0.000    0.000    0.000 
#    0.000    1.778    0.000    4.889    0.000    0.222 
#
# Total GULP energy -446190.458956 kJ/mol
# GULP energy per Si atom -12394.179415 kJ/mol
# Density = 1.679740 g / cm^3
# Si number density = 16.835715 Si / 1000 Ang^3
#
#
#
# Elastic Constant Matrix: (Units=GPa)
#
#
# Indices 1 2 3 4 5 6 
#
# 1 42.1905 18.6497 43.1369 0.0000 0.0000 0.0000
# 2 18.6497 68.9430 51.9884 0.0000 0.0000 0.0000
# 3 43.1369 51.9884 100.2847 0.0000 0.0000 0.0000
# 4 0.0000 0.0000 0.0000 11.1144 0.0000 0.0000
# 5 0.0000 0.0000 0.0000 0.0000 26.9182 0.0000
# 6 0.0000 0.0000 0.0000 0.0000 0.0000 21.7481
#
#
#
# Elastic Compliance Matrix: (Units=1/GPa)
#
#
# Indices 1 2 3 4 5 6 
#
# 1 0.042905 0.003794 -0.020422 0.000000 0.000000 0.000000
# 2 0.003794 0.024150 -0.014151 0.000000 0.000000 0.000000
# 3 -0.020422 -0.014151 0.026092 0.000000 0.000000 0.000000
# 4 0.000000 0.000000 0.000000 0.089973 0.000000 0.000000
# 5 0.000000 0.000000 0.000000 0.000000 0.037150 0.000000
# 6 0.000000 0.000000 0.000000 0.000000 0.000000 0.045981
#
#
# Mechanical properties :
#
#
# Convention : Reuss Voigt Hill
#
# Bulk Modulus (GPa) = 31.65779 48.77425 40.21602
# Shear Modulus (GPa) = 14.77804 18.46569 16.62186
#
# Velocity S-wave (km/s) = 2.96595 3.31541 3.14554
# Velocity P-wave (km/s) = 5.52937 6.60981 6.09358
#
# Compressibility (1/GPa) = 0.03158780
#
# Stress axis : x y z
#
# Youngs Moduli (GPa) = 23.30706 41.40861 38.32567
#
# Poissons Ratio (x) = -0.15709 0.78269
# Poissons Ratio (y) = -0.08842 0.54235
# Poissons Ratio (z) = 0.47598 0.58598
#
# Static dielectric constant tensor:
#      x y z
#    x 3.530520 0.000000 0.000000 
#    y 0.000000 2.980980 0.000000 
#    z 0.000000 0.000000 3.047740 
# 
# 
# High freq. dielectric constant tensor:
#      x y z
#    x 1.666660 0.000000 0.000000 
#    y 0.000000 1.636600 0.000000 
#    z 0.000000 0.000000 1.614150 
# 
# From -- ./inp_files/6040.got.cif
#   From: 2010.06.25/outbox.cif.g09.slc.cpg/sg71_4_cif.got.tgz:6040.got - 2010.06.28 04:59:45.
