data_PCOD8289362
_publ_section_title
;
Structure prediction by ZEFSAII (Michael W. Deem and Ramdas Pophale) SiO2 
 PCOD8289362
Probable space group: I M M M
;
_chemical_formula_sum "Si O2"
_cell_formula_units_Z 88
_cell_length_a 19.003868
_cell_length_b 9.336190
_cell_length_c 27.183840
_cell_angle_alpha 90.000000
_cell_angle_beta 90.000000
_cell_angle_gamma 90.000000
_cell_volume 4823.058081
_symmetry_space_group_name_H-M "I M M M"
_symmetry_group_IT_number 71
_symmetry_cell_setting 'orthorhombic'
loop_
_space_group_symop_operation_xyz
x,y,z
-x,-y,z
x,-y,-z
-x,y,-z
-x,-y,-z
x,y,-z
-x,y,z
x,-y,z
1/2+x,1/2+y,1/2+z
1/2-x,1/2-y,1/2+z
1/2+x,1/2-y,1/2-z
1/2-x,1/2+y,1/2-z
1/2-x,1/2-y,1/2-z
1/2+x,1/2+y,1/2-z
1/2-x,1/2+y,1/2+z
1/2+x,1/2-y,1/2+z
loop_
_atom_site_type_symbol
_atom_site_label
_atom_site_fract_x
_atom_site_fract_y
_atom_site_fract_z
Si Si1 0.079710 0.830997 0.385634
Si Si2 0.583331 0.341576 0.776841
Si Si3 0.656751 0.667646 0.403230
Si Si4 0.082127 0.332135 0.816800
Si Si5 0.078985 0.170219 0.000000
Si Si6 0.692938 0.835716 0.056430
O O1 0.108182 0.790045 0.330963
O O2 0.127972 0.759231 0.426500
O O3 0.000000 0.775678 0.393261
O O4 0.082979 0.000000 0.392807
O O5 0.500000 0.353045 0.778626
O O6 0.614065 0.500000 0.764495
O O7 0.607703 0.228298 0.735893
O O8 0.640635 0.500000 0.394803
O O9 0.629301 0.756671 0.357385
O O10 0.617236 0.727447 0.451387
O O11 0.739334 0.696677 0.409977
O O12 0.096922 0.500000 0.817469
O O13 0.000000 0.297219 0.826202
O O14 0.000000 0.229930 0.000000
O O15 0.081787 0.000000 0.000000
O O16 0.670422 0.000000 0.061806
O O17 0.711648 0.799521 0.000000
#
# Coordination Sequence:
#
# PCOD8289362 Si02
#       6
#    16  16  16  16   8  16
#     4   9  19  36  58  83 107 133 172 218 261 315
#     4   8  15  31  54  77 102 134 172 214 259 307
#     4  10  19  34  53  74 102 139 182 220 257 307
#     4  10  20  32  49  78 112 140 171 215 264 313
#     4   9  16  28  51  77  96 125 176 226 257 291
#     4  10  21  37  55  77 107 140 175 219 267 312
#
# _framework density 18.245685999999999
#
# number of rings (size 3 to 8) (size 9 to 14) (size 15 to 20)
#    0.000    2.636    0.909    2.182    0.000    4.364 
#    0.000    5.000    0.000    1.636    0.000    0.000 
#    0.000    0.000    0.000    0.000    0.000    0.000 
#
# Total GULP energy -545543.082644 kJ/mol
# GULP energy per Si atom -12398.706424 kJ/mol
# Density = 1.820416 g / cm^3
# Si number density = 18.245686 Si / 1000 Ang^3
#
#
#
# Elastic Constant Matrix: (Units=GPa)
#
#
# Indices 1 2 3 4 5 6 
#
# 1 75.6832 39.1782 36.2544 0.0000 0.0000 0.0000
# 2 39.1782 68.0660 44.6875 0.0000 0.0000 0.0000
# 3 36.2544 44.6875 82.6709 0.0000 0.0000 0.0000
# 4 0.0000 0.0000 0.0000 27.9294 0.0000 0.0000
# 5 0.0000 0.0000 0.0000 0.0000 15.7460 0.0000
# 6 0.0000 0.0000 0.0000 0.0000 0.0000 25.0931
#
#
#
# Elastic Compliance Matrix: (Units=1/GPa)
#
#
# Indices 1 2 3 4 5 6 
#
# 1 0.019588 -0.008735 -0.003868 0.000000 0.000000 0.000000
# 2 -0.008735 0.026669 -0.010585 0.000000 0.000000 0.000000
# 3 -0.003868 -0.010585 0.019514 0.000000 0.000000 0.000000
# 4 0.000000 0.000000 0.000000 0.035805 0.000000 0.000000
# 5 0.000000 0.000000 0.000000 0.000000 0.063508 0.000000
# 6 0.000000 0.000000 0.000000 0.000000 0.000000 0.039852
#
#
# Mechanical properties :
#
#
# Convention : Reuss Voigt Hill
#
# Bulk Modulus (GPa) = 51.56200 51.85115 51.70657
# Shear Modulus (GPa) = 19.39663 20.84037 20.11850
#
# Velocity S-wave (km/s) = 3.26403 3.38332 3.32421
# Velocity P-wave (km/s) = 6.52122 6.61381 6.56768
#
# Compressibility (1/GPa) = 0.01939413
#
# Stress axis : x y z
#
# Youngs Moduli (GPa) = 51.05248 37.49699 51.24420
#
# Poissons Ratio (x) = 0.32753 0.19823
# Poissons Ratio (y) = 0.44593 0.54243
# Poissons Ratio (z) = 0.19749 0.39691
#
# Static dielectric constant tensor:
#      x y z
#    x 3.176150 0.000000 0.000000 
#    y 0.000000 3.193090 0.000000 
#    z 0.000000 0.000000 3.560590 
# 
# 
# High freq. dielectric constant tensor:
#      x y z
#    x 1.688450 0.000000 0.000000 
#    y 0.000000 1.691070 0.000000 
#    z 0.000000 0.000000 1.716400 
# 
# From -- ./inp_files/12561.got.cif
#   From: 2010.06.25/outbox.cif.g09.slc.cpg/sg71_7_cif.got.tgz:12561.got - 2010.06.28 04:59:45.
