data_PCOD8289283
_publ_section_title
;
Structure prediction by ZEFSAII (Michael W. Deem and Ramdas Pophale) SiO2 
 PCOD8289283
Probable space group: I M M M
;
_chemical_formula_sum "Si O2"
_cell_formula_units_Z 80
_cell_length_a 9.156514
_cell_length_b 25.752870
_cell_length_c 18.166661
_cell_angle_alpha 90.000000
_cell_angle_beta 90.000000
_cell_angle_gamma 90.000000
_cell_volume 4283.817014
_symmetry_space_group_name_H-M "I M M M"
_symmetry_group_IT_number 71
_symmetry_cell_setting 'orthorhombic'
loop_
_space_group_symop_operation_xyz
x,y,z
-x,-y,z
x,-y,-z
-x,y,-z
-x,-y,-z
x,y,-z
-x,y,z
x,-y,z
1/2+x,1/2+y,1/2+z
1/2-x,1/2-y,1/2+z
1/2+x,1/2-y,1/2-z
1/2-x,1/2+y,1/2-z
1/2-x,1/2-y,1/2-z
1/2+x,1/2+y,1/2-z
1/2-x,1/2+y,1/2+z
1/2+x,1/2-y,1/2+z
loop_
_atom_site_type_symbol
_atom_site_label
_atom_site_fract_x
_atom_site_fract_y
_atom_site_fract_z
Si Si1 0.670695 0.803668 0.335918
Si Si2 0.330138 0.500000 0.171621
Si Si3 0.831569 0.103788 0.585767
Si Si4 0.826253 0.401908 0.417370
Si Si5 0.670743 0.199696 0.834102
Si Si6 0.326093 0.000000 0.825982
O O1 0.500000 0.799240 0.350821
O O2 0.732602 0.850683 0.382833
O O3 0.706460 0.813455 0.250432
O O4 0.744682 0.750313 0.362219
O O5 0.500000 0.500000 0.192514
O O6 0.287518 0.550211 0.124407
O O7 0.235890 0.500000 0.244733
O O8 0.799274 0.097114 0.500000
O O9 0.000000 0.117753 0.600616
O O10 0.764066 0.406569 0.500000
O O11 0.770814 0.348350 0.381950
O O12 0.766865 0.449697 0.369266
O O13 0.000000 0.403196 0.418129
O O14 0.500000 0.209831 0.846034
O O15 0.500000 0.000000 0.820922
#
# Coordination Sequence:
#
# PCOD8289283 Si02
#       6
#    16   8  16  16  16   8
#     4  10  20  34  53  78 107 137 173 219 265 307
#     4  10  21  37  57  79 103 134 172 210 252 308
#     4  10  21  37  56  77 103 136 173 213 258 311
#     4   9  17  30  51  78 105 135 174 216 254 298
#     4   9  18  33  52  75 105 142 181 216 253 304
#     4  10  19  33  55  81 107 134 168 212 260 306
#
# _framework density 18.674934
#
# number of rings (size 3 to 8) (size 9 to 14) (size 15 to 20)
#    0.000    2.400    0.000    2.400    0.000    6.800 
#    0.000    3.000    0.000    4.200    0.000    0.000 
#    0.000    0.000    0.000    0.000    0.000    0.000 
#
# Total GULP energy -496118.709642 kJ/mol
# GULP energy per Si atom -12402.967741 kJ/mol
# Density = 1.863243 g / cm^3
# Si number density = 18.674934 Si / 1000 Ang^3
#
#
#
# Elastic Constant Matrix: (Units=GPa)
#
#
# Indices 1 2 3 4 5 6 
#
# 1 48.5841 55.7295 44.0144 0.0000 0.0000 0.0000
# 2 55.7295 180.4446 87.7493 0.0000 0.0000 0.0000
# 3 44.0144 87.7493 123.0419 0.0001 0.0000 -0.0002
# 4 0.0000 0.0000 0.0001 16.0973 0.0000 -0.0001
# 5 0.0000 0.0000 0.0000 0.0000 26.4125 0.0000
# 6 0.0000 0.0000 -0.0002 -0.0001 0.0000 -22.4899
#
#
#
# Elastic Compliance Matrix: (Units=1/GPa)
#
#
# Indices 1 2 3 4 5 6 
#
# 1 0.035954 -0.007425 -0.007566 0.000000 0.000000 0.000000
# 2 -0.007425 0.010018 -0.004488 0.000000 0.000000 0.000000
# 3 -0.007566 -0.004488 0.014035 0.000000 0.000000 0.000000
# 4 0.000000 0.000000 0.000000 0.062122 0.000000 0.000000
# 5 0.000000 0.000000 0.000000 0.000000 0.037861 0.000000
# 6 0.000000 0.000000 0.000000 0.000000 0.000000 -0.044464
#
#
# Mechanical properties :
#
#
# Convention : Reuss Voigt Hill
#
# Bulk Modulus (GPa) = 47.51073 80.78411 64.14742
# Shear Modulus (GPa) = 30.95971 14.97581 22.96776
#
# Velocity S-wave (km/s) = 4.07605 2.83489 3.51076
# Velocity P-wave (km/s) = 6.90278 7.35306 7.13147
#
# Compressibility (1/GPa) = 0.02104788
#
# Stress axis : x y z
#
# Youngs Moduli (GPa) = 27.81300 99.82444 71.25148
#
# Poissons Ratio (x) = 0.74118 0.53912
# Poissons Ratio (y) = 0.20651 0.31979
# Poissons Ratio (z) = 0.21044 0.44803
#
# Static dielectric constant tensor:
#      x y z
#    x 3.186360 0.000000 0.000000 
#    y 0.000000 3.631220 0.000000 
#    z 0.000000 0.000000 3.481040 
# 
# 
# High freq. dielectric constant tensor:
#      x y z
#    x 1.697930 0.000000 0.000000 
#    y 0.000000 1.742610 0.000000 
#    z 0.000000 0.000000 1.729880 
# 
# From -- ./inp_files/42262.got.cif
#   From: 2010.06.25/outbox.cif.g09.slc.cpg/sg71_22_cif.got.tgz:42262.got - 2010.06.28 04:59:45.
