data_PCOD8289681
_publ_section_title
;
Structure prediction by ZEFSAII (Michael W. Deem and Ramdas Pophale) SiO2 
 PCOD8289681
Probable space group: I M M M
;
_chemical_formula_sum "Si O2"
_cell_formula_units_Z 104
_cell_length_a 17.829134
_cell_length_b 18.013379
_cell_length_c 16.646564
_cell_angle_alpha 90.000000
_cell_angle_beta 90.000000
_cell_angle_gamma 90.000000
_cell_volume 5346.259568
_symmetry_space_group_name_H-M "I M M M"
_symmetry_group_IT_number 71
_symmetry_cell_setting 'orthorhombic'
loop_
_space_group_symop_operation_xyz
x,y,z
-x,-y,z
x,-y,-z
-x,y,-z
-x,-y,-z
x,y,-z
-x,y,z
x,-y,z
1/2+x,1/2+y,1/2+z
1/2-x,1/2-y,1/2+z
1/2+x,1/2-y,1/2-z
1/2-x,1/2+y,1/2-z
1/2-x,1/2-y,1/2-z
1/2+x,1/2+y,1/2-z
1/2-x,1/2+y,1/2+z
1/2+x,1/2-y,1/2+z
loop_
_atom_site_type_symbol
_atom_site_label
_atom_site_fract_x
_atom_site_fract_y
_atom_site_fract_z
Si Si1 0.580422 0.416992 0.196583
Si Si2 0.643889 0.148623 0.684567
Si Si3 0.912756 0.862742 0.000000
Si Si4 0.371841 0.318757 0.673941
Si Si5 0.500000 0.088054 0.407160
Si Si6 0.219480 0.086289 0.592583
Si Si7 0.248900 0.917787 0.000000
Si Si8 0.774073 0.588297 0.328306
O O1 0.500000 0.418044 0.151627
O O2 0.600254 0.500000 0.228121
O O3 0.567992 0.361273 0.271731
O O4 0.642105 0.389433 0.133466
O O5 0.637078 0.235145 0.703262
O O6 0.571592 0.117544 0.640029
O O7 0.714309 0.135815 0.627310
O O8 0.656052 0.107722 0.770647
O O9 0.898623 0.815259 0.919099
O O10 0.843409 0.921178 0.000000
O O11 0.000000 0.893664 0.000000
O O12 0.298680 0.366628 0.699626
O O13 0.500000 0.116389 0.500000
O O14 0.500000 0.000000 0.405914
O O15 0.211370 0.104992 0.500000
O O16 0.238726 0.000000 0.607890
O O17 0.284985 0.881627 0.920014
O O18 0.278997 0.000000 0.000000
O O19 0.758177 0.500000 0.325917
#
# Coordination Sequence:
#
# PCOD8289681 Si02
#       8
#    16  16   8  16   8  16   8  16
#     4  10  21  38  60  85 119 157 192 235 289 352
#     4  12  24  37  62  87 117 157 198 248 300 355
#     4  10  22  35  52  78 123 163 190 230 291 357
#     4  11  23  36  56  87 119 155 200 241 294 345
#     4  11  26  44  62  89 122 158 202 252 304 356
#     4  10  21  38  61  88 116 151 195 239 289 352
#     4   8  18  35  58  87 114 146 193 245 284 338
#     4  10  19  38  61  84 116 153 197 241 289 351
#
# _framework density 19.452853000000001
#
# number of rings (size 3 to 8) (size 9 to 14) (size 15 to 20)
#    0.000    1.615    1.538    3.231    4.308    2.308 
#    0.000    1.538    0.000    0.462    0.000    2.154 
#    0.000    0.000    0.000    0.000    0.000    0.000 
#
# Total GULP energy -644252.660552 kJ/mol
# GULP energy per Si atom -12389.474241 kJ/mol
# Density = 1.940858 g / cm^3
# Si number density = 19.452853 Si / 1000 Ang^3
#
#
#
# Elastic Constant Matrix: (Units=GPa)
#
#
# Indices 1 2 3 4 5 6 
#
# 1 128.5096 38.3878 68.9958 0.0000 0.0000 0.0000
# 2 38.3878 95.5265 40.0063 0.0000 0.0000 0.0000
# 3 68.9958 40.0063 145.5035 0.0000 0.0000 0.0000
# 4 0.0000 0.0000 0.0000 12.2133 0.0000 0.0000
# 5 0.0000 0.0000 0.0000 0.0000 22.2799 0.0000
# 6 0.0000 0.0000 0.0000 0.0000 0.0000 29.7977
#
#
#
# Elastic Compliance Matrix: (Units=1/GPa)
#
#
# Indices 1 2 3 4 5 6 
#
# 1 0.010949 -0.002515 -0.004500 0.000000 0.000000 0.000000
# 2 -0.002515 0.012408 -0.002219 0.000000 0.000000 0.000000
# 3 -0.004500 -0.002219 0.009617 0.000000 0.000000 0.000000
# 4 0.000000 0.000000 0.000000 0.081878 0.000000 0.000000
# 5 0.000000 0.000000 0.000000 0.000000 0.044883 0.000000
# 6 0.000000 0.000000 0.000000 0.000000 0.000000 0.033560
#
#
# Mechanical properties :
#
#
# Convention : Reuss Voigt Hill
#
# Bulk Modulus (GPa) = 68.94118 73.81326 71.37722
# Shear Modulus (GPa) = 23.08409 27.66817 25.37613
#
# Velocity S-wave (km/s) = 3.44854 3.77546 3.61570
# Velocity P-wave (km/s) = 7.16754 7.55199 7.36227
#
# Compressibility (1/GPa) = 0.01450512
#
# Stress axis : x y z
#
# Youngs Moduli (GPa) = 91.33220 80.59080 103.98465
#
# Poissons Ratio (x) = 0.20270 0.46797
# Poissons Ratio (y) = 0.22972 0.23074
# Poissons Ratio (z) = 0.41103 0.17883
#
# Static dielectric constant tensor:
#      x y z
#    x 3.440260 0.000000 0.000000 
#    y 0.000000 3.418200 0.000000 
#    z 0.000000 0.000000 3.871110 
# 
# 
# High freq. dielectric constant tensor:
#      x y z
#    x 1.746570 0.000000 0.000000 
#    y 0.000000 1.744020 0.000000 
#    z 0.000000 0.000000 1.768250 
# 
# From -- ./inp_files/46196.got.cif
#   From: 2010.06.25/outbox.cif.g09.slc.cpg/sg71_24_cif.got.tgz:46196.got - 2010.06.28 04:59:45.
