data_PCOD8289930
_publ_section_title
;
Structure prediction by ZEFSAII (Michael W. Deem and Ramdas Pophale) SiO2 
 PCOD8289930
Probable space group: I M M M
;
_chemical_formula_sum "Si O2"
_cell_formula_units_Z 88
_cell_length_a 19.570147
_cell_length_b 14.323062
_cell_length_c 18.292786
_cell_angle_alpha 90.000000
_cell_angle_beta 90.000000
_cell_angle_gamma 90.000000
_cell_volume 5127.548931
_symmetry_space_group_name_H-M "I M M M"
_symmetry_group_IT_number 71
_symmetry_cell_setting 'orthorhombic'
loop_
_space_group_symop_operation_xyz
x,y,z
-x,-y,z
x,-y,-z
-x,y,-z
-x,-y,-z
x,y,-z
-x,y,z
x,-y,z
1/2+x,1/2+y,1/2+z
1/2-x,1/2-y,1/2+z
1/2+x,1/2-y,1/2-z
1/2-x,1/2+y,1/2-z
1/2-x,1/2-y,1/2-z
1/2+x,1/2+y,1/2-z
1/2-x,1/2+y,1/2+z
1/2+x,1/2-y,1/2+z
loop_
_atom_site_type_symbol
_atom_site_label
_atom_site_fract_x
_atom_site_fract_y
_atom_site_fract_z
Si Si1 0.361792 0.610983 0.663637
Si Si2 0.324172 0.741711 0.784824
Si Si3 0.631369 0.894253 0.579579
Si Si4 0.000000 0.889390 0.082727
Si Si5 0.242357 0.238744 0.083023
Si Si6 0.075503 0.607529 0.230846
O O1 0.355605 0.500000 0.668705
O O2 0.361326 0.653259 0.746344
O O3 0.432108 0.644299 0.625111
O O4 0.298575 0.650341 0.616365
O O5 0.250000 0.750000 0.750000
O O6 0.311907 0.736510 0.872178
O O7 0.367957 0.834327 0.772841
O O8 0.596688 0.876308 0.500000
O O9 0.696968 0.830426 0.589608
O O10 0.577550 0.873006 0.643526
O O11 0.658299 0.000000 0.585444
O O12 0.000000 0.000000 0.079008
O O13 0.000000 0.848490 0.000000
O O14 0.262815 0.215144 0.000000
O O15 0.090987 0.500000 0.248221
O O16 0.000000 0.635632 0.257953
#
# Coordination Sequence:
#
# PCOD8289930 Si02
#       6
#    16  16  16   8  16  16
#     4  10  20  32  49  76 106 139 170 203 255 312
#     4  10  20  34  51  77 100 136 175 222 259 309
#     4   9  17  30  49  74 106 137 169 210 255 310
#     4   9  18  32  48  70 102 136 168 197 236 304
#     4  10  20  35  51  74 101 133 178 220 264 307
#     4  10  20  34  53  76 105 139 175 216 262 314
#
# _framework density 17.162196000000002
#
# number of rings (size 3 to 8) (size 9 to 14) (size 15 to 20)
#    0.000    2.273    3.636    0.545    1.273    5.091 
#    0.000    1.818    0.000    0.545    0.000    1.273 
#    0.000    2.182    0.000    0.000    0.000    0.000 
#
# Total GULP energy -545291.220334 kJ/mol
# GULP energy per Si atom -12392.982280 kJ/mol
# Density = 1.712313 g / cm^3
# Si number density = 17.162196 Si / 1000 Ang^3
#
#
#
# Elastic Constant Matrix: (Units=GPa)
#
#
# Indices 1 2 3 4 5 6 
#
# 1 84.0481 36.0894 53.0565 0.0000 0.0000 0.0000
# 2 36.0894 77.5558 39.8294 0.0000 0.0000 0.0000
# 3 53.0565 39.8294 116.8565 0.0000 0.0000 0.0000
# 4 0.0000 0.0000 0.0000 22.6282 0.0000 0.0000
# 5 0.0000 0.0000 0.0000 0.0000 27.7469 0.0000
# 6 0.0000 0.0000 0.0000 0.0000 0.0000 26.0120
#
#
#
# Elastic Compliance Matrix: (Units=1/GPa)
#
#
# Indices 1 2 3 4 5 6 
#
# 1 0.018218 -0.005127 -0.006524 0.000000 0.000000 0.000000
# 2 -0.005127 0.017073 -0.003491 0.000000 0.000000 0.000000
# 3 -0.006524 -0.003491 0.012710 0.000000 0.000000 0.000000
# 4 0.000000 0.000000 0.000000 0.044193 0.000000 0.000000
# 5 0.000000 0.000000 0.000000 0.000000 0.036040 0.000000
# 6 0.000000 0.000000 0.000000 0.000000 0.000000 0.038444
#
#
# Mechanical properties :
#
#
# Convention : Reuss Voigt Hill
#
# Bulk Modulus (GPa) = 56.44729 59.60124 58.02427
# Shear Modulus (GPa) = 24.64683 25.24310 24.94497
#
# Velocity S-wave (km/s) = 3.79372 3.83933 3.81659
# Velocity P-wave (km/s) = 7.22161 7.37954 7.30100
#
# Compressibility (1/GPa) = 0.01771564
#
# Stress axis : x y z
#
# Youngs Moduli (GPa) = 54.89151 58.57328 78.68096
#
# Poissons Ratio (x) = 0.30030 0.51331
# Poissons Ratio (y) = 0.28142 0.27470
# Poissons Ratio (z) = 0.35811 0.20449
#
# Static dielectric constant tensor:
#      x y z
#    x 3.156520 0.000000 0.000000 
#    y 0.000000 3.255280 0.000000 
#    z 0.000000 0.000000 3.682740 
# 
# 
# High freq. dielectric constant tensor:
#      x y z
#    x 1.637160 0.000000 0.000000 
#    y 0.000000 1.669930 0.000000 
#    z 0.000000 0.000000 1.650030 
# 
# From -- ./inp_files/44730.got.cif
#   From: 2010.06.25/outbox.cif.g09.slc.cpg/sg71_23_cif.got.tgz:44730.got - 2010.06.28 04:59:45.
