data_PCOD8289734
_publ_section_title
;
Structure prediction by ZEFSAII (Michael W. Deem and Ramdas Pophale) SiO2 
 PCOD8289734
Probable space group: I M M M
;
_chemical_formula_sum "Si O2"
_cell_formula_units_Z 72
_cell_length_a 27.596214
_cell_length_b 18.884533
_cell_length_c 8.782118
_cell_angle_alpha 90.000000
_cell_angle_beta 90.000000
_cell_angle_gamma 90.000000
_cell_volume 4576.727148
_symmetry_space_group_name_H-M "I M M M"
_symmetry_group_IT_number 71
_symmetry_cell_setting 'orthorhombic'
loop_
_space_group_symop_operation_xyz
x,y,z
-x,-y,z
x,-y,-z
-x,y,-z
-x,-y,-z
x,y,-z
-x,y,z
x,-y,z
1/2+x,1/2+y,1/2+z
1/2-x,1/2-y,1/2+z
1/2+x,1/2-y,1/2-z
1/2-x,1/2+y,1/2-z
1/2-x,1/2-y,1/2-z
1/2+x,1/2+y,1/2-z
1/2-x,1/2+y,1/2+z
1/2+x,1/2-y,1/2+z
loop_
_atom_site_type_symbol
_atom_site_label
_atom_site_fract_x
_atom_site_fract_y
_atom_site_fract_z
Si Si1 0.268762 0.856548 0.821970
Si Si2 0.903716 0.864810 0.823170
Si Si3 0.237026 0.500000 0.178016
Si Si4 0.661280 0.500000 0.326577
Si Si5 0.177596 0.784546 0.321585
Si Si6 0.500000 0.418935 0.180299
O O1 0.216952 0.836924 0.751170
O O2 0.308451 0.796627 0.785855
O O3 0.287547 0.929996 0.750138
O O4 0.260241 0.866381 0.000000
O O5 0.871386 0.932930 0.792022
O O6 0.875010 0.797943 0.752357
O O7 0.954164 0.875311 0.738722
O O8 0.913756 0.851285 0.000000
O O9 0.294085 0.500000 0.212140
O O10 0.227331 0.500000 0.000000
O O11 0.680732 0.500000 0.500000
O O12 0.176050 0.799975 0.500000
O O13 0.500000 0.500000 0.243771
O O14 0.500000 0.419950 0.000000
#
# Coordination Sequence:
#
# PCOD8289734 Si02
#       6
#    16  16   8   8  16   8
#     4  10  20  33  48  67  95 127 159 197 241 287
#     4  11  21  34  51  67  93 128 163 202 244 289
#     4  12  22  30  47  71  96 125 164 205 237 283
#     4  10  20  31  45  66  93 128 163 198 241 285
#     4  10  20  33  49  69  93 124 162 200 239 285
#     4  11  23  35  49  69  95 124 163 210 243 277
#
# _framework density 15.731764999999999
#
# number of rings (size 3 to 8) (size 9 to 14) (size 15 to 20)
#    0.000    1.444    3.333    3.333    0.000    4.000 
#    0.000    0.000    0.000    0.000    0.000    0.000 
#    0.000    0.889    0.000    9.333    0.000    4.444 
#
# Total GULP energy -446508.942726 kJ/mol
# GULP energy per Si atom -12403.026187 kJ/mol
# Density = 1.569596 g / cm^3
# Si number density = 15.731765 Si / 1000 Ang^3
#
#
#
# Elastic Constant Matrix: (Units=GPa)
#
#
# Indices 1 2 3 4 5 6 
#
# 1 91.2236 44.6936 39.5121 0.0000 0.0000 0.0000
# 2 44.6936 106.0978 47.6244 0.0000 0.0000 0.0000
# 3 39.5121 47.6244 95.3823 0.0000 0.0000 0.0000
# 4 0.0000 0.0000 0.0000 25.6506 0.0000 0.0000
# 5 0.0000 0.0000 0.0000 0.0000 26.6730 0.0000
# 6 0.0000 0.0000 0.0000 0.0000 0.0000 66.3035
#
#
#
# Elastic Compliance Matrix: (Units=1/GPa)
#
#
# Indices 1 2 3 4 5 6 
#
# 1 0.014862 -0.004507 -0.003906 0.000000 0.000000 0.000000
# 2 -0.004507 0.013515 -0.004881 0.000000 0.000000 0.000000
# 3 -0.003906 -0.004881 0.014539 0.000000 0.000000 0.000000
# 4 0.000000 0.000000 0.000000 0.038986 0.000000 0.000000
# 5 0.000000 0.000000 0.000000 0.000000 0.037491 0.000000
# 6 0.000000 0.000000 0.000000 0.000000 0.000000 0.015082
#
#
# Mechanical properties :
#
#
# Convention : Reuss Voigt Hill
#
# Bulk Modulus (GPa) = 61.24553 61.81821 61.53187
# Shear Modulus (GPa) = 30.02888 34.45032 32.23960
#
# Velocity S-wave (km/s) = 4.37373 4.68467 4.53187
# Velocity P-wave (km/s) = 8.03254 8.28504 8.15977
#
# Compressibility (1/GPa) = 0.01632772
#
# Stress axis : x y z
#
# Youngs Moduli (GPa) = 67.28444 73.99276 68.77944
#
# Poissons Ratio (x) = 0.33351 0.26866
# Poissons Ratio (y) = 0.30327 0.33570
# Poissons Ratio (z) = 0.26282 0.36114
#
# Static dielectric constant tensor:
#      x y z
#    x 2.832580 0.000000 0.000000 
#    y 0.000000 3.133340 0.000000 
#    z 0.000000 0.000000 3.101420 
# 
# 
# High freq. dielectric constant tensor:
#      x y z
#    x 1.570790 0.000000 0.000000 
#    y 0.000000 1.596700 0.000000 
#    z 0.000000 0.000000 1.622940 
# 
# From -- ./inp_files/10158.got.cif
#   From: 2010.06.25/outbox.cif.g09.slc.cpg/sg71_6_cif.got.tgz:10158.got - 2010.06.28 04:59:45.
