data_PCOD8289044
_publ_section_title
;
Structure prediction by ZEFSAII (Michael W. Deem and Ramdas Pophale) SiO2 
 PCOD8289044
Probable space group: I M M M
;
_chemical_formula_sum "Si O2"
_cell_formula_units_Z 120
_cell_length_a 8.839633
_cell_length_b 25.767013
_cell_length_c 27.811709
_cell_angle_alpha 90.000000
_cell_angle_beta 90.000000
_cell_angle_gamma 90.000000
_cell_volume 6334.699058
_symmetry_space_group_name_H-M "I M M M"
_symmetry_group_IT_number 71
_symmetry_cell_setting 'orthorhombic'
loop_
_space_group_symop_operation_xyz
x,y,z
-x,-y,z
x,-y,-z
-x,y,-z
-x,-y,-z
x,y,-z
-x,y,z
x,-y,z
1/2+x,1/2+y,1/2+z
1/2-x,1/2-y,1/2+z
1/2+x,1/2-y,1/2-z
1/2-x,1/2+y,1/2-z
1/2-x,1/2-y,1/2-z
1/2+x,1/2+y,1/2-z
1/2-x,1/2+y,1/2+z
1/2+x,1/2-y,1/2+z
loop_
_atom_site_type_symbol
_atom_site_label
_atom_site_fract_x
_atom_site_fract_y
_atom_site_fract_z
Si Si1 0.335258 0.940582 0.744915
Si Si2 0.822047 0.302917 0.265655
Si Si3 0.324268 0.627746 0.815653
Si Si4 0.178613 0.360181 0.081977
Si Si5 0.178754 0.244624 0.947536
Si Si6 0.823087 0.167922 0.866108
Si Si7 0.325274 0.442352 0.342751
Si Si8 0.179104 0.559890 0.000000
O O1 0.500000 0.912276 0.739888
O O2 0.219472 0.930456 0.700302
O O3 0.263833 0.924608 0.795652
O O4 0.367906 0.000000 0.744474
O O5 0.750000 0.250000 0.250000
O O6 0.774740 0.343143 0.224643
O O7 0.762623 0.318418 0.317707
O O8 0.000000 0.296290 0.268235
O O9 0.500000 0.641245 0.811160
O O10 0.270851 0.637155 0.869184
O O11 0.223948 0.304528 0.060423
O O12 0.231678 0.407278 0.046930
O O13 0.000000 0.363954 0.091939
O O14 0.245674 0.204642 0.908132
O O15 0.000000 0.239630 0.946612
O O16 0.241571 0.228293 0.000000
O O17 0.799076 0.106188 0.879525
O O18 0.000000 0.179835 0.858517
O O19 0.500000 0.445647 0.328314
O O20 0.273754 0.500000 0.362402
O O21 0.243644 0.500000 0.000000
O O22 0.000000 0.557207 0.000000
#
# Coordination Sequence:
#
# PCOD8289044 Si02
#       8
#    16  16  16  16  16  16  16   8
#     4  10  20  34  53  77 106 145 191 233 272 322
#     4  12  24  38  55  78 113 150 187 233 285 345
#     4  12  24  37  54  80 115 152 189 230 286 344
#     4  10  19  35  58  81 108 145 191 240 293 346
#     4   9  17  32  56  83 107 138 183 234 282 335
#     4  10  19  32  54  82 110 144 189 233 280 339
#     4   9  17  30  49  74 108 148 185 225 274 329
#     4   9  18  34  59  87 111 141 190 252 308 355
#
# _framework density 18.943283999999998
#
# number of rings (size 3 to 8) (size 9 to 14) (size 15 to 20)
#    0.000    1.800    2.000    3.600    0.000    2.400 
#    0.000    1.667    0.000    2.000    0.000    2.800 
#    0.000    0.000    0.000    4.533    0.000    4.800 
#
# Total GULP energy -743288.380727 kJ/mol
# GULP energy per Si atom -12388.139679 kJ/mol
# Density = 1.890017 g / cm^3
# Si number density = 18.943284 Si / 1000 Ang^3
#
#
#
# Elastic Constant Matrix: (Units=GPa)
#
#
# Indices 1 2 3 4 5 6 
#
# 1 71.7255 36.3115 35.8865 0.0000 0.0000 0.0000
# 2 36.3115 126.5493 77.2777 0.0000 0.0000 0.0000
# 3 35.8865 77.2777 125.1626 0.0000 0.0000 0.0000
# 4 0.0000 0.0000 0.0000 33.0119 0.0000 0.0000
# 5 0.0000 0.0000 0.0000 0.0000 -21.9510 0.0000
# 6 0.0000 0.0000 0.0000 0.0000 0.0000 16.0465
#
#
#
# Elastic Compliance Matrix: (Units=1/GPa)
#
#
# Indices 1 2 3 4 5 6 
#
# 1 0.016979 -0.003049 -0.002986 0.000000 0.000000 0.000000
# 2 -0.003049 0.013232 -0.007295 0.000000 0.000000 0.000000
# 3 -0.002986 -0.007295 0.013350 0.000000 0.000000 0.000000
# 4 0.000000 0.000000 0.000000 0.030292 0.000000 0.000000
# 5 0.000000 0.000000 0.000000 0.000000 -0.045556 0.000000
# 6 0.000000 0.000000 0.000000 0.000000 0.000000 0.062319
#
#
# Mechanical properties :
#
#
# Convention : Reuss Voigt Hill
#
# Bulk Modulus (GPa) = 59.16764 69.15431 64.16098
# Shear Modulus (GPa) = 40.68002 17.01891 28.84947
#
# Velocity S-wave (km/s) = 4.63910 3.00061 3.90672
# Velocity P-wave (km/s) = 7.74577 6.97066 7.36841
#
# Compressibility (1/GPa) = 0.01690113
#
# Stress axis : x y z
#
# Youngs Moduli (GPa) = 58.89481 75.57552 74.90549
#
# Poissons Ratio (x) = 0.23039 0.22368
# Poissons Ratio (y) = 0.17954 0.54647
# Poissons Ratio (z) = 0.17587 0.55136
#
# Static dielectric constant tensor:
#      x y z
#    x 4.485500 0.000000 0.000000 
#    y 0.000000 3.822610 0.000000 
#    z 0.000000 0.000000 3.437160 
# 
# 
# High freq. dielectric constant tensor:
#      x y z
#    x 1.717370 0.000000 0.000000 
#    y 0.000000 1.758090 0.000000 
#    z 0.000000 0.000000 1.714500 
# 
# From -- ./inp_files/63779.got.cif
#   From: 2010.06.25/outbox.cif.g09.slc.cpg/sg71_32_cif.got.tgz:63779.got - 2010.06.28 04:59:45.
