data_PCOD8289891
_publ_section_title
;
Structure prediction by ZEFSAII (Michael W. Deem and Ramdas Pophale) SiO2 
 PCOD8289891
Probable space group: I M M M
;
_chemical_formula_sum "Si O2"
_cell_formula_units_Z 88
_cell_length_a 19.550973
_cell_length_b 30.510436
_cell_length_c 8.907166
_cell_angle_alpha 90.000000
_cell_angle_beta 90.000000
_cell_angle_gamma 90.000000
_cell_volume 5313.202104
_symmetry_space_group_name_H-M "I M M M"
_symmetry_group_IT_number 71
_symmetry_cell_setting 'orthorhombic'
loop_
_space_group_symop_operation_xyz
x,y,z
-x,-y,z
x,-y,-z
-x,y,-z
-x,-y,-z
x,y,-z
-x,y,z
x,-y,z
1/2+x,1/2+y,1/2+z
1/2-x,1/2-y,1/2+z
1/2+x,1/2-y,1/2-z
1/2-x,1/2+y,1/2-z
1/2-x,1/2-y,1/2-z
1/2+x,1/2+y,1/2-z
1/2-x,1/2+y,1/2+z
1/2+x,1/2-y,1/2+z
loop_
_atom_site_type_symbol
_atom_site_label
_atom_site_fract_x
_atom_site_fract_y
_atom_site_fract_z
Si Si1 0.500000 0.948025 0.667255
Si Si2 0.638224 0.049261 0.176461
Si Si3 0.708967 0.132652 0.169671
Si Si4 0.074748 0.316628 0.333362
Si Si5 0.712286 0.291929 0.823483
Si Si6 0.422713 0.271439 0.325301
O O1 0.500000 0.928188 0.500000
O O2 0.569125 0.932380 0.748469
O O3 0.500000 0.000000 0.665316
O O4 0.703501 0.081116 0.215113
O O5 0.656830 0.000000 0.231531
O O6 0.624613 0.050062 0.000000
O O7 0.629943 0.145927 0.181764
O O8 0.753121 0.161844 0.282163
O O9 0.737296 0.139036 0.000000
O O10 0.079254 0.294798 0.500000
O O11 0.087931 0.279703 0.209040
O O12 0.000000 0.337999 0.307984
O O13 0.750000 0.250000 0.750000
O O14 0.634038 0.297528 0.769246
O O15 0.715198 0.284658 0.000000
O O16 0.409392 0.279619 0.500000
O O17 0.500000 0.286298 0.280188
#
# Coordination Sequence:
#
# PCOD8289891 Si02
#       6
#     8  16  16  16  16  16
#     4   9  17  29  45  65  91 125 163 207 255 293
#     4   9  18  32  49  68  91 123 164 207 250 295
#     4  10  20  32  49  70  94 127 164 206 249 290
#     4   9  17  28  43  64  91 126 166 203 241 283
#     4  12  23  35  51  71  99 131 164 201 242 289
#     4  10  20  34  52  72  95 125 161 200 240 285
#
# _framework density 16.562515999999999
#
# number of rings (size 3 to 8) (size 9 to 14) (size 15 to 20)
#    0.000    2.091    1.818    2.455    1.273    2.909 
#    0.000    0.000    0.000    0.000    0.000    0.000 
#    0.000    0.727    0.000    8.364    0.000    2.364 
#
# Total GULP energy -545290.357650 kJ/mol
# GULP energy per Si atom -12392.962674 kJ/mol
# Density = 1.652482 g / cm^3
# Si number density = 16.562516 Si / 1000 Ang^3
#
#
#
# Elastic Constant Matrix: (Units=GPa)
#
#
# Indices 1 2 3 4 5 6 
#
# 1 80.6698 37.8656 40.5934 -0.0002 -0.0001 0.0000
# 2 37.8656 72.5176 31.9246 -0.0001 -0.0001 0.0000
# 3 40.5934 31.9246 87.2596 -0.0012 -0.0007 0.0000
# 4 -0.0002 -0.0001 -0.0012 18.0533 -0.0002 0.0000
# 5 -0.0001 -0.0001 -0.0007 -0.0002 24.0985 0.0000
# 6 0.0000 0.0000 0.0000 0.0000 0.0000 23.8647
#
#
#
# Elastic Compliance Matrix: (Units=1/GPa)
#
#
# Indices 1 2 3 4 5 6 
#
# 1 0.018840 -0.007127 -0.006157 0.000000 0.000000 0.000000
# 2 -0.007127 0.019133 -0.003685 0.000000 0.000000 0.000000
# 3 -0.006157 -0.003685 0.015672 0.000001 0.000000 0.000000
# 4 0.000000 0.000000 0.000001 0.055391 0.000000 0.000000
# 5 0.000000 0.000000 0.000000 0.000000 0.041496 0.000000
# 6 0.000000 0.000000 0.000000 0.000000 0.000000 0.041903
#
#
# Mechanical properties :
#
#
# Convention : Reuss Voigt Hill
#
# Bulk Modulus (GPa) = 50.73942 51.24603 50.99273
# Shear Modulus (GPa) = 21.46459 21.87420 21.66939
#
# Velocity S-wave (km/s) = 3.60387 3.63809 3.62102
# Velocity P-wave (km/s) = 6.92956 6.97537 6.95250
#
# Compressibility (1/GPa) = 0.01970854
#
# Stress axis : x y z
#
# Youngs Moduli (GPa) = 53.07969 52.26536 63.80688
#
# Poissons Ratio (x) = 0.37248 0.39285
# Poissons Ratio (y) = 0.37829 0.23510
# Poissons Ratio (z) = 0.32680 0.19258
#
# Static dielectric constant tensor:
#      x y z
#    x 3.152510 0.000000 0.000000 
#    y 0.000000 3.052100 0.000000 
#    z 0.000000 0.000000 3.217800 
# 
# 
# High freq. dielectric constant tensor:
#      x y z
#    x 1.617380 0.000000 0.000000 
#    y 0.000000 1.610280 0.000000 
#    z 0.000000 0.000000 1.641110 
# 
# From -- ./inp_files/11380.got.cif
#   From: 2010.06.25/outbox.cif.g09.slc.cpg/sg71_6_cif.got.tgz:11380.got - 2010.06.28 04:59:45.
