data_PCOD8289949
_publ_section_title
;
Structure prediction by ZEFSAII (Michael W. Deem and Ramdas Pophale) SiO2 
 PCOD8289949
Probable space group: I M M M
;
_chemical_formula_sum "Si O2"
_cell_formula_units_Z 112
_cell_length_a 9.489799
_cell_length_b 18.085890
_cell_length_c 35.579608
_cell_angle_alpha 90.000000
_cell_angle_beta 90.000000
_cell_angle_gamma 90.000000
_cell_volume 6106.580097
_symmetry_space_group_name_H-M "I M M M"
_symmetry_group_IT_number 71
_symmetry_cell_setting 'orthorhombic'
loop_
_space_group_symop_operation_xyz
x,y,z
-x,-y,z
x,-y,-z
-x,y,-z
-x,-y,-z
x,y,-z
-x,y,z
x,-y,z
1/2+x,1/2+y,1/2+z
1/2-x,1/2-y,1/2+z
1/2+x,1/2-y,1/2-z
1/2-x,1/2+y,1/2-z
1/2-x,1/2-y,1/2-z
1/2+x,1/2+y,1/2-z
1/2-x,1/2+y,1/2+z
1/2+x,1/2-y,1/2+z
loop_
_atom_site_type_symbol
_atom_site_label
_atom_site_fract_x
_atom_site_fract_y
_atom_site_fract_z
Si Si1 0.663814 0.163231 0.821822
Si Si2 0.667277 0.672880 0.541211
Si Si3 0.837663 0.661016 0.043359
Si Si4 0.163445 0.585972 0.755569
Si Si5 0.337787 0.584891 0.104900
Si Si6 0.666537 0.414754 0.613014
Si Si7 0.164445 0.165071 0.679980
O O1 0.500000 0.151022 0.831527
O O2 0.706978 0.122893 0.783592
O O3 0.756570 0.129732 0.854675
O O4 0.701334 0.248944 0.817598
O O5 0.725320 0.648369 0.500000
O O6 0.500000 0.673930 0.539421
O O7 0.719114 0.755812 0.550675
O O8 0.720566 0.616300 0.572892
O O9 0.749882 0.603998 0.067997
O O10 0.000000 0.654460 0.055236
O O11 0.817204 0.639137 0.000000
O O12 0.200351 0.500000 0.752915
O O13 0.252663 0.622322 0.788177
O O14 0.000000 0.599670 0.764381
O O15 0.500000 0.600832 0.095668
O O16 0.312196 0.500000 0.115878
O O17 0.285955 0.634739 0.139647
O O18 0.500000 0.403503 0.617654
O O19 0.709956 0.500000 0.615244
O O20 0.000000 0.149639 0.686351
#
# Coordination Sequence:
#
# PCOD8289949 Si02
#       7
#    16  16  16  16  16  16  16
#     4  10  21  37  56  77 104 139 174 209 255 307
#     4   8  15  30  51  74 102 134 167 209 259 302
#     4   9  18  33  53  75  98 129 171 213 251 297
#     4  10  21  36  54  78 107 137 169 206 254 311
#     4  10  21  35  50  72 103 134 164 204 256 307
#     4  10  20  32  50  79 108 135 173 215 253 300
#     4  10  21  37  57  79 102 133 175 217 255 299
#
# _framework density 18.340872000000001
#
# number of rings (size 3 to 8) (size 9 to 14) (size 15 to 20)
#    0.000    2.429    0.000    3.000    0.000    4.571 
#    0.000    2.857    0.000    1.286    0.000    1.000 
#    0.000    0.000    0.000    0.000    0.000    0.000 
#
# Total GULP energy -694506.484085 kJ/mol
# GULP energy per Si atom -12401.901502 kJ/mol
# Density = 1.829913 g / cm^3
# Si number density = 18.340872 Si / 1000 Ang^3
#
#
#
# Elastic Constant Matrix: (Units=GPa)
#
#
# Indices 1 2 3 4 5 6 
#
# 1 47.0626 43.5424 53.9527 0.0000 0.0000 0.0000
# 2 43.5424 115.1685 71.4066 0.0000 0.0000 0.0000
# 3 53.9527 71.4066 129.3435 0.0000 0.0000 0.0000
# 4 0.0000 0.0000 0.0000 -43.2656 0.0000 0.0000
# 5 0.0000 0.0000 0.0000 0.0000 22.2431 0.0000
# 6 0.0000 0.0000 0.0000 0.0000 0.0000 22.1865
#
#
#
# Elastic Compliance Matrix: (Units=1/GPa)
#
#
# Indices 1 2 3 4 5 6 
#
# 1 0.045333 -0.008233 -0.014364 0.000000 0.000000 0.000000
# 2 -0.008233 0.014697 -0.004680 0.000000 0.000000 0.000000
# 3 -0.014364 -0.004680 0.016307 0.000000 0.000000 0.000000
# 4 0.000000 0.000000 0.000000 -0.023113 0.000000 0.000000
# 5 0.000000 0.000000 0.000000 0.000000 0.044958 0.000000
# 6 0.000000 0.000000 0.000000 0.000000 0.000000 0.045073
#
#
# Mechanical properties :
#
#
# Convention : Reuss Voigt Hill
#
# Bulk Modulus (GPa) = 45.90841 69.93088 57.91964
# Shear Modulus (GPa) = 24.38211 8.41099 16.39655
#
# Velocity S-wave (km/s) = 3.65003 2.14380 2.99321
# Velocity P-wave (km/s) = 6.54589 6.65876 6.60256
#
# Compressibility (1/GPa) = 0.02178250
#
# Stress axis : x y z
#
# Youngs Moduli (GPa) = 22.05909 68.04079 61.32510
#
# Poissons Ratio (x) = 0.56018 0.88089
# Poissons Ratio (y) = 0.18161 0.28697
# Poissons Ratio (z) = 0.31686 0.31840
#
# Static dielectric constant tensor:
#      x y z
#    x 3.163610 0.000000 0.000000 
#    y 0.000000 3.547620 0.000000 
#    z 0.000000 0.000000 3.644310 
# 
# 
# High freq. dielectric constant tensor:
#      x y z
#    x 1.688920 0.000000 0.000000 
#    y 0.000000 1.722140 0.000000 
#    z 0.000000 0.000000 1.723040 
# 
# From -- ./inp_files/69329.got.cif
#   From: 2010.06.25/outbox.cif.g09.slc.cpg/sg71_35_cif.got.tgz:69329.got - 2010.06.28 04:59:45.
