data_PCOD8289769
_publ_section_title
;
Structure prediction by ZEFSAII (Michael W. Deem and Ramdas Pophale) SiO2 
 PCOD8289769
Probable space group: I M M M
;
_chemical_formula_sum "Si O2"
_cell_formula_units_Z 56
_cell_length_a 28.228119
_cell_length_b 14.731323
_cell_length_c 7.575092
_cell_angle_alpha 90.000000
_cell_angle_beta 90.000000
_cell_angle_gamma 90.000000
_cell_volume 3150.007612
_symmetry_space_group_name_H-M "I M M M"
_symmetry_group_IT_number 71
_symmetry_cell_setting 'orthorhombic'
loop_
_space_group_symop_operation_xyz
x,y,z
-x,-y,z
x,-y,-z
-x,y,-z
-x,-y,-z
x,y,-z
-x,y,z
x,-y,z
1/2+x,1/2+y,1/2+z
1/2-x,1/2-y,1/2+z
1/2+x,1/2-y,1/2-z
1/2-x,1/2+y,1/2-z
1/2-x,1/2-y,1/2-z
1/2+x,1/2+y,1/2-z
1/2-x,1/2+y,1/2+z
1/2+x,1/2-y,1/2+z
loop_
_atom_site_type_symbol
_atom_site_label
_atom_site_fract_x
_atom_site_fract_y
_atom_site_fract_z
Si Si1 0.945019 0.608214 0.500000
Si Si2 0.328322 0.000000 0.800353
Si Si3 0.878924 0.326503 0.800599
Si Si4 0.283045 0.500000 0.697222
Si Si5 0.702128 0.304078 0.292014
O O1 0.936542 0.500000 0.500000
O O2 0.923408 0.655539 0.326035
O O3 0.000000 0.631673 0.500000
O O4 0.345533 0.913747 0.692426
O O5 0.272888 0.000000 0.810566
O O6 0.349944 0.000000 0.000000
O O7 0.845308 0.246283 0.724206
O O8 0.897067 0.305986 0.000000
O O9 0.304227 0.500000 0.500000
O O10 0.298617 0.405935 0.793540
O O11 0.700109 0.313688 0.500000
O O12 0.750000 0.250000 0.250000
#
# Coordination Sequence:
#
# PCOD8289769 Si02
#       5
#     8   8  16   8  16
#     4  11  24  40  58  79 105 141 183 228 279 329
#     4  11  17  29  51  73 108 151 180 211 260 312
#     4  11  21  34  54  78 106 144 182 220 267 319
#     4   9  18  31  47  71 107 149 189 219 248 309
#     4  10  20  31  49  74 105 145 184 218 259 315
#
# _framework density 17.777735
#
# number of rings (size 3 to 8) (size 9 to 14) (size 15 to 20)
#    0.000    1.571    5.714    0.429    2.000    0.571 
#    0.000    2.143    0.000    0.000    0.000    2.000 
#    0.000    5.714    0.000    0.000    0.000    0.000 
#
# Total GULP energy -346958.941965 kJ/mol
# GULP energy per Si atom -12391.390784 kJ/mol
# Density = 1.773727 g / cm^3
# Si number density = 17.777735 Si / 1000 Ang^3
#
#
#
# Elastic Constant Matrix: (Units=GPa)
#
#
# Indices 1 2 3 4 5 6 
#
# 1 117.3150 64.6565 44.7537 0.0000 0.0000 0.0000
# 2 64.6565 151.1582 15.6436 0.0000 0.0000 0.0000
# 3 44.7537 15.6436 69.4708 0.0000 0.0000 0.0000
# 4 0.0000 0.0000 0.0000 17.2929 0.0000 0.0000
# 5 0.0000 0.0000 0.0000 0.0000 16.3688 0.0000
# 6 0.0000 0.0000 0.0000 0.0000 0.0000 27.5944
#
#
#
# Elastic Compliance Matrix: (Units=1/GPa)
#
#
# Indices 1 2 3 4 5 6 
#
# 1 0.014640 -0.005412 -0.008212 0.000000 0.000000 0.000000
# 2 -0.005412 0.008774 0.001511 0.000000 0.000000 0.000000
# 3 -0.008212 0.001511 0.019345 0.000000 0.000000 0.000000
# 4 0.000000 0.000000 0.000000 0.057827 0.000000 0.000000
# 5 0.000000 0.000000 0.000000 0.000000 0.061092 0.000000
# 6 0.000000 0.000000 0.000000 0.000000 0.000000 0.036239
#
#
# Mechanical properties :
#
#
# Convention : Reuss Voigt Hill
#
# Bulk Modulus (GPa) = 53.96265 65.33908 59.65086
# Shear Modulus (GPa) = 21.89894 26.44391 24.17142
#
# Velocity S-wave (km/s) = 3.51353 3.86096 3.69134
# Velocity P-wave (km/s) = 6.84689 7.53055 7.19684
#
# Compressibility (1/GPa) = 0.01853134
#
# Stress axis : x y z
#
# Youngs Moduli (GPa) = 68.30724 113.97030 51.69342
#
# Poissons Ratio (x) = 0.61682 0.42452
# Poissons Ratio (y) = 0.36969 -0.07810
# Poissons Ratio (z) = 0.56096 -0.17218
#
# Static dielectric constant tensor:
#      x y z
#    x 3.090130 0.000000 0.000000 
#    y 0.000000 3.913410 0.000000 
#    z 0.000000 0.000000 3.328450 
# 
# 
# High freq. dielectric constant tensor:
#      x y z
#    x 1.650680 0.000000 0.000000 
#    y 0.000000 1.689280 0.000000 
#    z 0.000000 0.000000 1.685580 
# 
# From -- ./inp_files/16273.got.cif
#   From: 2010.06.25/outbox.cif.g09.slc.cpg/sg71_9_cif.got.tgz:16273.got - 2010.06.28 04:59:45.
