data_PCOD8289003
_publ_section_title
;
Structure prediction by ZEFSAII (Michael W. Deem and Ramdas Pophale) SiO2 
 PCOD8289003
Probable space group: I M M M
;
_chemical_formula_sum "Si O2"
_cell_formula_units_Z 96
_cell_length_a 25.086367
_cell_length_b 24.287049
_cell_length_c 8.478156
_cell_angle_alpha 90.000000
_cell_angle_beta 90.000000
_cell_angle_gamma 90.000000
_cell_volume 5165.518531
_symmetry_space_group_name_H-M "I M M M"
_symmetry_group_IT_number 71
_symmetry_cell_setting 'orthorhombic'
loop_
_space_group_symop_operation_xyz
x,y,z
-x,-y,z
x,-y,-z
-x,y,-z
-x,-y,-z
x,y,-z
-x,y,z
x,-y,z
1/2+x,1/2+y,1/2+z
1/2-x,1/2-y,1/2+z
1/2+x,1/2-y,1/2-z
1/2-x,1/2+y,1/2-z
1/2-x,1/2-y,1/2-z
1/2+x,1/2+y,1/2-z
1/2-x,1/2+y,1/2+z
1/2+x,1/2-y,1/2+z
loop_
_atom_site_type_symbol
_atom_site_label
_atom_site_fract_x
_atom_site_fract_y
_atom_site_fract_z
Si Si1 0.108952 0.105514 0.814782
Si Si2 0.225921 0.500000 0.680150
Si Si3 0.163861 0.000000 0.317942
Si Si4 0.309424 0.309923 0.185486
Si Si5 0.500000 0.563386 0.813707
Si Si6 0.304044 0.183796 0.815738
Si Si7 0.441599 0.000000 0.314757
Si Si8 0.146754 0.417216 0.184220
O O1 0.137832 0.158924 0.743179
O O2 0.050371 0.098042 0.744328
O O3 0.143204 0.052832 0.772134
O O4 0.104531 0.113043 0.000000
O O5 0.246602 0.500000 0.500000
O O6 0.273022 0.500000 0.806533
O O7 0.192130 0.554483 0.711528
O O8 0.144961 0.000000 0.500000
O O9 0.316073 0.246316 0.234220
O O10 0.255903 0.333707 0.266038
O O11 0.302590 0.317623 0.000000
O O12 0.500000 0.500000 0.747735
O O13 0.500000 0.560987 0.000000
O O14 0.348786 0.147323 0.725496
O O15 0.310828 0.174687 0.000000
O O16 0.409709 0.944439 0.265128
O O17 0.500000 0.000000 0.232523
O O18 0.449474 0.000000 0.500000
O O19 0.156850 0.428203 0.000000
#
# Coordination Sequence:
#
# PCOD8289003 Si02
#       8
#    16   8   8  16   8  16   8  16
#     4  12  24  38  58  83 110 141 184 233 277 324
#     4  11  21  33  49  75 111 145 178 220 270 326
#     4  12  23  36  53  76 109 144 180 221 271 332
#     4  10  21  37  57  81 111 148 186 224 270 326
#     4  11  23  41  63  83 108 146 186 227 280 335
#     4  10  20  35  56  82 113 147 183 222 269 325
#     4   8  16  32  54  79 104 135 178 220 265 314
#     4  10  19  32  53  79 108 142 177 220 271 327
#
# _framework density 18.584775
#
# number of rings (size 3 to 8) (size 9 to 14) (size 15 to 20)
#    0.000    1.500    0.833    6.250    0.000    2.333 
#    0.000    0.000    1.833    9.000    0.000    0.000 
#    0.000    0.000    0.000    0.000    0.000    0.000 
#
# Total GULP energy -595239.024477 kJ/mol
# GULP energy per Si atom -12400.813010 kJ/mol
# Density = 1.854248 g / cm^3
# Si number density = 18.584775 Si / 1000 Ang^3
#
#
#
# Elastic Constant Matrix: (Units=GPa)
#
#
# Indices 1 2 3 4 5 6 
#
# 1 138.7985 66.4114 17.7665 0.0000 0.0000 0.0000
# 2 66.4114 109.5703 29.1456 0.0000 0.0000 0.0000
# 3 17.7665 29.1456 60.3747 0.0000 0.0000 0.0000
# 4 0.0000 0.0000 0.0000 33.7038 0.0000 0.0000
# 5 0.0000 0.0000 0.0000 0.0000 25.0382 0.0000
# 6 0.0000 0.0000 0.0000 0.0000 0.0000 -21.8787
#
#
#
# Elastic Compliance Matrix: (Units=1/GPa)
#
#
# Indices 1 2 3 4 5 6 
#
# 1 0.010148 -0.006145 -0.000019 0.000000 0.000000 0.000000
# 2 -0.006145 0.014193 -0.005043 0.000000 0.000000 0.000000
# 3 -0.000019 -0.005043 0.019003 0.000000 0.000000 0.000000
# 4 0.000000 0.000000 0.000000 0.029670 0.000000 0.000000
# 5 0.000000 0.000000 0.000000 0.000000 0.039939 0.000000
# 6 0.000000 0.000000 0.000000 0.000000 0.000000 -0.045707
#
#
# Mechanical properties :
#
#
# Convention : Reuss Voigt Hill
#
# Bulk Modulus (GPa) = 47.78299 59.48785 53.63542
# Shear Modulus (GPa) = 51.73929 20.40065 36.06997
#
# Velocity S-wave (km/s) = 5.28205 3.31676 4.41027
# Velocity P-wave (km/s) = 7.93516 6.83713 7.40652
#
# Compressibility (1/GPa) = 0.02092795
#
# Stress axis : x y z
#
# Youngs Moduli (GPa) = 98.54576 70.45842 52.62191
#
# Poissons Ratio (x) = 0.43299 0.00103
# Poissons Ratio (y) = 0.60560 0.26538
# Poissons Ratio (z) = 0.00192 0.35533
#
# Static dielectric constant tensor:
#      x y z
#    x 3.521320 0.000000 0.000000 
#    y 0.000000 3.542710 0.000000 
#    z 0.000000 0.000000 3.388360 
# 
# 
# High freq. dielectric constant tensor:
#      x y z
#    x 1.708550 0.000000 0.000000 
#    y 0.000000 1.721120 0.000000 
#    z 0.000000 0.000000 1.729530 
# 
# From -- ./inp_files/12964.got.cif
#   From: 2010.06.25/outbox.cif.g09.slc.cpg/sg71_7_cif.got.tgz:12964.got - 2010.06.28 04:59:45.
