data_PCOD8289034
_publ_section_title
;
Structure prediction by ZEFSAII (Michael W. Deem and Ramdas Pophale) SiO2 
 PCOD8289034
Probable space group: I M M M
;
_chemical_formula_sum "Si O2"
_cell_formula_units_Z 64
_cell_length_a 26.029433
_cell_length_b 8.876312
_cell_length_c 14.830011
_cell_angle_alpha 90.000000
_cell_angle_beta 90.000000
_cell_angle_gamma 90.000000
_cell_volume 3426.405356
_symmetry_space_group_name_H-M "I M M M"
_symmetry_group_IT_number 71
_symmetry_cell_setting 'orthorhombic'
loop_
_space_group_symop_operation_xyz
x,y,z
-x,-y,z
x,-y,-z
-x,y,-z
-x,-y,-z
x,y,-z
-x,y,z
x,-y,z
1/2+x,1/2+y,1/2+z
1/2-x,1/2-y,1/2+z
1/2+x,1/2-y,1/2-z
1/2-x,1/2+y,1/2-z
1/2-x,1/2-y,1/2-z
1/2+x,1/2+y,1/2-z
1/2-x,1/2+y,1/2+z
1/2+x,1/2-y,1/2+z
loop_
_atom_site_type_symbol
_atom_site_label
_atom_site_fract_x
_atom_site_fract_y
_atom_site_fract_z
Si Si1 0.390936 0.178678 0.671609
Si Si2 0.870496 0.821648 0.641402
Si Si3 0.826779 0.320996 0.000000
Si Si4 0.787495 0.177568 0.500000
Si Si5 0.439553 0.827159 0.000000
Si Si6 0.000000 0.678664 0.898680
O O1 0.367505 0.258588 0.758395
O O2 0.356805 0.235231 0.588064
O O3 0.449551 0.232526 0.655196
O O4 0.388059 0.000000 0.684456
O O5 0.818580 0.771735 0.589192
O O6 0.919230 0.752517 0.590100
O O7 0.876750 0.000000 0.642446
O O8 0.769384 0.250159 0.000000
O O9 0.825263 0.500000 0.000000
O O10 0.781621 0.000000 0.500000
O O11 0.500000 0.811857 0.000000
O O12 0.421615 0.000000 0.000000
O O13 0.000000 0.500000 0.907114
O O14 0.000000 0.746697 0.000000
#
# Coordination Sequence:
#
# PCOD8289034 Si02
#       6
#    16  16   8   8   8   8
#     4  10  19  32  54  81 106 136 180 225 264 312
#     4  10  21  36  53  76 111 145 172 210 267 328
#     4   9  17  32  56  80 101 136 187 231 265 306
#     4   8  17  35  54  73 103 141 177 222 270 310
#     4  10  21  37  57  79 102 133 179 228 263 302
#     4   9  16  30  51  76 105 134 169 221 272 304
#
# _framework density 18.678467999999999
#
# number of rings (size 3 to 8) (size 9 to 14) (size 15 to 20)
#    0.000    2.500    1.250    1.875    1.750    2.000 
#    0.000    0.625    0.000    8.250    0.000    0.000 
#    0.000    0.000    0.000    0.000    0.000    0.000 
#
# Total GULP energy -396785.015097 kJ/mol
# GULP energy per Si atom -12399.531722 kJ/mol
# Density = 1.863595 g / cm^3
# Si number density = 18.678468 Si / 1000 Ang^3
#
#
#
# Elastic Constant Matrix: (Units=GPa)
#
#
# Indices 1 2 3 4 5 6 
#
# 1 159.6336 38.4564 84.7651 0.0000 0.0000 0.0000
# 2 38.4564 55.0299 45.1743 0.0000 0.0000 0.0000
# 3 84.7651 45.1743 180.5490 0.0000 0.0000 0.0000
# 4 0.0000 0.0000 0.0000 24.3710 0.0000 0.0000
# 5 0.0000 0.0000 0.0000 0.0000 16.7034 0.0000
# 6 0.0000 0.0000 0.0000 0.0000 0.0000 14.9297
#
#
#
# Elastic Compliance Matrix: (Units=1/GPa)
#
#
# Indices 1 2 3 4 5 6 
#
# 1 0.008847 -0.003490 -0.003280 0.000000 0.000000 0.000000
# 2 -0.003490 0.024246 -0.004428 0.000000 0.000000 0.000000
# 3 -0.003280 -0.004428 0.008187 0.000000 0.000000 0.000000
# 4 0.000000 0.000000 0.000000 0.041032 0.000000 0.000000
# 5 0.000000 0.000000 0.000000 0.000000 0.059868 0.000000
# 6 0.000000 0.000000 0.000000 0.000000 0.000000 0.066981
#
#
# Mechanical properties :
#
#
# Convention : Reuss Voigt Hill
#
# Bulk Modulus (GPa) = 52.95739 81.33378 67.14558
# Shear Modulus (GPa) = 21.02161 26.32194 23.67178
#
# Velocity S-wave (km/s) = 3.35841 3.75802 3.56382
# Velocity P-wave (km/s) = 6.59183 7.90373 7.27740
#
# Compressibility (1/GPa) = 0.01888311
#
# Stress axis : x y z
#
# Youngs Moduli (GPa) = 113.03446 41.24467 122.14977
#
# Poissons Ratio (x) = 0.14393 0.40070
# Poissons Ratio (y) = 0.39444 0.54089
# Poissons Ratio (z) = 0.37079 0.18263
#
# Static dielectric constant tensor:
#      x y z
#    x 3.726550 0.000000 0.000000 
#    y 0.000000 3.091450 0.000000 
#    z 0.000000 0.000000 3.552200 
# 
# 
# High freq. dielectric constant tensor:
#      x y z
#    x 1.732210 0.000000 0.000000 
#    y 0.000000 1.689060 0.000000 
#    z 0.000000 0.000000 1.733760 
# 
# From -- ./inp_files/5640.got.cif
#   From: 2010.06.25/outbox.cif.g09.slc.cpg/sg71_3_cif.got.tgz:5640.got - 2010.06.28 04:59:45.
