data_PCOD8289415
_publ_section_title
;
Structure prediction by ZEFSAII (Michael W. Deem and Ramdas Pophale) SiO2 
 PCOD8289415
Probable space group: I M M M
;
_chemical_formula_sum "Si O2"
_cell_formula_units_Z 80
_cell_length_a 18.227718
_cell_length_b 9.217763
_cell_length_c 24.802600
_cell_angle_alpha 90.000000
_cell_angle_beta 90.000000
_cell_angle_gamma 90.000000
_cell_volume 4167.302706
_symmetry_space_group_name_H-M "I M M M"
_symmetry_group_IT_number 71
_symmetry_cell_setting 'orthorhombic'
loop_
_space_group_symop_operation_xyz
x,y,z
-x,-y,z
x,-y,-z
-x,y,-z
-x,-y,-z
x,y,-z
-x,y,z
x,-y,z
1/2+x,1/2+y,1/2+z
1/2-x,1/2-y,1/2+z
1/2+x,1/2-y,1/2-z
1/2-x,1/2+y,1/2-z
1/2-x,1/2-y,1/2-z
1/2+x,1/2+y,1/2-z
1/2-x,1/2+y,1/2+z
1/2+x,1/2-y,1/2+z
loop_
_atom_site_type_symbol
_atom_site_label
_atom_site_fract_x
_atom_site_fract_y
_atom_site_fract_z
Si Si1 0.312867 0.333488 0.718068
Si Si2 0.153575 0.667321 0.405323
Si Si3 0.416311 0.665467 0.187862
Si Si4 0.178701 0.167087 0.901301
Si Si5 0.085352 0.159137 0.500000
Si Si6 0.415795 0.326528 0.500000
O O1 0.286019 0.500000 0.711228
O O2 0.250000 0.250000 0.750000
O O3 0.389014 0.324670 0.750593
O O4 0.328343 0.263818 0.658782
O O5 0.130655 0.500000 0.406006
O O6 0.136776 0.731945 0.346657
O O7 0.238185 0.687396 0.421380
O O8 0.104993 0.752572 0.447311
O O9 0.500000 0.720295 0.185085
O O10 0.410281 0.500000 0.166679
O O11 0.124565 0.237091 0.946258
O O12 0.156892 0.000000 0.896258
O O13 0.000000 0.135476 0.500000
O O14 0.123614 0.000000 0.500000
O O15 0.409604 0.500000 0.500000
O O16 0.500000 0.274074 0.500000
#
# Coordination Sequence:
#
# PCOD8289415 Si02
#       6
#    16  16  16  16   8   8
#     4  10  19  34  55  78 109 146 186 229 275 329
#     4  11  21  35  56  79 107 142 182 227 274 329
#     4  10  21  35  52  78 112 146 181 228 282 332
#     4   9  18  32  52  79 109 141 180 229 275 323
#     4  11  24  39  53  73 106 143 180 224 272 325
#     4   9  17  30  50  78 112 145 178 224 284 339
#
# _framework density 19.19707
#
# number of rings (size 3 to 8) (size 9 to 14) (size 15 to 20)
#    0.000    2.000    2.000    2.100    0.000    6.000 
#    0.000    4.000    0.000    0.000    0.000    0.000 
#    0.000   18.800    0.000    0.000    0.000    0.000 
#
# Total GULP energy -495920.965401 kJ/mol
# GULP energy per Si atom -12398.024135 kJ/mol
# Density = 1.915338 g / cm^3
# Si number density = 19.197070 Si / 1000 Ang^3
#
#
#
# Elastic Constant Matrix: (Units=GPa)
#
#
# Indices 1 2 3 4 5 6 
#
# 1 101.6117 32.6247 57.2489 0.0000 0.0000 0.0000
# 2 32.6247 71.3293 37.4568 0.0000 0.0000 0.0000
# 3 57.2489 37.4568 153.8832 0.0000 0.0000 0.0000
# 4 0.0000 0.0000 0.0000 -48.1102 0.0000 0.0000
# 5 0.0000 0.0000 0.0000 0.0000 33.5075 0.0000
# 6 0.0000 0.0000 0.0000 0.0000 0.0000 18.8314
#
#
#
# Elastic Compliance Matrix: (Units=1/GPa)
#
#
# Indices 1 2 3 4 5 6 
#
# 1 0.013387 -0.004022 -0.004001 0.000000 0.000000 0.000000
# 2 -0.004022 0.017282 -0.002710 0.000000 0.000000 0.000000
# 3 -0.004001 -0.002710 0.008647 0.000000 0.000000 0.000000
# 4 0.000000 0.000000 0.000000 -0.020786 0.000000 0.000000
# 5 0.000000 0.000000 0.000000 0.000000 0.029844 0.000000
# 6 0.000000 0.000000 0.000000 0.000000 0.000000 0.053103
#
#
# Mechanical properties :
#
#
# Convention : Reuss Voigt Hill
#
# Bulk Modulus (GPa) = 56.02593 64.60946 60.31770
# Shear Modulus (GPa) = 38.79139 14.14532 26.46836
#
# Velocity S-wave (km/s) = 4.50009 2.71744 3.71721
# Velocity P-wave (km/s) = 7.49994 6.60113 7.06484
#
# Compressibility (1/GPa) = 0.01784888
#
# Stress axis : x y z
#
# Youngs Moduli (GPa) = 74.69866 57.86266 115.64908
#
# Poissons Ratio (x) = 0.23271 0.46276
# Poissons Ratio (y) = 0.30042 0.31346
# Poissons Ratio (z) = 0.29890 0.15684
#
# Static dielectric constant tensor:
#      x y z
#    x 3.454120 0.000000 0.000000 
#    y 0.000000 3.272850 0.000000 
#    z 0.000000 0.000000 4.051810 
# 
# 
# High freq. dielectric constant tensor:
#      x y z
#    x 1.743630 0.000000 0.000000 
#    y 0.000000 1.710670 0.000000 
#    z 0.000000 0.000000 1.763430 
# 
# From -- ./inp_files/65840.got.cif
#   From: 2010.06.25/outbox.cif.g09.slc.cpg/sg71_33_cif.got.tgz:65840.got - 2010.06.28 04:59:45.
