data_PCOD8289751
_publ_section_title
;
Structure prediction by ZEFSAII (Michael W. Deem and Ramdas Pophale) SiO2 
 PCOD8289751
Probable space group: I M M M
;
_chemical_formula_sum "Si O2"
_cell_formula_units_Z 96
_cell_length_a 27.219469
_cell_length_b 15.594455
_cell_length_c 12.786626
_cell_angle_alpha 90.000000
_cell_angle_beta 90.000000
_cell_angle_gamma 90.000000
_cell_volume 5427.574742
_symmetry_space_group_name_H-M "I M M M"
_symmetry_group_IT_number 71
_symmetry_cell_setting 'orthorhombic'
loop_
_space_group_symop_operation_xyz
x,y,z
-x,-y,z
x,-y,-z
-x,y,-z
-x,-y,-z
x,y,-z
-x,y,z
x,-y,z
1/2+x,1/2+y,1/2+z
1/2-x,1/2-y,1/2+z
1/2+x,1/2-y,1/2-z
1/2-x,1/2+y,1/2-z
1/2-x,1/2-y,1/2-z
1/2+x,1/2+y,1/2-z
1/2-x,1/2+y,1/2+z
1/2+x,1/2-y,1/2+z
loop_
_atom_site_type_symbol
_atom_site_label
_atom_site_fract_x
_atom_site_fract_y
_atom_site_fract_z
Si Si1 0.904844 0.000000 0.122303
Si Si2 0.441749 0.903780 0.500000
Si Si3 0.308676 0.500000 0.746762
Si Si4 0.053993 0.138713 0.734565
Si Si5 0.289873 0.000000 0.119828
Si Si6 0.137918 0.344453 0.620888
Si Si7 0.944686 0.665304 0.781069
Si Si8 0.849715 0.850330 0.379801
O O1 0.932293 0.917191 0.165651
O O2 0.847774 0.000000 0.153459
O O3 0.909717 0.000000 0.000000
O O4 0.500000 0.898793 0.500000
O O5 0.422111 0.859594 0.605933
O O6 0.421800 0.000000 0.500000
O O7 0.255066 0.500000 0.698539
O O8 0.314411 0.413076 0.814586
O O9 0.053974 0.233482 0.778373
O O10 0.093315 0.125224 0.641897
O O11 0.000000 0.114028 0.690724
O O12 0.320641 0.085595 0.142967
O O13 0.271629 0.000000 0.000000
O O14 0.121012 0.345168 0.500000
O O15 0.090455 0.370032 0.689529
O O16 0.158925 0.249776 0.650511
O O17 0.000000 0.627409 0.765228
O O18 0.837922 0.867142 0.500000
#
# Coordination Sequence:
#
# PCOD8289751 Si02
#       8
#     8   8   8  16   8  16  16  16
#     4  10  20  31  46  68  98 132 170 212 249 292
#     4   9  18  30  46  67  93 139 183 208 242 288
#     4  10  20  35  55  75  96 130 170 212 255 312
#     4   9  18  30  46  75 105 135 170 202 243 292
#     4  10  21  37  57  77  99 130 167 214 264 309
#     4   9  19  35  55  80 106 134 168 210 260 303
#     4   9  18  32  51  74 105 140 174 207 244 300
#     4   9  18  34  55  77 104 135 165 204 251 303
#
# _framework density 17.687457999999999
#
# number of rings (size 3 to 8) (size 9 to 14) (size 15 to 20)
#    0.000    2.750    0.000    0.750    2.333    2.000 
#    0.000    3.333    3.667    4.500    0.000    0.000 
#    0.000    0.000    0.000    0.000    0.000    0.000 
#
# Total GULP energy -595052.112656 kJ/mol
# GULP energy per Si atom -12396.919014 kJ/mol
# Density = 1.764720 g / cm^3
# Si number density = 17.687458 Si / 1000 Ang^3
#
#
#
# Elastic Constant Matrix: (Units=GPa)
#
#
# Indices 1 2 3 4 5 6 
#
# 1 109.0173 54.4384 64.9731 0.0000 0.0000 0.0000
# 2 54.4384 81.4840 45.7638 0.0000 0.0000 0.0000
# 3 64.9731 45.7638 99.8653 0.0000 0.0000 0.0000
# 4 0.0000 0.0000 0.0000 24.8905 0.0000 0.0000
# 5 0.0000 0.0000 0.0000 0.0000 26.0545 0.0000
# 6 0.0000 0.0000 0.0000 0.0000 0.0000 20.1522
#
#
#
# Elastic Compliance Matrix: (Units=1/GPa)
#
#
# Indices 1 2 3 4 5 6 
#
# 1 0.017639 -0.007189 -0.008181 0.000000 0.000000 0.000000
# 2 -0.007189 0.019456 -0.004238 0.000000 0.000000 0.000000
# 3 -0.008181 -0.004238 0.017279 0.000000 0.000000 0.000000
# 4 0.000000 0.000000 0.000000 0.040176 0.000000 0.000000
# 5 0.000000 0.000000 0.000000 0.000000 0.038381 0.000000
# 6 0.000000 0.000000 0.000000 0.000000 0.000000 0.049622
#
#
# Mechanical properties :
#
#
# Convention : Reuss Voigt Hill
#
# Bulk Modulus (GPa) = 65.98410 68.96855 67.47632
# Shear Modulus (GPa) = 22.04362 22.56551 22.30456
#
# Velocity S-wave (km/s) = 3.53411 3.57570 3.55496
# Velocity P-wave (km/s) = 7.35118 7.49166 7.42175
#
# Compressibility (1/GPa) = 0.01515517
#
# Stress axis : x y z
#
# Youngs Moduli (GPa) = 56.69261 51.39845 57.87503
#
# Poissons Ratio (x) = 0.36953 0.47350
# Poissons Ratio (y) = 0.40759 0.24529
# Poissons Ratio (z) = 0.46383 0.21784
#
# Static dielectric constant tensor:
#      x y z
#    x 3.162940 0.000000 0.000000 
#    y 0.000000 3.554230 0.000000 
#    z 0.000000 0.000000 3.244720 
# 
# 
# High freq. dielectric constant tensor:
#      x y z
#    x 1.659310 0.000000 0.000000 
#    y 0.000000 1.697450 0.000000 
#    z 0.000000 0.000000 1.681330 
# 
# From -- ./inp_files/30012.got.cif
#   From: 2010.06.25/outbox.cif.g09.slc.cpg/sg71_16_cif.got.tgz:30012.got - 2010.06.28 04:59:45.
