data_PCOD8289770
_publ_section_title
;
Structure prediction by ZEFSAII (Michael W. Deem and Ramdas Pophale) SiO2 
 PCOD8289770
Probable space group: I M M M
;
_chemical_formula_sum "Si O2"
_cell_formula_units_Z 88
_cell_length_a 9.070550
_cell_length_b 14.888267
_cell_length_c 35.192510
_cell_angle_alpha 90.000000
_cell_angle_beta 90.000000
_cell_angle_gamma 90.000000
_cell_volume 4752.564427
_symmetry_space_group_name_H-M "I M M M"
_symmetry_group_IT_number 71
_symmetry_cell_setting 'orthorhombic'
loop_
_space_group_symop_operation_xyz
x,y,z
-x,-y,z
x,-y,-z
-x,y,-z
-x,-y,-z
x,y,-z
-x,y,z
x,-y,z
1/2+x,1/2+y,1/2+z
1/2-x,1/2-y,1/2+z
1/2+x,1/2-y,1/2-z
1/2-x,1/2+y,1/2-z
1/2-x,1/2-y,1/2-z
1/2+x,1/2+y,1/2-z
1/2-x,1/2+y,1/2+z
1/2+x,1/2-y,1/2+z
loop_
_atom_site_type_symbol
_atom_site_label
_atom_site_fract_x
_atom_site_fract_y
_atom_site_fract_z
Si Si1 0.158458 0.500000 0.544370
Si Si2 0.173232 0.104178 0.170937
Si Si3 0.325027 0.807839 0.041637
Si Si4 0.834140 0.393325 0.253451
Si Si5 0.172272 0.897761 0.678753
Si Si6 0.327434 0.753122 0.878809
O O1 0.128646 0.500000 0.500000
O O2 0.243167 0.593838 0.553467
O O3 0.000000 0.500000 0.565987
O O4 0.245796 0.140567 0.209843
O O5 0.237641 0.162045 0.136646
O O6 0.000000 0.118635 0.174290
O O7 0.212948 0.000000 0.163457
O O8 0.500000 0.819613 0.038219
O O9 0.286464 0.740314 0.076274
O O10 0.264421 0.774920 0.000000
O O11 0.831960 0.500000 0.252435
O O12 0.756411 0.357503 0.215266
O O13 0.000000 0.355383 0.255358
O O14 0.217356 0.838617 0.642307
O O15 0.000000 0.892148 0.687828
O O16 0.220001 0.000000 0.669813
O O17 0.500000 0.773590 0.873407
#
# Coordination Sequence:
#
# PCOD8289770 Si02
#       6
#     8  16  16  16  16  16
#     4   7  10  18  34  58  87 117 145 179 227 271
#     4  10  21  35  49  69 102 137 160 188 240 296
#     4   8  14  25  42  67  97 124 155 197 240 280
#     4   9  17  31  52  74  94 123 166 207 238 277
#     4   9  18  33  50  69  97 129 161 201 250 296
#     4  10  20  31  49  75  96 125 167 206 242 281
#
# _framework density 18.516317999999998
#
# number of rings (size 3 to 8) (size 9 to 14) (size 15 to 20)
#    0.000    3.000    0.000    2.182    1.273    4.727 
#    0.000    0.000    0.000    1.091    0.000    5.091 
#    0.000    0.000    0.000    6.182    0.000    6.545 
#
# Total GULP energy -545178.546743 kJ/mol
# GULP energy per Si atom -12390.421517 kJ/mol
# Density = 1.847417 g / cm^3
# Si number density = 18.516318 Si / 1000 Ang^3
#
#
#
# Elastic Constant Matrix: (Units=GPa)
#
#
# Indices 1 2 3 4 5 6 
#
# 1 56.3740 26.2450 38.4253 0.0000 0.0000 0.0000
# 2 26.2450 55.2515 51.0705 0.0000 0.0000 0.0000
# 3 38.4253 51.0705 158.3231 0.0000 0.0000 0.0000
# 4 0.0000 0.0000 0.0000 30.2118 0.0000 0.0000
# 5 0.0000 0.0000 0.0000 0.0000 16.1115 0.0000
# 6 0.0000 0.0000 0.0000 0.0000 0.0000 16.1362
#
#
#
# Elastic Compliance Matrix: (Units=1/GPa)
#
#
# Indices 1 2 3 4 5 6 
#
# 1 0.023752 -0.008483 -0.003028 0.000000 0.000000 0.000000
# 2 -0.008483 0.028818 -0.007237 0.000000 0.000000 0.000000
# 3 -0.003028 -0.007237 0.009386 0.000000 0.000000 0.000000
# 4 0.000000 0.000000 0.000000 0.033100 0.000000 0.000000
# 5 0.000000 0.000000 0.000000 0.000000 0.062068 0.000000
# 6 0.000000 0.000000 0.000000 0.000000 0.000000 0.061972
#
#
# Mechanical properties :
#
#
# Convention : Reuss Voigt Hill
#
# Bulk Modulus (GPa) = 40.88529 55.71445 48.29987
# Shear Modulus (GPa) = 18.88606 22.77242 20.82924
#
# Velocity S-wave (km/s) = 3.19716 3.51074 3.35761
# Velocity P-wave (km/s) = 5.97978 6.82557 6.41662
#
# Compressibility (1/GPa) = 0.02445868
#
# Stress axis : x y z
#
# Youngs Moduli (GPa) = 42.10132 34.70045 106.54664
#
# Poissons Ratio (x) = 0.29438 0.32264
# Poissons Ratio (y) = 0.35717 0.77107
# Poissons Ratio (z) = 0.12749 0.25112
#
# Static dielectric constant tensor:
#      x y z
#    x 3.133510 0.000000 0.000000 
#    y 0.000000 3.354900 0.000000 
#    z 0.000000 0.000000 3.581160 
# 
# 
# High freq. dielectric constant tensor:
#      x y z
#    x 1.683870 0.000000 0.000000 
#    y 0.000000 1.693910 0.000000 
#    z 0.000000 0.000000 1.720370 
# 
# From -- ./inp_files/68033.got.cif
#   From: 2010.06.25/outbox.cif.g09.slc.cpg/sg71_35_cif.got.tgz:68033.got - 2010.06.28 04:59:45.
