data_PCOD8289074
_publ_section_title
;
Structure prediction by ZEFSAII (Michael W. Deem and Ramdas Pophale) SiO2 
 PCOD8289074
Probable space group: I M M M
;
_chemical_formula_sum "Si O2"
_cell_formula_units_Z 88
_cell_length_a 20.429310
_cell_length_b 8.878894
_cell_length_c 25.550053
_cell_angle_alpha 90.000000
_cell_angle_beta 90.000000
_cell_angle_gamma 90.000000
_cell_volume 4634.515886
_symmetry_space_group_name_H-M "I M M M"
_symmetry_group_IT_number 71
_symmetry_cell_setting 'orthorhombic'
loop_
_space_group_symop_operation_xyz
x,y,z
-x,-y,z
x,-y,-z
-x,y,-z
-x,-y,-z
x,y,-z
-x,y,z
x,-y,z
1/2+x,1/2+y,1/2+z
1/2-x,1/2-y,1/2+z
1/2+x,1/2-y,1/2-z
1/2-x,1/2+y,1/2-z
1/2-x,1/2-y,1/2-z
1/2+x,1/2+y,1/2-z
1/2-x,1/2+y,1/2+z
1/2+x,1/2-y,1/2+z
loop_
_atom_site_type_symbol
_atom_site_label
_atom_site_fract_x
_atom_site_fract_y
_atom_site_fract_z
Si Si1 0.777500 0.823588 0.000000
Si Si2 0.317411 0.170422 0.691985
Si Si3 0.664114 0.328180 0.797332
Si Si4 0.000000 0.322540 0.941627
Si Si5 0.628978 0.674886 0.406104
Si Si6 0.637113 0.678903 0.000000
Si Si7 0.074097 0.821033 0.607316
O O1 0.818591 0.774501 0.949346
O O2 0.711493 0.730447 0.000000
O O3 0.761188 0.000000 0.000000
O O4 0.346682 0.220691 0.747728
O O5 0.239632 0.179208 0.687351
O O6 0.343488 0.289296 0.650593
O O7 0.341214 0.000000 0.680879
O O8 0.644037 0.500000 0.783599
O O9 0.620058 0.264434 0.845089
O O10 0.063163 0.267836 0.911272
O O11 0.000000 0.500000 0.943301
O O12 0.000000 0.253704 0.000000
O O13 0.612665 0.500000 0.411695
O O14 0.601037 0.742252 0.051935
O O15 0.635551 0.500000 0.000000
O O16 0.000000 0.761958 0.615867
O O17 0.075575 0.000000 0.605556
#
# Coordination Sequence:
#
# PCOD8289074 Si02
#       7
#     8  16  16   8  16   8  16
#     4  10  22  36  54  81 113 145 180 223 268 323
#     4  10  20  35  56  82 110 141 184 238 286 330
#     4   9  18  34  55  79 109 147 188 230 282 339
#     4  11  23  39  59  83 113 147 183 226 277 328
#     4  11  22  38  58  81 111 148 187 225 273 335
#     4  10  19  32  55  85 112 141 179 225 274 326
#     4   9  17  31  53  81 111 142 181 227 273 327
#
# _framework density 18.987960000000001
#
# number of rings (size 3 to 8) (size 9 to 14) (size 15 to 20)
#    0.000    2.091    0.909    2.727    0.000    5.091 
#    1.636    0.909    0.000    2.182    0.000    0.000 
#    0.000    0.000    0.000    0.000    0.000    0.000 
#
# Total GULP energy -545672.397882 kJ/mol
# GULP energy per Si atom -12401.645406 kJ/mol
# Density = 1.894474 g / cm^3
# Si number density = 18.987960 Si / 1000 Ang^3
#
#
#
# Elastic Constant Matrix: (Units=GPa)
#
#
# Indices 1 2 3 4 5 6 
#
# 1 105.1189 24.2623 69.5987 0.0000 0.0000 0.0000
# 2 24.2623 43.8519 26.6103 0.0000 0.0000 0.0000
# 3 69.5987 26.6103 145.1388 0.0000 0.0000 0.0000
# 4 0.0000 0.0000 0.0000 54.7993 0.0000 0.0000
# 5 0.0000 0.0000 0.0000 0.0000 13.9313 0.0000
# 6 0.0000 0.0000 0.0000 0.0000 0.0000 23.4954
#
#
#
# Elastic Compliance Matrix: (Units=1/GPa)
#
#
# Indices 1 2 3 4 5 6 
#
# 1 0.014631 -0.004318 -0.006224 0.000000 0.000000 0.000000
# 2 -0.004318 0.026933 -0.002867 0.000000 0.000000 0.000000
# 3 -0.006224 -0.002867 0.010400 0.000000 0.000000 0.000000
# 4 0.000000 0.000000 0.000000 0.018248 0.000000 0.000000
# 5 0.000000 0.000000 0.000000 0.000000 0.071781 0.000000
# 6 0.000000 0.000000 0.000000 0.000000 0.000000 0.042562
#
#
# Mechanical properties :
#
#
# Convention : Reuss Voigt Hill
#
# Bulk Modulus (GPa) = 39.76926 59.45026 49.60976
# Shear Modulus (GPa) = 22.75255 30.02108 26.38682
#
# Velocity S-wave (km/s) = 3.46535 3.98057 3.73186
# Velocity P-wave (km/s) = 6.08288 7.24596 6.68975
#
# Compressibility (1/GPa) = 0.02514505
#
# Stress axis : x y z
#
# Youngs Moduli (GPa) = 68.34966 37.12913 96.15015
#
# Poissons Ratio (x) = 0.16032 0.59846
# Poissons Ratio (y) = 0.29512 0.27571
# Poissons Ratio (z) = 0.42542 0.10647
#
# Static dielectric constant tensor:
#      x y z
#    x 3.604980 0.000000 0.000000 
#    y 0.000000 3.273710 0.000000 
#    z 0.000000 0.000000 3.614120 
# 
# 
# High freq. dielectric constant tensor:
#      x y z
#    x 1.737450 0.000000 0.000000 
#    y 0.000000 1.718600 0.000000 
#    z 0.000000 0.000000 1.748840 
# 
# From -- ./inp_files/61158.got.cif
#   From: 2010.06.25/outbox.cif.g09.slc.cpg/sg71_31_cif.got.tgz:61158.got - 2010.06.28 04:59:45.
