data_PCOD8289666
_publ_section_title
;
Structure prediction by ZEFSAII (Michael W. Deem and Ramdas Pophale) SiO2 
 PCOD8289666
Probable space group: I M M M
;
_chemical_formula_sum "Si O2"
_cell_formula_units_Z 104
_cell_length_a 17.570901
_cell_length_b 15.155125
_cell_length_c 22.465367
_cell_angle_alpha 90.000000
_cell_angle_beta 90.000000
_cell_angle_gamma 90.000000
_cell_volume 5982.284629
_symmetry_space_group_name_H-M "I M M M"
_symmetry_group_IT_number 71
_symmetry_cell_setting 'orthorhombic'
loop_
_space_group_symop_operation_xyz
x,y,z
-x,-y,z
x,-y,-z
-x,y,-z
-x,-y,-z
x,y,-z
-x,y,z
x,-y,z
1/2+x,1/2+y,1/2+z
1/2-x,1/2-y,1/2+z
1/2+x,1/2-y,1/2-z
1/2-x,1/2+y,1/2-z
1/2-x,1/2-y,1/2-z
1/2+x,1/2+y,1/2-z
1/2-x,1/2+y,1/2+z
1/2+x,1/2-y,1/2+z
loop_
_atom_site_type_symbol
_atom_site_label
_atom_site_fract_x
_atom_site_fract_y
_atom_site_fract_z
Si Si1 0.415083 0.000000 0.069621
Si Si2 0.409691 0.740503 0.265518
Si Si3 0.820087 0.811204 0.649950
Si Si4 0.307641 0.896660 0.724270
Si Si5 0.581785 0.601153 0.063296
Si Si6 0.793496 0.355327 0.571117
Si Si7 0.809848 0.900862 0.172095
O O1 0.367100 0.913963 0.088300
O O2 0.500000 0.000000 0.099742
O O3 0.426829 0.000000 0.000000
O O4 0.500000 0.731337 0.267206
O O5 0.376213 0.720494 0.201146
O O6 0.386644 0.842430 0.278338
O O7 0.374949 0.670681 0.313197
O O8 0.741566 0.850193 0.673225
O O9 0.860577 0.890943 0.617162
O O10 0.807336 0.740086 0.598367
O O11 0.264409 0.881676 0.786946
O O12 0.323003 0.000000 0.711744
O O13 0.500000 0.646334 0.078560
O O14 0.567527 0.500000 0.053639
O O15 0.611674 0.641525 0.000000
O O16 0.779005 0.353393 0.500000
O O17 0.717914 0.394034 0.603610
O O18 0.841042 0.000000 0.184641
#
# Coordination Sequence:
#
# PCOD8289666 Si02
#       7
#     8  16  16  16  16  16  16
#     4   9  20  34  46  74 115 149 187 223 257 318
#     4  11  22  36  55  81 111 141 180 231 284 332
#     4  11  19  35  52  79 107 138 180 223 266 328
#     4  10  20  36  57  77 104 144 181 226 279 326
#     4   9  18  31  46  70 107 144 176 213 255 304
#     4  11  20  32  55  79 107 150 186 220 270 324
#     4  10  19  37  57  79 111 144 185 231 273 326
#
# _framework density 17.384663
#
# number of rings (size 3 to 8) (size 9 to 14) (size 15 to 20)
#    0.000    1.769    3.846    2.769    0.000    2.462 
#    0.000    1.538    0.000    0.462    0.000    1.077 
#    0.000    1.231    0.000    0.000    0.000    0.000 
#
# Total GULP energy -644284.712357 kJ/mol
# GULP energy per Si atom -12390.090622 kJ/mol
# Density = 1.734509 g / cm^3
# Si number density = 17.384663 Si / 1000 Ang^3
#
#
#
# Elastic Constant Matrix: (Units=GPa)
#
#
# Indices 1 2 3 4 5 6 
#
# 1 87.0778 50.4280 31.5473 0.0000 0.0000 0.0000
# 2 50.4280 107.5233 36.4586 0.0000 0.0000 0.0000
# 3 31.5473 36.4586 89.9573 0.0000 0.0000 0.0000
# 4 0.0000 0.0000 0.0000 27.1718 0.0000 0.0000
# 5 0.0000 0.0000 0.0000 0.0000 16.7317 0.0000
# 6 0.0000 0.0000 0.0000 0.0000 0.0000 26.0847
#
#
#
# Elastic Compliance Matrix: (Units=1/GPa)
#
#
# Indices 1 2 3 4 5 6 
#
# 1 0.016464 -0.006682 -0.003066 0.000000 0.000000 0.000000
# 2 -0.006682 0.013494 -0.003126 0.000000 0.000000 0.000000
# 3 -0.003066 -0.003126 0.013458 0.000000 0.000000 0.000000
# 4 0.000000 0.000000 0.000000 0.036803 0.000000 0.000000
# 5 0.000000 0.000000 0.000000 0.000000 0.059767 0.000000
# 6 0.000000 0.000000 0.000000 0.000000 0.000000 0.038337
#
#
# Mechanical properties :
#
#
# Convention : Reuss Voigt Hill
#
# Bulk Modulus (GPa) = 56.59406 57.93627 57.26516
# Shear Modulus (GPa) = 23.81404 25.07259 24.44332
#
# Velocity S-wave (km/s) = 3.70514 3.80178 3.75377
# Velocity P-wave (km/s) = 7.13644 7.25740 7.19717
#
# Compressibility (1/GPa) = 0.01766970
#
# Stress axis : x y z
#
# Youngs Moduli (GPa) = 60.73693 74.10664 74.30376
#
# Poissons Ratio (x) = 0.49520 0.22779
# Poissons Ratio (y) = 0.40586 0.23224
# Poissons Ratio (z) = 0.18620 0.23163
#
# Static dielectric constant tensor:
#      x y z
#    x 3.124560 0.000000 0.000000 
#    y 0.000000 3.380590 0.000000 
#    z 0.000000 0.000000 3.268420 
# 
# 
# High freq. dielectric constant tensor:
#      x y z
#    x 1.643510 0.000000 0.000000 
#    y 0.000000 1.685220 0.000000 
#    z 0.000000 0.000000 1.664870 
# 
# From -- ./inp_files/39455.got.cif
#   From: 2010.06.25/outbox.cif.g09.slc.cpg/sg71_20_cif.got.tgz:39455.got - 2010.06.28 04:59:45.
