data_PCOD8289295
_publ_section_title
;
Structure prediction by ZEFSAII (Michael W. Deem and Ramdas Pophale) SiO2 
 PCOD8289295
Probable space group: I M M M
;
_chemical_formula_sum "Si O2"
_cell_formula_units_Z 88
_cell_length_a 28.709411
_cell_length_b 17.237661
_cell_length_c 9.072434
_cell_angle_alpha 90.000000
_cell_angle_beta 90.000000
_cell_angle_gamma 90.000000
_cell_volume 4489.794211
_symmetry_space_group_name_H-M "I M M M"
_symmetry_group_IT_number 71
_symmetry_cell_setting 'orthorhombic'
loop_
_space_group_symop_operation_xyz
x,y,z
-x,-y,z
x,-y,-z
-x,y,-z
-x,-y,-z
x,y,-z
-x,y,z
x,-y,z
1/2+x,1/2+y,1/2+z
1/2-x,1/2-y,1/2+z
1/2+x,1/2-y,1/2-z
1/2-x,1/2+y,1/2-z
1/2-x,1/2-y,1/2-z
1/2+x,1/2+y,1/2-z
1/2-x,1/2+y,1/2+z
1/2+x,1/2-y,1/2+z
loop_
_atom_site_type_symbol
_atom_site_label
_atom_site_fract_x
_atom_site_fract_y
_atom_site_fract_z
Si Si1 0.418094 0.314490 0.827595
Si Si2 0.447111 0.833732 0.332427
Si Si3 0.426250 0.000000 0.662336
Si Si4 0.182794 0.500000 0.162678
Si Si5 0.275871 0.858144 0.170510
Si Si6 0.188073 0.810561 0.668993
Si Si7 0.000000 0.091522 0.825961
O O1 0.420090 0.226512 0.769773
O O2 0.364569 0.339507 0.799956
O O3 0.453201 0.371435 0.742306
O O4 0.430820 0.316184 0.000000
O O5 0.426610 0.833400 0.500000
O O6 0.500000 0.805450 0.334864
O O7 0.443102 0.920078 0.260121
O O8 0.371776 0.000000 0.650538
O O9 0.449528 0.000000 0.500000
O O10 0.196432 0.423958 0.248208
O O11 0.205518 0.500000 0.000000
O O12 0.222756 0.858375 0.227692
O O13 0.304296 0.779966 0.205130
O O14 0.274122 0.877809 0.000000
O O15 0.201572 0.826527 0.500000
O O16 0.000000 0.000000 0.791094
O O17 0.000000 0.108046 0.000000
#
# Coordination Sequence:
#
# PCOD8289295 Si02
#       7
#    16  16   8   8  16  16   8
#     4  11  22  38  62  89 118 150 187 233 291 353
#     4  10  19  33  55  82 117 157 198 240 278 324
#     4   9  19  33  52  82 116 160 206 237 274 325
#     4  11  21  34  53  78 114 153 191 235 282 335
#     4  10  20  36  58  83 114 150 191 235 281 335
#     4   9  20  38  59  85 114 149 188 231 283 341
#     4  11  25  45  65  86 113 146 189 241 290 343
#
# _framework density 19.600007999999999
#
# number of rings (size 3 to 8) (size 9 to 14) (size 15 to 20)
#    0.000    1.909    0.909    3.000    0.000    4.000 
#    1.636    1.364    0.000    1.091    0.000    0.000 
#    0.000    0.000    0.000    0.000    0.000    0.000 
#
# Total GULP energy -545530.944932 kJ/mol
# GULP energy per Si atom -12398.430567 kJ/mol
# Density = 1.955540 g / cm^3
# Si number density = 19.600008 Si / 1000 Ang^3
#
#
#
# Elastic Constant Matrix: (Units=GPa)
#
#
# Indices 1 2 3 4 5 6 
#
# 1 100.9791 23.4979 43.2387 0.0000 0.0000 0.0000
# 2 23.4979 74.2242 33.9607 0.0000 0.0000 0.0000
# 3 43.2387 33.9607 87.1337 0.0000 0.0000 0.0000
# 4 0.0000 0.0000 0.0000 30.8134 0.0000 0.0000
# 5 0.0000 0.0000 0.0000 0.0000 28.7100 0.0000
# 6 0.0000 0.0000 0.0000 0.0000 0.0000 30.1036
#
#
#
# Elastic Compliance Matrix: (Units=1/GPa)
#
#
# Indices 1 2 3 4 5 6 
#
# 1 0.012691 -0.001383 -0.005759 0.000000 0.000000 0.000000
# 2 -0.001383 0.016547 -0.005763 0.000000 0.000000 0.000000
# 3 -0.005759 -0.005763 0.016580 0.000000 0.000000 0.000000
# 4 0.000000 0.000000 0.000000 0.032453 0.000000 0.000000
# 5 0.000000 0.000000 0.000000 0.000000 0.034831 0.000000
# 6 0.000000 0.000000 0.000000 0.000000 0.000000 0.033219
#
#
# Mechanical properties :
#
#
# Convention : Reuss Voigt Hill
#
# Bulk Modulus (GPa) = 49.97681 51.52572 50.75126
# Shear Modulus (GPa) = 27.96413 28.70137 28.33275
#
# Velocity S-wave (km/s) = 3.78132 3.83084 3.80616
# Velocity P-wave (km/s) = 6.67969 6.77590 6.72797
#
# Compressibility (1/GPa) = 0.02000928
#
# Stress axis : x y z
#
# Youngs Moduli (GPa) = 78.79850 60.43251 60.31200
#
# Poissons Ratio (x) = 0.08357 0.34731
# Poissons Ratio (y) = 0.10896 0.34759
# Poissons Ratio (z) = 0.45376 0.34829
#
# Static dielectric constant tensor:
#      x y z
#    x 3.602270 0.000000 0.000000 
#    y 0.000000 4.277620 0.000000 
#    z 0.000000 0.000000 3.604830 
# 
# 
# High freq. dielectric constant tensor:
#      x y z
#    x 1.770500 0.000000 0.000000 
#    y 0.000000 1.759500 0.000000 
#    z 0.000000 0.000000 1.757230 
# 
# From -- ./inp_files/16745.got.cif
#   From: 2010.06.25/outbox.cif.g09.slc.cpg/sg71_9_cif.got.tgz:16745.got - 2010.06.28 04:59:45.
