data_PCOD8289568
_publ_section_title
;
Structure prediction by ZEFSAII (Michael W. Deem and Ramdas Pophale) SiO2 
 PCOD8289568
Probable space group: I M M M
;
_chemical_formula_sum "Si O2"
_cell_formula_units_Z 96
_cell_length_a 18.029269
_cell_length_b 14.972032
_cell_length_c 20.099665
_cell_angle_alpha 90.000000
_cell_angle_beta 90.000000
_cell_angle_gamma 90.000000
_cell_volume 5425.598899
_symmetry_space_group_name_H-M "I M M M"
_symmetry_group_IT_number 71
_symmetry_cell_setting 'orthorhombic'
loop_
_space_group_symop_operation_xyz
x,y,z
-x,-y,z
x,-y,-z
-x,y,-z
-x,-y,-z
x,y,-z
-x,y,z
x,-y,z
1/2+x,1/2+y,1/2+z
1/2-x,1/2-y,1/2+z
1/2+x,1/2-y,1/2-z
1/2-x,1/2+y,1/2-z
1/2-x,1/2-y,1/2-z
1/2+x,1/2+y,1/2-z
1/2-x,1/2+y,1/2+z
1/2+x,1/2-y,1/2+z
loop_
_atom_site_type_symbol
_atom_site_label
_atom_site_fract_x
_atom_site_fract_y
_atom_site_fract_z
Si Si1 0.084736 0.254205 0.220497
Si Si2 0.198198 0.398456 0.424599
Si Si3 0.415614 0.242690 0.877059
Si Si4 0.804379 0.103459 0.193328
Si Si5 0.302227 0.897330 0.685064
Si Si6 0.816466 0.102020 0.576300
O O1 0.090898 0.269668 0.298712
O O2 0.121155 0.160495 0.199673
O O3 0.124973 0.336431 0.184006
O O4 0.000000 0.252102 0.196399
O O5 0.226825 0.387234 0.500000
O O6 0.173313 0.500000 0.409650
O O7 0.127344 0.336770 0.413280
O O8 0.265432 0.371374 0.376235
O O9 0.500000 0.238227 0.901435
O O10 0.384076 0.338418 0.898398
O O11 0.748789 0.129595 0.252556
O O12 0.827273 0.000000 0.197258
O O13 0.257640 0.877362 0.617622
O O14 0.327506 0.000000 0.690023
O O15 0.797442 0.123127 0.500000
O O16 0.841802 0.000000 0.587052
#
# Coordination Sequence:
#
# PCOD8289568 Si02
#       6
#    16  16  16  16  16  16
#     4  11  22  34  53  81 111 139 171 216 263 308
#     4  10  21  36  55  79 104 135 177 220 260 305
#     4  11  22  34  50  76 111 146 175 207 254 312
#     4  10  19  35  58  78 100 137 180 219 258 303
#     4  10  19  35  58  78 100 137 180 219 258 303
#     4  10  21  36  55  79 104 135 177 220 260 305
#
# _framework density 17.693898999999998
#
# number of rings (size 3 to 8) (size 9 to 14) (size 15 to 20)
#    0.000    1.667    3.333    2.000    0.000    2.667 
#    0.000    5.000    0.000    2.000    0.000    4.667 
#    0.000    0.000    0.000    0.000    0.000    0.000 
#
# Total GULP energy -595409.236875 kJ/mol
# GULP energy per Si atom -12404.359102 kJ/mol
# Density = 1.765363 g / cm^3
# Si number density = 17.693899 Si / 1000 Ang^3
#
#
#
# Elastic Constant Matrix: (Units=GPa)
#
#
# Indices 1 2 3 4 5 6 
#
# 1 105.3883 46.3949 17.3325 0.0000 0.0000 0.0000
# 2 46.3949 78.9913 -1.9220 0.0000 0.0000 0.0000
# 3 17.3325 -1.9220 47.2289 0.0000 0.0000 0.0000
# 4 0.0000 0.0000 0.0000 22.0332 0.0000 0.0000
# 5 0.0000 0.0000 0.0000 0.0000 21.9601 0.0000
# 6 0.0000 0.0000 0.0000 0.0000 0.0000 17.4224
#
#
#
# Elastic Compliance Matrix: (Units=1/GPa)
#
#
# Indices 1 2 3 4 5 6 
#
# 1 0.014101 -0.008417 -0.005518 0.000000 0.000000 0.000000
# 2 -0.008417 0.017696 0.003809 0.000000 0.000000 0.000000
# 3 -0.005518 0.003809 0.023353 0.000000 0.000000 0.000000
# 4 0.000000 0.000000 0.000000 0.045386 0.000000 0.000000
# 5 0.000000 0.000000 0.000000 0.000000 0.045537 0.000000
# 6 0.000000 0.000000 0.000000 0.000000 0.000000 0.057397
#
#
# Mechanical properties :
#
#
# Convention : Reuss Voigt Hill
#
# Bulk Modulus (GPa) = 28.65326 39.46881 34.06104
# Shear Modulus (GPa) = 21.24452 23.60334 22.42393
#
# Velocity S-wave (km/s) = 3.46883 3.65633 3.56381
# Velocity P-wave (km/s) = 5.68091 6.33876 6.01883
#
# Compressibility (1/GPa) = 0.03490004
#
# Stress axis : x y z
#
# Youngs Moduli (GPa) = 70.91509 56.51092 42.82031
#
# Poissons Ratio (x) = 0.47563 0.23626
# Poissons Ratio (y) = 0.59686 -0.16310
# Poissons Ratio (z) = 0.39128 -0.21525
#
# Static dielectric constant tensor:
#      x y z
#    x 3.132890 0.000000 0.000000 
#    y 0.000000 3.429930 0.000000 
#    z 0.000000 0.000000 3.412880 
# 
# 
# High freq. dielectric constant tensor:
#      x y z
#    x 1.660540 0.000000 0.000000 
#    y 0.000000 1.701980 0.000000 
#    z 0.000000 0.000000 1.686640 
# 
# From -- ./inp_files/34513.got.cif
#   From: 2010.06.25/outbox.cif.g09.slc.cpg/sg71_18_cif.got.tgz:34513.got - 2010.06.28 04:59:45.
