data_PCOD8289627
_publ_section_title
;
Structure prediction by ZEFSAII (Michael W. Deem and Ramdas Pophale) SiO2 
 PCOD8289627
Probable space group: I M M M
;
_chemical_formula_sum "Si O2"
_cell_formula_units_Z 52
_cell_length_a 14.897072
_cell_length_b 7.267776
_cell_length_c 23.513330
_cell_angle_alpha 90.000000
_cell_angle_beta 90.000000
_cell_angle_gamma 90.000000
_cell_volume 2545.754905
_symmetry_space_group_name_H-M "I M M M"
_symmetry_group_IT_number 71
_symmetry_cell_setting 'orthorhombic'
loop_
_space_group_symop_operation_xyz
x,y,z
-x,-y,z
x,-y,-z
-x,y,-z
-x,-y,-z
x,y,-z
-x,y,z
x,-y,z
1/2+x,1/2+y,1/2+z
1/2-x,1/2-y,1/2+z
1/2+x,1/2-y,1/2-z
1/2-x,1/2+y,1/2-z
1/2-x,1/2-y,1/2-z
1/2+x,1/2+y,1/2-z
1/2-x,1/2+y,1/2+z
1/2+x,1/2-y,1/2+z
loop_
_atom_site_type_symbol
_atom_site_label
_atom_site_fract_x
_atom_site_fract_y
_atom_site_fract_z
Si Si1 0.329281 0.000000 0.000000
Si Si2 0.823723 0.285744 0.000000
Si Si3 0.233154 0.785149 0.684343
Si Si4 0.402724 0.783049 0.617787
Si Si5 0.604879 0.000000 0.127289
O O1 0.270821 0.183822 0.000000
O O2 0.386767 0.000000 0.941540
O O3 0.883230 0.226629 0.053288
O O4 0.799284 0.500000 0.000000
O O5 0.250000 0.750000 0.750000
O O6 0.323432 0.702910 0.656172
O O7 0.148879 0.678942 0.657150
O O8 0.218145 0.000000 0.671110
O O9 0.500000 0.700112 0.635340
O O10 0.405639 0.000000 0.624972
O O11 0.500000 0.000000 0.142777
#
# Coordination Sequence:
#
# PCOD8289627 Si02
#       5
#     4   8  16  16   8
#     4  12  23  42  69  90 128 182 239 282 335 390
#     4  10  19  35  61  90 125 167 207 269 337 394
#     4  11  23  43  69  95 134 174 218 276 338 405
#     4   9  18  34  60  92 125 163 205 257 330 402
#     4  12  27  46  68  98 134 181 235 288 334 390
#
# _framework density 20.426162000000001
#
# number of rings (size 3 to 8) (size 9 to 14) (size 15 to 20)
#    0.000    1.538    4.615    0.692    0.000    3.692 
#    0.000    3.846    0.000    2.769    0.000    0.000 
#    0.000    0.000    0.000    0.000    0.000    0.000 
#
# Total GULP energy -322277.233888 kJ/mol
# GULP energy per Si atom -12395.278226 kJ/mol
# Density = 2.037967 g / cm^3
# Si number density = 20.426162 Si / 1000 Ang^3
#
#
#
# Elastic Constant Matrix: (Units=GPa)
#
#
# Indices 1 2 3 4 5 6 
#
# 1 200.1309 46.3321 79.8378 0.0000 0.0000 0.0000
# 2 46.3321 98.3531 29.2784 0.0000 0.0000 0.0000
# 3 79.8378 29.2784 151.9227 0.0000 0.0000 0.0000
# 4 0.0000 0.0000 0.0000 23.7839 0.0000 0.0000
# 5 0.0000 0.0000 0.0000 0.0000 20.7678 0.0000
# 6 0.0000 0.0000 0.0000 0.0000 0.0000 24.6723
#
#
#
# Elastic Compliance Matrix: (Units=1/GPa)
#
#
# Indices 1 2 3 4 5 6 
#
# 1 0.006764 -0.002258 -0.003119 0.000000 0.000000 0.000000
# 2 -0.002258 0.011540 -0.001037 0.000000 0.000000 0.000000
# 3 -0.003119 -0.001037 0.008422 0.000000 0.000000 0.000000
# 4 0.000000 0.000000 0.000000 0.042045 0.000000 0.000000
# 5 0.000000 0.000000 0.000000 0.000000 0.048151 0.000000
# 6 0.000000 0.000000 0.000000 0.000000 0.000000 0.040531
#
#
# Mechanical properties :
#
#
# Convention : Reuss Voigt Hill
#
# Bulk Modulus (GPa) = 71.96297 84.58926 78.27611
# Shear Modulus (GPa) = 28.58541 33.50869 31.04705
#
# Velocity S-wave (km/s) = 3.74498 4.05468 3.90290
# Velocity P-wave (km/s) = 7.34895 7.96383 7.66256
#
# Compressibility (1/GPa) = 0.01389604
#
# Stress axis : x y z
#
# Youngs Moduli (GPa) = 147.84543 86.65624 118.74319
#
# Poissons Ratio (x) = 0.19564 0.37041
# Poissons Ratio (y) = 0.33379 0.12320
# Poissons Ratio (z) = 0.46119 0.08991
#
# Static dielectric constant tensor:
#      x y z
#    x 3.896060 0.000000 0.000000 
#    y 0.000000 3.768360 0.000000 
#    z 0.000000 0.000000 3.862350 
# 
# 
# High freq. dielectric constant tensor:
#      x y z
#    x 1.792890 0.000000 0.000000 
#    y 0.000000 1.800550 0.000000 
#    z 0.000000 0.000000 1.807790 
# 
# From -- ./inp_files/52570.got.cif
#   From: 2010.06.25/outbox.cif.g09.slc.cpg/sg71_27_cif.got.tgz:52570.got - 2010.06.28 04:59:45.
