data_PCOD8289321
_publ_section_title
;
Structure prediction by ZEFSAII (Michael W. Deem and Ramdas Pophale) SiO2 
 PCOD8289321
Probable space group: I M M M
;
_chemical_formula_sum "Si O2"
_cell_formula_units_Z 88
_cell_length_a 8.041612
_cell_length_b 19.079387
_cell_length_c 28.490015
_cell_angle_alpha 90.000000
_cell_angle_beta 90.000000
_cell_angle_gamma 90.000000
_cell_volume 4371.195294
_symmetry_space_group_name_H-M "I M M M"
_symmetry_group_IT_number 71
_symmetry_cell_setting 'orthorhombic'
loop_
_space_group_symop_operation_xyz
x,y,z
-x,-y,z
x,-y,-z
-x,y,-z
-x,-y,-z
x,y,-z
-x,y,z
x,-y,z
1/2+x,1/2+y,1/2+z
1/2-x,1/2-y,1/2+z
1/2+x,1/2-y,1/2-z
1/2-x,1/2+y,1/2-z
1/2-x,1/2-y,1/2-z
1/2+x,1/2+y,1/2-z
1/2-x,1/2+y,1/2+z
1/2+x,1/2-y,1/2+z
loop_
_atom_site_type_symbol
_atom_site_label
_atom_site_fract_x
_atom_site_fract_y
_atom_site_fract_z
Si Si1 0.190241 0.801313 0.446373
Si Si2 0.688279 0.345929 0.205733
Si Si3 0.186927 0.840101 0.908027
Si Si4 0.690174 0.920840 0.618467
Si Si5 0.691172 0.695443 0.305284
Si Si6 0.500000 0.077145 0.054859
O O1 0.247233 0.814475 0.500000
O O2 0.302471 0.741140 0.423134
O O3 0.205742 0.872725 0.416985
O O4 0.000000 0.775881 0.444807
O O5 0.500000 0.371725 0.199827
O O6 0.798364 0.394777 0.172330
O O7 0.747387 0.351254 0.260288
O O8 0.698636 0.264922 0.190128
O O9 0.214067 0.849320 0.852310
O O10 0.329457 0.884466 0.932359
O O11 0.000000 0.866316 0.921494
O O12 0.500000 0.917633 0.602626
O O13 0.759032 0.000000 0.614973
O O14 0.500000 0.718958 0.298156
O O15 0.500000 0.000000 0.078205
O O16 0.500000 0.070385 0.000000
#
# Coordination Sequence:
#
# PCOD8289321 Si02
#       6
#    16  16  16  16  16   8
#     4  11  23  39  61  90 121 156 209 266 310 365
#     4  10  19  33  56  85 116 154 197 247 302 361
#     4  11  22  40  67  96 127 163 205 257 312 367
#     4  11  24  40  56  81 122 166 209 258 313 375
#     4   9  19  34  56  89 120 149 196 249 299 361
#     4  11  26  46  66  94 129 161 203 253 311 387
#
# _framework density 20.131792999999998
#
# number of rings (size 3 to 8) (size 9 to 14) (size 15 to 20)
#    0.000    1.545    2.727    2.182    1.273    5.455 
#    0.000    3.636    0.000    3.273    0.000    0.000 
#    0.000    0.000    0.000    0.000    0.000    0.000 
#
# Total GULP energy -545593.166479 kJ/mol
# GULP energy per Si atom -12399.844693 kJ/mol
# Density = 2.008597 g / cm^3
# Si number density = 20.131793 Si / 1000 Ang^3
#
#
#
# Elastic Constant Matrix: (Units=GPa)
#
#
# Indices 1 2 3 4 5 6 
#
# 1 85.9202 29.6730 30.1933 0.0000 0.0000 0.0000
# 2 29.6730 96.5504 45.2550 0.0000 0.0000 0.0000
# 3 30.1933 45.2550 122.1485 0.0000 0.0000 0.0000
# 4 0.0000 0.0000 0.0000 23.8787 0.0000 0.0000
# 5 0.0000 0.0000 0.0000 0.0000 28.6360 0.0000
# 6 0.0000 0.0000 0.0000 0.0000 0.0000 19.2768
#
#
#
# Elastic Compliance Matrix: (Units=1/GPa)
#
#
# Indices 1 2 3 4 5 6 
#
# 1 0.013482 -0.003124 -0.002175 0.000000 0.000000 0.000000
# 2 -0.003124 0.013258 -0.004140 0.000000 0.000000 0.000000
# 3 -0.002175 -0.004140 0.010258 0.000000 0.000000 0.000000
# 4 0.000000 0.000000 0.000000 0.041878 0.000000 0.000000
# 5 0.000000 0.000000 0.000000 0.000000 0.034921 0.000000
# 6 0.000000 0.000000 0.000000 0.000000 0.000000 0.051876
#
#
# Mechanical properties :
#
#
# Convention : Reuss Voigt Hill
#
# Bulk Modulus (GPa) = 55.18670 57.20685 56.19677
# Shear Modulus (GPa) = 26.23426 27.65817 26.94622
#
# Velocity S-wave (km/s) = 3.61380 3.71058 3.66251
# Velocity P-wave (km/s) = 6.69962 6.84366 6.77203
#
# Compressibility (1/GPa) = 0.01812031
#
# Stress axis : x y z
#
# Youngs Moduli (GPa) = 74.17340 75.42786 97.48351
#
# Poissons Ratio (x) = 0.23563 0.21204
# Poissons Ratio (y) = 0.23171 0.40355
# Poissons Ratio (z) = 0.16134 0.31225
#
# Static dielectric constant tensor:
#      x y z
#    x 3.661850 0.000000 0.000000 
#    y 0.000000 3.431450 0.000000 
#    z 0.000000 0.000000 3.883450 
# 
# 
# High freq. dielectric constant tensor:
#      x y z
#    x 1.792490 0.000000 0.000000 
#    y 0.000000 1.749990 0.000000 
#    z 0.000000 0.000000 1.800290 
# 
# From -- ./inp_files/68017.got.cif
#   From: 2010.06.25/outbox.cif.g09.slc.cpg/sg71_35_cif.got.tgz:68017.got - 2010.06.28 04:59:45.
