data_PCOD8289754
_publ_section_title
;
Structure prediction by ZEFSAII (Michael W. Deem and Ramdas Pophale) SiO2 
 PCOD8289754
Probable space group: I M M M
;
_chemical_formula_sum "Si O2"
_cell_formula_units_Z 104
_cell_length_a 9.933605
_cell_length_b 31.221315
_cell_length_c 19.031936
_cell_angle_alpha 90.000000
_cell_angle_beta 90.000000
_cell_angle_gamma 90.000000
_cell_volume 5902.568643
_symmetry_space_group_name_H-M "I M M M"
_symmetry_group_IT_number 71
_symmetry_cell_setting 'orthorhombic'
loop_
_space_group_symop_operation_xyz
x,y,z
-x,-y,z
x,-y,-z
-x,y,-z
-x,-y,-z
x,y,-z
-x,y,z
x,-y,z
1/2+x,1/2+y,1/2+z
1/2-x,1/2-y,1/2+z
1/2+x,1/2-y,1/2-z
1/2-x,1/2+y,1/2-z
1/2-x,1/2-y,1/2-z
1/2+x,1/2+y,1/2-z
1/2-x,1/2+y,1/2+z
1/2+x,1/2-y,1/2+z
loop_
_atom_site_type_symbol
_atom_site_label
_atom_site_fract_x
_atom_site_fract_y
_atom_site_fract_z
Si Si1 0.343230 0.759672 0.419205
Si Si2 0.342981 0.676635 0.658970
Si Si3 0.839318 0.000000 0.919746
Si Si4 0.849044 0.192833 0.311094
Si Si5 0.158556 0.917696 0.837507
Si Si6 0.852257 0.092258 0.320008
Si Si7 0.848511 0.451864 0.080566
O O1 0.305226 0.769130 0.500000
O O2 0.500000 0.770423 0.404686
O O3 0.315533 0.709234 0.404674
O O4 0.251153 0.787547 0.368265
O O5 0.500000 0.668960 0.673781
O O6 0.288580 0.698364 0.731756
O O7 0.281600 0.629455 0.640683
O O8 0.779567 0.956975 0.882703
O O9 0.000000 0.000000 0.914370
O O10 0.790207 0.000000 0.000000
O O11 0.858674 0.142776 0.323479
O O12 0.000000 0.213022 0.319061
O O13 0.194225 0.925145 0.755952
O O14 0.000000 0.917473 0.850276
O O15 0.747912 0.078815 0.377970
O O16 0.000000 0.073253 0.337232
O O17 0.835957 0.500000 0.109473
O O18 0.000000 0.434945 0.090025
O O19 0.805102 0.450225 0.000000
#
# Coordination Sequence:
#
# PCOD8289754 Si02
#       7
#    16  16   8  16  16  16  16
#     4  10  20  31  46  71  97 123 158 197 239 285
#     4   8  15  30  48  64  89 125 161 195 232 278
#     4   9  16  24  38  66 102 133 154 178 229 293
#     4   9  18  33  50  68  92 124 160 196 237 282
#     4   8  15  27  43  67  97 125 155 194 236 275
#     4   9  18  31  49  71  93 122 160 199 237 277
#     4   9  19  34  48  65  93 126 157 193 239 285
#
# _framework density 17.619447999999998
#
# number of rings (size 3 to 8) (size 9 to 14) (size 15 to 20)
#    0.000    3.154    0.000    2.769    1.077    2.769 
#    0.000    6.923    0.000    0.923    0.000    0.000 
#    0.000    1.231    0.000    0.000    0.000    0.154 
#
# Total GULP energy -644352.395243 kJ/mol
# GULP energy per Si atom -12391.392216 kJ/mol
# Density = 1.757935 g / cm^3
# Si number density = 17.619448 Si / 1000 Ang^3
#
#
#
# Elastic Constant Matrix: (Units=GPa)
#
#
# Indices 1 2 3 4 5 6 
#
# 1 40.5442 22.0473 38.3999 0.0002 0.0000 0.0000
# 2 22.0473 70.8584 57.1536 0.0001 0.0000 0.0000
# 3 38.3999 57.1536 93.7706 0.0004 0.0001 -0.0001
# 4 0.0002 0.0001 0.0004 28.2964 0.0001 0.0000
# 5 0.0000 0.0000 0.0001 0.0001 13.2657 0.0000
# 6 0.0000 0.0000 -0.0001 0.0000 0.0000 23.6235
#
#
#
# Elastic Compliance Matrix: (Units=1/GPa)
#
#
# Indices 1 2 3 4 5 6 
#
# 1 0.040375 0.001522 -0.017461 0.000000 0.000000 0.000000
# 2 0.001522 0.027817 -0.017578 0.000000 0.000000 0.000000
# 3 -0.017461 -0.017578 0.028529 0.000000 0.000000 0.000000
# 4 0.000000 0.000000 0.000000 0.035340 0.000000 0.000000
# 5 0.000000 0.000000 0.000000 0.000000 0.075382 0.000000
# 6 0.000000 0.000000 0.000000 0.000000 0.000000 0.042331
#
#
# Mechanical properties :
#
#
# Convention : Reuss Voigt Hill
#
# Bulk Modulus (GPa) = 33.68625 48.93053 41.30839
# Shear Modulus (GPa) = 15.30435 18.87530 17.08983
#
# Velocity S-wave (km/s) = 2.95041 3.27659 3.11777
# Velocity P-wave (km/s) = 5.54679 6.49197 6.03790
#
# Compressibility (1/GPa) = 0.02968570
#
# Stress axis : x y z
#
# Youngs Moduli (GPa) = 24.76795 35.94876 35.05239
#
# Poissons Ratio (x) = -0.05470 0.61206
# Poissons Ratio (y) = -0.03769 0.61615
# Poissons Ratio (z) = 0.43248 0.63191
#
# Static dielectric constant tensor:
#      x y z
#    x 2.982850 0.000000 0.000000 
#    y 0.000000 3.379730 0.000000 
#    z 0.000000 0.000000 3.329840 
# 
# 
# High freq. dielectric constant tensor:
#      x y z
#    x 1.633530 0.000000 0.000000 
#    y 0.000000 1.686610 0.000000 
#    z 0.000000 0.000000 1.680310 
# 
# From -- ./inp_files/43995.got.cif
#   From: 2010.06.25/outbox.cif.g09.slc.cpg/sg71_22_cif.got.tgz:43995.got - 2010.06.28 04:59:45.
