data_PCOD8289040
_publ_section_title
;
Structure prediction by ZEFSAII (Michael W. Deem and Ramdas Pophale) SiO2 
 PCOD8289040
Probable space group: I M M M
;
_chemical_formula_sum "Si O2"
_cell_formula_units_Z 88
_cell_length_a 26.150522
_cell_length_b 7.690102
_cell_length_c 21.870525
_cell_angle_alpha 90.000000
_cell_angle_beta 90.000000
_cell_angle_gamma 90.000000
_cell_volume 4398.166548
_symmetry_space_group_name_H-M "I M M M"
_symmetry_group_IT_number 71
_symmetry_cell_setting 'orthorhombic'
loop_
_space_group_symop_operation_xyz
x,y,z
-x,-y,z
x,-y,-z
-x,y,-z
-x,-y,-z
x,y,-z
-x,y,z
x,-y,z
1/2+x,1/2+y,1/2+z
1/2-x,1/2-y,1/2+z
1/2+x,1/2-y,1/2-z
1/2-x,1/2+y,1/2-z
1/2-x,1/2-y,1/2-z
1/2+x,1/2+y,1/2-z
1/2-x,1/2+y,1/2+z
1/2+x,1/2-y,1/2+z
loop_
_atom_site_type_symbol
_atom_site_label
_atom_site_fract_x
_atom_site_fract_y
_atom_site_fract_z
Si Si1 0.894644 0.293444 0.868699
Si Si2 0.630226 0.000000 0.069115
Si Si3 0.307575 0.701375 0.871922
Si Si4 0.618748 0.305778 0.232922
Si Si5 0.440764 0.000000 0.823750
Si Si6 0.500000 0.793266 0.430072
Si Si7 0.794255 0.704725 0.067144
O O1 0.895919 0.500000 0.860770
O O2 0.877190 0.207761 0.805399
O O3 0.949498 0.226063 0.893992
O O4 0.850525 0.228451 0.914683
O O5 0.660988 0.176002 0.082832
O O6 0.578380 0.000000 0.107310
O O7 0.612816 0.000000 0.000000
O O8 0.315909 0.500000 0.891094
O O9 0.326887 0.734147 0.801873
O O10 0.248156 0.755776 0.881633
O O11 0.601060 0.500000 0.215074
O O12 0.576262 0.171942 0.211503
O O13 0.500000 0.000000 0.824554
O O14 0.500000 0.721999 0.500000
O O15 0.500000 0.000000 0.432080
O O16 0.797009 0.500000 0.062270
O O17 0.780268 0.782530 0.000000
#
# Coordination Sequence:
#
# PCOD8289040 Si02
#       7
#    16   8  16  16   8   8  16
#     4  10  19  32  54  81 111 148 189 235 284 334
#     4  10  20  35  58  88 114 145 188 226 275 340
#     4   9  19  36  56  81 114 151 186 229 278 330
#     4  10  21  37  57  83 112 146 191 230 280 338
#     4  10  22  39  60  82 114 148 183 235 282 331
#     4   9  18  32  53  81 111 146 189 234 284 338
#     4   9  17  31  53  79 109 149 193 233 280 336
#
# _framework density 20.008337000000001
#
# number of rings (size 3 to 8) (size 9 to 14) (size 15 to 20)
#    0.000    2.455    0.909    1.091    1.273    4.545 
#    1.636    0.000    0.000    2.182    0.000    5.091 
#    0.000    0.000    0.000    0.000    0.000    0.000 
#
# Total GULP energy -545260.562906 kJ/mol
# GULP energy per Si atom -12392.285521 kJ/mol
# Density = 1.996280 g / cm^3
# Si number density = 20.008337 Si / 1000 Ang^3
#
#
#
# Elastic Constant Matrix: (Units=GPa)
#
#
# Indices 1 2 3 4 5 6 
#
# 1 179.5494 31.7754 79.8495 0.0000 0.0000 0.0000
# 2 31.7754 71.1566 22.2140 0.0000 0.0000 0.0000
# 3 79.8495 22.2140 149.8904 0.0000 0.0000 0.0000
# 4 0.0000 0.0000 0.0000 22.0351 0.0000 0.0000
# 5 0.0000 0.0000 0.0000 0.0000 23.9999 0.0000
# 6 0.0000 0.0000 0.0000 0.0000 0.0000 9.5700
#
#
#
# Elastic Compliance Matrix: (Units=1/GPa)
#
#
# Indices 1 2 3 4 5 6 
#
# 1 0.007625 -0.002240 -0.003730 0.000000 0.000000 0.000000
# 2 -0.002240 0.015394 -0.001088 0.000000 0.000000 0.000000
# 3 -0.003730 -0.001088 0.008820 0.000000 0.000000 0.000000
# 4 0.000000 0.000000 0.000000 0.045382 0.000000 0.000000
# 5 0.000000 0.000000 0.000000 0.000000 0.041667 0.000000
# 6 0.000000 0.000000 0.000000 0.000000 0.000000 0.104494
#
#
# Mechanical properties :
#
#
# Convention : Reuss Voigt Hill
#
# Bulk Modulus (GPa) = 56.42754 74.25271 65.34012
# Shear Modulus (GPa) = 20.54197 28.90482 24.72339
#
# Velocity S-wave (km/s) = 3.20765 3.80496 3.51900
# Velocity P-wave (km/s) = 6.47934 7.51632 7.01702
#
# Compressibility (1/GPa) = 0.01772184
#
# Stress axis : x y z
#
# Youngs Moduli (GPa) = 131.15230 64.96205 113.38264
#
# Poissons Ratio (x) = 0.14555 0.42289
# Poissons Ratio (y) = 0.29384 0.12334
# Poissons Ratio (z) = 0.48917 0.07067
#
# Static dielectric constant tensor:
#      x y z
#    x 3.706460 0.000000 0.000000 
#    y 0.000000 3.563410 0.000000 
#    z 0.000000 0.000000 3.893560 
# 
# 
# High freq. dielectric constant tensor:
#      x y z
#    x 1.772410 0.000000 0.000000 
#    y 0.000000 1.772910 0.000000 
#    z 0.000000 0.000000 1.781060 
# 
# From -- ./inp_files/55637.got.cif
#   From: 2010.06.25/outbox.cif.g09.slc.cpg/sg71_28_cif.got.tgz:55637.got - 2010.06.28 04:59:45.
