data_PCOD8289820
_publ_section_title
;
Structure prediction by ZEFSAII (Michael W. Deem and Ramdas Pophale) SiO2 
 PCOD8289820
Probable space group: I M M M
;
_chemical_formula_sum "Si O2"
_cell_formula_units_Z 96
_cell_length_a 18.254521
_cell_length_b 9.306771
_cell_length_c 25.622672
_cell_angle_alpha 90.000000
_cell_angle_beta 90.000000
_cell_angle_gamma 90.000000
_cell_volume 4353.052315
_symmetry_space_group_name_H-M "I M M M"
_symmetry_group_IT_number 71
_symmetry_cell_setting 'orthorhombic'
loop_
_space_group_symop_operation_xyz
x,y,z
-x,-y,z
x,-y,-z
-x,y,-z
-x,-y,-z
x,y,-z
-x,y,z
x,-y,z
1/2+x,1/2+y,1/2+z
1/2-x,1/2-y,1/2+z
1/2+x,1/2-y,1/2-z
1/2-x,1/2+y,1/2-z
1/2-x,1/2-y,1/2-z
1/2+x,1/2+y,1/2-z
1/2-x,1/2+y,1/2+z
1/2+x,1/2-y,1/2+z
loop_
_atom_site_type_symbol
_atom_site_label
_atom_site_fract_x
_atom_site_fract_y
_atom_site_fract_z
Si Si1 0.419017 0.839655 0.437856
Si Si2 0.136729 0.335961 0.653622
Si Si3 0.210498 0.842724 0.058971
Si Si4 0.642713 0.331883 0.942434
Si Si5 0.084093 0.332491 0.232765
Si Si6 0.785589 0.833483 0.202578
O O1 0.411019 0.846739 0.500000
O O2 0.500000 0.784987 0.421912
O O3 0.358954 0.732402 0.412604
O O4 0.406606 0.000000 0.415040
O O5 0.115188 0.500000 0.643285
O O6 0.100929 0.244461 0.605937
O O7 0.100867 0.283785 0.707666
O O8 0.226914 0.317246 0.654782
O O9 0.277305 0.733942 0.058913
O O10 0.227083 0.000000 0.085228
O O11 0.187112 0.872688 0.000000
O O12 0.646442 0.500000 0.931461
O O13 0.606781 0.302449 0.000000
O O14 0.103200 0.500000 0.226647
O O15 0.135211 0.241175 0.192919
O O16 0.000000 0.300062 0.218963
O O17 0.750000 0.750000 0.250000
O O18 0.796331 0.000000 0.217162
#
# Coordination Sequence:
#
# PCOD8289820 Si02
#       6
#    16  16  16  16  16  16
#     4   8  13  21  33  49  70  96 126 165 218 279
#     4   9  18  32  51  76 106 140 177 218 262 310
#     4   9  16  25  38  56  78 106 144 193 247 298
#     4  10  20  32  47  68  94 127 171 222 269 310
#     4   9  18  33  54  82 115 146 175 211 258 315
#     4   9  17  30  50  78 110 142 176 214 260 316
#
# _framework density 22.053491000000001
#
# number of rings (size 3 to 8) (size 9 to 14) (size 15 to 20)
#    0.000    3.000    0.000    3.000    0.000    7.000 
#    0.000    1.667    0.000    1.500    0.000    8.167 
#    0.000    0.000    0.000    0.000    0.000    0.000 
#
# Total GULP energy -594644.735843 kJ/mol
# GULP energy per Si atom -12388.431997 kJ/mol
# Density = 2.200330 g / cm^3
# Si number density = 22.053491 Si / 1000 Ang^3
#
#
#
# Elastic Constant Matrix: (Units=GPa)
#
#
# Indices 1 2 3 4 5 6 
#
# 1 48.0689 7.5903 -11.3236 0.0000 0.0000 0.0000
# 2 7.5903 91.0864 30.9862 0.0000 0.0000 0.0000
# 3 -11.3236 30.9862 80.2102 0.0000 0.0000 0.0000
# 4 0.0000 0.0000 0.0000 24.7363 0.0000 0.0000
# 5 0.0000 0.0000 0.0000 0.0000 9.7646 0.0000
# 6 0.0000 0.0000 0.0000 0.0000 0.0000 25.9054
#
#
#
# Elastic Compliance Matrix: (Units=1/GPa)
#
#
# Indices 1 2 3 4 5 6 
#
# 1 0.022391 -0.003386 0.004469 0.000000 0.000000 0.000000
# 2 -0.003386 0.013152 -0.005559 0.000000 0.000000 0.000000
# 3 0.004469 -0.005559 0.015246 0.000000 0.000000 0.000000
# 4 0.000000 0.000000 0.000000 0.040426 0.000000 0.000000
# 5 0.000000 0.000000 0.000000 0.000000 0.102410 0.000000
# 6 0.000000 0.000000 0.000000 0.000000 0.000000 0.038602
#
#
# Mechanical properties :
#
#
# Convention : Reuss Voigt Hill
#
# Bulk Modulus (GPa) = 23.90242 30.43013 27.16628
# Shear Modulus (GPa) = 19.59828 24.88875 22.24352
#
# Velocity S-wave (km/s) = 2.98429 3.36305 3.17932
# Velocity P-wave (km/s) = 4.76829 5.37666 5.08159
#
# Compressibility (1/GPa) = 0.04183677
#
# Stress axis : x y z
#
# Youngs Moduli (GPa) = 44.66084 76.03545 65.59279
#
# Poissons Ratio (x) = 0.25747 -0.29314
# Poissons Ratio (y) = 0.15123 0.36461
# Poissons Ratio (z) = -0.19960 0.42266
#
# Static dielectric constant tensor:
#      x y z
#    x 3.980390 0.000000 0.000000 
#    y 0.000000 4.250320 0.000000 
#    z 0.000000 0.000000 4.327920 
# 
# 
# High freq. dielectric constant tensor:
#      x y z
#    x 1.838700 0.000000 0.000000 
#    y 0.000000 1.864050 0.000000 
#    z 0.000000 0.000000 1.867400 
# 
# From -- ./inp_files/66335.got.cif
#   From: 2010.06.25/outbox.cif.g09.slc.cpg/sg71_34_cif.got.tgz:66335.got - 2010.06.28 04:59:45.
