data_PCOD8289574
_publ_section_title
;
Structure prediction by ZEFSAII (Michael W. Deem and Ramdas Pophale) SiO2 
 PCOD8289574
Probable space group: I M M M
;
_chemical_formula_sum "Si O2"
_cell_formula_units_Z 88
_cell_length_a 28.550878
_cell_length_b 9.066536
_cell_length_c 17.061782
_cell_angle_alpha 90.000000
_cell_angle_beta 90.000000
_cell_angle_gamma 90.000000
_cell_volume 4416.571313
_symmetry_space_group_name_H-M "I M M M"
_symmetry_group_IT_number 71
_symmetry_cell_setting 'orthorhombic'
loop_
_space_group_symop_operation_xyz
x,y,z
-x,-y,z
x,-y,-z
-x,y,-z
-x,-y,-z
x,y,-z
-x,y,z
x,-y,z
1/2+x,1/2+y,1/2+z
1/2-x,1/2-y,1/2+z
1/2+x,1/2-y,1/2-z
1/2-x,1/2+y,1/2-z
1/2-x,1/2-y,1/2-z
1/2+x,1/2+y,1/2-z
1/2-x,1/2+y,1/2+z
1/2+x,1/2-y,1/2+z
loop_
_atom_site_type_symbol
_atom_site_label
_atom_site_fract_x
_atom_site_fract_y
_atom_site_fract_z
Si Si1 0.911433 0.673957 0.151611
Si Si2 0.365087 0.326057 0.909651
Si Si3 0.553984 0.338819 0.500000
Si Si4 0.053783 0.326006 0.319297
Si Si5 0.182477 0.326405 0.915427
Si Si6 0.770915 0.825723 0.673914
O O1 0.919733 0.500000 0.144578
O O2 0.933089 0.733344 0.232662
O O3 0.856242 0.718848 0.149433
O O4 0.935320 0.747929 0.077787
O O5 0.371093 0.500000 0.900805
O O6 0.413157 0.249993 0.883187
O O7 0.322010 0.270302 0.854658
O O8 0.354956 0.283641 0.000000
O O9 0.579429 0.500000 0.500000
O O10 0.500000 0.369618 0.500000
O O11 0.061965 0.500000 0.324199
O O12 0.000000 0.284335 0.337817
O O13 0.181010 0.500000 0.924160
O O14 0.234577 0.277356 0.893364
O O15 0.169547 0.254952 0.000000
O O16 0.750000 0.750000 0.750000
O O17 0.771403 0.000000 0.688144
#
# Coordination Sequence:
#
# PCOD8289574 Si02
#       6
#    16  16   8  16  16  16
#     4  10  19  35  58  82 108 144 193 238 281 342
#     4  10  22  40  61  87 118 155 198 241 291 354
#     4  11  23  35  49  75 113 153 191 235 288 339
#     4  10  22  39  60  87 115 147 193 249 304 353
#     4   9  16  29  53  81 105 136 179 221 265 320
#     4  10  20  35  57  84 115 148 185 230 280 339
#
# _framework density 19.924959000000001
#
# number of rings (size 3 to 8) (size 9 to 14) (size 15 to 20)
#    0.000    2.091    0.909    2.455    0.000    7.636 
#    0.000    2.727    0.000    1.091    0.000    0.000 
#    0.000    0.000    0.000    0.000    0.000    0.000 
#
# Total GULP energy -545340.364311 kJ/mol
# GULP energy per Si atom -12394.099189 kJ/mol
# Density = 1.987961 g / cm^3
# Si number density = 19.924959 Si / 1000 Ang^3
#
#
#
# Elastic Constant Matrix: (Units=GPa)
#
#
# Indices 1 2 3 4 5 6 
#
# 1 157.3444 34.3014 65.9877 0.0000 0.0000 0.0000
# 2 34.3014 36.1762 33.1041 0.0000 0.0000 0.0000
# 3 65.9877 33.1041 124.5538 0.0000 0.0000 0.0000
# 4 0.0000 0.0000 0.0000 32.8101 0.0000 0.0000
# 5 0.0000 0.0000 0.0000 0.0000 19.9289 0.0000
# 6 0.0000 0.0000 0.0000 0.0000 0.0000 26.5889
#
#
#
# Elastic Compliance Matrix: (Units=1/GPa)
#
#
# Indices 1 2 3 4 5 6 
#
# 1 0.008919 -0.005461 -0.003274 0.000000 0.000000 0.000000
# 2 -0.005461 0.039870 -0.007703 0.000000 0.000000 0.000000
# 3 -0.003274 -0.007703 0.011810 0.000000 0.000000 0.000000
# 4 0.000000 0.000000 0.000000 0.030478 0.000000 0.000000
# 5 0.000000 0.000000 0.000000 0.000000 0.050179 0.000000
# 6 0.000000 0.000000 0.000000 0.000000 0.000000 0.037610
#
#
# Mechanical properties :
#
#
# Convention : Reuss Voigt Hill
#
# Bulk Modulus (GPa) = 36.07143 64.98453 50.52798
# Shear Modulus (GPa) = 22.62618 28.17766 25.40192
#
# Velocity S-wave (km/s) = 3.37348 3.76465 3.57442
# Velocity P-wave (km/s) = 5.77207 7.18208 6.51533
#
# Compressibility (1/GPa) = 0.02772277
#
# Stress axis : x y z
#
# Youngs Moduli (GPa) = 112.12075 25.08174 84.67043
#
# Poissons Ratio (x) = 0.13697 0.27719
# Poissons Ratio (y) = 0.61229 0.65225
# Poissons Ratio (z) = 0.36706 0.19321
#
# Static dielectric constant tensor:
#      x y z
#    x 4.606900 0.000000 0.000000 
#    y 0.000000 3.363510 0.000000 
#    z 0.000000 0.000000 3.813800 
# 
# 
# High freq. dielectric constant tensor:
#      x y z
#    x 1.793020 0.000000 0.000000 
#    y 0.000000 1.744520 0.000000 
#    z 0.000000 0.000000 1.781870 
# 
# From -- ./inp_files/49223.got.cif
#   From: 2010.06.25/outbox.cif.g09.slc.cpg/sg71_25_cif.got.tgz:49223.got - 2010.06.28 04:59:45.
