data_PCOD8289413
_publ_section_title
;
Structure prediction by ZEFSAII (Michael W. Deem and Ramdas Pophale) SiO2 
 PCOD8289413
Probable space group: I M M M
;
_chemical_formula_sum "Si O2"
_cell_formula_units_Z 72
_cell_length_a 28.749898
_cell_length_b 8.661908
_cell_length_c 15.641598
_cell_angle_alpha 90.000000
_cell_angle_beta 90.000000
_cell_angle_gamma 90.000000
_cell_volume 3895.211062
_symmetry_space_group_name_H-M "I M M M"
_symmetry_group_IT_number 71
_symmetry_cell_setting 'orthorhombic'
loop_
_space_group_symop_operation_xyz
x,y,z
-x,-y,z
x,-y,-z
-x,y,-z
-x,-y,-z
x,y,-z
-x,y,z
x,-y,z
1/2+x,1/2+y,1/2+z
1/2-x,1/2-y,1/2+z
1/2+x,1/2-y,1/2-z
1/2-x,1/2+y,1/2-z
1/2-x,1/2-y,1/2-z
1/2+x,1/2+y,1/2-z
1/2-x,1/2+y,1/2+z
1/2+x,1/2-y,1/2+z
loop_
_atom_site_type_symbol
_atom_site_label
_atom_site_fract_x
_atom_site_fract_y
_atom_site_fract_z
Si Si1 0.054833 0.677531 0.174645
Si Si2 0.055251 0.173678 0.000000
Si Si3 0.108999 0.168104 0.500000
Si Si4 0.219150 0.828994 0.500000
Si Si5 0.783190 0.682640 0.321642
Si Si6 0.616190 0.316430 0.818305
O O1 0.068894 0.500000 0.185588
O O2 0.078781 0.779346 0.246733
O O3 0.000000 0.702577 0.182829
O O4 0.073381 0.736066 0.083161
O O5 0.000000 0.170649 0.000000
O O6 0.075366 0.000000 0.000000
O O7 0.164276 0.154173 0.500000
O O8 0.095829 0.249769 0.590178
O O9 0.085207 0.000000 0.500000
O O10 0.234645 0.739142 0.585497
O O11 0.241970 0.000000 0.500000
O O12 0.781268 0.500000 0.320048
O O13 0.750000 0.750000 0.250000
O O14 0.835011 0.737089 0.298018
O O15 0.624070 0.500000 0.825338
#
# Coordination Sequence:
#
# PCOD8289413 Si02
#       6
#    16   8   8   8  16  16
#     4  10  20  34  52  76 106 138 172 213 261 311
#     4   9  17  31  52  75  98 131 174 213 253 309
#     4   7  14  29  50  73  98 130 168 208 249 297
#     4   9  17  33  54  77 104 137 176 215 256 308
#     4  11  21  35  55  80 108 140 176 215 261 311
#     4  10  19  34  55  78 104 136 175 218 261 306
#
# _framework density 18.484235999999999
#
# number of rings (size 3 to 8) (size 9 to 14) (size 15 to 20)
#    0.000    2.333    0.000    5.333    0.000    2.667 
#    0.000    3.333    0.000    3.333    0.000    0.000 
#    0.000    0.000    0.000    0.000    0.000    0.000 
#
# Total GULP energy -446196.510898 kJ/mol
# GULP energy per Si atom -12394.347525 kJ/mol
# Density = 1.844216 g / cm^3
# Si number density = 18.484236 Si / 1000 Ang^3
#
#
#
# Elastic Constant Matrix: (Units=GPa)
#
#
# Indices 1 2 3 4 5 6 
#
# 1 36.9514 29.0941 47.9342 0.0000 0.0000 0.0000
# 2 29.0941 125.6731 56.7919 0.0000 0.0000 0.0000
# 3 47.9342 56.7919 181.3328 0.0000 0.0000 0.0000
# 4 0.0000 0.0000 0.0000 32.9978 0.0000 0.0000
# 5 0.0000 0.0000 0.0000 0.0000 27.1191 0.0000
# 6 0.0000 0.0000 0.0000 0.0000 0.0000 25.5225
#
#
#
# Elastic Compliance Matrix: (Units=1/GPa)
#
#
# Indices 1 2 3 4 5 6 
#
# 1 0.044559 -0.005816 -0.009957 0.000000 0.000000 0.000000
# 2 -0.005816 0.010028 -0.001603 0.000000 0.000000 0.000000
# 3 -0.009957 -0.001603 0.008649 0.000000 0.000000 0.000000
# 4 0.000000 0.000000 0.000000 0.030305 0.000000 0.000000
# 5 0.000000 0.000000 0.000000 0.000000 0.036874 0.000000
# 6 0.000000 0.000000 0.000000 0.000000 0.000000 0.039181
#
#
# Mechanical properties :
#
#
# Convention : Reuss Voigt Hill
#
# Bulk Modulus (GPa) = 35.10898 67.95529 51.53213
# Shear Modulus (GPa) = 23.38157 31.13702 27.25929
#
# Velocity S-wave (km/s) = 3.56047 4.10874 3.84439
# Velocity P-wave (km/s) = 5.99482 7.70407 6.90255
#
# Compressibility (1/GPa) = 0.02848275
#
# Stress axis : x y z
#
# Youngs Moduli (GPa) = 22.44234 99.71976 115.61997
#
# Poissons Ratio (x) = 0.57996 1.15127
# Poissons Ratio (y) = 0.13052 0.18538
# Poissons Ratio (z) = 0.22347 0.15988
#
# Static dielectric constant tensor:
#      x y z
#    x 2.981650 0.000000 0.000000 
#    y 0.000000 3.486220 0.000000 
#    z 0.000000 0.000000 3.921410 
# 
# 
# High freq. dielectric constant tensor:
#      x y z
#    x 1.670100 0.000000 0.000000 
#    y 0.000000 1.723270 0.000000 
#    z 0.000000 0.000000 1.742540 
# 
# From -- ./inp_files/6201.got.cif
#   From: 2010.06.25/outbox.cif.g09.slc.cpg/sg71_4_cif.got.tgz:6201.got - 2010.06.28 04:59:45.
