data_PCOD8289968
_publ_section_title
;
Structure prediction by ZEFSAII (Michael W. Deem and Ramdas Pophale) SiO2 
 PCOD8289968
Probable space group: I M M M
;
_chemical_formula_sum "Si O2"
_cell_formula_units_Z 120
_cell_length_a 17.263630
_cell_length_b 21.616295
_cell_length_c 17.641273
_cell_angle_alpha 90.000000
_cell_angle_beta 90.000000
_cell_angle_gamma 90.000000
_cell_volume 6583.294733
_symmetry_space_group_name_H-M "I M M M"
_symmetry_group_IT_number 71
_symmetry_cell_setting 'orthorhombic'
loop_
_space_group_symop_operation_xyz
x,y,z
-x,-y,z
x,-y,-z
-x,y,-z
-x,-y,-z
x,y,-z
-x,y,z
x,-y,z
1/2+x,1/2+y,1/2+z
1/2-x,1/2-y,1/2+z
1/2+x,1/2-y,1/2-z
1/2-x,1/2+y,1/2-z
1/2-x,1/2-y,1/2-z
1/2+x,1/2+y,1/2-z
1/2-x,1/2+y,1/2+z
1/2+x,1/2-y,1/2+z
loop_
_atom_site_type_symbol
_atom_site_label
_atom_site_fract_x
_atom_site_fract_y
_atom_site_fract_z
Si Si1 0.675124 0.929920 0.914892
Si Si2 0.587355 0.362143 0.232848
Si Si3 0.590885 0.073340 0.500000
Si Si4 0.854486 0.185886 0.417464
Si Si5 0.189744 0.640532 0.873981
Si Si6 0.412854 0.770501 0.292897
Si Si7 0.412644 0.187247 0.871977
Si Si8 0.262737 0.570580 0.735246
O O1 0.606590 0.880470 0.904486
O O2 0.739938 0.915060 0.851750
O O3 0.642675 0.000000 0.903331
O O4 0.710302 0.923454 0.000000
O O5 0.500000 0.382553 0.252857
O O6 0.592392 0.349598 0.142966
O O7 0.612689 0.299387 0.274987
O O8 0.646059 0.415146 0.258102
O O9 0.500000 0.093985 0.500000
O O10 0.635321 0.097276 0.425283
O O11 0.596645 0.000000 0.500000
O O12 0.888531 0.170232 0.500000
O O13 0.766884 0.161136 0.416402
O O14 0.855783 0.260072 0.404960
O O15 0.142789 0.703193 0.857235
O O16 0.210871 0.608500 0.794303
O O17 0.500000 0.771257 0.324272
O O18 0.406101 0.813563 0.218749
O O19 0.500000 0.203982 0.896794
O O20 0.249477 0.500000 0.756619
#
# Coordination Sequence:
#
# PCOD8289968 Si02
#       8
#    16  16   8  16  16  16  16  16
#     4  10  21  36  53  76 108 144 181 221 269 325
#     4   9  20  35  56  81 107 143 181 225 280 328
#     4  11  24  40  58  82 113 151 192 231 269 319
#     4  10  20  32  52  83 112 142 178 223 273 328
#     4  11  20  36  58  79 111 146 183 229 274 321
#     4   9  18  33  54  79 108 138 174 221 273 325
#     4  10  20  34  53  79 109 142 180 222 269 326
#     4  10  21  36  57  81 107 143 186 228 271 327
#
# _framework density 18.227955000000001
#
# number of rings (size 3 to 8) (size 9 to 14) (size 15 to 20)
#    0.000    2.067    2.000    2.400    1.867    4.000 
#    0.000    0.667    0.000    0.400    0.000    3.733 
#    0.000    0.000    0.000    0.000    0.000    0.000 
#
# Total GULP energy -743823.091666 kJ/mol
# GULP energy per Si atom -12397.051528 kJ/mol
# Density = 1.818647 g / cm^3
# Si number density = 18.227955 Si / 1000 Ang^3
#
#
#
# Elastic Constant Matrix: (Units=GPa)
#
#
# Indices 1 2 3 4 5 6 
#
# 1 85.9500 31.5869 27.4525 0.0000 0.0000 0.0000
# 2 31.5869 59.2871 19.6443 0.0000 0.0000 0.0000
# 3 27.4525 19.6443 75.1770 0.0001 0.0000 0.0000
# 4 0.0000 0.0000 0.0001 22.2838 0.0000 0.0000
# 5 0.0000 0.0000 0.0000 0.0000 18.0892 0.0000
# 6 0.0000 0.0000 0.0000 0.0000 0.0000 28.8928
#
#
#
# Elastic Compliance Matrix: (Units=1/GPa)
#
#
# Indices 1 2 3 4 5 6 
#
# 1 0.015404 -0.006944 -0.003810 0.000000 0.000000 0.000000
# 2 -0.006944 0.021596 -0.003107 0.000000 0.000000 0.000000
# 3 -0.003810 -0.003107 0.015505 0.000000 0.000000 0.000000
# 4 0.000000 0.000000 0.000000 0.044876 0.000000 0.000000
# 5 0.000000 0.000000 0.000000 0.000000 0.055282 0.000000
# 6 0.000000 0.000000 0.000000 0.000000 0.000000 0.034611
#
#
# Mechanical properties :
#
#
# Convention : Reuss Voigt Hill
#
# Bulk Modulus (GPa) = 40.35295 41.97572 41.16433
# Shear Modulus (GPa) = 22.39559 23.30186 22.84873
#
# Velocity S-wave (km/s) = 3.50900 3.57929 3.54432
# Velocity P-wave (km/s) = 6.21317 6.33719 6.27548
#
# Compressibility (1/GPa) = 0.02478134
#
# Stress axis : x y z
#
# Youngs Moduli (GPa) = 64.91925 46.30388 64.49369
#
# Poissons Ratio (x) = 0.32155 0.24575
# Poissons Ratio (y) = 0.45082 0.20041
# Poissons Ratio (z) = 0.24737 0.14389
#
# Static dielectric constant tensor:
#      x y z
#    x 3.292920 0.000000 0.000000 
#    y 0.000000 3.286180 0.000000 
#    z 0.000000 0.000000 3.373250 
# 
# 
# High freq. dielectric constant tensor:
#      x y z
#    x 1.699740 0.000000 0.000000 
#    y 0.000000 1.700750 0.000000 
#    z 0.000000 0.000000 1.704900 
# 
# From -- ./inp_files/46464.got.cif
#   From: 2010.06.25/outbox.cif.g09.slc.cpg/sg71_24_cif.got.tgz:46464.got - 2010.06.28 04:59:45.
