data_PCOD8289838
_publ_section_title
;
Structure prediction by ZEFSAII (Michael W. Deem and Ramdas Pophale) SiO2 
 PCOD8289838
Probable space group: I M M M
;
_chemical_formula_sum "Si O2"
_cell_formula_units_Z 104
_cell_length_a 25.763892
_cell_length_b 16.098686
_cell_length_c 13.915204
_cell_angle_alpha 90.000000
_cell_angle_beta 90.000000
_cell_angle_gamma 90.000000
_cell_volume 5771.536908
_symmetry_space_group_name_H-M "I M M M"
_symmetry_group_IT_number 71
_symmetry_cell_setting 'orthorhombic'
loop_
_space_group_symop_operation_xyz
x,y,z
-x,-y,z
x,-y,-z
-x,y,-z
-x,-y,-z
x,y,-z
-x,y,z
x,-y,z
1/2+x,1/2+y,1/2+z
1/2-x,1/2-y,1/2+z
1/2+x,1/2-y,1/2-z
1/2-x,1/2+y,1/2-z
1/2-x,1/2-y,1/2-z
1/2+x,1/2+y,1/2-z
1/2-x,1/2+y,1/2+z
1/2+x,1/2-y,1/2+z
loop_
_atom_site_type_symbol
_atom_site_label
_atom_site_fract_x
_atom_site_fract_y
_atom_site_fract_z
Si Si1 0.058071 0.332466 0.794084
Si Si2 0.440476 0.403893 0.109297
Si Si3 0.633052 0.695150 0.749903
Si Si4 0.438374 0.000000 0.607830
Si Si5 0.586474 0.095027 0.106753
Si Si6 0.810170 0.688225 0.608586
Si Si7 0.704575 0.596228 0.611467
O O1 0.098644 0.258788 0.814428
O O2 0.081716 0.415947 0.841756
O O3 0.054439 0.347067 0.679211
O O4 0.000000 0.311062 0.832551
O O5 0.500000 0.388612 0.138634
O O6 0.426011 0.500000 0.120116
O O7 0.404892 0.351566 0.178640
O O8 0.430824 0.374687 0.000000
O O9 0.676852 0.740387 0.814158
O O10 0.658116 0.631030 0.676119
O O11 0.500000 0.000000 0.611922
O O12 0.416808 0.000000 0.500000
O O13 0.647382 0.115336 0.113133
O O14 0.577803 0.000000 0.135985
O O15 0.565008 0.112486 0.000000
O O16 0.807766 0.725517 0.500000
O O17 0.755943 0.647267 0.637560
O O18 0.689560 0.607209 0.500000
O O19 0.713481 0.500000 0.636781
#
# Coordination Sequence:
#
# PCOD8289838 Si02
#       7
#    16  16  16   8  16  16  16
#     4  10  20  32  47  71 101 130 167 209 251 299
#     4   9  18  33  53  78 110 146 177 205 248 308
#     4  11  20  32  53  80 105 131 172 216 260 296
#     4   9  18  34  51  63  85 127 172 208 247 297
#     4   9  16  27  46  72 103 136 164 194 238 294
#     4   9  18  32  51  76 105 133 164 204 255 310
#     4  10  21  37  55  74  99 134 173 215 261 311
#
# _framework density 18.019463999999999
#
# number of rings (size 3 to 8) (size 9 to 14) (size 15 to 20)
#    0.000    2.385    0.769    2.769    0.000    3.385 
#    0.000    0.769    0.000    1.385    0.000    5.385 
#    0.000    0.000    0.000    0.000    0.000    0.000 
#
# Total GULP energy -644716.632826 kJ/mol
# GULP energy per Si atom -12398.396785 kJ/mol
# Density = 1.797845 g / cm^3
# Si number density = 18.019464 Si / 1000 Ang^3
#
#
#
# Elastic Constant Matrix: (Units=GPa)
#
#
# Indices 1 2 3 4 5 6 
#
# 1 71.7001 46.3321 38.1593 0.0000 0.0000 0.0000
# 2 46.3321 90.7591 48.0116 0.0000 0.0000 0.0000
# 3 38.1593 48.0116 75.4591 0.0000 0.0000 0.0000
# 4 0.0000 0.0000 0.0000 27.9860 0.0000 0.0000
# 5 0.0000 0.0000 0.0000 0.0000 26.8949 0.0000
# 6 0.0000 0.0000 0.0000 0.0000 0.0000 24.7373
#
#
#
# Elastic Compliance Matrix: (Units=1/GPa)
#
#
# Indices 1 2 3 4 5 6 
#
# 1 0.022560 -0.008263 -0.006151 0.000000 0.000000 0.000000
# 2 -0.008263 0.019635 -0.008314 0.000000 0.000000 0.000000
# 3 -0.006151 -0.008314 0.021653 0.000000 0.000000 0.000000
# 4 0.000000 0.000000 0.000000 0.035732 0.000000 0.000000
# 5 0.000000 0.000000 0.000000 0.000000 0.037182 0.000000
# 6 0.000000 0.000000 0.000000 0.000000 0.000000 0.040425
#
#
# Mechanical properties :
#
#
# Convention : Reuss Voigt Hill
#
# Bulk Modulus (GPa) = 54.37449 55.88049 55.12749
# Shear Modulus (GPa) = 21.85571 22.95130 22.40351
#
# Velocity S-wave (km/s) = 3.48644 3.57276 3.52986
# Velocity P-wave (km/s) = 6.81527 6.93527 6.87553
#
# Compressibility (1/GPa) = 0.01839098
#
# Stress axis : x y z
#
# Youngs Moduli (GPa) = 44.32607 50.93075 46.18322
#
# Poissons Ratio (x) = 0.42083 0.28408
# Poissons Ratio (y) = 0.36626 0.38398
# Poissons Ratio (z) = 0.27266 0.42345
#
# Static dielectric constant tensor:
#      x y z
#    x 3.178320 0.000000 0.000000 
#    y 0.000000 3.373320 0.000000 
#    z 0.000000 0.000000 3.306790 
# 
# 
# High freq. dielectric constant tensor:
#      x y z
#    x 1.684470 0.000000 0.000000 
#    y 0.000000 1.698190 0.000000 
#    z 0.000000 0.000000 1.690110 
# 
# From -- ./inp_files/39494.got.cif
#   From: 2010.06.25/outbox.cif.g09.slc.cpg/sg71_20_cif.got.tgz:39494.got - 2010.06.28 04:59:45.
