data_PCOD8289545
_publ_section_title
;
Structure prediction by ZEFSAII (Michael W. Deem and Ramdas Pophale) SiO2 
 PCOD8289545
Probable space group: I M M M
;
_chemical_formula_sum "Si O2"
_cell_formula_units_Z 80
_cell_length_a 11.509711
_cell_length_b 12.627122
_cell_length_c 31.604235
_cell_angle_alpha 90.000000
_cell_angle_beta 90.000000
_cell_angle_gamma 90.000000
_cell_volume 4593.186481
_symmetry_space_group_name_H-M "I M M M"
_symmetry_group_IT_number 71
_symmetry_cell_setting 'orthorhombic'
loop_
_space_group_symop_operation_xyz
x,y,z
-x,-y,z
x,-y,-z
-x,y,-z
-x,-y,-z
x,y,-z
-x,y,z
x,-y,z
1/2+x,1/2+y,1/2+z
1/2-x,1/2-y,1/2+z
1/2+x,1/2-y,1/2-z
1/2-x,1/2+y,1/2-z
1/2-x,1/2-y,1/2-z
1/2+x,1/2+y,1/2-z
1/2-x,1/2+y,1/2+z
1/2+x,1/2-y,1/2+z
loop_
_atom_site_type_symbol
_atom_site_label
_atom_site_fract_x
_atom_site_fract_y
_atom_site_fract_z
Si Si1 0.780211 0.879531 0.547326
Si Si2 0.632556 0.123118 0.626350
Si Si3 0.129561 0.881152 0.243014
Si Si4 0.000000 0.623880 0.367086
Si Si5 0.295625 0.765526 0.816955
Si Si6 0.000000 0.265118 0.548459
O O1 0.733595 0.858797 0.500000
O O2 0.674080 0.854666 0.578535
O O3 0.888357 0.805807 0.557919
O O4 0.823799 0.000000 0.552704
O O5 0.500000 0.161126 0.630075
O O6 0.710065 0.188553 0.658345
O O7 0.644652 0.000000 0.638197
O O8 0.220399 0.854872 0.206243
O O9 0.135977 0.802932 0.282644
O O10 0.000000 0.871872 0.223987
O O11 0.155401 0.000000 0.258902
O O12 0.114544 0.677585 0.347956
O O13 0.000000 0.638807 0.418048
O O14 0.000000 0.500000 0.356501
O O15 0.000000 0.308186 0.500000
#
# Coordination Sequence:
#
# PCOD8289545 Si02
#       6
#    16  16  16   8  16   8
#     4   9  17  30  51  80 112 144 179 219 269 330
#     4  10  20  33  52  80 112 146 183 220 266 326
#     4  10  21  37  58  80 104 139 183 222 268 330
#     4  12  24  38  57  84 110 143 189 233 284 333
#     4  11  21  38  55  79 111 145 175 229 274 321
#     4  10  19  35  56  81 111 146 183 229 282 328
#
# _framework density 17.417102
#
# number of rings (size 3 to 8) (size 9 to 14) (size 15 to 20)
#    0.000    1.800    3.000    2.100    0.000    1.800 
#    0.000    2.000    0.000    0.000    0.000    0.000 
#    0.000    3.200    0.000    0.000    0.000    0.000 
#
# Total GULP energy -496012.934851 kJ/mol
# GULP energy per Si atom -12400.323371 kJ/mol
# Density = 1.737746 g / cm^3
# Si number density = 17.417102 Si / 1000 Ang^3
#
#
#
# Elastic Constant Matrix: (Units=GPa)
#
#
# Indices 1 2 3 4 5 6 
#
# 1 116.0644 45.1638 44.9014 0.0000 0.0000 0.0000
# 2 45.1638 71.9771 32.7681 0.0000 0.0000 0.0000
# 3 44.9014 32.7681 89.9453 0.0000 0.0000 0.0000
# 4 0.0000 0.0000 0.0000 24.7761 0.0000 0.0000
# 5 0.0000 0.0000 0.0000 0.0000 21.0390 0.0000
# 6 0.0000 0.0000 0.0000 0.0000 0.0000 27.4874
#
#
#
# Elastic Compliance Matrix: (Units=1/GPa)
#
#
# Indices 1 2 3 4 5 6 
#
# 1 0.012527 -0.006010 -0.004064 0.000000 0.000000 0.000000
# 2 -0.006010 0.019539 -0.004118 0.000000 0.000000 0.000000
# 3 -0.004064 -0.004118 0.014647 0.000000 0.000000 0.000000
# 4 0.000000 0.000000 0.000000 0.040361 0.000000 0.000000
# 5 0.000000 0.000000 0.000000 0.000000 0.047531 0.000000
# 6 0.000000 0.000000 0.000000 0.000000 0.000000 0.036380
#
#
# Mechanical properties :
#
#
# Convention : Reuss Voigt Hill
#
# Bulk Modulus (GPa) = 54.55919 58.18370 56.37144
# Shear Modulus (GPa) = 24.33336 25.00408 24.66872
#
# Velocity S-wave (km/s) = 3.74183 3.79305 3.76753
# Velocity P-wave (km/s) = 7.07541 7.25683 7.16669
#
# Compressibility (1/GPa) = 0.01832872
#
# Stress axis : x y z
#
# Youngs Moduli (GPa) = 79.82886 51.17891 68.27394
#
# Poissons Ratio (x) = 0.30759 0.27746
# Poissons Ratio (y) = 0.47978 0.28116
# Poissons Ratio (z) = 0.32442 0.21076
#
# Static dielectric constant tensor:
#      x y z
#    x 3.284900 0.000000 0.000000 
#    y 0.000000 3.125880 0.000000 
#    z 0.000000 0.000000 3.316480 
# 
# 
# High freq. dielectric constant tensor:
#      x y z
#    x 1.679980 0.000000 0.000000 
#    y 0.000000 1.660810 0.000000 
#    z 0.000000 0.000000 1.677800 
# 
# From -- ./inp_files/20194.got.cif
#   From: 2010.06.25/outbox.cif.g09.slc.cpg/sg71_11_cif.got.tgz:20194.got - 2010.06.28 04:59:45.
