data_PCOD8289592
_publ_section_title
;
Structure prediction by ZEFSAII (Michael W. Deem and Ramdas Pophale) SiO2 
 PCOD8289592
Probable space group: I M M M
;
_chemical_formula_sum "Si O2"
_cell_formula_units_Z 88
_cell_length_a 9.035712
_cell_length_b 29.158404
_cell_length_c 17.423261
_cell_angle_alpha 90.000000
_cell_angle_beta 90.000000
_cell_angle_gamma 90.000000
_cell_volume 4590.453277
_symmetry_space_group_name_H-M "I M M M"
_symmetry_group_IT_number 71
_symmetry_cell_setting 'orthorhombic'
loop_
_space_group_symop_operation_xyz
x,y,z
-x,-y,z
x,-y,-z
-x,y,-z
-x,-y,-z
x,y,-z
-x,y,z
x,-y,z
1/2+x,1/2+y,1/2+z
1/2-x,1/2-y,1/2+z
1/2+x,1/2-y,1/2-z
1/2-x,1/2+y,1/2-z
1/2-x,1/2-y,1/2-z
1/2+x,1/2+y,1/2-z
1/2-x,1/2+y,1/2+z
1/2+x,1/2-y,1/2+z
loop_
_atom_site_type_symbol
_atom_site_label
_atom_site_fract_x
_atom_site_fract_y
_atom_site_fract_z
Si Si1 0.175769 0.500000 0.588499
Si Si2 0.823778 0.587275 0.311781
Si Si3 0.673715 0.682177 0.306320
Si Si4 0.824567 0.823175 0.500000
Si Si5 0.673620 0.728668 0.147972
Si Si6 0.336523 0.948540 0.650704
Si Si7 0.174928 0.075037 0.500000
O O1 0.233913 0.500000 0.500000
O O2 0.232553 0.546059 0.632475
O O3 0.000000 0.500000 0.589398
O O4 0.749710 0.635338 0.335232
O O5 0.773056 0.579361 0.223422
O O6 0.000000 0.591485 0.317372
O O7 0.500000 0.677399 0.320129
O O8 0.712184 0.695175 0.218553
O O9 0.738089 0.723900 0.355505
O O10 0.765866 0.797902 0.574662
O O11 0.759918 0.873991 0.500000
O O12 0.000000 0.825438 0.500000
O O13 0.500000 0.740002 0.145722
O O14 0.500000 0.930490 0.627181
O O15 0.230720 0.948681 0.577287
O O16 0.349050 0.000000 0.681608
O O17 0.000000 0.071992 0.500000
#
# Coordination Sequence:
#
# PCOD8289592 Si02
#       7
#     8  16  16   8  16  16   8
#     4   9  18  36  61  86 107 132 180 237 275 315
#     4  10  19  35  59  83 107 141 184 227 271 324
#     4  10  20  34  54  81 111 141 173 218 270 324
#     4   9  18  34  54  75 102 135 175 224 264 305
#     4   9  18  35  56  76 102 139 182 220 261 313
#     4  10  20  35  53  75 108 147 186 225 264 309
#     4  11  22  34  51  80 114 146 181 223 268 313
#
# _framework density 19.17022
#
# number of rings (size 3 to 8) (size 9 to 14) (size 15 to 20)
#    0.000    2.273    0.909    2.182    0.000    4.364 
#    1.636    2.727    0.000    0.545    0.000    0.000 
#    0.000    0.000    0.000    0.000    0.000    0.000 
#
# Total GULP energy -545467.361776 kJ/mol
# GULP energy per Si atom -12396.985495 kJ/mol
# Density = 1.912659 g / cm^3
# Si number density = 19.170220 Si / 1000 Ang^3
#
#
#
# Elastic Constant Matrix: (Units=GPa)
#
#
# Indices 1 2 3 4 5 6 
#
# 1 47.8267 32.4009 21.6636 -0.0001 0.0000 0.0000
# 2 32.4009 139.9901 37.5476 -0.0002 0.0001 0.0000
# 3 21.6636 37.5476 79.5362 -0.0011 0.0003 0.0000
# 4 -0.0001 -0.0002 -0.0011 28.6694 0.0001 0.0000
# 5 0.0000 0.0001 0.0003 0.0001 13.4818 0.0000
# 6 0.0000 0.0000 0.0000 0.0000 0.0000 28.3975
#
#
#
# Elastic Compliance Matrix: (Units=1/GPa)
#
#
# Indices 1 2 3 4 5 6 
#
# 1 0.026382 -0.004785 -0.004927 0.000000 0.000000 0.000000
# 2 -0.004785 0.009047 -0.002968 0.000000 0.000000 0.000000
# 3 -0.004927 -0.002968 0.015316 0.000001 0.000000 0.000000
# 4 0.000000 0.000000 0.000001 0.034880 0.000000 0.000000
# 5 0.000000 0.000000 0.000000 0.000000 0.074174 0.000000
# 6 0.000000 0.000000 0.000000 0.000000 0.000000 0.035214
#
#
# Mechanical properties :
#
#
# Convention : Reuss Voigt Hill
#
# Bulk Modulus (GPa) = 39.39171 50.06413 44.72792
# Shear Modulus (GPa) = 21.84989 25.82578 23.83784
#
# Velocity S-wave (km/s) = 3.37973 3.67438 3.53013
# Velocity P-wave (km/s) = 5.98524 6.64633 6.32443
#
# Compressibility (1/GPa) = 0.02538605
#
# Stress axis : x y z
#
# Youngs Moduli (GPa) = 37.90463 110.53717 65.29192
#
# Poissons Ratio (x) = 0.52888 0.32169
# Poissons Ratio (y) = 0.18136 0.19376
# Poissons Ratio (z) = 0.18676 0.32803
#
# Static dielectric constant tensor:
#      x y z
#    x 3.199140 0.000000 0.000000 
#    y 0.000000 3.607530 0.000000 
#    z 0.000000 0.000000 3.495290 
# 
# 
# High freq. dielectric constant tensor:
#      x y z
#    x 1.721050 0.000000 0.000000 
#    y 0.000000 1.757200 0.000000 
#    z 0.000000 0.000000 1.738830 
# 
# From -- ./inp_files/42525.got.cif
#   From: 2010.06.25/outbox.cif.g09.slc.cpg/sg71_22_cif.got.tgz:42525.got - 2010.06.28 04:59:45.
