data_PCOD8289717
_publ_section_title
;
Structure prediction by ZEFSAII (Michael W. Deem and Ramdas Pophale) SiO2 
 PCOD8289717
Probable space group: I M M M
;
_chemical_formula_sum "Si O2"
_cell_formula_units_Z 120
_cell_length_a 15.175180
_cell_length_b 32.364176
_cell_length_c 13.340057
_cell_angle_alpha 90.000000
_cell_angle_beta 90.000000
_cell_angle_gamma 90.000000
_cell_volume 6551.731494
_symmetry_space_group_name_H-M "I M M M"
_symmetry_group_IT_number 71
_symmetry_cell_setting 'orthorhombic'
loop_
_space_group_symop_operation_xyz
x,y,z
-x,-y,z
x,-y,-z
-x,y,-z
-x,-y,-z
x,y,-z
-x,y,z
x,-y,z
1/2+x,1/2+y,1/2+z
1/2-x,1/2-y,1/2+z
1/2+x,1/2-y,1/2-z
1/2-x,1/2+y,1/2-z
1/2-x,1/2-y,1/2-z
1/2+x,1/2+y,1/2-z
1/2-x,1/2+y,1/2+z
1/2+x,1/2-y,1/2+z
loop_
_atom_site_type_symbol
_atom_site_label
_atom_site_fract_x
_atom_site_fract_y
_atom_site_fract_z
Si Si1 0.897907 0.646412 0.115506
Si Si2 0.000000 0.048541 0.108166
Si Si3 0.250289 0.201759 0.120771
Si Si4 0.601844 0.354399 0.116312
Si Si5 0.251547 0.118957 0.755782
Si Si6 0.191089 0.047336 0.119429
Si Si7 0.596747 0.240234 0.383027
Si Si8 0.903256 0.239764 0.383083
O O1 0.838529 0.618285 0.187173
O O2 0.871049 0.693707 0.137756
O O3 0.000000 0.638546 0.140478
O O4 0.878173 0.635331 0.000000
O O5 0.092620 0.059869 0.160976
O O6 0.000000 0.000000 0.089607
O O7 0.000000 0.070889 0.000000
O O8 0.250159 0.156426 0.165892
O O9 0.164593 0.226488 0.162104
O O10 0.335091 0.227094 0.162399
O O11 0.250303 0.199165 0.000000
O O12 0.500000 0.362925 0.144495
O O13 0.665324 0.381768 0.185222
O O14 0.627638 0.306903 0.137737
O O15 0.618335 0.365332 0.000000
O O16 0.257134 0.077170 0.821296
O O17 0.214191 0.000000 0.146145
O O18 0.197454 0.054164 0.000000
O O19 0.590704 0.247072 0.500000
O O20 0.500000 0.248185 0.335795
O O21 0.908302 0.246884 0.500000
O O22 0.000000 0.248098 0.336330
#
# Coordination Sequence:
#
# PCOD8289717 Si02
#       8
#    16   8  16  16  16  16  16  16
#     4   9  19  36  55  74  99 136 182 224 257 296
#     4   7  12  28  54  76  95 129 169 193 220 278
#     4  10  20  31  43  68 105 135 167 216 262 299
#     4   9  19  34  49  70 103 139 173 207 247 301
#     4  12  22  30  52  81 102 128 171 219 266 305
#     4   9  19  37  58  79 107 140 169 200 244 307
#     4   8  15  30  48  64  94 142 181 208 250 303
#     4   8  15  30  48  62  89 139 181 205 242 298
#
# _framework density 18.315767999999998
#
# number of rings (size 3 to 8) (size 9 to 14) (size 15 to 20)
#    0.000    2.867    0.000    4.000    0.933    5.333 
#    0.000    2.667    0.000    3.200    0.000    2.800 
#    0.000    0.000    0.000    0.000    0.000    0.000 
#
# Total GULP energy -743528.978536 kJ/mol
# GULP energy per Si atom -12392.149642 kJ/mol
# Density = 1.827408 g / cm^3
# Si number density = 18.315768 Si / 1000 Ang^3
#
#
#
# Elastic Constant Matrix: (Units=GPa)
#
#
# Indices 1 2 3 4 5 6 
#
# 1 98.7719 51.6760 33.2430 -0.0004 0.0001 0.0000
# 2 51.6760 92.3845 42.7639 0.0001 0.0002 0.0000
# 3 33.2430 42.7639 72.9217 -0.0009 0.0013 -0.0001
# 4 -0.0004 0.0001 -0.0009 27.1898 0.0006 -0.0001
# 5 0.0001 0.0002 0.0013 0.0006 -19.5227 -0.0001
# 6 0.0000 0.0000 -0.0001 -0.0001 -0.0001 23.8803
#
#
#
# Elastic Compliance Matrix: (Units=1/GPa)
#
#
# Indices 1 2 3 4 5 6 
#
# 1 0.014656 -0.007008 -0.002572 0.000000 0.000000 0.000000
# 2 -0.007008 0.018208 -0.007483 0.000000 0.000000 0.000000
# 3 -0.002572 -0.007483 0.019274 0.000001 0.000001 0.000000
# 4 0.000000 0.000000 0.000001 0.036778 0.000001 0.000000
# 5 0.000000 0.000000 0.000001 0.000001 -0.051223 0.000000
# 6 0.000000 0.000000 0.000000 0.000000 0.000000 0.041876
#
#
# Mechanical properties :
#
#
# Convention : Reuss Voigt Hill
#
# Bulk Modulus (GPa) = 55.51536 57.71599 56.61568
# Shear Modulus (GPa) = 41.77116 15.40249 28.58683
#
# Velocity S-wave (km/s) = 4.78076 2.90305 3.95495
# Velocity P-wave (km/s) = 7.80065 6.54347 7.19955
#
# Compressibility (1/GPa) = 0.01801303
#
# Stress axis : x y z
#
# Youngs Moduli (GPa) = 68.23055 54.92080 51.88266
#
# Poissons Ratio (x) = 0.38486 0.13343
# Poissons Ratio (y) = 0.47813 0.38825
# Poissons Ratio (z) = 0.17548 0.41099
#
# Static dielectric constant tensor:
#      x y z
#    x 3.894110 0.000000 0.000000 
#    y 0.000000 2.948800 0.000000 
#    z 0.000000 0.000000 3.297020 
# 
# 
# High freq. dielectric constant tensor:
#      x y z
#    x 1.712630 0.000000 0.000000 
#    y 0.000000 1.660030 0.000000 
#    z 0.000000 0.000000 1.718690 
# 
# From -- ./inp_files/35468.got.cif
#   From: 2010.06.25/outbox.cif.g09.slc.cpg/sg71_18_cif.got.tgz:35468.got - 2010.06.28 04:59:45.
