data_PCOD8289045
_publ_section_title
;
Structure prediction by ZEFSAII (Michael W. Deem and Ramdas Pophale) SiO2 
 PCOD8289045
Probable space group: I M M M
;
_chemical_formula_sum "Si O2"
_cell_formula_units_Z 88
_cell_length_a 28.579652
_cell_length_b 18.005099
_cell_length_c 9.281691
_cell_angle_alpha 90.000000
_cell_angle_beta 90.000000
_cell_angle_gamma 90.000000
_cell_volume 4776.167577
_symmetry_space_group_name_H-M "I M M M"
_symmetry_group_IT_number 71
_symmetry_cell_setting 'orthorhombic'
loop_
_space_group_symop_operation_xyz
x,y,z
-x,-y,z
x,-y,-z
-x,y,-z
-x,-y,-z
x,y,-z
-x,y,z
x,-y,z
1/2+x,1/2+y,1/2+z
1/2-x,1/2-y,1/2+z
1/2+x,1/2-y,1/2-z
1/2-x,1/2+y,1/2-z
1/2-x,1/2-y,1/2-z
1/2+x,1/2+y,1/2-z
1/2-x,1/2+y,1/2+z
1/2+x,1/2-y,1/2+z
loop_
_atom_site_type_symbol
_atom_site_label
_atom_site_fract_x
_atom_site_fract_y
_atom_site_fract_z
Si Si1 0.702016 0.839293 0.832868
Si Si2 0.694842 0.691459 0.663147
Si Si3 0.095305 0.137160 0.834632
Si Si4 0.375583 0.915719 0.332499
Si Si5 0.054947 0.000000 0.334383
Si Si6 0.552397 0.206951 0.670919
O O1 0.688267 0.758861 0.772587
O O2 0.757323 0.853585 0.806330
O O3 0.672939 0.902524 0.751210
O O4 0.688940 0.841932 0.000000
O O5 0.695382 0.723964 0.500000
O O6 0.651447 0.635920 0.682375
O O7 0.074766 0.215405 0.778721
O O8 0.075133 0.073074 0.737375
O O9 0.080529 0.123144 0.000000
O O10 0.366159 0.899888 0.500000
O O11 0.415855 0.861026 0.271397
O O12 0.392221 0.000000 0.306402
O O13 0.069875 0.000000 0.500000
O O14 0.000000 0.000000 0.313119
O O15 0.550629 0.203529 0.500000
O O16 0.500000 0.199295 0.735038
#
# Coordination Sequence:
#
# PCOD8289045 Si02
#       6
#    16  16  16  16   8  16
#     4  10  19  32  54  82 111 143 178 220 271 328
#     4   9  18  34  57  83 109 139 177 224 271 320
#     4  10  19  36  61  82 106 142 186 230 269 324
#     4  10  20  35  54  77 112 151 185 227 274 319
#     4  11  25  41  55  79 117 149 177 225 286 341
#     4   9  17  31  55  84 107 133 178 230 272 315
#
# _framework density 18.424814000000001
#
# number of rings (size 3 to 8) (size 9 to 14) (size 15 to 20)
#    0.000    2.273    1.818    1.364    0.000    3.636 
#    1.636    1.818    0.000    0.545    0.000    1.273 
#    0.000    0.000    0.000    0.000    0.000    0.000 
#
# Total GULP energy -545619.551013 kJ/mol
# GULP energy per Si atom -12400.444341 kJ/mol
# Density = 1.838288 g / cm^3
# Si number density = 18.424814 Si / 1000 Ang^3
#
#
#
# Elastic Constant Matrix: (Units=GPa)
#
#
# Indices 1 2 3 4 5 6 
#
# 1 126.0170 71.8897 52.9402 0.0000 0.0000 0.0000
# 2 71.8897 136.3163 55.1967 0.0000 0.0000 0.0000
# 3 52.9402 55.1967 76.0121 0.0000 0.0000 0.0000
# 4 0.0000 0.0000 0.0000 21.6989 0.0000 0.0000
# 5 0.0000 0.0000 0.0000 0.0000 25.8910 0.0000
# 6 0.0000 0.0000 0.0000 0.0000 0.0000 22.9562
#
#
#
# Elastic Compliance Matrix: (Units=1/GPa)
#
#
# Indices 1 2 3 4 5 6 
#
# 1 0.012900 -0.004483 -0.005729 0.000000 0.000000 0.000000
# 2 -0.004483 0.011949 -0.005555 0.000000 0.000000 0.000000
# 3 -0.005729 -0.005555 0.021179 0.000000 0.000000 0.000000
# 4 0.000000 0.000000 0.000000 0.046085 0.000000 0.000000
# 5 0.000000 0.000000 0.000000 0.000000 0.038624 0.000000
# 6 0.000000 0.000000 0.000000 0.000000 0.000000 0.043561
#
#
# Mechanical properties :
#
#
# Convention : Reuss Voigt Hill
#
# Bulk Modulus (GPa) = 68.98916 77.59986 73.29451
# Shear Modulus (GPa) = 23.73455 24.66380 24.19917
#
# Velocity S-wave (km/s) = 3.59302 3.66268 3.62802
# Velocity P-wave (km/s) = 7.39851 7.75213 7.57738
#
# Compressibility (1/GPa) = 0.01449503
#
# Stress axis : x y z
#
# Youngs Moduli (GPa) = 77.52103 83.68578 47.21614
#
# Poissons Ratio (x) = 0.37519 0.27049
# Poissons Ratio (y) = 0.34755 0.26227
# Poissons Ratio (z) = 0.44409 0.46485
#
# Static dielectric constant tensor:
#      x y z
#    x 3.731400 0.000000 0.000000 
#    y 0.000000 3.202730 0.000000 
#    z 0.000000 0.000000 3.242430 
# 
# 
# High freq. dielectric constant tensor:
#      x y z
#    x 1.729140 0.000000 0.000000 
#    y 0.000000 1.699870 0.000000 
#    z 0.000000 0.000000 1.692960 
# 
# From -- ./inp_files/8860.got.cif
#   From: 2010.06.25/outbox.cif.g09.slc.cpg/sg71_5_cif.got.tgz:8860.got - 2010.06.28 04:59:45.
