data_PCOD8289450
_publ_section_title
;
Structure prediction by ZEFSAII (Michael W. Deem and Ramdas Pophale) SiO2 
 PCOD8289450
Probable space group: I M M M
;
_chemical_formula_sum "Si O2"
_cell_formula_units_Z 72
_cell_length_a 8.480812
_cell_length_b 16.600454
_cell_length_c 25.234546
_cell_angle_alpha 90.000000
_cell_angle_beta 90.000000
_cell_angle_gamma 90.000000
_cell_volume 3552.653873
_symmetry_space_group_name_H-M "I M M M"
_symmetry_group_IT_number 71
_symmetry_cell_setting 'orthorhombic'
loop_
_space_group_symop_operation_xyz
x,y,z
-x,-y,z
x,-y,-z
-x,y,-z
-x,-y,-z
x,y,-z
-x,y,z
x,-y,z
1/2+x,1/2+y,1/2+z
1/2-x,1/2-y,1/2+z
1/2+x,1/2-y,1/2-z
1/2-x,1/2+y,1/2-z
1/2-x,1/2-y,1/2-z
1/2+x,1/2+y,1/2-z
1/2-x,1/2+y,1/2+z
1/2+x,1/2-y,1/2+z
loop_
_atom_site_type_symbol
_atom_site_label
_atom_site_fract_x
_atom_site_fract_y
_atom_site_fract_z
Si Si1 0.184872 0.331487 0.778241
Si Si2 0.184976 0.656802 0.442210
Si Si3 0.187460 0.500000 0.730361
Si Si4 0.188810 0.500000 0.388202
Si Si5 0.686191 0.592301 0.000000
Si Si6 0.815351 0.178214 0.606476
O O1 0.250000 0.250000 0.750000
O O2 0.252929 0.415877 0.754857
O O3 0.222940 0.341450 0.840245
O O4 0.000000 0.326993 0.769170
O O5 0.259022 0.674643 0.500000
O O6 0.260959 0.576906 0.417933
O O7 0.219819 0.728353 0.402202
O O8 0.000000 0.644500 0.448738
O O9 0.251707 0.500000 0.671037
O O10 0.000000 0.500000 0.734919
O O11 0.000000 0.500000 0.388410
O O12 0.751915 0.631015 0.945354
O O13 0.736637 0.500000 0.000000
O O14 0.500000 0.606591 0.000000
O O15 0.000000 0.159280 0.614443
#
# Coordination Sequence:
#
# PCOD8289450 Si02
#       6
#    16  16   8   8   8  16
#     4  11  23  40  60  84 115 151 193 239 291 347
#     4   9  15  25  44  74 106 135 169 211 261 319
#     4   9  20  37  55  79 111 146 185 236 290 337
#     4   9  15  24  43  69  99 133 170 214 263 316
#     4   9  18  32  53  82 112 146 189 235 284 339
#     4  10  19  34  56  81 112 146 186 234 283 335
#
# _framework density 20.266539000000002
#
# number of rings (size 3 to 8) (size 9 to 14) (size 15 to 20)
#    0.000    2.333    1.111    2.333    1.556    4.889 
#    0.000    2.222    0.000    0.667    0.000    0.000 
#    0.000    3.556    0.000    0.000    0.000    0.000 
#
# Total GULP energy -446070.621410 kJ/mol
# GULP energy per Si atom -12390.850595 kJ/mol
# Density = 2.022041 g / cm^3
# Si number density = 20.266539 Si / 1000 Ang^3
#
#
#
# Elastic Constant Matrix: (Units=GPa)
#
#
# Indices 1 2 3 4 5 6 
#
# 1 23.6096 18.7043 11.9567 0.0000 0.0000 0.0000
# 2 18.7043 138.9428 46.2723 0.0000 0.0000 0.0000
# 3 11.9567 46.2723 132.2009 0.0000 0.0000 0.0000
# 4 0.0000 0.0000 0.0000 -16.1647 0.0000 0.0000
# 5 0.0000 0.0000 0.0000 0.0000 27.3720 0.0000
# 6 0.0000 0.0000 0.0000 0.0000 0.0000 15.1474
#
#
#
# Elastic Compliance Matrix: (Units=1/GPa)
#
#
# Indices 1 2 3 4 5 6 
#
# 1 0.048052 -0.005684 -0.002357 0.000000 0.000000 0.000000
# 2 -0.005684 0.008819 -0.002573 0.000000 0.000000 0.000000
# 3 -0.002357 -0.002573 0.008678 0.000000 0.000000 0.000000
# 4 0.000000 0.000000 0.000000 -0.061863 0.000000 0.000000
# 5 0.000000 0.000000 0.000000 0.000000 0.036534 0.000000
# 6 0.000000 0.000000 0.000000 0.000000 0.000000 0.066018
#
#
# Mechanical properties :
#
#
# Convention : Reuss Voigt Hill
#
# Bulk Modulus (GPa) = 22.56180 49.84665 36.20422
# Shear Modulus (GPa) = 35.15225 19.79226 27.47226
#
# Velocity S-wave (km/s) = 4.16925 3.12845 3.68577
# Velocity P-wave (km/s) = 5.85948 6.13991 6.00134
#
# Compressibility (1/GPa) = 0.04432270
#
# Stress axis : x y z
#
# Youngs Moduli (GPa) = 20.81075 113.38924 115.23546
#
# Poissons Ratio (x) = 0.64449 0.27156
# Poissons Ratio (y) = 0.11829 0.29647
# Poissons Ratio (z) = 0.04904 0.29172
#
# Static dielectric constant tensor:
#      x y z
#    x 3.034760 0.000000 0.000000 
#    y 0.000000 4.106540 0.000000 
#    z 0.000000 0.000000 3.916900 
# 
# 
# High freq. dielectric constant tensor:
#      x y z
#    x 1.722280 0.000000 0.000000 
#    y 0.000000 1.811030 0.000000 
#    z 0.000000 0.000000 1.811780 
# 
# From -- ./inp_files/62878.got.cif
#   From: 2010.06.25/outbox.cif.g09.slc.cpg/sg71_32_cif.got.tgz:62878.got - 2010.06.28 04:59:45.
