data_PCOD8289509
_publ_section_title
;
Structure prediction by ZEFSAII (Michael W. Deem and Ramdas Pophale) SiO2 
 PCOD8289509
Probable space group: I M M M
;
_chemical_formula_sum "Si O2"
_cell_formula_units_Z 96
_cell_length_a 21.374345
_cell_length_b 11.876491
_cell_length_c 21.431663
_cell_angle_alpha 90.000000
_cell_angle_beta 90.000000
_cell_angle_gamma 90.000000
_cell_volume 5440.475146
_symmetry_space_group_name_H-M "I M M M"
_symmetry_group_IT_number 71
_symmetry_cell_setting 'orthorhombic'
loop_
_space_group_symop_operation_xyz
x,y,z
-x,-y,z
x,-y,-z
-x,y,-z
-x,-y,-z
x,y,-z
-x,y,z
x,-y,z
1/2+x,1/2+y,1/2+z
1/2-x,1/2-y,1/2+z
1/2+x,1/2-y,1/2-z
1/2-x,1/2+y,1/2-z
1/2-x,1/2-y,1/2-z
1/2+x,1/2+y,1/2-z
1/2-x,1/2+y,1/2+z
1/2+x,1/2-y,1/2+z
loop_
_atom_site_type_symbol
_atom_site_label
_atom_site_fract_x
_atom_site_fract_y
_atom_site_fract_z
Si Si1 0.927475 0.131822 0.500000
Si Si2 0.373166 0.222431 0.892387
Si Si3 0.347456 0.312092 0.237422
Si Si4 0.928362 0.500000 0.432092
Si Si5 0.924902 0.000000 0.807485
Si Si6 0.150318 0.000000 0.071920
Si Si7 0.784917 0.627576 0.815061
Si Si8 0.734296 0.717644 0.571992
O O1 0.895706 0.182576 0.560541
O O2 0.000000 0.163259 0.500000
O O3 0.915085 0.000000 0.500000
O O4 0.382319 0.277071 0.825254
O O5 0.413797 0.110505 0.892864
O O6 0.303749 0.181433 0.909164
O O7 0.394200 0.391231 0.275573
O O8 0.282051 0.371918 0.219916
O O9 0.334884 0.199522 0.276642
O O10 0.893239 0.500000 0.500000
O O11 0.000000 0.500000 0.447034
O O12 0.908807 0.000000 0.881456
O O13 0.000000 0.000000 0.799247
O O14 0.191219 0.889656 0.086356
O O15 0.126909 0.000000 0.000000
O O16 0.809028 0.500000 0.818822
O O17 0.783378 0.675903 0.885344
O O18 0.729358 0.754921 0.500000
#
# Coordination Sequence:
#
# PCOD8289509 Si02
#       8
#     8  16  16   8   8   8  16  16
#     4  11  24  39  53  73 115 164 203 240 280 338
#     4  11  22  36  56  82 112 151 197 242 291 338
#     4  10  23  38  57  88 116 153 196 237 299 349
#     4  11  21  35  54  74 105 148 198 245 278 325
#     4  12  24  42  65  88 123 159 202 244 288 371
#     4  10  21  39  63  91 123 144 191 246 316 358
#     4  10  20  36  61  85 120 150 187 243 295 352
#     4  10  19  34  58  89 116 147 182 245 297 355
#
# _framework density 17.645517999999999
#
# number of rings (size 3 to 8) (size 9 to 14) (size 15 to 20)
#    0.000    1.500    4.167    1.000    2.333    3.167 
#    0.000    0.000    0.000    0.000    0.000    0.000 
#    0.000    2.667    0.000    0.000    0.000    0.000 
#
# Total GULP energy -595208.652563 kJ/mol
# GULP energy per Si atom -12400.180262 kJ/mol
# Density = 1.760536 g / cm^3
# Si number density = 17.645518 Si / 1000 Ang^3
#
#
#
# Elastic Constant Matrix: (Units=GPa)
#
#
# Indices 1 2 3 4 5 6 
#
# 1 79.5380 46.5671 54.5476 0.0000 0.0000 0.0000
# 2 46.5671 128.0912 61.1590 0.0000 0.0000 0.0000
# 3 54.5476 61.1590 132.3793 0.0000 0.0000 0.0000
# 4 0.0000 0.0000 0.0000 34.9839 0.0000 0.0000
# 5 0.0000 0.0000 0.0000 0.0000 13.9661 0.0000
# 6 0.0000 0.0000 0.0000 0.0000 0.0000 20.3737
#
#
#
# Elastic Compliance Matrix: (Units=1/GPa)
#
#
# Indices 1 2 3 4 5 6 
#
# 1 0.019052 -0.004077 -0.005967 0.000000 0.000000 0.000000
# 2 -0.004077 0.010889 -0.003351 0.000000 0.000000 0.000000
# 3 -0.005967 -0.003351 0.011561 0.000000 0.000000 0.000000
# 4 0.000000 0.000000 0.000000 0.028585 0.000000 0.000000
# 5 0.000000 0.000000 0.000000 0.000000 0.071602 0.000000
# 6 0.000000 0.000000 0.000000 0.000000 0.000000 0.049083
#
#
# Mechanical properties :
#
#
# Convention : Reuss Voigt Hill
#
# Bulk Modulus (GPa) = 67.97092 73.83956 70.90524
# Shear Modulus (GPa) = 22.47557 25.71375 24.09466
#
# Velocity S-wave (km/s) = 3.57280 3.82152 3.69925
# Velocity P-wave (km/s) = 7.45813 7.83639 7.64960
#
# Compressibility (1/GPa) = 0.01471217
#
# Stress axis : x y z
#
# Youngs Moduli (GPa) = 52.48872 91.83543 86.50051
#
# Poissons Ratio (x) = 0.37444 0.51612
# Poissons Ratio (y) = 0.21401 0.28983
# Poissons Ratio (z) = 0.31318 0.30771
#
# Static dielectric constant tensor:
#      x y z
#    x 3.113530 0.000000 0.000000 
#    y 0.000000 3.235660 0.000000 
#    z 0.000000 0.000000 3.466230 
# 
# 
# High freq. dielectric constant tensor:
#      x y z
#    x 1.654690 0.000000 0.000000 
#    y 0.000000 1.689740 0.000000 
#    z 0.000000 0.000000 1.695830 
# 
# From -- ./inp_files/54938.got.cif
#   From: 2010.06.25/outbox.cif.g09.slc.cpg/sg71_28_cif.got.tgz:54938.got - 2010.06.28 04:59:45.
