data_PCOD8289078
_publ_section_title
;
Structure prediction by ZEFSAII (Michael W. Deem and Ramdas Pophale) SiO2 
 PCOD8289078
Probable space group: I M M M
;
_chemical_formula_sum "Si O2"
_cell_formula_units_Z 88
_cell_length_a 28.693922
_cell_length_b 17.960900
_cell_length_c 8.845534
_cell_angle_alpha 90.000000
_cell_angle_beta 90.000000
_cell_angle_gamma 90.000000
_cell_volume 4558.711037
_symmetry_space_group_name_H-M "I M M M"
_symmetry_group_IT_number 71
_symmetry_cell_setting 'orthorhombic'
loop_
_space_group_symop_operation_xyz
x,y,z
-x,-y,z
x,-y,-z
-x,y,-z
-x,-y,-z
x,y,-z
-x,y,z
x,-y,z
1/2+x,1/2+y,1/2+z
1/2-x,1/2-y,1/2+z
1/2+x,1/2-y,1/2-z
1/2-x,1/2+y,1/2-z
1/2-x,1/2-y,1/2-z
1/2+x,1/2+y,1/2-z
1/2-x,1/2+y,1/2+z
1/2+x,1/2-y,1/2+z
loop_
_atom_site_type_symbol
_atom_site_label
_atom_site_fract_x
_atom_site_fract_y
_atom_site_fract_z
Si Si1 0.603070 0.854179 0.177911
Si Si2 0.053544 0.213017 0.821565
Si Si3 0.389136 0.584878 0.824054
Si Si4 0.805788 0.674979 0.827305
Si Si5 0.202308 0.170859 0.673114
Si Si6 0.448005 0.000000 0.820033
O O1 0.582863 0.779675 0.250216
O O2 0.657027 0.866287 0.221317
O O3 0.576369 0.925903 0.242707
O O4 0.597514 0.846729 0.000000
O O5 0.074883 0.134768 0.769121
O O6 0.000000 0.217954 0.767312
O O7 0.057357 0.218749 0.000000
O O8 0.395567 0.500000 0.770919
O O9 0.335447 0.607328 0.791935
O O10 0.400900 0.594410 0.000000
O O11 0.805816 0.762096 0.787882
O O12 0.754600 0.639032 0.801225
O O13 0.821752 0.666414 0.000000
O O14 0.197386 0.199934 0.500000
O O15 0.500000 0.000000 0.756184
O O16 0.446636 0.000000 0.000000
#
# Coordination Sequence:
#
# PCOD8289078 Si02
#       6
#    16  16  16  16  16   8
#     4  11  21  37  61  86 114 148 191 236 282 341
#     4  11  24  40  59  85 115 147 187 236 292 348
#     4  10  21  38  60  85 114 151 198 243 282 333
#     4  10  19  32  55  86 117 148 185 229 280 337
#     4   9  18  34  55  82 113 150 190 230 277 332
#     4   9  20  38  59  83 111 147 191 239 288 337
#
# _framework density 19.303701
#
# number of rings (size 3 to 8) (size 9 to 14) (size 15 to 20)
#    0.000    1.909    1.818    2.182    0.000    3.636 
#    1.636    3.636    0.000    3.273    0.000    0.000 
#    0.000    0.000    0.000    0.000    0.000    0.000 
#
# Total GULP energy -545643.766176 kJ/mol
# GULP energy per Si atom -12400.994686 kJ/mol
# Density = 1.925976 g / cm^3
# Si number density = 19.303701 Si / 1000 Ang^3
#
#
#
# Elastic Constant Matrix: (Units=GPa)
#
#
# Indices 1 2 3 4 5 6 
#
# 1 127.1080 38.1844 31.4962 0.0000 0.0000 0.0000
# 2 38.1844 92.5460 23.4874 0.0000 0.0000 0.0000
# 3 31.4962 23.4874 52.5289 0.0000 0.0000 0.0000
# 4 0.0000 0.0000 0.0000 8.5270 0.0000 0.0000
# 5 0.0000 0.0000 0.0000 0.0000 31.7043 0.0000
# 6 0.0000 0.0000 0.0000 0.0000 0.0000 29.1769
#
#
#
# Elastic Compliance Matrix: (Units=1/GPa)
#
#
# Indices 1 2 3 4 5 6 
#
# 1 0.009887 -0.002904 -0.004630 0.000000 0.000000 0.000000
# 2 -0.002904 0.013042 -0.004090 0.000000 0.000000 0.000000
# 3 -0.004630 -0.004090 0.023642 0.000000 0.000000 0.000000
# 4 0.000000 0.000000 0.000000 0.117275 0.000000 0.000000
# 5 0.000000 0.000000 0.000000 0.000000 0.031541 0.000000
# 6 0.000000 0.000000 0.000000 0.000000 0.000000 0.034274
#
#
# Mechanical properties :
#
#
# Convention : Reuss Voigt Hill
#
# Bulk Modulus (GPa) = 42.87665 50.94656 46.91160
# Shear Modulus (GPa) = 19.18038 25.81595 22.49817
#
# Velocity S-wave (km/s) = 3.15558 3.66096 3.41762
# Velocity P-wave (km/s) = 5.96127 6.65729 6.31887
#
# Compressibility (1/GPa) = 0.02332272
#
# Stress axis : x y z
#
# Youngs Moduli (GPa) = 101.14281 76.67656 42.29806
#
# Poissons Ratio (x) = 0.22270 0.19582
# Poissons Ratio (y) = 0.29376 0.17300
# Poissons Ratio (z) = 0.46825 0.31360
#
# Static dielectric constant tensor:
#      x y z
#    x 3.904820 0.000000 0.000000 
#    y 0.000000 3.399390 0.000000 
#    z 0.000000 0.000000 3.442310 
# 
# 
# High freq. dielectric constant tensor:
#      x y z
#    x 1.770480 0.000000 0.000000 
#    y 0.000000 1.732460 0.000000 
#    z 0.000000 0.000000 1.744500 
# 
# From -- ./inp_files/8801.got.cif
#   From: 2010.06.25/outbox.cif.g09.slc.cpg/sg71_5_cif.got.tgz:8801.got - 2010.06.28 04:59:45.
