data_PCOD8289612
_publ_section_title
;
Structure prediction by ZEFSAII (Michael W. Deem and Ramdas Pophale) SiO2 
 PCOD8289612
Probable space group: I M M M
;
_chemical_formula_sum "Si O2"
_cell_formula_units_Z 72
_cell_length_a 27.052843
_cell_length_b 17.746873
_cell_length_c 7.724426
_cell_angle_alpha 90.000000
_cell_angle_beta 90.000000
_cell_angle_gamma 90.000000
_cell_volume 3708.522946
_symmetry_space_group_name_H-M "I M M M"
_symmetry_group_IT_number 71
_symmetry_cell_setting 'orthorhombic'
loop_
_space_group_symop_operation_xyz
x,y,z
-x,-y,z
x,-y,-z
-x,y,-z
-x,-y,-z
x,y,-z
-x,y,z
x,-y,z
1/2+x,1/2+y,1/2+z
1/2-x,1/2-y,1/2+z
1/2+x,1/2-y,1/2-z
1/2-x,1/2+y,1/2-z
1/2-x,1/2-y,1/2-z
1/2+x,1/2+y,1/2-z
1/2-x,1/2+y,1/2+z
1/2+x,1/2-y,1/2+z
loop_
_atom_site_type_symbol
_atom_site_label
_atom_site_fract_x
_atom_site_fract_y
_atom_site_fract_z
Si Si1 0.805813 0.733440 0.703772
Si Si2 0.399402 0.684384 0.697700
Si Si3 0.150008 0.581496 0.697334
Si Si4 0.057439 0.911075 0.500000
Si Si5 0.055107 0.657091 0.203574
O O1 0.815051 0.733616 0.500000
O O2 0.750000 0.750000 0.750000
O O3 0.840872 0.797257 0.786668
O O4 0.819960 0.651006 0.783831
O O5 0.410899 0.659622 0.500000
O O6 0.415583 0.618482 0.826960
O O7 0.430065 0.757983 0.753347
O O8 0.166478 0.575144 0.500000
O O9 0.161219 0.500000 0.787282
O O10 0.091475 0.597916 0.706382
O O11 0.000000 0.887193 0.500000
O O12 0.063602 0.000000 0.500000
O O13 0.000000 0.641579 0.272284
O O14 0.059000 0.645544 0.000000
#
# Coordination Sequence:
#
# PCOD8289612 Si02
#       5
#    16  16  16   8  16
#     4  10  19  35  60  86 112 149 197 244 294 354
#     4  10  20  38  60  85 118 154 194 247 298 352
#     4   9  19  34  50  73 107 143 179 224 276 330
#     4  11  24  40  60  88 121 159 203 251 309 370
#     4   9  18  31  50  77 106 143 187 223 266 328
#
# _framework density 19.414738
#
# number of rings (size 3 to 8) (size 9 to 14) (size 15 to 20)
#    0.000    2.333    1.111    1.333    1.556    4.000 
#    0.000    4.444    0.000    2.667    0.000    0.000 
#    0.000    0.000    0.000    0.000    0.000    0.000 
#
# Total GULP energy -446274.505079 kJ/mol
# GULP energy per Si atom -12396.514030 kJ/mol
# Density = 1.937055 g / cm^3
# Si number density = 19.414738 Si / 1000 Ang^3
#
#
#
# Elastic Constant Matrix: (Units=GPa)
#
#
# Indices 1 2 3 4 5 6 
#
# 1 142.0909 60.7960 15.5402 0.0000 0.0000 0.0000
# 2 60.7960 116.2179 34.7798 0.0000 0.0000 0.0000
# 3 15.5402 34.7798 71.2837 0.0000 0.0000 0.0000
# 4 0.0000 0.0000 0.0000 16.5021 0.0000 0.0000
# 5 0.0000 0.0000 0.0000 0.0000 28.7510 0.0000
# 6 0.0000 0.0000 0.0000 0.0000 0.0000 16.6048
#
#
#
# Elastic Compliance Matrix: (Units=1/GPa)
#
#
# Indices 1 2 3 4 5 6 
#
# 1 0.009077 -0.004867 0.000396 0.000000 0.000000 0.000000
# 2 -0.004867 0.012685 -0.005128 0.000000 0.000000 0.000000
# 3 0.000396 -0.005128 0.016444 0.000000 0.000000 0.000000
# 4 0.000000 0.000000 0.000000 0.060598 0.000000 0.000000
# 5 0.000000 0.000000 0.000000 0.000000 0.034781 0.000000
# 6 0.000000 0.000000 0.000000 0.000000 0.000000 0.060224
#
#
# Mechanical properties :
#
#
# Convention : Reuss Voigt Hill
#
# Bulk Modulus (GPa) = 52.60994 61.31382 56.96188
# Shear Modulus (GPa) = 22.79530 26.93670 24.86600
#
# Velocity S-wave (km/s) = 3.43027 3.72887 3.58268
# Velocity P-wave (km/s) = 6.54567 7.08441 6.82036
#
# Compressibility (1/GPa) = 0.01900781
#
# Stress axis : x y z
#
# Youngs Moduli (GPa) = 110.17162 78.83299 60.81152
#
# Poissons Ratio (x) = 0.38365 -0.02406
# Poissons Ratio (y) = 0.53617 0.31185
# Poissons Ratio (z) = -0.04359 0.40427
#
# Static dielectric constant tensor:
#      x y z
#    x 3.603230 0.000000 0.000000 
#    y 0.000000 3.692430 0.000000 
#    z 0.000000 0.000000 3.512940 
# 
# 
# High freq. dielectric constant tensor:
#      x y z
#    x 1.750060 0.000000 0.000000 
#    y 0.000000 1.740910 0.000000 
#    z 0.000000 0.000000 1.754570 
# 
# From -- ./inp_files/6094.got.cif
#   From: 2010.06.25/outbox.cif.g09.slc.cpg/sg71_4_cif.got.tgz:6094.got - 2010.06.28 04:59:45.
