data_PCOD8289101
_publ_section_title
;
Structure prediction by ZEFSAII (Michael W. Deem and Ramdas Pophale) SiO2 
 PCOD8289101
Probable space group: I M M M
;
_chemical_formula_sum "Si O2"
_cell_formula_units_Z 88
_cell_length_a 27.075369
_cell_length_b 20.107197
_cell_length_c 8.628600
_cell_angle_alpha 90.000000
_cell_angle_beta 90.000000
_cell_angle_gamma 90.000000
_cell_volume 4697.494213
_symmetry_space_group_name_H-M "I M M M"
_symmetry_group_IT_number 71
_symmetry_cell_setting 'orthorhombic'
loop_
_space_group_symop_operation_xyz
x,y,z
-x,-y,z
x,-y,-z
-x,y,-z
-x,-y,-z
x,y,-z
-x,y,z
x,-y,z
1/2+x,1/2+y,1/2+z
1/2-x,1/2-y,1/2+z
1/2+x,1/2-y,1/2-z
1/2-x,1/2+y,1/2-z
1/2-x,1/2-y,1/2-z
1/2+x,1/2+y,1/2-z
1/2-x,1/2+y,1/2+z
1/2+x,1/2-y,1/2+z
loop_
_atom_site_type_symbol
_atom_site_label
_atom_site_fract_x
_atom_site_fract_y
_atom_site_fract_z
Si Si1 0.671234 0.145387 0.178258
Si Si2 0.442250 0.363119 0.819867
Si Si3 0.363676 0.271004 0.680274
Si Si4 0.720759 0.642272 0.815713
Si Si5 0.215646 0.000000 0.676115
Si Si6 0.182985 0.500000 0.323472
Si Si7 0.441385 0.500000 0.325767
O O1 0.634967 0.192784 0.277234
O O2 0.727586 0.155646 0.232133
O O3 0.652553 0.068706 0.201094
O O4 0.667665 0.166718 0.000000
O O5 0.500000 0.355347 0.784343
O O6 0.415024 0.304367 0.729423
O O7 0.422113 0.434629 0.762644
O O8 0.430077 0.357250 0.000000
O O9 0.355098 0.281660 0.500000
O O10 0.317717 0.301100 0.773601
O O11 0.697581 0.570976 0.754188
O O12 0.729799 0.640457 0.000000
O O13 0.274689 0.000000 0.695007
O O14 0.199771 0.000000 0.500000
O O15 0.204867 0.500000 0.500000
O O16 0.500000 0.500000 0.325945
O O17 0.420288 0.500000 0.500000
#
# Coordination Sequence:
#
# PCOD8289101 Si02
#       7
#    16  16  16  16   8   8   8
#     4  10  19  34  53  75 102 132 168 208 252 302
#     4  10  21  38  58  78 101 132 171 214 257 300
#     4  12  24  35  49  73 103 136 171 208 255 305
#     4  10  19  33  50  71 101 136 173 212 253 298
#     4   8  16  29  47  68  93 129 170 209 248 289
#     4   8  16  30  51  73  95 126 163 204 246 294
#     4   9  17  32  55  80 105 134 168 208 253 300
#
# _framework density 18.733391000000001
#
# number of rings (size 3 to 8) (size 9 to 14) (size 15 to 20)
#    0.000    2.091    0.000    4.091    0.000    4.364 
#    0.000    2.727    0.000    0.000    0.000    0.636 
#    0.000    5.091    0.000    0.000    0.000    0.000 
#
# Total GULP energy -545316.790481 kJ/mol
# GULP energy per Si atom -12393.563420 kJ/mol
# Density = 1.869075 g / cm^3
# Si number density = 18.733391 Si / 1000 Ang^3
#
#
#
# Elastic Constant Matrix: (Units=GPa)
#
#
# Indices 1 2 3 4 5 6 
#
# 1 40.8005 37.0608 18.8394 0.0000 0.0000 0.0000
# 2 37.0608 137.7439 29.6904 0.0000 0.0000 0.0000
# 3 18.8394 29.6904 62.6409 0.0000 0.0000 0.0000
# 4 0.0000 0.0000 0.0000 28.7394 0.0000 0.0000
# 5 0.0000 0.0000 0.0000 0.0000 23.5218 0.0000
# 6 0.0000 0.0000 0.0000 0.0000 0.0000 13.4801
#
#
#
# Elastic Compliance Matrix: (Units=1/GPa)
#
#
# Indices 1 2 3 4 5 6 
#
# 1 0.034800 -0.007916 -0.006714 0.000000 0.000000 0.000000
# 2 -0.007916 0.009887 -0.002305 0.000000 0.000000 0.000000
# 3 -0.006714 -0.002305 0.019076 0.000000 0.000000 0.000000
# 4 0.000000 0.000000 0.000000 0.034795 0.000000 0.000000
# 5 0.000000 0.000000 0.000000 0.000000 0.042514 0.000000
# 6 0.000000 0.000000 0.000000 0.000000 0.000000 0.074184
#
#
# Mechanical properties :
#
#
# Convention : Reuss Voigt Hill
#
# Bulk Modulus (GPa) = 33.45398 45.81848 39.63623
# Shear Modulus (GPa) = 19.29829 23.52123 21.40976
#
# Velocity S-wave (km/s) = 3.21308 3.54726 3.38430
# Velocity P-wave (km/s) = 5.62689 6.42563 6.03948
#
# Compressibility (1/GPa) = 0.02989181
#
# Stress axis : x y z
#
# Youngs Moduli (GPa) = 28.73550 101.14726 52.42192
#
# Poissons Ratio (x) = 0.80068 0.35197
# Poissons Ratio (y) = 0.22747 0.12085
# Poissons Ratio (z) = 0.19294 0.23317
#
# Static dielectric constant tensor:
#      x y z
#    x 2.954870 0.000000 0.000000 
#    y 0.000000 3.985800 0.000000 
#    z 0.000000 0.000000 3.508470 
# 
# 
# High freq. dielectric constant tensor:
#      x y z
#    x 1.668850 0.000000 0.000000 
#    y 0.000000 1.746380 0.000000 
#    z 0.000000 0.000000 1.737720 
# 
# From -- ./inp_files/12597.got.cif
#   From: 2010.06.25/outbox.cif.g09.slc.cpg/sg71_7_cif.got.tgz:12597.got - 2010.06.28 04:59:45.
