data_PCOD8289117
_publ_section_title
;
Structure prediction by ZEFSAII (Michael W. Deem and Ramdas Pophale) SiO2 
 PCOD8289117
Probable space group: I M M M
;
_chemical_formula_sum "Si O2"
_cell_formula_units_Z 64
_cell_length_a 22.434448
_cell_length_b 9.177843
_cell_length_c 16.666597
_cell_angle_alpha 90.000000
_cell_angle_beta 90.000000
_cell_angle_gamma 90.000000
_cell_volume 3431.649681
_symmetry_space_group_name_H-M "I M M M"
_symmetry_group_IT_number 71
_symmetry_cell_setting 'orthorhombic'
loop_
_space_group_symop_operation_xyz
x,y,z
-x,-y,z
x,-y,-z
-x,y,-z
-x,-y,-z
x,y,-z
-x,y,z
x,-y,z
1/2+x,1/2+y,1/2+z
1/2-x,1/2-y,1/2+z
1/2+x,1/2-y,1/2-z
1/2-x,1/2+y,1/2-z
1/2-x,1/2-y,1/2-z
1/2+x,1/2+y,1/2-z
1/2-x,1/2+y,1/2+z
1/2+x,1/2-y,1/2+z
loop_
_atom_site_type_symbol
_atom_site_label
_atom_site_fract_x
_atom_site_fract_y
_atom_site_fract_z
Si Si1 0.432612 0.825932 0.500000
Si Si2 0.119400 0.326877 0.674724
Si Si3 0.500000 0.173375 0.090573
Si Si4 0.644699 0.173031 0.352539
Si Si5 0.727061 0.333624 0.905415
O O1 0.500000 0.766086 0.500000
O O2 0.399140 0.764597 0.421066
O O3 0.432209 0.000000 0.500000
O O4 0.122889 0.500000 0.670806
O O5 0.122284 0.270904 0.766266
O O6 0.173520 0.265898 0.623452
O O7 0.058134 0.267814 0.636616
O O8 0.500000 0.000000 0.089667
O O9 0.500000 0.234985 0.000000
O O10 0.712188 0.227433 0.366034
O O11 0.643847 0.000000 0.357607
O O12 0.714951 0.500000 0.879269
O O13 0.734158 0.321097 0.000000
#
# Coordination Sequence:
#
# PCOD8289117 Si02
#       5
#     8  16   8  16  16
#     4   9  16  26  46  74 105 134 161 198 246 299
#     4  10  20  32  51  75  99 128 167 208 244 289
#     4   9  18  32  47  68 100 130 155 197 253 291
#     4   9  17  30  47  72 102 131 162 201 248 293
#     4  10  19  33  51  71 100 134 163 198 249 297
#
# _framework density 18.649920999999999
#
# number of rings (size 3 to 8) (size 9 to 14) (size 15 to 20)
#    0.000    2.500    1.250    1.500    1.750    1.500 
#    0.000    0.625    0.000    2.250    0.000    0.000 
#    0.000    4.000    0.000    0.000    0.000    0.000 
#
# Total GULP energy -396803.787670 kJ/mol
# GULP energy per Si atom -12400.118365 kJ/mol
# Density = 1.860747 g / cm^3
# Si number density = 18.649921 Si / 1000 Ang^3
#
#
#
# Elastic Constant Matrix: (Units=GPa)
#
#
# Indices 1 2 3 4 5 6 
#
# 1 185.0191 19.3280 84.8262 0.0000 0.0000 0.0000
# 2 19.3280 13.3900 18.0391 0.0000 0.0000 0.0000
# 3 84.8262 18.0391 137.2230 0.0000 0.0000 0.0000
# 4 0.0000 0.0000 0.0000 16.3179 0.0000 0.0000
# 5 0.0000 0.0000 0.0000 0.0000 38.5201 0.0000
# 6 0.0000 0.0000 0.0000 0.0000 0.0000 15.6297
#
#
#
# Elastic Compliance Matrix: (Units=1/GPa)
#
#
# Indices 1 2 3 4 5 6 
#
# 1 0.007904 -0.005866 -0.004115 0.000000 0.000000 0.000000
# 2 -0.005866 0.095108 -0.008877 0.000000 0.000000 0.000000
# 3 -0.004115 -0.008877 0.010998 0.000000 0.000000 0.000000
# 4 0.000000 0.000000 0.000000 0.061282 0.000000 0.000000
# 5 0.000000 0.000000 0.000000 0.000000 0.025960 0.000000
# 6 0.000000 0.000000 0.000000 0.000000 0.000000 0.063981
#
#
# Mechanical properties :
#
#
# Convention : Reuss Voigt Hill
#
# Bulk Modulus (GPa) = 13.10695 64.44651 38.77673
# Shear Modulus (GPa) = 15.22624 28.32281 21.77453
#
# Velocity S-wave (km/s) = 2.86041 3.90122 3.42064
# Velocity P-wave (km/s) = 4.23703 7.41105 6.03639
#
# Compressibility (1/GPa) = 0.07629539
#
# Stress axis : x y z
#
# Youngs Moduli (GPa) = 126.51474 10.51436 90.92495
#
# Poissons Ratio (x) = 0.06167 0.37416
# Poissons Ratio (y) = 0.74209 0.80712
# Poissons Ratio (z) = 0.52061 0.09333
#
# Static dielectric constant tensor:
#      x y z
#    x 3.619390 0.000000 0.000000 
#    y 0.000000 2.846820 0.000000 
#    z 0.000000 0.000000 3.710860 
# 
# 
# High freq. dielectric constant tensor:
#      x y z
#    x 1.740100 0.000000 0.000000 
#    y 0.000000 1.656690 0.000000 
#    z 0.000000 0.000000 1.742720 
# 
# From -- ./inp_files/5554.got.cif
#   From: 2010.06.25/outbox.cif.g09.slc.cpg/sg71_3_cif.got.tgz:5554.got - 2010.06.28 04:59:45.
