data_PCOD8289369
_publ_section_title
;
Structure prediction by ZEFSAII (Michael W. Deem and Ramdas Pophale) SiO2 
 PCOD8289369
Probable space group: I M M M
;
_chemical_formula_sum "Si O2"
_cell_formula_units_Z 64
_cell_length_a 17.982188
_cell_length_b 9.138338
_cell_length_c 23.223088
_cell_angle_alpha 90.000000
_cell_angle_beta 90.000000
_cell_angle_gamma 90.000000
_cell_volume 3816.187626
_symmetry_space_group_name_H-M "I M M M"
_symmetry_group_IT_number 71
_symmetry_cell_setting 'orthorhombic'
loop_
_space_group_symop_operation_xyz
x,y,z
-x,-y,z
x,-y,-z
-x,y,-z
-x,-y,-z
x,y,-z
-x,y,z
x,-y,z
1/2+x,1/2+y,1/2+z
1/2-x,1/2-y,1/2+z
1/2+x,1/2-y,1/2-z
1/2-x,1/2+y,1/2-z
1/2-x,1/2-y,1/2-z
1/2+x,1/2+y,1/2-z
1/2-x,1/2+y,1/2+z
1/2+x,1/2-y,1/2+z
loop_
_atom_site_type_symbol
_atom_site_label
_atom_site_fract_x
_atom_site_fract_y
_atom_site_fract_z
Si Si1 0.210280 0.173257 0.934751
Si Si2 0.918782 0.165581 0.147855
Si Si3 0.000000 0.171372 0.359210
Si Si4 0.000000 0.326523 0.761433
Si Si5 0.641883 0.330074 0.934094
O O1 0.142828 0.231088 0.895079
O O2 0.286810 0.241215 0.911430
O O3 0.216490 0.000000 0.931773
O O4 0.194985 0.226275 0.000000
O O5 0.926056 0.265198 0.205558
O O6 0.000000 0.166090 0.116344
O O7 0.897559 0.000000 0.166361
O O8 0.071802 0.215150 0.396042
O O9 0.000000 0.269079 0.302913
O O10 0.000000 0.000000 0.343262
O O11 0.000000 0.500000 0.761992
O O12 0.660464 0.500000 0.927877
O O13 0.623353 0.288950 0.000000
#
# Coordination Sequence:
#
# PCOD8289369 Si02
#       5
#    16  16   8   8  16
#     4   9  17  30  50  76 103 129 158 195 239 286
#     4   8  16  32  51  69  97 133 164 194 233 286
#     4  10  19  34  54  71  93 130 167 195 237 294
#     4  10  20  33  50  72  96 123 163 212 247 274
#     4   9  18  32  51  75 101 127 157 195 238 288
#
# _framework density 16.770665000000001
#
# number of rings (size 3 to 8) (size 9 to 14) (size 15 to 20)
#    0.750    2.250    0.000    1.125    0.000    4.000 
#    0.000    3.750    0.000    4.500    0.000    0.000 
#    0.000    0.000    0.000    0.000    0.000    0.000 
#
# Total GULP energy -396598.172890 kJ/mol
# GULP energy per Si atom -12393.692903 kJ/mol
# Density = 1.673249 g / cm^3
# Si number density = 16.770665 Si / 1000 Ang^3
#
#
#
# Elastic Constant Matrix: (Units=GPa)
#
#
# Indices 1 2 3 4 5 6 
#
# 1 124.5640 45.0613 75.6293 0.0000 0.0000 0.0000
# 2 45.0613 58.5820 49.8949 0.0000 0.0000 0.0000
# 3 75.6293 49.8949 106.5885 0.0000 0.0000 0.0000
# 4 0.0000 0.0000 0.0000 22.1265 0.0000 0.0000
# 5 0.0000 0.0000 0.0000 0.0000 10.1542 0.0000
# 6 0.0000 0.0000 0.0000 0.0000 0.0000 26.5804
#
#
#
# Elastic Compliance Matrix: (Units=1/GPa)
#
#
# Indices 1 2 3 4 5 6 
#
# 1 0.014651 -0.004017 -0.008515 0.000000 0.000000 0.000000
# 2 -0.004017 0.029490 -0.010954 0.000000 0.000000 0.000000
# 3 -0.008515 -0.010954 0.020551 0.000000 0.000000 0.000000
# 4 0.000000 0.000000 0.000000 0.045195 0.000000 0.000000
# 5 0.000000 0.000000 0.000000 0.000000 0.098481 0.000000
# 6 0.000000 0.000000 0.000000 0.000000 0.000000 0.037622
#
#
# Mechanical properties :
#
#
# Convention : Reuss Voigt Hill
#
# Bulk Modulus (GPa) = 56.43470 70.10061 63.26765
# Shear Modulus (GPa) = 16.72970 19.71549 18.22260
#
# Velocity S-wave (km/s) = 3.16184 3.43241 3.29990
# Velocity P-wave (km/s) = 6.85956 7.58939 7.23369
#
# Compressibility (1/GPa) = 0.01771959
#
# Stress axis : x y z
#
# Youngs Moduli (GPa) = 68.25331 33.91003 48.65844
#
# Poissons Ratio (x) = 0.13623 0.41434
# Poissons Ratio (y) = 0.27419 0.53300
# Poissons Ratio (z) = 0.58119 0.37145
#
# Static dielectric constant tensor:
#      x y z
#    x 3.167340 0.000000 0.000000 
#    y 0.000000 2.995690 0.000000 
#    z 0.000000 0.000000 3.052870 
# 
# 
# High freq. dielectric constant tensor:
#      x y z
#    x 1.641660 0.000000 0.000000 
#    y 0.000000 1.637300 0.000000 
#    z 0.000000 0.000000 1.632640 
# 
# From -- ./inp_files/8104.got.cif
#   From: 2010.06.25/outbox.cif.g09.slc.cpg/sg71_5_cif.got.tgz:8104.got - 2010.06.28 04:59:45.
