data_PCOD8289599
_publ_section_title
;
Structure prediction by ZEFSAII (Michael W. Deem and Ramdas Pophale) SiO2 
 PCOD8289599
Probable space group: I M M M
;
_chemical_formula_sum "Si O2"
_cell_formula_units_Z 88
_cell_length_a 17.749579
_cell_length_b 18.490567
_cell_length_c 14.192915
_cell_angle_alpha 90.000000
_cell_angle_beta 90.000000
_cell_angle_gamma 90.000000
_cell_volume 4658.111577
_symmetry_space_group_name_H-M "I M M M"
_symmetry_group_IT_number 71
_symmetry_cell_setting 'orthorhombic'
loop_
_space_group_symop_operation_xyz
x,y,z
-x,-y,z
x,-y,-z
-x,y,-z
-x,-y,-z
x,y,-z
-x,y,z
x,-y,z
1/2+x,1/2+y,1/2+z
1/2-x,1/2-y,1/2+z
1/2+x,1/2-y,1/2-z
1/2-x,1/2+y,1/2-z
1/2-x,1/2-y,1/2-z
1/2+x,1/2+y,1/2-z
1/2-x,1/2+y,1/2+z
1/2+x,1/2-y,1/2+z
loop_
_atom_site_type_symbol
_atom_site_label
_atom_site_fract_x
_atom_site_fract_y
_atom_site_fract_z
Si Si1 0.414996 0.380154 0.107185
Si Si2 0.133387 0.720781 0.396196
Si Si3 0.137580 0.346392 0.792145
Si Si4 0.000000 0.584814 0.895651
Si Si5 0.806535 0.208643 0.892329
Si Si6 0.791297 0.081772 0.751830
O O1 0.500000 0.405418 0.130171
O O2 0.411825 0.293996 0.120788
O O3 0.358318 0.420571 0.176269
O O4 0.393337 0.400648 0.000000
O O5 0.115411 0.688244 0.500000
O O6 0.111455 0.662598 0.316772
O O7 0.221827 0.738741 0.386784
O O8 0.142162 0.267260 0.839468
O O9 0.216379 0.388570 0.798969
O O10 0.075070 0.392338 0.843155
O O11 0.000000 0.500000 0.901994
O O12 0.000000 0.619153 0.000000
O O13 0.813793 0.131328 0.840879
O O14 0.833627 0.199204 0.000000
O O15 0.777651 0.000000 0.788029
#
# Coordination Sequence:
#
# PCOD8289599 Si02
#       6
#    16  16  16   8  16  16
#     4  10  20  34  54  83 114 141 177 226 281 336
#     4   9  17  32  57  88 115 140 181 235 280 328
#     4  11  20  38  61  84 110 149 196 234 279 337
#     4  11  26  42  57  85 120 150 186 241 295 335
#     4  10  19  35  59  85 112 146 194 241 276 328
#     4  11  22  37  57  82 114 152 187 227 286 345
#
# _framework density 18.891776
#
# number of rings (size 3 to 8) (size 9 to 14) (size 15 to 20)
#    0.000    1.727    3.636    2.182    1.273    1.818 
#    0.000    0.909    0.000    2.182    0.000    1.273 
#    0.000    0.000    0.000    0.000    0.000    0.000 
#
# Total GULP energy -545634.906823 kJ/mol
# GULP energy per Si atom -12400.793337 kJ/mol
# Density = 1.884878 g / cm^3
# Si number density = 18.891776 Si / 1000 Ang^3
#
#
#
# Elastic Constant Matrix: (Units=GPa)
#
#
# Indices 1 2 3 4 5 6 
#
# 1 72.5045 31.8002 49.3043 0.0000 0.0000 0.0000
# 2 31.8002 102.3640 46.3781 0.0000 0.0000 0.0000
# 3 49.3043 46.3781 136.3367 0.0000 0.0000 0.0000
# 4 0.0000 0.0000 0.0000 21.0508 0.0000 0.0000
# 5 0.0000 0.0000 0.0000 0.0000 -20.7572 0.0000
# 6 0.0000 0.0000 0.0000 0.0000 0.0000 13.4534
#
#
#
# Elastic Compliance Matrix: (Units=1/GPa)
#
#
# Indices 1 2 3 4 5 6 
#
# 1 0.019206 -0.003333 -0.005812 0.000000 0.000000 0.000000
# 2 -0.003333 0.012128 -0.002920 0.000000 0.000000 0.000000
# 3 -0.005812 -0.002920 0.010430 0.000000 0.000000 0.000000
# 4 0.000000 0.000000 0.000000 0.047504 0.000000 0.000000
# 5 0.000000 0.000000 0.000000 0.000000 -0.048176 0.000000
# 6 0.000000 0.000000 0.000000 0.000000 0.000000 0.074331
#
#
# Mechanical properties :
#
#
# Convention : Reuss Voigt Hill
#
# Bulk Modulus (GPa) = 56.71066 62.90780 59.80923
# Shear Modulus (GPa) = 34.38058 14.99758 24.68908
#
# Velocity S-wave (km/s) = 4.27062 2.82062 3.61899
# Velocity P-wave (km/s) = 7.37574 6.63168 7.01358
#
# Compressibility (1/GPa) = 0.01763337
#
# Stress axis : x y z
#
# Youngs Moduli (GPa) = 52.06598 82.45669 95.87886
#
# Poissons Ratio (x) = 0.27487 0.55723
# Poissons Ratio (y) = 0.17356 0.27996
# Poissons Ratio (z) = 0.30260 0.24077
#
# Static dielectric constant tensor:
#      x y z
#    x 3.372560 0.000000 0.000000 
#    y 0.000000 3.239250 0.000000 
#    z 0.000000 0.000000 3.762300 
# 
# 
# High freq. dielectric constant tensor:
#      x y z
#    x 1.724130 0.000000 0.000000 
#    y 0.000000 1.717460 0.000000 
#    z 0.000000 0.000000 1.742470 
# 
# From -- ./inp_files/36379.got.cif
#   From: 2010.06.25/outbox.cif.g09.slc.cpg/sg71_19_cif.got.tgz:36379.got - 2010.06.28 04:59:45.
