data_PCOD8289010
_publ_section_title
;
Structure prediction by ZEFSAII (Michael W. Deem and Ramdas Pophale) SiO2 
 PCOD8289010
Probable space group: I M M M
;
_chemical_formula_sum "Si O2"
_cell_formula_units_Z 96
_cell_length_a 9.117278
_cell_length_b 23.431668
_cell_length_c 25.385073
_cell_angle_alpha 90.000000
_cell_angle_beta 90.000000
_cell_angle_gamma 90.000000
_cell_volume 5423.090091
_symmetry_space_group_name_H-M "I M M M"
_symmetry_group_IT_number 71
_symmetry_cell_setting 'orthorhombic'
loop_
_space_group_symop_operation_xyz
x,y,z
-x,-y,z
x,-y,-z
-x,y,-z
-x,-y,-z
x,y,-z
-x,y,z
x,-y,z
1/2+x,1/2+y,1/2+z
1/2-x,1/2-y,1/2+z
1/2+x,1/2-y,1/2-z
1/2-x,1/2+y,1/2-z
1/2-x,1/2-y,1/2-z
1/2+x,1/2+y,1/2-z
1/2-x,1/2+y,1/2+z
1/2+x,1/2-y,1/2+z
loop_
_atom_site_type_symbol
_atom_site_label
_atom_site_fract_x
_atom_site_fract_y
_atom_site_fract_z
Si Si1 0.172059 0.130491 0.398758
Si Si2 0.173307 0.135718 0.901517
Si Si3 0.171574 0.745128 0.439454
Si Si4 0.830913 0.065351 0.200079
Si Si5 0.327239 0.065202 0.692594
Si Si6 0.825482 0.063584 0.000000
Si Si7 0.325446 0.436132 0.000000
O O1 0.207328 0.196251 0.409680
O O2 0.256056 0.109605 0.347382
O O3 0.234014 0.095017 0.448202
O O4 0.000000 0.119791 0.390537
O O5 0.245958 0.197396 0.905914
O O6 0.220015 0.106443 0.846978
O O7 0.000000 0.143115 0.905389
O O8 0.232970 0.096303 0.948702
O O9 0.227887 0.747615 0.500000
O O10 0.000000 0.732227 0.438901
O O11 0.731441 0.080687 0.249760
O O12 0.000000 0.076044 0.215188
O O13 0.807827 0.000000 0.181853
O O14 0.500000 0.073666 0.692205
O O15 0.283587 0.000000 0.677841
O O16 0.000000 0.060706 0.000000
O O17 0.759103 0.000000 0.000000
O O18 0.263706 0.500000 0.000000
O O19 0.500000 0.433895 0.000000
#
# Coordination Sequence:
#
# PCOD8289010 Si02
#       7
#    16  16  16  16  16   8   8
#     4  10  19  34  55  78 103 137 181 219 255 307
#     4  10  19  32  53  80 106 136 177 218 262 314
#     4  10  20  35  53  75 107 144 178 215 260 310
#     4   9  18  34  56  80 105 137 178 220 260 309
#     4  10  21  36  54  79 110 140 170 212 269 322
#     4   9  16  27  47  77 109 135 164 211 264 311
#     4   9  16  27  49  79 103 125 162 213 260 302
#
# _framework density 17.702083999999999
#
# number of rings (size 3 to 8) (size 9 to 14) (size 15 to 20)
#    0.000    2.333    1.667    1.500    0.000    5.000 
#    0.000    1.250    0.000    3.500    0.000    0.000 
#    0.000    0.000    0.000    0.000    0.000    0.000 
#
# Total GULP energy -595287.871092 kJ/mol
# GULP energy per Si atom -12401.830648 kJ/mol
# Density = 1.766179 g / cm^3
# Si number density = 17.702084 Si / 1000 Ang^3
#
#
#
# Elastic Constant Matrix: (Units=GPa)
#
#
# Indices 1 2 3 4 5 6 
#
# 1 45.5437 50.8090 50.9858 0.0000 0.0000 0.0000
# 2 50.8090 137.4888 88.2321 0.0000 0.0000 0.0000
# 3 50.9858 88.2321 140.1422 0.0000 0.0000 0.0000
# 4 0.0000 0.0000 0.0000 27.7708 0.0000 0.0000
# 5 0.0000 0.0000 0.0000 0.0000 16.4335 0.0000
# 6 0.0000 0.0000 0.0000 0.0000 0.0000 30.0686
#
#
#
# Elastic Compliance Matrix: (Units=1/GPa)
#
#
# Indices 1 2 3 4 5 6 
#
# 1 0.044009 -0.010048 -0.009685 0.000000 0.000000 0.000000
# 2 -0.010048 0.014499 -0.005472 0.000000 0.000000 0.000000
# 3 -0.009685 -0.005472 0.014104 0.000000 0.000000 0.000000
# 4 0.000000 0.000000 0.000000 0.036009 0.000000 0.000000
# 5 0.000000 0.000000 0.000000 0.000000 0.060851 0.000000
# 6 0.000000 0.000000 0.000000 0.000000 0.000000 0.033257
#
#
# Mechanical properties :
#
#
# Convention : Reuss Voigt Hill
#
# Bulk Modulus (GPa) = 45.04324 78.13650 61.58987
# Shear Modulus (GPa) = 19.19083 23.73109 21.46096
#
# Velocity S-wave (km/s) = 3.29614 3.66537 3.48565
# Velocity P-wave (km/s) = 6.32348 7.88345 7.14616
#
# Compressibility (1/GPa) = 0.02220089
#
# Stress axis : x y z
#
# Youngs Moduli (GPa) = 22.72261 68.97224 70.89976
#
# Poissons Ratio (x) = 0.69306 0.68664
# Poissons Ratio (y) = 0.22833 0.38799
# Poissons Ratio (z) = 0.22006 0.37744
#
# Static dielectric constant tensor:
#      x y z
#    x 3.013600 0.000000 0.000000 
#    y 0.000000 3.316350 0.000000 
#    z 0.000000 0.000000 3.297740 
# 
# 
# High freq. dielectric constant tensor:
#      x y z
#    x 1.661190 0.000000 0.000000 
#    y 0.000000 1.687880 0.000000 
#    z 0.000000 0.000000 1.688430 
# 
# From -- ./inp_files/12913.got.cif
#   From: 2010.06.25/outbox.cif.g09.slc.cpg/sg71_7_cif.got.tgz:12913.got - 2010.06.28 04:59:45.
