data_PCOD8289083
_publ_section_title
;
Structure prediction by ZEFSAII (Michael W. Deem and Ramdas Pophale) SiO2 
 PCOD8289083
Probable space group: I M M M
;
_chemical_formula_sum "Si O2"
_cell_formula_units_Z 96
_cell_length_a 24.872646
_cell_length_b 11.489304
_cell_length_c 18.723316
_cell_angle_alpha 90.000000
_cell_angle_beta 90.000000
_cell_angle_gamma 90.000000
_cell_volume 5350.550614
_symmetry_space_group_name_H-M "I M M M"
_symmetry_group_IT_number 71
_symmetry_cell_setting 'orthorhombic'
loop_
_space_group_symop_operation_xyz
x,y,z
-x,-y,z
x,-y,-z
-x,y,-z
-x,-y,-z
x,y,-z
-x,y,z
x,-y,z
1/2+x,1/2+y,1/2+z
1/2-x,1/2-y,1/2+z
1/2+x,1/2-y,1/2-z
1/2-x,1/2+y,1/2-z
1/2-x,1/2-y,1/2-z
1/2+x,1/2+y,1/2-z
1/2-x,1/2+y,1/2+z
1/2+x,1/2-y,1/2+z
loop_
_atom_site_type_symbol
_atom_site_label
_atom_site_fract_x
_atom_site_fract_y
_atom_site_fract_z
Si Si1 0.097111 0.637128 0.680648
Si Si2 0.790470 0.000000 0.578717
Si Si3 0.797549 0.222202 0.663015
Si Si4 0.336611 0.000000 0.417921
Si Si5 0.000000 0.638559 0.418037
Si Si6 0.197689 0.863988 0.821441
Si Si7 0.103667 0.703018 0.840807
Si Si8 0.000000 0.365355 0.915927
O O1 0.100370 0.500000 0.675737
O O2 0.154824 0.685605 0.659585
O O3 0.052151 0.684555 0.625409
O O4 0.083115 0.673878 0.761392
O O5 0.813559 0.117404 0.611741
O O6 0.726663 0.000000 0.583287
O O7 0.813020 0.000000 0.500000
O O8 0.790020 0.161076 0.739148
O O9 0.743679 0.290222 0.637007
O O10 0.355887 0.109598 0.373244
O O11 0.358941 0.000000 0.500000
O O12 0.000000 0.500000 0.419118
O O13 0.000000 0.686138 0.500000
O O14 0.137256 0.823507 0.842251
O O15 0.202978 0.000000 0.839338
O O16 0.051252 0.707633 0.889941
O O17 0.000000 0.500000 0.886972
O O18 0.000000 0.367675 0.000000
#
# Coordination Sequence:
#
# PCOD8289083 Si02
#       8
#    16   8  16   8   8  16  16   8
#     4  10  19  32  56  85 112 142 180 231 275 329
#     4  11  22  36  53  79 117 149 181 220 270 334
#     4  10  20  33  55  84 109 142 183 223 276 320
#     4  11  20  33  54  79 115 152 183 222 282 330
#     4   9  19  35  53  75 107 145 179 216 277 334
#     4  10  20  34  56  80 115 144 180 230 273 326
#     4  11  20  33  55  83 115 143 188 234 281 325
#     4  11  21  33  54  81 110 146 192 241 284 327
#
# _framework density 17.942077999999999
#
# number of rings (size 3 to 8) (size 9 to 14) (size 15 to 20)
#    0.000    1.667    4.167    1.500    0.000    1.333 
#    0.000    0.417    0.000    6.500    0.000    1.167 
#    0.000    0.000    0.000    0.000    0.000    0.000 
#
# Total GULP energy -595060.764999 kJ/mol
# GULP energy per Si atom -12397.099271 kJ/mol
# Density = 1.790124 g / cm^3
# Si number density = 17.942078 Si / 1000 Ang^3
#
#
#
# Elastic Constant Matrix: (Units=GPa)
#
#
# Indices 1 2 3 4 5 6 
#
# 1 78.5262 28.7717 30.6343 0.0000 0.0000 0.0000
# 2 28.7717 89.1933 14.5267 0.0000 0.0000 0.0000
# 3 30.6343 14.5267 78.6777 0.0000 0.0000 0.0000
# 4 0.0000 0.0000 0.0000 0.6981 0.0000 0.0000
# 5 0.0000 0.0000 0.0000 0.0000 24.1684 0.0000
# 6 0.0000 0.0000 0.0000 0.0000 0.0000 -7.9665
#
#
#
# Elastic Compliance Matrix: (Units=1/GPa)
#
#
# Indices 1 2 3 4 5 6 
#
# 1 0.016550 -0.004422 -0.005628 0.000000 0.000000 0.000000
# 2 -0.004422 0.012741 -0.000631 0.000000 0.000000 0.000000
# 3 -0.005628 -0.000631 0.015018 0.000000 0.000000 0.000000
# 4 0.000000 0.000000 0.000000 1.432507 0.000000 0.000000
# 5 0.000000 0.000000 0.000000 0.000000 0.041376 0.000000
# 6 0.000000 0.000000 0.000000 0.000000 0.000000 -0.125525
#
#
# Mechanical properties :
#
#
# Convention : Reuss Voigt Hill
#
# Bulk Modulus (GPa) = 43.57664 43.80697 43.69180
# Shear Modulus (GPa) = 3.51697 14.87762 9.19730
#
# Velocity S-wave (km/s) = 1.40158 2.88271 2.26655
# Velocity P-wave (km/s) = 5.19224 5.96228 5.59054
#
# Compressibility (1/GPa) = 0.02294808
#
# Stress axis : x y z
#
# Youngs Moduli (GPa) = 60.42184 78.48804 66.58804
#
# Poissons Ratio (x) = 0.34709 0.37473
# Poissons Ratio (y) = 0.26720 0.04199
# Poissons Ratio (z) = 0.34003 0.04949
#
# Static dielectric constant tensor:
#      x y z
#    x 3.386040 0.000000 0.000000 
#    y 0.000000 3.184360 0.000000 
#    z 0.000000 0.000000 3.447570 
# 
# 
# High freq. dielectric constant tensor:
#      x y z
#    x 1.699200 0.000000 0.000000 
#    y 0.000000 1.673750 0.000000 
#    z 0.000000 0.000000 1.687860 
# 
# From -- ./inp_files/48118.got.cif
#   From: 2010.06.25/outbox.cif.g09.slc.cpg/sg71_25_cif.got.tgz:48118.got - 2010.06.28 04:59:45.
