data_PCOD8289539
_publ_section_title
;
Structure prediction by ZEFSAII (Michael W. Deem and Ramdas Pophale) SiO2 
 PCOD8289539
Probable space group: I M M M
;
_chemical_formula_sum "Si O2"
_cell_formula_units_Z 104
_cell_length_a 27.549992
_cell_length_b 8.445393
_cell_length_c 22.082956
_cell_angle_alpha 90.000000
_cell_angle_beta 90.000000
_cell_angle_gamma 90.000000
_cell_volume 5138.052626
_symmetry_space_group_name_H-M "I M M M"
_symmetry_group_IT_number 71
_symmetry_cell_setting 'orthorhombic'
loop_
_space_group_symop_operation_xyz
x,y,z
-x,-y,z
x,-y,-z
-x,y,-z
-x,-y,-z
x,y,-z
-x,y,z
x,-y,z
1/2+x,1/2+y,1/2+z
1/2-x,1/2-y,1/2+z
1/2+x,1/2-y,1/2-z
1/2-x,1/2+y,1/2-z
1/2-x,1/2-y,1/2-z
1/2+x,1/2+y,1/2-z
1/2-x,1/2+y,1/2+z
1/2+x,1/2-y,1/2+z
loop_
_atom_site_type_symbol
_atom_site_label
_atom_site_fract_x
_atom_site_fract_y
_atom_site_fract_z
Si Si1 0.117250 0.188154 0.673138
Si Si2 0.445441 0.311212 0.716561
Si Si3 0.725850 0.312046 0.187749
Si Si4 0.053770 0.188628 0.433081
Si Si5 0.056746 0.675928 0.000000
Si Si6 0.613371 0.314840 0.604897
Si Si7 0.781254 0.188546 0.069665
O O1 0.077516 0.247424 0.720994
O O2 0.170757 0.253989 0.687387
O O3 0.096560 0.254704 0.609649
O O4 0.120184 0.000000 0.673016
O O5 0.500000 0.241544 0.709233
O O6 0.448034 0.500000 0.712491
O O7 0.407907 0.242750 0.666852
O O8 0.728471 0.500000 0.189667
O O9 0.750000 0.250000 0.250000
O O10 0.747806 0.255295 0.123504
O O11 0.064724 0.254102 0.500000
O O12 0.000000 0.244883 0.411869
O O13 0.054529 0.000000 0.432572
O O14 0.072425 0.776835 0.056998
O O15 0.080127 0.500000 0.000000
O O16 0.000000 0.661552 0.000000
O O17 0.620676 0.500000 0.611928
O O18 0.665114 0.243086 0.584846
O O19 0.779816 0.000000 0.072489
O O20 0.767138 0.242286 0.000000
#
# Coordination Sequence:
#
# PCOD8289539 Si02
#       7
#    16  16  16  16   8  16  16
#     4   9  17  29  45  68 102 139 174 216 268 323
#     4   9  16  26  46  75 102 132 175 224 268 318
#     4  11  23  38  57  81 111 150 192 237 286 339
#     4   8  13  22  39  65  99 137 169 200 251 320
#     4  11  23  35  49  75 111 143 173 217 270 323
#     4  10  19  35  56  77 102 139 185 228 275 328
#     4  10  21  39  61  84 112 147 187 238 297 346
#
# _framework density 20.241133000000001
#
# number of rings (size 3 to 8) (size 9 to 14) (size 15 to 20)
#    0.000    2.385    0.769    3.000    0.000    7.077 
#    0.000    1.538    0.000    0.000    0.000    0.000 
#    0.000    7.385    0.000   13.538    0.000   11.077 
#
# Total GULP energy -644243.457225 kJ/mol
# GULP energy per Si atom -12389.297254 kJ/mol
# Density = 2.019506 g / cm^3
# Si number density = 20.241133 Si / 1000 Ang^3
#
#
#
# Elastic Constant Matrix: (Units=GPa)
#
#
# Indices 1 2 3 4 5 6 
#
# 1 136.6003 16.2141 83.2951 0.0000 0.0000 0.0000
# 2 16.2141 13.2403 16.3235 0.0000 0.0000 0.0000
# 3 83.2951 16.3235 173.7668 0.0000 0.0000 0.0000
# 4 0.0000 0.0000 0.0000 22.4678 0.0000 0.0000
# 5 0.0000 0.0000 0.0000 0.0000 42.0743 0.0000
# 6 0.0000 0.0000 0.0000 0.0000 0.0000 18.7460
#
#
#
# Elastic Compliance Matrix: (Units=1/GPa)
#
#
# Indices 1 2 3 4 5 6 
#
# 1 0.011030 -0.007904 -0.004545 0.000000 0.000000 0.000000
# 2 -0.007904 0.091084 -0.004767 0.000000 0.000000 0.000000
# 3 -0.004545 -0.004767 0.008381 0.000000 0.000000 0.000000
# 4 0.000000 0.000000 0.000000 0.044508 0.000000 0.000000
# 5 0.000000 0.000000 0.000000 0.000000 0.023767 0.000000
# 6 0.000000 0.000000 0.000000 0.000000 0.000000 0.053345
#
#
# Mechanical properties :
#
#
# Convention : Reuss Voigt Hill
#
# Bulk Modulus (GPa) = 13.14712 61.69699 37.42206
# Shear Modulus (GPa) = 17.12897 30.50924 23.81911
#
# Velocity S-wave (km/s) = 2.91219 3.88659 3.43413
# Velocity P-wave (km/s) = 4.22103 7.11955 5.85257
#
# Compressibility (1/GPa) = 0.07606226
#
# Stress axis : x y z
#
# Youngs Moduli (GPa) = 90.66073 10.97887 119.31438
#
# Poissons Ratio (x) = 0.08678 0.54226
# Poissons Ratio (y) = 0.71662 0.56882
# Poissons Ratio (z) = 0.41203 0.05234
#
# Static dielectric constant tensor:
#      x y z
#    x 3.960150 0.000000 0.000000 
#    y 0.000000 3.173620 0.000000 
#    z 0.000000 0.000000 4.040680 
# 
# 
# High freq. dielectric constant tensor:
#      x y z
#    x 1.798790 0.000000 0.000000 
#    y 0.000000 1.732620 0.000000 
#    z 0.000000 0.000000 1.809710 
# 
# From -- ./inp_files/62280.got.cif
#   From: 2010.06.25/outbox.cif.g09.slc.cpg/sg71_32_cif.got.tgz:62280.got - 2010.06.28 04:59:45.
