data_PCOD8289090
_publ_section_title
;
Structure prediction by ZEFSAII (Michael W. Deem and Ramdas Pophale) SiO2 
 PCOD8289090
Probable space group: I M M M
;
_chemical_formula_sum "Si O2"
_cell_formula_units_Z 104
_cell_length_a 31.876663
_cell_length_b 24.336237
_cell_length_c 7.651079
_cell_angle_alpha 90.000000
_cell_angle_beta 90.000000
_cell_angle_gamma 90.000000
_cell_volume 5935.385938
_symmetry_space_group_name_H-M "I M M M"
_symmetry_group_IT_number 71
_symmetry_cell_setting 'orthorhombic'
loop_
_space_group_symop_operation_xyz
x,y,z
-x,-y,z
x,-y,-z
-x,y,-z
-x,-y,-z
x,y,-z
-x,y,z
x,-y,z
1/2+x,1/2+y,1/2+z
1/2-x,1/2-y,1/2+z
1/2+x,1/2-y,1/2-z
1/2-x,1/2+y,1/2-z
1/2-x,1/2-y,1/2-z
1/2+x,1/2+y,1/2-z
1/2-x,1/2+y,1/2+z
1/2+x,1/2-y,1/2+z
loop_
_atom_site_type_symbol
_atom_site_label
_atom_site_fract_x
_atom_site_fract_y
_atom_site_fract_z
Si Si1 0.881379 0.935889 0.702410
Si Si2 0.953072 0.737617 0.793837
Si Si3 0.836899 0.564338 0.202991
Si Si4 0.681328 0.435160 0.500000
Si Si5 0.500000 0.937326 0.205833
Si Si6 0.725711 0.064934 0.000000
Si Si7 0.917676 0.626936 0.200411
Si Si8 0.546444 0.356706 0.203340
O O1 0.870683 0.921985 0.500000
O O2 0.842660 0.916825 0.823291
O O3 0.922066 0.903167 0.773406
O O4 0.891437 0.000000 0.726487
O O5 0.925383 0.687488 0.714340
O O6 0.933769 0.796695 0.743464
O O7 0.000000 0.733616 0.714095
O O8 0.955195 0.730637 0.000000
O O9 0.846406 0.500000 0.226763
O O10 0.798025 0.583588 0.323015
O O11 0.877375 0.596382 0.281120
O O12 0.826661 0.577748 0.000000
O O13 0.685478 0.500000 0.500000
O O14 0.727749 0.408307 0.500000
O O15 0.458961 0.909384 0.282671
O O16 0.500000 0.000000 0.268184
O O17 0.500000 0.931540 0.000000
O O18 0.729751 0.000000 0.000000
O O19 0.906648 0.634777 0.000000
O O20 0.500000 0.362351 0.291847
O O21 0.541306 0.365380 0.000000
#
# Coordination Sequence:
#
# PCOD8289090 Si02
#       8
#    16  16  16   8   8   8  16  16
#     4   9  18  32  50  75 106 133 163 200 234 286
#     4   9  17  30  46  65  91 125 165 208 240 275
#     4   9  18  31  48  70  96 125 159 201 250 300
#     4   9  18  32  51  76 102 130 159 194 246 299
#     4  11  23  31  41  65  93 129 168 203 250 299
#     4   9  18  32  50  72 100 126 154 198 249 306
#     4  10  19  33  48  64  91 126 166 207 248 294
#     4   9  18  31  47  70 101 134 166 198 237 278
#
# _framework density 17.522027000000001
#
# number of rings (size 3 to 8) (size 9 to 14) (size 15 to 20)
#    0.000    2.692    0.769    0.692    2.154    2.769 
#    0.000    4.615    0.000    1.385    0.000    1.077 
#    0.000    0.000    0.000    0.000    0.000    0.000 
#
# Total GULP energy -644470.249406 kJ/mol
# GULP energy per Si atom -12393.658642 kJ/mol
# Density = 1.748215 g / cm^3
# Si number density = 17.522027 Si / 1000 Ang^3
#
#
#
# Elastic Constant Matrix: (Units=GPa)
#
#
# Indices 1 2 3 4 5 6 
#
# 1 142.6072 62.2054 45.8860 0.0000 0.0000 0.0000
# 2 62.2054 87.6621 24.1561 0.0000 0.0000 0.0000
# 3 45.8860 24.1561 60.4614 0.0000 0.0000 0.0000
# 4 0.0000 0.0000 0.0000 16.9290 0.0000 0.0000
# 5 0.0000 0.0000 0.0000 0.0000 11.9498 0.0000
# 6 0.0000 0.0000 0.0000 0.0000 0.0000 0.3383
#
#
#
# Elastic Compliance Matrix: (Units=1/GPa)
#
#
# Indices 1 2 3 4 5 6 
#
# 1 0.012032 -0.006767 -0.006428 0.000000 0.000000 0.000000
# 2 -0.006767 0.016624 -0.001506 0.000000 0.000000 0.000000
# 3 -0.006428 -0.001506 0.022020 0.000000 0.000000 0.000000
# 4 0.000000 0.000000 0.000000 0.059070 0.000000 0.000000
# 5 0.000000 0.000000 0.000000 0.000000 0.083683 0.000000
# 6 0.000000 0.000000 0.000000 0.000000 0.000000 2.956101
#
#
# Mechanical properties :
#
#
# Convention : Reuss Voigt Hill
#
# Bulk Modulus (GPa) = 47.00618 61.69175 54.34897
# Shear Modulus (GPa) = 1.56935 16.40898 8.98916
#
# Velocity S-wave (km/s) = 0.94741 3.06351 2.26745
# Velocity P-wave (km/s) = 5.29924 6.91361 6.15954
#
# Compressibility (1/GPa) = 0.02127380
#
# Stress axis : x y z
#
# Youngs Moduli (GPa) = 83.10939 60.15279 45.41369
#
# Poissons Ratio (x) = 0.40705 0.29193
# Poissons Ratio (y) = 0.56239 0.06841
# Poissons Ratio (z) = 0.53424 0.09061
#
# Static dielectric constant tensor:
#      x y z
#    x 3.505970 0.000000 0.000000 
#    y 0.000000 3.305340 0.000000 
#    z 0.000000 0.000000 3.234940 
# 
# 
# High freq. dielectric constant tensor:
#      x y z
#    x 1.655370 0.000000 0.000000 
#    y 0.000000 1.657170 0.000000 
#    z 0.000000 0.000000 1.679800 
# 
# From -- ./inp_files/13383.got.cif
#   From: 2010.06.25/outbox.cif.g09.slc.cpg/sg71_7_cif.got.tgz:13383.got - 2010.06.28 04:59:45.
