data_PCOD8289850
_publ_section_title
;
Structure prediction by ZEFSAII (Michael W. Deem and Ramdas Pophale) SiO2 
 PCOD8289850
Probable space group: I M M M
;
_chemical_formula_sum "Si O2"
_cell_formula_units_Z 72
_cell_length_a 18.931387
_cell_length_b 8.868542
_cell_length_c 27.644153
_cell_angle_alpha 90.000000
_cell_angle_beta 90.000000
_cell_angle_gamma 90.000000
_cell_volume 4641.281915
_symmetry_space_group_name_H-M "I M M M"
_symmetry_group_IT_number 71
_symmetry_cell_setting 'orthorhombic'
loop_
_space_group_symop_operation_xyz
x,y,z
-x,-y,z
x,-y,-z
-x,y,-z
-x,-y,-z
x,y,-z
-x,y,z
x,-y,z
1/2+x,1/2+y,1/2+z
1/2-x,1/2-y,1/2+z
1/2+x,1/2-y,1/2-z
1/2-x,1/2+y,1/2-z
1/2-x,1/2-y,1/2-z
1/2+x,1/2+y,1/2-z
1/2-x,1/2+y,1/2+z
1/2+x,1/2-y,1/2+z
loop_
_atom_site_type_symbol
_atom_site_label
_atom_site_fract_x
_atom_site_fract_y
_atom_site_fract_z
Si Si1 0.631811 0.321268 0.602553
Si Si2 0.218005 0.325267 0.822079
Si Si3 0.500000 0.829078 0.766536
Si Si4 0.000000 0.328085 0.847978
Si Si5 0.857552 0.175145 0.732818
Si Si6 0.920118 0.821232 0.000000
O O1 0.634087 0.500000 0.605627
O O2 0.703192 0.252910 0.626001
O O3 0.567572 0.260202 0.633751
O O4 0.622736 0.265899 0.547173
O O5 0.198152 0.500000 0.825350
O O6 0.167270 0.255232 0.781644
O O7 0.299815 0.299308 0.809245
O O8 0.500000 0.822000 0.709216
O O9 0.569621 0.745598 0.786634
O O10 0.500000 0.000000 0.785738
O O11 0.000000 0.500000 0.866939
O O12 0.867939 0.000000 0.744617
O O13 0.000000 0.753974 0.000000
O O14 0.926326 0.000000 0.000000
#
# Coordination Sequence:
#
# PCOD8289850 Si02
#       6
#    16  16   8   8  16   8
#     4  11  20  32  50  65  86 123 160 194 230 272
#     4  10  20  33  46  66  93 118 151 194 230 268
#     4  11  21  31  46  68  96 120 151 197 229 264
#     4  11  21  30  42  65  93 121 153 195 234 267
#     4  10  20  32  48  66  89 122 155 185 226 277
#     4   9  18  32  46  66  92 117 156 199 228 262
#
# _framework density 15.512956000000001
#
# number of rings (size 3 to 8) (size 9 to 14) (size 15 to 20)
#    0.000    1.667    3.333    2.667    0.000    3.556 
#    0.000    2.778    0.000    0.000    0.000    0.000 
#    0.000    0.889    0.000   10.000    0.000    4.444 
#
# Total GULP energy -446411.405121 kJ/mol
# GULP energy per Si atom -12400.316809 kJ/mol
# Density = 1.547765 g / cm^3
# Si number density = 15.512956 Si / 1000 Ang^3
#
#
#
# Elastic Constant Matrix: (Units=GPa)
#
#
# Indices 1 2 3 4 5 6 
#
# 1 104.6127 51.8468 43.1749 0.0000 0.0000 0.0000
# 2 51.8468 99.3418 40.3651 0.0000 0.0000 0.0000
# 3 43.1749 40.3651 86.3276 0.0000 0.0000 0.0000
# 4 0.0000 0.0000 0.0000 19.1275 0.0000 0.0000
# 5 0.0000 0.0000 0.0000 0.0000 -2.5645 0.0000
# 6 0.0000 0.0000 0.0000 0.0000 0.0000 26.6047
#
#
#
# Elastic Compliance Matrix: (Units=1/GPa)
#
#
# Indices 1 2 3 4 5 6 
#
# 1 0.014172 -0.005576 -0.004481 0.000000 0.000000 0.000000
# 2 -0.005576 0.014621 -0.004048 0.000000 0.000000 0.000000
# 3 -0.004481 -0.004048 0.015717 0.000000 0.000000 0.000000
# 4 0.000000 0.000000 0.000000 0.052281 0.000000 0.000000
# 5 0.000000 0.000000 0.000000 0.000000 -0.389939 0.000000
# 6 0.000000 0.000000 0.000000 0.000000 0.000000 0.037587
#
#
# Mechanical properties :
#
#
# Convention : Reuss Voigt Hill
#
# Bulk Modulus (GPa) = 61.34345 62.33953 61.84149
# Shear Modulus (GPa) = -22.53071 18.95989 -1.78541
#
# Velocity S-wave (km/s) = -3.81514 3.49979 -1.07397
# Velocity P-wave (km/s) = 4.49690 7.52357 6.19783
#
# Compressibility (1/GPa) = 0.01630166
#
# Stress axis : x y z
#
# Youngs Moduli (GPa) = 70.56391 68.39486 63.62380
#
# Poissons Ratio (x) = 0.38134 0.28507
# Poissons Ratio (y) = 0.39344 0.25755
# Poissons Ratio (z) = 0.31616 0.27686
#
# Static dielectric constant tensor:
#      x y z
#    x 3.018610 0.000000 0.000000 
#    y 0.000000 3.107530 0.000000 
#    z 0.000000 0.000000 2.946350 
# 
# 
# High freq. dielectric constant tensor:
#      x y z
#    x 1.585720 0.000000 0.000000 
#    y 0.000000 1.609120 0.000000 
#    z 0.000000 0.000000 1.561830 
# 
# From -- ./inp_files/14497.got.cif
#   From: 2010.06.25/outbox.cif.g09.slc.cpg/sg71_8_cif.got.tgz:14497.got - 2010.06.28 04:59:45.
