data_PCOD8289883
_publ_section_title
;
Structure prediction by ZEFSAII (Michael W. Deem and Ramdas Pophale) SiO2 
 PCOD8289883
Probable space group: I M M M
;
_chemical_formula_sum "Si O2"
_cell_formula_units_Z 104
_cell_length_a 9.155682
_cell_length_b 28.324440
_cell_length_c 23.781604
_cell_angle_alpha 90.000000
_cell_angle_beta 90.000000
_cell_angle_gamma 90.000000
_cell_volume 6167.273031
_symmetry_space_group_name_H-M "I M M M"
_symmetry_group_IT_number 71
_symmetry_cell_setting 'orthorhombic'
loop_
_space_group_symop_operation_xyz
x,y,z
-x,-y,z
x,-y,-z
-x,y,-z
-x,-y,-z
x,y,-z
-x,y,z
x,-y,z
1/2+x,1/2+y,1/2+z
1/2-x,1/2-y,1/2+z
1/2+x,1/2-y,1/2-z
1/2-x,1/2+y,1/2-z
1/2-x,1/2-y,1/2-z
1/2+x,1/2+y,1/2-z
1/2-x,1/2+y,1/2+z
1/2+x,1/2-y,1/2+z
loop_
_atom_site_type_symbol
_atom_site_label
_atom_site_fract_x
_atom_site_fract_y
_atom_site_fract_z
Si Si1 0.673328 0.085286 0.872353
Si Si2 0.833504 0.055224 0.232739
Si Si3 0.662548 0.279786 0.066929
Si Si4 0.829966 0.000000 0.066435
Si Si5 0.326608 0.177055 0.062443
Si Si6 0.669005 0.554522 0.860844
Si Si7 0.170334 0.629268 0.934731
O O1 0.500000 0.077793 0.876492
O O2 0.724212 0.083489 0.807703
O O3 0.724416 0.136025 0.895716
O O4 0.753372 0.046043 0.909018
O O5 0.789586 0.066760 0.296652
O O6 0.000000 0.070777 0.221183
O O7 0.815890 0.000000 0.220094
O O8 0.500000 0.288087 0.091340
O O9 0.725870 0.228424 0.085743
O O10 0.763855 0.321939 0.089600
O O11 0.657791 0.279831 0.000000
O O12 0.000000 0.000000 0.083856
O O13 0.809023 0.000000 0.000000
O O14 0.500000 0.178779 0.058165
O O15 0.262082 0.167114 0.000000
O O16 0.500000 0.565801 0.871989
O O17 0.702534 0.500000 0.873350
O O18 0.766449 0.584774 0.902304
O O19 0.000000 0.631335 0.924210
O O20 0.210248 0.622893 0.000000
#
# Coordination Sequence:
#
# PCOD8289883 Si02
#       7
#    16  16  16   8  16  16  16
#     4  11  20  30  49  74  97 125 163 207 252 299
#     4   9  18  34  52  68  93 127 164 205 245 287
#     4   8  14  28  50  70  91 126 166 197 230 283
#     4  11  23  35  45  63  97 137 170 203 248 297
#     4   8  15  28  46  70  98 125 158 203 248 287
#     4   9  19  35  54  74  95 128 169 202 232 277
#     4  10  20  32  48  75 108 133 152 188 244 292
#
# _framework density 16.863206999999999
#
# number of rings (size 3 to 8) (size 9 to 14) (size 15 to 20)
#    0.000    2.692    0.769    3.462    0.000    3.385 
#    0.000    4.615    0.000    4.615    0.000    0.000 
#    0.000    0.000    0.000    0.000    0.000    0.000 
#
# Total GULP energy -644651.831419 kJ/mol
# GULP energy per Si atom -12397.150604 kJ/mol
# Density = 1.682483 g / cm^3
# Si number density = 16.863207 Si / 1000 Ang^3
#
#
#
# Elastic Constant Matrix: (Units=GPa)
#
#
# Indices 1 2 3 4 5 6 
#
# 1 78.3072 57.6148 50.9619 0.0000 0.0000 0.0000
# 2 57.6148 125.3688 63.6787 0.0000 0.0000 0.0000
# 3 50.9619 63.6787 75.0653 0.0001 0.0000 0.0000
# 4 0.0000 0.0000 0.0001 12.5959 0.0000 0.0000
# 5 0.0000 0.0000 0.0000 0.0000 26.9439 0.0000
# 6 0.0000 0.0000 0.0000 0.0000 0.0000 16.1099
#
#
#
# Elastic Compliance Matrix: (Units=1/GPa)
#
#
# Indices 1 2 3 4 5 6 
#
# 1 0.024504 -0.004940 -0.012445 0.000000 0.000000 0.000000
# 2 -0.004940 0.015011 -0.009381 0.000000 0.000000 0.000000
# 3 -0.012445 -0.009381 0.029729 0.000000 0.000000 0.000000
# 4 0.000000 0.000000 0.000000 0.079391 0.000000 0.000000
# 5 0.000000 0.000000 0.000000 0.000000 0.037114 0.000000
# 6 0.000000 0.000000 0.000000 0.000000 0.000000 0.062073
#
#
# Mechanical properties :
#
#
# Convention : Reuss Voigt Hill
#
# Bulk Modulus (GPa) = 63.64393 69.25022 66.44707
# Shear Modulus (GPa) = 16.30834 18.22902 17.26868
#
# Velocity S-wave (km/s) = 3.11319 3.29141 3.20354
# Velocity P-wave (km/s) = 7.12361 7.45651 7.29196
#
# Compressibility (1/GPa) = 0.01571242
#
# Stress axis : x y z
#
# Youngs Moduli (GPa) = 40.80956 66.61645 33.63761
#
# Poissons Ratio (x) = 0.32907 0.41863
# Poissons Ratio (y) = 0.20159 0.31554
# Poissons Ratio (z) = 0.50789 0.62491
#
# Static dielectric constant tensor:
#      x y z
#    x 3.068270 0.000000 0.000000 
#    y 0.000000 3.435330 0.000000 
#    z 0.000000 0.000000 3.049070 
# 
# 
# High freq. dielectric constant tensor:
#      x y z
#    x 1.640110 0.000000 0.000000 
#    y 0.000000 1.652510 0.000000 
#    z 0.000000 0.000000 1.629670 
# 
# From -- ./inp_files/58016.got.cif
#   From: 2010.06.25/outbox.cif.g09.slc.cpg/sg71_30_cif.got.tgz:58016.got - 2010.06.28 04:59:45.
