data_PCOD8289946
_publ_section_title
;
Structure prediction by ZEFSAII (Michael W. Deem and Ramdas Pophale) SiO2 
 PCOD8289946
Probable space group: I M M M
;
_chemical_formula_sum "Si O2"
_cell_formula_units_Z 104
_cell_length_a 14.541993
_cell_length_b 20.823149
_cell_length_c 19.028162
_cell_angle_alpha 90.000000
_cell_angle_beta 90.000000
_cell_angle_gamma 90.000000
_cell_volume 5761.919391
_symmetry_space_group_name_H-M "I M M M"
_symmetry_group_IT_number 71
_symmetry_cell_setting 'orthorhombic'
loop_
_space_group_symop_operation_xyz
x,y,z
-x,-y,z
x,-y,-z
-x,y,-z
-x,-y,-z
x,y,-z
-x,y,z
x,-y,z
1/2+x,1/2+y,1/2+z
1/2-x,1/2-y,1/2+z
1/2+x,1/2-y,1/2-z
1/2-x,1/2+y,1/2-z
1/2-x,1/2-y,1/2-z
1/2+x,1/2+y,1/2-z
1/2-x,1/2+y,1/2+z
1/2+x,1/2-y,1/2+z
loop_
_atom_site_type_symbol
_atom_site_label
_atom_site_fract_x
_atom_site_fract_y
_atom_site_fract_z
Si Si1 0.398602 0.698297 0.076116
Si Si2 0.895900 0.573742 0.710810
Si Si3 0.103931 0.696810 0.802295
Si Si4 0.710788 0.388068 0.652116
Si Si5 0.603949 0.327803 0.228655
Si Si6 0.391404 0.500000 0.420858
Si Si7 0.212506 0.757671 0.921959
O O1 0.500000 0.730405 0.081509
O O2 0.384517 0.654839 0.145745
O O3 0.322908 0.753652 0.077719
O O4 0.390340 0.660798 0.000000
O O5 0.883872 0.500000 0.738015
O O6 0.880277 0.625224 0.772833
O O7 0.817276 0.588522 0.652617
O O8 0.000000 0.582418 0.679802
O O9 0.125559 0.751782 0.743387
O O10 0.169458 0.704998 0.869646
O O11 0.000000 0.704978 0.828897
O O12 0.677693 0.371519 0.731144
O O13 0.643760 0.439807 0.621268
O O14 0.689974 0.328547 0.602320
O O15 0.500000 0.343727 0.253494
O O16 0.500000 0.500000 0.421376
O O17 0.351955 0.500000 0.500000
O O18 0.172095 0.746085 0.000000
#
# Coordination Sequence:
#
# PCOD8289946 Si02
#       7
#    16  16  16  16  16   8  16
#     4   9  17  29  45  71 106 136 160 197 254 315
#     4  10  20  34  53  77 105 141 182 223 263 309
#     4   9  18  32  51  76 105 135 173 224 271 314
#     4  11  20  35  54  76 103 139 176 223 264 312
#     4   9  17  30  51  78 102 129 170 218 269 322
#     4  11  24  40  55  73 102 140 177 214 261 317
#     4  10  20  32  50  77 105 136 174 216 270 327
#
# _framework density 18.049541000000001
#
# number of rings (size 3 to 8) (size 9 to 14) (size 15 to 20)
#    0.000    2.231    0.769    2.769    0.000    5.231 
#    0.000    0.000    0.000    2.308    0.000    2.692 
#    0.000    3.077    0.000    0.154    0.000    0.000 
#
# Total GULP energy -644240.168340 kJ/mol
# GULP energy per Si atom -12389.234007 kJ/mol
# Density = 1.800846 g / cm^3
# Si number density = 18.049541 Si / 1000 Ang^3
#
#
#
# Elastic Constant Matrix: (Units=GPa)
#
#
# Indices 1 2 3 4 5 6 
#
# 1 89.6003 26.7985 37.2049 0.0000 0.0000 0.0000
# 2 26.7985 83.4145 28.1141 0.0000 0.0000 0.0000
# 3 37.2049 28.1141 118.4370 0.0000 0.0000 0.0000
# 4 0.0000 0.0000 0.0000 24.6068 0.0000 0.0000
# 5 0.0000 0.0000 0.0000 0.0000 24.4331 0.0000
# 6 0.0000 0.0000 0.0000 0.0000 0.0000 26.4114
#
#
#
# Elastic Compliance Matrix: (Units=1/GPa)
#
#
# Indices 1 2 3 4 5 6 
#
# 1 0.013567 -0.003176 -0.003508 0.000000 0.000000 0.000000
# 2 -0.003176 0.013775 -0.002272 0.000000 0.000000 0.000000
# 3 -0.003508 -0.002272 0.010085 0.000000 0.000000 0.000000
# 4 0.000000 0.000000 0.000000 0.040639 0.000000 0.000000
# 5 0.000000 0.000000 0.000000 0.000000 0.040928 0.000000
# 6 0.000000 0.000000 0.000000 0.000000 0.000000 0.037862
#
#
# Mechanical properties :
#
#
# Convention : Reuss Voigt Hill
#
# Bulk Modulus (GPa) = 51.24566 52.85409 52.04988
# Shear Modulus (GPa) = 27.58265 28.37921 27.98093
#
# Velocity S-wave (km/s) = 3.91341 3.96952 3.94157
# Velocity P-wave (km/s) = 6.99093 7.09618 7.04375
#
# Compressibility (1/GPa) = 0.01951385
#
# Stress axis : x y z
#
# Youngs Moduli (GPa) = 73.70652 72.59773 99.16151
#
# Poissons Ratio (x) = 0.23060 0.34785
# Poissons Ratio (y) = 0.23412 0.22529
# Poissons Ratio (z) = 0.25856 0.16494
#
# Static dielectric constant tensor:
#      x y z
#    x 3.682280 0.000000 0.000000 
#    y 0.000000 2.883750 0.000000 
#    z 0.000000 0.000000 3.464210 
# 
# 
# High freq. dielectric constant tensor:
#      x y z
#    x 1.723790 0.000000 0.000000 
#    y 0.000000 1.661040 0.000000 
#    z 0.000000 0.000000 1.691410 
# 
# From -- ./inp_files/44975.got.cif
#   From: 2010.06.25/outbox.cif.g09.slc.cpg/sg71_23_cif.got.tgz:44975.got - 2010.06.28 04:59:45.
