data_PCOD8289242
_publ_section_title
;
Structure prediction by ZEFSAII (Michael W. Deem and Ramdas Pophale) SiO2 
 PCOD8289242
Probable space group: I M M M
;
_chemical_formula_sum "Si O2"
_cell_formula_units_Z 88
_cell_length_a 29.086773
_cell_length_b 17.770889
_cell_length_c 8.919236
_cell_angle_alpha 90.000000
_cell_angle_beta 90.000000
_cell_angle_gamma 90.000000
_cell_volume 4610.333594
_symmetry_space_group_name_H-M "I M M M"
_symmetry_group_IT_number 71
_symmetry_cell_setting 'orthorhombic'
loop_
_space_group_symop_operation_xyz
x,y,z
-x,-y,z
x,-y,-z
-x,y,-z
-x,-y,-z
x,y,-z
-x,y,z
x,-y,z
1/2+x,1/2+y,1/2+z
1/2-x,1/2-y,1/2+z
1/2+x,1/2-y,1/2-z
1/2-x,1/2+y,1/2-z
1/2-x,1/2-y,1/2-z
1/2+x,1/2+y,1/2-z
1/2-x,1/2+y,1/2+z
1/2+x,1/2-y,1/2+z
loop_
_atom_site_type_symbol
_atom_site_label
_atom_site_fract_x
_atom_site_fract_y
_atom_site_fract_z
Si Si1 0.077746 0.697915 0.176352
Si Si2 0.179283 0.728067 0.829056
Si Si3 0.600654 0.500000 0.175420
Si Si4 0.197034 0.000000 0.173939
Si Si5 0.772107 0.858735 0.670903
Si Si6 0.553166 0.361993 0.669436
Si Si7 0.000000 0.585853 0.178992
O O1 0.131600 0.686974 0.218615
O O2 0.061883 0.779226 0.239322
O O3 0.045527 0.630415 0.239992
O O4 0.069734 0.698406 0.000000
O O5 0.189674 0.798068 0.720816
O O6 0.220220 0.669379 0.813782
O O7 0.175266 0.757952 0.000000
O O8 0.653120 0.500000 0.221186
O O9 0.578335 0.575917 0.234328
O O10 0.595273 0.500000 0.000000
O O11 0.226990 0.927751 0.215393
O O12 0.183735 0.000000 0.000000
O O13 0.783239 0.881865 0.500000
O O14 0.572645 0.365626 0.500000
O O15 0.500000 0.381572 0.672051
O O16 0.000000 0.500000 0.242233
O O17 0.000000 0.582960 0.000000
#
# Coordination Sequence:
#
# PCOD8289242 Si02
#       7
#    16  16   8   8  16  16   8
#     4   9  16  30  51  78 109 144 183 223 266 320
#     4   9  18  33  55  81 110 147 186 222 267 328
#     4  12  25  37  52  79 112 142 183 235 284 329
#     4  12  24  39  57  76 104 144 185 226 281 343
#     4  10  20  35  54  80 113 143 180 229 277 324
#     4  10  19  33  54  78 112 154 194 226 262 318
#     4   9  16  28  48  79 113 138 170 225 279 313
#
# _framework density 19.087555999999999
#
# number of rings (size 3 to 8) (size 9 to 14) (size 15 to 20)
#    0.000    2.091    0.909    3.545    0.000    3.636 
#    1.636    0.000    0.000    0.000    0.000    0.000 
#    0.000    2.909    0.000    0.000    0.000    0.000 
#
# Total GULP energy -545495.509054 kJ/mol
# GULP energy per Si atom -12397.625206 kJ/mol
# Density = 1.904411 g / cm^3
# Si number density = 19.087556 Si / 1000 Ang^3
#
#
#
# Elastic Constant Matrix: (Units=GPa)
#
#
# Indices 1 2 3 4 5 6 
#
# 1 120.0922 56.9371 23.7448 0.0000 0.0000 0.0000
# 2 56.9371 140.7425 35.4540 0.0000 0.0000 0.0000
# 3 23.7448 35.4540 56.2746 0.0000 0.0000 0.0000
# 4 0.0000 0.0000 0.0000 17.4136 0.0000 0.0000
# 5 0.0000 0.0000 0.0000 0.0000 21.1736 0.0000
# 6 0.0000 0.0000 0.0000 0.0000 0.0000 23.1441
#
#
#
# Elastic Compliance Matrix: (Units=1/GPa)
#
#
# Indices 1 2 3 4 5 6 
#
# 1 0.010505 -0.003724 -0.002086 0.000000 0.000000 0.000000
# 2 -0.003724 0.009766 -0.004581 0.000000 0.000000 0.000000
# 3 -0.002086 -0.004581 0.021537 0.000000 0.000000 0.000000
# 4 0.000000 0.000000 0.000000 0.057426 0.000000 0.000000
# 5 0.000000 0.000000 0.000000 0.000000 0.047229 0.000000
# 6 0.000000 0.000000 0.000000 0.000000 0.000000 0.043208
#
#
# Mechanical properties :
#
#
# Convention : Reuss Voigt Hill
#
# Bulk Modulus (GPa) = 47.56458 61.04236 54.30347
# Shear Modulus (GPa) = 22.99257 25.74449 24.36853
#
# Velocity S-wave (km/s) = 3.47448 3.67653 3.57693
# Velocity P-wave (km/s) = 6.40853 7.07616 6.75060
#
# Compressibility (1/GPa) = 0.02102405
#
# Stress axis : x y z
#
# Youngs Moduli (GPa) = 95.19128 102.39736 46.43275
#
# Poissons Ratio (x) = 0.38136 0.09687
# Poissons Ratio (y) = 0.35452 0.21272
# Poissons Ratio (z) = 0.19859 0.46911
#
# Static dielectric constant tensor:
#      x y z
#    x 3.650450 0.000000 0.000000 
#    y 0.000000 3.613790 0.000000 
#    z 0.000000 0.000000 3.252910 
# 
# 
# High freq. dielectric constant tensor:
#      x y z
#    x 1.753760 0.000000 0.000000 
#    y 0.000000 1.741020 0.000000 
#    z 0.000000 0.000000 1.708310 
# 
# From -- ./inp_files/16758.got.cif
#   From: 2010.06.25/outbox.cif.g09.slc.cpg/sg71_9_cif.got.tgz:16758.got - 2010.06.28 04:59:45.
