data_PCOD8289677
_publ_section_title
;
Structure prediction by ZEFSAII (Michael W. Deem and Ramdas Pophale) SiO2 
 PCOD8289677
Probable space group: I M M M
;
_chemical_formula_sum "Si O2"
_cell_formula_units_Z 112
_cell_length_a 27.876211
_cell_length_b 14.070026
_cell_length_c 14.268994
_cell_angle_alpha 90.000000
_cell_angle_beta 90.000000
_cell_angle_gamma 90.000000
_cell_volume 5596.570751
_symmetry_space_group_name_H-M "I M M M"
_symmetry_group_IT_number 71
_symmetry_cell_setting 'orthorhombic'
loop_
_space_group_symop_operation_xyz
x,y,z
-x,-y,z
x,-y,-z
-x,y,-z
-x,-y,-z
x,y,-z
-x,y,z
x,-y,z
1/2+x,1/2+y,1/2+z
1/2-x,1/2-y,1/2+z
1/2+x,1/2-y,1/2-z
1/2-x,1/2+y,1/2-z
1/2-x,1/2-y,1/2-z
1/2+x,1/2+y,1/2-z
1/2-x,1/2+y,1/2+z
1/2+x,1/2-y,1/2+z
loop_
_atom_site_type_symbol
_atom_site_label
_atom_site_fract_x
_atom_site_fract_y
_atom_site_fract_z
Si Si1 0.500000 0.299937 0.398954
Si Si2 0.748353 0.254825 0.392172
Si Si3 0.702691 0.886952 0.746989
Si Si4 0.404927 0.105345 0.784254
Si Si5 0.500000 0.103720 0.339601
Si Si6 0.575315 0.606097 0.273079
Si Si7 0.836920 0.103563 0.101653
Si Si8 0.555539 0.268607 0.893760
O O1 0.500000 0.350731 0.500000
O O2 0.500000 0.186484 0.416189
O O3 0.453530 0.326100 0.341146
O O4 0.764967 0.233686 0.500000
O O5 0.735551 0.156054 0.337775
O O6 0.786864 0.322458 0.339602
O O7 0.699656 0.312344 0.391441
O O8 0.645254 0.875654 0.728659
O O9 0.715441 0.000000 0.759051
O O10 0.451157 0.116457 0.718843
O O11 0.411453 0.178343 0.869601
O O12 0.403196 0.000000 0.828198
O O13 0.500000 0.000000 0.387991
O O14 0.554394 0.500000 0.277827
O O15 0.629182 0.612081 0.308881
O O16 0.572131 0.641349 0.166977
O O17 0.811296 0.000000 0.107434
O O18 0.863926 0.110759 0.000000
O O19 0.500000 0.243803 0.874264
O O20 0.564582 0.298383 0.000000
#
# Coordination Sequence:
#
# PCOD8289677 Si02
#       8
#     8  16  16  16   8  16  16  16
#     4  12  23  35  56  83 113 147 190 242 295 350
#     4  10  21  38  61  86 118 156 195 240 295 356
#     4  10  22  38  60  91 122 154 195 246 300 352
#     4  10  19  37  63  87 118 154 193 241 292 347
#     4  10  20  38  61  84 117 159 193 229 287 355
#     4  11  21  36  54  77 111 148 190 244 296 340
#     4   9  18  33  56  83 109 143 187 233 287 354
#     4  11  22  36  54  77 107 149 198 239 286 343
#
# _framework density 20.012255
#
# number of rings (size 3 to 8) (size 9 to 14) (size 15 to 20)
#    0.000    1.714    2.857    1.929    0.000    3.571 
#    0.000    2.857    0.000    2.571    0.000    4.000 
#    0.000    0.000    0.000    0.000    0.000    0.000 
#
# Total GULP energy -693845.490204 kJ/mol
# GULP energy per Si atom -12390.098039 kJ/mol
# Density = 1.996671 g / cm^3
# Si number density = 20.012255 Si / 1000 Ang^3
#
#
#
# Elastic Constant Matrix: (Units=GPa)
#
#
# Indices 1 2 3 4 5 6 
#
# 1 74.9998 29.5083 25.9634 0.0000 0.0000 0.0000
# 2 29.5083 123.0024 40.3159 0.0000 0.0000 0.0000
# 3 25.9634 40.3159 111.4222 0.0000 0.0000 0.0000
# 4 0.0000 0.0000 0.0000 15.6990 0.0000 0.0000
# 5 0.0000 0.0000 0.0000 0.0000 29.3310 0.0000
# 6 0.0000 0.0000 0.0000 0.0000 0.0000 25.4041
#
#
#
# Elastic Compliance Matrix: (Units=1/GPa)
#
#
# Indices 1 2 3 4 5 6 
#
# 1 0.015333 -0.002845 -0.002544 0.000000 0.000000 0.000000
# 2 -0.002845 0.009752 -0.002866 0.000000 0.000000 0.000000
# 3 -0.002544 -0.002866 0.010604 0.000000 0.000000 0.000000
# 4 0.000000 0.000000 0.000000 0.063698 0.000000 0.000000
# 5 0.000000 0.000000 0.000000 0.000000 0.034094 0.000000
# 6 0.000000 0.000000 0.000000 0.000000 0.000000 0.039364
#
#
# Mechanical properties :
#
#
# Convention : Reuss Voigt Hill
#
# Bulk Modulus (GPa) = 52.13377 55.66664 53.90020
# Shear Modulus (GPa) = 25.54326 28.32926 26.93626
#
# Velocity S-wave (km/s) = 3.57652 3.76652 3.67275
# Velocity P-wave (km/s) = 6.56984 6.84049 6.70653
#
# Compressibility (1/GPa) = 0.01918143
#
# Stress axis : x y z
#
# Youngs Moduli (GPa) = 65.21813 102.54724 94.30031
#
# Poissons Ratio (x) = 0.29172 0.23986
# Poissons Ratio (y) = 0.18553 0.27022
# Poissons Ratio (z) = 0.16589 0.29385
#
# Static dielectric constant tensor:
#      x y z
#    x 3.585340 0.000000 0.000000 
#    y 0.000000 3.913660 0.000000 
#    z 0.000000 0.000000 3.708980 
# 
# 
# High freq. dielectric constant tensor:
#      x y z
#    x 1.773120 0.000000 0.000000 
#    y 0.000000 1.794230 0.000000 
#    z 0.000000 0.000000 1.764660 
# 
# From -- ./inp_files/40405.got.cif
#   From: 2010.06.25/outbox.cif.g09.slc.cpg/sg71_21_cif.got.tgz:40405.got - 2010.06.28 04:59:45.
