data_PCOD8289081
_publ_section_title
;
Structure prediction by ZEFSAII (Michael W. Deem and Ramdas Pophale) SiO2 
 PCOD8289081
Probable space group: I M M M
;
_chemical_formula_sum "Si O2"
_cell_formula_units_Z 72
_cell_length_a 16.367355
_cell_length_b 8.950751
_cell_length_c 25.235449
_cell_angle_alpha 90.000000
_cell_angle_beta 90.000000
_cell_angle_gamma 90.000000
_cell_volume 3696.996285
_symmetry_space_group_name_H-M "I M M M"
_symmetry_group_IT_number 71
_symmetry_cell_setting 'orthorhombic'
loop_
_space_group_symop_operation_xyz
x,y,z
-x,-y,z
x,-y,-z
-x,y,-z
-x,-y,-z
x,y,-z
-x,y,z
x,-y,z
1/2+x,1/2+y,1/2+z
1/2-x,1/2-y,1/2+z
1/2+x,1/2-y,1/2-z
1/2-x,1/2+y,1/2-z
1/2-x,1/2-y,1/2-z
1/2+x,1/2+y,1/2-z
1/2-x,1/2+y,1/2+z
1/2+x,1/2-y,1/2+z
loop_
_atom_site_type_symbol
_atom_site_label
_atom_site_fract_x
_atom_site_fract_y
_atom_site_fract_z
Si Si1 0.677910 0.824667 0.714472
Si Si2 0.315814 0.822689 0.593152
Si Si3 0.000000 0.327162 0.260524
Si Si4 0.595600 0.666017 0.500000
Si Si5 0.500000 0.676828 0.870115
Si Si6 0.859149 0.822507 0.441824
O O1 0.750000 0.750000 0.750000
O O2 0.680719 0.767131 0.653930
O O3 0.584359 0.787058 0.730612
O O4 0.695482 0.000000 0.717847
O O5 0.382285 0.750977 0.554466
O O6 0.230411 0.763799 0.570557
O O7 0.326890 0.000000 0.590442
O O8 0.000000 0.221169 0.310199
O O9 0.000000 0.500000 0.276923
O O10 0.634765 0.500000 0.500000
O O11 0.500000 0.653580 0.500000
O O12 0.500000 0.500000 0.874978
O O13 0.579199 0.745500 0.898874
O O14 0.886128 0.768093 0.500000
O O15 0.859723 0.000000 0.438785
#
# Coordination Sequence:
#
# PCOD8289081 Si02
#       6
#    16  16   8   8   8  16
#     4  10  22  39  61  89 119 154 196 243 292 345
#     4  10  20  37  62  86 111 149 196 235 277 343
#     4  10  22  39  55  80 119 152 185 235 292 339
#     4  11  25  41  57  84 117 146 182 237 303 355
#     4  10  19  32  56  84 111 147 192 231 269 325
#     4   9  16  29  52  85 114 137 177 233 275 313
#
# _framework density 19.475269000000001
#
# number of rings (size 3 to 8) (size 9 to 14) (size 15 to 20)
#    0.000    2.111    1.111    2.000    1.556    5.778 
#    0.000    1.111    0.000    0.667    0.000    0.000 
#    0.000    0.000    0.000    0.000    0.000    0.000 
#
# Total GULP energy -446147.412226 kJ/mol
# GULP energy per Si atom -12392.983673 kJ/mol
# Density = 1.943094 g / cm^3
# Si number density = 19.475269 Si / 1000 Ang^3
#
#
#
# Elastic Constant Matrix: (Units=GPa)
#
#
# Indices 1 2 3 4 5 6 
#
# 1 111.2323 30.6522 45.6452 0.0000 0.0000 0.0000
# 2 30.6522 35.2379 32.1951 0.0000 0.0000 0.0000
# 3 45.6452 32.1951 149.7554 0.0000 0.0000 0.0000
# 4 0.0000 0.0000 0.0000 27.9971 0.0000 0.0000
# 5 0.0000 0.0000 0.0000 0.0000 36.0033 0.0000
# 6 0.0000 0.0000 0.0000 0.0000 0.0000 24.3506
#
#
#
# Elastic Compliance Matrix: (Units=1/GPa)
#
#
# Indices 1 2 3 4 5 6 
#
# 1 0.012198 -0.008977 -0.001788 0.000000 0.000000 0.000000
# 2 -0.008977 0.041921 -0.006276 0.000000 0.000000 0.000000
# 3 -0.001788 -0.006276 0.008572 0.000000 0.000000 0.000000
# 4 0.000000 0.000000 0.000000 0.035718 0.000000 0.000000
# 5 0.000000 0.000000 0.000000 0.000000 0.027775 0.000000
# 6 0.000000 0.000000 0.000000 0.000000 0.000000 0.041067
#
#
# Mechanical properties :
#
#
# Convention : Reuss Voigt Hill
#
# Bulk Modulus (GPa) = 34.95424 57.02341 45.98883
# Shear Modulus (GPa) = 23.71137 30.18574 26.94855
#
# Velocity S-wave (km/s) = 3.49307 3.94121 3.72389
# Velocity P-wave (km/s) = 5.85284 7.07491 6.49269
#
# Compressibility (1/GPa) = 0.02860883
#
# Stress axis : x y z
#
# Youngs Moduli (GPa) = 81.98331 23.85412 116.66101
#
# Poissons Ratio (x) = 0.21413 0.20858
# Poissons Ratio (y) = 0.73594 0.73221
# Poissons Ratio (z) = 0.14658 0.14972
#
# Static dielectric constant tensor:
#      x y z
#    x 3.849870 0.000000 0.000000 
#    y 0.000000 3.252400 0.000000 
#    z 0.000000 0.000000 3.720960 
# 
# 
# High freq. dielectric constant tensor:
#      x y z
#    x 1.775330 0.000000 0.000000 
#    y 0.000000 1.720440 0.000000 
#    z 0.000000 0.000000 1.774960 
# 
# From -- ./inp_files/60394.got.cif
#   From: 2010.06.25/outbox.cif.g09.slc.cpg/sg71_31_cif.got.tgz:60394.got - 2010.06.28 04:59:45.
