data_PCOD8289606
_publ_section_title
;
Structure prediction by ZEFSAII (Michael W. Deem and Ramdas Pophale) SiO2 
 PCOD8289606
Probable space group: I M M M
;
_chemical_formula_sum "Si O2"
_cell_formula_units_Z 96
_cell_length_a 14.679243
_cell_length_b 24.070418
_cell_length_c 13.290884
_cell_angle_alpha 90.000000
_cell_angle_beta 90.000000
_cell_angle_gamma 90.000000
_cell_volume 4696.141342
_symmetry_space_group_name_H-M "I M M M"
_symmetry_group_IT_number 71
_symmetry_cell_setting 'orthorhombic'
loop_
_space_group_symop_operation_xyz
x,y,z
-x,-y,z
x,-y,-z
-x,y,-z
-x,-y,-z
x,y,-z
-x,y,z
x,-y,z
1/2+x,1/2+y,1/2+z
1/2-x,1/2-y,1/2+z
1/2+x,1/2-y,1/2-z
1/2-x,1/2+y,1/2-z
1/2-x,1/2-y,1/2-z
1/2+x,1/2+y,1/2-z
1/2-x,1/2+y,1/2+z
1/2+x,1/2-y,1/2+z
loop_
_atom_site_type_symbol
_atom_site_label
_atom_site_fract_x
_atom_site_fract_y
_atom_site_fract_z
Si Si1 0.000000 0.395863 0.379865
Si Si2 0.311985 0.870538 0.616930
Si Si3 0.500000 0.230199 0.119466
Si Si4 0.695065 0.266231 0.880459
Si Si5 0.810064 0.437030 0.303048
Si Si6 0.305643 0.338548 0.617621
Si Si7 0.500000 0.814644 0.617486
Si Si8 0.500000 0.308421 0.620328
O O1 0.000000 0.332690 0.336183
O O2 0.087428 0.428364 0.340172
O O3 0.000000 0.395551 0.500000
O O4 0.304147 0.886447 0.500000
O O5 0.236610 0.825530 0.651710
O O6 0.298631 0.925498 0.683628
O O7 0.410711 0.848075 0.647865
O O8 0.409768 0.262821 0.155848
O O9 0.500000 0.224707 0.000000
O O10 0.752384 0.214395 0.833181
O O11 0.701745 0.261572 0.000000
O O12 0.780345 0.500000 0.324498
O O13 0.743015 0.396637 0.362940
O O14 0.307361 0.327798 0.500000
O O15 0.409420 0.340094 0.658920
O O16 0.500000 0.803501 0.500000
O O17 0.500000 0.753806 0.669091
O O18 0.500000 0.304859 0.500000
#
# Coordination Sequence:
#
# PCOD8289606 Si02
#       8
#     8  16   8  16  16  16   8   8
#     4  11  22  40  62  86 120 156 188 229 285 345
#     4  10  21  38  59  83 114 151 191 241 293 336
#     4   9  16  30  54  87 124 152 174 218 282 351
#     4   9  16  31  57  86 117 148 180 226 291 353
#     4  12  26  40  55  81 114 155 208 243 271 331
#     4  10  19  35  59  87 118 148 182 231 289 349
#     4   9  15  30  57  85 112 138 173 226 288 348
#     4   9  16  31  57  88 119 147 173 216 289 362
#
# _framework density 20.442315000000001
#
# number of rings (size 3 to 8) (size 9 to 14) (size 15 to 20)
#    0.000    2.000    3.333    1.250    0.000    2.667 
#    0.000    1.250    0.000    4.000    0.000    0.000 
#    0.000    4.667    0.000    0.000    0.000    0.000 
#
# Total GULP energy -595187.355701 kJ/mol
# GULP energy per Si atom -12399.736577 kJ/mol
# Density = 2.039579 g / cm^3
# Si number density = 20.442315 Si / 1000 Ang^3
#
#
#
# Elastic Constant Matrix: (Units=GPa)
#
#
# Indices 1 2 3 4 5 6 
#
# 1 149.7566 45.7413 2.8522 -0.0001 0.0000 0.0000
# 2 45.7413 109.4948 3.5873 0.0000 0.0000 0.0000
# 3 2.8522 3.5873 34.5163 0.0001 0.0000 0.0001
# 4 -0.0001 0.0000 0.0001 26.7857 0.0001 0.0001
# 5 0.0000 0.0000 0.0000 0.0001 12.9853 0.0000
# 6 0.0000 0.0000 0.0001 0.0001 0.0000 33.2994
#
#
#
# Elastic Compliance Matrix: (Units=1/GPa)
#
#
# Indices 1 2 3 4 5 6 
#
# 1 0.007657 -0.003189 -0.000301 0.000000 0.000000 0.000000
# 2 -0.003189 0.010492 -0.000827 0.000000 0.000000 0.000000
# 3 -0.000301 -0.000827 0.029083 0.000000 0.000000 0.000000
# 4 0.000000 0.000000 0.000000 0.037333 0.000000 0.000000
# 5 0.000000 0.000000 0.000000 0.000000 0.077010 0.000000
# 6 0.000000 0.000000 0.000000 0.000000 0.000000 0.030031
#
#
# Mechanical properties :
#
#
# Convention : Reuss Voigt Hill
#
# Bulk Modulus (GPa) = 25.90831 44.23658 35.07245
# Shear Modulus (GPa) = 23.46246 30.71987 27.09117
#
# Velocity S-wave (km/s) = 3.39151 3.88075 3.64435
# Velocity P-wave (km/s) = 5.29507 6.46274 5.90782
#
# Compressibility (1/GPa) = 0.03859765
#
# Stress axis : x y z
#
# Youngs Moduli (GPa) = 130.59503 95.30960 34.38475
#
# Poissons Ratio (x) = 0.30394 0.01036
# Poissons Ratio (y) = 0.41646 0.02843
# Poissons Ratio (z) = 0.03935 0.07882
#
# Static dielectric constant tensor:
#      x y z
#    x 3.810230 0.000000 0.000000 
#    y 0.000000 3.341090 0.000000 
#    z 0.000000 0.000000 3.722130 
# 
# 
# High freq. dielectric constant tensor:
#      x y z
#    x 1.803650 0.000000 0.000000 
#    y 0.000000 1.755380 0.000000 
#    z 0.000000 0.000000 1.820530 
# 
# From -- ./inp_files/34838.got.cif
#   From: 2010.06.25/outbox.cif.g09.slc.cpg/sg71_18_cif.got.tgz:34838.got - 2010.06.28 04:59:45.
