data_PCOD8289391
_publ_section_title
;
Structure prediction by ZEFSAII (Michael W. Deem and Ramdas Pophale) SiO2 
 PCOD8289391
Probable space group: I M M M
;
_chemical_formula_sum "Si O2"
_cell_formula_units_Z 104
_cell_length_a 26.519303
_cell_length_b 9.788507
_cell_length_c 22.252101
_cell_angle_alpha 90.000000
_cell_angle_beta 90.000000
_cell_angle_gamma 90.000000
_cell_volume 5776.297910
_symmetry_space_group_name_H-M "I M M M"
_symmetry_group_IT_number 71
_symmetry_cell_setting 'orthorhombic'
loop_
_space_group_symop_operation_xyz
x,y,z
-x,-y,z
x,-y,-z
-x,y,-z
-x,-y,-z
x,y,-z
-x,y,z
x,-y,z
1/2+x,1/2+y,1/2+z
1/2-x,1/2-y,1/2+z
1/2+x,1/2-y,1/2-z
1/2-x,1/2+y,1/2-z
1/2-x,1/2-y,1/2-z
1/2+x,1/2+y,1/2-z
1/2-x,1/2+y,1/2+z
1/2+x,1/2-y,1/2+z
loop_
_atom_site_type_symbol
_atom_site_label
_atom_site_fract_x
_atom_site_fract_y
_atom_site_fract_z
Si Si1 0.195945 0.847595 0.683615
Si Si2 0.440382 0.500000 0.931898
Si Si3 0.558330 0.152843 0.762486
Si Si4 0.244888 0.159027 0.500000
Si Si5 0.637522 0.342206 0.301440
Si Si6 0.605546 0.768658 0.118305
Si Si7 0.150143 0.353436 0.500000
Si Si8 0.797716 0.341931 0.876403
O O1 0.183101 0.836424 0.753801
O O2 0.161668 0.746932 0.644961
O O3 0.254338 0.813376 0.672841
O O4 0.185122 0.000000 0.659440
O O5 0.500000 0.500000 0.934480
O O6 0.421547 0.627023 0.894087
O O7 0.418268 0.500000 0.000000
O O8 0.500000 0.188703 0.754070
O O9 0.588610 0.268130 0.725980
O O10 0.571810 0.151965 0.833223
O O11 0.570196 0.000000 0.737838
O O12 0.191418 0.234735 0.500000
O O13 0.277686 0.198682 0.557889
O O14 0.230864 0.000000 0.500000
O O15 0.624411 0.500000 0.317924
O O16 0.655779 0.258148 0.360157
O O17 0.612331 0.849643 0.056595
O O18 0.178138 0.500000 0.500000
O O19 0.815617 0.500000 0.874577
#
# Coordination Sequence:
#
# PCOD8289391 Si02
#       8
#    16   8  16   8  16  16   8  16
#     4   9  17  30  51  77 102 140 179 221 265 317
#     4  11  22  32  50  76  98 136 194 249 288 326
#     4  10  22  40  59  79 106 142 183 230 284 337
#     4  10  22  36  58  80 110 152 197 230 266 323
#     4  10  21  35  54  82 111 142 178 226 277 328
#     4  11  20  35  53  74 108 142 186 233 283 327
#     4  12  24  34  50  77 110 149 191 238 284 324
#     4  10  19  34  54  79 109 144 186 221 270 324
#
# _framework density 18.004612000000002
#
# number of rings (size 3 to 8) (size 9 to 14) (size 15 to 20)
#    0.000    1.769    3.077    1.846    2.154    0.923 
#    0.000    0.769    0.000    1.846    0.000    0.538 
#    0.000    4.308    0.000    0.000    0.000    0.000 
#
# Total GULP energy -644690.610994 kJ/mol
# GULP energy per Si atom -12397.896365 kJ/mol
# Density = 1.796363 g / cm^3
# Si number density = 18.004612 Si / 1000 Ang^3
#
#
#
# Elastic Constant Matrix: (Units=GPa)
#
#
# Indices 1 2 3 4 5 6 
#
# 1 75.9175 52.7723 38.9772 0.0000 0.0000 0.0000
# 2 52.7723 111.3739 37.4179 0.0000 0.0000 0.0000
# 3 38.9772 37.4179 60.2638 0.0000 0.0000 0.0000
# 4 0.0000 0.0000 0.0000 25.0703 0.0000 0.0000
# 5 0.0000 0.0000 0.0000 0.0000 23.5018 0.0000
# 6 0.0000 0.0000 0.0000 0.0000 0.0000 20.5039
#
#
#
# Elastic Compliance Matrix: (Units=1/GPa)
#
#
# Indices 1 2 3 4 5 6 
#
# 1 0.024127 -0.007821 -0.010749 0.000000 0.000000 0.000000
# 2 -0.007821 0.013881 -0.003560 0.000000 0.000000 0.000000
# 3 -0.010749 -0.003560 0.025756 0.000000 0.000000 0.000000
# 4 0.000000 0.000000 0.000000 0.039888 0.000000 0.000000
# 5 0.000000 0.000000 0.000000 0.000000 0.042550 0.000000
# 6 0.000000 0.000000 0.000000 0.000000 0.000000 0.048771
#
#
# Mechanical properties :
#
#
# Convention : Reuss Voigt Hill
#
# Bulk Modulus (GPa) = 51.27068 56.21000 53.74034
# Shear Modulus (GPa) = 20.34711 21.70772 21.02742
#
# Velocity S-wave (km/s) = 3.36535 3.47605 3.42115
# Velocity P-wave (km/s) = 6.60598 6.88463 6.74675
#
# Compressibility (1/GPa) = 0.01950432
#
# Stress axis : x y z
#
# Youngs Moduli (GPa) = 41.44648 72.04260 38.82535
#
# Poissons Ratio (x) = 0.56345 0.41733
# Poissons Ratio (y) = 0.32415 0.13822
# Poissons Ratio (z) = 0.44551 0.25648
#
# Static dielectric constant tensor:
#      x y z
#    x 3.064210 0.000000 0.000000 
#    y 0.000000 3.335060 0.000000 
#    z 0.000000 0.000000 3.245560 
# 
# 
# High freq. dielectric constant tensor:
#      x y z
#    x 1.675040 0.000000 0.000000 
#    y 0.000000 1.701680 0.000000 
#    z 0.000000 0.000000 1.681090 
# 
# From -- ./inp_files/62041.got.cif
#   From: 2010.06.25/outbox.cif.g09.slc.cpg/sg71_32_cif.got.tgz:62041.got - 2010.06.28 04:59:45.
