data_PCOD8289972
_publ_section_title
;
Structure prediction by ZEFSAII (Michael W. Deem and Ramdas Pophale) SiO2 
 PCOD8289972
Probable space group: I M M M
;
_chemical_formula_sum "Si O2"
_cell_formula_units_Z 72
_cell_length_a 24.480460
_cell_length_b 8.997940
_cell_length_c 16.897413
_cell_angle_alpha 90.000000
_cell_angle_beta 90.000000
_cell_angle_gamma 90.000000
_cell_volume 3722.055855
_symmetry_space_group_name_H-M "I M M M"
_symmetry_group_IT_number 71
_symmetry_cell_setting 'orthorhombic'
loop_
_space_group_symop_operation_xyz
x,y,z
-x,-y,z
x,-y,-z
-x,y,-z
-x,-y,-z
x,y,-z
-x,y,z
x,-y,z
1/2+x,1/2+y,1/2+z
1/2-x,1/2-y,1/2+z
1/2+x,1/2-y,1/2-z
1/2-x,1/2+y,1/2-z
1/2-x,1/2-y,1/2-z
1/2+x,1/2+y,1/2-z
1/2-x,1/2+y,1/2+z
1/2+x,1/2-y,1/2+z
loop_
_atom_site_type_symbol
_atom_site_label
_atom_site_fract_x
_atom_site_fract_y
_atom_site_fract_z
Si Si1 0.640041 0.173340 0.375567
Si Si2 0.563864 0.324314 0.500000
Si Si3 0.844850 0.323563 0.697196
Si Si4 0.560071 0.823296 0.088059
Si Si5 0.762203 0.171420 0.587358
O O1 0.592348 0.260098 0.421152
O O2 0.645982 0.233589 0.285991
O O3 0.697786 0.203398 0.416929
O O4 0.624388 0.000000 0.377207
O O5 0.571055 0.500000 0.500000
O O6 0.500000 0.278886 0.500000
O O7 0.841731 0.500000 0.695681
O O8 0.895229 0.257124 0.647105
O O9 0.789241 0.265423 0.657563
O O10 0.500000 0.770940 0.116099
O O11 0.562976 0.000000 0.087977
O O12 0.571990 0.762825 0.000000
O O13 0.785759 0.213050 0.500000
O O14 0.772927 0.000000 0.607419
#
# Coordination Sequence:
#
# PCOD8289972 Si02
#       5
#    16   8  16  16  16
#     4  10  21  39  59  81 112 148 187 236 289 344
#     4  11  25  43  63  87 113 147 194 245 294 343
#     4  10  20  32  54  86 111 139 189 240 283 337
#     4   8  14  26  44  69 105 141 172 217 271 320
#     4  10  20  35  54  77 114 155 187 226 285 347
#
# _framework density 19.344149000000002
#
# number of rings (size 3 to 8) (size 9 to 14) (size 15 to 20)
#    0.000    2.333    1.111    2.333    0.000    4.889 
#    0.000    2.222    0.000    0.667    0.000    3.111 
#    0.000    0.000    0.000    0.000    0.000    0.000 
#
# Total GULP energy -446295.192323 kJ/mol
# GULP energy per Si atom -12397.088676 kJ/mol
# Density = 1.930012 g / cm^3
# Si number density = 19.344149 Si / 1000 Ang^3
#
#
#
# Elastic Constant Matrix: (Units=GPa)
#
#
# Indices 1 2 3 4 5 6 
#
# 1 107.2873 39.0197 64.3363 0.0000 0.0000 0.0000
# 2 39.0197 42.6231 39.1456 0.0000 0.0000 0.0000
# 3 64.3363 39.1456 148.0730 0.0000 0.0000 0.0000
# 4 0.0000 0.0000 0.0000 25.4850 0.0000 0.0000
# 5 0.0000 0.0000 0.0000 0.0000 23.7113 0.0000
# 6 0.0000 0.0000 0.0000 0.0000 0.0000 24.2373
#
#
#
# Elastic Compliance Matrix: (Units=1/GPa)
#
#
# Indices 1 2 3 4 5 6 
#
# 1 0.015547 -0.010603 -0.003952 0.000000 0.000000 0.000000
# 2 -0.010603 0.038216 -0.005496 0.000000 0.000000 0.000000
# 3 -0.003952 -0.005496 0.009923 0.000000 0.000000 0.000000
# 4 0.000000 0.000000 0.000000 0.039239 0.000000 0.000000
# 5 0.000000 0.000000 0.000000 0.000000 0.042174 0.000000
# 6 0.000000 0.000000 0.000000 0.000000 0.000000 0.041259
#
#
# Mechanical properties :
#
#
# Convention : Reuss Voigt Hill
#
# Bulk Modulus (GPa) = 42.40145 64.77629 53.58887
# Shear Modulus (GPa) = 21.33828 25.05217 23.19523
#
# Velocity S-wave (km/s) = 3.32488 3.60262 3.46653
# Velocity P-wave (km/s) = 6.05862 7.13191 6.61706
#
# Compressibility (1/GPa) = 0.02358410
#
# Stress axis : x y z
#
# Youngs Moduli (GPa) = 64.32193 26.16726 100.77149
#
# Poissons Ratio (x) = 0.27745 0.39823
# Poissons Ratio (y) = 0.68201 0.55385
# Poissons Ratio (z) = 0.25419 0.14382
#
# Static dielectric constant tensor:
#      x y z
#    x 3.656380 0.000000 0.000000 
#    y 0.000000 3.132890 0.000000 
#    z 0.000000 0.000000 3.819910 
# 
# 
# High freq. dielectric constant tensor:
#      x y z
#    x 1.757110 0.000000 0.000000 
#    y 0.000000 1.713730 0.000000 
#    z 0.000000 0.000000 1.767190 
# 
# From -- ./inp_files/12173.got.cif
#   From: 2010.06.25/outbox.cif.g09.slc.cpg/sg71_7_cif.got.tgz:12173.got - 2010.06.28 04:59:45.
