data_PCOD8289830
_publ_section_title
;
Structure prediction by ZEFSAII (Michael W. Deem and Ramdas Pophale) SiO2 
 PCOD8289830
Probable space group: I M M M
;
_chemical_formula_sum "Si O2"
_cell_formula_units_Z 104
_cell_length_a 9.184910
_cell_length_b 27.126746
_cell_length_c 24.111355
_cell_angle_alpha 90.000000
_cell_angle_beta 90.000000
_cell_angle_gamma 90.000000
_cell_volume 6007.506141
_symmetry_space_group_name_H-M "I M M M"
_symmetry_group_IT_number 71
_symmetry_cell_setting 'orthorhombic'
loop_
_space_group_symop_operation_xyz
x,y,z
-x,-y,z
x,-y,-z
-x,y,-z
-x,-y,-z
x,y,-z
-x,y,z
x,-y,z
1/2+x,1/2+y,1/2+z
1/2-x,1/2-y,1/2+z
1/2+x,1/2-y,1/2-z
1/2-x,1/2+y,1/2-z
1/2-x,1/2-y,1/2-z
1/2+x,1/2+y,1/2-z
1/2-x,1/2+y,1/2+z
1/2+x,1/2-y,1/2+z
loop_
_atom_site_type_symbol
_atom_site_label
_atom_site_fract_x
_atom_site_fract_y
_atom_site_fract_z
Si Si1 0.167673 0.058030 0.332846
Si Si2 0.830313 0.772346 0.302211
Si Si3 0.671912 0.862797 0.728502
Si Si4 0.327379 0.500000 0.438326
Si Si5 0.337122 0.941515 0.439003
Si Si6 0.834028 0.327727 0.350939
Si Si7 0.828563 0.893416 0.935793
O O1 0.263119 0.083515 0.284870
O O2 0.224205 0.077102 0.392746
O O3 0.000000 0.073210 0.327050
O O4 0.190409 0.000000 0.325640
O O5 0.750000 0.750000 0.250000
O O6 0.750329 0.824281 0.314196
O O7 0.813450 0.731899 0.351348
O O8 0.000000 0.781198 0.288816
O O9 0.500000 0.861073 0.718558
O O10 0.713869 0.850131 0.791681
O O11 0.500000 0.500000 0.441497
O O12 0.263086 0.500000 0.500000
O O13 0.277867 0.447629 0.411256
O O14 0.290064 0.921640 0.500000
O O15 0.500000 0.922629 0.424403
O O16 0.337108 0.000000 0.440286
O O17 0.740637 0.350045 0.400301
O O18 0.000000 0.341962 0.362396
O O19 0.000000 0.887896 0.930373
O O20 0.780877 0.888092 0.000000
#
# Coordination Sequence:
#
# PCOD8289830 Si02
#       7
#    16  16  16   8  16  16  16
#     4  10  20  32  47  70 100 132 165 200 241 290
#     4   9  17  31  51  73  96 120 154 198 241 289
#     4  10  20  34  51  71  97 131 168 204 249 298
#     4   7  12  26  45  65  91 123 161 201 238 277
#     4   8  14  26  45  67  90 120 158 195 231 274
#     4   9  19  33  49  73  99 124 157 199 250 300
#     4   9  17  30  50  73  97 129 168 208 248 293
#
# _framework density 17.311675000000001
#
# number of rings (size 3 to 8) (size 9 to 14) (size 15 to 20)
#    0.000    3.000    0.000    3.692    0.000    5.231 
#    1.385    1.923    0.000    2.308    0.000    4.308 
#    0.000    0.000    0.000    0.000    0.000    0.000 
#
# Total GULP energy -644237.628649 kJ/mol
# GULP energy per Si atom -12389.185166 kJ/mol
# Density = 1.727227 g / cm^3
# Si number density = 17.311675 Si / 1000 Ang^3
#
#
#
# Elastic Constant Matrix: (Units=GPa)
#
#
# Indices 1 2 3 4 5 6 
#
# 1 90.3760 46.8701 42.1636 0.0000 0.0000 0.0000
# 2 46.8701 76.7174 40.8186 0.0000 0.0000 0.0000
# 3 42.1636 40.8186 68.7664 0.0000 0.0000 0.0000
# 4 0.0000 0.0000 0.0000 23.6305 0.0000 0.0000
# 5 0.0000 0.0000 0.0000 0.0000 29.0683 0.0000
# 6 0.0000 0.0000 0.0000 0.0000 0.0000 28.7896
#
#
#
# Elastic Compliance Matrix: (Units=1/GPa)
#
#
# Indices 1 2 3 4 5 6 
#
# 1 0.018039 -0.007507 -0.006605 0.000000 0.000000 0.000000
# 2 -0.007507 0.022176 -0.008560 0.000000 0.000000 0.000000
# 3 -0.006605 -0.008560 0.023673 0.000000 0.000000 0.000000
# 4 0.000000 0.000000 0.000000 0.042318 0.000000 0.000000
# 5 0.000000 0.000000 0.000000 0.000000 0.034402 0.000000
# 6 0.000000 0.000000 0.000000 0.000000 0.000000 0.034735
#
#
# Mechanical properties :
#
#
# Convention : Reuss Voigt Hill
#
# Bulk Modulus (GPa) = 53.92562 55.06272 54.49417
# Shear Modulus (GPa) = 22.03920 23.36485 22.70203
#
# Velocity S-wave (km/s) = 3.57190 3.67776 3.62521
# Velocity P-wave (km/s) = 6.94469 7.06472 7.00496
#
# Compressibility (1/GPa) = 0.01854406
#
# Stress axis : x y z
#
# Youngs Moduli (GPa) = 55.43410 45.09401 42.24229
#
# Poissons Ratio (x) = 0.33852 0.27900
# Poissons Ratio (y) = 0.41614 0.36161
# Poissons Ratio (z) = 0.36613 0.38602
#
# Static dielectric constant tensor:
#      x y z
#    x 3.241610 0.000000 0.000000 
#    y 0.000000 2.587980 0.000000 
#    z 0.000000 0.000000 2.974730 
# 
# 
# High freq. dielectric constant tensor:
#      x y z
#    x 1.668010 0.000000 0.000000 
#    y 0.000000 1.661830 0.000000 
#    z 0.000000 0.000000 1.637970 
# 
# From -- ./inp_files/57977.got.cif
#   From: 2010.06.25/outbox.cif.g09.slc.cpg/sg71_29_cif.got.tgz:57977.got - 2010.06.28 04:59:45.
