data_PCOD8289288
_publ_section_title
;
Structure prediction by ZEFSAII (Michael W. Deem and Ramdas Pophale) SiO2 
 PCOD8289288
Probable space group: I M M M
;
_chemical_formula_sum "Si O2"
_cell_formula_units_Z 88
_cell_length_a 27.785403
_cell_length_b 13.507802
_cell_length_c 11.942659
_cell_angle_alpha 90.000000
_cell_angle_beta 90.000000
_cell_angle_gamma 90.000000
_cell_volume 4482.315458
_symmetry_space_group_name_H-M "I M M M"
_symmetry_group_IT_number 71
_symmetry_cell_setting 'orthorhombic'
loop_
_space_group_symop_operation_xyz
x,y,z
-x,-y,z
x,-y,-z
-x,y,-z
-x,-y,-z
x,y,-z
-x,y,z
x,-y,z
1/2+x,1/2+y,1/2+z
1/2-x,1/2-y,1/2+z
1/2+x,1/2-y,1/2-z
1/2-x,1/2+y,1/2-z
1/2-x,1/2-y,1/2-z
1/2+x,1/2+y,1/2-z
1/2-x,1/2+y,1/2+z
1/2+x,1/2-y,1/2+z
loop_
_atom_site_type_symbol
_atom_site_label
_atom_site_fract_x
_atom_site_fract_y
_atom_site_fract_z
Si Si1 0.182797 0.188782 0.375451
Si Si2 0.053655 0.711980 0.370138
Si Si3 0.217141 0.612745 0.876189
Si Si4 0.853548 0.388173 0.683320
Si Si5 0.054700 0.883631 0.000000
Si Si6 0.906159 0.115606 0.759768
O O1 0.177086 0.139891 0.500000
O O2 0.237242 0.175386 0.331321
O O3 0.171869 0.305663 0.393342
O O4 0.147921 0.140353 0.282135
O O5 0.067727 0.720799 0.500000
O O6 0.089396 0.634024 0.310419
O O7 0.057559 0.821293 0.317044
O O8 0.000000 0.670827 0.354044
O O9 0.234603 0.500000 0.873049
O O10 0.168871 0.627640 0.805731
O O11 0.203010 0.647880 0.000000
O O12 0.844800 0.500000 0.638005
O O13 0.084971 0.852015 0.889255
O O14 0.000000 0.837958 0.000000
O O15 0.048973 0.000000 0.000000
O O16 0.917373 0.000000 0.742570
#
# Coordination Sequence:
#
# PCOD8289288 Si02
#       6
#    16  16  16  16   8  16
#     4  10  20  34  54  84 117 144 178 222 269 323
#     4  10  22  38  55  79 108 137 179 231 278 326
#     4   9  18  34  57  82 109 143 178 216 269 329
#     4  10  20  35  55  77 107 144 183 224 266 318
#     4   9  18  32  50  72 103 147 189 219 255 315
#     4  10  19  33  55  81 112 146 180 218 267 325
#
# _framework density 19.632712000000001
#
# number of rings (size 3 to 8) (size 9 to 14) (size 15 to 20)
#    0.000    2.273    0.000    3.818    0.000    5.091 
#    6.545    1.818    4.000    0.000    0.000    2.545 
#    0.000    0.000    0.000    0.000    0.000    0.000 
#
# Total GULP energy -545212.004692 kJ/mol
# GULP energy per Si atom -12391.181925 kJ/mol
# Density = 1.958803 g / cm^3
# Si number density = 19.632712 Si / 1000 Ang^3
#
#
#
# Elastic Constant Matrix: (Units=GPa)
#
#
# Indices 1 2 3 4 5 6 
#
# 1 137.8720 45.4740 85.7038 0.0000 0.0000 0.0000
# 2 45.4740 77.9445 25.7612 0.0000 0.0000 0.0000
# 3 85.7038 25.7612 120.0653 0.0000 0.0000 0.0000
# 4 0.0000 0.0000 0.0000 23.7600 0.0000 0.0000
# 5 0.0000 0.0000 0.0000 0.0000 36.2707 0.0000
# 6 0.0000 0.0000 0.0000 0.0000 0.0000 21.6883
#
#
#
# Elastic Compliance Matrix: (Units=1/GPa)
#
#
# Indices 1 2 3 4 5 6 
#
# 1 0.015023 -0.005619 -0.009518 0.000000 0.000000 0.000000
# 2 -0.005619 0.015910 0.000597 0.000000 0.000000 0.000000
# 3 -0.009518 0.000597 0.014995 0.000000 0.000000 0.000000
# 4 0.000000 0.000000 0.000000 0.042088 0.000000 0.000000
# 5 0.000000 0.000000 0.000000 0.000000 0.027570 0.000000
# 6 0.000000 0.000000 0.000000 0.000000 0.000000 0.046108
#
#
# Mechanical properties :
#
#
# Convention : Reuss Voigt Hill
#
# Bulk Modulus (GPa) = 59.35215 72.19551 65.77383
# Shear Modulus (GPa) = 25.45965 28.27332 26.86649
#
# Velocity S-wave (km/s) = 3.60501 3.79900 3.70328
# Velocity P-wave (km/s) = 6.90109 7.48973 7.20143
#
# Compressibility (1/GPa) = 0.01684859
#
# Stress axis : x y z
#
# Youngs Moduli (GPa) = 66.56535 62.85188 66.69046
#
# Poissons Ratio (x) = 0.35315 0.63475
# Poissons Ratio (y) = 0.37402 -0.03982
# Poissons Ratio (z) = 0.63356 -0.03752
#
# Static dielectric constant tensor:
#      x y z
#    x 3.591260 0.000000 0.000000 
#    y 0.000000 3.554040 0.000000 
#    z 0.000000 0.000000 3.688820 
# 
# 
# High freq. dielectric constant tensor:
#      x y z
#    x 1.764680 0.000000 0.000000 
#    y 0.000000 1.751380 0.000000 
#    z 0.000000 0.000000 1.763160 
# 
# From -- ./inp_files/29887.got.cif
#   From: 2010.06.25/outbox.cif.g09.slc.cpg/sg71_15_cif.got.tgz:29887.got - 2010.06.28 04:59:45.
