data_PCOD8289487
_publ_section_title
;
Structure prediction by ZEFSAII (Michael W. Deem and Ramdas Pophale) SiO2 
 PCOD8289487
Probable space group: I M M M
;
_chemical_formula_sum "Si O2"
_cell_formula_units_Z 104
_cell_length_a 23.519600
_cell_length_b 8.922144
_cell_length_c 26.326280
_cell_angle_alpha 90.000000
_cell_angle_beta 90.000000
_cell_angle_gamma 90.000000
_cell_volume 5524.445019
_symmetry_space_group_name_H-M "I M M M"
_symmetry_group_IT_number 71
_symmetry_cell_setting 'orthorhombic'
loop_
_space_group_symop_operation_xyz
x,y,z
-x,-y,z
x,-y,-z
-x,y,-z
-x,-y,-z
x,y,-z
-x,y,z
x,-y,z
1/2+x,1/2+y,1/2+z
1/2-x,1/2-y,1/2+z
1/2+x,1/2-y,1/2-z
1/2-x,1/2+y,1/2-z
1/2-x,1/2-y,1/2-z
1/2+x,1/2+y,1/2-z
1/2-x,1/2+y,1/2+z
1/2+x,1/2-y,1/2+z
loop_
_atom_site_type_symbol
_atom_site_label
_atom_site_fract_x
_atom_site_fract_y
_atom_site_fract_z
Si Si1 0.865140 0.322764 0.406394
Si Si2 0.240627 0.822330 0.940937
Si Si3 0.935485 0.824000 0.204936
Si Si4 0.562133 0.336361 0.441074
Si Si5 0.563977 0.675626 0.821733
Si Si6 0.063036 0.678682 0.500000
Si Si7 0.856936 0.673307 0.123120
O O1 0.867640 0.500000 0.402048
O O2 0.802341 0.269738 0.421878
O O3 0.886716 0.256070 0.353449
O O4 0.906256 0.259983 0.450061
O O5 0.199461 0.751403 0.898620
O O6 0.234330 0.000000 0.939165
O O7 0.229888 0.769389 0.000000
O O8 0.923778 0.784715 0.263350
O O9 0.884856 0.745338 0.173435
O O10 0.000000 0.770144 0.190631
O O11 0.930871 0.000000 0.194852
O O12 0.556451 0.315504 0.500000
O O13 0.500000 0.333007 0.415698
O O14 0.590306 0.500000 0.428395
O O15 0.597101 0.196345 0.421008
O O16 0.500000 0.730685 0.836515
O O17 0.568516 0.500000 0.831112
O O18 0.064070 0.500000 0.500000
O O19 0.000000 0.744648 0.500000
O O20 0.844386 0.500000 0.133210
#
# Coordination Sequence:
#
# PCOD8289487 Si02
#       7
#    16  16  16  16  16   8  16
#     4  10  19  34  57  85 112 144 186 228 270 317
#     4  10  21  39  59  77 105 149 197 233 265 320
#     4   9  19  38  61  81 106 145 188 226 270 330
#     4   9  18  33  52  73  99 135 177 218 267 332
#     4   9  19  36  58  85 116 147 178 217 272 335
#     4   9  16  28  51  85 119 143 170 215 268 321
#     4  12  24  34  50  79 109 138 180 232 285 331
#
# _framework density 18.825420999999999
#
# number of rings (size 3 to 8) (size 9 to 14) (size 15 to 20)
#    0.000    2.231    0.769    4.154    0.000    7.077 
#    0.000    3.462    0.000    1.385    0.000    0.000 
#    0.000    0.000    0.000    0.000    0.000    0.000 
#
# Total GULP energy -644322.859058 kJ/mol
# GULP energy per Si atom -12390.824213 kJ/mol
# Density = 1.878257 g / cm^3
# Si number density = 18.825421 Si / 1000 Ang^3
#
#
#
# Elastic Constant Matrix: (Units=GPa)
#
#
# Indices 1 2 3 4 5 6 
#
# 1 132.4462 36.4884 72.2620 0.0000 0.0000 0.0000
# 2 36.4884 47.1556 36.5649 0.0000 0.0000 0.0000
# 3 72.2620 36.5649 121.4449 0.0000 0.0000 0.0000
# 4 0.0000 0.0000 0.0000 29.7247 0.0000 0.0000
# 5 0.0000 0.0000 0.0000 0.0000 39.1860 0.0000
# 6 0.0000 0.0000 0.0000 0.0000 0.0000 17.3598
#
#
#
# Elastic Compliance Matrix: (Units=1/GPa)
#
#
# Indices 1 2 3 4 5 6 
#
# 1 0.011984 -0.004884 -0.005660 0.000000 0.000000 0.000000
# 2 -0.004884 0.029656 -0.006023 0.000000 0.000000 0.000000
# 3 -0.005660 -0.006023 0.013415 0.000000 0.000000 0.000000
# 4 0.000000 0.000000 0.000000 0.033642 0.000000 0.000000
# 5 0.000000 0.000000 0.000000 0.000000 0.025519 0.000000
# 6 0.000000 0.000000 0.000000 0.000000 0.000000 0.057604
#
#
# Mechanical properties :
#
#
# Convention : Reuss Voigt Hill
#
# Bulk Modulus (GPa) = 45.61797 65.74192 55.67994
# Shear Modulus (GPa) = 23.55584 27.63620 25.59602
#
# Velocity S-wave (km/s) = 3.54118 3.83564 3.69135
# Velocity P-wave (km/s) = 6.40349 7.39012 6.91442
#
# Compressibility (1/GPa) = 0.02192119
#
# Stress axis : x y z
#
# Youngs Moduli (GPa) = 83.44500 33.72036 74.54119
#
# Poissons Ratio (x) = 0.16469 0.42191
# Poissons Ratio (y) = 0.40755 0.44894
# Poissons Ratio (z) = 0.47231 0.20309
#
# Static dielectric constant tensor:
#      x y z
#    x 3.690350 0.000000 0.000000 
#    y 0.000000 3.173420 0.000000 
#    z 0.000000 0.000000 3.526820 
# 
# 
# High freq. dielectric constant tensor:
#      x y z
#    x 1.732560 0.000000 0.000000 
#    y 0.000000 1.703390 0.000000 
#    z 0.000000 0.000000 1.737900 
# 
# From -- ./inp_files/66790.got.cif
#   From: 2010.06.25/outbox.cif.g09.slc.cpg/sg71_34_cif.got.tgz:66790.got - 2010.06.28 04:59:45.
