data_PCOD8289601
_publ_section_title
;
Structure prediction by ZEFSAII (Michael W. Deem and Ramdas Pophale) SiO2 
 PCOD8289601
Probable space group: I M M M
;
_chemical_formula_sum "Si O2"
_cell_formula_units_Z 64
_cell_length_a 16.680949
_cell_length_b 22.338724
_cell_length_c 8.707262
_cell_angle_alpha 90.000000
_cell_angle_beta 90.000000
_cell_angle_gamma 90.000000
_cell_volume 3244.596754
_symmetry_space_group_name_H-M "I M M M"
_symmetry_group_IT_number 71
_symmetry_cell_setting 'orthorhombic'
loop_
_space_group_symop_operation_xyz
x,y,z
-x,-y,z
x,-y,-z
-x,y,-z
-x,-y,-z
x,y,-z
-x,y,z
x,-y,z
1/2+x,1/2+y,1/2+z
1/2-x,1/2-y,1/2+z
1/2+x,1/2-y,1/2-z
1/2-x,1/2+y,1/2-z
1/2-x,1/2-y,1/2-z
1/2+x,1/2+y,1/2-z
1/2-x,1/2+y,1/2+z
1/2+x,1/2-y,1/2+z
loop_
_atom_site_type_symbol
_atom_site_label
_atom_site_fract_x
_atom_site_fract_y
_atom_site_fract_z
Si Si1 0.409913 0.767289 0.682393
Si Si2 0.178497 0.385570 0.818142
Si Si3 0.907253 0.500000 0.319317
Si Si4 0.346709 0.359467 0.682184
Si Si5 0.500000 0.566975 0.317645
O O1 0.414824 0.767830 0.500000
O O2 0.500000 0.766356 0.750508
O O3 0.363957 0.825486 0.745130
O O4 0.361527 0.708685 0.736816
O O5 0.133062 0.441612 0.749334
O O6 0.269856 0.386366 0.765090
O O7 0.173897 0.389079 0.000000
O O8 0.894598 0.500000 0.500000
O O9 0.000000 0.500000 0.272343
O O10 0.335181 0.363719 0.500000
O O11 0.421385 0.398706 0.740409
O O12 0.500000 0.500000 0.249639
O O13 0.500000 0.565943 0.500000
#
# Coordination Sequence:
#
# PCOD8289601 Si02
#       5
#    16  16   8  16   8
#     4   9  17  33  57  84 114 155 202 244 287 341
#     4  11  23  37  58  87 121 155 191 239 299 356
#     4  11  25  45  65  86 113 148 195 243 290 347
#     4  10  19  35  59  85 116 154 202 248 284 337
#     4   9  18  32  55  85 113 150 200 245 285 334
#
# _framework density 19.725100999999999
#
# number of rings (size 3 to 8) (size 9 to 14) (size 15 to 20)
#    0.000    2.000    1.250    2.625    1.750    2.000 
#    0.000    1.875    0.000    3.750    0.000    0.000 
#    0.000    0.000    0.000    0.000    0.000    0.000 
#
# Total GULP energy -396881.872131 kJ/mol
# GULP energy per Si atom -12402.558504 kJ/mol
# Density = 1.968021 g / cm^3
# Si number density = 19.725101 Si / 1000 Ang^3
#
#
#
# Elastic Constant Matrix: (Units=GPa)
#
#
# Indices 1 2 3 4 5 6 
#
# 1 178.7858 96.3155 50.8421 0.0000 0.0000 0.0000
# 2 96.3155 199.7125 44.0863 0.0000 0.0000 0.0000
# 3 50.8421 44.0863 35.4396 0.0000 0.0000 0.0000
# 4 0.0000 0.0000 0.0000 -13.7981 0.0000 0.0000
# 5 0.0000 0.0000 0.0000 0.0000 18.9098 0.0000
# 6 0.0000 0.0000 0.0000 0.0000 0.0000 37.5530
#
#
#
# Elastic Compliance Matrix: (Units=1/GPa)
#
#
# Indices 1 2 3 4 5 6 
#
# 1 0.010173 -0.002322 -0.011706 0.000000 0.000000 0.000000
# 2 -0.002322 0.007433 -0.005915 0.000000 0.000000 0.000000
# 3 -0.011706 -0.005915 0.052368 0.000000 0.000000 0.000000
# 4 0.000000 0.000000 0.000000 -0.072474 0.000000 0.000000
# 5 0.000000 0.000000 0.000000 0.000000 0.052883 0.000000
# 6 0.000000 0.000000 0.000000 0.000000 0.000000 0.026629
#
#
# Mechanical properties :
#
#
# Convention : Reuss Voigt Hill
#
# Bulk Modulus (GPa) = 33.23521 88.49174 60.86348
# Shear Modulus (GPa) = 39.39276 23.37921 31.38599
#
# Velocity S-wave (km/s) = 4.47373 3.44648 3.99327
# Velocity P-wave (km/s) = 6.60087 7.79728 7.22388
#
# Compressibility (1/GPa) = 0.03008857
#
# Stress axis : x y z
#
# Youngs Moduli (GPa) = 98.29872 134.53864 19.09558
#
# Poissons Ratio (x) = 0.31242 0.22353
# Poissons Ratio (y) = 0.22827 0.11295
# Poissons Ratio (z) = 1.15065 0.79578
#
# Static dielectric constant tensor:
#      x y z
#    x 3.745820 0.000000 0.000000 
#    y 0.000000 3.900330 0.000000 
#    z 0.000000 0.000000 3.187790 
# 
# 
# High freq. dielectric constant tensor:
#      x y z
#    x 1.786620 0.000000 0.000000 
#    y 0.000000 1.787290 0.000000 
#    z 0.000000 0.000000 1.729500 
# 
# From -- ./inp_files/5512.got.cif
#   From: 2010.06.25/outbox.cif.g09.slc.cpg/sg71_3_cif.got.tgz:5512.got - 2010.06.28 04:59:45.
