data_PCOD8289790
_publ_section_title
;
Structure prediction by ZEFSAII (Michael W. Deem and Ramdas Pophale) SiO2 
 PCOD8289790
Probable space group: I M M M
;
_chemical_formula_sum "Si O2"
_cell_formula_units_Z 112
_cell_length_a 15.108902
_cell_length_b 13.357578
_cell_length_c 32.698849
_cell_angle_alpha 90.000000
_cell_angle_beta 90.000000
_cell_angle_gamma 90.000000
_cell_volume 6599.227326
_symmetry_space_group_name_H-M "I M M M"
_symmetry_group_IT_number 71
_symmetry_cell_setting 'orthorhombic'
loop_
_space_group_symop_operation_xyz
x,y,z
-x,-y,z
x,-y,-z
-x,y,-z
-x,-y,-z
x,y,-z
-x,y,z
x,-y,z
1/2+x,1/2+y,1/2+z
1/2-x,1/2-y,1/2+z
1/2+x,1/2-y,1/2-z
1/2-x,1/2+y,1/2-z
1/2-x,1/2-y,1/2-z
1/2+x,1/2+y,1/2-z
1/2-x,1/2+y,1/2+z
1/2+x,1/2-y,1/2+z
loop_
_atom_site_type_symbol
_atom_site_label
_atom_site_fract_x
_atom_site_fract_y
_atom_site_fract_z
Si Si1 0.104475 0.388868 0.265363
Si Si2 0.397966 0.765294 0.841409
Si Si3 0.402160 0.118872 0.674876
Si Si4 0.601033 0.885096 0.922398
Si Si5 0.753346 0.248497 0.546514
Si Si6 0.098324 0.888694 0.048517
Si Si7 0.762568 0.118179 0.622341
O O1 0.146511 0.500000 0.271224
O O2 0.140791 0.312416 0.299547
O O3 0.126495 0.344841 0.220334
O O4 0.000000 0.398491 0.271090
O O5 0.500000 0.732096 0.837161
O O6 0.386120 0.849714 0.875917
O O7 0.342536 0.666696 0.852310
O O8 0.500000 0.161356 0.663221
O O9 0.330364 0.154571 0.641847
O O10 0.407396 0.000000 0.676271
O O11 0.500000 0.871455 0.936653
O O12 0.660669 0.819294 0.952660
O O13 0.630866 0.000000 0.925512
O O14 0.737832 0.212062 0.500000
O O15 0.670222 0.310268 0.564902
O O16 0.765622 0.151662 0.575012
O O17 0.000000 0.853899 0.062085
O O18 0.117877 0.000000 0.066053
O O19 0.104936 0.892761 0.000000
O O20 0.774712 0.000000 0.624404
#
# Coordination Sequence:
#
# PCOD8289790 Si02
#       7
#    16  16  16  16  16  16  16
#     4   8  13  24  46  74  99 119 139 169 214 269
#     4   9  17  29  46  69  95 121 149 179 213 262
#     4   8  15  29  48  69  92 116 143 179 223 268
#     4   9  17  29  46  69  96 120 139 170 224 282
#     4  10  20  32  46  64  86 115 155 198 233 269
#     4   8  14  26  45  68  91 111 132 166 218 279
#     4  10  21  34  46  62  86 120 161 199 233 262
#
# _framework density 16.971685000000001
#
# number of rings (size 3 to 8) (size 9 to 14) (size 15 to 20)
#    0.000    3.143    0.000    2.143    0.000    4.571 
#    0.000    0.714    0.000    0.000    0.000    9.000 
#    0.000    2.286    0.000    0.000    0.000    0.000 
#
# Total GULP energy -694134.031605 kJ/mol
# GULP energy per Si atom -12395.250564 kJ/mol
# Density = 1.693306 g / cm^3
# Si number density = 16.971685 Si / 1000 Ang^3
#
#
#
# Elastic Constant Matrix: (Units=GPa)
#
#
# Indices 1 2 3 4 5 6 
#
# 1 81.3121 39.4161 36.0873 0.0000 0.0000 0.0000
# 2 39.4161 79.3651 39.8803 0.0000 0.0000 0.0000
# 3 36.0873 39.8803 85.9804 0.0000 0.0000 0.0000
# 4 0.0000 0.0000 0.0000 16.2814 0.0000 0.0000
# 5 0.0000 0.0000 0.0000 0.0000 20.7997 0.0000
# 6 0.0000 0.0000 0.0000 0.0000 0.0000 22.0511
#
#
#
# Elastic Compliance Matrix: (Units=1/GPa)
#
#
# Indices 1 2 3 4 5 6 
#
# 1 0.017326 -0.006455 -0.004278 0.000000 0.000000 0.000000
# 2 -0.006455 0.018834 -0.006027 0.000000 0.000000 0.000000
# 3 -0.004278 -0.006027 0.016221 0.000000 0.000000 0.000000
# 4 0.000000 0.000000 0.000000 0.061420 0.000000 0.000000
# 5 0.000000 0.000000 0.000000 0.000000 0.048078 0.000000
# 6 0.000000 0.000000 0.000000 0.000000 0.000000 0.045349
#
#
# Mechanical properties :
#
#
# Convention : Reuss Voigt Hill
#
# Bulk Modulus (GPa) = 53.01575 53.04723 53.03149
# Shear Modulus (GPa) = 20.24005 20.57804 20.40904
#
# Velocity S-wave (km/s) = 3.45712 3.48586 3.47152
# Velocity P-wave (km/s) = 6.87322 6.89390 6.88357
#
# Compressibility (1/GPa) = 0.01886232
#
# Stress axis : x y z
#
# Youngs Moduli (GPa) = 57.71658 53.09481 61.64725
#
# Poissons Ratio (x) = 0.34274 0.26372
# Poissons Ratio (y) = 0.37258 0.37152
# Poissons Ratio (z) = 0.24690 0.31998
#
# Static dielectric constant tensor:
#      x y z
#    x 3.319240 0.000000 0.000000 
#    y 0.000000 2.947820 0.000000 
#    z 0.000000 0.000000 3.121300 
# 
# 
# High freq. dielectric constant tensor:
#      x y z
#    x 1.649600 0.000000 0.000000 
#    y 0.000000 1.628470 0.000000 
#    z 0.000000 0.000000 1.644860 
# 
# From -- ./inp_files/65504.got.cif
#   From: 2010.06.25/outbox.cif.g09.slc.cpg/sg71_33_cif.got.tgz:65504.got - 2010.06.28 04:59:45.
