data_PCOD8289888
_publ_section_title
;
Structure prediction by ZEFSAII (Michael W. Deem and Ramdas Pophale) SiO2 
 PCOD8289888
Probable space group: I M M M
;
_chemical_formula_sum "Si O2"
_cell_formula_units_Z 104
_cell_length_a 9.168707
_cell_length_b 29.760447
_cell_length_c 22.263987
_cell_angle_alpha 90.000000
_cell_angle_beta 90.000000
_cell_angle_gamma 90.000000
_cell_volume 6075.058777
_symmetry_space_group_name_H-M "I M M M"
_symmetry_group_IT_number 71
_symmetry_cell_setting 'orthorhombic'
loop_
_space_group_symop_operation_xyz
x,y,z
-x,-y,z
x,-y,-z
-x,y,-z
-x,-y,-z
x,y,-z
-x,y,z
x,-y,z
1/2+x,1/2+y,1/2+z
1/2-x,1/2-y,1/2+z
1/2+x,1/2-y,1/2-z
1/2-x,1/2+y,1/2-z
1/2-x,1/2-y,1/2-z
1/2+x,1/2+y,1/2-z
1/2-x,1/2+y,1/2+z
1/2+x,1/2-y,1/2+z
loop_
_atom_site_type_symbol
_atom_site_label
_atom_site_fract_x
_atom_site_fract_y
_atom_site_fract_z
Si Si1 0.166864 0.052108 0.285369
Si Si2 0.667324 0.448176 0.352788
Si Si3 0.668747 0.446800 0.000000
Si Si4 0.837087 0.209774 0.071617
Si Si5 0.672548 0.193263 0.433502
Si Si6 0.327431 0.901305 0.610919
Si Si7 0.329456 0.876888 0.930588
O O1 0.196841 0.064192 0.216325
O O2 0.276932 0.081481 0.324473
O O3 0.000000 0.063224 0.302718
O O4 0.198783 0.000000 0.297636
O O5 0.500000 0.438343 0.369459
O O6 0.705250 0.500000 0.364556
O O7 0.770389 0.419229 0.394731
O O8 0.746735 0.428499 0.059097
O O9 0.683542 0.500000 0.000000
O O10 0.500000 0.431899 0.000000
O O11 0.773683 0.258518 0.093365
O O12 0.736908 0.169398 0.095602
O O13 0.000000 0.201397 0.096640
O O14 0.838527 0.211038 0.000000
O O15 0.738869 0.184538 0.500000
O O16 0.500000 0.197049 0.439443
O O17 0.716872 0.151399 0.391773
O O18 0.500000 0.908073 0.602984
O O19 0.500000 0.874060 0.921195
O O20 0.286117 0.883309 0.000000
#
# Coordination Sequence:
#
# PCOD8289888 Si02
#       7
#    16  16   8  16  16  16  16
#     4   9  19  36  53  69  94 128 166 207 248 291
#     4   9  19  36  56  74  94 128 172 207 233 279
#     4  11  23  35  45  63  97 137 171 207 254 301
#     4   8  14  27  49  70  92 129 168 195 229 286
#     4   8  14  27  46  69  97 126 159 203 248 288
#     4  11  20  31  50  74  99 126 163 211 256 301
#     4  10  20  32  48  76 111 134 151 190 248 295
#
# _framework density 17.119176
#
# number of rings (size 3 to 8) (size 9 to 14) (size 15 to 20)
#    0.000    2.692    0.769    3.462    0.000    4.923 
#    0.000    4.615    0.000    0.923    0.000    0.000 
#    0.000    0.000    0.000    0.000    0.000    0.000 
#
# Total GULP energy -644610.369280 kJ/mol
# GULP energy per Si atom -12396.353255 kJ/mol
# Density = 1.708021 g / cm^3
# Si number density = 17.119176 Si / 1000 Ang^3
#
#
#
# Elastic Constant Matrix: (Units=GPa)
#
#
# Indices 1 2 3 4 5 6 
#
# 1 78.6428 58.8385 43.4156 0.0000 0.0000 0.0000
# 2 58.8385 126.2270 55.9056 0.0000 0.0000 0.0000
# 3 43.4156 55.9056 62.2004 0.0000 0.0000 0.0000
# 4 0.0000 0.0000 0.0000 13.5058 0.0000 0.0000
# 5 0.0000 0.0000 0.0000 0.0000 27.1890 0.0000
# 6 0.0000 0.0000 0.0000 0.0000 0.0000 21.5599
#
#
#
# Elastic Compliance Matrix: (Units=1/GPa)
#
#
# Indices 1 2 3 4 5 6 
#
# 1 0.023164 -0.006042 -0.010738 0.000000 0.000000 0.000000
# 2 -0.006042 0.014737 -0.009029 0.000000 0.000000 0.000000
# 3 -0.010738 -0.009029 0.031687 0.000000 0.000000 0.000000
# 4 0.000000 0.000000 0.000000 0.074042 0.000000 0.000000
# 5 0.000000 0.000000 0.000000 0.000000 0.036780 0.000000
# 6 0.000000 0.000000 0.000000 0.000000 0.000000 0.046383
#
#
# Mechanical properties :
#
#
# Convention : Reuss Voigt Hill
#
# Bulk Modulus (GPa) = 55.64390 64.82107 60.23249
# Shear Modulus (GPa) = 17.58081 19.71162 18.64621
#
# Velocity S-wave (km/s) = 3.20811 3.39696 3.30388
# Velocity P-wave (km/s) = 6.80419 7.30292 7.05796
#
# Compressibility (1/GPa) = 0.01797142
#
# Stress axis : x y z
#
# Youngs Moduli (GPa) = 43.17030 67.85520 31.55824
#
# Poissons Ratio (x) = 0.40995 0.33888
# Poissons Ratio (y) = 0.26082 0.28493
# Poissons Ratio (z) = 0.46357 0.61265
#
# Static dielectric constant tensor:
#      x y z
#    x 3.100260 0.000000 0.000000 
#    y 0.000000 3.514840 0.000000 
#    z 0.000000 0.000000 2.948720 
# 
# 
# High freq. dielectric constant tensor:
#      x y z
#    x 1.650650 0.000000 0.000000 
#    y 0.000000 1.673600 0.000000 
#    z 0.000000 0.000000 1.628910 
# 
# From -- ./inp_files/58206.got.cif
#   From: 2010.06.25/outbox.cif.g09.slc.cpg/sg71_30_cif.got.tgz:58206.got - 2010.06.28 04:59:45.
