data_PCOD8289736
_publ_section_title
;
Structure prediction by ZEFSAII (Michael W. Deem and Ramdas Pophale) SiO2 
 PCOD8289736
Probable space group: I M M M
;
_chemical_formula_sum "Si O2"
_cell_formula_units_Z 88
_cell_length_a 19.006032
_cell_length_b 27.850279
_cell_length_c 9.581974
_cell_angle_alpha 90.000000
_cell_angle_beta 90.000000
_cell_angle_gamma 90.000000
_cell_volume 5071.962040
_symmetry_space_group_name_H-M "I M M M"
_symmetry_group_IT_number 71
_symmetry_cell_setting 'orthorhombic'
loop_
_space_group_symop_operation_xyz
x,y,z
-x,-y,z
x,-y,-z
-x,y,-z
-x,-y,-z
x,y,-z
-x,y,z
x,-y,z
1/2+x,1/2+y,1/2+z
1/2-x,1/2-y,1/2+z
1/2+x,1/2-y,1/2-z
1/2-x,1/2+y,1/2-z
1/2-x,1/2-y,1/2-z
1/2+x,1/2+y,1/2-z
1/2-x,1/2+y,1/2+z
1/2+x,1/2-y,1/2+z
loop_
_atom_site_type_symbol
_atom_site_label
_atom_site_fract_x
_atom_site_fract_y
_atom_site_fract_z
Si Si1 0.500000 0.056332 0.345266
Si Si2 0.874589 0.413774 0.654502
Si Si3 0.682384 0.346612 0.663674
Si Si4 0.327434 0.806790 0.156872
Si Si5 0.919439 0.765138 0.163620
Si Si6 0.278865 0.552150 0.336041
O O1 0.500000 0.079024 0.500000
O O2 0.568880 0.073505 0.268223
O O3 0.500000 0.000000 0.353742
O O4 0.898189 0.431148 0.500000
O O5 0.867269 0.356908 0.653071
O O6 0.802929 0.440112 0.697575
O O7 0.698175 0.352356 0.500000
O O8 0.748833 0.315353 0.720591
O O9 0.609907 0.318862 0.694742
O O10 0.679066 0.401251 0.726417
O O11 0.371250 0.772202 0.256101
O O12 0.324260 0.784803 0.000000
O O13 0.000000 0.762942 0.215925
O O14 0.914305 0.753541 0.000000
O O15 0.292040 0.549813 0.500000
O O16 0.302222 0.500000 0.271330
#
# Coordination Sequence:
#
# PCOD8289736 Si02
#       6
#     8  16  16  16  16  16
#     4  11  23  33  41  59  91 127 155 183 226 277
#     4   9  18  31  47  66  86 112 152 197 234 267
#     4   8  15  29  46  66  93 121 151 188 229 274
#     4   9  18  32  50  69  88 116 156 199 232 261
#     4  10  20  31  45  67  96 128 154 180 226 284
#     4   8  13  24  46  71  88 108 147 195 233 265
#
# _framework density 17.350287999999999
#
# number of rings (size 3 to 8) (size 9 to 14) (size 15 to 20)
#    0.000    3.000    0.000    3.545    1.273    2.545 
#    0.000    0.000    0.000    1.636    0.000    3.818 
#    0.000    0.000    0.000    1.636    0.000    1.818 
#
# Total GULP energy -545168.177820 kJ/mol
# GULP energy per Si atom -12390.185860 kJ/mol
# Density = 1.731080 g / cm^3
# Si number density = 17.350288 Si / 1000 Ang^3
#
#
#
# Elastic Constant Matrix: (Units=GPa)
#
#
# Indices 1 2 3 4 5 6 
#
# 1 63.2151 47.0945 18.6724 0.0000 0.0000 0.0000
# 2 47.0945 113.1326 17.0964 0.0000 0.0000 0.0000
# 3 18.6724 17.0964 41.0716 0.0000 0.0001 0.0000
# 4 0.0000 0.0000 0.0000 17.7394 0.0000 0.0000
# 5 0.0000 0.0000 0.0001 0.0000 13.8617 0.0000
# 6 0.0000 0.0000 0.0000 0.0000 0.0000 13.7017
#
#
#
# Elastic Compliance Matrix: (Units=1/GPa)
#
#
# Indices 1 2 3 4 5 6 
#
# 1 0.024912 -0.009240 -0.007480 0.000000 0.000000 0.000000
# 2 -0.009240 0.012860 -0.001152 0.000000 0.000000 0.000000
# 3 -0.007480 -0.001152 0.028228 0.000000 0.000000 0.000000
# 4 0.000000 0.000000 0.000000 0.056372 0.000000 0.000000
# 5 0.000000 0.000000 0.000000 0.000000 0.072141 0.000000
# 6 0.000000 0.000000 0.000000 0.000000 0.000000 0.072984
#
#
# Mechanical properties :
#
#
# Convention : Reuss Voigt Hill
#
# Bulk Modulus (GPa) = 33.05127 42.57176 37.81151
# Shear Modulus (GPa) = 15.95787 18.03094 16.99440
#
# Velocity S-wave (km/s) = 3.03602 3.22721 3.13307
# Velocity P-wave (km/s) = 5.60185 6.20293 5.91004
#
# Compressibility (1/GPa) = 0.03025603
#
# Stress axis : x y z
#
# Youngs Moduli (GPa) = 40.14129 77.76233 35.42614
#
# Poissons Ratio (x) = 0.71852 0.26497
# Poissons Ratio (y) = 0.37091 0.04082
# Poissons Ratio (z) = 0.30024 0.08960
#
# Static dielectric constant tensor:
#      x y z
#    x 3.131790 0.000000 0.000000 
#    y 0.000000 3.566310 0.000000 
#    z 0.000000 0.000000 3.116500 
# 
# 
# High freq. dielectric constant tensor:
#      x y z
#    x 1.650610 0.000000 0.000000 
#    y 0.000000 1.682700 0.000000 
#    z 0.000000 0.000000 1.628280 
# 
# From -- ./inp_files/8776.got.cif
#   From: 2010.06.25/outbox.cif.g09.slc.cpg/sg71_5_cif.got.tgz:8776.got - 2010.06.28 04:59:45.
