data_PCOD8289816
_publ_section_title
;
Structure prediction by ZEFSAII (Michael W. Deem and Ramdas Pophale) SiO2 
 PCOD8289816
Probable space group: I M M M
;
_chemical_formula_sum "Si O2"
_cell_formula_units_Z 96
_cell_length_a 9.268918
_cell_length_b 19.711276
_cell_length_c 30.616323
_cell_angle_alpha 90.000000
_cell_angle_beta 90.000000
_cell_angle_gamma 90.000000
_cell_volume 5593.669596
_symmetry_space_group_name_H-M "I M M M"
_symmetry_group_IT_number 71
_symmetry_cell_setting 'orthorhombic'
loop_
_space_group_symop_operation_xyz
x,y,z
-x,-y,z
x,-y,-z
-x,y,-z
-x,-y,-z
x,y,-z
-x,y,z
x,-y,z
1/2+x,1/2+y,1/2+z
1/2-x,1/2-y,1/2+z
1/2+x,1/2-y,1/2-z
1/2-x,1/2+y,1/2-z
1/2-x,1/2-y,1/2-z
1/2+x,1/2+y,1/2-z
1/2-x,1/2+y,1/2+z
1/2+x,1/2-y,1/2+z
loop_
_atom_site_type_symbol
_atom_site_label
_atom_site_fract_x
_atom_site_fract_y
_atom_site_fract_z
Si Si1 0.662108 0.919186 0.297017
Si Si2 0.334971 0.833095 0.551096
Si Si3 0.327800 0.575813 0.380782
Si Si4 0.832570 0.920510 0.618243
Si Si5 0.160539 0.080614 0.215591
Si Si6 0.671359 0.319978 0.451611
O O1 0.500000 0.890505 0.300155
O O2 0.751631 0.893301 0.338671
O O3 0.734682 0.889791 0.252911
O O4 0.662048 0.000000 0.295621
O O5 0.319335 0.848055 0.500000
O O6 0.500000 0.844975 0.566075
O O7 0.230242 0.883851 0.575979
O O8 0.285275 0.756305 0.561690
O O9 0.500000 0.575185 0.382033
O O10 0.269459 0.500000 0.390847
O O11 0.278757 0.600316 0.332437
O O12 0.262520 0.627220 0.416691
O O13 0.000000 0.903101 0.623490
O O14 0.806482 0.000000 0.611719
O O15 0.000000 0.110770 0.222832
O O16 0.151892 0.000000 0.218838
O O17 0.731720 0.337531 0.500000
O O18 0.500000 0.325556 0.452594
#
# Coordination Sequence:
#
# PCOD8289816 Si02
#       6
#    16  16  16  16  16  16
#     4   9  16  26  42  64  89 116 145 177 216 264
#     4   9  18  32  48  65  88 120 153 183 219 264
#     4   8  13  21  37  64  94 122 152 186 223 259
#     4  10  20  32  47  68  91 113 141 182 228 268
#     4   8  13  22  37  59  89 121 149 178 215 258
#     4   8  14  25  41  62  89 121 155 187 220 261
#
# _framework density 17.162258000000001
#
# number of rings (size 3 to 8) (size 9 to 14) (size 15 to 20)
#    0.000    3.333    0.000    3.000    0.000    4.000 
#    0.000    3.333    0.000    2.000    0.000    0.000 
#    0.000    0.000    0.000   10.167    0.000   10.333 
#
# Total GULP energy -594950.936284 kJ/mol
# GULP energy per Si atom -12394.811173 kJ/mol
# Density = 1.712320 g / cm^3
# Si number density = 17.162258 Si / 1000 Ang^3
#
#
#
# Elastic Constant Matrix: (Units=GPa)
#
#
# Indices 1 2 3 4 5 6 
#
# 1 80.9296 36.2592 60.4186 0.0000 0.0000 0.0000
# 2 36.2592 51.4007 57.0388 0.0000 0.0000 0.0000
# 3 60.4186 57.0388 131.2997 0.0000 0.0000 0.0000
# 4 0.0000 0.0000 0.0000 6.0908 0.0000 0.0000
# 5 0.0000 0.0000 0.0000 0.0000 20.7810 0.0000
# 6 0.0000 0.0000 0.0000 0.0000 0.0000 9.5596
#
#
#
# Elastic Compliance Matrix: (Units=1/GPa)
#
#
# Indices 1 2 3 4 5 6 
#
# 1 0.020258 -0.007619 -0.006012 0.000000 0.000000 0.000000
# 2 -0.007619 0.040428 -0.014057 0.000000 0.000000 0.000000
# 3 -0.006012 -0.014057 0.016489 0.000000 0.000000 0.000000
# 4 0.000000 0.000000 0.000000 0.164181 0.000000 0.000000
# 5 0.000000 0.000000 0.000000 0.000000 0.048121 0.000000
# 6 0.000000 0.000000 0.000000 0.000000 0.000000 0.104607
#
#
# Mechanical properties :
#
#
# Convention : Reuss Voigt Hill
#
# Bulk Modulus (GPa) = 45.87182 63.45148 54.66165
# Shear Modulus (GPa) = 10.94745 14.61385 12.78065
#
# Velocity S-wave (km/s) = 2.52837 2.92123 2.73187
# Velocity P-wave (km/s) = 5.94221 6.95916 6.47069
#
# Compressibility (1/GPa) = 0.02179988
#
# Stress axis : x y z
#
# Youngs Moduli (GPa) = 49.36202 24.73518 60.64558
#
# Poissons Ratio (x) = 0.18846 0.36462
# Poissons Ratio (y) = 0.37609 0.85248
# Poissons Ratio (z) = 0.29678 0.34770
#
# Static dielectric constant tensor:
#      x y z
#    x 2.994920 0.000000 0.000000 
#    y 0.000000 2.963920 0.000000 
#    z 0.000000 0.000000 3.530090 
# 
# 
# High freq. dielectric constant tensor:
#      x y z
#    x 1.629500 0.000000 0.000000 
#    y 0.000000 1.621330 0.000000 
#    z 0.000000 0.000000 1.676640 
# 
# From -- ./inp_files/15176.got.cif
#   From: 2010.06.25/outbox.cif.g09.slc.cpg/sg71_8_cif.got.tgz:15176.got - 2010.06.28 04:59:45.
