data_PCOD8289936
_publ_section_title
;
Structure prediction by ZEFSAII (Michael W. Deem and Ramdas Pophale) SiO2 
 PCOD8289936
Probable space group: I M M M
;
_chemical_formula_sum "Si O2"
_cell_formula_units_Z 88
_cell_length_a 21.650236
_cell_length_b 18.268492
_cell_length_c 11.868609
_cell_angle_alpha 90.000000
_cell_angle_beta 90.000000
_cell_angle_gamma 90.000000
_cell_volume 4694.238562
_symmetry_space_group_name_H-M "I M M M"
_symmetry_group_IT_number 71
_symmetry_cell_setting 'orthorhombic'
loop_
_space_group_symop_operation_xyz
x,y,z
-x,-y,z
x,-y,-z
-x,y,-z
-x,-y,-z
x,y,-z
-x,y,z
x,-y,z
1/2+x,1/2+y,1/2+z
1/2-x,1/2-y,1/2+z
1/2+x,1/2-y,1/2-z
1/2-x,1/2+y,1/2-z
1/2-x,1/2-y,1/2-z
1/2+x,1/2+y,1/2-z
1/2-x,1/2+y,1/2+z
1/2+x,1/2-y,1/2+z
loop_
_atom_site_type_symbol
_atom_site_label
_atom_site_fract_x
_atom_site_fract_y
_atom_site_fract_z
Si Si1 0.257642 0.864649 0.692559
Si Si2 0.183257 0.786204 0.128400
Si Si3 0.569045 0.233198 0.244093
Si Si4 0.568029 0.917049 0.000000
Si Si5 0.570140 0.708285 0.000000
Si Si6 0.829349 0.082737 0.500000
Si Si7 0.614845 0.918766 0.761327
O O1 0.223285 0.847723 0.809455
O O2 0.281204 0.790688 0.633869
O O3 0.211992 0.906513 0.610219
O O4 0.314895 0.917244 0.720008
O O5 0.116380 0.783285 0.187468
O O6 0.174458 0.810447 0.000000
O O7 0.500000 0.260147 0.271329
O O8 0.583497 0.241323 0.109857
O O9 0.575747 0.149056 0.289467
O O10 0.611110 0.901293 0.106402
O O11 0.500000 0.874317 0.000000
O O12 0.547582 0.000000 0.000000
O O13 0.613163 0.637391 0.000000
O O14 0.500000 0.679230 0.000000
O O15 0.855037 0.000000 0.500000
O O16 0.587765 0.000000 0.731151
#
# Coordination Sequence:
#
# PCOD8289936 Si02
#       7
#    16  16  16   8   8   8  16
#     4  10  21  35  55  84 113 147 190 234 285 335
#     4  10  20  35  57  81 110 146 190 236 280 335
#     4  10  20  34  56  81 110 148 190 239 282 333
#     4   9  17  29  46  70 105 148 188 223 263 315
#     4  10  21  39  58  85 114 141 191 245 294 341
#     4  12  22  38  63  86 115 147 185 236 295 349
#     4  10  20  32  49  80 117 152 187 225 276 334
#
# _framework density 18.746383999999999
#
# number of rings (size 3 to 8) (size 9 to 14) (size 15 to 20)
#    0.000    1.909    2.727    1.636    1.273    2.364 
#    0.000    0.000    0.000    0.000    0.000    2.545 
#    0.000    2.909    0.000    0.000    0.000    0.000 
#
# Total GULP energy -545319.396901 kJ/mol
# GULP energy per Si atom -12393.622657 kJ/mol
# Density = 1.870372 g / cm^3
# Si number density = 18.746384 Si / 1000 Ang^3
#
#
#
# Elastic Constant Matrix: (Units=GPa)
#
#
# Indices 1 2 3 4 5 6 
#
# 1 98.0289 32.3933 37.6214 0.0000 0.0000 0.0000
# 2 32.3933 78.2497 11.4528 0.0000 0.0000 0.0000
# 3 37.6214 11.4528 99.3619 0.0000 0.0000 0.0000
# 4 0.0000 0.0000 0.0000 17.1465 0.0000 0.0000
# 5 0.0000 0.0000 0.0000 0.0000 33.4706 0.0000
# 6 0.0000 0.0000 0.0000 0.0000 0.0000 16.8579
#
#
#
# Elastic Compliance Matrix: (Units=1/GPa)
#
#
# Indices 1 2 3 4 5 6 
#
# 1 0.013596 -0.004959 -0.004576 0.000000 0.000000 0.000000
# 2 -0.004959 0.014807 0.000171 0.000000 0.000000 0.000000
# 3 -0.004576 0.000171 0.011777 0.000000 0.000000 0.000000
# 4 0.000000 0.000000 0.000000 0.058321 0.000000 0.000000
# 5 0.000000 0.000000 0.000000 0.000000 0.029877 0.000000
# 6 0.000000 0.000000 0.000000 0.000000 0.000000 0.059319
#
#
# Mechanical properties :
#
#
# Convention : Reuss Voigt Hill
#
# Bulk Modulus (GPa) = 46.61512 48.73058 47.67285
# Shear Modulus (GPa) = 23.41079 26.43987 24.92533
#
# Velocity S-wave (km/s) = 3.53769 3.75960 3.65033
# Velocity P-wave (km/s) = 6.45037 6.70054 6.57664
#
# Compressibility (1/GPa) = 0.02145227
#
# Stress axis : x y z
#
# Youngs Moduli (GPa) = 73.55171 67.53422 84.90942
#
# Poissons Ratio (x) = 0.33487 0.38857
# Poissons Ratio (y) = 0.36471 -0.01449
# Poissons Ratio (z) = 0.33659 -0.01153
#
# Static dielectric constant tensor:
#      x y z
#    x 3.444530 0.000000 0.000000 
#    y 0.000000 3.285130 0.000000 
#    z 0.000000 0.000000 3.339650 
# 
# 
# High freq. dielectric constant tensor:
#      x y z
#    x 1.729670 0.000000 0.000000 
#    y 0.000000 1.708950 0.000000 
#    z 0.000000 0.000000 1.714760 
# 
# From -- ./inp_files/25701.got.cif
#   From: 2010.06.25/outbox.cif.g09.slc.cpg/sg71_13_cif.got.tgz:25701.got - 2010.06.28 04:59:45.
