data_PCOD8289282
_publ_section_title
;
Structure prediction by ZEFSAII (Michael W. Deem and Ramdas Pophale) SiO2 
 PCOD8289282
Probable space group: I M M M
;
_chemical_formula_sum "Si O2"
_cell_formula_units_Z 88
_cell_length_a 21.957678
_cell_length_b 7.824843
_cell_length_c 25.574475
_cell_angle_alpha 90.000000
_cell_angle_beta 90.000000
_cell_angle_gamma 90.000000
_cell_volume 4394.088217
_symmetry_space_group_name_H-M "I M M M"
_symmetry_group_IT_number 71
_symmetry_cell_setting 'orthorhombic'
loop_
_space_group_symop_operation_xyz
x,y,z
-x,-y,z
x,-y,-z
-x,y,-z
-x,-y,-z
x,y,-z
-x,y,z
x,-y,z
1/2+x,1/2+y,1/2+z
1/2-x,1/2-y,1/2+z
1/2+x,1/2-y,1/2-z
1/2-x,1/2+y,1/2-z
1/2-x,1/2-y,1/2-z
1/2+x,1/2+y,1/2-z
1/2-x,1/2+y,1/2+z
1/2+x,1/2-y,1/2+z
loop_
_atom_site_type_symbol
_atom_site_label
_atom_site_fract_x
_atom_site_fract_y
_atom_site_fract_z
Si Si1 0.823864 0.309414 0.697448
Si Si2 0.572511 0.500000 0.942862
Si Si3 0.319017 0.500000 0.438669
Si Si4 0.069261 0.000000 0.856843
Si Si5 0.269534 0.183760 0.615147
Si Si6 0.430971 0.811089 0.875293
Si Si7 0.626492 0.191097 0.694784
O O1 0.796473 0.500000 0.696278
O O2 0.782355 0.198685 0.659413
O O3 0.893433 0.304422 0.677850
O O4 0.829703 0.244258 0.757319
O O5 0.500000 0.500000 0.945898
O O6 0.596219 0.328405 0.915036
O O7 0.601913 0.500000 0.000000
O O8 0.336492 0.500000 0.500000
O O9 0.381594 0.500000 0.404587
O O10 0.275000 0.662258 0.426314
O O11 0.076099 0.166597 0.819257
O O12 0.000000 0.000000 0.879316
O O13 0.333726 0.176047 0.643414
O O14 0.258346 0.000000 0.586692
O O15 0.500000 0.765899 0.860125
O O16 0.426167 0.000000 0.901377
O O17 0.599231 0.000000 0.707751
#
# Coordination Sequence:
#
# PCOD8289282 Si02
#       7
#    16   8   8   8  16  16  16
#     4  10  19  33  55  80 114 151 189 223 281 345
#     4   9  18  33  51  66  84 119 167 215 262 305
#     4  10  22  43  63  83 118 155 196 255 306 348
#     4  10  22  38  60  91 121 155 201 242 290 355
#     4  10  20  35  58  84 113 146 191 241 290 349
#     4   9  19  33  48  69  99 133 172 216 263 323
#     4   9  20  35  54  85 118 154 185 228 283 344
#
# _framework density 20.026907000000001
#
# number of rings (size 3 to 8) (size 9 to 14) (size 15 to 20)
#    0.000    2.455    0.909    0.545    2.545    2.000 
#    0.000    5.455    0.000    0.000    0.000    5.091 
#    0.000    0.000    0.000    0.000    0.000    0.000 
#
# Total GULP energy -545143.174243 kJ/mol
# GULP energy per Si atom -12389.617596 kJ/mol
# Density = 1.998132 g / cm^3
# Si number density = 20.026907 Si / 1000 Ang^3
#
#
#
# Elastic Constant Matrix: (Units=GPa)
#
#
# Indices 1 2 3 4 5 6 
#
# 1 50.3403 31.9211 9.6953 0.0000 0.0000 0.0000
# 2 31.9211 150.3345 44.5880 0.0000 0.0000 0.0000
# 3 9.6953 44.5880 71.9045 0.0000 0.0000 0.0000
# 4 0.0000 0.0000 0.0000 24.9636 0.0000 0.0000
# 5 0.0000 0.0000 0.0000 0.0000 18.1422 0.0000
# 6 0.0000 0.0000 0.0000 0.0000 0.0000 18.0545
#
#
#
# Elastic Compliance Matrix: (Units=1/GPa)
#
#
# Indices 1 2 3 4 5 6 
#
# 1 0.022956 -0.004848 -0.000089 0.000000 0.000000 0.000000
# 2 -0.004848 0.009175 -0.005036 0.000000 0.000000 0.000000
# 3 -0.000089 -0.005036 0.017042 0.000000 0.000000 0.000000
# 4 0.000000 0.000000 0.000000 0.040058 0.000000 0.000000
# 5 0.000000 0.000000 0.000000 0.000000 0.055120 0.000000
# 6 0.000000 0.000000 0.000000 0.000000 0.000000 0.055388
#
#
# Mechanical properties :
#
#
# Convention : Reuss Voigt Hill
#
# Bulk Modulus (GPa) = 34.21434 49.44312 41.82873
# Shear Modulus (GPa) = 21.79345 24.65705 23.22525
#
# Velocity S-wave (km/s) = 3.30238 3.51265 3.40913
# Velocity P-wave (km/s) = 5.62692 6.41822 6.03555
#
# Compressibility (1/GPa) = 0.02922751
#
# Stress axis : x y z
#
# Youngs Moduli (GPa) = 43.56145 108.99514 58.67886
#
# Poissons Ratio (x) = 0.52840 0.00523
# Poissons Ratio (y) = 0.21118 0.29548
# Poissons Ratio (z) = 0.00388 0.54885
#
# Static dielectric constant tensor:
#      x y z
#    x 3.377370 0.000000 0.000000 
#    y 0.000000 4.231900 0.000000 
#    z 0.000000 0.000000 3.413680 
# 
# 
# High freq. dielectric constant tensor:
#      x y z
#    x 1.758440 0.000000 0.000000 
#    y 0.000000 1.800180 0.000000 
#    z 0.000000 0.000000 1.750980 
# 
# From -- ./inp_files/61177.got.cif
#   From: 2010.06.25/outbox.cif.g09.slc.cpg/sg71_31_cif.got.tgz:61177.got - 2010.06.28 04:59:45.
