data_PCOD8289223
_publ_section_title
;
Structure prediction by ZEFSAII (Michael W. Deem and Ramdas Pophale) SiO2 
 PCOD8289223
Probable space group: I M M M
;
_chemical_formula_sum "Si O2"
_cell_formula_units_Z 120
_cell_length_a 21.681832
_cell_length_b 11.118498
_cell_length_c 27.259106
_cell_angle_alpha 90.000000
_cell_angle_beta 90.000000
_cell_angle_gamma 90.000000
_cell_volume 6571.336484
_symmetry_space_group_name_H-M "I M M M"
_symmetry_group_IT_number 71
_symmetry_cell_setting 'orthorhombic'
loop_
_space_group_symop_operation_xyz
x,y,z
-x,-y,z
x,-y,-z
-x,y,-z
-x,-y,-z
x,y,-z
-x,y,z
x,-y,z
1/2+x,1/2+y,1/2+z
1/2-x,1/2-y,1/2+z
1/2+x,1/2-y,1/2-z
1/2-x,1/2+y,1/2-z
1/2-x,1/2-y,1/2-z
1/2+x,1/2+y,1/2-z
1/2-x,1/2+y,1/2+z
1/2+x,1/2-y,1/2+z
loop_
_atom_site_type_symbol
_atom_site_label
_atom_site_fract_x
_atom_site_fract_y
_atom_site_fract_z
Si Si1 0.695742 0.639174 0.698589
Si Si2 0.685231 0.370633 0.906214
Si Si3 0.432061 0.860852 0.152469
Si Si4 0.000000 0.855634 0.056201
Si Si5 0.746474 0.365387 0.556586
Si Si6 0.569399 0.732205 0.944990
Si Si7 0.378122 0.363299 0.606835
Si Si8 0.676474 0.721228 0.804184
O O1 0.707023 0.500000 0.686530
O O2 0.648342 0.694040 0.657738
O O3 0.667604 0.655035 0.752447
O O4 0.761179 0.702703 0.694178
O O5 0.716795 0.500000 0.921087
O O6 0.721124 0.247244 0.917390
O O7 0.619098 0.371574 0.933630
O O8 0.676837 0.376447 0.847559
O O9 0.500000 0.809091 0.165387
O O10 0.417738 0.836869 0.094836
O O11 0.382719 0.805144 0.189144
O O12 0.429974 0.000000 0.161812
O O13 0.059738 0.802557 0.085300
O O14 0.000000 0.000000 0.055035
O O15 0.000000 0.807918 0.000000
O O16 0.762081 0.354540 0.500000
O O17 0.767514 0.500000 0.575760
O O18 0.673630 0.352511 0.564797
O O19 0.500000 0.679674 0.939972
O O20 0.579570 0.784258 0.000000
O O21 0.395381 0.500000 0.618417
#
# Coordination Sequence:
#
# PCOD8289223 Si02
#       8
#    16  16  16   8  16  16  16  16
#     4  10  19  33  54  77 101 135 177 221 271 323
#     4  11  22  35  52  76 107 141 180 225 271 326
#     4   9  18  33  53  76 103 138 181 226 273 328
#     4   9  16  28  50  80 113 143 169 205 262 329
#     4  10  20  34  53  78 109 142 177 219 268 321
#     4   9  19  34  50  71 100 135 177 224 271 318
#     4   9  17  31  51  78 108 137 171 214 265 321
#     4  10  20  34  52  74 103 138 177 223 274 323
#
# _framework density 18.261126999999998
#
# number of rings (size 3 to 8) (size 9 to 14) (size 15 to 20)
#    0.000    2.333    1.333    1.600    0.000    5.333 
#    1.200    2.000    0.000    0.800    0.000    0.467 
#    0.000    1.600    0.000    0.000    0.000    0.000 
#
# Total GULP energy -743294.339473 kJ/mol
# GULP energy per Si atom -12388.238991 kJ/mol
# Density = 1.821956 g / cm^3
# Si number density = 18.261127 Si / 1000 Ang^3
#
#
#
# Elastic Constant Matrix: (Units=GPa)
#
#
# Indices 1 2 3 4 5 6 
#
# 1 105.6402 31.2979 42.0006 0.0000 0.0000 0.0000
# 2 31.2979 72.1926 13.0157 0.0000 0.0000 0.0000
# 3 42.0006 13.0157 102.6483 0.0000 0.0000 0.0000
# 4 0.0000 0.0000 0.0000 12.8852 0.0000 0.0000
# 5 0.0000 0.0000 0.0000 0.0000 30.9730 0.0000
# 6 0.0000 0.0000 0.0000 0.0000 0.0000 10.5387
#
#
#
# Elastic Compliance Matrix: (Units=1/GPa)
#
#
# Indices 1 2 3 4 5 6 
#
# 1 0.012676 -0.004667 -0.004595 0.000000 0.000000 0.000000
# 2 -0.004667 0.015894 -0.000106 0.000000 0.000000 0.000000
# 3 -0.004595 -0.000106 0.011635 0.000000 0.000000 0.000000
# 4 0.000000 0.000000 0.000000 0.077609 0.000000 0.000000
# 5 0.000000 0.000000 0.000000 0.000000 0.032286 0.000000
# 6 0.000000 0.000000 0.000000 0.000000 0.000000 0.094888
#
#
# Mechanical properties :
#
#
# Convention : Reuss Voigt Hill
#
# Bulk Modulus (GPa) = 46.57588 50.34551 48.46069
# Shear Modulus (GPa) = 18.45840 23.82384 21.14112
#
# Velocity S-wave (km/s) = 3.18276 3.61587 3.40621
# Velocity P-wave (km/s) = 6.25040 6.71285 6.48575
#
# Compressibility (1/GPa) = 0.02147034
#
# Stress axis : x y z
#
# Youngs Moduli (GPa) = 78.89232 62.91616 85.94447
#
# Poissons Ratio (x) = 0.29362 0.39489
# Poissons Ratio (y) = 0.36818 0.00909
# Poissons Ratio (z) = 0.36248 0.00666
#
# Static dielectric constant tensor:
#      x y z
#    x 3.550380 0.000000 0.000000 
#    y 0.000000 3.033410 0.000000 
#    z 0.000000 0.000000 3.612600 
# 
# 
# High freq. dielectric constant tensor:
#      x y z
#    x 1.708250 0.000000 0.000000 
#    y 0.000000 1.669090 0.000000 
#    z 0.000000 0.000000 1.715640 
# 
# From -- ./inp_files/66615.got.cif
#   From: 2010.06.25/outbox.cif.g09.slc.cpg/sg71_34_cif.got.tgz:66615.got - 2010.06.28 04:59:45.
