data_PCOD8289482
_publ_section_title
;
Structure prediction by ZEFSAII (Michael W. Deem and Ramdas Pophale) SiO2 
 PCOD8289482
Probable space group: I M M M
;
_chemical_formula_sum "Si O2"
_cell_formula_units_Z 72
_cell_length_a 14.583934
_cell_length_b 14.835286
_cell_length_c 17.083961
_cell_angle_alpha 90.000000
_cell_angle_beta 90.000000
_cell_angle_gamma 90.000000
_cell_volume 3696.231678
_symmetry_space_group_name_H-M "I M M M"
_symmetry_group_IT_number 71
_symmetry_cell_setting 'orthorhombic'
loop_
_space_group_symop_operation_xyz
x,y,z
-x,-y,z
x,-y,-z
-x,y,-z
-x,-y,-z
x,y,-z
-x,y,z
x,-y,z
1/2+x,1/2+y,1/2+z
1/2-x,1/2-y,1/2+z
1/2+x,1/2-y,1/2-z
1/2-x,1/2+y,1/2-z
1/2-x,1/2-y,1/2-z
1/2+x,1/2+y,1/2-z
1/2-x,1/2+y,1/2+z
1/2+x,1/2-y,1/2+z
loop_
_atom_site_type_symbol
_atom_site_label
_atom_site_fract_x
_atom_site_fract_y
_atom_site_fract_z
Si Si1 0.892762 0.500000 0.224801
Si Si2 0.896711 0.306009 0.290338
Si Si3 0.252113 0.500000 0.090709
Si Si4 0.791398 0.809436 0.413557
Si Si5 0.106246 0.903031 0.000000
Si Si6 0.396302 0.254776 0.380207
O O1 0.868097 0.409635 0.273732
O O2 0.837356 0.500000 0.144809
O O3 0.000000 0.500000 0.202661
O O4 0.829159 0.264493 0.354164
O O5 0.889427 0.242689 0.213693
O O6 0.000000 0.303000 0.323390
O O7 0.317252 0.587300 0.107708
O O8 0.220567 0.500000 0.000000
O O9 0.826758 0.783021 0.500000
O O10 0.679818 0.813985 0.412165
O O11 0.131100 0.850003 0.079973
O O12 0.000000 0.921861 0.000000
O O13 0.158069 0.000000 0.000000
O O14 0.500000 0.225405 0.405274
#
# Coordination Sequence:
#
# PCOD8289482 Si02
#       6
#     8  16   8  16   8  16
#     4  10  20  37  61  89 119 151 191 246 302 355
#     4  10  22  40  60  85 116 155 201 245 294 349
#     4  10  22  35  55  87 121 152 194 239 296 356
#     4  11  22  39  59  85 117 156 196 246 292 350
#     4   9  18  34  52  79 118 152 187 233 284 349
#     4  10  19  34  57  83 116 153 187 234 296 356
#
# _framework density 19.479298
#
# number of rings (size 3 to 8) (size 9 to 14) (size 15 to 20)
#    0.000    1.889    3.333    0.667    0.000    0.667 
#    4.000    3.333    0.000    4.000    0.000    0.000 
#    0.000    0.000    0.000    0.000    0.000    0.000 
#
# Total GULP energy -446005.420196 kJ/mol
# GULP energy per Si atom -12389.039450 kJ/mol
# Density = 1.943496 g / cm^3
# Si number density = 19.479298 Si / 1000 Ang^3
#
#
#
# Elastic Constant Matrix: (Units=GPa)
#
#
# Indices 1 2 3 4 5 6 
#
# 1 55.0159 42.5363 39.1857 0.0000 0.0000 0.0000
# 2 42.5363 158.6020 79.5277 0.0000 0.0000 0.0000
# 3 39.1857 79.5277 119.2545 0.0000 0.0000 0.0000
# 4 0.0000 0.0000 0.0000 32.4312 0.0000 0.0000
# 5 0.0000 0.0000 0.0000 0.0000 20.2679 0.0000
# 6 0.0000 0.0000 0.0000 0.0000 0.0000 18.8746
#
#
#
# Elastic Compliance Matrix: (Units=1/GPa)
#
#
# Indices 1 2 3 4 5 6 
#
# 1 0.025258 -0.003925 -0.005682 0.000000 0.000000 0.000000
# 2 -0.003925 0.010083 -0.005434 0.000000 0.000000 0.000000
# 3 -0.005682 -0.005434 0.013876 0.000000 0.000000 0.000000
# 4 0.000000 0.000000 0.000000 0.030835 0.000000 0.000000
# 5 0.000000 0.000000 0.000000 0.000000 0.049339 0.000000
# 6 0.000000 0.000000 0.000000 0.000000 0.000000 0.052981
#
#
# Mechanical properties :
#
#
# Convention : Reuss Voigt Hill
#
# Bulk Modulus (GPa) = 52.26062 72.81908 62.53985
# Shear Modulus (GPa) = 22.84846 25.75624 24.30235
#
# Velocity S-wave (km/s) = 3.42857 3.64020 3.53597
# Velocity P-wave (km/s) = 6.52384 7.42510 6.98901
#
# Compressibility (1/GPa) = 0.01913487
#
# Stress axis : x y z
#
# Youngs Moduli (GPa) = 39.59085 99.18109 72.06487
#
# Poissons Ratio (x) = 0.38928 0.40948
# Poissons Ratio (y) = 0.15539 0.39161
# Poissons Ratio (z) = 0.22496 0.53896
#
# Static dielectric constant tensor:
#      x y z
#    x 3.338270 0.000000 0.000000 
#    y 0.000000 3.969650 0.000000 
#    z 0.000000 0.000000 3.434050 
# 
# 
# High freq. dielectric constant tensor:
#      x y z
#    x 1.731790 0.000000 0.000000 
#    y 0.000000 1.764270 0.000000 
#    z 0.000000 0.000000 1.752420 
# 
# From -- ./inp_files/36092.got.cif
#   From: 2010.06.25/outbox.cif.g09.slc.cpg/sg71_19_cif.got.tgz:36092.got - 2010.06.28 04:59:45.
