data_PCOD8289344
_publ_section_title
;
Structure prediction by ZEFSAII (Michael W. Deem and Ramdas Pophale) SiO2 
 PCOD8289344
Probable space group: I M M M
;
_chemical_formula_sum "Si O2"
_cell_formula_units_Z 88
_cell_length_a 30.496587
_cell_length_b 8.645919
_cell_length_c 18.647097
_cell_angle_alpha 90.000000
_cell_angle_beta 90.000000
_cell_angle_gamma 90.000000
_cell_volume 4916.699104
_symmetry_space_group_name_H-M "I M M M"
_symmetry_group_IT_number 71
_symmetry_cell_setting 'orthorhombic'
loop_
_space_group_symop_operation_xyz
x,y,z
-x,-y,z
x,-y,-z
-x,y,-z
-x,-y,-z
x,y,-z
-x,y,z
x,-y,z
1/2+x,1/2+y,1/2+z
1/2-x,1/2-y,1/2+z
1/2+x,1/2-y,1/2-z
1/2-x,1/2+y,1/2-z
1/2-x,1/2-y,1/2-z
1/2+x,1/2+y,1/2-z
1/2-x,1/2+y,1/2+z
1/2+x,1/2-y,1/2+z
loop_
_atom_site_type_symbol
_atom_site_label
_atom_site_fract_x
_atom_site_fract_y
_atom_site_fract_z
Si Si1 0.758931 0.181894 0.854895
Si Si2 0.157308 0.169883 0.500000
Si Si3 0.761375 0.672438 0.000000
Si Si4 0.090221 0.317223 0.081249
Si Si5 0.336281 0.315570 0.153912
Si Si6 0.156767 0.317027 0.797262
Si Si7 0.500000 0.327898 0.584923
O O1 0.778148 0.232233 0.931906
O O2 0.714550 0.272043 0.838564
O O3 0.795922 0.234646 0.799032
O O4 0.750238 0.000000 0.850649
O O5 0.209503 0.156667 0.500000
O O6 0.144654 0.249761 0.576548
O O7 0.136053 0.000000 0.500000
O O8 0.782828 0.500000 0.000000
O O9 0.088736 0.500000 0.080833
O O10 0.126535 0.256821 0.137443
O O11 0.043581 0.258974 0.111091
O O12 0.100201 0.255998 0.000000
O O13 0.341035 0.500000 0.156006
O O14 0.362868 0.236732 0.219771
O O15 0.162351 0.500000 0.799641
O O16 0.500000 0.500000 0.617312
O O17 0.500000 0.331163 0.500000
#
# Coordination Sequence:
#
# PCOD8289344 Si02
#       7
#    16   8   8  16  16  16   8
#     4  11  21  32  46  66  91 125 166 207 249 293
#     4   7  14  29  49  65  79 110 153 194 237 287
#     4   9  17  31  47  63  85 116 157 200 243 289
#     4   9  19  35  53  72  96 132 168 197 236 291
#     4  10  19  34  51  67  90 124 164 207 253 296
#     4  11  22  33  47  69  97 127 162 204 247 290
#     4   9  17  31  53  77  99 124 155 198 243 285
#
# _framework density 17.898187
#
# number of rings (size 3 to 8) (size 9 to 14) (size 15 to 20)
#    0.000    2.273    0.000    4.909    1.273    2.545 
#    0.000    1.364    0.000    0.000    0.000    0.000 
#    0.000    0.727    0.000    8.182    0.000    3.636 
#
# Total GULP energy -545206.601754 kJ/mol
# GULP energy per Si atom -12391.059131 kJ/mol
# Density = 1.785745 g / cm^3
# Si number density = 17.898187 Si / 1000 Ang^3
#
#
#
# Elastic Constant Matrix: (Units=GPa)
#
#
# Indices 1 2 3 4 5 6 
#
# 1 43.9579 9.5132 30.8088 0.0000 0.0000 0.0000
# 2 9.5132 48.8444 21.5568 0.0000 0.0000 0.0000
# 3 30.8088 21.5568 140.9346 0.0000 0.0000 0.0000
# 4 0.0000 0.0000 0.0000 29.3811 0.0000 0.0000
# 5 0.0000 0.0000 0.0000 0.0000 13.7611 0.0000
# 6 0.0000 0.0000 0.0000 0.0000 0.0000 14.8396
#
#
#
# Elastic Compliance Matrix: (Units=1/GPa)
#
#
# Indices 1 2 3 4 5 6 
#
# 1 0.027235 -0.002871 -0.005515 0.000000 0.000000 0.000000
# 2 -0.002871 0.022258 -0.002777 0.000000 0.000000 0.000000
# 3 -0.005515 -0.002777 0.008726 0.000000 0.000000 0.000000
# 4 0.000000 0.000000 0.000000 0.034036 0.000000 0.000000
# 5 0.000000 0.000000 0.000000 0.000000 0.072669 0.000000
# 6 0.000000 0.000000 0.000000 0.000000 0.000000 0.067387
#
#
# Mechanical properties :
#
#
# Convention : Reuss Voigt Hill
#
# Bulk Modulus (GPa) = 27.85947 39.72162 33.79054
# Shear Modulus (GPa) = 18.75471 23.05356 20.90413
#
# Velocity S-wave (km/s) = 3.24057 3.59282 3.42123
# Velocity P-wave (km/s) = 5.44068 6.28112 5.87595
#
# Compressibility (1/GPa) = 0.03589444
#
# Stress axis : x y z
#
# Youngs Moduli (GPa) = 36.71694 44.92801 114.60311
#
# Poissons Ratio (x) = 0.12897 0.63200
# Poissons Ratio (y) = 0.10540 0.31824
# Poissons Ratio (z) = 0.20248 0.12476
#
# Static dielectric constant tensor:
#      x y z
#    x 2.919980 0.000000 0.000000 
#    y 0.000000 3.246980 0.000000 
#    z 0.000000 0.000000 4.162670 
# 
# 
# High freq. dielectric constant tensor:
#      x y z
#    x 1.626630 0.000000 0.000000 
#    y 0.000000 1.688660 0.000000 
#    z 0.000000 0.000000 1.709540 
# 
# From -- ./inp_files/16733.got.cif
#   From: 2010.06.25/outbox.cif.g09.slc.cpg/sg71_9_cif.got.tgz:16733.got - 2010.06.28 04:59:45.
