data_PCOD8289124
_publ_section_title
;
Structure prediction by ZEFSAII (Michael W. Deem and Ramdas Pophale) SiO2 
 PCOD8289124
Probable space group: I M M M
;
_chemical_formula_sum "Si O2"
_cell_formula_units_Z 120
_cell_length_a 16.141150
_cell_length_b 13.915132
_cell_length_c 27.710049
_cell_angle_alpha 90.000000
_cell_angle_beta 90.000000
_cell_angle_gamma 90.000000
_cell_volume 6223.849719
_symmetry_space_group_name_H-M "I M M M"
_symmetry_group_IT_number 71
_symmetry_cell_setting 'orthorhombic'
loop_
_space_group_symop_operation_xyz
x,y,z
-x,-y,z
x,-y,-z
-x,y,-z
-x,-y,-z
x,y,-z
-x,y,z
x,-y,z
1/2+x,1/2+y,1/2+z
1/2-x,1/2-y,1/2+z
1/2+x,1/2-y,1/2-z
1/2-x,1/2+y,1/2-z
1/2-x,1/2-y,1/2-z
1/2+x,1/2+y,1/2-z
1/2-x,1/2+y,1/2+z
1/2+x,1/2-y,1/2+z
loop_
_atom_site_type_symbol
_atom_site_label
_atom_site_fract_x
_atom_site_fract_y
_atom_site_fract_z
Si Si1 0.700636 0.387212 0.396585
Si Si2 0.854433 0.896825 0.713036
Si Si3 0.500000 0.110927 0.057383
Si Si4 0.164276 0.722018 0.555568
Si Si5 0.087487 0.721062 0.755213
Si Si6 0.272970 0.104647 0.203770
Si Si7 0.094805 0.725483 0.132436
Si Si8 0.256675 0.612193 0.117050
O O1 0.679472 0.500000 0.398955
O O2 0.759928 0.354294 0.440204
O O3 0.750670 0.353600 0.348639
O O4 0.615682 0.325528 0.395607
O O5 0.923598 0.816833 0.722306
O O6 0.807982 0.900689 0.764026
O O7 0.789182 0.871977 0.671171
O O8 0.896712 0.000000 0.702207
O O9 0.580992 0.169833 0.075809
O O10 0.500000 0.000000 0.077347
O O11 0.500000 0.105859 0.000000
O O12 0.151923 0.749121 0.500000
O O13 0.185638 0.821815 0.582760
O O14 0.161412 0.665478 0.732057
O O15 0.105814 0.743605 0.810756
O O16 0.000000 0.664811 0.751118
O O17 0.312093 0.000000 0.195806
O O18 0.159790 0.643714 0.114979
O O19 0.000000 0.695426 0.119608
O O20 0.262692 0.500000 0.101277
#
# Coordination Sequence:
#
# PCOD8289124 Si02
#       8
#    16  16   8  16  16  16  16  16
#     4  10  20  35  55  79 108 144 181 217 269 334
#     4  10  19  34  53  72 101 144 183 215 261 322
#     4   9  18  36  63  91 117 143 172 216 275 331
#     4  10  21  38  61  87 111 139 181 227 271 324
#     4  11  20  30  48  72 104 143 179 222 267 307
#     4  10  19  33  51  72 103 143 180 214 259 318
#     4  10  20  32  51  81 110 140 183 230 273 321
#     4  10  21  38  58  79 107 147 190 229 273 324
#
# _framework density 19.280671999999999
#
# number of rings (size 3 to 8) (size 9 to 14) (size 15 to 20)
#    0.000    1.933    2.667    2.400    0.000    2.133 
#    4.800    3.000    0.000    7.600    0.000    7.467 
#    0.000    0.000    0.000    0.000    0.000    0.000 
#
# Total GULP energy -743395.651170 kJ/mol
# GULP energy per Si atom -12389.927520 kJ/mol
# Density = 1.923679 g / cm^3
# Si number density = 19.280672 Si / 1000 Ang^3
#
#
#
# Elastic Constant Matrix: (Units=GPa)
#
#
# Indices 1 2 3 4 5 6 
#
# 1 95.7361 46.4798 19.1136 0.0000 0.0000 0.0000
# 2 46.4798 106.5785 19.8060 0.0000 0.0000 0.0000
# 3 19.1136 19.8060 41.7854 0.0000 0.0000 0.0000
# 4 0.0000 0.0000 0.0000 21.7467 0.0000 0.0000
# 5 0.0000 0.0000 0.0000 0.0000 22.4380 0.0000
# 6 0.0000 0.0000 0.0000 0.0000 0.0000 -254.6840
#
#
#
# Elastic Compliance Matrix: (Units=1/GPa)
#
#
# Indices 1 2 3 4 5 6 
#
# 1 0.013777 -0.005304 -0.003788 0.000000 0.000000 0.000000
# 2 -0.005304 0.012331 -0.003419 0.000000 0.000000 0.000000
# 3 -0.003788 -0.003419 0.027285 0.000000 0.000000 0.000000
# 4 0.000000 0.000000 0.000000 0.045984 0.000000 0.000000
# 5 0.000000 0.000000 0.000000 0.000000 0.044567 0.000000
# 6 0.000000 0.000000 0.000000 0.000000 0.000000 -0.003926
#
#
# Mechanical properties :
#
#
# Convention : Reuss Voigt Hill
#
# Bulk Modulus (GPa) = 35.24635 46.09987 40.67311
# Shear Modulus (GPa) = 28.65394 -31.51981 -1.43294
#
# Velocity S-wave (km/s) = 3.85924 -4.04764 -0.86302
# Velocity P-wave (km/s) = 6.17889 1.45509 4.48865
#
# Compressibility (1/GPa) = 0.02837173
#
# Stress axis : x y z
#
# Youngs Moduli (GPa) = 72.58567 81.09432 36.65043
#
# Poissons Ratio (x) = 0.43015 0.13882
# Poissons Ratio (y) = 0.38502 0.12530
# Poissons Ratio (z) = 0.27493 0.27723
#
# Static dielectric constant tensor:
#      x y z
#    x 3.410720 0.000000 0.000000 
#    y 0.000000 5.510040 0.000000 
#    z 0.000000 0.000000 3.346260 
# 
# 
# High freq. dielectric constant tensor:
#      x y z
#    x 1.741060 0.000000 0.000000 
#    y 0.000000 1.757540 0.000000 
#    z 0.000000 0.000000 1.724180 
# 
# From -- ./inp_files/70150.got.cif
#   From: 2010.06.25/outbox.cif.g09.slc.cpg/sg71_36_cif.got.tgz:70150.got - 2010.06.28 04:59:45.
