data_PCOD8289420
_publ_section_title
;
Structure prediction by ZEFSAII (Michael W. Deem and Ramdas Pophale) SiO2 
 PCOD8289420
Probable space group: I M M M
;
_chemical_formula_sum "Si O2"
_cell_formula_units_Z 120
_cell_length_a 12.376787
_cell_length_b 19.300883
_cell_length_c 26.709676
_cell_angle_alpha 90.000000
_cell_angle_beta 90.000000
_cell_angle_gamma 90.000000
_cell_volume 6380.485336
_symmetry_space_group_name_H-M "I M M M"
_symmetry_group_IT_number 71
_symmetry_cell_setting 'orthorhombic'
loop_
_space_group_symop_operation_xyz
x,y,z
-x,-y,z
x,-y,-z
-x,y,-z
-x,-y,-z
x,y,-z
-x,y,z
x,-y,z
1/2+x,1/2+y,1/2+z
1/2-x,1/2-y,1/2+z
1/2+x,1/2-y,1/2-z
1/2-x,1/2+y,1/2-z
1/2-x,1/2-y,1/2-z
1/2+x,1/2+y,1/2-z
1/2-x,1/2+y,1/2+z
1/2+x,1/2-y,1/2+z
loop_
_atom_site_type_symbol
_atom_site_label
_atom_site_fract_x
_atom_site_fract_y
_atom_site_fract_z
Si Si1 0.881942 0.580005 0.656805
Si Si2 0.628113 0.687278 0.202163
Si Si3 0.300461 0.418039 0.877824
Si Si4 0.779391 0.186032 0.810818
Si Si5 0.000000 0.081984 0.555606
Si Si6 0.719737 0.077896 0.945205
Si Si7 0.873541 0.347417 0.942783
Si Si8 0.376516 0.694709 0.415662
O O1 0.873572 0.500000 0.669783
O O2 0.789186 0.615603 0.689161
O O3 0.867701 0.594678 0.597485
O O4 0.000000 0.608721 0.671817
O O5 0.500000 0.693187 0.192019
O O6 0.678643 0.619718 0.175183
O O7 0.691859 0.753348 0.181458
O O8 0.649444 0.685521 0.261244
O O9 0.302369 0.500000 0.867612
O O10 0.394071 0.392674 0.915401
O O11 0.187735 0.397277 0.903748
O O12 0.863461 0.190023 0.855991
O O13 0.000000 0.114888 0.500000
O O14 0.000000 0.000000 0.551883
O O15 0.816467 0.132418 0.943051
O O16 0.766290 0.000000 0.937000
O O17 0.664365 0.083619 0.000000
O O18 0.833203 0.268598 0.935488
O O19 0.000000 0.353874 0.929870
O O20 0.850437 0.370803 0.000000
O O21 0.500000 0.686489 0.430603
#
# Coordination Sequence:
#
# PCOD8289420 Si02
#       8
#    16  16  16  16   8  16  16  16
#     4   9  18  34  55  78 107 142 180 224 271 321
#     4  11  22  38  60  85 111 144 183 228 282 335
#     4  11  22  38  58  84 117 150 189 238 291 348
#     4  10  21  37  58  83 109 144 183 228 272 332
#     4   9  18  34  58  84 112 150 187 225 282 346
#     4   9  18  31  49  77 111 146 186 230 277 329
#     4  10  21  37  58  83 114 155 197 238 286 339
#     4  10  19  34  55  79 110 148 189 231 277 332
#
# _framework density 18.807345999999999
#
# number of rings (size 3 to 8) (size 9 to 14) (size 15 to 20)
#    0.000    2.067    2.000    1.600    0.000    2.933 
#    0.000    3.333    0.000    2.400    0.000    0.000 
#    0.000    0.000    0.000    0.000    0.000    0.000 
#
# Total GULP energy -743899.219811 kJ/mol
# GULP energy per Si atom -12398.320330 kJ/mol
# Density = 1.876454 g / cm^3
# Si number density = 18.807346 Si / 1000 Ang^3
#
#
#
# Elastic Constant Matrix: (Units=GPa)
#
#
# Indices 1 2 3 4 5 6 
#
# 1 67.1272 28.0583 5.5015 0.0000 0.0000 0.0000
# 2 28.0583 78.1858 17.2814 0.0000 0.0000 0.0000
# 3 5.5015 17.2814 51.6737 0.0000 0.0000 0.0000
# 4 0.0000 0.0000 0.0000 25.2485 0.0000 0.0000
# 5 0.0000 0.0000 0.0000 0.0000 21.8305 0.0000
# 6 0.0000 0.0000 0.0000 0.0000 0.0000 27.3653
#
#
#
# Elastic Compliance Matrix: (Units=1/GPa)
#
#
# Indices 1 2 3 4 5 6 
#
# 1 0.017529 -0.006347 0.000257 0.000000 0.000000 0.000000
# 2 -0.006347 0.016109 -0.004712 0.000000 0.000000 0.000000
# 3 0.000257 -0.004712 0.020901 0.000000 0.000000 0.000000
# 4 0.000000 0.000000 0.000000 0.039606 0.000000 0.000000
# 5 0.000000 0.000000 0.000000 0.000000 0.045807 0.000000
# 6 0.000000 0.000000 0.000000 0.000000 0.000000 0.036543
#
#
# Mechanical properties :
#
#
# Convention : Reuss Voigt Hill
#
# Bulk Modulus (GPa) = 30.36372 33.18547 31.77459
# Shear Modulus (GPa) = 23.91444 24.63190 24.27317
#
# Velocity S-wave (km/s) = 3.56975 3.62290 3.59642
# Velocity P-wave (km/s) = 5.75938 5.93159 5.84612
#
# Compressibility (1/GPa) = 0.03293404
#
# Stress axis : x y z
#
# Youngs Moduli (GPa) = 57.04774 62.07583 47.84539
#
# Poissons Ratio (x) = 0.39402 -0.01227
# Poissons Ratio (y) = 0.36210 0.22543
# Poissons Ratio (z) = -0.01463 0.29248
#
# Static dielectric constant tensor:
#      x y z
#    x 3.360640 0.000000 0.000000 
#    y 0.000000 3.453400 0.000000 
#    z 0.000000 0.000000 3.443430 
# 
# 
# High freq. dielectric constant tensor:
#      x y z
#    x 1.725530 0.000000 0.000000 
#    y 0.000000 1.728910 0.000000 
#    z 0.000000 0.000000 1.733120 
# 
# From -- ./inp_files/59088.got.cif
#   From: 2010.06.25/outbox.cif.g09.slc.cpg/sg71_30_cif.got.tgz:59088.got - 2010.06.28 04:59:45.
