data_PCOD8289221
_publ_section_title
;
Structure prediction by ZEFSAII (Michael W. Deem and Ramdas Pophale) SiO2 
 PCOD8289221
Probable space group: I M M M
;
_chemical_formula_sum "Si O2"
_cell_formula_units_Z 64
_cell_length_a 15.627804
_cell_length_b 8.818823
_cell_length_c 24.175452
_cell_angle_alpha 90.000000
_cell_angle_beta 90.000000
_cell_angle_gamma 90.000000
_cell_volume 3331.832687
_symmetry_space_group_name_H-M "I M M M"
_symmetry_group_IT_number 71
_symmetry_cell_setting 'orthorhombic'
loop_
_space_group_symop_operation_xyz
x,y,z
-x,-y,z
x,-y,-z
-x,y,-z
-x,-y,-z
x,y,-z
-x,y,z
x,-y,z
1/2+x,1/2+y,1/2+z
1/2-x,1/2-y,1/2+z
1/2+x,1/2-y,1/2-z
1/2-x,1/2+y,1/2-z
1/2-x,1/2-y,1/2-z
1/2+x,1/2+y,1/2-z
1/2-x,1/2+y,1/2+z
1/2+x,1/2-y,1/2+z
loop_
_atom_site_type_symbol
_atom_site_label
_atom_site_fract_x
_atom_site_fract_y
_atom_site_fract_z
Si Si1 0.597163 0.180451 0.000000
Si Si2 0.153029 0.821171 0.881415
Si Si3 0.904690 0.820471 0.000000
Si Si4 0.500000 0.179416 0.314348
Si Si5 0.843409 0.679660 0.383072
Si Si6 0.500000 0.180784 0.189226
O O1 0.642638 0.245308 0.944931
O O2 0.500000 0.236839 0.000000
O O3 0.602055 0.000000 0.000000
O O4 0.248636 0.775841 0.861814
O O5 0.085462 0.737357 0.843269
O O6 0.136178 0.000000 0.876726
O O7 0.143756 0.765498 0.944913
O O8 0.000000 0.751036 0.000000
O O9 0.909362 0.000000 0.000000
O O10 0.500000 0.241439 0.251723
O O11 0.500000 0.000000 0.316065
O O12 0.852606 0.500000 0.385893
O O13 0.915154 0.744903 0.341402
O O14 0.500000 0.000000 0.187927
#
# Coordination Sequence:
#
# PCOD8289221 Si02
#       6
#     8  16   8   8  16   8
#     4   9  13  21  43  76 109 130 151 193 250 309
#     4  10  19  33  54  77 100 129 165 204 248 299
#     4   9  15  27  49  74 101 125 149 197 256 295
#     4  11  23  36  49  67  99 139 174 209 246 284
#     4   9  16  27  47  74 103 132 160 197 249 303
#     4   9  18  32  46  67 101 135 164 201 250 294
#
# _framework density 19.208646999999999
#
# number of rings (size 3 to 8) (size 9 to 14) (size 15 to 20)
#    0.000    2.500    2.500    1.125    0.000    4.000 
#    0.000    1.250    0.000    1.500    0.000    0.000 
#    0.000    1.000    0.000    0.000    0.000    0.000 
#
# Total GULP energy -396657.527374 kJ/mol
# GULP energy per Si atom -12395.547730 kJ/mol
# Density = 1.916493 g / cm^3
# Si number density = 19.208647 Si / 1000 Ang^3
#
#
#
# Elastic Constant Matrix: (Units=GPa)
#
#
# Indices 1 2 3 4 5 6 
#
# 1 180.5365 25.6741 93.9906 0.0000 0.0000 0.0000
# 2 25.6741 21.2368 25.1466 0.0000 0.0000 0.0000
# 3 93.9906 25.1466 171.9162 0.0000 0.0000 0.0000
# 4 0.0000 0.0000 0.0000 11.8346 0.0000 0.0000
# 5 0.0000 0.0000 0.0000 0.0000 2.5145 0.0000
# 6 0.0000 0.0000 0.0000 0.0000 0.0000 9.9375
#
#
#
# Elastic Compliance Matrix: (Units=1/GPa)
#
#
# Indices 1 2 3 4 5 6 
#
# 1 0.008261 -0.005611 -0.003696 0.000000 0.000000 0.000000
# 2 -0.005611 0.060763 -0.005820 0.000000 0.000000 0.000000
# 3 -0.003696 -0.005820 0.008689 0.000000 0.000000 0.000000
# 4 0.000000 0.000000 0.000000 0.084498 0.000000 0.000000
# 5 0.000000 0.000000 0.000000 0.000000 0.397698 0.000000
# 6 0.000000 0.000000 0.000000 0.000000 0.000000 0.100629
#
#
# Mechanical properties :
#
#
# Convention : Reuss Voigt Hill
#
# Bulk Modulus (GPa) = 21.07086 73.70134 47.38610
# Shear Modulus (GPa) = 7.07601 20.11585 13.59593
#
# Velocity S-wave (km/s) = 1.92140 3.23960 2.66334
# Velocity P-wave (km/s) = 3.98944 7.24193 5.84641
#
# Compressibility (1/GPa) = 0.04745891
#
# Stress axis : x y z
#
# Youngs Moduli (GPa) = 121.04947 16.45729 115.09183
#
# Poissons Ratio (x) = 0.09234 0.42536
# Poissons Ratio (y) = 0.67921 0.66987
# Poissons Ratio (z) = 0.44737 0.09579
#
# Static dielectric constant tensor:
#      x y z
#    x 3.758340 0.000000 0.000000 
#    y 0.000000 2.796960 0.000000 
#    z 0.000000 0.000000 3.740710 
# 
# 
# High freq. dielectric constant tensor:
#      x y z
#    x 1.766660 0.000000 0.000000 
#    y 0.000000 1.669140 0.000000 
#    z 0.000000 0.000000 1.751800 
# 
# From -- ./inp_files/5622.got.cif
#   From: 2010.06.25/outbox.cif.g09.slc.cpg/sg71_3_cif.got.tgz:5622.got - 2010.06.28 04:59:45.
