data_PCOD8289274
_publ_section_title
;
Structure prediction by ZEFSAII (Michael W. Deem and Ramdas Pophale) SiO2 
 PCOD8289274
Probable space group: I M M M
;
_chemical_formula_sum "Si O2"
_cell_formula_units_Z 72
_cell_length_a 15.545720
_cell_length_b 26.910489
_cell_length_c 9.025442
_cell_angle_alpha 90.000000
_cell_angle_beta 90.000000
_cell_angle_gamma 90.000000
_cell_volume 3775.729824
_symmetry_space_group_name_H-M "I M M M"
_symmetry_group_IT_number 71
_symmetry_cell_setting 'orthorhombic'
loop_
_space_group_symop_operation_xyz
x,y,z
-x,-y,z
x,-y,-z
-x,y,-z
-x,-y,-z
x,y,-z
-x,y,z
x,-y,z
1/2+x,1/2+y,1/2+z
1/2-x,1/2-y,1/2+z
1/2+x,1/2-y,1/2-z
1/2-x,1/2+y,1/2-z
1/2-x,1/2-y,1/2-z
1/2+x,1/2+y,1/2-z
1/2-x,1/2+y,1/2+z
1/2+x,1/2-y,1/2+z
loop_
_atom_site_type_symbol
_atom_site_label
_atom_site_fract_x
_atom_site_fract_y
_atom_site_fract_z
Si Si1 0.500000 0.718282 0.173379
Si Si2 0.832983 0.055732 0.175950
Si Si3 0.170742 0.723496 0.326349
Si Si4 0.500000 0.942229 0.674501
Si Si5 0.000000 0.887076 0.176306
Si Si6 0.339680 0.890246 0.175436
O O1 0.583045 0.749682 0.220270
O O2 0.500000 0.668215 0.264696
O O3 0.500000 0.706032 0.000000
O O4 0.748158 0.084179 0.229400
O O5 0.916247 0.084422 0.237697
O O6 0.832249 0.000000 0.241184
O O7 0.836712 0.054001 0.000000
O O8 0.186993 0.726012 0.500000
O O9 0.250000 0.750000 0.250000
O O10 0.164072 0.666755 0.273429
O O11 0.500000 0.933773 0.500000
O O12 0.583498 0.917266 0.742836
O O13 0.500000 0.000000 0.717006
O O14 0.000000 0.885101 0.000000
O O15 0.353877 0.895149 0.000000
#
# Coordination Sequence:
#
# PCOD8289274 Si02
#       6
#     8  16  16   8   8  16
#     4  10  21  36  52  74 110 147 174 210 264 316
#     4   9  17  30  52  82 109 133 168 217 267 310
#     4  10  21  37  57  82 111 143 180 223 269 319
#     4  11  24  39  55  80 112 143 180 230 285 333
#     4  10  19  33  55  80 106 137 176 218 255 303
#     4  10  20  36  58  81 107 143 185 223 265 325
#
# _framework density 19.069161000000001
#
# number of rings (size 3 to 8) (size 9 to 14) (size 15 to 20)
#    0.000    2.111    0.000    3.333    0.000    8.444 
#    0.000    2.222    0.000    2.667    0.000    0.000 
#    0.000    0.000    0.000    0.000    0.000    0.000 
#
# Total GULP energy -446514.361104 kJ/mol
# GULP energy per Si atom -12403.176697 kJ/mol
# Density = 1.902576 g / cm^3
# Si number density = 19.069161 Si / 1000 Ang^3
#
#
#
# Elastic Constant Matrix: (Units=GPa)
#
#
# Indices 1 2 3 4 5 6 
#
# 1 213.4841 117.2171 48.4708 -0.0014 0.0004 0.0002
# 2 117.2171 206.7351 47.7605 -0.0014 0.0006 0.0001
# 3 48.4708 47.7605 33.1293 -0.0103 0.0027 -0.0004
# 4 -0.0014 -0.0014 -0.0103 30.3049 0.0010 -0.0001
# 5 0.0004 0.0006 0.0027 0.0010 17.7942 -0.0005
# 6 0.0002 0.0001 -0.0004 -0.0001 -0.0005 46.6045
#
#
#
# Elastic Compliance Matrix: (Units=1/GPa)
#
#
# Indices 1 2 3 4 5 6 
#
# 1 0.007917 -0.002718 -0.007664 -0.000002 0.000001 0.000000
# 2 -0.002718 0.008186 -0.007824 -0.000002 0.000001 0.000000
# 3 -0.007664 -0.007824 0.052678 0.000017 -0.000007 0.000000
# 4 -0.000002 -0.000002 0.000017 0.032998 -0.000002 0.000000
# 5 0.000001 0.000001 -0.000007 -0.000002 0.056198 0.000001
# 6 0.000000 0.000000 0.000000 0.000000 0.000001 0.021457
#
#
# Mechanical properties :
#
#
# Convention : Reuss Voigt Hill
#
# Bulk Modulus (GPa) = 30.89538 97.80504 64.35021
# Shear Modulus (GPa) = 22.06180 34.93407 28.49793
#
# Velocity S-wave (km/s) = 3.40507 4.28479 3.87001
# Velocity P-wave (km/s) = 5.62994 8.71093 7.33405
#
# Compressibility (1/GPa) = 0.03236730
#
# Stress axis : x y z
#
# Youngs Moduli (GPa) = 126.31408 122.16239 18.98325
#
# Poissons Ratio (x) = 0.33205 0.14549
# Poissons Ratio (y) = 0.34334 0.14853
# Poissons Ratio (z) = 0.96811 0.95582
#
# Static dielectric constant tensor:
#      x y z
#    x 3.679650 0.000000 0.000000 
#    y 0.000000 3.655160 0.000000 
#    z 0.000000 0.000000 3.154260 
# 
# 
# High freq. dielectric constant tensor:
#      x y z
#    x 1.763540 0.000000 0.000000 
#    y 0.000000 1.762900 0.000000 
#    z 0.000000 0.000000 1.705790 
# 
# From -- ./inp_files/6115.got.cif
#   From: 2010.06.25/outbox.cif.g09.slc.cpg/sg71_4_cif.got.tgz:6115.got - 2010.06.28 04:59:45.
