data_PCOD8289049
_publ_section_title
;
Structure prediction by ZEFSAII (Michael W. Deem and Ramdas Pophale) SiO2 
 PCOD8289049
Probable space group: I M M M
;
_chemical_formula_sum "Si O2"
_cell_formula_units_Z 88
_cell_length_a 19.232474
_cell_length_b 8.031061
_cell_length_c 28.641799
_cell_angle_alpha 90.000000
_cell_angle_beta 90.000000
_cell_angle_gamma 90.000000
_cell_volume 4423.931271
_symmetry_space_group_name_H-M "I M M M"
_symmetry_group_IT_number 71
_symmetry_cell_setting 'orthorhombic'
loop_
_space_group_symop_operation_xyz
x,y,z
-x,-y,z
x,-y,-z
-x,y,-z
-x,-y,-z
x,y,-z
-x,y,z
x,-y,z
1/2+x,1/2+y,1/2+z
1/2-x,1/2-y,1/2+z
1/2+x,1/2-y,1/2-z
1/2-x,1/2+y,1/2-z
1/2-x,1/2-y,1/2-z
1/2+x,1/2+y,1/2-z
1/2-x,1/2+y,1/2+z
1/2+x,1/2-y,1/2+z
loop_
_atom_site_type_symbol
_atom_site_label
_atom_site_fract_x
_atom_site_fract_y
_atom_site_fract_z
Si Si1 0.802064 0.303498 0.054226
Si Si2 0.343075 0.308646 0.293755
Si Si3 0.923407 0.692468 0.120550
Si Si4 0.658095 0.189068 0.906122
Si Si5 0.581767 0.500000 0.052255
Si Si6 0.812303 0.691640 0.698857
O O1 0.790603 0.500000 0.061755
O O2 0.868452 0.233677 0.083107
O O3 0.735516 0.208409 0.074172
O O4 0.813197 0.259806 0.000000
O O5 0.348147 0.500000 0.307972
O O6 0.397765 0.213601 0.326251
O O7 0.265952 0.234459 0.303047
O O8 0.358823 0.282737 0.238545
O O9 0.930853 0.500000 0.109411
O O10 0.000000 0.776291 0.114668
O O11 0.607503 0.327847 0.926117
O O12 0.653009 0.218765 0.850915
O O13 0.633359 0.000000 0.918248
O O14 0.500000 0.500000 0.055526
O O15 0.610446 0.500000 0.000000
O O16 0.807624 0.500000 0.713144
#
# Coordination Sequence:
#
# PCOD8289049 Si02
#       6
#    16  16  16  16   8  16
#     4  10  20  35  58  87 119 158 208 261 306 354
#     4  10  19  32  54  83 113 150 193 242 299 360
#     4  10  21  36  54  79 119 167 208 252 305 361
#     4  11  22  39  66  96 124 158 202 253 306 363
#     4  11  26  46  66  92 127 161 197 245 307 379
#     4   9  19  34  56  87 116 144 191 247 297 355
#
# _framework density 19.891808999999999
#
# number of rings (size 3 to 8) (size 9 to 14) (size 15 to 20)
#    0.000    1.909    2.727    1.091    1.273    3.273 
#    0.000    3.636    0.000    1.091    0.000    2.545 
#    0.000    0.000    0.000    0.000    0.000    0.000 
#
# Total GULP energy -545504.393379 kJ/mol
# GULP energy per Si atom -12397.827122 kJ/mol
# Density = 1.984653 g / cm^3
# Si number density = 19.891809 Si / 1000 Ang^3
#
#
#
# Elastic Constant Matrix: (Units=GPa)
#
#
# Indices 1 2 3 4 5 6 
#
# 1 44.0787 19.5903 30.7537 0.0000 0.0000 0.0000
# 2 19.5903 76.4101 38.3284 0.0000 0.0000 0.0000
# 3 30.7537 38.3284 127.9006 0.0000 0.0000 0.0000
# 4 0.0000 0.0000 0.0000 27.7512 0.0000 0.0000
# 5 0.0000 0.0000 0.0000 0.0000 24.5955 0.0000
# 6 0.0000 0.0000 0.0000 0.0000 0.0000 11.7077
#
#
#
# Elastic Compliance Matrix: (Units=1/GPa)
#
#
# Indices 1 2 3 4 5 6 
#
# 1 0.028550 -0.004562 -0.005498 0.000000 0.000000 0.000000
# 2 -0.004562 0.016132 -0.003737 0.000000 0.000000 0.000000
# 3 -0.005498 -0.003737 0.010260 0.000000 0.000000 0.000000
# 4 0.000000 0.000000 0.000000 0.036034 0.000000 0.000000
# 5 0.000000 0.000000 0.000000 0.000000 0.040658 0.000000
# 6 0.000000 0.000000 0.000000 0.000000 0.000000 0.085414
#
#
# Mechanical properties :
#
#
# Convention : Reuss Voigt Hill
#
# Bulk Modulus (GPa) = 36.56573 47.30381 41.93477
# Shear Modulus (GPa) = 19.70381 23.45867 21.58124
#
# Velocity S-wave (km/s) = 3.15071 3.43784 3.29740
# Velocity P-wave (km/s) = 5.62656 6.29210 5.96861
#
# Compressibility (1/GPa) = 0.02734801
#
# Stress axis : x y z
#
# Youngs Moduli (GPa) = 35.02628 61.99023 97.46141
#
# Poissons Ratio (x) = 0.28280 0.53582
# Poissons Ratio (y) = 0.15979 0.36424
# Poissons Ratio (z) = 0.19257 0.23167
#
# Static dielectric constant tensor:
#      x y z
#    x 3.560250 0.000000 0.000000 
#    y 0.000000 3.555460 0.000000 
#    z 0.000000 0.000000 3.791450 
# 
# 
# High freq. dielectric constant tensor:
#      x y z
#    x 1.748580 0.000000 0.000000 
#    y 0.000000 1.771080 0.000000 
#    z 0.000000 0.000000 1.788840 
# 
# From -- ./inp_files/70345.got.cif
#   From: 2010.06.25/outbox.cif.g09.slc.cpg/sg71_36_cif.got.tgz:70345.got - 2010.06.28 04:59:45.
