data_PCOD8289358
_publ_section_title
;
Structure prediction by ZEFSAII (Michael W. Deem and Ramdas Pophale) SiO2 
 PCOD8289358
Probable space group: I M M M
;
_chemical_formula_sum "Si O2"
_cell_formula_units_Z 88
_cell_length_a 19.141184
_cell_length_b 28.037552
_cell_length_c 9.182487
_cell_angle_alpha 90.000000
_cell_angle_beta 90.000000
_cell_angle_gamma 90.000000
_cell_volume 4927.983128
_symmetry_space_group_name_H-M "I M M M"
_symmetry_group_IT_number 71
_symmetry_cell_setting 'orthorhombic'
loop_
_space_group_symop_operation_xyz
x,y,z
-x,-y,z
x,-y,-z
-x,y,-z
-x,-y,-z
x,y,-z
-x,y,z
x,-y,z
1/2+x,1/2+y,1/2+z
1/2-x,1/2-y,1/2+z
1/2+x,1/2-y,1/2-z
1/2-x,1/2+y,1/2-z
1/2-x,1/2-y,1/2-z
1/2+x,1/2+y,1/2-z
1/2-x,1/2+y,1/2+z
1/2+x,1/2-y,1/2+z
loop_
_atom_site_type_symbol
_atom_site_label
_atom_site_fract_x
_atom_site_fract_y
_atom_site_fract_z
Si Si1 0.656394 0.085590 0.170952
Si Si2 0.582080 0.000000 0.669275
Si Si3 0.578256 0.178814 0.173672
Si Si4 0.417170 0.719255 0.159326
Si Si5 0.920723 0.116474 0.326400
Si Si6 0.190477 0.055142 0.168018
O O1 0.630799 0.137537 0.224617
O O2 0.738138 0.082323 0.207058
O O3 0.613451 0.046720 0.258133
O O4 0.642265 0.077262 0.000000
O O5 0.500000 0.000000 0.696130
O O6 0.601568 0.000000 0.500000
O O7 0.500000 0.166567 0.229654
O O8 0.604024 0.230623 0.238642
O O9 0.577328 0.183148 0.000000
O O10 0.500000 0.719773 0.141177
O O11 0.397052 0.668959 0.237198
O O12 0.381878 0.718764 0.000000
O O13 0.915041 0.116991 0.500000
O O14 0.871869 0.075729 0.263285
O O15 0.000000 0.104912 0.278391
O O16 0.200806 0.000000 0.207908
O O17 0.170817 0.061884 0.000000
#
# Coordination Sequence:
#
# PCOD8289358 Si02
#       6
#    16   8  16  16  16  16
#     4  10  19  34  53  73  98 132 175 210 239 288
#     4  11  23  35  49  73 104 135 168 209 255 292
#     4   8  13  23  46  77 100 123 161 207 246 278
#     4   7  11  23  44  72 102 124 150 197 250 291
#     4   9  18  33  54  77  98 124 162 205 247 301
#     4  10  21  36  50  68  99 134 165 204 257 301
#
# _framework density 17.857202999999998
#
# number of rings (size 3 to 8) (size 9 to 14) (size 15 to 20)
#    0.000    3.000    0.909    3.000    0.000    3.273 
#    0.000    2.727    0.000    1.091    0.000    2.545 
#    0.000    0.000    0.000    0.000    0.000    0.000 
#
# Total GULP energy -545128.019586 kJ/mol
# GULP energy per Si atom -12389.273172 kJ/mol
# Density = 1.781656 g / cm^3
# Si number density = 17.857203 Si / 1000 Ang^3
#
#
#
# Elastic Constant Matrix: (Units=GPa)
#
#
# Indices 1 2 3 4 5 6 
#
# 1 91.4358 55.1504 30.0169 0.0000 0.0000 0.0000
# 2 55.1504 102.7870 22.5892 0.0000 0.0000 0.0000
# 3 30.0169 22.5892 32.1682 0.0000 0.0000 0.0000
# 4 0.0000 0.0000 0.0000 6.0032 0.0000 0.0000
# 5 0.0000 0.0000 0.0000 0.0000 22.5458 0.0000
# 6 0.0000 0.0000 0.0000 0.0000 0.0000 -2.5844
#
#
#
# Elastic Compliance Matrix: (Units=1/GPa)
#
#
# Indices 1 2 3 4 5 6 
#
# 1 0.019972 -0.007828 -0.013139 0.000000 0.000000 0.000000
# 2 -0.007828 0.014573 -0.002928 0.000000 0.000000 0.000000
# 3 -0.013139 -0.002928 0.045403 0.000000 0.000000 0.000001
# 4 0.000000 0.000000 0.000000 0.166577 0.000000 0.000001
# 5 0.000000 0.000000 0.000000 0.000000 0.044354 0.000000
# 6 0.000000 0.000000 0.000001 0.000001 0.000000 -0.386937
#
#
# Mechanical properties :
#
#
# Convention : Reuss Voigt Hill
#
# Bulk Modulus (GPa) = 31.09811 49.10045 40.09928
# Shear Modulus (GPa) = -133.16372 13.10189 -60.03091
#
# Velocity S-wave (km/s) = -8.64484 2.71163 -5.80432
# Velocity P-wave (km/s) = 9.06597 6.11227 4.73455
#
# Compressibility (1/GPa) = 0.03215629
#
# Stress axis : x y z
#
# Youngs Moduli (GPa) = 50.07106 68.62140 22.02491
#
# Poissons Ratio (x) = 0.53719 0.28938
# Poissons Ratio (y) = 0.39197 0.06450
# Poissons Ratio (z) = 0.65787 0.20096
#
# Static dielectric constant tensor:
#      x y z
#    x 3.124130 0.000000 0.000000 
#    y 0.000000 3.903740 0.000000 
#    z 0.000000 0.000000 2.880610 
# 
# 
# High freq. dielectric constant tensor:
#      x y z
#    x 1.670930 0.000000 0.000000 
#    y 0.000000 1.714780 0.000000 
#    z 0.000000 0.000000 1.642390 
# 
# From -- ./inp_files/8880.got.cif
#   From: 2010.06.25/outbox.cif.g09.slc.cpg/sg71_5_cif.got.tgz:8880.got - 2010.06.28 04:59:45.
