data_PCOD8289547
_publ_section_title
;
Structure prediction by ZEFSAII (Michael W. Deem and Ramdas Pophale) SiO2 
 PCOD8289547
Probable space group: I M M M
;
_chemical_formula_sum "Si O2"
_cell_formula_units_Z 104
_cell_length_a 24.905418
_cell_length_b 25.675176
_cell_length_c 9.167896
_cell_angle_alpha 90.000000
_cell_angle_beta 90.000000
_cell_angle_gamma 90.000000
_cell_volume 5862.420178
_symmetry_space_group_name_H-M "I M M M"
_symmetry_group_IT_number 71
_symmetry_cell_setting 'orthorhombic'
loop_
_space_group_symop_operation_xyz
x,y,z
-x,-y,z
x,-y,-z
-x,y,-z
-x,-y,-z
x,y,-z
-x,y,z
x,-y,z
1/2+x,1/2+y,1/2+z
1/2-x,1/2-y,1/2+z
1/2+x,1/2-y,1/2-z
1/2-x,1/2+y,1/2-z
1/2-x,1/2-y,1/2-z
1/2+x,1/2+y,1/2-z
1/2-x,1/2+y,1/2+z
1/2+x,1/2-y,1/2+z
loop_
_atom_site_type_symbol
_atom_site_label
_atom_site_fract_x
_atom_site_fract_y
_atom_site_fract_z
Si Si1 0.810206 0.309369 0.830873
Si Si2 0.400085 0.349861 0.667014
Si Si3 0.938959 0.500000 0.171650
Si Si4 0.000000 0.776269 0.167349
Si Si5 0.097166 0.612729 0.171664
Si Si6 0.000000 0.330545 0.326272
Si Si7 0.811687 0.795031 0.330103
Si Si8 0.936762 0.057379 0.339722
O O1 0.844822 0.361181 0.790383
O O2 0.830087 0.258997 0.743719
O O3 0.747709 0.316121 0.790781
O O4 0.818149 0.296217 0.000000
O O5 0.382108 0.347221 0.500000
O O6 0.447996 0.310375 0.700565
O O7 0.350126 0.339144 0.770584
O O8 0.417184 0.407926 0.706174
O O9 0.905528 0.448312 0.219572
O O10 0.000000 0.500000 0.238294
O O11 0.945009 0.500000 0.000000
O O12 0.000000 0.729280 0.279878
O O13 0.000000 0.756164 0.000000
O O14 0.052634 0.642732 0.262376
O O15 0.084557 0.618470 0.000000
O O16 0.000000 0.335170 0.500000
O O17 0.818840 0.786675 0.500000
O O18 0.919368 0.079186 0.500000
O O19 0.000000 0.053913 0.333152
O O20 0.911883 0.000000 0.317556
#
# Coordination Sequence:
#
# PCOD8289547 Si02
#       8
#    16  16   8   8  16   8  16  16
#     4   9  19  35  55  78 103 135 175 219 265 315
#     4  11  21  34  52  76 104 139 177 215 258 309
#     4   9  16  30  56  84 102 130 176 213 254 305
#     4  10  22  36  48  70 106 141 175 211 254 307
#     4  10  19  35  57  77 102 136 174 216 258 310
#     4  12  24  33  47  77 110 138 168 206 258 313
#     4  10  20  34  53  77 107 138 174 218 267 320
#     4   9  18  33  53  76 102 133 168 209 259 308
#
# _framework density 17.740114999999999
#
# number of rings (size 3 to 8) (size 9 to 14) (size 15 to 20)
#    0.000    2.077    1.538    3.000    0.000    6.462 
#    0.000    1.538    1.692    0.000    0.000    0.000 
#    0.000    0.000    0.000    0.000    0.000    0.000 
#
# Total GULP energy -644612.219070 kJ/mol
# GULP energy per Si atom -12396.388828 kJ/mol
# Density = 1.769974 g / cm^3
# Si number density = 17.740115 Si / 1000 Ang^3
#
#
#
# Elastic Constant Matrix: (Units=GPa)
#
#
# Indices 1 2 3 4 5 6 
#
# 1 87.1451 54.8852 36.4442 0.0000 0.0000 0.0000
# 2 54.8852 125.9512 38.5634 0.0000 0.0000 0.0000
# 3 36.4442 38.5634 44.2199 0.0000 0.0000 0.0000
# 4 0.0000 0.0000 0.0000 26.4381 0.0000 0.0000
# 5 0.0000 0.0000 0.0000 0.0000 23.8033 0.0000
# 6 0.0000 0.0000 0.0000 0.0000 0.0000 26.2052
#
#
#
# Elastic Compliance Matrix: (Units=1/GPa)
#
#
# Indices 1 2 3 4 5 6 
#
# 1 0.019483 -0.004875 -0.011805 0.000000 0.000000 0.000000
# 2 -0.004875 0.012052 -0.006492 0.000000 0.000000 0.000000
# 3 -0.011805 -0.006492 0.038005 0.000000 0.000000 0.000000
# 4 0.000000 0.000000 0.000000 0.037824 0.000000 0.000000
# 5 0.000000 0.000000 0.000000 0.000000 0.042011 0.000000
# 6 0.000000 0.000000 0.000000 0.000000 0.000000 0.038160
#
#
# Mechanical properties :
#
#
# Convention : Reuss Voigt Hill
#
# Bulk Modulus (GPa) = 43.11360 57.45575 50.28468
# Shear Modulus (GPa) = 20.69439 23.78424 22.23931
#
# Velocity S-wave (km/s) = 3.41916 3.66553 3.54449
# Velocity P-wave (km/s) = 6.32006 7.09737 6.71996
#
# Compressibility (1/GPa) = 0.02319454
#
# Stress axis : x y z
#
# Youngs Moduli (GPa) = 51.32790 82.97478 26.31227
#
# Poissons Ratio (x) = 0.40454 0.31062
# Poissons Ratio (y) = 0.25025 0.17082
# Poissons Ratio (z) = 0.60593 0.53868
#
# Static dielectric constant tensor:
#      x y z
#    x 3.364030 0.000000 0.000000 
#    y 0.000000 3.557050 0.000000 
#    z 0.000000 0.000000 3.246510 
# 
# 
# High freq. dielectric constant tensor:
#      x y z
#    x 1.676600 0.000000 0.000000 
#    y 0.000000 1.685110 0.000000 
#    z 0.000000 0.000000 1.680050 
# 
# From -- ./inp_files/15357.got.cif
#   From: 2010.06.25/outbox.cif.g09.slc.cpg/sg71_8_cif.got.tgz:15357.got - 2010.06.28 04:59:45.
