data_PCOD8289233
_publ_section_title
;
Structure prediction by ZEFSAII (Michael W. Deem and Ramdas Pophale) SiO2 
 PCOD8289233
Probable space group: I M M M
;
_chemical_formula_sum "Si O2"
_cell_formula_units_Z 88
_cell_length_a 9.296979
_cell_length_b 19.193108
_cell_length_c 25.138662
_cell_angle_alpha 90.000000
_cell_angle_beta 90.000000
_cell_angle_gamma 90.000000
_cell_volume 4485.690610
_symmetry_space_group_name_H-M "I M M M"
_symmetry_group_IT_number 71
_symmetry_cell_setting 'orthorhombic'
loop_
_space_group_symop_operation_xyz
x,y,z
-x,-y,z
x,-y,-z
-x,y,-z
-x,-y,-z
x,y,-z
-x,y,z
x,-y,z
1/2+x,1/2+y,1/2+z
1/2-x,1/2-y,1/2+z
1/2+x,1/2-y,1/2-z
1/2-x,1/2+y,1/2-z
1/2-x,1/2-y,1/2-z
1/2+x,1/2+y,1/2-z
1/2-x,1/2+y,1/2+z
1/2+x,1/2-y,1/2+z
loop_
_atom_site_type_symbol
_atom_site_label
_atom_site_fract_x
_atom_site_fract_y
_atom_site_fract_z
Si Si1 0.840493 0.000000 0.063042
Si Si2 0.832545 0.298816 0.664477
Si Si3 0.671878 0.644738 0.166278
Si Si4 0.169476 0.421061 0.739583
Si Si5 0.670582 0.421709 0.058272
Si Si6 0.333910 0.132326 0.059591
O O1 0.755916 0.067706 0.082094
O O2 0.000000 0.000000 0.088002
O O3 0.847369 0.000000 0.000000
O O4 0.772272 0.222957 0.680934
O O5 0.767469 0.363893 0.697685
O O6 0.803352 0.305952 0.601104
O O7 0.000000 0.299615 0.675874
O O8 0.500000 0.638125 0.171734
O O9 0.747883 0.590404 0.205212
O O10 0.723887 0.627635 0.106158
O O11 0.202309 0.500000 0.719446
O O12 0.000000 0.411503 0.748986
O O13 0.500000 0.422995 0.058276
O O14 0.728897 0.500000 0.067759
O O15 0.724403 0.394401 0.000000
O O16 0.500000 0.109505 0.060105
O O17 0.287535 0.155708 0.000000
#
# Coordination Sequence:
#
# PCOD8289233 Si02
#       6
#     8  16  16  16  16  16
#     4   9  17  29  45  67  97 131 167 209 254 293
#     4   9  19  33  51  76 103 132 166 206 255 306
#     4  10  19  33  54  78 103 130 164 210 255 296
#     4  10  21  36  53  71  96 135 173 205 250 307
#     4   8  14  25  44  73 105 132 157 191 244 301
#     4   9  17  30  50  74  99 131 171 209 246 298
#
# _framework density 19.617937999999999
#
# number of rings (size 3 to 8) (size 9 to 14) (size 15 to 20)
#    0.000    2.818    0.000    1.909    1.273    2.909 
#    0.000    5.455    0.000    0.545    0.000    2.545 
#    0.000    0.000    0.000    0.000    0.000    0.000 
#
# Total GULP energy -545222.210041 kJ/mol
# GULP energy per Si atom -12391.413865 kJ/mol
# Density = 1.957329 g / cm^3
# Si number density = 19.617938 Si / 1000 Ang^3
#
#
#
# Elastic Constant Matrix: (Units=GPa)
#
#
# Indices 1 2 3 4 5 6 
#
# 1 28.8213 15.5331 13.9650 0.0000 0.0000 0.0000
# 2 15.5331 115.0118 51.7214 0.0000 0.0000 0.0000
# 3 13.9650 51.7214 111.8264 0.0000 0.0000 0.0000
# 4 0.0000 0.0000 0.0000 31.4344 0.0000 0.0000
# 5 0.0000 0.0000 0.0000 0.0000 19.1871 0.0000
# 6 0.0000 0.0000 0.0000 0.0000 0.0000 16.2038
#
#
#
# Elastic Compliance Matrix: (Units=1/GPa)
#
#
# Indices 1 2 3 4 5 6 
#
# 1 0.038207 -0.003806 -0.003011 0.000000 0.000000 0.000000
# 2 -0.003806 0.011357 -0.004778 0.000000 0.000000 0.000000
# 3 -0.003011 -0.004778 0.011528 0.000000 0.000000 0.000000
# 4 0.000000 0.000000 0.000000 0.031812 0.000000 0.000000
# 5 0.000000 0.000000 0.000000 0.000000 0.052118 0.000000
# 6 0.000000 0.000000 0.000000 0.000000 0.000000 0.061714
#
#
# Mechanical properties :
#
#
# Convention : Reuss Voigt Hill
#
# Bulk Modulus (GPa) = 26.38313 46.45540 36.41926
# Shear Modulus (GPa) = 20.61343 24.99440 22.80392
#
# Velocity S-wave (km/s) = 3.24504 3.57327 3.41310
# Velocity P-wave (km/s) = 5.24576 6.38403 5.84268
#
# Compressibility (1/GPa) = 0.03790300
#
# Stress axis : x y z
#
# Youngs Moduli (GPa) = 26.17336 88.04905 86.74411
#
# Poissons Ratio (x) = 0.33512 0.26118
# Poissons Ratio (y) = 0.09962 0.41443
# Poissons Ratio (z) = 0.07881 0.42066
#
# Static dielectric constant tensor:
#      x y z
#    x 3.168880 0.000000 0.000000 
#    y 0.000000 3.771410 0.000000 
#    z 0.000000 0.000000 3.757000 
# 
# 
# High freq. dielectric constant tensor:
#      x y z
#    x 1.709600 0.000000 0.000000 
#    y 0.000000 1.763990 0.000000 
#    z 0.000000 0.000000 1.771180 
# 
# From -- ./inp_files/57576.got.cif
#   From: 2010.06.25/outbox.cif.g09.slc.cpg/sg71_29_cif.got.tgz:57576.got - 2010.06.28 04:59:45.
