data_PCOD8289208
_publ_section_title
;
Structure prediction by ZEFSAII (Michael W. Deem and Ramdas Pophale) SiO2 
 PCOD8289208
Probable space group: I M M M
;
_chemical_formula_sum "Si O2"
_cell_formula_units_Z 96
_cell_length_a 10.232258
_cell_length_b 22.032823
_cell_length_c 25.269832
_cell_angle_alpha 90.000000
_cell_angle_beta 90.000000
_cell_angle_gamma 90.000000
_cell_volume 5696.970653
_symmetry_space_group_name_H-M "I M M M"
_symmetry_group_IT_number 71
_symmetry_cell_setting 'orthorhombic'
loop_
_space_group_symop_operation_xyz
x,y,z
-x,-y,z
x,-y,-z
-x,y,-z
-x,-y,-z
x,y,-z
-x,y,z
x,-y,z
1/2+x,1/2+y,1/2+z
1/2-x,1/2-y,1/2+z
1/2+x,1/2-y,1/2-z
1/2-x,1/2+y,1/2-z
1/2-x,1/2-y,1/2-z
1/2+x,1/2+y,1/2-z
1/2-x,1/2+y,1/2+z
1/2+x,1/2-y,1/2+z
loop_
_atom_site_type_symbol
_atom_site_label
_atom_site_fract_x
_atom_site_fract_y
_atom_site_fract_z
Si Si1 0.000000 0.431673 0.740581
Si Si2 0.150047 0.751385 0.556867
Si Si3 0.000000 0.566279 0.616681
Si Si4 0.752569 0.351272 0.260150
Si Si5 0.346018 0.740637 0.175025
Si Si6 0.000000 0.068884 0.785930
Si Si7 0.268001 0.121109 0.057248
Si Si8 0.000000 0.933413 0.909821
O O1 0.000000 0.439762 0.678506
O O2 0.871852 0.394301 0.757312
O O3 0.000000 0.500000 0.765966
O O4 0.174090 0.788038 0.500000
O O5 0.180628 0.781850 0.613948
O O6 0.240820 0.693117 0.554748
O O7 0.000000 0.729835 0.558046
O O8 0.130665 0.600999 0.601459
O O9 0.000000 0.500000 0.589957
O O10 0.725131 0.309162 0.209976
O O11 0.787047 0.307756 0.310777
O O12 0.628428 0.393860 0.270054
O O13 0.500000 0.742954 0.187589
O O14 0.000000 0.061431 0.847727
O O15 0.000000 0.000000 0.761072
O O16 0.124540 0.101415 0.070563
O O17 0.311398 0.094856 0.000000
O O18 0.000000 0.000000 0.935335
#
# Coordination Sequence:
#
# PCOD8289208 Si02
#       8
#     8  16   8  16  16   8  16   8
#     4  11  22  36  53  73 102 134 170 208 248 302
#     4   9  17  31  52  74  95 124 159 199 249 297
#     4  11  21  32  48  66  85 120 166 214 248 274
#     4  11  21  34  53  78 103 138 170 208 260 298
#     4  10  19  33  53  77 108 133 166 213 252 307
#     4  11  22  36  51  71 100 134 174 210 252 310
#     4  11  21  33  47  64  88 123 165 207 250 291
#     4  11  23  34  44  60  89 128 164 206 254 290
#
# _framework density 16.851061000000001
#
# number of rings (size 3 to 8) (size 9 to 14) (size 15 to 20)
#    0.000    1.500    2.500    4.500    0.000    4.667 
#    0.000    0.833    0.000    0.000    0.000    0.000 
#    0.000    4.000    0.000    0.000    0.000    0.000 
#
# Total GULP energy -594665.179666 kJ/mol
# GULP energy per Si atom -12388.857910 kJ/mol
# Density = 1.681271 g / cm^3
# Si number density = 16.851061 Si / 1000 Ang^3
#
#
#
# Elastic Constant Matrix: (Units=GPa)
#
#
# Indices 1 2 3 4 5 6 
#
# 1 102.4489 37.9170 23.6636 0.0000 0.0000 0.0000
# 2 37.9170 77.2910 28.9317 0.0000 0.0000 0.0000
# 3 23.6636 28.9317 94.2601 0.0000 0.0000 0.0000
# 4 0.0000 0.0000 0.0000 17.2561 0.0000 0.0000
# 5 0.0000 0.0000 0.0000 0.0000 12.5703 0.0000
# 6 0.0000 0.0000 0.0000 0.0000 0.0000 31.9722
#
#
#
# Elastic Compliance Matrix: (Units=1/GPa)
#
#
# Indices 1 2 3 4 5 6 
#
# 1 0.012081 -0.005413 -0.001371 0.000000 0.000000 0.000000
# 2 -0.005413 0.017043 -0.003872 0.000000 0.000000 0.000000
# 3 -0.001371 -0.003872 0.012142 0.000000 0.000000 0.000000
# 4 0.000000 0.000000 0.000000 0.057951 0.000000 0.000000
# 5 0.000000 0.000000 0.000000 0.000000 0.079553 0.000000
# 6 0.000000 0.000000 0.000000 0.000000 0.000000 0.031277
#
#
# Mechanical properties :
#
#
# Convention : Reuss Voigt Hill
#
# Bulk Modulus (GPa) = 50.11949 50.55829 50.33889
# Shear Modulus (GPa) = 21.00739 24.59222 22.79980
#
# Velocity S-wave (km/s) = 3.53462 3.82434 3.68233
# Velocity P-wave (km/s) = 6.81655 7.04052 6.92944
#
# Compressibility (1/GPa) = 0.01995232
#
# Stress axis : x y z
#
# Youngs Moduli (GPa) = 82.77274 58.67424 82.36065
#
# Poissons Ratio (x) = 0.31763 0.11295
# Poissons Ratio (y) = 0.44809 0.31891
# Poissons Ratio (z) = 0.11351 0.22720
#
# Static dielectric constant tensor:
#      x y z
#    x 3.240820 0.000000 0.000000 
#    y 0.000000 3.159930 0.000000 
#    z 0.000000 0.000000 3.395500 
# 
# 
# High freq. dielectric constant tensor:
#      x y z
#    x 1.656570 0.000000 0.000000 
#    y 0.000000 1.620350 0.000000 
#    z 0.000000 0.000000 1.646150 
# 
# From -- ./inp_files/63512.got.cif
#   From: 2010.06.25/outbox.cif.g09.slc.cpg/sg71_32_cif.got.tgz:63512.got - 2010.06.28 04:59:45.
