data_PCOD8289631
_publ_section_title
;
Structure prediction by ZEFSAII (Michael W. Deem and Ramdas Pophale) SiO2 
 PCOD8289631
Probable space group: I M M M
;
_chemical_formula_sum "Si O2"
_cell_formula_units_Z 104
_cell_length_a 17.098844
_cell_length_b 17.523769
_cell_length_c 18.530161
_cell_angle_alpha 90.000000
_cell_angle_beta 90.000000
_cell_angle_gamma 90.000000
_cell_volume 5552.306887
_symmetry_space_group_name_H-M "I M M M"
_symmetry_group_IT_number 71
_symmetry_cell_setting 'orthorhombic'
loop_
_space_group_symop_operation_xyz
x,y,z
-x,-y,z
x,-y,-z
-x,y,-z
-x,-y,-z
x,y,-z
-x,y,z
x,-y,z
1/2+x,1/2+y,1/2+z
1/2-x,1/2-y,1/2+z
1/2+x,1/2-y,1/2-z
1/2-x,1/2+y,1/2-z
1/2-x,1/2-y,1/2-z
1/2+x,1/2+y,1/2-z
1/2-x,1/2+y,1/2+z
1/2+x,1/2-y,1/2+z
loop_
_atom_site_type_symbol
_atom_site_label
_atom_site_fract_x
_atom_site_fract_y
_atom_site_fract_z
Si Si1 0.500000 0.272232 0.777438
Si Si2 0.272471 0.198221 0.651338
Si Si3 0.664139 0.418003 0.916111
Si Si4 0.850375 0.313311 0.707629
Si Si5 0.500000 0.407116 0.332096
Si Si6 0.687937 0.910533 0.080545
Si Si7 0.500000 0.651708 0.915620
Si Si8 0.354230 0.662346 0.416370
O O1 0.426648 0.221462 0.754939
O O2 0.500000 0.357262 0.741883
O O3 0.500000 0.273967 0.865104
O O4 0.239310 0.134706 0.597926
O O5 0.196056 0.245721 0.670186
O O6 0.302847 0.154900 0.723254
O O7 0.338325 0.252531 0.615072
O O8 0.680164 0.500000 0.879155
O O9 0.578516 0.391458 0.890281
O O10 0.657094 0.427678 0.000000
O O11 0.865524 0.376134 0.645012
O O12 0.500000 0.500000 0.318924
O O13 0.576369 0.381814 0.376381
O O14 0.777649 0.888948 0.095289
O O15 0.677547 0.000000 0.083824
O O16 0.663189 0.880685 0.000000
O O17 0.500000 0.674264 0.000000
O O18 0.376781 0.670500 0.500000
#
# Coordination Sequence:
#
# PCOD8289631 Si02
#       8
#     8  16  16  16   8  16   8  16
#     4  12  22  41  53  80 116 150 188 227 280 335
#     4  10  19  36  54  81 109 147 195 228 273 335
#     4  10  20  34  54  82 115 147 184 233 281 331
#     4  10  21  35  57  76 108 149 188 231 273 333
#     4  12  25  38  56  86 120 153 186 224 281 343
#     4   9  19  36  58  85 113 143 185 237 287 332
#     4  10  21  35  54  80 113 148 184 227 279 335
#     4  10  20  36  59  84 116 151 184 229 281 339
#
# _framework density 18.730953
#
# number of rings (size 3 to 8) (size 9 to 14) (size 15 to 20)
#    0.000    1.846    3.077    1.385    0.000    4.615 
#    0.000    0.385    0.000    0.923    0.000    0.538 
#    0.000    3.692    0.000    0.000    0.000    0.000 
#
# Total GULP energy -644241.086067 kJ/mol
# GULP energy per Si atom -12389.251655 kJ/mol
# Density = 1.868832 g / cm^3
# Si number density = 18.730953 Si / 1000 Ang^3
#
#
#
# Elastic Constant Matrix: (Units=GPa)
#
#
# Indices 1 2 3 4 5 6 
#
# 1 62.5819 44.9061 23.6050 0.0000 0.0000 0.0000
# 2 44.9061 82.4760 36.9899 0.0000 0.0000 0.0000
# 3 23.6050 36.9899 84.1787 0.0000 0.0000 0.0000
# 4 0.0000 0.0000 0.0000 31.3436 0.0000 0.0000
# 5 0.0000 0.0000 0.0000 0.0000 19.4791 0.0000
# 6 0.0000 0.0000 0.0000 0.0000 0.0000 9.9614
#
#
#
# Elastic Compliance Matrix: (Units=1/GPa)
#
#
# Indices 1 2 3 4 5 6 
#
# 1 0.026348 -0.013740 -0.001351 0.000000 0.000000 0.000000
# 2 -0.013740 0.022266 -0.005931 0.000000 0.000000 0.000000
# 3 -0.001351 -0.005931 0.014865 0.000000 0.000000 0.000000
# 4 0.000000 0.000000 0.000000 0.031904 0.000000 0.000000
# 5 0.000000 0.000000 0.000000 0.000000 0.051337 0.000000
# 6 0.000000 0.000000 0.000000 0.000000 0.000000 0.100387
#
#
# Mechanical properties :
#
#
# Convention : Reuss Voigt Hill
#
# Bulk Modulus (GPa) = 46.65374 48.91540 47.78457
# Shear Modulus (GPa) = 16.87505 20.40585 18.64045
#
# Velocity S-wave (km/s) = 3.00479 3.30422 3.15805
# Velocity P-wave (km/s) = 6.08274 6.38189 6.23411
#
# Compressibility (1/GPa) = 0.02143451
#
# Stress axis : x y z
#
# Youngs Moduli (GPa) = 37.95405 44.91184 67.27419
#
# Poissons Ratio (x) = 0.61708 0.09087
# Poissons Ratio (y) = 0.52148 0.39902
# Poissons Ratio (z) = 0.05126 0.26638
#
# Static dielectric constant tensor:
#      x y z
#    x 3.383780 0.000000 0.000000 
#    y 0.000000 3.493700 0.000000 
#    z 0.000000 0.000000 3.621290 
# 
# 
# High freq. dielectric constant tensor:
#      x y z
#    x 1.714410 0.000000 0.000000 
#    y 0.000000 1.708090 0.000000 
#    z 0.000000 0.000000 1.738330 
# 
# From -- ./inp_files/46193.got.cif
#   From: 2010.06.25/outbox.cif.g09.slc.cpg/sg71_24_cif.got.tgz:46193.got - 2010.06.28 04:59:45.
