data_PCOD8289499
_publ_section_title
;
Structure prediction by ZEFSAII (Michael W. Deem and Ramdas Pophale) SiO2 
 PCOD8289499
Probable space group: I M M M
;
_chemical_formula_sum "Si O2"
_cell_formula_units_Z 88
_cell_length_a 9.446960
_cell_length_b 16.255208
_cell_length_c 29.429621
_cell_angle_alpha 90.000000
_cell_angle_beta 90.000000
_cell_angle_gamma 90.000000
_cell_volume 4519.280282
_symmetry_space_group_name_H-M "I M M M"
_symmetry_group_IT_number 71
_symmetry_cell_setting 'orthorhombic'
loop_
_space_group_symop_operation_xyz
x,y,z
-x,-y,z
x,-y,-z
-x,y,-z
-x,-y,-z
x,y,-z
-x,y,z
x,-y,z
1/2+x,1/2+y,1/2+z
1/2-x,1/2-y,1/2+z
1/2+x,1/2-y,1/2-z
1/2-x,1/2+y,1/2-z
1/2-x,1/2-y,1/2-z
1/2+x,1/2+y,1/2-z
1/2-x,1/2+y,1/2+z
1/2+x,1/2-y,1/2+z
loop_
_atom_site_type_symbol
_atom_site_label
_atom_site_fract_x
_atom_site_fract_y
_atom_site_fract_z
Si Si1 0.339782 0.908953 0.584588
Si Si2 0.339991 0.746243 0.623390
Si Si3 0.156793 0.096847 0.500000
Si Si4 0.664773 0.159172 0.052026
Si Si5 0.837046 0.500000 0.609121
Si Si6 0.834207 0.000000 0.798199
Si Si7 0.666944 0.683441 0.719908
O O1 0.500000 0.911249 0.565561
O O2 0.330130 0.846116 0.627291
O O3 0.239905 0.875042 0.544626
O O4 0.293375 0.000000 0.601331
O O5 0.500000 0.716659 0.615031
O O6 0.248951 0.728152 0.578963
O O7 0.282270 0.702930 0.668642
O O8 0.000000 0.137894 0.500000
O O9 0.143366 0.000000 0.500000
O O10 0.500000 0.179813 0.054275
O O11 0.701624 0.075336 0.077205
O O12 0.716935 0.155330 0.000000
O O13 0.744034 0.500000 0.654062
O O14 0.000000 0.500000 0.624591
O O15 0.796726 0.914217 0.770897
O O16 0.000000 0.000000 0.809209
O O17 0.500000 0.699911 0.726515
O O18 0.750000 0.750000 0.750000
#
# Coordination Sequence:
#
# PCOD8289499 Si02
#       7
#    16  16   8  16   8   8  16
#     4   9  18  33  51  71 101 142 186 229 274 322
#     4  10  21  37  57  82 111 147 190 237 286 342
#     4   9  17  29  47  71  99 136 185 232 275 327
#     4  10  21  35  53  82 119 157 194 236 284 335
#     4  10  19  34  58  84 116 158 200 233 273 337
#     4  10  20  39  65  89 120 158 193 239 300 355
#     4  10  22  41  64  90 118 149 189 239 294 355
#
# _framework density 19.472128000000001
#
# number of rings (size 3 to 8) (size 9 to 14) (size 15 to 20)
#    0.000    2.273    1.818    0.545    1.273    4.727 
#    1.636    0.000    0.000    1.636    0.000    0.000 
#    0.000    0.000    0.000    0.000    0.000    0.000 
#
# Total GULP energy -545179.880301 kJ/mol
# GULP energy per Si atom -12390.451825 kJ/mol
# Density = 1.942781 g / cm^3
# Si number density = 19.472128 Si / 1000 Ang^3
#
#
#
# Elastic Constant Matrix: (Units=GPa)
#
#
# Indices 1 2 3 4 5 6 
#
# 1 57.6180 42.3477 37.3227 0.0000 0.0000 0.0000
# 2 42.3477 144.3915 56.4192 0.0000 0.0000 0.0000
# 3 37.3227 56.4192 79.7280 0.0000 0.0000 0.0000
# 4 0.0000 0.0000 0.0000 100.0427 0.0000 0.0000
# 5 0.0000 0.0000 0.0000 0.0000 29.0965 0.0000
# 6 0.0000 0.0000 0.0000 0.0000 0.0000 24.4956
#
#
#
# Elastic Compliance Matrix: (Units=1/GPa)
#
#
# Indices 1 2 3 4 5 6 
#
# 1 0.026515 -0.004045 -0.009550 0.000000 0.000000 0.000000
# 2 -0.004045 0.010189 -0.005317 0.000000 0.000000 0.000000
# 3 -0.009550 -0.005317 0.020776 0.000000 0.000000 0.000000
# 4 0.000000 0.000000 0.000000 0.009996 0.000000 0.000000
# 5 0.000000 0.000000 0.000000 0.000000 0.034368 0.000000
# 6 0.000000 0.000000 0.000000 0.000000 0.000000 0.040824
#
#
# Mechanical properties :
#
#
# Convention : Reuss Voigt Hill
#
# Bulk Modulus (GPa) = 50.87409 61.54628 56.21019
# Shear Modulus (GPa) = 26.73181 40.43681 33.58431
#
# Velocity S-wave (km/s) = 3.70918 4.56197 4.15750
# Velocity P-wave (km/s) = 6.67289 7.70875 7.20944
#
# Compressibility (1/GPa) = 0.01965637
#
# Stress axis : x y z
#
# Youngs Moduli (GPa) = 37.71516 98.14051 48.13307
#
# Poissons Ratio (x) = 0.39696 0.45966
# Poissons Ratio (y) = 0.15255 0.25593
# Poissons Ratio (z) = 0.36017 0.52182
#
# Static dielectric constant tensor:
#      x y z
#    x 3.577750 0.000000 0.000000 
#    y 0.000000 3.896780 0.000000 
#    z 0.000000 0.000000 3.325910 
# 
# 
# High freq. dielectric constant tensor:
#      x y z
#    x 1.751010 0.000000 0.000000 
#    y 0.000000 1.782940 0.000000 
#    z 0.000000 0.000000 1.726760 
# 
# From -- ./inp_files/68078.got.cif
#   From: 2010.06.25/outbox.cif.g09.slc.cpg/sg71_35_cif.got.tgz:68078.got - 2010.06.28 04:59:45.
