data_PCOD8289700
_publ_section_title
;
Structure prediction by ZEFSAII (Michael W. Deem and Ramdas Pophale) SiO2 
 PCOD8289700
Probable space group: I M M M
;
_chemical_formula_sum "Si O2"
_cell_formula_units_Z 112
_cell_length_a 35.089467
_cell_length_b 14.572629
_cell_length_c 13.019965
_cell_angle_alpha 90.000000
_cell_angle_beta 90.000000
_cell_angle_gamma 90.000000
_cell_volume 6657.704216
_symmetry_space_group_name_H-M "I M M M"
_symmetry_group_IT_number 71
_symmetry_cell_setting 'orthorhombic'
loop_
_space_group_symop_operation_xyz
x,y,z
-x,-y,z
x,-y,-z
-x,y,-z
-x,-y,-z
x,y,-z
-x,y,z
x,-y,z
1/2+x,1/2+y,1/2+z
1/2-x,1/2-y,1/2+z
1/2+x,1/2-y,1/2-z
1/2-x,1/2+y,1/2-z
1/2-x,1/2-y,1/2-z
1/2+x,1/2+y,1/2-z
1/2-x,1/2+y,1/2+z
1/2+x,1/2-y,1/2+z
loop_
_atom_site_type_symbol
_atom_site_label
_atom_site_fract_x
_atom_site_fract_y
_atom_site_fract_z
Si Si1 0.806113 0.395354 0.117632
Si Si2 0.957849 0.399294 0.377988
Si Si3 0.283883 0.605084 0.116818
Si Si4 0.608412 0.394262 0.617359
Si Si5 0.456591 0.607176 0.227695
Si Si6 0.407366 0.740487 0.117932
Si Si7 0.836197 0.223548 0.241913
O O1 0.818255 0.500000 0.147500
O O2 0.761096 0.385541 0.127364
O O3 0.824878 0.322254 0.195380
O O4 0.818669 0.374886 0.000000
O O5 0.959381 0.388770 0.500000
O O6 0.943543 0.500000 0.346125
O O7 0.928676 0.327019 0.330099
O O8 0.000000 0.381274 0.333152
O O9 0.296769 0.500000 0.138038
O O10 0.301105 0.671826 0.203615
O O11 0.296222 0.632438 0.000000
O O12 0.600459 0.372358 0.500000
O O13 0.618144 0.500000 0.637963
O O14 0.569085 0.366356 0.673728
O O15 0.645433 0.337811 0.652331
O O16 0.500000 0.642952 0.242627
O O17 0.456926 0.500000 0.205873
O O18 0.435519 0.653533 0.130891
O O19 0.366853 0.732967 0.169259
O O20 0.398856 0.756057 0.000000
#
# Coordination Sequence:
#
# PCOD8289700 Si02
#       7
#    16  16  16  16  16  16  16
#     4   9  19  35  53  72  93 121 159 200 240 282
#     4   8  14  26  43  59  77 108 149 185 215 252
#     4   9  18  33  52  73  97 125 158 194 232 281
#     4   9  18  31  46  67  94 121 152 194 243 288
#     4   9  18  31  46  65  89 121 162 200 232 272
#     4  10  20  30  42  65  96 124 150 185 231 279
#     4  11  19  30  49  72  96 124 156 191 234 286
#
# _framework density 16.822614999999999
#
# number of rings (size 3 to 8) (size 9 to 14) (size 15 to 20)
#    0.000    2.714    0.000    3.429    0.000    2.571 
#    0.000    2.143    0.000    1.286    0.000    8.000 
#    0.000    0.000    0.000   26.571    0.000    1.000 
#
# Total GULP energy -694035.276343 kJ/mol
# GULP energy per Si atom -12393.487078 kJ/mol
# Density = 1.678433 g / cm^3
# Si number density = 16.822615 Si / 1000 Ang^3
#
#
#
# Elastic Constant Matrix: (Units=GPa)
#
#
# Indices 1 2 3 4 5 6 
#
# 1 66.7481 38.3494 23.6302 0.0000 0.0000 0.0000
# 2 38.3494 86.1273 40.1545 0.0000 0.0000 0.0000
# 3 23.6302 40.1545 53.8024 0.0000 0.0000 0.0000
# 4 0.0000 0.0000 0.0000 25.4112 0.0000 0.0000
# 5 0.0000 0.0000 0.0000 0.0000 1.9536 0.0000
# 6 0.0000 0.0000 0.0000 0.0000 0.0000 29.1365
#
#
#
# Elastic Compliance Matrix: (Units=1/GPa)
#
#
# Indices 1 2 3 4 5 6 
#
# 1 0.020521 -0.007569 -0.003364 0.000000 0.000000 0.000000
# 2 -0.007569 0.020598 -0.012049 0.000000 0.000000 0.000000
# 3 -0.003364 -0.012049 0.029057 0.000000 0.000000 0.000000
# 4 0.000000 0.000000 0.000000 0.039353 0.000000 0.000000
# 5 0.000000 0.000000 0.000000 0.000000 0.511880 0.000000
# 6 0.000000 0.000000 0.000000 0.000000 0.000000 0.034321
#
#
# Mechanical properties :
#
#
# Convention : Reuss Voigt Hill
#
# Bulk Modulus (GPa) = 41.30132 45.66068 43.48100
# Shear Modulus (GPa) = 7.04459 18.26984 12.65721
#
# Velocity S-wave (km/s) = 2.04858 3.29907 2.74595
# Velocity P-wave (km/s) = 5.49544 6.45857 5.99638
#
# Compressibility (1/GPa) = 0.02421230
#
# Stress axis : x y z
#
# Youngs Moduli (GPa) = 48.72974 48.54736 34.41564
#
# Poissons Ratio (x) = 0.36746 0.11578
# Poissons Ratio (y) = 0.36884 0.41467
# Poissons Ratio (z) = 0.16393 0.58494
#
# Static dielectric constant tensor:
#      x y z
#    x 3.172630 0.000000 0.000000 
#    y 0.000000 3.333200 0.000000 
#    z 0.000000 0.000000 2.997270 
# 
# 
# High freq. dielectric constant tensor:
#      x y z
#    x 1.648830 0.000000 0.000000 
#    y 0.000000 1.652270 0.000000 
#    z 0.000000 0.000000 1.628390 
# 
# From -- ./inp_files/30044.got.cif
#   From: 2010.06.25/outbox.cif.g09.slc.cpg/sg71_16_cif.got.tgz:30044.got - 2010.06.28 04:59:45.
