data_PCOD8289080
_publ_section_title
;
Structure prediction by ZEFSAII (Michael W. Deem and Ramdas Pophale) SiO2 
 PCOD8289080
Probable space group: I M M M
;
_chemical_formula_sum "Si O2"
_cell_formula_units_Z 96
_cell_length_a 25.825201
_cell_length_b 11.043812
_cell_length_c 18.091580
_cell_angle_alpha 90.000000
_cell_angle_beta 90.000000
_cell_angle_gamma 90.000000
_cell_volume 5159.875374
_symmetry_space_group_name_H-M "I M M M"
_symmetry_group_IT_number 71
_symmetry_cell_setting 'orthorhombic'
loop_
_space_group_symop_operation_xyz
x,y,z
-x,-y,z
x,-y,-z
-x,y,-z
-x,-y,-z
x,y,-z
-x,y,z
x,-y,z
1/2+x,1/2+y,1/2+z
1/2-x,1/2-y,1/2+z
1/2+x,1/2-y,1/2-z
1/2-x,1/2+y,1/2-z
1/2-x,1/2-y,1/2-z
1/2+x,1/2+y,1/2-z
1/2-x,1/2+y,1/2+z
1/2+x,1/2-y,1/2+z
loop_
_atom_site_type_symbol
_atom_site_label
_atom_site_fract_x
_atom_site_fract_y
_atom_site_fract_z
Si Si1 0.097063 0.643673 0.678915
Si Si2 0.763477 0.000000 0.586632
Si Si3 0.798834 0.241399 0.655065
Si Si4 0.353976 0.000000 0.412505
Si Si5 0.000000 0.643236 0.417311
Si Si6 0.199462 0.860788 0.814702
Si Si7 0.099628 0.736412 0.843038
Si Si8 0.000000 0.859287 0.087533
O O1 0.098204 0.500000 0.692026
O O2 0.149062 0.685272 0.635955
O O3 0.050497 0.686918 0.626669
O O4 0.089405 0.710468 0.756890
O O5 0.796164 0.116118 0.611287
O O6 0.758737 0.000000 0.500000
O O7 0.704952 0.000000 0.620554
O O8 0.799838 0.221070 0.742322
O O9 0.748543 0.322734 0.634648
O O10 0.385398 0.885296 0.384777
O O11 0.352195 0.000000 0.500000
O O12 0.000000 0.500000 0.422875
O O13 0.000000 0.699544 0.500000
O O14 0.145958 0.832714 0.856522
O O15 0.203566 0.000000 0.792744
O O16 0.049471 0.793648 0.879038
O O17 0.000000 0.000000 0.110456
O O18 0.000000 0.843304 0.000000
#
# Coordination Sequence:
#
# PCOD8289080 Si02
#       8
#    16   8  16   8   8  16  16   8
#     4  10  20  35  61  92 118 149 192 246 292 345
#     4  11  22  38  55  81 125 163 193 232 286 354
#     4  10  20  33  55  85 114 150 191 232 291 339
#     4  11  22  37  58  83 119 160 195 234 294 352
#     4   9  19  36  56  79 112 149 183 226 289 345
#     4  10  19  32  56  82 115 143 186 242 289 340
#     4  11  21  37  60  85 117 151 197 246 293 347
#     4  11  25  43  59  79 115 161 206 250 300 353
#
# _framework density 18.6051
#
# number of rings (size 3 to 8) (size 9 to 14) (size 15 to 20)
#    0.000    1.667    3.333    2.000    0.000    1.000 
#    0.000    0.833    0.000    2.500    0.000    1.167 
#    0.000    0.000    0.000    0.000    0.000    0.000 
#
# Total GULP energy -595226.539029 kJ/mol
# GULP energy per Si atom -12400.552896 kJ/mol
# Density = 1.856275 g / cm^3
# Si number density = 18.605100 Si / 1000 Ang^3
#
#
#
# Elastic Constant Matrix: (Units=GPa)
#
#
# Indices 1 2 3 4 5 6 
#
# 1 174.8908 55.1830 51.0341 0.0000 0.0000 0.0000
# 2 55.1830 81.3766 20.9446 0.0000 0.0000 0.0000
# 3 51.0341 20.9446 76.7571 0.0000 0.0000 0.0000
# 4 0.0000 0.0000 0.0000 6.8066 0.0000 0.0000
# 5 0.0000 0.0000 0.0000 0.0000 19.3145 0.0000
# 6 0.0000 0.0000 0.0000 0.0000 0.0000 44.5448
#
#
#
# Elastic Compliance Matrix: (Units=1/GPa)
#
#
# Indices 1 2 3 4 5 6 
#
# 1 0.008442 -0.004603 -0.004357 0.000000 0.000000 0.000000
# 2 -0.004603 0.015727 -0.001231 0.000000 0.000000 0.000000
# 3 -0.004357 -0.001231 0.016261 0.000000 0.000000 0.000000
# 4 0.000000 0.000000 0.000000 0.146915 0.000000 0.000000
# 5 0.000000 0.000000 0.000000 0.000000 0.051774 0.000000
# 6 0.000000 0.000000 0.000000 0.000000 0.000000 0.022449
#
#
# Mechanical properties :
#
#
# Convention : Reuss Voigt Hill
#
# Bulk Modulus (GPa) = 49.88060 65.26088 57.57074
# Shear Modulus (GPa) = 17.32313 27.85738 22.59026
#
# Velocity S-wave (km/s) = 3.05470 3.87369 3.48831
# Velocity P-wave (km/s) = 6.26976 7.42700 6.87278
#
# Compressibility (1/GPa) = 0.02004788
#
# Stress axis : x y z
#
# Youngs Moduli (GPa) = 118.46214 63.58585 61.49856
#
# Poissons Ratio (x) = 0.29269 0.26792
# Poissons Ratio (y) = 0.54529 0.07570
# Poissons Ratio (z) = 0.51609 0.07827
#
# Static dielectric constant tensor:
#      x y z
#    x 3.757250 0.000000 0.000000 
#    y 0.000000 3.263910 0.000000 
#    z 0.000000 0.000000 3.277200 
# 
# 
# High freq. dielectric constant tensor:
#      x y z
#    x 1.738470 0.000000 0.000000 
#    y 0.000000 1.717930 0.000000 
#    z 0.000000 0.000000 1.704000 
# 
# From -- ./inp_files/48117.got.cif
#   From: 2010.06.25/outbox.cif.g09.slc.cpg/sg71_25_cif.got.tgz:48117.got - 2010.06.28 04:59:45.
