data_PCOD8289402
_publ_section_title
;
Structure prediction by ZEFSAII (Michael W. Deem and Ramdas Pophale) SiO2 
 PCOD8289402
Probable space group: I M M M
;
_chemical_formula_sum "Si O2"
_cell_formula_units_Z 72
_cell_length_a 9.370034
_cell_length_b 17.803237
_cell_length_c 23.638420
_cell_angle_alpha 90.000000
_cell_angle_beta 90.000000
_cell_angle_gamma 90.000000
_cell_volume 3943.288796
_symmetry_space_group_name_H-M "I M M M"
_symmetry_group_IT_number 71
_symmetry_cell_setting 'orthorhombic'
loop_
_space_group_symop_operation_xyz
x,y,z
-x,-y,z
x,-y,-z
-x,y,-z
-x,-y,-z
x,y,-z
-x,y,z
x,-y,z
1/2+x,1/2+y,1/2+z
1/2-x,1/2-y,1/2+z
1/2+x,1/2-y,1/2-z
1/2-x,1/2+y,1/2-z
1/2-x,1/2-y,1/2-z
1/2+x,1/2+y,1/2-z
1/2-x,1/2+y,1/2+z
1/2+x,1/2-y,1/2+z
loop_
_atom_site_type_symbol
_atom_site_label
_atom_site_fract_x
_atom_site_fract_y
_atom_site_fract_z
Si Si1 0.837318 0.913729 0.240519
Si Si2 0.166805 0.863592 0.881688
Si Si3 0.169258 0.291566 0.936716
Si Si4 0.162368 0.500000 0.566840
Si Si5 0.667918 0.085765 0.650311
O O1 0.804543 0.863545 0.185551
O O2 0.738664 0.885880 0.291645
O O3 0.000000 0.904441 0.260253
O O4 0.803939 0.000000 0.224341
O O5 0.219678 0.784150 0.905869
O O6 0.000000 0.878739 0.894385
O O7 0.258362 0.926499 0.911862
O O8 0.224683 0.363179 0.901208
O O9 0.000000 0.293380 0.940032
O O10 0.234366 0.295397 0.000000
O O11 0.165968 0.500000 0.500000
O O12 0.000000 0.500000 0.589586
O O13 0.500000 0.094621 0.658428
O O14 0.711689 0.000000 0.636852
#
# Coordination Sequence:
#
# PCOD8289402 Si02
#       5
#    16  16  16   8  16
#     4   9  17  31  50  74 102 130 167 213 256 304
#     4  10  19  34  55  76  99 136 180 216 251 298
#     4   9  18  32  51  76 103 132 174 223 258 296
#     4  11  23  35  49  75 109 141 172 209 256 307
#     4   9  18  32  51  76 104 135 169 210 263 315
#
# _framework density 18.258870000000002
#
# number of rings (size 3 to 8) (size 9 to 14) (size 15 to 20)
#    0.000    2.556    1.111    1.000    0.000    4.000 
#    0.000    3.333    0.000    2.000    0.000    3.111 
#    0.000    0.000    0.000    0.000    0.000    0.000 
#
# Total GULP energy -446417.787372 kJ/mol
# GULP energy per Si atom -12400.494094 kJ/mol
# Density = 1.821731 g / cm^3
# Si number density = 18.258870 Si / 1000 Ang^3
#
#
#
# Elastic Constant Matrix: (Units=GPa)
#
#
# Indices 1 2 3 4 5 6 
#
# 1 48.3925 42.7363 44.7253 0.0000 0.0000 0.0000
# 2 42.7363 122.7866 87.4831 0.0000 0.0000 0.0000
# 3 44.7253 87.4831 159.3800 0.0000 0.0000 0.0000
# 4 0.0000 0.0000 0.0000 29.2252 0.0000 0.0000
# 5 0.0000 0.0000 0.0000 0.0000 27.8506 0.0000
# 6 0.0000 0.0000 0.0000 0.0000 0.0000 9.4807
#
#
#
# Elastic Compliance Matrix: (Units=1/GPa)
#
#
# Indices 1 2 3 4 5 6 
#
# 1 0.031829 -0.007742 -0.004682 0.000000 0.000000 0.000000
# 2 -0.007742 0.015258 -0.006202 0.000000 0.000000 0.000000
# 3 -0.004682 -0.006202 0.010993 0.000000 0.000000 0.000000
# 4 0.000000 0.000000 0.000000 0.034217 0.000000 0.000000
# 5 0.000000 0.000000 0.000000 0.000000 0.035906 0.000000
# 6 0.000000 0.000000 0.000000 0.000000 0.000000 0.105478
#
#
# Mechanical properties :
#
#
# Convention : Reuss Voigt Hill
#
# Bulk Modulus (GPa) = 48.01679 75.60539 61.81109
# Shear Modulus (GPa) = 17.99361 23.68558 20.83960
#
# Velocity S-wave (km/s) = 3.14263 3.60559 3.38204
# Velocity P-wave (km/s) = 6.28673 7.67014 7.01263
#
# Compressibility (1/GPa) = 0.02082605
#
# Stress axis : x y z
#
# Youngs Moduli (GPa) = 31.41786 65.53912 90.96907
#
# Poissons Ratio (x) = 0.50742 0.42593
# Poissons Ratio (y) = 0.24324 0.56423
# Poissons Ratio (z) = 0.14710 0.40650
#
# Static dielectric constant tensor:
#      x y z
#    x 3.162040 0.000000 0.000000 
#    y 0.000000 3.434720 0.000000 
#    z 0.000000 0.000000 3.581630 
# 
# 
# High freq. dielectric constant tensor:
#      x y z
#    x 1.678010 0.000000 0.000000 
#    y 0.000000 1.705110 0.000000 
#    z 0.000000 0.000000 1.717150 
# 
# From -- ./inp_files/7886.got.cif
#   From: 2010.06.25/outbox.cif.g09.slc.cpg/sg71_4_cif.got.tgz:7886.got - 2010.06.28 04:59:45.
