data_PCOD8289867
_publ_section_title
;
Structure prediction by ZEFSAII (Michael W. Deem and Ramdas Pophale) SiO2 
 PCOD8289867
Probable space group: I M M M
;
_chemical_formula_sum "Si O2"
_cell_formula_units_Z 128
_cell_length_a 22.023031
_cell_length_b 18.378339
_cell_length_c 18.636903
_cell_angle_alpha 90.000000
_cell_angle_beta 90.000000
_cell_angle_gamma 90.000000
_cell_volume 7543.225538
_symmetry_space_group_name_H-M "I M M M"
_symmetry_group_IT_number 71
_symmetry_cell_setting 'orthorhombic'
loop_
_space_group_symop_operation_xyz
x,y,z
-x,-y,z
x,-y,-z
-x,y,-z
-x,-y,-z
x,y,-z
-x,y,z
x,-y,z
1/2+x,1/2+y,1/2+z
1/2-x,1/2-y,1/2+z
1/2+x,1/2-y,1/2-z
1/2-x,1/2+y,1/2-z
1/2-x,1/2-y,1/2-z
1/2+x,1/2+y,1/2-z
1/2-x,1/2+y,1/2+z
1/2+x,1/2-y,1/2+z
loop_
_atom_site_type_symbol
_atom_site_label
_atom_site_fract_x
_atom_site_fract_y
_atom_site_fract_z
Si Si1 0.634292 0.182518 0.190350
Si Si2 0.568940 0.418621 0.246762
Si Si3 0.793224 0.225662 0.578110
Si Si4 0.305667 0.917707 0.303191
Si Si5 0.070297 0.229847 0.814623
Si Si6 0.824085 0.919414 0.638823
Si Si7 0.842965 0.309291 0.917976
Si Si8 0.071614 0.419367 0.579595
O O1 0.678163 0.232951 0.144323
O O2 0.676249 0.126864 0.233144
O O3 0.593750 0.231309 0.242580
O O4 0.591184 0.139213 0.137329
O O5 0.500000 0.411425 0.217351
O O6 0.579856 0.500000 0.279171
O O7 0.580001 0.357360 0.307459
O O8 0.613615 0.404676 0.180597
O O9 0.812148 0.257296 0.500000
O O10 0.815291 0.141462 0.578183
O O11 0.720988 0.232283 0.587050
O O12 0.232768 0.913966 0.306657
O O13 0.338144 0.884504 0.373816
O O14 0.329297 0.000000 0.296222
O O15 0.106195 0.256715 0.884466
O O16 0.000000 0.249859 0.825240
O O17 0.825124 0.000000 0.603220
O O18 0.860512 0.327454 0.000000
O O19 0.095617 0.397975 0.500000
O O20 0.096282 0.500000 0.599782
O O21 0.000000 0.420906 0.578874
#
# Coordination Sequence:
#
# PCOD8289867 Si02
#       8
#    16  16  16  16  16  16  16  16
#     4  11  19  30  49  71 103 125 157 204 251 291
#     4   9  17  30  49  72  98 129 164 203 246 290
#     4  10  20  32  48  72 101 136 168 199 246 297
#     4   9  19  31  50  77  98 126 166 203 247 296
#     4  10  20  32  52  77  98 127 167 205 248 298
#     4   9  17  31  49  70  97 128 165 206 245 288
#     4   9  20  35  52  73 101 132 162 202 252 300
#     4   9  18  32  48  65  89 125 163 195 233 283
#
# _framework density 16.968866999999999
#
# number of rings (size 3 to 8) (size 9 to 14) (size 15 to 20)
#    0.000    2.500    1.250    1.500    1.750    2.250 
#    0.000    2.500    0.000    4.875    0.000    8.750 
#    0.000    0.000    0.000    0.000    0.000    0.000 
#
# Total GULP energy -793333.604871 kJ/mol
# GULP energy per Si atom -12395.837576 kJ/mol
# Density = 1.693025 g / cm^3
# Si number density = 16.968867 Si / 1000 Ang^3
#
#
#
# Elastic Constant Matrix: (Units=GPa)
#
#
# Indices 1 2 3 4 5 6 
#
# 1 83.5333 43.2932 40.9047 0.0000 0.0000 0.0000
# 2 43.2932 100.2599 52.4705 0.0000 0.0000 0.0000
# 3 40.9047 52.4705 106.3770 0.0000 0.0000 0.0000
# 4 0.0000 0.0000 0.0000 16.4244 0.0000 0.0000
# 5 0.0000 0.0000 0.0000 0.0000 18.1055 0.0000
# 6 0.0000 0.0000 0.0000 0.0000 0.0000 23.6740
#
#
#
# Elastic Compliance Matrix: (Units=1/GPa)
#
#
# Indices 1 2 3 4 5 6 
#
# 1 0.016496 -0.005127 -0.003814 0.000000 0.000000 0.000000
# 2 -0.005127 0.015038 -0.005446 0.000000 0.000000 0.000000
# 3 -0.003814 -0.005446 0.013554 0.000000 0.000000 0.000000
# 4 0.000000 0.000000 0.000000 0.060885 0.000000 0.000000
# 5 0.000000 0.000000 0.000000 0.000000 0.055232 0.000000
# 6 0.000000 0.000000 0.000000 0.000000 0.000000 0.042240
#
#
# Mechanical properties :
#
#
# Convention : Reuss Voigt Hill
#
# Bulk Modulus (GPa) = 61.30067 62.61188 61.95628
# Shear Modulus (GPa) = 21.03866 21.87424 21.45645
#
# Velocity S-wave (km/s) = 3.52495 3.59427 3.55978
# Velocity P-wave (km/s) = 7.26436 7.36229 7.31348
#
# Compressibility (1/GPa) = 0.01631303
#
# Stress axis : x y z
#
# Youngs Moduli (GPa) = 60.61963 66.49743 73.78146
#
# Poissons Ratio (x) = 0.34094 0.28143
# Poissons Ratio (y) = 0.31080 0.40182
# Poissons Ratio (z) = 0.23122 0.36215
#
# Static dielectric constant tensor:
#      x y z
#    x 3.145150 0.000000 0.000000 
#    y 0.000000 3.414710 0.000000 
#    z 0.000000 0.000000 3.067800 
# 
# 
# High freq. dielectric constant tensor:
#      x y z
#    x 1.652990 0.000000 0.000000 
#    y 0.000000 1.663080 0.000000 
#    z 0.000000 0.000000 1.636950 
# 
# From -- ./inp_files/55269.got.cif
#   From: 2010.06.25/outbox.cif.g09.slc.cpg/sg71_28_cif.got.tgz:55269.got - 2010.06.28 04:59:45.
