data_PCOD8289322
_publ_section_title
;
Structure prediction by ZEFSAII (Michael W. Deem and Ramdas Pophale) SiO2 
 PCOD8289322
Probable space group: I M M M
;
_chemical_formula_sum "Si O2"
_cell_formula_units_Z 88
_cell_length_a 28.575259
_cell_length_b 8.741415
_cell_length_c 17.445706
_cell_angle_alpha 90.000000
_cell_angle_beta 90.000000
_cell_angle_gamma 90.000000
_cell_volume 4357.731458
_symmetry_space_group_name_H-M "I M M M"
_symmetry_group_IT_number 71
_symmetry_cell_setting 'orthorhombic'
loop_
_space_group_symop_operation_xyz
x,y,z
-x,-y,z
x,-y,-z
-x,y,-z
-x,-y,-z
x,y,-z
-x,y,z
x,-y,z
1/2+x,1/2+y,1/2+z
1/2-x,1/2-y,1/2+z
1/2+x,1/2-y,1/2-z
1/2-x,1/2+y,1/2-z
1/2-x,1/2-y,1/2-z
1/2+x,1/2+y,1/2-z
1/2-x,1/2+y,1/2+z
1/2+x,1/2-y,1/2+z
loop_
_atom_site_type_symbol
_atom_site_label
_atom_site_fract_x
_atom_site_fract_y
_atom_site_fract_z
Si Si1 0.199100 0.820345 0.411168
Si Si2 0.605838 0.820078 0.141790
Si Si3 0.705532 0.671986 0.408978
Si Si4 0.054424 0.177979 0.217899
Si Si5 0.055388 0.826523 0.500000
Si Si6 0.610172 0.821698 0.589306
O O1 0.190614 0.776561 0.500000
O O2 0.156998 0.753774 0.361469
O O3 0.246912 0.748362 0.378378
O O4 0.202317 0.000000 0.399852
O O5 0.583195 0.779494 0.222637
O O6 0.610695 0.000000 0.132600
O O7 0.572830 0.757211 0.075339
O O8 0.706899 0.672629 0.500000
O O9 0.701464 0.500000 0.376621
O O10 0.661141 0.769313 0.380463
O O11 0.070337 0.226534 0.132985
O O12 0.000000 0.214851 0.227293
O O13 0.064720 0.000000 0.232242
O O14 0.000000 0.824793 0.500000
O O15 0.074889 0.000000 0.500000
O O16 0.603992 0.783808 0.500000
O O17 0.604272 0.000000 0.606394
#
# Coordination Sequence:
#
# PCOD8289322 Si02
#       6
#    16  16  16  16   8  16
#     4  10  19  33  56  85 121 162 203 245 293 349
#     4  12  24  38  59  87 120 157 202 251 301 354
#     4   9  17  31  55  87 122 157 197 242 291 349
#     4  11  25  44  64  86 117 157 199 247 305 362
#     4  11  23  39  59  83 115 157 205 253 300 353
#     4  10  21  39  64  93 123 155 195 242 297 361
#
# _framework density 20.193992999999999
#
# number of rings (size 3 to 8) (size 9 to 14) (size 15 to 20)
#    0.000    1.545    0.909    4.636    0.000    8.727 
#    0.000    2.727    0.000    0.000    0.000    0.000 
#    0.000    0.000    0.000    0.000    0.000    0.000 
#
# Total GULP energy -545838.956270 kJ/mol
# GULP energy per Si atom -12405.430824 kJ/mol
# Density = 2.014803 g / cm^3
# Si number density = 20.193993 Si / 1000 Ang^3
#
#
#
# Elastic Constant Matrix: (Units=GPa)
#
#
# Indices 1 2 3 4 5 6 
#
# 1 72.5517 28.0480 28.4290 0.0000 0.0000 0.0000
# 2 28.0480 71.0094 15.6431 0.0000 0.0000 0.0000
# 3 28.4290 15.6431 62.3504 0.0000 0.0000 0.0000
# 4 0.0000 0.0000 0.0000 29.6677 0.0000 0.0000
# 5 0.0000 0.0000 0.0000 0.0000 27.7047 0.0000
# 6 0.0000 0.0000 0.0000 0.0000 0.0000 38.6742
#
#
#
# Elastic Compliance Matrix: (Units=1/GPa)
#
#
# Indices 1 2 3 4 5 6 
#
# 1 0.018844 -0.005875 -0.007118 0.000000 0.000000 0.000000
# 2 -0.005875 0.016738 -0.001521 0.000000 0.000000 0.000000
# 3 -0.007118 -0.001521 0.019665 0.000000 0.000000 0.000000
# 4 0.000000 0.000000 0.000000 0.033707 0.000000 0.000000
# 5 0.000000 0.000000 0.000000 0.000000 0.036095 0.000000
# 6 0.000000 0.000000 0.000000 0.000000 0.000000 0.025857
#
#
# Mechanical properties :
#
#
# Convention : Reuss Voigt Hill
#
# Bulk Modulus (GPa) = 38.13880 38.90573 38.52226
# Shear Modulus (GPa) = 26.50088 28.12874 27.31481
#
# Velocity S-wave (km/s) = 3.62652 3.73624 3.68179
# Velocity P-wave (km/s) = 6.03844 6.15796 6.09849
#
# Compressibility (1/GPa) = 0.02622002
#
# Stress axis : x y z
#
# Youngs Moduli (GPa) = 53.06844 59.74350 50.85090
#
# Poissons Ratio (x) = 0.35099 0.36195
# Poissons Ratio (y) = 0.31178 0.07733
# Poissons Ratio (z) = 0.37773 0.09085
#
# Static dielectric constant tensor:
#      x y z
#    x 3.821830 0.000000 0.000000 
#    y 0.000000 3.809280 0.000000 
#    z 0.000000 0.000000 3.406510 
# 
# 
# High freq. dielectric constant tensor:
#      x y z
#    x 1.802080 0.000000 0.000000 
#    y 0.000000 1.804540 0.000000 
#    z 0.000000 0.000000 1.765320 
# 
# From -- ./inp_files/49247.got.cif
#   From: 2010.06.25/outbox.cif.g09.slc.cpg/sg71_25_cif.got.tgz:49247.got - 2010.06.28 04:59:45.
