data_PCOD8289157
_publ_section_title
;
Structure prediction by ZEFSAII (Michael W. Deem and Ramdas Pophale) SiO2 
 PCOD8289157
Probable space group: I M M M
;
_chemical_formula_sum "Si O2"
_cell_formula_units_Z 72
_cell_length_a 29.961458
_cell_length_b 14.339588
_cell_length_c 9.207375
_cell_angle_alpha 90.000000
_cell_angle_beta 90.000000
_cell_angle_gamma 90.000000
_cell_volume 3955.810223
_symmetry_space_group_name_H-M "I M M M"
_symmetry_group_IT_number 71
_symmetry_cell_setting 'orthorhombic'
loop_
_space_group_symop_operation_xyz
x,y,z
-x,-y,z
x,-y,-z
-x,y,-z
-x,-y,-z
x,y,-z
-x,y,z
x,-y,z
1/2+x,1/2+y,1/2+z
1/2-x,1/2-y,1/2+z
1/2+x,1/2-y,1/2-z
1/2-x,1/2+y,1/2-z
1/2-x,1/2-y,1/2-z
1/2+x,1/2+y,1/2-z
1/2-x,1/2+y,1/2+z
1/2+x,1/2-y,1/2+z
loop_
_atom_site_type_symbol
_atom_site_label
_atom_site_fract_x
_atom_site_fract_y
_atom_site_fract_z
Si Si1 0.342020 0.000000 0.826874
Si Si2 0.788799 0.197273 0.169869
Si Si3 0.946929 0.000000 0.336023
Si Si4 0.372725 0.180915 0.331468
Si Si5 0.259554 0.500000 0.671199
Si Si6 0.051004 0.180863 0.168218
O O1 0.367440 0.909474 0.767599
O O2 0.291149 0.000000 0.766899
O O3 0.344530 0.000000 0.000000
O O4 0.750000 0.250000 0.250000
O O5 0.836068 0.241567 0.210496
O O6 0.787200 0.090059 0.224201
O O7 0.778917 0.203780 0.000000
O O8 0.929414 0.093020 0.256712
O O9 0.928922 0.000000 0.500000
O O10 0.000000 0.000000 0.328924
O O11 0.368640 0.151832 0.500000
O O12 0.420592 0.226728 0.296607
O O13 0.254974 0.500000 0.500000
O O14 0.000000 0.203376 0.211294
O O15 0.055376 0.153590 0.000000
#
# Coordination Sequence:
#
# PCOD8289157 Si02
#       6
#     8  16   8  16   8  16
#     4  11  21  35  55  75 102 141 176 214 266 323
#     4  10  19  33  52  75 103 133 169 211 256 307
#     4   9  17  30  51  79 109 140 172 211 260 311
#     4  10  21  35  55  80 104 135 178 223 262 309
#     4   9  18  32  50  73 102 136 168 202 254 312
#     4   9  18  34  55  79 108 142 178 216 260 310
#
# _framework density 18.201074999999999
#
# number of rings (size 3 to 8) (size 9 to 14) (size 15 to 20)
#    0.000    2.333    2.222    0.667    0.000    3.111 
#    0.000    4.444    0.000    3.333    0.000    0.000 
#    0.000    0.000    0.000    0.000    0.000    0.000 
#
# Total GULP energy -446396.321604 kJ/mol
# GULP energy per Si atom -12399.897822 kJ/mol
# Density = 1.815965 g / cm^3
# Si number density = 18.201075 Si / 1000 Ang^3
#
#
#
# Elastic Constant Matrix: (Units=GPa)
#
#
# Indices 1 2 3 4 5 6 
#
# 1 89.4486 63.5463 37.3809 0.0000 0.0000 0.0000
# 2 63.5463 168.2806 60.0709 0.0000 0.0000 0.0000
# 3 37.3809 60.0709 65.6494 0.0000 0.0000 0.0000
# 4 0.0000 0.0000 0.0000 29.8510 0.0000 0.0000
# 5 0.0000 0.0000 0.0000 0.0000 20.7939 0.0000
# 6 0.0000 0.0000 0.0000 0.0000 0.0000 27.3323
#
#
#
# Elastic Compliance Matrix: (Units=1/GPa)
#
#
# Indices 1 2 3 4 5 6 
#
# 1 0.016511 -0.004275 -0.005489 0.000000 0.000000 0.000000
# 2 -0.004275 0.009932 -0.006654 0.000000 0.000000 0.000000
# 3 -0.005489 -0.006654 0.024446 0.000000 0.000000 0.000000
# 4 0.000000 0.000000 0.000000 0.033500 0.000000 0.000000
# 5 0.000000 0.000000 0.000000 0.000000 0.048091 0.000000
# 6 0.000000 0.000000 0.000000 0.000000 0.000000 0.036587
#
#
# Mechanical properties :
#
#
# Convention : Reuss Voigt Hill
#
# Bulk Modulus (GPa) = 55.39357 71.70831 63.55094
# Shear Modulus (GPa) = 24.04758 26.42080 25.23419
#
# Velocity S-wave (km/s) = 3.63880 3.81413 3.72749
# Velocity P-wave (km/s) = 6.93936 7.67334 7.31556
#
# Compressibility (1/GPa) = 0.01805264
#
# Stress axis : x y z
#
# Youngs Moduli (GPa) = 60.56600 100.68371 40.90586
#
# Poissons Ratio (x) = 0.43046 0.22454
# Poissons Ratio (y) = 0.25894 0.27218
# Poissons Ratio (z) = 0.33246 0.66992
#
# Static dielectric constant tensor:
#      x y z
#    x 3.709250 0.000000 0.000000 
#    y 0.000000 5.086680 0.000000 
#    z 0.000000 0.000000 3.259420 
# 
# 
# High freq. dielectric constant tensor:
#      x y z
#    x 1.692780 0.000000 0.000000 
#    y 0.000000 1.712050 0.000000 
#    z 0.000000 0.000000 1.691540 
# 
# From -- ./inp_files/6228.got.cif
#   From: 2010.06.25/outbox.cif.g09.slc.cpg/sg71_4_cif.got.tgz:6228.got - 2010.06.28 04:59:45.
