data_PCOD8289440
_publ_section_title
;
Structure prediction by ZEFSAII (Michael W. Deem and Ramdas Pophale) SiO2 
 PCOD8289440
Probable space group: I M M M
;
_chemical_formula_sum "Si O2"
_cell_formula_units_Z 80
_cell_length_a 18.851495
_cell_length_b 8.639550
_cell_length_c 25.067456
_cell_angle_alpha 90.000000
_cell_angle_beta 90.000000
_cell_angle_gamma 90.000000
_cell_volume 4082.697294
_symmetry_space_group_name_H-M "I M M M"
_symmetry_group_IT_number 71
_symmetry_cell_setting 'orthorhombic'
loop_
_space_group_symop_operation_xyz
x,y,z
-x,-y,z
x,-y,-z
-x,y,-z
-x,-y,-z
x,y,-z
-x,y,z
x,-y,z
1/2+x,1/2+y,1/2+z
1/2-x,1/2-y,1/2+z
1/2+x,1/2-y,1/2-z
1/2-x,1/2+y,1/2-z
1/2-x,1/2-y,1/2-z
1/2+x,1/2+y,1/2-z
1/2-x,1/2+y,1/2+z
1/2+x,1/2-y,1/2+z
loop_
_atom_site_type_symbol
_atom_site_label
_atom_site_fract_x
_atom_site_fract_y
_atom_site_fract_z
Si Si1 0.833721 0.684230 0.097317
Si Si2 0.421858 0.184908 0.500000
Si Si3 0.815236 0.320448 0.284024
Si Si4 0.675846 0.316489 0.100005
Si Si5 0.921456 0.680198 0.805164
Si Si6 0.581888 0.315673 0.000000
O O1 0.832759 0.500000 0.099022
O O2 0.754520 0.742323 0.085207
O O3 0.866415 0.752739 0.151983
O O4 0.882905 0.751161 0.051325
O O5 0.500000 0.254086 0.500000
O O6 0.422236 0.000000 0.500000
O O7 0.797487 0.500000 0.291784
O O8 0.750000 0.250000 0.250000
O O9 0.835876 0.245356 0.340404
O O10 0.888326 0.293004 0.252596
O O11 0.670130 0.500000 0.102197
O O12 0.621390 0.254216 0.054161
O O13 0.929435 0.500000 0.818326
O O14 0.000000 0.757102 0.808031
O O15 0.584657 0.500000 0.000000
O O16 0.500000 0.257002 0.000000
#
# Coordination Sequence:
#
# PCOD8289440 Si02
#       6
#    16   8  16  16  16   8
#     4   9  15  25  42  67  98 131 166 209 257 308
#     4   9  15  21  35  64  98 126 156 199 250 298
#     4  11  21  35  55  80 109 143 184 228 277 332
#     4  10  19  34  56  80 106 141 184 226 272 325
#     4   9  17  29  46  70 101 134 169 214 269 321
#     4   9  19  35  56  83 116 152 189 234 288 345
#
# _framework density 19.594889999999999
#
# number of rings (size 3 to 8) (size 9 to 14) (size 15 to 20)
#    0.000    2.400    2.000    1.800    0.000    5.600 
#    0.000    0.500    0.000    2.400    0.000    0.000 
#    0.000    0.800    0.000    0.000    0.000    0.000 
#
# Total GULP energy -495577.430696 kJ/mol
# GULP energy per Si atom -12389.435767 kJ/mol
# Density = 1.955029 g / cm^3
# Si number density = 19.594890 Si / 1000 Ang^3
#
#
#
# Elastic Constant Matrix: (Units=GPa)
#
#
# Indices 1 2 3 4 5 6 
#
# 1 178.8949 16.9467 88.2249 0.0000 0.0000 0.0000
# 2 16.9467 20.6274 16.3562 0.0000 0.0000 0.0000
# 3 88.2249 16.3562 172.0264 0.0000 0.0000 0.0000
# 4 0.0000 0.0000 0.0000 25.1879 0.0000 0.0000
# 5 0.0000 0.0000 0.0000 0.0000 30.3790 0.0000
# 6 0.0000 0.0000 0.0000 0.0000 0.0000 10.6254
#
#
#
# Elastic Compliance Matrix: (Units=1/GPa)
#
#
# Indices 1 2 3 4 5 6 
#
# 1 0.007704 -0.003457 -0.003622 0.000000 0.000000 0.000000
# 2 -0.003457 0.053983 -0.003360 0.000000 0.000000 0.000000
# 3 -0.003622 -0.003360 0.007990 0.000000 0.000000 0.000000
# 4 0.000000 0.000000 0.000000 0.039702 0.000000 0.000000
# 5 0.000000 0.000000 0.000000 0.000000 0.032917 0.000000
# 6 0.000000 0.000000 0.000000 0.000000 0.000000 0.094115
#
#
# Mechanical properties :
#
#
# Convention : Reuss Voigt Hill
#
# Bulk Modulus (GPa) = 20.49201 68.28935 44.39068
# Shear Modulus (GPa) = 18.27783 29.90651 24.09217
#
# Velocity S-wave (km/s) = 3.05747 3.91095 3.51025
# Velocity P-wave (km/s) = 4.79006 7.43776 6.25560
#
# Compressibility (1/GPa) = 0.04879951
#
# Stress axis : x y z
#
# Youngs Moduli (GPa) = 129.80777 18.52418 125.15349
#
# Poissons Ratio (x) = 0.06404 0.45333
# Poissons Ratio (y) = 0.44873 0.42050
# Poissons Ratio (z) = 0.47019 0.06224
#
# Static dielectric constant tensor:
#      x y z
#    x 3.930880 0.000000 0.000000 
#    y 0.000000 2.949910 0.000000 
#    z 0.000000 0.000000 3.789580 
# 
# 
# High freq. dielectric constant tensor:
#      x y z
#    x 1.775180 0.000000 0.000000 
#    y 0.000000 1.693870 0.000000 
#    z 0.000000 0.000000 1.779980 
# 
# From -- ./inp_files/65821.got.cif
#   From: 2010.06.25/outbox.cif.g09.slc.cpg/sg71_33_cif.got.tgz:65821.got - 2010.06.28 04:59:45.
