data_PCOD8289026
_publ_section_title
;
Structure prediction by ZEFSAII (Michael W. Deem and Ramdas Pophale) SiO2 
 PCOD8289026
Probable space group: I M M M
;
_chemical_formula_sum "Si O2"
_cell_formula_units_Z 88
_cell_length_a 28.595624
_cell_length_b 17.471986
_cell_length_c 8.762784
_cell_angle_alpha 90.000000
_cell_angle_beta 90.000000
_cell_angle_gamma 90.000000
_cell_volume 4378.082666
_symmetry_space_group_name_H-M "I M M M"
_symmetry_group_IT_number 71
_symmetry_cell_setting 'orthorhombic'
loop_
_space_group_symop_operation_xyz
x,y,z
-x,-y,z
x,-y,-z
-x,y,-z
-x,-y,-z
x,y,-z
-x,y,z
x,-y,z
1/2+x,1/2+y,1/2+z
1/2-x,1/2-y,1/2+z
1/2+x,1/2-y,1/2-z
1/2-x,1/2+y,1/2-z
1/2-x,1/2-y,1/2-z
1/2+x,1/2+y,1/2-z
1/2-x,1/2+y,1/2+z
1/2+x,1/2-y,1/2+z
loop_
_atom_site_type_symbol
_atom_site_label
_atom_site_fract_x
_atom_site_fract_y
_atom_site_fract_z
Si Si1 0.607683 0.589011 0.321708
Si Si2 0.798115 0.412033 0.679922
Si Si3 0.110039 0.645033 0.819802
Si Si4 0.202922 0.909115 0.671680
Si Si5 0.947775 0.500000 0.181398
Si Si6 0.054089 0.218990 0.677845
O O1 0.602673 0.605231 0.500000
O O2 0.601164 0.500000 0.282552
O O3 0.658323 0.619589 0.267394
O O4 0.567466 0.633531 0.230077
O O5 0.794504 0.405306 0.500000
O O6 0.806714 0.500000 0.731154
O O7 0.839559 0.359074 0.741306
O O8 0.750225 0.378823 0.750272
O O9 0.078670 0.574969 0.757848
O O10 0.085139 0.723281 0.775686
O O11 0.116836 0.640607 0.000000
O O12 0.199485 0.876698 0.500000
O O13 0.203837 0.000000 0.672208
O O14 0.000000 0.500000 0.250292
O O15 0.949748 0.500000 0.000000
O O16 0.064632 0.229843 0.500000
O O17 0.000000 0.233527 0.715354
#
# Coordination Sequence:
#
# PCOD8289026 Si02
#       6
#    16  16  16  16   8  16
#     4  10  21  39  64  92 119 149 190 238 291 352
#     4  10  19  32  53  83 121 160 199 241 287 340
#     4  11  21  36  58  84 117 155 200 247 294 345
#     4   9  17  31  55  86 119 154 193 235 285 344
#     4   9  18  32  53  81 111 147 195 247 292 339
#     4  11  25  43  61  84 117 155 194 240 297 353
#
# _framework density 20.100123
#
# number of rings (size 3 to 8) (size 9 to 14) (size 15 to 20)
#    0.000    1.909    0.909    3.273    0.000    6.545 
#    0.000    2.727    0.000    2.182    0.000    0.000 
#    0.000    0.000    0.000    0.000    0.000    0.000 
#
# Total GULP energy -545792.827482 kJ/mol
# GULP energy per Si atom -12404.382443 kJ/mol
# Density = 2.005437 g / cm^3
# Si number density = 20.100123 Si / 1000 Ang^3
#
#
#
# Elastic Constant Matrix: (Units=GPa)
#
#
# Indices 1 2 3 4 5 6 
#
# 1 71.8399 23.6436 22.8853 0.0000 0.0000 0.0000
# 2 23.6436 60.7144 13.0140 0.0000 0.0000 0.0000
# 3 22.8853 13.0140 63.4810 0.0000 0.0000 0.0000
# 4 0.0000 0.0000 0.0000 27.3096 0.0000 0.0000
# 5 0.0000 0.0000 0.0000 0.0000 35.9575 0.0000
# 6 0.0000 0.0000 0.0000 0.0000 0.0000 30.4427
#
#
#
# Elastic Compliance Matrix: (Units=1/GPa)
#
#
# Indices 1 2 3 4 5 6 
#
# 1 0.017421 -0.005688 -0.005114 0.000000 0.000000 0.000000
# 2 -0.005688 0.019085 -0.001862 0.000000 0.000000 0.000000
# 3 -0.005114 -0.001862 0.017978 0.000000 0.000000 0.000000
# 4 0.000000 0.000000 0.000000 0.036617 0.000000 0.000000
# 5 0.000000 0.000000 0.000000 0.000000 0.027811 0.000000
# 6 0.000000 0.000000 0.000000 0.000000 0.000000 0.032849
#
#
# Mechanical properties :
#
#
# Convention : Reuss Voigt Hill
#
# Bulk Modulus (GPa) = 34.29881 35.01345 34.65613
# Shear Modulus (GPa) = 26.76556 27.84144 27.30350
#
# Velocity S-wave (km/s) = 3.65308 3.72578 3.68961
# Velocity P-wave (km/s) = 5.90715 5.99716 5.95232
#
# Compressibility (1/GPa) = 0.02915553
#
# Stress axis : x y z
#
# Youngs Moduli (GPa) = 57.40186 52.39807 55.62282
#
# Poissons Ratio (x) = 0.29803 0.28447
# Poissons Ratio (y) = 0.32650 0.10357
# Poissons Ratio (z) = 0.29357 0.09756
#
# Static dielectric constant tensor:
#      x y z
#    x 3.808090 0.000000 0.000000 
#    y 0.000000 3.431610 0.000000 
#    z 0.000000 0.000000 3.600990 
# 
# 
# High freq. dielectric constant tensor:
#      x y z
#    x 1.796260 0.000000 0.000000 
#    y 0.000000 1.761560 0.000000 
#    z 0.000000 0.000000 1.787970 
# 
# From -- ./inp_files/16641.got.cif
#   From: 2010.06.25/outbox.cif.g09.slc.cpg/sg71_9_cif.got.tgz:16641.got - 2010.06.28 04:59:45.
