data_PCOD8289384
_publ_section_title
;
Structure prediction by ZEFSAII (Michael W. Deem and Ramdas Pophale) SiO2 
 PCOD8289384
Probable space group: I M M M
;
_chemical_formula_sum "Si O2"
_cell_formula_units_Z 80
_cell_length_a 20.845067
_cell_length_b 13.928683
_cell_length_c 15.309092
_cell_angle_alpha 90.000000
_cell_angle_beta 90.000000
_cell_angle_gamma 90.000000
_cell_volume 4444.908065
_symmetry_space_group_name_H-M "I M M M"
_symmetry_group_IT_number 71
_symmetry_cell_setting 'orthorhombic'
loop_
_space_group_symop_operation_xyz
x,y,z
-x,-y,z
x,-y,-z
-x,y,-z
-x,-y,-z
x,y,-z
-x,y,z
x,-y,z
1/2+x,1/2+y,1/2+z
1/2-x,1/2-y,1/2+z
1/2+x,1/2-y,1/2-z
1/2-x,1/2+y,1/2-z
1/2-x,1/2-y,1/2-z
1/2+x,1/2+y,1/2-z
1/2-x,1/2+y,1/2+z
1/2+x,1/2-y,1/2+z
loop_
_atom_site_type_symbol
_atom_site_label
_atom_site_fract_x
_atom_site_fract_y
_atom_site_fract_z
Si Si1 0.640234 0.611218 0.767370
Si Si2 0.427232 0.259403 0.097434
Si Si3 0.186360 0.197912 0.096062
Si Si4 0.216975 0.393257 0.168872
Si Si5 0.677825 0.108975 0.138549
O O1 0.622892 0.500000 0.759817
O O2 0.588946 0.661067 0.830039
O O3 0.639013 0.655676 0.669769
O O4 0.709421 0.629651 0.809121
O O5 0.500000 0.225687 0.113389
O O6 0.382791 0.166157 0.103019
O O7 0.419410 0.304186 0.000000
O O8 0.191285 0.313562 0.102726
O O9 0.256584 0.152633 0.102626
O O10 0.158021 0.174593 0.000000
O O11 0.210416 0.500000 0.127557
O O12 0.175840 0.386062 0.256899
O O13 0.672995 0.000000 0.105213
#
# Coordination Sequence:
#
# PCOD8289384 Si02
#       5
#    16  16  16  16  16
#     4  10  20  36  54  75 107 140 176 219 263 315
#     4  11  23  37  54  77 105 141 184 221 257 305
#     4  11  19  31  55  84 112 139 169 211 268 326
#     4   9  17  31  54  80 106 139 175 212 263 320
#     4  10  19  34  54  77 110 143 172 213 263 314
#
# _framework density 17.998121999999999
#
# number of rings (size 3 to 8) (size 9 to 14) (size 15 to 20)
#    0.000    1.800    4.000    3.600    0.000    4.400 
#    0.000    4.000    0.000    0.600    0.000    1.400 
#    0.000    3.200    0.000    0.000    0.000    0.000 
#
# Total GULP energy -495951.911282 kJ/mol
# GULP energy per Si atom -12398.797782 kJ/mol
# Density = 1.795716 g / cm^3
# Si number density = 17.998122 Si / 1000 Ang^3
#
#
#
# Elastic Constant Matrix: (Units=GPa)
#
#
# Indices 1 2 3 4 5 6 
#
# 1 63.8204 18.8980 41.0670 0.0000 0.0000 0.0000
# 2 18.8980 113.6998 54.0448 0.0000 0.0000 0.0000
# 3 41.0670 54.0448 116.1749 0.0000 0.0000 0.0000
# 4 0.0000 0.0000 0.0000 11.7269 0.0000 0.0000
# 5 0.0000 0.0000 0.0000 0.0000 22.1543 0.0000
# 6 0.0000 0.0000 0.0000 0.0000 0.0000 9.1315
#
#
#
# Elastic Compliance Matrix: (Units=1/GPa)
#
#
# Indices 1 2 3 4 5 6 
#
# 1 0.020283 0.000047 -0.007192 0.000000 0.000000 0.000000
# 2 0.000047 0.011292 -0.005270 0.000000 0.000000 0.000000
# 3 -0.007192 -0.005270 0.013601 0.000000 0.000000 0.000000
# 4 0.000000 0.000000 0.000000 0.085274 0.000000 0.000000
# 5 0.000000 0.000000 0.000000 0.000000 0.045138 0.000000
# 6 0.000000 0.000000 0.000000 0.000000 0.000000 0.109511
#
#
# Mechanical properties :
#
#
# Convention : Reuss Voigt Hill
#
# Bulk Modulus (GPa) = 49.14568 57.96829 53.55699
# Shear Modulus (GPa) = 15.78728 20.58157 18.18442
#
# Velocity S-wave (km/s) = 2.96491 3.38530 3.18205
# Velocity P-wave (km/s) = 6.25189 6.89624 6.58196
#
# Compressibility (1/GPa) = 0.02034767
#
# Stress axis : x y z
#
# Youngs Moduli (GPa) = 49.30300 88.55723 73.52138
#
# Poissons Ratio (x) = -0.00419 0.52875
# Poissons Ratio (y) = -0.00233 0.38745
# Poissons Ratio (z) = 0.35458 0.46668
#
# Static dielectric constant tensor:
#      x y z
#    x 2.930340 0.000000 0.000000 
#    y 0.000000 3.516630 0.000000 
#    z 0.000000 0.000000 3.410620 
# 
# 
# High freq. dielectric constant tensor:
#      x y z
#    x 1.647260 0.000000 0.000000 
#    y 0.000000 1.711450 0.000000 
#    z 0.000000 0.000000 1.698820 
# 
# From -- ./inp_files/34251.got.cif
#   From: 2010.06.25/outbox.cif.g09.slc.cpg/sg71_18_cif.got.tgz:34251.got - 2010.06.28 04:59:45.
