data_PCOD8289168
_publ_section_title
;
Structure prediction by ZEFSAII (Michael W. Deem and Ramdas Pophale) SiO2 
 PCOD8289168
Probable space group: I M M M
;
_chemical_formula_sum "Si O2"
_cell_formula_units_Z 88
_cell_length_a 18.650671
_cell_length_b 9.448207
_cell_length_c 27.252430
_cell_angle_alpha 90.000000
_cell_angle_beta 90.000000
_cell_angle_gamma 90.000000
_cell_volume 4802.297862
_symmetry_space_group_name_H-M "I M M M"
_symmetry_group_IT_number 71
_symmetry_cell_setting 'orthorhombic'
loop_
_space_group_symop_operation_xyz
x,y,z
-x,-y,z
x,-y,-z
-x,y,-z
-x,-y,-z
x,y,-z
-x,y,z
x,-y,z
1/2+x,1/2+y,1/2+z
1/2-x,1/2-y,1/2+z
1/2+x,1/2-y,1/2-z
1/2-x,1/2+y,1/2-z
1/2-x,1/2-y,1/2-z
1/2+x,1/2+y,1/2-z
1/2-x,1/2+y,1/2+z
1/2+x,1/2-y,1/2+z
loop_
_atom_site_type_symbol
_atom_site_label
_atom_site_fract_x
_atom_site_fract_y
_atom_site_fract_z
Si Si1 0.084745 0.837531 0.378377
Si Si2 0.584932 0.156176 0.787695
Si Si3 0.661259 0.664945 0.404231
Si Si4 0.082197 0.333412 0.822178
Si Si5 0.080815 0.168313 0.000000
Si Si6 0.683923 0.838043 0.056583
O O1 0.113474 0.766144 0.328130
O O2 0.120500 0.762490 0.424965
O O3 0.000000 0.820417 0.384217
O O4 0.108304 0.000000 0.376990
O O5 0.500000 0.146768 0.789696
O O6 0.606964 0.205396 0.733143
O O7 0.616876 0.000000 0.799251
O O8 0.643895 0.500000 0.396575
O O9 0.635700 0.749565 0.356967
O O10 0.619732 0.726228 0.451550
O O11 0.745360 0.691256 0.411547
O O12 0.089803 0.500000 0.831411
O O13 0.000000 0.285577 0.831494
O O14 0.000000 0.225359 0.000000
O O15 0.085022 0.000000 0.000000
O O16 0.658886 0.000000 0.062556
O O17 0.700709 0.803678 0.000000
#
# Coordination Sequence:
#
# PCOD8289168 Si02
#       6
#    16  16  16  16   8  16
#     4  10  21  36  56  83 109 131 165 216 268 320
#     4   8  15  31  54  77 104 139 174 210 257 311
#     4  10  19  33  52  76 104 138 181 222 260 305
#     4   9  18  32  51  78 111 143 176 216 261 310
#     4   9  16  28  49  75 102 133 172 218 261 297
#     4  10  21  38  57  76 103 140 180 219 260 312
#
# _framework density 18.324560999999999
#
# number of rings (size 3 to 8) (size 9 to 14) (size 15 to 20)
#    0.000    2.636    0.909    2.182    0.000    4.364 
#    0.000    5.000    0.000    1.636    0.000    0.000 
#    0.000    0.000    0.000    0.000    0.000    0.000 
#
# Total GULP energy -545589.644596 kJ/mol
# GULP energy per Si atom -12399.764650 kJ/mol
# Density = 1.828285 g / cm^3
# Si number density = 18.324561 Si / 1000 Ang^3
#
#
#
# Elastic Constant Matrix: (Units=GPa)
#
#
# Indices 1 2 3 4 5 6 
#
# 1 53.1902 44.8346 42.8252 0.0000 0.0000 0.0000
# 2 44.8346 95.1220 66.7268 0.0000 0.0000 0.0000
# 3 42.8252 66.7268 108.7341 0.0000 0.0000 0.0000
# 4 0.0000 0.0000 0.0000 32.5263 0.0000 0.0000
# 5 0.0000 0.0000 0.0000 0.0000 21.0274 0.0000
# 6 0.0000 0.0000 0.0000 0.0000 0.0000 24.9760
#
#
#
# Elastic Compliance Matrix: (Units=1/GPa)
#
#
# Indices 1 2 3 4 5 6 
#
# 1 0.033368 -0.011428 -0.006129 0.000000 0.000000 0.000000
# 2 -0.011428 0.022373 -0.009229 0.000000 0.000000 0.000000
# 3 -0.006129 -0.009229 0.017274 0.000000 0.000000 0.000000
# 4 0.000000 0.000000 0.000000 0.030744 0.000000 0.000000
# 5 0.000000 0.000000 0.000000 0.000000 0.047557 0.000000
# 6 0.000000 0.000000 0.000000 0.000000 0.000000 0.040038
#
#
# Mechanical properties :
#
#
# Convention : Reuss Voigt Hill
#
# Bulk Modulus (GPa) = 51.43108 62.86883 57.14996
# Shear Modulus (GPa) = 19.88799 22.54992 21.21896
#
# Velocity S-wave (km/s) = 3.29799 3.51177 3.40656
# Velocity P-wave (km/s) = 6.52917 7.12926 6.83580
#
# Compressibility (1/GPa) = 0.01944350
#
# Stress axis : x y z
#
# Youngs Moduli (GPa) = 29.96878 44.69626 57.89047
#
# Poissons Ratio (x) = 0.51080 0.35480
# Poissons Ratio (y) = 0.34249 0.53425
# Poissons Ratio (z) = 0.18368 0.41249
#
# Static dielectric constant tensor:
#      x y z
#    x 3.144980 0.000000 0.000000 
#    y 0.000000 3.279330 0.000000 
#    z 0.000000 0.000000 3.512030 
# 
# 
# High freq. dielectric constant tensor:
#      x y z
#    x 1.690840 0.000000 0.000000 
#    y 0.000000 1.695950 0.000000 
#    z 0.000000 0.000000 1.719840 
# 
# From -- ./inp_files/10450.got.cif
#   From: 2010.06.25/outbox.cif.g09.slc.cpg/sg71_6_cif.got.tgz:10450.got - 2010.06.28 04:59:45.
