data_PCOD8289452
_publ_section_title
;
Structure prediction by ZEFSAII (Michael W. Deem and Ramdas Pophale) SiO2 
 PCOD8289452
Probable space group: I M M M
;
_chemical_formula_sum "Si O2"
_cell_formula_units_Z 112
_cell_length_a 27.075706
_cell_length_b 14.423478
_cell_length_c 15.051064
_cell_angle_alpha 90.000000
_cell_angle_beta 90.000000
_cell_angle_gamma 90.000000
_cell_volume 5877.829559
_symmetry_space_group_name_H-M "I M M M"
_symmetry_group_IT_number 71
_symmetry_cell_setting 'orthorhombic'
loop_
_space_group_symop_operation_xyz
x,y,z
-x,-y,z
x,-y,-z
-x,y,-z
-x,-y,-z
x,y,-z
-x,y,z
x,-y,z
1/2+x,1/2+y,1/2+z
1/2-x,1/2-y,1/2+z
1/2+x,1/2-y,1/2-z
1/2-x,1/2+y,1/2-z
1/2-x,1/2-y,1/2-z
1/2+x,1/2+y,1/2-z
1/2-x,1/2+y,1/2+z
1/2+x,1/2-y,1/2+z
loop_
_atom_site_type_symbol
_atom_site_label
_atom_site_fract_x
_atom_site_fract_y
_atom_site_fract_z
Si Si1 0.658474 0.773751 0.098591
Si Si2 0.272346 0.602237 0.899854
Si Si3 0.554509 0.243611 0.166842
Si Si4 0.556259 0.605607 0.312329
Si Si5 0.122733 0.753587 0.098560
Si Si6 0.203363 0.309895 0.227693
Si Si7 0.055831 0.394420 0.173950
O O1 0.683878 0.674837 0.119922
O O2 0.599070 0.762764 0.096712
O O3 0.676984 0.841819 0.179039
O O4 0.673866 0.810395 0.000000
O O5 0.295382 0.500000 0.888003
O O6 0.224637 0.608005 0.834102
O O7 0.252337 0.617049 0.000000
O O8 0.500000 0.242059 0.120559
O O9 0.561019 0.339333 0.220054
O O10 0.559089 0.155218 0.231038
O O11 0.500000 0.609273 0.346645
O O12 0.573899 0.500000 0.297872
O O13 0.589793 0.654954 0.386241
O O14 0.165631 0.752776 0.171612
O O15 0.090367 0.659774 0.105015
O O16 0.145433 0.759283 0.000000
O O17 0.250000 0.250000 0.250000
O O18 0.074543 0.500000 0.184015
O O19 0.000000 0.391350 0.137498
#
# Coordination Sequence:
#
# PCOD8289452 Si02
#       7
#    16  16  16  16  16  16  16
#     4  10  19  34  56  82 109 141 180 222 273 328
#     4   9  19  35  57  84 110 138 177 225 276 332
#     4   9  17  33  54  80 110 144 185 226 268 315
#     4   9  18  33  54  80 113 152 187 217 259 324
#     4  11  21  34  54  82 113 143 180 226 272 327
#     4  10  20  37  54  75 102 141 180 223 276 322
#     4   9  18  33  54  80 112 146 177 214 266 327
#
# _framework density 19.054652000000001
#
# number of rings (size 3 to 8) (size 9 to 14) (size 15 to 20)
#    0.000    2.429    2.857    1.714    0.000    3.714 
#    0.000    1.429    0.000    1.714    0.000    6.000 
#    0.000    0.000    0.000    0.000    0.000    0.000 
#
# Total GULP energy -693872.437500 kJ/mol
# GULP energy per Si atom -12390.579241 kJ/mol
# Density = 1.901128 g / cm^3
# Si number density = 19.054652 Si / 1000 Ang^3
#
#
#
# Elastic Constant Matrix: (Units=GPa)
#
#
# Indices 1 2 3 4 5 6 
#
# 1 103.0821 17.0624 42.3432 0.0000 0.0000 0.0000
# 2 17.0624 96.1939 10.0567 0.0000 0.0000 0.0000
# 3 42.3432 10.0567 106.7325 0.0000 0.0000 0.0000
# 4 0.0000 0.0000 0.0000 11.6697 0.0000 0.0000
# 5 0.0000 0.0000 0.0000 0.0000 21.7712 0.0000
# 6 0.0000 0.0000 0.0000 0.0000 0.0000 14.3188
#
#
#
# Elastic Compliance Matrix: (Units=1/GPa)
#
#
# Indices 1 2 3 4 5 6 
#
# 1 0.011836 -0.001624 -0.004542 0.000000 0.000000 0.000000
# 2 -0.001624 0.010722 -0.000366 0.000000 0.000000 0.000000
# 3 -0.004542 -0.000366 0.011206 0.000000 0.000000 0.000000
# 4 0.000000 0.000000 0.000000 0.085692 0.000000 0.000000
# 5 0.000000 0.000000 0.000000 0.000000 0.045932 0.000000
# 6 0.000000 0.000000 0.000000 0.000000 0.000000 0.069838
#
#
# Mechanical properties :
#
#
# Convention : Reuss Voigt Hill
#
# Bulk Modulus (GPa) = 48.31350 49.43701 48.87526
# Shear Modulus (GPa) = 19.59317 25.32169 22.45743
#
# Velocity S-wave (km/s) = 3.21013 3.64936 3.43677
# Velocity P-wave (km/s) = 6.25701 6.61500 6.43850
#
# Compressibility (1/GPa) = 0.02069815
#
# Stress axis : x y z
#
# Youngs Moduli (GPa) = 84.48938 93.26571 89.23961
#
# Poissons Ratio (x) = 0.15151 0.40537
# Poissons Ratio (y) = 0.13725 0.03264
# Poissons Ratio (z) = 0.38379 0.03412
#
# Static dielectric constant tensor:
#      x y z
#    x 3.388970 0.000000 0.000000 
#    y 0.000000 3.418340 0.000000 
#    z 0.000000 0.000000 3.546490 
# 
# 
# High freq. dielectric constant tensor:
#      x y z
#    x 1.748720 0.000000 0.000000 
#    y 0.000000 1.713840 0.000000 
#    z 0.000000 0.000000 1.727120 
# 
# From -- ./inp_files/40352.got.cif
#   From: 2010.06.25/outbox.cif.g09.slc.cpg/sg71_21_cif.got.tgz:40352.got - 2010.06.28 04:59:45.
