data_PCOD8289253
_publ_section_title
;
Structure prediction by ZEFSAII (Michael W. Deem and Ramdas Pophale) SiO2 
 PCOD8289253
Probable space group: I M M M
;
_chemical_formula_sum "Si O2"
_cell_formula_units_Z 88
_cell_length_a 20.138478
_cell_length_b 10.111122
_cell_length_c 21.778276
_cell_angle_alpha 90.000000
_cell_angle_beta 90.000000
_cell_angle_gamma 90.000000
_cell_volume 4434.549356
_symmetry_space_group_name_H-M "I M M M"
_symmetry_group_IT_number 71
_symmetry_cell_setting 'orthorhombic'
loop_
_space_group_symop_operation_xyz
x,y,z
-x,-y,z
x,-y,-z
-x,y,-z
-x,-y,-z
x,y,-z
-x,y,z
x,-y,z
1/2+x,1/2+y,1/2+z
1/2-x,1/2-y,1/2+z
1/2+x,1/2-y,1/2-z
1/2-x,1/2+y,1/2-z
1/2-x,1/2-y,1/2-z
1/2+x,1/2+y,1/2-z
1/2-x,1/2+y,1/2+z
1/2+x,1/2-y,1/2+z
loop_
_atom_site_type_symbol
_atom_site_label
_atom_site_fract_x
_atom_site_fract_y
_atom_site_fract_z
Si Si1 0.889468 0.645344 0.570485
Si Si2 0.076684 0.155418 0.124216
Si Si3 0.500000 0.652066 0.073041
Si Si4 0.677781 0.148321 0.430568
Si Si5 0.723349 0.217818 0.845112
Si Si6 0.840941 0.856589 0.235118
O O1 0.872101 0.674553 0.500000
O O2 0.923892 0.500000 0.576663
O O3 0.936025 0.764253 0.596007
O O4 0.820556 0.636184 0.607243
O O5 0.118962 0.245343 0.077954
O O6 0.096924 0.194267 0.194294
O O7 0.000000 0.188358 0.113914
O O8 0.091817 0.000000 0.112078
O O9 0.500000 0.500000 0.098690
O O10 0.500000 0.649119 0.000000
O O11 0.704717 0.164142 0.500000
O O12 0.738420 0.167617 0.382853
O O13 0.649940 0.000000 0.419828
O O14 0.777856 0.129737 0.810731
O O15 0.672174 0.266459 0.793314
O O16 0.857343 0.000000 0.261817
#
# Coordination Sequence:
#
# PCOD8289253 Si02
#       6
#    16  16   8  16  16  16
#     4  10  20  35  56  80 109 145 182 223 271 323
#     4   9  19  37  58  79 107 142 183 230 277 327
#     4   9  19  35  53  75 105 141 179 219 264 315
#     4  10  21  35  53  81 115 147 181 224 275 332
#     4  10  19  33  54  80 108 141 182 223 272 324
#     4   9  18  33  53  77 105 141 180 222 272 324
#
# _framework density 19.844180999999999
#
# number of rings (size 3 to 8) (size 9 to 14) (size 15 to 20)
#    0.000    2.455    0.000    1.909    0.000    4.364 
#    1.636    4.545    0.000    0.000    0.000    0.000 
#    0.000    0.000    0.000    0.000    0.000    0.000 
#
# Total GULP energy -545213.199498 kJ/mol
# GULP energy per Si atom -12391.209080 kJ/mol
# Density = 1.979901 g / cm^3
# Si number density = 19.844181 Si / 1000 Ang^3
#
#
#
# Elastic Constant Matrix: (Units=GPa)
#
#
# Indices 1 2 3 4 5 6 
#
# 1 67.7219 31.5033 26.1497 0.0000 0.0000 0.0000
# 2 31.5033 108.6256 34.1233 0.0000 0.0000 0.0000
# 3 26.1497 34.1233 77.7115 0.0000 0.0000 0.0000
# 4 0.0000 0.0000 0.0000 11.3544 0.0000 0.0000
# 5 0.0000 0.0000 0.0000 0.0000 27.2736 0.0000
# 6 0.0000 0.0000 0.0000 0.0000 0.0000 25.0651
#
#
#
# Elastic Compliance Matrix: (Units=1/GPa)
#
#
# Indices 1 2 3 4 5 6 
#
# 1 0.018301 -0.003913 -0.004440 0.000000 0.000000 0.000000
# 2 -0.003913 0.011516 -0.003740 0.000000 0.000000 0.000000
# 3 -0.004440 -0.003740 0.016004 0.000000 0.000000 0.000000
# 4 0.000000 0.000000 0.000000 0.088072 0.000000 0.000000
# 5 0.000000 0.000000 0.000000 0.000000 0.036666 0.000000
# 6 0.000000 0.000000 0.000000 0.000000 0.000000 0.039896
#
#
# Mechanical properties :
#
#
# Convention : Reuss Voigt Hill
#
# Bulk Modulus (GPa) = 46.22065 48.62352 47.42209
# Shear Modulus (GPa) = 20.67383 23.55745 22.11564
#
# Velocity S-wave (km/s) = 3.23121 3.44920 3.34198
# Velocity P-wave (km/s) = 6.10437 6.35755 6.23225
#
# Compressibility (1/GPa) = 0.02163535
#
# Stress axis : x y z
#
# Youngs Moduli (GPa) = 54.64208 86.83913 62.48292
#
# Poissons Ratio (x) = 0.33978 0.27743
# Poissons Ratio (y) = 0.21380 0.23368
# Poissons Ratio (z) = 0.24262 0.32477
#
# Static dielectric constant tensor:
#      x y z
#    x 3.483280 0.000000 0.000000 
#    y 0.000000 3.595890 0.000000 
#    z 0.000000 0.000000 3.508300 
# 
# 
# High freq. dielectric constant tensor:
#      x y z
#    x 1.759880 0.000000 0.000000 
#    y 0.000000 1.771300 0.000000 
#    z 0.000000 0.000000 1.767250 
# 
# From -- ./inp_files/61096.got.cif
#   From: 2010.06.25/outbox.cif.g09.slc.cpg/sg71_31_cif.got.tgz:61096.got - 2010.06.28 04:59:45.
