data_PCOD8289551
_publ_section_title
;
Structure prediction by ZEFSAII (Michael W. Deem and Ramdas Pophale) SiO2 
 PCOD8289551
Probable space group: I M M M
;
_chemical_formula_sum "Si O2"
_cell_formula_units_Z 128
_cell_length_a 16.995337
_cell_length_b 24.499404
_cell_length_c 15.812786
_cell_angle_alpha 90.000000
_cell_angle_beta 90.000000
_cell_angle_gamma 90.000000
_cell_volume 6584.058690
_symmetry_space_group_name_H-M "I M M M"
_symmetry_group_IT_number 71
_symmetry_cell_setting 'orthorhombic'
loop_
_space_group_symop_operation_xyz
x,y,z
-x,-y,z
x,-y,-z
-x,y,-z
-x,-y,-z
x,y,-z
-x,y,z
x,-y,z
1/2+x,1/2+y,1/2+z
1/2-x,1/2-y,1/2+z
1/2+x,1/2-y,1/2-z
1/2-x,1/2+y,1/2-z
1/2-x,1/2-y,1/2-z
1/2+x,1/2+y,1/2-z
1/2-x,1/2+y,1/2+z
1/2+x,1/2-y,1/2+z
loop_
_atom_site_type_symbol
_atom_site_label
_atom_site_fract_x
_atom_site_fract_y
_atom_site_fract_z
Si Si1 0.587274 0.637773 0.645386
Si Si2 0.179234 0.562893 0.757806
Si Si3 0.591635 0.168418 0.735736
Si Si4 0.089720 0.147830 0.338129
Si Si5 0.800998 0.061788 0.594531
Si Si6 0.221626 0.061565 0.906554
Si Si7 0.194184 0.254140 0.669039
Si Si8 0.148709 0.252542 0.094991
O O1 0.500000 0.624209 0.612287
O O2 0.594922 0.624063 0.743916
O O3 0.647262 0.601366 0.592936
O O4 0.602496 0.701710 0.633740
O O5 0.150931 0.500000 0.762440
O O6 0.105102 0.603186 0.766817
O O7 0.237355 0.577657 0.834663
O O8 0.218029 0.576889 0.667404
O O9 0.500000 0.180930 0.744753
O O10 0.636842 0.194044 0.817193
O O11 0.625912 0.194702 0.649977
O O12 0.123846 0.101091 0.398815
O O13 0.140988 0.201870 0.347900
O O14 0.000000 0.160820 0.364222
O O15 0.764583 0.068132 0.500000
O O16 0.829907 0.000000 0.609751
O O17 0.191275 0.000000 0.891236
O O18 0.261459 0.066778 0.000000
O O19 0.250000 0.250000 0.750000
O O20 0.256911 0.260186 0.592986
O O21 0.120621 0.263723 0.000000
#
# Coordination Sequence:
#
# PCOD8289551 Si02
#       8
#    16  16  16  16  16  16  16  16
#     4  11  21  34  54  83 117 152 186 230 288 346
#     4  10  21  39  62  86 114 148 192 244 292 342
#     4  11  22  37  59  85 116 152 189 236 295 356
#     4  11  21  34  55  81 113 147 186 239 293 341
#     4  10  21  38  60  84 113 155 204 244 281 335
#     4  10  21  37  58  84 114 151 192 233 284 346
#     4  10  19  35  57  78 105 146 191 230 278 334
#     4  11  23  37  58  87 116 151 197 241 286 346
#
# _framework density 19.440895999999999
#
# number of rings (size 3 to 8) (size 9 to 14) (size 15 to 20)
#    0.000    1.500    3.750    3.375    0.000    4.750 
#    0.000    2.500    0.000    2.250    0.000    4.375 
#    0.000    0.000    0.000    0.000    0.000    0.000 
#
# Total GULP energy -793464.439762 kJ/mol
# GULP energy per Si atom -12397.881871 kJ/mol
# Density = 1.939665 g / cm^3
# Si number density = 19.440896 Si / 1000 Ang^3
#
#
#
# Elastic Constant Matrix: (Units=GPa)
#
#
# Indices 1 2 3 4 5 6 
#
# 1 93.6936 38.3467 23.4432 0.0000 0.0000 0.0000
# 2 38.3467 104.8121 24.7312 -0.0001 0.0000 0.0000
# 3 23.4432 24.7312 92.9809 -0.0002 0.0000 0.0000
# 4 0.0000 -0.0001 -0.0002 19.5041 0.0000 0.0000
# 5 0.0000 0.0000 0.0000 0.0000 9.6215 0.0000
# 6 0.0000 0.0000 0.0000 0.0000 0.0000 22.2397
#
#
#
# Elastic Compliance Matrix: (Units=1/GPa)
#
#
# Indices 1 2 3 4 5 6 
#
# 1 0.012939 -0.004230 -0.002137 0.000000 0.000000 0.000000
# 2 -0.004230 0.011562 -0.002009 0.000000 0.000000 0.000000
# 3 -0.002137 -0.002009 0.011828 0.000000 0.000000 0.000000
# 4 0.000000 0.000000 0.000000 0.051271 0.000000 0.000000
# 5 0.000000 0.000000 0.000000 0.000000 0.103933 0.000000
# 6 0.000000 0.000000 0.000000 0.000000 0.000000 0.044965
#
#
# Mechanical properties :
#
#
# Convention : Reuss Voigt Hill
#
# Bulk Modulus (GPa) = 51.07837 51.61429 51.34633
# Shear Modulus (GPa) = 19.24733 23.93744 21.59239
#
# Velocity S-wave (km/s) = 3.14991 3.51279 3.33628
# Velocity P-wave (km/s) = 6.28967 6.56200 6.42728
#
# Compressibility (1/GPa) = 0.01957776
#
# Stress axis : x y z
#
# Youngs Moduli (GPa) = 77.28624 86.48770 84.54426
#
# Poissons Ratio (x) = 0.36580 0.18070
# Poissons Ratio (y) = 0.32688 0.16985
# Poissons Ratio (z) = 0.16518 0.17375
#
# Static dielectric constant tensor:
#      x y z
#    x 3.621800 0.000000 0.000000 
#    y 0.000000 3.575270 0.000000 
#    z 0.000000 0.000000 3.906190 
# 
# 
# High freq. dielectric constant tensor:
#      x y z
#    x 1.737060 0.000000 0.000000 
#    y 0.000000 1.762760 0.000000 
#    z 0.000000 0.000000 1.752710 
# 
# From -- ./inp_files/46666.got.cif
#   From: 2010.06.25/outbox.cif.g09.slc.cpg/sg71_24_cif.got.tgz:46666.got - 2010.06.28 04:59:45.
