data_PCOD8289147
_publ_section_title
;
Structure prediction by ZEFSAII (Michael W. Deem and Ramdas Pophale) SiO2 
 PCOD8289147
Probable space group: I M M M
;
_chemical_formula_sum "Si O2"
_cell_formula_units_Z 80
_cell_length_a 27.060733
_cell_length_b 19.084536
_cell_length_c 8.121859
_cell_angle_alpha 90.000000
_cell_angle_beta 90.000000
_cell_angle_gamma 90.000000
_cell_volume 4194.465314
_symmetry_space_group_name_H-M "I M M M"
_symmetry_group_IT_number 71
_symmetry_cell_setting 'orthorhombic'
loop_
_space_group_symop_operation_xyz
x,y,z
-x,-y,z
x,-y,-z
-x,y,-z
-x,-y,-z
x,y,-z
-x,y,z
x,-y,z
1/2+x,1/2+y,1/2+z
1/2-x,1/2-y,1/2+z
1/2+x,1/2-y,1/2-z
1/2-x,1/2+y,1/2-z
1/2-x,1/2-y,1/2-z
1/2+x,1/2+y,1/2-z
1/2-x,1/2+y,1/2+z
1/2+x,1/2-y,1/2+z
loop_
_atom_site_type_symbol
_atom_site_label
_atom_site_fract_x
_atom_site_fract_y
_atom_site_fract_z
Si Si1 0.193667 0.326329 0.193925
Si Si2 0.386068 0.418013 0.816950
Si Si3 0.104411 0.578710 0.192974
Si Si4 0.500000 0.082492 0.187806
Si Si5 0.055084 0.916512 0.000000
Si Si6 0.300186 0.665611 0.311251
O O1 0.147225 0.370729 0.264377
O O2 0.243016 0.353289 0.282512
O O3 0.186454 0.245067 0.238558
O O4 0.200160 0.336397 0.000000
O O5 0.379152 0.500000 0.792509
O O6 0.419892 0.387868 0.668467
O O7 0.332254 0.383828 0.805433
O O8 0.408398 0.402004 0.000000
O O9 0.109514 0.500000 0.269435
O O10 0.050514 0.612121 0.232269
O O11 0.110809 0.574157 0.000000
O O12 0.500000 0.000000 0.216728
O O13 0.500000 0.105075 0.000000
O O14 0.000000 0.886226 0.000000
O O15 0.055059 0.000000 0.000000
O O16 0.313747 0.650526 0.500000
#
# Coordination Sequence:
#
# PCOD8289147 Si02
#       6
#    16  16  16   8   8  16
#     4   9  19  33  50  74 102 138 178 214 261 315
#     4  10  20  34  55  81 108 140 177 220 267 314
#     4   9  17  31  51  73  98 130 170 212 254 305
#     4   9  17  29  47  71  99 129 162 205 258 307
#     4   9  18  34  56  82 110 138 173 216 266 322
#     4  10  19  33  52  73 104 142 177 217 263 316
#
# _framework density 19.072752999999999
#
# number of rings (size 3 to 8) (size 9 to 14) (size 15 to 20)
#    0.000    2.600    1.000    0.900    0.000    4.000 
#    0.000    4.000    2.200    0.000    0.000    0.000 
#    0.000    0.000    0.000    0.000    0.000    0.000 
#
# Total GULP energy -495845.515846 kJ/mol
# GULP energy per Si atom -12396.137896 kJ/mol
# Density = 1.902934 g / cm^3
# Si number density = 19.072753 Si / 1000 Ang^3
#
#
#
# Elastic Constant Matrix: (Units=GPa)
#
#
# Indices 1 2 3 4 5 6 
#
# 1 155.4434 56.0814 49.8770 0.0000 0.0000 0.0000
# 2 56.0814 39.4155 25.7846 0.0000 0.0000 0.0000
# 3 49.8770 25.7846 88.1924 0.0000 0.0000 0.0000
# 4 0.0000 0.0000 0.0000 16.5936 0.0000 0.0000
# 5 0.0000 0.0000 0.0000 0.0000 29.6499 0.0000
# 6 0.0000 0.0000 0.0000 0.0000 0.0000 18.9108
#
#
#
# Elastic Compliance Matrix: (Units=1/GPa)
#
#
# Indices 1 2 3 4 5 6 
#
# 1 0.013659 -0.017782 -0.002526 0.000000 0.000000 0.000000
# 2 -0.017782 0.054521 -0.005883 0.000000 0.000000 0.000000
# 3 -0.002526 -0.005883 0.014487 0.000000 0.000000 0.000000
# 4 0.000000 0.000000 0.000000 0.060264 0.000000 0.000000
# 5 0.000000 0.000000 0.000000 0.000000 0.033727 0.000000
# 6 0.000000 0.000000 0.000000 0.000000 0.000000 0.052880
#
#
# Mechanical properties :
#
#
# Convention : Reuss Voigt Hill
#
# Bulk Modulus (GPa) = 33.02063 60.72635 46.87349
# Shear Modulus (GPa) = 17.12233 23.11808 20.12021
#
# Velocity S-wave (km/s) = 2.99948 3.48530 3.25148
# Velocity P-wave (km/s) = 5.41723 6.93577 6.22299
#
# Compressibility (1/GPa) = 0.03028410
#
# Stress axis : x y z
#
# Youngs Moduli (GPa) = 73.21021 18.34171 69.02507
#
# Poissons Ratio (x) = 0.32616 0.17436
# Poissons Ratio (y) = 1.30185 0.40609
# Poissons Ratio (z) = 0.18493 0.10791
#
# Static dielectric constant tensor:
#      x y z
#    x 3.654620 0.000000 0.000000 
#    y 0.000000 3.323810 0.000000 
#    z 0.000000 0.000000 3.525100 
# 
# 
# High freq. dielectric constant tensor:
#      x y z
#    x 1.744420 0.000000 0.000000 
#    y 0.000000 1.706050 0.000000 
#    z 0.000000 0.000000 1.743910 
# 
# From -- ./inp_files/12405.got.cif
#   From: 2010.06.25/outbox.cif.g09.slc.cpg/sg71_7_cif.got.tgz:12405.got - 2010.06.28 04:59:45.
