data_PCOD8289197
_publ_section_title
;
Structure prediction by ZEFSAII (Michael W. Deem and Ramdas Pophale) SiO2 
 PCOD8289197
Probable space group: I M M M
;
_chemical_formula_sum "Si O2"
_cell_formula_units_Z 104
_cell_length_a 14.185453
_cell_length_b 33.226015
_cell_length_c 12.665887
_cell_angle_alpha 90.000000
_cell_angle_beta 90.000000
_cell_angle_gamma 90.000000
_cell_volume 5969.762795
_symmetry_space_group_name_H-M "I M M M"
_symmetry_group_IT_number 71
_symmetry_cell_setting 'orthorhombic'
loop_
_space_group_symop_operation_xyz
x,y,z
-x,-y,z
x,-y,-z
-x,y,-z
-x,-y,-z
x,y,-z
-x,y,z
x,-y,z
1/2+x,1/2+y,1/2+z
1/2-x,1/2-y,1/2+z
1/2+x,1/2-y,1/2-z
1/2-x,1/2+y,1/2-z
1/2-x,1/2-y,1/2-z
1/2+x,1/2+y,1/2-z
1/2-x,1/2+y,1/2+z
1/2+x,1/2-y,1/2+z
loop_
_atom_site_type_symbol
_atom_site_label
_atom_site_fract_x
_atom_site_fract_y
_atom_site_fract_z
Si Si1 0.607392 0.671958 0.739717
Si Si2 0.710148 0.170621 0.877973
Si Si3 0.212820 0.546352 0.877277
Si Si4 0.604919 0.405963 0.120887
Si Si5 0.891478 0.751496 0.379715
Si Si6 0.111954 0.455022 0.500000
Si Si7 0.388587 0.094286 0.797821
O O1 0.500000 0.674105 0.698175
O O2 0.677262 0.670056 0.640064
O O3 0.624948 0.632967 0.810041
O O4 0.634389 0.710590 0.808565
O O5 0.670574 0.213787 0.842961
O O6 0.659676 0.137744 0.804629
O O7 0.687495 0.161599 0.000000
O O8 0.201664 0.500000 0.844902
O O9 0.320048 0.559416 0.851493
O O10 0.139423 0.572756 0.810962
O O11 0.188671 0.553039 0.000000
O O12 0.500000 0.423279 0.143234
O O13 0.614524 0.392151 0.000000
O O14 0.868385 0.763351 0.500000
O O15 0.000000 0.739046 0.366981
O O16 0.154388 0.500000 0.500000
O O17 0.148496 0.432393 0.395778
O O18 0.000000 0.456626 0.500000
O O19 0.500000 0.100097 0.801041
#
# Coordination Sequence:
#
# PCOD8289197 Si02
#       7
#    16  16  16  16  16   8  16
#     4  10  19  33  53  76 104 137 173 211 257 311
#     4  11  21  34  52  77 107 139 176 217 262 308
#     4  10  21  36  54  78 107 139 174 214 267 326
#     4   9  17  31  53  78 102 130 168 215 260 303
#     4   9  18  32  53  80 106 132 168 215 261 307
#     4   9  18  32  52  76  97 127 175 223 262 300
#     4  11  21  35  54  76 105 139 177 220 265 313
#
# _framework density 17.421128
#
# number of rings (size 3 to 8) (size 9 to 14) (size 15 to 20)
#    0.000    2.077    2.308    1.846    0.000    4.308 
#    0.000    2.308    0.000    0.000    0.000    2.154 
#    0.000    4.923    0.000    0.000    0.000    0.000 
#
# Total GULP energy -644877.683136 kJ/mol
# GULP energy per Si atom -12401.493906 kJ/mol
# Density = 1.738148 g / cm^3
# Si number density = 17.421128 Si / 1000 Ang^3
#
#
#
# Elastic Constant Matrix: (Units=GPa)
#
#
# Indices 1 2 3 4 5 6 
#
# 1 85.5054 36.0361 32.3369 -0.0002 0.0005 0.0002
# 2 36.0361 91.4722 35.6022 -0.0014 -0.0001 0.0002
# 3 32.3369 35.6022 57.0573 -0.0097 0.0013 0.0031
# 4 -0.0002 -0.0014 -0.0097 24.4119 0.0026 0.0016
# 5 0.0005 -0.0001 0.0013 0.0026 29.2316 -0.0007
# 6 0.0002 0.0002 0.0031 0.0016 -0.0007 26.1672
#
#
#
# Elastic Compliance Matrix: (Units=1/GPa)
#
#
# Indices 1 2 3 4 5 6 
#
# 1 0.015736 -0.003603 -0.006670 -0.000003 0.000000 0.000001
# 2 -0.003603 0.015264 -0.007482 -0.000002 0.000000 0.000001
# 3 -0.006670 -0.007482 0.025975 0.000010 -0.000001 -0.000003
# 4 -0.000003 -0.000002 0.000010 0.040964 -0.000004 -0.000002
# 5 0.000000 0.000000 -0.000001 -0.000004 0.034210 0.000001
# 6 0.000001 0.000001 -0.000003 -0.000002 0.000001 0.038216
#
#
# Mechanical properties :
#
#
# Convention : Reuss Voigt Hill
#
# Bulk Modulus (GPa) = 46.58899 49.10949 47.84924
# Shear Modulus (GPa) = 23.47084 24.63279 24.05182
#
# Velocity S-wave (km/s) = 3.67449 3.76435 3.71969
# Velocity P-wave (km/s) = 6.69353 6.86619 6.78041
#
# Compressibility (1/GPa) = 0.02146430
#
# Stress axis : x y z
#
# Youngs Moduli (GPa) = 63.54724 65.51355 38.49835
#
# Poissons Ratio (x) = 0.23607 0.25679
# Poissons Ratio (y) = 0.22898 0.28805
# Poissons Ratio (z) = 0.42387 0.49018
#
# Static dielectric constant tensor:
#      x y z
#    x 3.211970 0.000000 0.000000 
#    y 0.000000 3.304710 0.000000 
#    z 0.000000 0.000000 3.108930 
# 
# 
# High freq. dielectric constant tensor:
#      x y z
#    x 1.669320 0.000000 0.000000 
#    y 0.000000 1.680670 0.000000 
#    z 0.000000 0.000000 1.660220 
# 
# From -- ./inp_files/22673.got.cif
#   From: 2010.06.25/outbox.cif.g09.slc.cpg/sg71_12_cif.got.tgz:22673.got - 2010.06.28 04:59:45.
