data_PCOD8289668
_publ_section_title
;
Structure prediction by ZEFSAII (Michael W. Deem and Ramdas Pophale) SiO2 
 PCOD8289668
Probable space group: I M M M
;
_chemical_formula_sum "Si O2"
_cell_formula_units_Z 96
_cell_length_a 11.572090
_cell_length_b 37.092965
_cell_length_c 12.851677
_cell_angle_alpha 90.000000
_cell_angle_beta 90.000000
_cell_angle_gamma 90.000000
_cell_volume 5516.494053
_symmetry_space_group_name_H-M "I M M M"
_symmetry_group_IT_number 71
_symmetry_cell_setting 'orthorhombic'
loop_
_space_group_symop_operation_xyz
x,y,z
-x,-y,z
x,-y,-z
-x,y,-z
-x,-y,-z
x,y,-z
-x,y,z
x,-y,z
1/2+x,1/2+y,1/2+z
1/2-x,1/2-y,1/2+z
1/2+x,1/2-y,1/2-z
1/2-x,1/2+y,1/2-z
1/2-x,1/2-y,1/2-z
1/2+x,1/2+y,1/2-z
1/2-x,1/2+y,1/2+z
1/2+x,1/2-y,1/2+z
loop_
_atom_site_type_symbol
_atom_site_label
_atom_site_fract_x
_atom_site_fract_y
_atom_site_fract_z
Si Si1 0.000000 0.386359 0.623672
Si Si2 0.291876 0.154334 0.236741
Si Si3 0.634142 0.783107 0.386274
Si Si4 0.500000 0.958099 0.237777
Si Si5 0.368216 0.606101 0.879645
Si Si6 0.284324 0.040427 0.382368
Si Si7 0.372841 0.294908 0.622090
O O1 0.887322 0.368897 0.676473
O O2 0.000000 0.379168 0.500000
O O3 0.000000 0.429733 0.642372
O O4 0.348797 0.185463 0.304639
O O5 0.215910 0.130471 0.312903
O O6 0.209557 0.172536 0.152992
O O7 0.688707 0.793082 0.500000
O O8 0.500000 0.776540 0.402461
O O9 0.681858 0.744190 0.345819
O O10 0.611535 0.949297 0.306654
O O11 0.500000 0.000000 0.198920
O O12 0.500000 0.609438 0.840623
O O13 0.327254 0.565073 0.862981
O O14 0.358219 0.617684 0.000000
O O15 0.331229 0.045047 0.500000
O O16 0.241506 0.000000 0.361255
O O17 0.385597 0.295991 0.500000
O O18 0.500000 0.300588 0.673708
#
# Coordination Sequence:
#
# PCOD8289668 Si02
#       7
#     8  16  16   8  16  16  16
#     4  12  26  38  53  82 110 139 187 237 275 324
#     4  12  20  36  53  77 107 147 173 220 279 317
#     4   9  18  33  53  79 104 132 177 218 261 327
#     4  10  19  37  58  81 107 142 185 221 274 331
#     4  10  21  34  51  80 113 143 178 215 257 323
#     4   9  17  31  54  83 112 140 173 215 261 322
#     4   9  19  35  55  76  99 135 183 226 261 313
#
# _framework density 17.402358
#
# number of rings (size 3 to 8) (size 9 to 14) (size 15 to 20)
#    0.000    2.000    2.500    3.250    0.000    1.500 
#    0.000    1.667    0.000    0.000    0.000    0.000 
#    0.000    2.667    0.000    0.000    0.000    0.000 
#
# Total GULP energy -594887.642463 kJ/mol
# GULP energy per Si atom -12393.492551 kJ/mol
# Density = 1.736275 g / cm^3
# Si number density = 17.402358 Si / 1000 Ang^3
#
#
#
# Elastic Constant Matrix: (Units=GPa)
#
#
# Indices 1 2 3 4 5 6 
#
# 1 94.8331 51.0750 46.5918 0.0003 -0.0003 -0.0002
# 2 51.0750 111.4076 47.4284 -0.0004 -0.0004 -0.0003
# 3 46.5918 47.4284 66.4349 0.0004 -0.0010 -0.0007
# 4 0.0003 -0.0004 0.0004 31.8580 -0.0004 -0.0002
# 5 -0.0003 -0.0004 -0.0010 -0.0004 25.8034 0.0004
# 6 -0.0002 -0.0003 -0.0007 -0.0002 0.0004 25.8182
#
#
#
# Elastic Compliance Matrix: (Units=1/GPa)
#
#
# Indices 1 2 3 4 5 6 
#
# 1 0.017222 -0.003956 -0.009254 0.000000 0.000000 0.000000
# 2 -0.003956 0.013804 -0.007080 0.000000 0.000000 0.000000
# 3 -0.009254 -0.007080 0.026597 0.000000 0.000001 0.000001
# 4 0.000000 0.000000 0.000000 0.031389 0.000000 0.000000
# 5 0.000000 0.000000 0.000001 0.000000 0.038755 -0.000001
# 6 0.000000 0.000000 0.000001 0.000000 -0.000001 0.038732
#
#
# Mechanical properties :
#
#
# Convention : Reuss Voigt Hill
#
# Bulk Modulus (GPa) = 58.67684 62.54066 60.60875
# Shear Modulus (GPa) = 23.50068 25.20128 24.35098
#
# Velocity S-wave (km/s) = 3.67881 3.80959 3.74477
# Velocity P-wave (km/s) = 7.19971 7.44088 7.32129
#
# Compressibility (1/GPa) = 0.01704250
#
# Stress axis : x y z
#
# Youngs Moduli (GPa) = 58.06602 72.44334 37.59833
#
# Poissons Ratio (x) = 0.28657 0.34793
# Poissons Ratio (y) = 0.22970 0.26621
# Poissons Ratio (z) = 0.53733 0.51293
#
# Static dielectric constant tensor:
#      x y z
#    x 3.250750 0.000000 0.000000 
#    y 0.000000 3.484920 0.000000 
#    z 0.000000 0.000000 3.093230 
# 
# 
# High freq. dielectric constant tensor:
#      x y z
#    x 1.666880 0.000000 0.000000 
#    y 0.000000 1.684590 0.000000 
#    z 0.000000 0.000000 1.658160 
# 
# From -- ./inp_files/33222.got.cif
#   From: 2010.06.25/outbox.cif.g09.slc.cpg/sg71_17_cif.got.tgz:33222.got - 2010.06.28 04:59:45.
