data_PCOD8289558
_publ_section_title
;
Structure prediction by ZEFSAII (Michael W. Deem and Ramdas Pophale) SiO2 
 PCOD8289558
Probable space group: I M M M
;
_chemical_formula_sum "Si O2"
_cell_formula_units_Z 96
_cell_length_a 16.631992
_cell_length_b 11.716096
_cell_length_c 27.743954
_cell_angle_alpha 90.000000
_cell_angle_beta 90.000000
_cell_angle_gamma 90.000000
_cell_volume 5406.242779
_symmetry_space_group_name_H-M "I M M M"
_symmetry_group_IT_number 71
_symmetry_cell_setting 'orthorhombic'
loop_
_space_group_symop_operation_xyz
x,y,z
-x,-y,z
x,-y,-z
-x,y,-z
-x,-y,-z
x,y,-z
-x,y,z
x,-y,z
1/2+x,1/2+y,1/2+z
1/2-x,1/2-y,1/2+z
1/2+x,1/2-y,1/2-z
1/2-x,1/2+y,1/2-z
1/2-x,1/2-y,1/2-z
1/2+x,1/2+y,1/2-z
1/2-x,1/2+y,1/2+z
1/2+x,1/2-y,1/2+z
loop_
_atom_site_type_symbol
_atom_site_label
_atom_site_fract_x
_atom_site_fract_y
_atom_site_fract_z
Si Si1 0.409234 0.269373 0.000000
Si Si2 0.724302 0.266247 0.829272
Si Si3 0.324451 0.629798 0.403836
Si Si4 0.500000 0.867333 0.309521
Si Si5 0.090419 0.131942 0.602826
Si Si6 0.753754 0.365571 0.500000
Si Si7 0.165695 0.624102 0.759127
Si Si8 0.500000 0.367827 0.372003
O O1 0.393327 0.347495 0.046466
O O2 0.348159 0.163581 0.000000
O O3 0.500000 0.219670 0.000000
O O4 0.788164 0.187462 0.856526
O O5 0.654488 0.301701 0.865410
O O6 0.776351 0.367740 0.806072
O O7 0.683198 0.209023 0.783708
O O8 0.295622 0.500000 0.401546
O O9 0.289692 0.686950 0.452715
O O10 0.420904 0.640058 0.404969
O O11 0.424408 0.854794 0.275371
O O12 0.500000 0.750640 0.341450
O O13 0.500000 0.000000 0.333239
O O14 0.000000 0.172633 0.616342
O O15 0.101003 0.000000 0.614033
O O16 0.743048 0.500000 0.500000
O O17 0.177415 0.500000 0.736812
O O18 0.500000 0.500000 0.347494
#
# Coordination Sequence:
#
# PCOD8289558 Si02
#       8
#     8  16  16   8  16   8  16   8
#     4  10  19  35  57  80 112 147 178 224 271 331
#     4  11  20  35  58  77 110 142 187 229 280 329
#     4  10  20  35  57  83 113 142 182 231 278 331
#     4  10  20  38  57  81 115 151 187 234 291 347
#     4  10  21  36  55  81 110 144 186 232 277 328
#     4  10  20  35  55  84 115 144 178 224 275 331
#     4  10  22  36  54  80 110 145 184 229 285 339
#     4  10  20  37  60  88 112 148 193 235 288 341
#
# _framework density 17.757249999999999
#
# number of rings (size 3 to 8) (size 9 to 14) (size 15 to 20)
#    0.000    1.833    3.333    1.250    1.167    1.500 
#    0.000    2.500    0.000    0.000    0.000    0.583 
#    0.000    0.000    0.000    0.000    0.000    0.000 
#
# Total GULP energy -594674.084139 kJ/mol
# GULP energy per Si atom -12389.043420 kJ/mol
# Density = 1.771683 g / cm^3
# Si number density = 17.757250 Si / 1000 Ang^3
#
#
#
# Elastic Constant Matrix: (Units=GPa)
#
#
# Indices 1 2 3 4 5 6 
#
# 1 132.5607 36.0372 52.0165 0.0000 0.0000 0.0000
# 2 36.0372 71.7294 29.0213 0.0000 0.0000 0.0000
# 3 52.0165 29.0213 90.9430 0.0000 0.0000 0.0000
# 4 0.0000 0.0000 0.0000 15.8020 0.0000 0.0000
# 5 0.0000 0.0000 0.0000 0.0000 42.4262 0.0000
# 6 0.0000 0.0000 0.0000 0.0000 0.0000 33.3146
#
#
#
# Elastic Compliance Matrix: (Units=1/GPa)
#
#
# Indices 1 2 3 4 5 6 
#
# 1 0.010335 -0.003216 -0.004885 0.000000 0.000000 0.000000
# 2 -0.003216 0.017009 -0.003588 0.000000 0.000000 0.000000
# 3 -0.004885 -0.003588 0.014935 0.000000 0.000000 0.000000
# 4 0.000000 0.000000 0.000000 0.063283 0.000000 0.000000
# 5 0.000000 0.000000 0.000000 0.000000 0.023570 0.000000
# 6 0.000000 0.000000 0.000000 0.000000 0.000000 0.030017
#
#
# Mechanical properties :
#
#
# Convention : Reuss Voigt Hill
#
# Bulk Modulus (GPa) = 52.90936 58.82035 55.86486
# Shear Modulus (GPa) = 26.47920 30.18577 28.33248
#
# Velocity S-wave (km/s) = 3.86576 4.12747 3.99876
# Velocity P-wave (km/s) = 7.05593 7.47739 7.26971
#
# Compressibility (1/GPa) = 0.01890025
#
# Stress axis : x y z
#
# Youngs Moduli (GPa) = 96.76049 58.79313 66.95653
#
# Poissons Ratio (x) = 0.18907 0.32708
# Poissons Ratio (y) = 0.31116 0.24027
# Poissons Ratio (z) = 0.47267 0.21097
#
# Static dielectric constant tensor:
#      x y z
#    x 3.504910 0.000000 0.000000 
#    y 0.000000 3.410350 0.000000 
#    z 0.000000 0.000000 3.342120 
# 
# 
# High freq. dielectric constant tensor:
#      x y z
#    x 1.706090 0.000000 0.000000 
#    y 0.000000 1.680910 0.000000 
#    z 0.000000 0.000000 1.681140 
# 
# From -- ./inp_files/69929.got.cif
#   From: 2010.06.25/outbox.cif.g09.slc.cpg/sg71_35_cif.got.tgz:69929.got - 2010.06.28 04:59:45.
