data_PCOD8289532
_publ_section_title
;
Structure prediction by ZEFSAII (Michael W. Deem and Ramdas Pophale) SiO2 
 PCOD8289532
Probable space group: I M M M
;
_chemical_formula_sum "Si O2"
_cell_formula_units_Z 80
_cell_length_a 9.671219
_cell_length_b 16.074663
_cell_length_c 28.195889
_cell_angle_alpha 90.000000
_cell_angle_beta 90.000000
_cell_angle_gamma 90.000000
_cell_volume 4383.377629
_symmetry_space_group_name_H-M "I M M M"
_symmetry_group_IT_number 71
_symmetry_cell_setting 'orthorhombic'
loop_
_space_group_symop_operation_xyz
x,y,z
-x,-y,z
x,-y,-z
-x,y,-z
-x,-y,-z
x,y,-z
-x,y,z
x,-y,z
1/2+x,1/2+y,1/2+z
1/2-x,1/2-y,1/2+z
1/2+x,1/2-y,1/2-z
1/2-x,1/2+y,1/2-z
1/2-x,1/2-y,1/2-z
1/2+x,1/2+y,1/2-z
1/2-x,1/2+y,1/2+z
1/2+x,1/2-y,1/2+z
loop_
_atom_site_type_symbol
_atom_site_label
_atom_site_fract_x
_atom_site_fract_y
_atom_site_fract_z
Si Si1 0.847834 0.000000 0.678889
Si Si2 0.655604 0.500000 0.068164
Si Si3 0.346594 0.140845 0.286603
Si Si4 0.343085 0.904363 0.818295
Si Si5 0.841749 0.658422 0.052650
Si Si6 0.656832 0.277806 0.362659
O O1 0.860671 0.000000 0.623488
O O2 0.769929 0.918119 0.693793
O O3 0.000000 0.000000 0.702440
O O4 0.500000 0.500000 0.045830
O O5 0.740642 0.580057 0.051717
O O6 0.500000 0.104103 0.297397
O O7 0.327727 0.148279 0.230198
O O8 0.329740 0.228341 0.313072
O O9 0.500000 0.901877 0.836624
O O10 0.249446 0.860622 0.858287
O O11 0.295428 0.000000 0.810080
O O12 0.790863 0.723832 0.092411
O O13 0.000000 0.630565 0.064605
O O14 0.836081 0.699302 0.000000
O O15 0.500000 0.306404 0.371462
#
# Coordination Sequence:
#
# PCOD8289532 Si02
#       6
#     8   8  16  16  16  16
#     4  11  21  30  48  79 112 146 181 217 254 299
#     4  11  22  34  51  80 114 146 180 219 261 305
#     4  10  19  35  55  75 106 146 181 211 257 312
#     4  10  21  36  55  78 106 139 174 215 264 318
#     4  10  21  37  57  79 105 141 182 220 262 316
#     4  10  21  35  55  80 105 137 176 220 264 310
#
# _framework density 18.250765000000001
#
# number of rings (size 3 to 8) (size 9 to 14) (size 15 to 20)
#    0.000    1.800    3.000    1.500    0.000    5.200 
#    0.000    0.000    0.000    0.600    0.000    4.200 
#    0.000    0.000    0.000    0.000    0.000    0.000 
#
# Total GULP energy -495854.696016 kJ/mol
# GULP energy per Si atom -12396.367400 kJ/mol
# Density = 1.820923 g / cm^3
# Si number density = 18.250765 Si / 1000 Ang^3
#
#
#
# Elastic Constant Matrix: (Units=GPa)
#
#
# Indices 1 2 3 4 5 6 
#
# 1 102.1425 45.5734 39.2632 0.0000 0.0000 0.0000
# 2 45.5734 73.0127 47.1220 0.0000 0.0000 0.0000
# 3 39.2632 47.1220 85.2986 0.0000 0.0000 0.0000
# 4 0.0000 0.0000 0.0000 16.0062 0.0000 0.0000
# 5 0.0000 0.0000 0.0000 0.0000 19.3304 0.0000
# 6 0.0000 0.0000 0.0000 0.0000 0.0000 36.5499
#
#
#
# Elastic Compliance Matrix: (Units=1/GPa)
#
#
# Indices 1 2 3 4 5 6 
#
# 1 0.013903 -0.007068 -0.002495 0.000000 0.000000 0.000000
# 2 -0.007068 0.024878 -0.010490 0.000000 0.000000 0.000000
# 3 -0.002495 -0.010490 0.018667 0.000000 0.000000 0.000000
# 4 0.000000 0.000000 0.000000 0.062476 0.000000 0.000000
# 5 0.000000 0.000000 0.000000 0.000000 0.051732 0.000000
# 6 0.000000 0.000000 0.000000 0.000000 0.000000 0.027360
#
#
# Mechanical properties :
#
#
# Convention : Reuss Voigt Hill
#
# Bulk Modulus (GPa) = 57.66308 58.26343 57.96325
# Shear Modulus (GPa) = 20.41628 22.94363 21.67996
#
# Velocity S-wave (km/s) = 3.34826 3.54945 3.45032
# Velocity P-wave (km/s) = 6.82724 6.98508 6.90661
#
# Compressibility (1/GPa) = 0.01734212
#
# Stress axis : x y z
#
# Youngs Moduli (GPa) = 71.92845 40.19599 53.56966
#
# Poissons Ratio (x) = 0.28409 0.13366
# Poissons Ratio (y) = 0.50836 0.56197
# Poissons Ratio (z) = 0.17947 0.42167
#
# Static dielectric constant tensor:
#      x y z
#    x 3.657480 0.000000 0.000000 
#    y 0.000000 3.067910 0.000000 
#    z 0.000000 0.000000 3.366240 
# 
# 
# High freq. dielectric constant tensor:
#      x y z
#    x 1.716360 0.000000 0.000000 
#    y 0.000000 1.680190 0.000000 
#    z 0.000000 0.000000 1.698350 
# 
# From -- ./inp_files/63055.got.cif
#   From: 2010.06.25/outbox.cif.g09.slc.cpg/sg71_32_cif.got.tgz:63055.got - 2010.06.28 04:59:45.
