data_PCOD8289106
_publ_section_title
;
Structure prediction by ZEFSAII (Michael W. Deem and Ramdas Pophale) SiO2 
 PCOD8289106
Probable space group: I M M M
;
_chemical_formula_sum "Si O2"
_cell_formula_units_Z 80
_cell_length_a 13.334189
_cell_length_b 18.541112
_cell_length_c 18.978376
_cell_angle_alpha 90.000000
_cell_angle_beta 90.000000
_cell_angle_gamma 90.000000
_cell_volume 4692.037025
_symmetry_space_group_name_H-M "I M M M"
_symmetry_group_IT_number 71
_symmetry_cell_setting 'orthorhombic'
loop_
_space_group_symop_operation_xyz
x,y,z
-x,-y,z
x,-y,-z
-x,y,-z
-x,-y,-z
x,y,-z
-x,y,z
x,-y,z
1/2+x,1/2+y,1/2+z
1/2-x,1/2-y,1/2+z
1/2+x,1/2-y,1/2-z
1/2-x,1/2+y,1/2-z
1/2-x,1/2-y,1/2-z
1/2+x,1/2+y,1/2-z
1/2-x,1/2+y,1/2+z
1/2+x,1/2-y,1/2+z
loop_
_atom_site_type_symbol
_atom_site_label
_atom_site_fract_x
_atom_site_fract_y
_atom_site_fract_z
Si Si1 0.798059 0.639998 0.214806
Si Si2 0.749751 0.000000 0.079940
Si Si3 0.884874 0.415362 0.920287
Si Si4 0.885833 0.791618 0.778665
Si Si5 0.881608 0.500000 0.291047
Si Si6 0.885551 0.136560 0.921333
O O1 0.811414 0.628548 0.131086
O O2 0.860558 0.709433 0.240776
O O3 0.681346 0.653330 0.232643
O O4 0.838878 0.570537 0.254190
O O5 0.816123 0.930643 0.097056
O O6 0.650855 0.000000 0.127636
O O7 0.711702 0.000000 0.000000
O O8 0.869630 0.500000 0.908507
O O9 0.000000 0.394480 0.903396
O O10 0.857599 0.393596 0.000000
O O11 0.865871 0.802379 0.862550
O O12 0.000000 0.808755 0.758309
O O13 0.000000 0.500000 0.285069
O O14 0.000000 0.109399 0.917803
O O15 0.861987 0.167341 0.000000
#
# Coordination Sequence:
#
# PCOD8289106 Si02
#       6
#    16   8  16  16   8  16
#     4  11  21  35  54  78 106 139 170 214 266 307
#     4  10  19  33  50  74 106 139 178 216 253 298
#     4   9  17  30  51  78 104 130 166 214 263 309
#     4  10  21  35  52  78 108 138 174 213 258 315
#     4  12  22  34  54  78 102 138 180 216 258 307
#     4   9  17  31  52  77 105 136 171 213 262 310
#
# _framework density 17.050163999999999
#
# number of rings (size 3 to 8) (size 9 to 14) (size 15 to 20)
#    0.000    2.000    3.000    2.700    0.000    2.200 
#    0.000    2.500    0.000    0.600    0.000    1.400 
#    0.000    0.000    0.000    0.000    0.000    0.000 
#
# Total GULP energy -495960.738249 kJ/mol
# GULP energy per Si atom -12399.018456 kJ/mol
# Density = 1.701136 g / cm^3
# Si number density = 17.050164 Si / 1000 Ang^3
#
#
#
# Elastic Constant Matrix: (Units=GPa)
#
#
# Indices 1 2 3 4 5 6 
#
# 1 116.1931 53.7114 64.9193 0.0000 0.0000 0.0000
# 2 53.7114 92.7543 42.0145 0.0000 0.0000 0.0000
# 3 64.9193 42.0145 107.9047 0.0000 0.0000 0.0000
# 4 0.0000 0.0000 0.0000 91.0918 0.0000 0.0000
# 5 0.0000 0.0000 0.0000 0.0000 29.9592 0.0000
# 6 0.0000 0.0000 0.0000 0.0000 0.0000 27.5164
#
#
#
# Elastic Compliance Matrix: (Units=1/GPa)
#
#
# Indices 1 2 3 4 5 6 
#
# 1 0.015026 -0.005593 -0.006862 0.000000 0.000000 0.000000
# 2 -0.005593 0.015171 -0.002543 0.000000 0.000000 0.000000
# 3 -0.006862 -0.002543 0.014386 0.000000 0.000000 0.000000
# 4 0.000000 0.000000 0.000000 0.010978 0.000000 0.000000
# 5 0.000000 0.000000 0.000000 0.000000 0.033379 0.000000
# 6 0.000000 0.000000 0.000000 0.000000 0.000000 0.036342
#
#
# Mechanical properties :
#
#
# Convention : Reuss Voigt Hill
#
# Bulk Modulus (GPa) = 68.54897 70.90470 69.72683
# Shear Modulus (GPa) = 31.22275 40.12729 35.67502
#
# Velocity S-wave (km/s) = 4.28393 4.85653 4.57919
# Velocity P-wave (km/s) = 8.04742 8.55126 8.30316
#
# Compressibility (1/GPa) = 0.01458811
#
# Stress axis : x y z
#
# Youngs Moduli (GPa) = 66.55239 65.91380 69.51134
#
# Poissons Ratio (x) = 0.36862 0.47702
# Poissons Ratio (y) = 0.37220 0.17674
# Poissons Ratio (z) = 0.45672 0.16759
#
# Static dielectric constant tensor:
#      x y z
#    x 3.125580 0.000000 0.000000 
#    y 0.000000 3.158100 0.000000 
#    z 0.000000 0.000000 3.380360 
# 
# 
# High freq. dielectric constant tensor:
#      x y z
#    x 1.638350 0.000000 0.000000 
#    y 0.000000 1.659490 0.000000 
#    z 0.000000 0.000000 1.661120 
# 
# From -- ./inp_files/36288.got.cif
#   From: 2010.06.25/outbox.cif.g09.slc.cpg/sg71_19_cif.got.tgz:36288.got - 2010.06.28 04:59:45.
