data_PCOD8289144
_publ_section_title
;
Structure prediction by ZEFSAII (Michael W. Deem and Ramdas Pophale) SiO2 
 PCOD8289144
Probable space group: I M M M
;
_chemical_formula_sum "Si O2"
_cell_formula_units_Z 128
_cell_length_a 17.832818
_cell_length_b 20.567625
_cell_length_c 19.908728
_cell_angle_alpha 90.000000
_cell_angle_beta 90.000000
_cell_angle_gamma 90.000000
_cell_volume 7302.097640
_symmetry_space_group_name_H-M "I M M M"
_symmetry_group_IT_number 71
_symmetry_cell_setting 'orthorhombic'
loop_
_space_group_symop_operation_xyz
x,y,z
-x,-y,z
x,-y,-z
-x,y,-z
-x,-y,-z
x,y,-z
-x,y,z
x,-y,z
1/2+x,1/2+y,1/2+z
1/2-x,1/2-y,1/2+z
1/2+x,1/2-y,1/2-z
1/2-x,1/2+y,1/2-z
1/2-x,1/2-y,1/2-z
1/2+x,1/2+y,1/2-z
1/2-x,1/2+y,1/2+z
1/2+x,1/2-y,1/2+z
loop_
_atom_site_type_symbol
_atom_site_label
_atom_site_fract_x
_atom_site_fract_y
_atom_site_fract_z
Si Si1 0.670868 0.688275 0.237794
Si Si2 0.780804 0.735392 0.139350
Si Si3 0.316338 0.167295 0.074969
Si Si4 0.912923 0.428325 0.801731
Si Si5 0.912495 0.925267 0.201941
Si Si6 0.411514 0.180526 0.799873
Si Si7 0.914061 0.341705 0.922484
Si Si8 0.818639 0.075108 0.074531
O O1 0.735796 0.679549 0.181006
O O2 0.707615 0.703960 0.309816
O O3 0.625966 0.620629 0.242138
O O4 0.617107 0.748430 0.220007
O O5 0.727061 0.763658 0.081450
O O6 0.858602 0.713008 0.106550
O O7 0.385792 0.161545 0.125608
O O8 0.258898 0.109843 0.091404
O O9 0.349155 0.162077 0.000000
O O10 0.875621 0.500000 0.791508
O O11 0.878448 0.373263 0.752410
O O12 0.901424 0.407079 0.879401
O O13 0.000000 0.434140 0.784796
O O14 0.883144 0.907029 0.127703
O O15 0.000000 0.911103 0.202261
O O16 0.894456 0.000000 0.220604
O O17 0.500000 0.182066 0.796996
O O18 0.000000 0.316620 0.914057
O O19 0.895647 0.357131 0.000000
O O20 0.799073 0.000000 0.077851
O O21 0.847821 0.095312 0.000000
#
# Coordination Sequence:
#
# PCOD8289144 Si02
#       8
#    16  16  16  16  16  16  16  16
#     4  10  19  33  54  74 102 135 173 216 260 312
#     4  10  19  33  52  73 101 135 174 210 256 310
#     4  10  20  34  51  73 101 134 172 215 261 307
#     4   9  18  32  49  71 100 132 167 208 254 304
#     4  10  20  33  52  78 105 133 168 218 268 307
#     4  10  20  34  54  76  99 134 174 217 267 311
#     4  10  20  33  51  76 106 138 172 212 259 309
#     4   9  18  32  47  65  96 138 176 206 248 310
#
# _framework density 17.529209999999999
#
# number of rings (size 3 to 8) (size 9 to 14) (size 15 to 20)
#    0.000    2.250    2.500    0.750    0.000    1.750 
#    0.000    4.375    0.000    0.000    0.000    3.500 
#    0.000    4.500    0.000   40.125    0.000    0.125 
#
# Total GULP energy -793281.791792 kJ/mol
# GULP energy per Si atom -12395.027997 kJ/mol
# Density = 1.748931 g / cm^3
# Si number density = 17.529210 Si / 1000 Ang^3
#
#
#
# Elastic Constant Matrix: (Units=GPa)
#
#
# Indices 1 2 3 4 5 6 
#
# 1 63.3693 32.8382 41.2058 0.0000 0.0000 0.0000
# 2 32.8382 83.7780 44.9150 0.0000 0.0000 0.0000
# 3 41.2058 44.9150 107.0776 0.0000 0.0000 0.0000
# 4 0.0000 0.0000 0.0000 17.9055 0.0000 0.0000
# 5 0.0000 0.0000 0.0000 0.0000 29.0600 0.0000
# 6 0.0000 0.0000 0.0000 0.0000 0.0000 24.1331
#
#
#
# Elastic Compliance Matrix: (Units=1/GPa)
#
#
# Indices 1 2 3 4 5 6 
#
# 1 0.022838 -0.005470 -0.006494 0.000000 0.000000 0.000000
# 2 -0.005470 0.016710 -0.004904 0.000000 0.000000 0.000000
# 3 -0.006494 -0.004904 0.013895 0.000000 0.000000 0.000000
# 4 0.000000 0.000000 0.000000 0.055849 0.000000 0.000000
# 5 0.000000 0.000000 0.000000 0.000000 0.034412 0.000000
# 6 0.000000 0.000000 0.000000 0.000000 0.000000 0.041437
#
#
# Mechanical properties :
#
#
# Convention : Reuss Voigt Hill
#
# Bulk Modulus (GPa) = 50.74530 54.68255 52.71392
# Shear Modulus (GPa) = 22.17840 23.23746 22.70793
#
# Velocity S-wave (km/s) = 3.56086 3.64489 3.60312
# Velocity P-wave (km/s) = 6.77629 6.99832 6.88820
#
# Compressibility (1/GPa) = 0.01970626
#
# Stress axis : x y z
#
# Youngs Moduli (GPa) = 43.78697 59.84605 71.96783
#
# Poissons Ratio (x) = 0.32736 0.46736
# Poissons Ratio (y) = 0.23952 0.35293
# Poissons Ratio (z) = 0.28435 0.29349
#
# Static dielectric constant tensor:
#      x y z
#    x 3.153790 0.000000 0.000000 
#    y 0.000000 3.260110 0.000000 
#    z 0.000000 0.000000 3.360200 
# 
# 
# High freq. dielectric constant tensor:
#      x y z
#    x 1.666430 0.000000 0.000000 
#    y 0.000000 1.667770 0.000000 
#    z 0.000000 0.000000 1.674060 
# 
# From -- ./inp_files/54491.got.cif
#   From: 2010.06.25/outbox.cif.g09.slc.cpg/sg71_28_cif.got.tgz:54491.got - 2010.06.28 04:59:45.
