data_PCOD8289328
_publ_section_title
;
Structure prediction by ZEFSAII (Michael W. Deem and Ramdas Pophale) SiO2 
 PCOD8289328
Probable space group: I M M M
;
_chemical_formula_sum "Si O2"
_cell_formula_units_Z 104
_cell_length_a 14.554524
_cell_length_b 20.586399
_cell_length_c 18.490359
_cell_angle_alpha 90.000000
_cell_angle_beta 90.000000
_cell_angle_gamma 90.000000
_cell_volume 5540.178222
_symmetry_space_group_name_H-M "I M M M"
_symmetry_group_IT_number 71
_symmetry_cell_setting 'orthorhombic'
loop_
_space_group_symop_operation_xyz
x,y,z
-x,-y,z
x,-y,-z
-x,y,-z
-x,-y,-z
x,y,-z
-x,y,z
x,-y,z
1/2+x,1/2+y,1/2+z
1/2-x,1/2-y,1/2+z
1/2+x,1/2-y,1/2-z
1/2-x,1/2+y,1/2-z
1/2-x,1/2-y,1/2-z
1/2+x,1/2+y,1/2-z
1/2-x,1/2+y,1/2+z
1/2+x,1/2-y,1/2+z
loop_
_atom_site_type_symbol
_atom_site_label
_atom_site_fract_x
_atom_site_fract_y
_atom_site_fract_z
Si Si1 0.891192 0.500000 0.920459
Si Si2 0.732093 0.072309 0.823933
Si Si3 0.891912 0.604097 0.807835
Si Si4 0.605266 0.427294 0.781426
Si Si5 0.606177 0.749197 0.322228
Si Si6 0.105376 0.204998 0.660795
Si Si7 0.237940 0.303837 0.414585
O O1 0.858952 0.563719 0.877474
O O2 0.000000 0.500000 0.927627
O O3 0.845598 0.500000 0.000000
O O4 0.655372 0.075300 0.762464
O O5 0.832124 0.084963 0.788820
O O6 0.707772 0.125778 0.884400
O O7 0.729296 0.000000 0.858762
O O8 0.859843 0.676837 0.822803
O O9 0.000000 0.598926 0.794129
O O10 0.500000 0.418831 0.754957
O O11 0.622412 0.500000 0.813314
O O12 0.625489 0.373010 0.843761
O O13 0.500000 0.742474 0.342663
O O14 0.628832 0.722465 0.243241
O O15 0.661833 0.711407 0.383352
O O16 0.167056 0.247060 0.607180
O O17 0.000000 0.221251 0.641604
O O18 0.242933 0.307873 0.500000
#
# Coordination Sequence:
#
# PCOD8289328 Si02
#       7
#     8  16  16  16  16  16  16
#     4   9  18  32  50  78 116 148 174 217 282 346
#     4  11  21  35  57  82 110 149 198 237 274 334
#     4  10  19  33  57  85 112 146 188 231 277 339
#     4   9  18  33  58  89 110 133 181 240 283 322
#     4  10  20  36  61  86 107 143 193 237 281 340
#     4  10  19  36  62  85 110 147 191 237 281 336
#     4  12  25  38  55  83 120 153 187 239 293 340
#
# _framework density 18.771958999999999
#
# number of rings (size 3 to 8) (size 9 to 14) (size 15 to 20)
#    0.000    1.769    3.846    1.385    0.000    1.538 
#    0.000    1.538    0.000    0.462    0.000    7.538 
#    0.000    0.000    0.000    0.000    0.000    0.000 
#
# Total GULP energy -644701.909195 kJ/mol
# GULP energy per Si atom -12398.113638 kJ/mol
# Density = 1.872923 g / cm^3
# Si number density = 18.771959 Si / 1000 Ang^3
#
#
#
# Elastic Constant Matrix: (Units=GPa)
#
#
# Indices 1 2 3 4 5 6 
#
# 1 52.7125 22.7969 25.0164 0.0000 0.0000 0.0000
# 2 22.7969 129.6049 37.3928 0.0000 0.0000 0.0000
# 3 25.0164 37.3928 91.8598 0.0000 0.0000 0.0000
# 4 0.0000 0.0000 0.0000 34.7061 0.0000 0.0000
# 5 0.0000 0.0000 0.0000 0.0000 16.7486 0.0000
# 6 0.0000 0.0000 0.0000 0.0000 0.0000 20.4454
#
#
#
# Elastic Compliance Matrix: (Units=1/GPa)
#
#
# Indices 1 2 3 4 5 6 
#
# 1 0.022467 -0.002478 -0.005110 0.000000 0.000000 0.000000
# 2 -0.002478 0.009016 -0.002995 0.000000 0.000000 0.000000
# 3 -0.005110 -0.002995 0.013497 0.000000 0.000000 0.000000
# 4 0.000000 0.000000 0.000000 0.028813 0.000000 0.000000
# 5 0.000000 0.000000 0.000000 0.000000 0.059707 0.000000
# 6 0.000000 0.000000 0.000000 0.000000 0.000000 0.048911
#
#
# Mechanical properties :
#
#
# Convention : Reuss Voigt Hill
#
# Bulk Modulus (GPa) = 41.99138 49.39883 45.69510
# Shear Modulus (GPa) = 23.63898 26.97809 25.30854
#
# Velocity S-wave (km/s) = 3.55247 3.79509 3.67578
# Velocity P-wave (km/s) = 6.26454 6.75099 6.51231
#
# Compressibility (1/GPa) = 0.02381441
#
# Stress axis : x y z
#
# Youngs Moduli (GPa) = 44.50875 110.91732 74.09028
#
# Poissons Ratio (x) = 0.27481 0.37861
# Poissons Ratio (y) = 0.11027 0.22192
# Poissons Ratio (z) = 0.22744 0.33222
#
# Static dielectric constant tensor:
#      x y z
#    x 3.478960 0.000000 0.000000 
#    y 0.000000 4.096420 0.000000 
#    z 0.000000 0.000000 3.107630 
# 
# 
# High freq. dielectric constant tensor:
#      x y z
#    x 1.734960 0.000000 0.000000 
#    y 0.000000 1.756440 0.000000 
#    z 0.000000 0.000000 1.677590 
# 
# From -- ./inp_files/44970.got.cif
#   From: 2010.06.25/outbox.cif.g09.slc.cpg/sg71_23_cif.got.tgz:44970.got - 2010.06.28 04:59:45.
