data_PCOD8289813
_publ_section_title
;
Structure prediction by ZEFSAII (Michael W. Deem and Ramdas Pophale) SiO2 
 PCOD8289813
Probable space group: I M M M
;
_chemical_formula_sum "Si O2"
_cell_formula_units_Z 96
_cell_length_a 28.131340
_cell_length_b 20.454735
_cell_length_c 9.398993
_cell_angle_alpha 90.000000
_cell_angle_beta 90.000000
_cell_angle_gamma 90.000000
_cell_volume 5408.360139
_symmetry_space_group_name_H-M "I M M M"
_symmetry_group_IT_number 71
_symmetry_cell_setting 'orthorhombic'
loop_
_space_group_symop_operation_xyz
x,y,z
-x,-y,z
x,-y,-z
-x,y,-z
-x,-y,-z
x,y,-z
-x,y,z
x,-y,z
1/2+x,1/2+y,1/2+z
1/2-x,1/2-y,1/2+z
1/2+x,1/2-y,1/2-z
1/2-x,1/2+y,1/2-z
1/2-x,1/2-y,1/2-z
1/2+x,1/2+y,1/2-z
1/2-x,1/2+y,1/2+z
1/2+x,1/2-y,1/2+z
loop_
_atom_site_type_symbol
_atom_site_label
_atom_site_fract_x
_atom_site_fract_y
_atom_site_fract_z
Si Si1 0.613473 0.308168 0.669549
Si Si2 0.053198 0.313914 0.831058
Si Si3 0.721184 0.695471 0.333211
Si Si4 0.784388 0.573980 0.335808
Si Si5 0.446697 0.572301 0.330716
Si Si6 0.622490 0.074364 0.334170
O O1 0.612894 0.309172 0.500000
O O2 0.583358 0.247027 0.728706
O O3 0.667344 0.303422 0.724471
O O4 0.589724 0.374272 0.731423
O O5 0.078893 0.380707 0.782952
O O6 0.000000 0.312752 0.766333
O O7 0.050326 0.309713 0.000000
O O8 0.723803 0.711820 0.500000
O O9 0.750000 0.750000 0.250000
O O10 0.741611 0.623286 0.300678
O O11 0.799072 0.578160 0.500000
O O12 0.768318 0.500000 0.295764
O O13 0.830010 0.595948 0.246256
O O14 0.446077 0.574402 0.500000
O O15 0.500000 0.588536 0.277188
O O16 0.431287 0.500000 0.277797
O O17 0.632976 0.084622 0.500000
O O18 0.608362 0.000000 0.298405
#
# Coordination Sequence:
#
# PCOD8289813 Si02
#       6
#    16  16  16  16  16  16
#     4   9  16  25  38  57  82 112 144 176 212 256
#     4   9  16  25  39  60  85 111 139 175 217 258
#     4  10  20  32  47  67  91 120 152 187 225 264
#     4   9  18  32  48  66  90 120 152 185 223 266
#     4   8  13  21  34  54  82 114 142 169 208 258
#     4   9  17  29  46  67  89 114 145 181 220 261
#
# _framework density 17.750297
#
# number of rings (size 3 to 8) (size 9 to 14) (size 15 to 20)
#    0.000    3.000    0.000    2.000    0.000    5.000 
#    0.000    5.000    0.000    0.500    0.000    2.333 
#    0.000    2.000    0.000    1.833    0.000    2.833 
#
# Total GULP energy -595060.192495 kJ/mol
# GULP energy per Si atom -12397.087344 kJ/mol
# Density = 1.770990 g / cm^3
# Si number density = 17.750297 Si / 1000 Ang^3
#
#
#
# Elastic Constant Matrix: (Units=GPa)
#
#
# Indices 1 2 3 4 5 6 
#
# 1 172.2254 99.7990 26.7090 0.0000 0.0000 0.0000
# 2 99.7990 139.2737 23.9213 0.0000 0.0000 0.0000
# 3 26.7090 23.9213 17.6230 0.0000 0.0000 0.0000
# 4 0.0000 0.0000 0.0000 15.7324 0.0000 0.0000
# 5 0.0000 0.0000 0.0000 0.0000 18.0904 0.0000
# 6 0.0000 0.0000 0.0000 0.0000 0.0000 39.3016
#
#
#
# Elastic Compliance Matrix: (Units=1/GPa)
#
#
# Indices 1 2 3 4 5 6 
#
# 1 0.010645 -0.006334 -0.007536 0.000000 0.000000 0.000000
# 2 -0.006334 0.013131 -0.008225 0.000000 0.000000 0.000000
# 3 -0.007536 -0.008225 0.079331 0.000000 0.000000 0.000000
# 4 0.000000 0.000000 0.000000 0.063563 0.000000 0.000000
# 5 0.000000 0.000000 0.000000 0.000000 0.055278 0.000000
# 6 0.000000 0.000000 0.000000 0.000000 0.000000 0.025444
#
#
# Mechanical properties :
#
#
# Convention : Reuss Voigt Hill
#
# Bulk Modulus (GPa) = 16.97312 69.99785 43.48549
# Shear Modulus (GPa) = 16.06570 26.53773 21.30172
#
# Velocity S-wave (km/s) = 3.01174 3.87079 3.46797
# Velocity P-wave (km/s) = 4.65586 7.71348 6.37082
#
# Compressibility (1/GPa) = 0.05891669
#
# Stress axis : x y z
#
# Youngs Moduli (GPa) = 93.93894 76.15405 12.60545
#
# Poissons Ratio (x) = 0.48233 0.09500
# Poissons Ratio (y) = 0.59497 0.10368
# Poissons Ratio (z) = 0.70797 0.62638
#
# Static dielectric constant tensor:
#      x y z
#    x 3.487990 0.000000 0.000000 
#    y 0.000000 3.608260 0.000000 
#    z 0.000000 0.000000 2.752270 
# 
# 
# High freq. dielectric constant tensor:
#      x y z
#    x 1.690190 0.000000 0.000000 
#    y 0.000000 1.704950 0.000000 
#    z 0.000000 0.000000 1.620450 
# 
# From -- ./inp_files/10857.got.cif
#   From: 2010.06.25/outbox.cif.g09.slc.cpg/sg71_6_cif.got.tgz:10857.got - 2010.06.28 04:59:45.
