data_PCOD8289169
_publ_section_title
;
Structure prediction by ZEFSAII (Michael W. Deem and Ramdas Pophale) SiO2 
 PCOD8289169
Probable space group: I M M M
;
_chemical_formula_sum "Si O2"
_cell_formula_units_Z 104
_cell_length_a 19.743341
_cell_length_b 8.723620
_cell_length_c 32.022028
_cell_angle_alpha 90.000000
_cell_angle_beta 90.000000
_cell_angle_gamma 90.000000
_cell_volume 5515.262899
_symmetry_space_group_name_H-M "I M M M"
_symmetry_group_IT_number 71
_symmetry_cell_setting 'orthorhombic'
loop_
_space_group_symop_operation_xyz
x,y,z
-x,-y,z
x,-y,-z
-x,y,-z
-x,-y,-z
x,y,-z
-x,y,z
x,-y,z
1/2+x,1/2+y,1/2+z
1/2-x,1/2-y,1/2+z
1/2+x,1/2-y,1/2-z
1/2-x,1/2+y,1/2-z
1/2-x,1/2-y,1/2-z
1/2+x,1/2+y,1/2-z
1/2-x,1/2+y,1/2+z
1/2+x,1/2-y,1/2+z
loop_
_atom_site_type_symbol
_atom_site_label
_atom_site_fract_x
_atom_site_fract_y
_atom_site_fract_z
Si Si1 0.574700 0.817599 0.844833
Si Si2 0.078714 0.818519 0.500000
Si Si3 0.200830 0.319093 0.099901
Si Si4 0.203312 0.174956 0.189022
Si Si5 0.840550 0.317724 0.422898
Si Si6 0.574916 0.182050 0.453129
Si Si7 0.846281 0.323756 0.267057
O O1 0.500000 0.752980 0.854459
O O2 0.626117 0.757078 0.879888
O O3 0.596167 0.762340 0.798597
O O4 0.575841 0.000000 0.845647
O O5 0.115744 0.751853 0.459867
O O6 0.000000 0.767232 0.500000
O O7 0.085505 0.000000 0.500000
O O8 0.208896 0.500000 0.094609
O O9 0.195897 0.279032 0.148479
O O10 0.263555 0.239535 0.076452
O O11 0.132609 0.255509 0.077954
O O12 0.149799 0.226209 0.224513
O O13 0.276958 0.199417 0.208037
O O14 0.190192 0.000000 0.176169
O O15 0.841677 0.500000 0.426532
O O16 0.590131 0.241479 0.500000
O O17 0.500000 0.239730 0.438814
O O18 0.575798 0.000000 0.452782
O O19 0.856888 0.500000 0.254582
#
# Coordination Sequence:
#
# PCOD8289169 Si02
#       7
#    16   8  16  16  16  16  16
#     4   9  17  32  55  80 107 141 185 233 274 321
#     4  11  25  43  59  81 116 155 196 243 289 330
#     4  11  21  33  56  87 115 145 183 231 284 333
#     4  10  19  33  52  76 107 142 179 223 274 329
#     4  11  22  38  58  84 115 151 193 233 281 341
#     4   8  16  33  56  81 108 139 179 226 275 330
#     4   9  17  32  52  76 103 135 180 227 273 323
#
# _framework density 18.856763000000001
#
# number of rings (size 3 to 8) (size 9 to 14) (size 15 to 20)
#    0.000    2.231    1.538    2.538    1.077    1.846 
#    0.000    0.769    0.000    8.769    0.000    4.308 
#    0.000    0.000    0.000    0.000    0.000    0.000 
#
# Total GULP energy -644689.314323 kJ/mol
# GULP energy per Si atom -12397.871429 kJ/mol
# Density = 1.881384 g / cm^3
# Si number density = 18.856763 Si / 1000 Ang^3
#
#
#
# Elastic Constant Matrix: (Units=GPa)
#
#
# Indices 1 2 3 4 5 6 
#
# 1 127.8498 36.9840 61.7988 0.0000 0.0000 0.0000
# 2 36.9840 47.8395 35.2997 0.0000 0.0000 0.0000
# 3 61.7988 35.2997 110.0990 0.0000 0.0000 0.0000
# 4 0.0000 0.0000 0.0000 27.5877 0.0000 0.0000
# 5 0.0000 0.0000 0.0000 0.0000 30.3529 0.0000
# 6 0.0000 0.0000 0.0000 0.0000 0.0000 15.2971
#
#
#
# Elastic Compliance Matrix: (Units=1/GPa)
#
#
# Indices 1 2 3 4 5 6 
#
# 1 0.011752 -0.005525 -0.004825 0.000000 0.000000 0.000000
# 2 -0.005525 0.029978 -0.006510 0.000000 0.000000 0.000000
# 3 -0.004825 -0.006510 0.013878 0.000000 0.000000 0.000000
# 4 0.000000 0.000000 0.000000 0.036248 0.000000 0.000000
# 5 0.000000 0.000000 0.000000 0.000000 0.032946 0.000000
# 6 0.000000 0.000000 0.000000 0.000000 0.000000 0.065372
#
#
# Mechanical properties :
#
#
# Convention : Reuss Voigt Hill
#
# Bulk Modulus (GPa) = 45.68727 61.55036 53.61881
# Shear Modulus (GPa) = 21.62703 24.76126 23.19415
#
# Velocity S-wave (km/s) = 3.39028 3.62764 3.51097
# Velocity P-wave (km/s) = 6.29337 7.08930 6.70316
#
# Compressibility (1/GPa) = 0.02188794
#
# Stress axis : x y z
#
# Youngs Moduli (GPa) = 85.08960 33.35724 72.05431
#
# Poissons Ratio (x) = 0.18430 0.34767
# Poissons Ratio (y) = 0.47014 0.46910
# Poissons Ratio (z) = 0.41057 0.21717
#
# Static dielectric constant tensor:
#      x y z
#    x 3.694520 0.000000 0.000000 
#    y 0.000000 3.245530 0.000000 
#    z 0.000000 0.000000 1.637420 
# 
# 
# High freq. dielectric constant tensor:
#      x y z
#    x 1.728650 0.000000 0.000000 
#    y 0.000000 1.708210 0.000000 
#    z 0.000000 0.000000 1.740900 
# 
# From -- ./inp_files/70760.got.cif
#   From: 2010.06.25/outbox.cif.g09.slc.cpg/sg71_36_cif.got.tgz:70760.got - 2010.06.28 04:59:45.
