data_PCOD8289998
_publ_section_title
;
Structure prediction by ZEFSAII (Michael W. Deem and Ramdas Pophale) SiO2 
 PCOD8289998
Probable space group: I M M M
;
_chemical_formula_sum "Si O2"
_cell_formula_units_Z 104
_cell_length_a 9.419202
_cell_length_b 33.145976
_cell_length_c 17.767108
_cell_angle_alpha 90.000000
_cell_angle_beta 90.000000
_cell_angle_gamma 90.000000
_cell_volume 5547.044686
_symmetry_space_group_name_H-M "I M M M"
_symmetry_group_IT_number 71
_symmetry_cell_setting 'orthorhombic'
loop_
_space_group_symop_operation_xyz
x,y,z
-x,-y,z
x,-y,-z
-x,y,-z
-x,-y,-z
x,y,-z
-x,y,z
x,-y,z
1/2+x,1/2+y,1/2+z
1/2-x,1/2-y,1/2+z
1/2+x,1/2-y,1/2-z
1/2-x,1/2+y,1/2-z
1/2-x,1/2-y,1/2-z
1/2+x,1/2+y,1/2-z
1/2-x,1/2+y,1/2+z
1/2+x,1/2-y,1/2+z
loop_
_atom_site_type_symbol
_atom_site_label
_atom_site_fract_x
_atom_site_fract_y
_atom_site_fract_z
Si Si1 0.168843 0.544841 0.085182
Si Si2 0.842199 0.926349 0.087388
Si Si3 0.668084 0.878920 0.675383
Si Si4 0.163949 0.301660 0.087786
Si Si5 0.660129 0.000000 0.090020
Si Si6 0.163125 0.275482 0.586106
Si Si7 0.834824 0.640169 0.655507
O O1 0.222045 0.500000 0.109918
O O2 0.230986 0.579237 0.141259
O O3 0.000000 0.545713 0.087579
O O4 0.220140 0.554106 0.000000
O O5 0.743464 0.961307 0.122710
O O6 0.763515 0.884015 0.098010
O O7 0.000000 0.926368 0.124270
O O8 0.859353 0.934988 0.000000
O O9 0.500000 0.879377 0.666905
O O10 0.728113 0.840730 0.629331
O O11 0.713427 0.873328 0.761559
O O12 0.245207 0.261922 0.115830
O O13 0.000000 0.295168 0.108389
O O14 0.187737 0.308870 0.000000
O O15 0.500000 0.000000 0.122920
O O16 0.654007 0.000000 0.000000
O O17 0.203151 0.287068 0.500000
O O18 0.195429 0.312797 0.641266
O O19 0.000000 0.262577 0.591160
O O20 0.000000 0.630290 0.639991
#
# Coordination Sequence:
#
# PCOD8289998 Si02
#       7
#    16  16  16  16   8  16  16
#     4   8  13  23  42  67  95 128 162 197 242 294
#     4  10  20  34  52  73  98 129 167 212 256 297
#     4   9  17  29  44  67 100 131 162 203 250 302
#     4   9  17  30  50  73  96 125 162 207 257 303
#     4   9  17  31  53  77  97 121 160 207 252 299
#     4   9  18  32  48  66  91 125 166 209 252 301
#     4  10  20  33  48  69  99 135 169 204 249 300
#
# _framework density 18.748722999999998
#
# number of rings (size 3 to 8) (size 9 to 14) (size 15 to 20)
#    0.000    2.846    0.000    2.077    0.000    5.538 
#    1.385    2.308    0.000    0.000    0.000    0.000 
#    0.000    0.000    0.000    7.385    0.000    7.077 
#
# Total GULP energy -644640.348308 kJ/mol
# GULP energy per Si atom -12396.929775 kJ/mol
# Density = 1.870605 g / cm^3
# Si number density = 18.748723 Si / 1000 Ang^3
#
#
#
# Elastic Constant Matrix: (Units=GPa)
#
#
# Indices 1 2 3 4 5 6 
#
# 1 72.8116 52.6001 17.0029 -0.0001 -0.0001 0.0000
# 2 52.6001 153.2526 48.7776 -0.0001 0.0000 0.0000
# 3 17.0029 48.7776 56.5436 0.0019 0.0009 0.0003
# 4 -0.0001 -0.0001 0.0019 22.3482 0.0004 0.0000
# 5 -0.0001 0.0000 0.0009 0.0004 11.5669 0.0003
# 6 0.0000 0.0000 0.0003 0.0000 0.0003 27.0125
#
#
#
# Elastic Compliance Matrix: (Units=1/GPa)
#
#
# Indices 1 2 3 4 5 6 
#
# 1 0.018263 -0.006231 -0.000116 0.000000 0.000000 0.000000
# 2 -0.006231 0.011121 -0.007720 0.000001 0.000001 0.000000
# 3 -0.000116 -0.007720 0.024380 -0.000002 -0.000002 0.000000
# 4 0.000000 0.000001 -0.000002 0.044746 -0.000002 0.000000
# 5 0.000000 0.000001 -0.000002 -0.000002 0.086453 -0.000001
# 6 0.000000 0.000000 0.000000 0.000000 -0.000001 0.037020
#
#
# Mechanical properties :
#
#
# Convention : Reuss Voigt Hill
#
# Bulk Modulus (GPa) = 39.01822 57.70768 48.36295
# Shear Modulus (GPa) = 19.33033 23.13401 21.23217
#
# Velocity S-wave (km/s) = 3.21444 3.51650 3.36885
# Velocity P-wave (km/s) = 5.88499 6.87997 6.40184
#
# Compressibility (1/GPa) = 0.02562905
#
# Stress axis : x y z
#
# Youngs Moduli (GPa) = 54.75629 89.92031 41.01731
#
# Poissons Ratio (x) = 0.56031 0.00477
# Poissons Ratio (y) = 0.34120 0.31665
# Poissons Ratio (z) = 0.00637 0.69417
#
# Static dielectric constant tensor:
#      x y z
#    x 3.209970 0.000000 0.000000 
#    y 0.000000 3.667430 0.000000 
#    z 0.000000 0.000000 3.271490 
# 
# 
# High freq. dielectric constant tensor:
#      x y z
#    x 1.690170 0.000000 0.000000 
#    y 0.000000 1.742030 0.000000 
#    z 0.000000 0.000000 1.705560 
# 
# From -- ./inp_files/51208.got.cif
#   From: 2010.06.25/outbox.cif.g09.slc.cpg/sg71_26_cif.got.tgz:51208.got - 2010.06.28 04:59:45.
