data_PCOD8289342
_publ_section_title
;
Structure prediction by ZEFSAII (Michael W. Deem and Ramdas Pophale) SiO2 
 PCOD8289342
Probable space group: I M M M
;
_chemical_formula_sum "Si O2"
_cell_formula_units_Z 76
_cell_length_a 11.189829
_cell_length_b 15.383190
_cell_length_c 23.172676
_cell_angle_alpha 90.000000
_cell_angle_beta 90.000000
_cell_angle_gamma 90.000000
_cell_volume 3988.834737
_symmetry_space_group_name_H-M "I M M M"
_symmetry_group_IT_number 71
_symmetry_cell_setting 'orthorhombic'
loop_
_space_group_symop_operation_xyz
x,y,z
-x,-y,z
x,-y,-z
-x,y,-z
-x,-y,-z
x,y,-z
-x,y,z
x,-y,z
1/2+x,1/2+y,1/2+z
1/2-x,1/2-y,1/2+z
1/2+x,1/2-y,1/2-z
1/2-x,1/2+y,1/2-z
1/2-x,1/2-y,1/2-z
1/2+x,1/2+y,1/2-z
1/2-x,1/2+y,1/2+z
1/2+x,1/2-y,1/2+z
loop_
_atom_site_type_symbol
_atom_site_label
_atom_site_fract_x
_atom_site_fract_y
_atom_site_fract_z
Si Si1 0.639409 0.500000 0.383301
Si Si2 0.766647 0.296766 0.103163
Si Si3 0.640800 0.664640 0.309275
Si Si4 0.782869 0.500000 0.500000
Si Si5 0.359604 0.403975 0.189535
Si Si6 0.860897 0.695232 0.500000
Si Si7 0.500000 0.902606 0.566881
O O1 0.500000 0.500000 0.396016
O O2 0.679683 0.582240 0.346774
O O3 0.701130 0.500000 0.444529
O O4 0.797151 0.245896 0.161364
O O5 0.670786 0.365996 0.126467
O O6 0.707748 0.234832 0.055207
O O7 0.883336 0.346692 0.081493
O O8 0.500000 0.678838 0.310722
O O9 0.688444 0.652570 0.243868
O O10 0.859111 0.589735 0.500000
O O11 0.500000 0.410824 0.195629
O O12 0.302800 0.500000 0.193886
O O13 0.000000 0.723928 0.500000
O O14 0.500000 0.919004 0.500000
O O15 0.500000 0.000000 0.596251
#
# Coordination Sequence:
#
# PCOD8289342 Si02
#       7
#     8  16  16   4  16   8   8
#     4  10  19  33  59  96 125 152 198 249 296 353
#     4  12  22  40  63  89 121 154 205 249 299 366
#     4  10  19  35  61  91 122 153 196 246 296 354
#     4  12  22  40  60  84 130 171 195 246 310 362
#     4  10  21  38  60  87 119 159 199 243 297 348
#     4  12  27  42  60  87 120 161 209 250 302 363
#     4  11  24  42  64  92 124 158 196 250 319 364
#
# _framework density 19.053183000000001
#
# number of rings (size 3 to 8) (size 9 to 14) (size 15 to 20)
#    0.000    1.158    5.263    2.211    0.000    0.000 
#    1.895    0.000    0.000    2.526    0.000    0.000 
#    0.000    0.000    0.000    0.000    0.000    0.000 
#
# Total GULP energy -470969.570490 kJ/mol
# GULP energy per Si atom -12393.936066 kJ/mol
# Density = 1.900982 g / cm^3
# Si number density = 19.053183 Si / 1000 Ang^3
#
#
#
# Elastic Constant Matrix: (Units=GPa)
#
#
# Indices 1 2 3 4 5 6 
#
# 1 58.2726 46.2214 37.6545 0.0000 0.0000 0.0000
# 2 46.2214 111.7458 45.8696 0.0000 0.0000 0.0000
# 3 37.6545 45.8696 116.8252 0.0000 0.0000 0.0000
# 4 0.0000 0.0000 0.0000 35.6158 0.0000 0.0000
# 5 0.0000 0.0000 0.0000 0.0000 23.7741 0.0000
# 6 0.0000 0.0000 0.0000 0.0000 0.0000 26.1873
#
#
#
# Elastic Compliance Matrix: (Units=1/GPa)
#
#
# Indices 1 2 3 4 5 6 
#
# 1 0.028096 -0.009423 -0.005356 0.000000 0.000000 0.000000
# 2 -0.009423 0.013828 -0.002392 0.000000 0.000000 0.000000
# 3 -0.005356 -0.002392 0.011225 0.000000 0.000000 0.000000
# 4 0.000000 0.000000 0.000000 0.028077 0.000000 0.000000
# 5 0.000000 0.000000 0.000000 0.000000 0.042063 0.000000
# 6 0.000000 0.000000 0.000000 0.000000 0.000000 0.038186
#
#
# Mechanical properties :
#
#
# Convention : Reuss Voigt Hill
#
# Bulk Modulus (GPa) = 53.17072 60.70385 56.93729
# Shear Modulus (GPa) = 24.74177 27.58863 26.16520
#
# Velocity S-wave (km/s) = 3.60747 3.80936 3.70979
# Velocity P-wave (km/s) = 6.73193 7.16084 6.94969
#
# Compressibility (1/GPa) = 0.01880734
#
# Stress axis : x y z
#
# Youngs Moduli (GPa) = 35.59271 72.31475 89.08312
#
# Poissons Ratio (x) = 0.68140 0.47713
# Poissons Ratio (y) = 0.33538 0.21313
# Poissons Ratio (z) = 0.19063 0.17301
#
# Static dielectric constant tensor:
#      x y z
#    x 3.073770 0.000000 0.000000 
#    y 0.000000 3.899790 0.000000 
#    z 0.000000 0.000000 3.424140 
# 
# 
# High freq. dielectric constant tensor:
#      x y z
#    x 1.721180 0.000000 0.000000 
#    y 0.000000 1.757050 0.000000 
#    z 0.000000 0.000000 1.752830 
# 
# From -- ./inp_files/58701.got.cif
#   From: 2010.06.25/outbox.cif.g09.slc.cpg/sg71_30_cif.got.tgz:58701.got - 2010.06.28 04:59:45.
