data_PCOD8289035
_publ_section_title
;
Structure prediction by ZEFSAII (Michael W. Deem and Ramdas Pophale) SiO2 
 PCOD8289035
Probable space group: I M M M
;
_chemical_formula_sum "Si O2"
_cell_formula_units_Z 112
_cell_length_a 24.365894
_cell_length_b 15.742297
_cell_length_c 14.212619
_cell_angle_alpha 90.000000
_cell_angle_beta 90.000000
_cell_angle_gamma 90.000000
_cell_volume 5451.607323
_symmetry_space_group_name_H-M "I M M M"
_symmetry_group_IT_number 71
_symmetry_cell_setting 'orthorhombic'
loop_
_space_group_symop_operation_xyz
x,y,z
-x,-y,z
x,-y,-z
-x,y,-z
-x,-y,-z
x,y,-z
-x,y,z
x,-y,z
1/2+x,1/2+y,1/2+z
1/2-x,1/2-y,1/2+z
1/2+x,1/2-y,1/2-z
1/2-x,1/2+y,1/2-z
1/2-x,1/2-y,1/2-z
1/2+x,1/2+y,1/2-z
1/2-x,1/2+y,1/2+z
1/2+x,1/2-y,1/2+z
loop_
_atom_site_type_symbol
_atom_site_label
_atom_site_fract_x
_atom_site_fract_y
_atom_site_fract_z
Si Si1 0.276134 0.100626 0.894155
Si Si2 0.615294 0.904461 0.790190
Si Si3 0.061265 0.831412 0.894116
Si Si4 0.364013 0.404621 0.104388
Si Si5 0.937756 0.255468 0.604470
Si Si6 0.167581 0.096487 0.802373
Si Si7 0.438212 0.869393 0.604932
O O1 0.324593 0.128032 0.822917
O O2 0.218804 0.140476 0.856224
O O3 0.271276 0.000000 0.894565
O O4 0.287680 0.134990 0.000000
O O5 0.573006 0.835038 0.828105
O O6 0.606681 0.907290 0.677510
O O7 0.604833 0.000000 0.830460
O O8 0.108774 0.863029 0.825207
O O9 0.063038 0.731060 0.891523
O O10 0.000000 0.862011 0.861908
O O11 0.072719 0.864464 0.000000
O O12 0.390351 0.500000 0.108230
O O13 0.407930 0.332380 0.127411
O O14 0.320249 0.396902 0.189667
O O15 0.337461 0.390432 0.000000
O O16 0.923182 0.287348 0.500000
O O17 0.000000 0.229678 0.616736
O O18 0.163911 0.000000 0.835944
O O19 0.422257 0.900836 0.500000
O O20 0.500000 0.901363 0.629818
#
# Coordination Sequence:
#
# PCOD8289035 Si02
#       7
#    16  16  16  16  16  16  16
#     4   9  19  36  55  76 107 146 184 224 274 332
#     4  11  22  36  56  80 107 143 186 231 280 328
#     4   9  18  33  53  78 110 144 175 217 277 338
#     4   9  19  36  56  79 110 146 181 218 263 320
#     4  10  21  36  55  81 112 144 180 225 275 328
#     4  10  19  32  54  81 107 141 185 229 276 329
#     4   9  19  36  55  76 108 148 184 221 270 330
#
# _framework density 20.544398999999999
#
# number of rings (size 3 to 8) (size 9 to 14) (size 15 to 20)
#    0.000    2.429    0.000    3.000    0.000    5.429 
#    0.000    8.571    0.000    6.000    0.000    0.000 
#    0.000    0.000    0.000    0.000    0.000    0.000 
#
# Total GULP energy -693792.883465 kJ/mol
# GULP energy per Si atom -12389.158633 kJ/mol
# Density = 2.049764 g / cm^3
# Si number density = 20.544399 Si / 1000 Ang^3
#
#
#
# Elastic Constant Matrix: (Units=GPa)
#
#
# Indices 1 2 3 4 5 6 
#
# 1 102.5695 13.8211 73.3128 0.0000 0.0000 0.0000
# 2 13.8211 65.3028 25.2078 0.0000 0.0000 0.0000
# 3 73.3128 25.2078 150.1869 0.0000 0.0000 0.0000
# 4 0.0000 0.0000 0.0000 23.7853 0.0000 0.0000
# 5 0.0000 0.0000 0.0000 0.0000 34.9918 0.0000
# 6 0.0000 0.0000 0.0000 0.0000 0.0000 17.9294
#
#
#
# Elastic Compliance Matrix: (Units=1/GPa)
#
#
# Indices 1 2 3 4 5 6 
#
# 1 0.014982 -0.000372 -0.007251 0.000000 0.000000 0.000000
# 2 -0.000372 0.016383 -0.002568 0.000000 0.000000 0.000000
# 3 -0.007251 -0.002568 0.010629 0.000000 0.000000 0.000000
# 4 0.000000 0.000000 0.000000 0.042043 0.000000 0.000000
# 5 0.000000 0.000000 0.000000 0.000000 0.028578 0.000000
# 6 0.000000 0.000000 0.000000 0.000000 0.000000 0.055774
#
#
# Mechanical properties :
#
#
# Convention : Reuss Voigt Hill
#
# Bulk Modulus (GPa) = 46.27030 60.30475 53.28753
# Shear Modulus (GPa) = 25.51320 29.05579 27.28450
#
# Velocity S-wave (km/s) = 3.52782 3.76479 3.64823
# Velocity P-wave (km/s) = 6.25820 6.95092 6.61363
#
# Compressibility (1/GPa) = 0.02161213
#
# Stress axis : x y z
#
# Youngs Moduli (GPa) = 66.74471 61.03746 94.08179
#
# Poissons Ratio (x) = 0.02270 0.68220
# Poissons Ratio (y) = 0.02482 0.24163
# Poissons Ratio (z) = 0.48398 0.15676
#
# Static dielectric constant tensor:
#      x y z
#    x 3.721540 0.000000 0.000000 
#    y 0.000000 3.576040 0.000000 
#    z 0.000000 0.000000 4.170530 
# 
# 
# High freq. dielectric constant tensor:
#      x y z
#    x 1.774450 0.000000 0.000000 
#    y 0.000000 1.790750 0.000000 
#    z 0.000000 0.000000 1.820020 
# 
# From -- ./inp_files/39247.got.cif
#   From: 2010.06.25/outbox.cif.g09.slc.cpg/sg71_20_cif.got.tgz:39247.got - 2010.06.28 04:59:45.
