data_PCOD8289983
_publ_section_title
;
Structure prediction by ZEFSAII (Michael W. Deem and Ramdas Pophale) SiO2 
 PCOD8289983
Probable space group: I M M M
;
_chemical_formula_sum "Si O2"
_cell_formula_units_Z 120
_cell_length_a 28.077840
_cell_length_b 9.061830
_cell_length_c 29.457954
_cell_angle_alpha 90.000000
_cell_angle_beta 90.000000
_cell_angle_gamma 90.000000
_cell_volume 7495.182037
_symmetry_space_group_name_H-M "I M M M"
_symmetry_group_IT_number 71
_symmetry_cell_setting 'orthorhombic'
loop_
_space_group_symop_operation_xyz
x,y,z
-x,-y,z
x,-y,-z
-x,y,-z
-x,-y,-z
x,y,-z
-x,y,z
x,-y,z
1/2+x,1/2+y,1/2+z
1/2-x,1/2-y,1/2+z
1/2+x,1/2-y,1/2-z
1/2-x,1/2+y,1/2-z
1/2-x,1/2-y,1/2-z
1/2+x,1/2+y,1/2-z
1/2-x,1/2+y,1/2+z
1/2+x,1/2-y,1/2+z
loop_
_atom_site_type_symbol
_atom_site_label
_atom_site_fract_x
_atom_site_fract_y
_atom_site_fract_z
Si Si1 0.943440 0.837016 0.789550
Si Si2 0.000000 0.675137 0.449287
Si Si3 0.367931 0.173035 0.552214
Si Si4 0.407343 0.824412 0.895997
Si Si5 0.726444 0.333857 0.553863
Si Si6 0.053533 0.326197 0.877545
Si Si7 0.054858 0.174296 0.310897
Si Si8 0.321265 0.327582 0.053288
O O1 0.925234 0.731789 0.829807
O O2 0.927090 0.781826 0.739721
O O3 0.000000 0.842746 0.788630
O O4 0.922824 0.000000 0.798972
O O5 0.046739 0.732660 0.423669
O O6 0.000000 0.500000 0.450863
O O7 0.000000 0.741461 0.500000
O O8 0.378690 0.213070 0.500000
O O9 0.321950 0.258258 0.571409
O O10 0.413355 0.226755 0.581129
O O11 0.358134 0.000000 0.558035
O O12 0.411559 0.764466 0.844929
O O13 0.361473 0.757345 0.919512
O O14 0.403202 0.000000 0.895643
O O15 0.725590 0.335859 0.500000
O O16 0.730170 0.500000 0.573327
O O17 0.771101 0.237592 0.570555
O O18 0.052752 0.500000 0.874266
O O19 0.000000 0.265140 0.886278
O O20 0.000000 0.222275 0.318158
O O21 0.060493 0.000000 0.318839
O O22 0.322703 0.500000 0.064747
O O23 0.328808 0.298070 0.000000
#
# Coordination Sequence:
#
# PCOD8289983 Si02
#       8
#    16   8  16  16  16  16  16  16
#     4   8  15  28  45  63  85 118 154 190 233 272
#     4   9  18  30  41  57  87 123 153 181 218 267
#     4   9  17  29  45  66  95 129 159 187 223 266
#     4  11  20  30  45  66  91 120 153 189 231 275
#     4   9  17  30  48  68  88 113 150 195 235 268
#     4   9  17  28  43  67  97 127 159 192 222 259
#     4   9  17  30  46  63  87 117 151 192 234 277
#     4  10  20  33  48  66  89 118 152 190 232 275
#
# _framework density 16.010285
#
# number of rings (size 3 to 8) (size 9 to 14) (size 15 to 20)
#    0.000    2.733    0.667    2.400    0.000    4.267 
#    0.000    2.667    0.000    1.600    0.000    4.667 
#    0.000    0.000    0.000    0.000    0.000    0.000 
#
# Total GULP energy -743859.775840 kJ/mol
# GULP energy per Si atom -12397.662931 kJ/mol
# Density = 1.597384 g / cm^3
# Si number density = 16.010285 Si / 1000 Ang^3
#
#
#
# Elastic Constant Matrix: (Units=GPa)
#
#
# Indices 1 2 3 4 5 6 
#
# 1 104.2034 46.9147 59.2106 0.0000 0.0000 0.0000
# 2 46.9147 64.0692 41.9948 0.0000 0.0000 0.0000
# 3 59.2106 41.9948 99.5131 0.0000 0.0000 0.0000
# 4 0.0000 0.0000 0.0000 24.5823 0.0000 0.0000
# 5 0.0000 0.0000 0.0000 0.0000 5.1247 0.0000
# 6 0.0000 0.0000 0.0000 0.0000 0.0000 23.8462
#
#
#
# Elastic Compliance Matrix: (Units=1/GPa)
#
#
# Indices 1 2 3 4 5 6 
#
# 1 0.017065 -0.008074 -0.006747 0.000000 0.000000 0.000000
# 2 -0.008074 0.025396 -0.005913 0.000000 0.000000 0.000000
# 3 -0.006747 -0.005913 0.016559 0.000000 0.000000 0.000000
# 4 0.000000 0.000000 0.000000 0.040680 0.000000 0.000000
# 5 0.000000 0.000000 0.000000 0.000000 0.195135 0.000000
# 6 0.000000 0.000000 0.000000 0.000000 0.000000 0.041935
#
#
# Mechanical properties :
#
#
# Convention : Reuss Voigt Hill
#
# Bulk Modulus (GPa) = 56.97228 62.66955 59.82092
# Shear Modulus (GPa) = 13.01784 18.68833 15.85309
#
# Velocity S-wave (km/s) = 2.85457 3.42024 3.15013
# Velocity P-wave (km/s) = 6.82106 7.40444 7.11873
#
# Compressibility (1/GPa) = 0.01755240
#
# Stress axis : x y z
#
# Youngs Moduli (GPa) = 58.59860 39.37613 60.39143
#
# Poissons Ratio (x) = 0.31792 0.40744
# Poissons Ratio (y) = 0.47312 0.35711
# Poissons Ratio (z) = 0.39535 0.23284
#
# Static dielectric constant tensor:
#      x y z
#    x 3.002320 0.000000 0.000000 
#    y 0.000000 3.057940 0.000000 
#    z 0.000000 0.000000 3.066250 
# 
# 
# High freq. dielectric constant tensor:
#      x y z
#    x 1.593980 0.000000 0.000000 
#    y 0.000000 1.615740 0.000000 
#    z 0.000000 0.000000 1.600440 
# 
# From -- ./inp_files/67160.got.cif
#   From: 2010.06.25/outbox.cif.g09.slc.cpg/sg71_34_cif.got.tgz:67160.got - 2010.06.28 04:59:45.
