data_PCOD8289180
_publ_section_title
;
Structure prediction by ZEFSAII (Michael W. Deem and Ramdas Pophale) SiO2 
 PCOD8289180
Probable space group: I M M M
;
_chemical_formula_sum "Si O2"
_cell_formula_units_Z 64
_cell_length_a 13.542249
_cell_length_b 14.256949
_cell_length_c 18.695229
_cell_angle_alpha 90.000000
_cell_angle_beta 90.000000
_cell_angle_gamma 90.000000
_cell_volume 3609.509425
_symmetry_space_group_name_H-M "I M M M"
_symmetry_group_IT_number 71
_symmetry_cell_setting 'orthorhombic'
loop_
_space_group_symop_operation_xyz
x,y,z
-x,-y,z
x,-y,-z
-x,y,-z
-x,-y,-z
x,y,-z
-x,y,z
x,-y,z
1/2+x,1/2+y,1/2+z
1/2-x,1/2-y,1/2+z
1/2+x,1/2-y,1/2-z
1/2-x,1/2+y,1/2-z
1/2-x,1/2-y,1/2-z
1/2+x,1/2+y,1/2-z
1/2-x,1/2+y,1/2+z
1/2+x,1/2-y,1/2+z
loop_
_atom_site_type_symbol
_atom_site_label
_atom_site_fract_x
_atom_site_fract_y
_atom_site_fract_z
Si Si1 0.883747 0.604812 0.818875
Si Si2 0.882590 0.109950 0.000000
Si Si3 0.722300 0.236980 0.421077
Si Si4 0.384403 0.180718 0.833075
Si Si5 0.384415 0.000000 0.921432
O O1 0.837329 0.500000 0.816063
O O2 0.850075 0.658530 0.889618
O O3 0.853277 0.664187 0.748759
O O4 0.000000 0.594660 0.820179
O O5 0.837109 0.163418 0.070165
O O6 0.000000 0.121818 0.000000
O O7 0.853179 0.000000 0.000000
O O8 0.757792 0.203635 0.500000
O O9 0.816742 0.239024 0.368057
O O10 0.500000 0.206335 0.840973
O O11 0.352669 0.090181 0.877888
O O12 0.500000 0.000000 0.932005
O O13 0.333051 0.000000 0.000000
#
# Coordination Sequence:
#
# PCOD8289180 Si02
#       5
#    16   8  16  16   8
#     4  10  20  36  57  79 109 146 185 233 281 323
#     4   9  20  36  50  72 108 143 178 224 276 326
#     4  10  22  33  54  80 108 145 188 224 270 330
#     4  10  19  33  52  79 112 142 175 227 284 333
#     4   9  16  26  46  74 105 137 171 212 268 326
#
# _framework density 17.730941000000001
#
# number of rings (size 3 to 8) (size 9 to 14) (size 15 to 20)
#    0.750    1.500    1.250    2.250    1.750    2.000 
#    0.000    1.250    0.000    0.750    0.000    1.750 
#    0.000    0.000    0.000    0.000    0.000    0.000 
#
# Total GULP energy -396544.319400 kJ/mol
# GULP energy per Si atom -12392.009981 kJ/mol
# Density = 1.769058 g / cm^3
# Si number density = 17.730941 Si / 1000 Ang^3
#
#
#
# Elastic Constant Matrix: (Units=GPa)
#
#
# Indices 1 2 3 4 5 6 
#
# 1 55.7660 25.3455 35.4914 0.0000 0.0000 0.0000
# 2 25.3455 57.5632 51.4611 0.0000 0.0000 0.0000
# 3 35.4914 51.4611 109.7020 0.0000 0.0000 0.0000
# 4 0.0000 0.0000 0.0000 40.0771 0.0000 0.0000
# 5 0.0000 0.0000 0.0000 0.0000 31.4155 0.0000
# 6 0.0000 0.0000 0.0000 0.0000 0.0000 -13.2461
#
#
#
# Elastic Compliance Matrix: (Units=1/GPa)
#
#
# Indices 1 2 3 4 5 6 
#
# 1 0.023798 -0.006192 -0.004794 0.000000 0.000000 0.000000
# 2 -0.006192 0.031531 -0.012788 0.000000 0.000000 0.000000
# 3 -0.004794 -0.012788 0.016665 0.000000 0.000000 0.000000
# 4 0.000000 0.000000 0.000000 0.024952 0.000000 0.000000
# 5 0.000000 0.000000 0.000000 0.000000 0.031831 0.000000
# 6 0.000000 0.000000 0.000000 0.000000 0.000000 -0.075494
#
#
# Mechanical properties :
#
#
# Convention : Reuss Voigt Hill
#
# Bulk Modulus (GPa) = 40.90762 49.73637 45.32200
# Shear Modulus (GPa) = 45.87973 19.03152 32.45563
#
# Velocity S-wave (km/s) = 5.09232 3.27976 4.28302
# Velocity P-wave (km/s) = 7.59585 6.51567 7.07640
#
# Compressibility (1/GPa) = 0.02444532
#
# Stress axis : x y z
#
# Youngs Moduli (GPa) = 42.02087 31.71498 60.00429
#
# Poissons Ratio (x) = 0.19638 0.28769
# Poissons Ratio (y) = 0.26020 0.76732
# Poissons Ratio (z) = 0.20147 0.40556
#
# Static dielectric constant tensor:
#      x y z
#    x 3.097330 0.000000 0.000000 
#    y 0.000000 2.834980 0.000000 
#    z 0.000000 0.000000 3.387530 
# 
# 
# High freq. dielectric constant tensor:
#      x y z
#    x 1.677710 0.000000 0.000000 
#    y 0.000000 1.660550 0.000000 
#    z 0.000000 0.000000 1.689920 
# 
# From -- ./inp_files/44424.got.cif
#   From: 2010.06.25/outbox.cif.g09.slc.cpg/sg71_23_cif.got.tgz:44424.got - 2010.06.28 04:59:45.
