data_PCOD8289050
_publ_section_title
;
Structure prediction by ZEFSAII (Michael W. Deem and Ramdas Pophale) SiO2 
 PCOD8289050
Probable space group: I M M M
;
_chemical_formula_sum "Si O2"
_cell_formula_units_Z 88
_cell_length_a 22.267339
_cell_length_b 15.182157
_cell_length_c 13.271628
_cell_angle_alpha 90.000000
_cell_angle_beta 90.000000
_cell_angle_gamma 90.000000
_cell_volume 4486.689332
_symmetry_space_group_name_H-M "I M M M"
_symmetry_group_IT_number 71
_symmetry_cell_setting 'orthorhombic'
loop_
_space_group_symop_operation_xyz
x,y,z
-x,-y,z
x,-y,-z
-x,y,-z
-x,-y,-z
x,y,-z
-x,y,z
x,-y,z
1/2+x,1/2+y,1/2+z
1/2-x,1/2-y,1/2+z
1/2+x,1/2-y,1/2-z
1/2-x,1/2+y,1/2-z
1/2-x,1/2-y,1/2-z
1/2+x,1/2+y,1/2-z
1/2-x,1/2+y,1/2+z
1/2+x,1/2-y,1/2+z
loop_
_atom_site_type_symbol
_atom_site_label
_atom_site_fract_x
_atom_site_fract_y
_atom_site_fract_z
Si Si1 0.137296 0.599781 0.883473
Si Si2 0.763765 0.898711 0.301396
Si Si3 0.842277 0.900199 0.885991
Si Si4 0.070365 0.243512 0.198678
Si Si5 0.566710 0.500000 0.119660
Si Si6 0.626376 0.679287 0.114728
O O1 0.117007 0.500000 0.859880
O O2 0.194443 0.627741 0.815166
O O3 0.082421 0.663518 0.855744
O O4 0.155306 0.610225 0.000000
O O5 0.784310 0.884675 0.185655
O O6 0.802130 0.832209 0.372198
O O7 0.772496 0.000000 0.337225
O O8 0.896394 0.834605 0.860429
O O9 0.866433 0.000000 0.873192
O O10 0.820369 0.882779 0.000000
O O11 0.095940 0.251885 0.313342
O O12 0.000000 0.224286 0.198645
O O13 0.500000 0.500000 0.165050
O O14 0.600415 0.586711 0.157505
O O15 0.565380 0.500000 0.000000
O O16 0.609010 0.701260 0.000000
#
# Coordination Sequence:
#
# PCOD8289050 Si02
#       6
#    16  16  16  16   8  16
#     4  10  22  40  62  84 105 135 181 242 298 332
#     4   9  17  33  57  84 112 141 181 230 280 333
#     4   9  19  35  55  82 118 154 181 212 263 332
#     4  11  24  38  54  78 111 149 191 235 274 324
#     4   9  16  26  44  74 111 149 182 206 241 304
#     4  10  19  32  54  83 114 149 181 219 272 328
#
# _framework density 19.613571
#
# number of rings (size 3 to 8) (size 9 to 14) (size 15 to 20)
#    0.000    2.273    0.909    1.636    1.273    6.909 
#    0.000    4.545    0.000    1.636    0.000    1.273 
#    0.000    0.000    0.000    0.000    0.000    0.000 
#
# Total GULP energy -545559.075413 kJ/mol
# GULP energy per Si atom -12399.069896 kJ/mol
# Density = 1.956893 g / cm^3
# Si number density = 19.613571 Si / 1000 Ang^3
#
#
#
# Elastic Constant Matrix: (Units=GPa)
#
#
# Indices 1 2 3 4 5 6 
#
# 1 53.1746 19.4877 24.1891 0.0000 0.0000 0.0000
# 2 19.4877 72.2386 36.6894 0.0000 0.0000 0.0000
# 3 24.1891 36.6894 110.2996 0.0000 0.0000 0.0000
# 4 0.0000 0.0000 0.0000 26.1128 0.0000 0.0000
# 5 0.0000 0.0000 0.0000 0.0000 17.5361 0.0000
# 6 0.0000 0.0000 0.0000 0.0000 0.0000 23.7914
#
#
#
# Elastic Compliance Matrix: (Units=1/GPa)
#
#
# Indices 1 2 3 4 5 6 
#
# 1 0.021887 -0.004171 -0.003412 0.000000 0.000000 0.000000
# 2 -0.004171 0.017452 -0.004890 0.000000 0.000000 0.000000
# 3 -0.003412 -0.004890 0.011441 0.000000 0.000000 0.000000
# 4 0.000000 0.000000 0.000000 0.038295 0.000000 0.000000
# 5 0.000000 0.000000 0.000000 0.000000 0.057025 0.000000
# 6 0.000000 0.000000 0.000000 0.000000 0.000000 0.042032
#
#
# Mechanical properties :
#
#
# Convention : Reuss Voigt Hill
#
# Bulk Modulus (GPa) = 38.71134 44.04947 41.38041
# Shear Modulus (GPa) = 22.55383 23.84449 23.19916
#
# Velocity S-wave (km/s) = 3.39471 3.49049 3.44293
# Velocity P-wave (km/s) = 5.92834 6.22512 6.07854
#
# Compressibility (1/GPa) = 0.02583222
#
# Stress axis : x y z
#
# Youngs Moduli (GPa) = 45.68924 57.29968 87.40285
#
# Poissons Ratio (x) = 0.23901 0.29825
# Poissons Ratio (y) = 0.19058 0.42743
# Poissons Ratio (z) = 0.15591 0.28022
#
# Static dielectric constant tensor:
#      x y z
#    x 3.358540 0.000000 0.000000 
#    y 0.000000 3.468370 0.000000 
#    z 0.000000 0.000000 3.622040 
# 
# 
# High freq. dielectric constant tensor:
#      x y z
#    x 1.746500 0.000000 0.000000 
#    y 0.000000 1.745900 0.000000 
#    z 0.000000 0.000000 1.767000 
# 
# From -- ./inp_files/37728.got.cif
#   From: 2010.06.25/outbox.cif.g09.slc.cpg/sg71_19_cif.got.tgz:37728.got - 2010.06.28 04:59:45.
