data_PCOD8289907
_publ_section_title
;
Structure prediction by ZEFSAII (Michael W. Deem and Ramdas Pophale) SiO2 
 PCOD8289907
Probable space group: I M M M
;
_chemical_formula_sum "Si O2"
_cell_formula_units_Z 88
_cell_length_a 18.782724
_cell_length_b 8.992544
_cell_length_c 30.938099
_cell_angle_alpha 90.000000
_cell_angle_beta 90.000000
_cell_angle_gamma 90.000000
_cell_volume 5225.583277
_symmetry_space_group_name_H-M "I M M M"
_symmetry_group_IT_number 71
_symmetry_cell_setting 'orthorhombic'
loop_
_space_group_symop_operation_xyz
x,y,z
-x,-y,z
x,-y,-z
-x,y,-z
-x,-y,-z
x,y,-z
-x,y,z
x,-y,z
1/2+x,1/2+y,1/2+z
1/2-x,1/2-y,1/2+z
1/2+x,1/2-y,1/2-z
1/2-x,1/2+y,1/2-z
1/2-x,1/2-y,1/2-z
1/2+x,1/2+y,1/2-z
1/2-x,1/2+y,1/2+z
1/2+x,1/2-y,1/2+z
loop_
_atom_site_type_symbol
_atom_site_label
_atom_site_fract_x
_atom_site_fract_y
_atom_site_fract_z
Si Si1 0.918815 0.175603 0.500000
Si Si2 0.418703 0.327857 0.753929
Si Si3 0.581027 0.827154 0.663076
Si Si4 0.695311 0.167797 0.952672
Si Si5 0.208029 0.674198 0.711323
Si Si6 0.208249 0.825744 0.875433
O O1 0.878220 0.237673 0.456988
O O2 0.000000 0.232559 0.500000
O O3 0.915014 0.000000 0.500000
O O4 0.500000 0.305489 0.768014
O O5 0.397072 0.500000 0.751541
O O6 0.403289 0.260043 0.707062
O O7 0.371278 0.243470 0.789514
O O8 0.500000 0.800860 0.647548
O O9 0.633672 0.762559 0.626606
O O10 0.596402 0.000000 0.671179
O O11 0.748833 0.234913 0.917151
O O12 0.674559 0.000000 0.938950
O O13 0.733596 0.169362 0.000000
O O14 0.203698 0.500000 0.719799
O O15 0.250000 0.750000 0.750000
O O16 0.244634 0.712168 0.666199
O O17 0.191430 0.000000 0.879507
#
# Coordination Sequence:
#
# PCOD8289907 Si02
#       6
#     8  16  16  16  16  16
#     4   9  17  31  53  81 108 133 164 203 249 300
#     4  10  20  34  50  68  96 136 178 216 254 296
#     4  10  20  32  49  74 101 133 172 210 251 301
#     4   8  17  34  55  77 100 130 167 206 249 298
#     4  11  21  32  49  74 103 135 171 210 255 304
#     4  10  20  34  53  77 102 130 168 211 253 301
#
# _framework density 16.840226000000001
#
# number of rings (size 3 to 8) (size 9 to 14) (size 15 to 20)
#    0.545    1.727    1.818    1.636    0.000    4.364 
#    0.000    0.909    0.000    6.000    0.000    3.818 
#    0.000    0.000    0.000    0.000    0.000    0.000 
#
# Total GULP energy -545452.810864 kJ/mol
# GULP energy per Si atom -12396.654792 kJ/mol
# Density = 1.680190 g / cm^3
# Si number density = 16.840226 Si / 1000 Ang^3
#
#
#
# Elastic Constant Matrix: (Units=GPa)
#
#
# Indices 1 2 3 4 5 6 
#
# 1 128.6667 59.2504 55.1078 0.0000 0.0000 0.0000
# 2 59.2504 83.7665 38.8970 0.0000 0.0000 0.0000
# 3 55.1078 38.8970 80.6668 0.0000 0.0000 0.0000
# 4 0.0000 0.0000 0.0000 18.9232 0.0000 0.0000
# 5 0.0000 0.0000 0.0000 0.0000 28.0013 0.0000
# 6 0.0000 0.0000 0.0000 0.0000 0.0000 34.0572
#
#
#
# Elastic Compliance Matrix: (Units=1/GPa)
#
#
# Indices 1 2 3 4 5 6 
#
# 1 0.013406 -0.006739 -0.005909 0.000000 0.000000 0.000000
# 2 -0.006739 0.018769 -0.004447 0.000000 0.000000 0.000000
# 3 -0.005909 -0.004447 0.018578 0.000000 0.000000 0.000000
# 4 0.000000 0.000000 0.000000 0.052845 0.000000 0.000000
# 5 0.000000 0.000000 0.000000 0.000000 0.035713 0.000000
# 6 0.000000 0.000000 0.000000 0.000000 0.000000 0.029362
#
#
# Mechanical properties :
#
#
# Convention : Reuss Voigt Hill
#
# Bulk Modulus (GPa) = 60.37232 66.62335 63.49784
# Shear Modulus (GPa) = 23.99424 25.51933 24.75678
#
# Velocity S-wave (km/s) = 3.77877 3.89701 3.83835
# Velocity P-wave (km/s) = 7.41395 7.73930 7.57837
#
# Compressibility (1/GPa) = 0.01656388
#
# Stress axis : x y z
#
# Youngs Moduli (GPa) = 74.59406 53.27873 53.82785
#
# Poissons Ratio (x) = 0.35902 0.31807
# Poissons Ratio (y) = 0.50265 0.23937
# Poissons Ratio (z) = 0.44078 0.23693
#
# Static dielectric constant tensor:
#      x y z
#    x 3.486770 0.000000 0.000000 
#    y 0.000000 3.210600 0.000000 
#    z 0.000000 0.000000 2.967010 
# 
# 
# High freq. dielectric constant tensor:
#      x y z
#    x 1.653670 0.000000 0.000000 
#    y 0.000000 1.658670 0.000000 
#    z 0.000000 0.000000 1.614030 
# 
# From -- ./inp_files/70647.got.cif
#   From: 2010.06.25/outbox.cif.g09.slc.cpg/sg71_36_cif.got.tgz:70647.got - 2010.06.28 04:59:45.
