data_PCOD8289205
_publ_section_title
;
Structure prediction by ZEFSAII (Michael W. Deem and Ramdas Pophale) SiO2 
 PCOD8289205
Probable space group: I M M M
;
_chemical_formula_sum "Si O2"
_cell_formula_units_Z 88
_cell_length_a 22.284322
_cell_length_b 25.331156
_cell_length_c 7.952069
_cell_angle_alpha 90.000000
_cell_angle_beta 90.000000
_cell_angle_gamma 90.000000
_cell_volume 4488.844639
_symmetry_space_group_name_H-M "I M M M"
_symmetry_group_IT_number 71
_symmetry_cell_setting 'orthorhombic'
loop_
_space_group_symop_operation_xyz
x,y,z
-x,-y,z
x,-y,-z
-x,y,-z
-x,-y,-z
x,y,-z
-x,y,z
x,-y,z
1/2+x,1/2+y,1/2+z
1/2-x,1/2-y,1/2+z
1/2+x,1/2-y,1/2-z
1/2-x,1/2+y,1/2-z
1/2-x,1/2-y,1/2-z
1/2+x,1/2+y,1/2-z
1/2-x,1/2+y,1/2+z
1/2+x,1/2-y,1/2+z
loop_
_atom_site_type_symbol
_atom_site_label
_atom_site_fract_x
_atom_site_fract_y
_atom_site_fract_z
Si Si1 0.627667 0.939761 0.306183
Si Si2 0.500000 0.062274 0.807710
Si Si3 0.566159 0.773097 0.500000
Si Si4 0.646264 0.650464 0.187300
Si Si5 0.769826 0.364963 0.688222
Si Si6 0.067487 0.852375 0.000000
Si Si7 0.355416 0.773563 0.809345
O O1 0.643956 0.935905 0.500000
O O2 0.561067 0.915506 0.276204
O O3 0.677520 0.907373 0.207031
O O4 0.630124 0.000000 0.240516
O O5 0.500000 0.000000 0.780649
O O6 0.500000 0.079474 0.000000
O O7 0.500000 0.797307 0.500000
O O8 0.564248 0.710213 0.500000
O O9 0.597239 0.793812 0.329482
O O10 0.711835 0.623107 0.196709
O O11 0.601142 0.628002 0.329689
O O12 0.657942 0.712256 0.218550
O O13 0.619529 0.639856 0.000000
O O14 0.744976 0.367723 0.500000
O O15 0.794996 0.306376 0.725007
O O16 0.000000 0.876108 0.000000
O O17 0.379545 0.784143 0.000000
#
# Coordination Sequence:
#
# PCOD8289205 Si02
#       7
#    16   8   8  16  16   8  16
#     4  10  21  36  53  74 100 133 175 223 269 314
#     4   9  17  33  55  73  93 129 175 221 271 317
#     4   9  18  32  50  68  97 139 177 216 263 302
#     4  10  19  33  53  77 106 138 171 213 257 305
#     4  11  21  34  51  75 103 133 174 217 263 312
#     4   9  18  34  52  76 105 136 173 209 248 303
#     4   9  20  33  48  73 101 135 174 217 260 309
#
# _framework density 19.604153
#
# number of rings (size 3 to 8) (size 9 to 14) (size 15 to 20)
#    0.000    2.273    0.909    1.909    2.545    2.909 
#    1.636    3.636    0.000    0.000    0.000    0.000 
#    0.000    1.455    0.000    3.818    0.000    0.182 
#
# Total GULP energy -545429.979091 kJ/mol
# GULP energy per Si atom -12396.135888 kJ/mol
# Density = 1.955953 g / cm^3
# Si number density = 19.604153 Si / 1000 Ang^3
#
#
#
# Elastic Constant Matrix: (Units=GPa)
#
#
# Indices 1 2 3 4 5 6 
#
# 1 134.9510 16.7775 64.7770 0.0000 0.0000 0.0000
# 2 16.7775 24.3994 4.2887 0.0000 0.0000 0.0000
# 3 64.7770 4.2887 118.3068 0.0000 0.0000 0.0000
# 4 0.0000 0.0000 0.0000 15.6524 0.0000 0.0000
# 5 0.0000 0.0000 0.0000 0.0000 31.0967 0.0000
# 6 0.0000 0.0000 0.0000 0.0000 0.0000 19.0703
#
#
#
# Elastic Compliance Matrix: (Units=1/GPa)
#
#
# Indices 1 2 3 4 5 6 
#
# 1 0.011002 -0.006548 -0.005786 0.000000 0.000000 0.000000
# 2 -0.006548 0.045145 0.001949 0.000000 0.000000 0.000000
# 3 -0.005786 0.001949 0.011550 0.000000 0.000000 0.000000
# 4 0.000000 0.000000 0.000000 0.063888 0.000000 0.000000
# 5 0.000000 0.000000 0.000000 0.000000 0.032158 0.000000
# 6 0.000000 0.000000 0.000000 0.000000 0.000000 0.052438
#
#
# Mechanical properties :
#
#
# Convention : Reuss Voigt Hill
#
# Bulk Modulus (GPa) = 21.31049 49.92707 35.61878
# Shear Modulus (GPa) = 19.79469 25.95146 22.87308
#
# Velocity S-wave (km/s) = 3.18106 3.64232 3.41947
# Velocity P-wave (km/s) = 4.93823 6.57355 5.81368
#
# Compressibility (1/GPa) = 0.04692525
#
# Stress axis : x y z
#
# Youngs Moduli (GPa) = 90.89546 22.15104 86.57845
#
# Poissons Ratio (x) = 0.14504 0.50098
# Poissons Ratio (y) = 0.59517 -0.16871
# Poissons Ratio (z) = 0.52596 -0.04317
#
# Static dielectric constant tensor:
#      x y z
#    x 3.563050 0.000000 0.000000 
#    y 0.000000 3.071480 0.000000 
#    z 0.000000 0.000000 3.736860 
# 
# 
# High freq. dielectric constant tensor:
#      x y z
#    x 1.757470 0.000000 0.000000 
#    y 0.000000 1.706020 0.000000 
#    z 0.000000 0.000000 1.780490 
# 
# From -- ./inp_files/8922.got.cif
#   From: 2010.06.25/outbox.cif.g09.slc.cpg/sg71_5_cif.got.tgz:8922.got - 2010.06.28 04:59:45.
