data_PCOD8289866
_publ_section_title
;
Structure prediction by ZEFSAII (Michael W. Deem and Ramdas Pophale) SiO2 
 PCOD8289866
Probable space group: I M M M
;
_chemical_formula_sum "Si O2"
_cell_formula_units_Z 88
_cell_length_a 27.439681
_cell_length_b 18.340310
_cell_length_c 9.398450
_cell_angle_alpha 90.000000
_cell_angle_beta 90.000000
_cell_angle_gamma 90.000000
_cell_volume 4729.791164
_symmetry_space_group_name_H-M "I M M M"
_symmetry_group_IT_number 71
_symmetry_cell_setting 'orthorhombic'
loop_
_space_group_symop_operation_xyz
x,y,z
-x,-y,z
x,-y,-z
-x,y,-z
-x,-y,-z
x,y,-z
-x,y,z
x,-y,z
1/2+x,1/2+y,1/2+z
1/2-x,1/2-y,1/2+z
1/2+x,1/2-y,1/2-z
1/2-x,1/2+y,1/2-z
1/2-x,1/2-y,1/2-z
1/2+x,1/2+y,1/2-z
1/2-x,1/2+y,1/2+z
1/2+x,1/2-y,1/2+z
loop_
_atom_site_type_symbol
_atom_site_label
_atom_site_fract_x
_atom_site_fract_y
_atom_site_fract_z
Si Si1 0.818020 0.806528 0.836576
Si Si2 0.000000 0.913561 0.337702
Si Si3 0.904779 0.915428 0.166211
Si Si4 0.293532 0.832457 0.163839
Si Si5 0.053666 0.413147 0.341651
Si Si6 0.639313 0.915189 0.655737
O O1 0.857714 0.867044 0.790701
O O2 0.764088 0.838543 0.815897
O O3 0.820715 0.736347 0.735840
O O4 0.826094 0.782831 0.000000
O O5 0.951298 0.886749 0.255925
O O6 0.000000 0.883539 0.500000
O O7 0.000000 0.000000 0.336917
O O8 0.892744 0.000000 0.201523
O O9 0.917265 0.906544 0.000000
O O10 0.313826 0.903036 0.245003
O O11 0.308672 0.833088 0.000000
O O12 0.065432 0.383950 0.500000
O O13 0.056658 0.500000 0.342725
O O14 0.092036 0.379224 0.230980
O O15 0.000000 0.387302 0.294018
O O16 0.646056 0.879159 0.500000
O O17 0.631016 0.000000 0.638169
#
# Coordination Sequence:
#
# PCOD8289866 Si02
#       6
#    16   8  16  16  16  16
#     4   9  19  35  54  75 100 133 171 210 252 303
#     4   9  17  29  47  75 109 139 166 201 250 305
#     4   9  17  31  53  79 105 135 171 209 251 302
#     4  10  20  34  53  74  99 134 172 211 257 306
#     4   8  14  26  45  68  93 122 157 197 242 292
#     4  10  20  32  48  72 101 132 166 207 253 299
#
# _framework density 18.605473
#
# number of rings (size 3 to 8) (size 9 to 14) (size 15 to 20)
#    0.000    2.818    0.000    1.909    0.000    4.727 
#    0.000    3.636    2.000    2.182    0.000    0.000 
#    0.000    0.000    0.000    0.000    0.000    0.000 
#
# Total GULP energy -545345.350106 kJ/mol
# GULP energy per Si atom -12394.212502 kJ/mol
# Density = 1.856313 g / cm^3
# Si number density = 18.605473 Si / 1000 Ang^3
#
#
#
# Elastic Constant Matrix: (Units=GPa)
#
#
# Indices 1 2 3 4 5 6 
#
# 1 128.2607 42.6844 76.7565 0.0000 0.0000 0.0000
# 2 42.6844 33.0373 28.3889 0.0000 0.0000 0.0000
# 3 76.7565 28.3889 130.5864 0.0000 0.0000 0.0000
# 4 0.0000 0.0000 0.0000 23.7490 0.0000 0.0000
# 5 0.0000 0.0000 0.0000 0.0000 30.3167 0.0000
# 6 0.0000 0.0000 0.0000 0.0000 0.0000 23.3174
#
#
#
# Elastic Compliance Matrix: (Units=1/GPa)
#
#
# Indices 1 2 3 4 5 6 
#
# 1 0.017245 -0.016688 -0.006509 0.000000 0.000000 0.000000
# 2 -0.016688 0.053371 -0.001794 0.000000 0.000000 0.000000
# 3 -0.006509 -0.001794 0.011873 0.000000 0.000000 0.000000
# 4 0.000000 0.000000 0.000000 0.042107 0.000000 0.000000
# 5 0.000000 0.000000 0.000000 0.000000 0.032985 0.000000
# 6 0.000000 0.000000 0.000000 0.000000 0.000000 0.042886
#
#
# Mechanical properties :
#
#
# Convention : Reuss Voigt Hill
#
# Bulk Modulus (GPa) = 30.76054 65.28265 48.02160
# Shear Modulus (GPa) = 19.13610 25.08026 22.10818
#
# Velocity S-wave (km/s) = 3.21053 3.67550 3.45086
# Velocity P-wave (km/s) = 5.50566 7.29222 6.46099
#
# Compressibility (1/GPa) = 0.03250918
#
# Stress axis : x y z
#
# Youngs Moduli (GPa) = 57.98648 18.73660 84.22241
#
# Poissons Ratio (x) = 0.31268 0.54817
# Poissons Ratio (y) = 0.96770 0.15106
# Poissons Ratio (z) = 0.37741 0.03361
#
# Static dielectric constant tensor:
#      x y z
#    x 3.584780 0.000000 0.000000 
#    y 0.000000 3.047070 0.000000 
#    z 0.000000 0.000000 3.747450 
# 
# 
# High freq. dielectric constant tensor:
#      x y z
#    x 1.729350 0.000000 0.000000 
#    y 0.000000 1.681270 0.000000 
#    z 0.000000 0.000000 1.730480 
# 
# From -- ./inp_files/12520.got.cif
#   From: 2010.06.25/outbox.cif.g09.slc.cpg/sg71_7_cif.got.tgz:12520.got - 2010.06.28 04:59:45.
