data_PCOD8289435
_publ_section_title
;
Structure prediction by ZEFSAII (Michael W. Deem and Ramdas Pophale) SiO2 
 PCOD8289435
Probable space group: I M M M
;
_chemical_formula_sum "Si O2"
_cell_formula_units_Z 88
_cell_length_a 9.180135
_cell_length_b 25.185826
_cell_length_c 20.631595
_cell_angle_alpha 90.000000
_cell_angle_beta 90.000000
_cell_angle_gamma 90.000000
_cell_volume 4770.216282
_symmetry_space_group_name_H-M "I M M M"
_symmetry_group_IT_number 71
_symmetry_cell_setting 'orthorhombic'
loop_
_space_group_symop_operation_xyz
x,y,z
-x,-y,z
x,-y,-z
-x,y,-z
-x,-y,-z
x,y,-z
-x,y,z
x,-y,z
1/2+x,1/2+y,1/2+z
1/2-x,1/2-y,1/2+z
1/2+x,1/2-y,1/2-z
1/2-x,1/2+y,1/2-z
1/2-x,1/2-y,1/2-z
1/2+x,1/2+y,1/2-z
1/2-x,1/2+y,1/2+z
1/2+x,1/2-y,1/2+z
loop_
_atom_site_type_symbol
_atom_site_label
_atom_site_fract_x
_atom_site_fract_y
_atom_site_fract_z
Si Si1 0.328849 0.439831 0.500000
Si Si2 0.171645 0.611044 0.075426
Si Si3 0.328745 0.310894 0.172684
Si Si4 0.828062 0.500000 0.719777
Si Si5 0.826847 0.500000 0.135139
Si Si6 0.663109 0.807236 0.201010
Si Si7 0.336020 0.089956 0.123627
O O1 0.273948 0.500000 0.500000
O O2 0.500000 0.434936 0.500000
O O3 0.268937 0.411459 0.562997
O O4 0.251536 0.657412 0.114962
O O5 0.227916 0.553024 0.098491
O O6 0.000000 0.616510 0.087847
O O7 0.210582 0.617875 0.000000
O O8 0.500000 0.321842 0.168311
O O9 0.288494 0.248328 0.168495
O O10 0.268948 0.328856 0.242713
O O11 0.760192 0.500000 0.791979
O O12 0.775887 0.552105 0.680899
O O13 0.000000 0.500000 0.728257
O O14 0.000000 0.500000 0.135939
O O15 0.500000 0.801663 0.230285
O O16 0.666307 0.849326 0.144021
O O17 0.500000 0.071994 0.104704
#
# Coordination Sequence:
#
# PCOD8289435 Si02
#       7
#     8  16  16   8   8  16  16
#     4  11  23  37  51  73 111 149 175 212 275 334
#     4  10  20  35  56  80 109 146 185 226 267 314
#     4  10  20  35  56  82 112 145 176 219 276 327
#     4   9  16  26  50  82 103 124 165 226 273 303
#     4   9  17  32  55  83 108 134 177 228 269 308
#     4   9  19  36  58  82 107 139 182 228 270 316
#     4  10  19  34  56  79 103 137 183 226 263 314
#
# _framework density 18.447800000000001
#
# number of rings (size 3 to 8) (size 9 to 14) (size 15 to 20)
#    0.000    2.273    0.909    2.182    0.000    6.182 
#    1.636    0.455    0.000    1.091    0.000    0.000 
#    0.000    0.000    0.000    0.000    0.000    0.000 
#
# Total GULP energy -545561.862686 kJ/mol
# GULP energy per Si atom -12399.133243 kJ/mol
# Density = 1.840581 g / cm^3
# Si number density = 18.447800 Si / 1000 Ang^3
#
#
#
# Elastic Constant Matrix: (Units=GPa)
#
#
# Indices 1 2 3 4 5 6 
#
# 1 58.5207 38.2660 53.0967 0.0000 0.0000 0.0000
# 2 38.2660 104.4526 69.1596 0.0000 0.0000 0.0000
# 3 53.0967 69.1596 143.5203 -0.0001 0.0000 0.0000
# 4 0.0000 0.0000 -0.0001 28.7430 0.0000 0.0000
# 5 0.0000 0.0000 0.0000 0.0000 24.4481 0.0000
# 6 0.0000 0.0000 0.0000 0.0000 0.0000 26.0567
#
#
#
# Elastic Compliance Matrix: (Units=1/GPa)
#
#
# Indices 1 2 3 4 5 6 
#
# 1 0.027310 -0.004869 -0.007758 0.000000 0.000000 0.000000
# 2 -0.004869 0.014928 -0.005392 0.000000 0.000000 0.000000
# 3 -0.007758 -0.005392 0.012436 0.000000 0.000000 0.000000
# 4 0.000000 0.000000 0.000000 0.034791 0.000000 0.000000
# 5 0.000000 0.000000 0.000000 0.000000 0.040903 0.000000
# 6 0.000000 0.000000 0.000000 0.000000 0.000000 0.038378
#
#
# Mechanical properties :
#
#
# Convention : Reuss Voigt Hill
#
# Bulk Modulus (GPa) = 53.65650 69.72648 61.69149
# Shear Modulus (GPa) = 23.69732 25.58096 24.63914
#
# Velocity S-wave (km/s) = 3.58797 3.72784 3.65857
# Velocity P-wave (km/s) = 6.80539 7.51051 7.16663
#
# Compressibility (1/GPa) = 0.01863707
#
# Stress axis : x y z
#
# Youngs Moduli (GPa) = 36.61656 66.99036 80.41185
#
# Poissons Ratio (x) = 0.32615 0.62380
# Poissons Ratio (y) = 0.17827 0.43359
# Poissons Ratio (z) = 0.28405 0.36122
#
# Static dielectric constant tensor:
#      x y z
#    x 3.249260 0.000000 0.000000 
#    y 0.000000 3.487020 0.000000 
#    z 0.000000 0.000000 3.395940 
# 
# 
# High freq. dielectric constant tensor:
#      x y z
#    x 1.692650 0.000000 0.000000 
#    y 0.000000 1.724820 0.000000 
#    z 0.000000 0.000000 1.713300 
# 
# From -- ./inp_files/50595.got.cif
#   From: 2010.06.25/outbox.cif.g09.slc.cpg/sg71_26_cif.got.tgz:50595.got - 2010.06.28 04:59:45.
