data_PCOD8289458
_publ_section_title
;
Structure prediction by ZEFSAII (Michael W. Deem and Ramdas Pophale) SiO2 
 PCOD8289458
Probable space group: I M M M
;
_chemical_formula_sum "Si O2"
_cell_formula_units_Z 88
_cell_length_a 9.192619
_cell_length_b 19.181545
_cell_length_c 27.092511
_cell_angle_alpha 90.000000
_cell_angle_beta 90.000000
_cell_angle_gamma 90.000000
_cell_volume 4777.185484
_symmetry_space_group_name_H-M "I M M M"
_symmetry_group_IT_number 71
_symmetry_cell_setting 'orthorhombic'
loop_
_space_group_symop_operation_xyz
x,y,z
-x,-y,z
x,-y,-z
-x,y,-z
-x,-y,-z
x,y,-z
-x,y,z
x,-y,z
1/2+x,1/2+y,1/2+z
1/2-x,1/2-y,1/2+z
1/2+x,1/2-y,1/2-z
1/2-x,1/2+y,1/2-z
1/2-x,1/2-y,1/2-z
1/2+x,1/2+y,1/2-z
1/2-x,1/2+y,1/2+z
1/2+x,1/2-y,1/2+z
loop_
_atom_site_type_symbol
_atom_site_label
_atom_site_fract_x
_atom_site_fract_y
_atom_site_fract_z
Si Si1 0.834757 0.825546 0.056690
Si Si2 0.166241 0.310587 0.809240
Si Si3 0.167216 0.580614 0.631872
Si Si4 0.669108 0.830303 0.421072
Si Si5 0.331440 0.346940 0.715292
Si Si6 0.169919 0.918545 0.500000
O O1 0.732119 0.876555 0.086645
O O2 0.780108 0.746462 0.062583
O O3 0.000000 0.831622 0.077148
O O4 0.826538 0.848323 0.000000
O O5 0.199288 0.341304 0.863101
O O6 0.269756 0.349590 0.770743
O O7 0.197700 0.227976 0.809726
O O8 0.000000 0.324002 0.793483
O O9 0.185370 0.500000 0.618738
O O10 0.250285 0.595770 0.682739
O O11 0.000000 0.601883 0.638791
O O12 0.500000 0.840697 0.433985
O O13 0.761285 0.886711 0.450602
O O14 0.500000 0.365951 0.717600
O O15 0.000000 0.902193 0.500000
O O16 0.203563 0.000000 0.500000
#
# Coordination Sequence:
#
# PCOD8289458 Si02
#       6
#    16  16  16  16  16   8
#     4  10  20  37  60  86 114 145 190 242 286 337
#     4   9  18  33  56  86 115 142 181 235 285 335
#     4  11  24  39  55  79 116 158 197 239 286 339
#     4  10  19  37  62  87 115 148 190 235 281 340
#     4  10  19  34  56  83 114 147 187 234 283 337
#     4  11  25  41  57  85 122 153 186 231 283 340
#
# _framework density 18.420887
#
# number of rings (size 3 to 8) (size 9 to 14) (size 15 to 20)
#    0.000    1.909    2.727    1.364    0.000    5.091 
#    0.000    2.727    0.000    1.091    0.000    0.000 
#    0.000    0.000    0.000    0.000    0.000    0.000 
#
# Total GULP energy -545812.782174 kJ/mol
# GULP energy per Si atom -12404.835958 kJ/mol
# Density = 1.837896 g / cm^3
# Si number density = 18.420887 Si / 1000 Ang^3
#
#
#
# Elastic Constant Matrix: (Units=GPa)
#
#
# Indices 1 2 3 4 5 6 
#
# 1 120.3431 67.1936 68.0470 0.0000 0.0000 0.0000
# 2 67.1936 90.3385 54.6306 0.0000 0.0000 0.0000
# 3 68.0470 54.6306 117.7926 0.0000 0.0000 0.0000
# 4 0.0000 0.0000 0.0000 25.6212 0.0000 0.0000
# 5 0.0000 0.0000 0.0000 0.0000 38.2009 0.0000
# 6 0.0000 0.0000 0.0000 0.0000 0.0000 29.2609
#
#
#
# Elastic Compliance Matrix: (Units=1/GPa)
#
#
# Indices 1 2 3 4 5 6 
#
# 1 0.016261 -0.008914 -0.005259 0.000000 0.000000 0.000000
# 2 -0.008914 0.020271 -0.004252 0.000000 0.000000 0.000000
# 3 -0.005259 -0.004252 0.013500 0.000000 0.000000 0.000000
# 4 0.000000 0.000000 0.000000 0.039030 0.000000 0.000000
# 5 0.000000 0.000000 0.000000 0.000000 0.026177 0.000000
# 6 0.000000 0.000000 0.000000 0.000000 0.000000 0.034175
#
#
# Mechanical properties :
#
#
# Convention : Reuss Voigt Hill
#
# Bulk Modulus (GPa) = 75.86814 78.69074 77.27944
# Shear Modulus (GPa) = 26.22491 27.85678 27.04085
#
# Velocity S-wave (km/s) = 3.77722 3.89297 3.83553
# Velocity P-wave (km/s) = 7.76522 7.93838 7.85228
#
# Compressibility (1/GPa) = 0.01318076
#
# Stress axis : x y z
#
# Youngs Moduli (GPa) = 61.49831 49.33138 74.07608
#
# Poissons Ratio (x) = 0.43975 0.38958
# Poissons Ratio (y) = 0.54821 0.31496
# Poissons Ratio (z) = 0.32343 0.20975
#
# Static dielectric constant tensor:
#      x y z
#    x 3.424520 0.000000 0.000000 
#    y 0.000000 3.155400 0.000000 
#    z 0.000000 0.000000 3.436240 
# 
# 
# High freq. dielectric constant tensor:
#      x y z
#    x 1.717510 0.000000 0.000000 
#    y 0.000000 1.691180 0.000000 
#    z 0.000000 0.000000 1.727590 
# 
# From -- ./inp_files/68013.got.cif
#   From: 2010.06.25/outbox.cif.g09.slc.cpg/sg71_35_cif.got.tgz:68013.got - 2010.06.28 04:59:45.
