data_PCOD8289594
_publ_section_title
;
Structure prediction by ZEFSAII (Michael W. Deem and Ramdas Pophale) SiO2 
 PCOD8289594
Probable space group: I M M M
;
_chemical_formula_sum "Si O2"
_cell_formula_units_Z 64
_cell_length_a 20.699909
_cell_length_b 18.282533
_cell_length_c 8.587290
_cell_angle_alpha 90.000000
_cell_angle_beta 90.000000
_cell_angle_gamma 90.000000
_cell_volume 3249.832158
_symmetry_space_group_name_H-M "I M M M"
_symmetry_group_IT_number 71
_symmetry_cell_setting 'orthorhombic'
loop_
_space_group_symop_operation_xyz
x,y,z
-x,-y,z
x,-y,-z
-x,y,-z
-x,-y,-z
x,y,-z
-x,y,z
x,-y,z
1/2+x,1/2+y,1/2+z
1/2-x,1/2-y,1/2+z
1/2+x,1/2-y,1/2-z
1/2-x,1/2+y,1/2-z
1/2-x,1/2-y,1/2-z
1/2+x,1/2+y,1/2-z
1/2-x,1/2+y,1/2+z
1/2+x,1/2-y,1/2+z
loop_
_atom_site_type_symbol
_atom_site_label
_atom_site_fract_x
_atom_site_fract_y
_atom_site_fract_z
Si Si1 0.365227 0.846106 0.316590
Si Si2 0.743183 0.584579 0.678735
Si Si3 0.000000 0.175034 0.330623
Si Si4 0.500000 0.151864 0.172352
Si Si5 0.362496 0.312718 0.815282
O O1 0.358759 0.852223 0.500000
O O2 0.315415 0.901272 0.236600
O O3 0.436312 0.872443 0.265671
O O4 0.347002 0.763997 0.265710
O O5 0.736445 0.608837 0.500000
O O6 0.726386 0.500000 0.701111
O O7 0.693418 0.630291 0.781986
O O8 0.000000 0.261901 0.345527
O O9 0.068420 0.154845 0.248105
O O10 0.000000 0.137251 0.500000
O O11 0.500000 0.115887 0.000000
O O12 0.368957 0.299094 0.000000
#
# Coordination Sequence:
#
# PCOD8289594 Si02
#       5
#    16  16   8   8  16
#     4  11  21  35  58  86 113 142 181 226 273 326
#     4  11  24  40  55  75 108 148 188 231 279 328
#     4   7  14  29  52  81 108 136 170 214 264 315
#     4   9  17  33  56  83 114 143 176 220 272 324
#     4  10  19  35  59  84 111 143 182 226 273 327
#
# _framework density 19.693324
#
# number of rings (size 3 to 8) (size 9 to 14) (size 15 to 20)
#    0.000    2.000    0.000    6.375    0.000    2.000 
#    0.000    3.125    0.000    7.500    0.000    0.000 
#    0.000    0.000    0.000    0.000    0.000    0.000 
#
# Total GULP energy -396668.449085 kJ/mol
# GULP energy per Si atom -12395.889034 kJ/mol
# Density = 1.964850 g / cm^3
# Si number density = 19.693324 Si / 1000 Ang^3
#
#
#
# Elastic Constant Matrix: (Units=GPa)
#
#
# Indices 1 2 3 4 5 6 
#
# 1 104.2018 10.0291 1.3507 0.0000 0.0000 0.0000
# 2 10.0291 29.3583 17.2077 0.0000 0.0000 0.0000
# 3 1.3507 17.2077 48.0682 0.0000 0.0000 0.0000
# 4 0.0000 0.0000 0.0000 22.5960 0.0000 0.0000
# 5 0.0000 0.0000 0.0000 0.0000 32.7441 0.0000
# 6 0.0000 0.0000 0.0000 0.0000 0.0000 2.9663
#
#
#
# Elastic Compliance Matrix: (Units=1/GPa)
#
#
# Indices 1 2 3 4 5 6 
#
# 1 0.009976 -0.004105 0.001189 0.000000 0.000000 0.000000
# 2 -0.004105 0.044796 -0.015921 0.000000 0.000000 0.000000
# 3 0.001189 -0.015921 0.026470 0.000000 0.000000 0.000000
# 4 0.000000 0.000000 0.000000 0.044256 0.000000 0.000000
# 5 0.000000 0.000000 0.000000 0.000000 0.030540 0.000000
# 6 0.000000 0.000000 0.000000 0.000000 0.000000 0.337123
#
#
# Mechanical properties :
#
#
# Convention : Reuss Voigt Hill
#
# Bulk Modulus (GPa) = 22.95231 26.53371 24.74301
# Shear Modulus (GPa) = 9.16830 21.86400 15.51615
#
# Velocity S-wave (km/s) = 2.16001 3.33562 2.80998
# Velocity P-wave (km/s) = 4.23096 5.32333 4.80827
#
# Compressibility (1/GPa) = 0.04356859
#
# Stress axis : x y z
#
# Youngs Moduli (GPa) = 100.23603 22.32345 37.77890
#
# Poissons Ratio (x) = 0.09164 -0.04493
# Poissons Ratio (y) = 0.41148 0.60148
# Poissons Ratio (z) = -0.11920 0.35541
#
# Static dielectric constant tensor:
#      x y z
#    x 4.132770 0.000000 0.000000 
#    y 0.000000 3.152500 0.000000 
#    z 0.000000 0.000000 3.574890 
# 
# 
# High freq. dielectric constant tensor:
#      x y z
#    x 1.794380 0.000000 0.000000 
#    y 0.000000 1.724720 0.000000 
#    z 0.000000 0.000000 1.767200 
# 
# From -- ./inp_files/7552.got.cif
#   From: 2010.06.25/outbox.cif.g09.slc.cpg/sg71_4_cif.got.tgz:7552.got - 2010.06.28 04:59:45.
