data_PCOD8289051
_publ_section_title
;
Structure prediction by ZEFSAII (Michael W. Deem and Ramdas Pophale) SiO2 
 PCOD8289051
Probable space group: I M M M
;
_chemical_formula_sum "Si O2"
_cell_formula_units_Z 80
_cell_length_a 28.849848
_cell_length_b 15.346827
_cell_length_c 9.326409
_cell_angle_alpha 90.000000
_cell_angle_beta 90.000000
_cell_angle_gamma 90.000000
_cell_volume 4129.301404
_symmetry_space_group_name_H-M "I M M M"
_symmetry_group_IT_number 71
_symmetry_cell_setting 'orthorhombic'
loop_
_space_group_symop_operation_xyz
x,y,z
-x,-y,z
x,-y,-z
-x,y,-z
-x,-y,-z
x,y,-z
-x,y,z
x,-y,z
1/2+x,1/2+y,1/2+z
1/2-x,1/2-y,1/2+z
1/2+x,1/2-y,1/2-z
1/2-x,1/2+y,1/2-z
1/2-x,1/2-y,1/2-z
1/2+x,1/2+y,1/2-z
1/2-x,1/2+y,1/2+z
1/2+x,1/2-y,1/2+z
loop_
_atom_site_type_symbol
_atom_site_label
_atom_site_fract_x
_atom_site_fract_y
_atom_site_fract_z
Si Si1 0.295312 0.650625 0.163889
Si Si2 0.381583 0.903272 0.336201
Si Si3 0.947149 0.248065 0.168689
Si Si4 0.896441 0.901089 0.334298
Si Si5 0.293572 0.855537 0.835193
O O1 0.343054 0.606860 0.215082
O O2 0.300908 0.753278 0.184502
O O3 0.254288 0.613624 0.262465
O O4 0.283711 0.626358 0.000000
O O5 0.367711 0.881639 0.500000
O O6 0.418446 0.832546 0.279151
O O7 0.335814 0.903430 0.240629
O O8 0.403877 0.000000 0.325324
O O9 0.929112 0.160869 0.242858
O O10 0.000000 0.263920 0.214695
O O11 0.942363 0.234380 0.000000
O O12 0.900466 0.873190 0.500000
O O13 0.913188 0.000000 0.310160
O O14 0.292090 0.884017 0.000000
#
# Coordination Sequence:
#
# PCOD8289051 Si02
#       5
#    16  16  16  16  16
#     4   9  18  33  53  80 115 152 188 225 269 324
#     4  10  21  37  58  83 112 148 188 229 278 336
#     4  10  22  40  61  84 111 143 182 233 288 336
#     4  10  21  38  60  85 113 148 189 229 273 330
#     4  10  19  32  54  83 115 150 188 229 273 325
#
# _framework density 19.373736999999998
#
# number of rings (size 3 to 8) (size 9 to 14) (size 15 to 20)
#    0.000    2.200    2.000    0.600    0.000    4.400 
#    0.000    6.000    0.000    0.000    0.000    2.800 
#    0.000    0.000    0.000    0.000    0.000    0.000 
#
# Total GULP energy -496104.461572 kJ/mol
# GULP energy per Si atom -12402.611539 kJ/mol
# Density = 1.932964 g / cm^3
# Si number density = 19.373737 Si / 1000 Ang^3
#
#
#
# Elastic Constant Matrix: (Units=GPa)
#
#
# Indices 1 2 3 4 5 6 
#
# 1 125.0356 53.2587 51.8980 0.0000 0.0000 0.0000
# 2 53.2587 90.0570 34.9524 0.0000 0.0000 0.0000
# 3 51.8980 34.9524 69.0069 0.0000 0.0000 0.0000
# 4 0.0000 0.0000 0.0000 23.2846 0.0000 0.0000
# 5 0.0000 0.0000 0.0000 0.0000 30.8043 0.0000
# 6 0.0000 0.0000 0.0000 0.0000 0.0000 8.2904
#
#
#
# Elastic Compliance Matrix: (Units=1/GPa)
#
#
# Indices 1 2 3 4 5 6 
#
# 1 0.013167 -0.004908 -0.007416 0.000000 0.000000 0.000000
# 2 -0.004908 0.015651 -0.004236 0.000000 0.000000 0.000000
# 3 -0.007416 -0.004236 0.022214 0.000000 0.000000 0.000000
# 4 0.000000 0.000000 0.000000 0.042947 0.000000 0.000000
# 5 0.000000 0.000000 0.000000 0.000000 0.032463 0.000000
# 6 0.000000 0.000000 0.000000 0.000000 0.000000 0.120622
#
#
# Mechanical properties :
#
#
# Convention : Reuss Voigt Hill
#
# Bulk Modulus (GPa) = 55.83131 62.70198 59.26664
# Shear Modulus (GPa) = 17.47310 22.07522 19.77416
#
# Velocity S-wave (km/s) = 3.00642 3.37922 3.19826
# Velocity P-wave (km/s) = 6.39781 6.90364 6.65553
#
# Compressibility (1/GPa) = 0.01791110
#
# Stress axis : x y z
#
# Youngs Moduli (GPa) = 75.94991 63.89460 45.01624
#
# Poissons Ratio (x) = 0.31361 0.33385
# Poissons Ratio (y) = 0.37278 0.19068
# Poissons Ratio (z) = 0.56325 0.27065
#
# Static dielectric constant tensor:
#      x y z
#    x 3.520800 0.000000 0.000000 
#    y 0.000000 3.543920 0.000000 
#    z 0.000000 0.000000 3.494260 
# 
# 
# High freq. dielectric constant tensor:
#      x y z
#    x 1.748960 0.000000 0.000000 
#    y 0.000000 1.757370 0.000000 
#    z 0.000000 0.000000 1.746510 
# 
# From -- ./inp_files/8644.got.cif
#   From: 2010.06.25/outbox.cif.g09.slc.cpg/sg71_5_cif.got.tgz:8644.got - 2010.06.28 04:59:45.
