data_PCOD8289291
_publ_section_title
;
Structure prediction by ZEFSAII (Michael W. Deem and Ramdas Pophale) SiO2 
 PCOD8289291
Probable space group: I M M M
;
_chemical_formula_sum "Si O2"
_cell_formula_units_Z 64
_cell_length_a 14.803096
_cell_length_b 17.159491
_cell_length_c 13.611817
_cell_angle_alpha 90.000000
_cell_angle_beta 90.000000
_cell_angle_gamma 90.000000
_cell_volume 3457.586538
_symmetry_space_group_name_H-M "I M M M"
_symmetry_group_IT_number 71
_symmetry_cell_setting 'orthorhombic'
loop_
_space_group_symop_operation_xyz
x,y,z
-x,-y,z
x,-y,-z
-x,y,-z
-x,-y,-z
x,y,-z
-x,y,z
x,-y,z
1/2+x,1/2+y,1/2+z
1/2-x,1/2-y,1/2+z
1/2+x,1/2-y,1/2-z
1/2-x,1/2+y,1/2-z
1/2-x,1/2-y,1/2-z
1/2+x,1/2+y,1/2-z
1/2-x,1/2+y,1/2+z
1/2+x,1/2-y,1/2+z
loop_
_atom_site_type_symbol
_atom_site_label
_atom_site_fract_x
_atom_site_fract_y
_atom_site_fract_z
Si Si1 0.000000 0.840216 0.614245
Si Si2 0.662541 0.091882 0.711027
Si Si3 0.000000 0.689488 0.729539
Si Si4 0.101647 0.407985 0.000000
Si Si5 0.135986 0.091616 0.240310
Si Si6 0.000000 0.819758 0.115105
O O1 0.088597 0.880278 0.659705
O O2 0.000000 0.855860 0.500000
O O3 0.000000 0.747986 0.637304
O O4 0.588309 0.135438 0.776707
O O5 0.654747 0.119740 0.597409
O O6 0.759598 0.115849 0.753565
O O7 0.645269 0.000000 0.719731
O O8 0.000000 0.736675 0.831735
O O9 0.095499 0.500000 0.000000
O O10 0.000000 0.373461 0.000000
O O11 0.089787 0.132823 0.146750
O O12 0.123828 0.000000 0.228476
O O13 0.000000 0.805984 0.000000
#
# Coordination Sequence:
#
# PCOD8289291 Si02
#       6
#     8  16   8   8  16   8
#     4  10  22  37  52  74 106 146 180 214 266 321
#     4  10  19  33  55  82 111 138 175 226 272 315
#     4  10  21  36  54  78 112 145 176 217 265 323
#     4   9  16  26  46  81 111 137 169 208 267 320
#     4   9  20  37  57  82 105 134 179 226 275 318
#     4  10  22  37  56  81 109 146 185 220 262 318
#
# _framework density 18.510020999999998
#
# number of rings (size 3 to 8) (size 9 to 14) (size 15 to 20)
#    0.000    2.625    1.250    1.875    3.500    6.000 
#    0.000    3.750    0.000    3.000    0.000    0.000 
#    0.000    0.000    0.000    0.000    0.000    0.000 
#
# Total GULP energy -396744.831303 kJ/mol
# GULP energy per Si atom -12398.275978 kJ/mol
# Density = 1.846789 g / cm^3
# Si number density = 18.510021 Si / 1000 Ang^3
#
#
#
# Elastic Constant Matrix: (Units=GPa)
#
#
# Indices 1 2 3 4 5 6 
#
# 1 150.2010 47.4863 16.5635 0.0000 0.0000 0.0000
# 2 47.4863 58.7584 2.6772 0.0000 0.0000 0.0000
# 3 16.5635 2.6772 65.7961 0.0000 0.0000 0.0000
# 4 0.0000 0.0000 0.0000 19.7075 0.0000 0.0000
# 5 0.0000 0.0000 0.0000 0.0000 7.4447 0.0000
# 6 0.0000 0.0000 0.0000 0.0000 0.0000 10.0131
#
#
#
# Elastic Compliance Matrix: (Units=1/GPa)
#
#
# Indices 1 2 3 4 5 6 
#
# 1 0.009202 -0.007345 -0.002018 0.000000 0.000000 0.000000
# 2 -0.007345 0.022913 0.000917 0.000000 0.000000 0.000000
# 3 -0.002018 0.000917 0.015669 0.000000 0.000000 0.000000
# 4 0.000000 0.000000 0.000000 0.050742 0.000000 0.000000
# 5 0.000000 0.000000 0.000000 0.000000 0.134323 0.000000
# 6 0.000000 0.000000 0.000000 0.000000 0.000000 0.099869
#
#
# Mechanical properties :
#
#
# Convention : Reuss Voigt Hill
#
# Bulk Modulus (GPa) = 32.37039 45.35660 38.86350
# Shear Modulus (GPa) = 13.89239 21.30163 17.59701
#
# Velocity S-wave (km/s) = 2.74256 3.39605 3.08665
# Velocity P-wave (km/s) = 5.24927 6.31938 5.80902
#
# Compressibility (1/GPa) = 0.03089243
#
# Stress axis : x y z
#
# Youngs Moduli (GPa) = 108.66701 43.64310 63.81981
#
# Poissons Ratio (x) = 0.32056 0.12877
# Poissons Ratio (y) = 0.79817 -0.05851
# Poissons Ratio (z) = 0.21926 -0.04001
#
# Static dielectric constant tensor:
#      x y z
#    x 3.491540 0.000000 0.000000 
#    y 0.000000 3.428520 0.000000 
#    z 0.000000 0.000000 3.132390 
# 
# 
# High freq. dielectric constant tensor:
#      x y z
#    x 1.723940 0.000000 0.000000 
#    y 0.000000 1.724700 0.000000 
#    z 0.000000 0.000000 1.688470 
# 
# From -- ./inp_files/33979.got.cif
#   From: 2010.06.25/outbox.cif.g09.slc.cpg/sg71_17_cif.got.tgz:33979.got - 2010.06.28 04:59:45.
