data_PCOD8289493
_publ_section_title
;
Structure prediction by ZEFSAII (Michael W. Deem and Ramdas Pophale) SiO2 
 PCOD8289493
Probable space group: I M M M
;
_chemical_formula_sum "Si O2"
_cell_formula_units_Z 104
_cell_length_a 20.437415
_cell_length_b 9.087246
_cell_length_c 28.933810
_cell_angle_alpha 90.000000
_cell_angle_beta 90.000000
_cell_angle_gamma 90.000000
_cell_volume 5373.581919
_symmetry_space_group_name_H-M "I M M M"
_symmetry_group_IT_number 71
_symmetry_cell_setting 'orthorhombic'
loop_
_space_group_symop_operation_xyz
x,y,z
-x,-y,z
x,-y,-z
-x,y,-z
-x,-y,-z
x,y,-z
-x,y,z
x,-y,z
1/2+x,1/2+y,1/2+z
1/2-x,1/2-y,1/2+z
1/2+x,1/2-y,1/2-z
1/2-x,1/2+y,1/2-z
1/2-x,1/2-y,1/2-z
1/2+x,1/2+y,1/2-z
1/2-x,1/2+y,1/2+z
1/2+x,1/2-y,1/2+z
loop_
_atom_site_type_symbol
_atom_site_label
_atom_site_fract_x
_atom_site_fract_y
_atom_site_fract_z
Si Si1 0.823029 0.329527 0.797200
Si Si2 0.112639 0.171852 0.446851
Si Si3 0.881284 0.327056 0.106578
Si Si4 0.326774 0.328043 0.796488
Si Si5 0.572613 0.831864 0.861819
Si Si6 0.259064 0.825673 0.550399
Si Si7 0.500000 0.325038 0.445737
O O1 0.827090 0.500000 0.783108
O O2 0.873975 0.295345 0.838727
O O3 0.748016 0.290737 0.810761
O O4 0.845134 0.233783 0.753819
O O5 0.095259 0.206093 0.500000
O O6 0.067239 0.268082 0.413759
O O7 0.186681 0.222758 0.434860
O O8 0.102138 0.000000 0.436468
O O9 0.893321 0.500000 0.097316
O O10 0.812915 0.268908 0.085984
O O11 0.937885 0.236620 0.081752
O O12 0.339412 0.500000 0.795857
O O13 0.375132 0.259715 0.833389
O O14 0.500000 0.818500 0.839796
O O15 0.595667 0.000000 0.863210
O O16 0.276369 0.760379 0.500000
O O17 0.260057 0.000000 0.547926
O O18 0.500000 0.500000 0.442497
O O19 0.500000 0.275249 0.500000
#
# Coordination Sequence:
#
# PCOD8289493 Si02
#       7
#    16  16  16  16  16  16   8
#     4   9  19  36  60  90 118 140 173 226 285 338
#     4   9  18  34  57  84 112 142 180 228 278 329
#     4  10  19  34  58  83 106 143 188 226 271 334
#     4  10  20  37  62  88 113 144 182 226 278 338
#     4  11  24  39  54  76 110 152 191 228 272 321
#     4   8  14  27  51  82 110 135 172 224 273 319
#     4  11  25  41  53  73 113 155 191 239 290 333
#
# _framework density 19.353943000000001
#
# number of rings (size 3 to 8) (size 9 to 14) (size 15 to 20)
#    0.000    2.385    0.000    3.462    0.000    6.769 
#    1.385    3.846    0.000    0.923    0.000    0.000 
#    0.000    0.000    0.000    0.000    0.000    0.000 
#
# Total GULP energy -644616.582107 kJ/mol
# GULP energy per Si atom -12396.472733 kJ/mol
# Density = 1.930989 g / cm^3
# Si number density = 19.353943 Si / 1000 Ang^3
#
#
#
# Elastic Constant Matrix: (Units=GPa)
#
#
# Indices 1 2 3 4 5 6 
#
# 1 70.3452 32.9525 52.1298 0.0000 0.0000 0.0000
# 2 32.9525 72.8226 59.6522 0.0000 0.0000 0.0000
# 3 52.1298 59.6522 117.1039 0.0000 0.0000 0.0000
# 4 0.0000 0.0000 0.0000 32.7167 0.0000 0.0000
# 5 0.0000 0.0000 0.0000 0.0000 25.9680 0.0000
# 6 0.0000 0.0000 0.0000 0.0000 0.0000 26.6169
#
#
#
# Elastic Compliance Matrix: (Units=1/GPa)
#
#
# Indices 1 2 3 4 5 6 
#
# 1 0.021657 -0.003265 -0.007978 0.000000 0.000000 0.000000
# 2 -0.003265 0.024057 -0.010801 0.000000 0.000000 0.000000
# 3 -0.007978 -0.010801 0.017593 0.000000 0.000000 0.000000
# 4 0.000000 0.000000 0.000000 0.030565 0.000000 0.000000
# 5 0.000000 0.000000 0.000000 0.000000 0.038509 0.000000
# 6 0.000000 0.000000 0.000000 0.000000 0.000000 0.037570
#
#
# Mechanical properties :
#
#
# Convention : Reuss Voigt Hill
#
# Bulk Modulus (GPa) = 52.03104 61.08229 56.55667
# Shear Modulus (GPa) = 22.68139 24.76281 23.72210
#
# Velocity S-wave (km/s) = 3.42705 3.58085 3.50480
# Velocity P-wave (km/s) = 6.52701 6.98039 6.75750
#
# Compressibility (1/GPa) = 0.01921930
#
# Stress axis : x y z
#
# Youngs Moduli (GPa) = 46.17461 41.56774 56.84169
#
# Poissons Ratio (x) = 0.13572 0.45346
# Poissons Ratio (y) = 0.15077 0.61395
# Poissons Ratio (z) = 0.36836 0.44898
#
# Static dielectric constant tensor:
#      x y z
#    x 3.653290 0.000000 0.000000 
#    y 0.000000 3.335110 0.000000 
#    z 0.000000 0.000000 3.690080 
# 
# 
# High freq. dielectric constant tensor:
#      x y z
#    x 1.749900 0.000000 0.000000 
#    y 0.000000 1.732690 0.000000 
#    z 0.000000 0.000000 1.761250 
# 
# From -- ./inp_files/15014.got.cif
#   From: 2010.06.25/outbox.cif.g09.slc.cpg/sg71_8_cif.got.tgz:15014.got - 2010.06.28 04:59:45.
