data_PCOD8289804
_publ_section_title
;
Structure prediction by ZEFSAII (Michael W. Deem and Ramdas Pophale) SiO2 
 PCOD8289804
Probable space group: I M M M
;
_chemical_formula_sum "Si O2"
_cell_formula_units_Z 104
_cell_length_a 32.686889
_cell_length_b 19.895722
_cell_length_c 9.095269
_cell_angle_alpha 90.000000
_cell_angle_beta 90.000000
_cell_angle_gamma 90.000000
_cell_volume 5914.919527
_symmetry_space_group_name_H-M "I M M M"
_symmetry_group_IT_number 71
_symmetry_cell_setting 'orthorhombic'
loop_
_space_group_symop_operation_xyz
x,y,z
-x,-y,z
x,-y,-z
-x,y,-z
-x,-y,-z
x,y,-z
-x,y,z
x,-y,z
1/2+x,1/2+y,1/2+z
1/2-x,1/2-y,1/2+z
1/2+x,1/2-y,1/2-z
1/2-x,1/2+y,1/2-z
1/2-x,1/2-y,1/2-z
1/2+x,1/2+y,1/2-z
1/2-x,1/2+y,1/2+z
1/2+x,1/2-y,1/2+z
loop_
_atom_site_type_symbol
_atom_site_label
_atom_site_fract_x
_atom_site_fract_y
_atom_site_fract_z
Si Si1 0.579705 0.121835 0.670471
Si Si2 0.181470 0.926076 0.674503
Si Si3 0.453723 0.000000 0.840807
Si Si4 0.225543 0.422917 0.827471
Si Si5 0.546231 0.732102 0.329825
Si Si6 0.874285 0.806698 0.673469
Si Si7 0.158545 0.662009 0.326326
O O1 0.587914 0.107966 0.500000
O O2 0.554507 0.189608 0.696625
O O3 0.622715 0.119472 0.753272
O O4 0.553500 0.064057 0.740995
O O5 0.179950 0.924639 0.500000
O O6 0.227821 0.911463 0.723805
O O7 0.150956 0.869788 0.738549
O O8 0.167796 0.000000 0.731524
O O9 0.500000 0.000000 0.885113
O O10 0.429844 0.000000 0.000000
O O11 0.212216 0.500000 0.791410
O O12 0.200533 0.367236 0.737486
O O13 0.220045 0.408929 0.000000
O O14 0.550731 0.713291 0.500000
O O15 0.500000 0.715390 0.274844
O O16 0.580205 0.690197 0.241296
O O17 0.879844 0.810972 0.500000
O O18 0.848619 0.740091 0.717172
O O19 0.158073 0.652124 0.500000
#
# Coordination Sequence:
#
# PCOD8289804 Si02
#       7
#    16  16   8  16  16  16  16
#     4  10  20  34  51  68  90 126 170 209 242 288
#     4   8  15  31  54  76  98 127 163 204 245 291
#     4  11  23  35  47  67  95 125 159 205 261 305
#     4   9  18  32  50  70  94 130 175 210 240 288
#     4   9  18  33  52  73  97 126 161 200 242 290
#     4   9  18  32  51  76 101 126 161 202 249 299
#     4  10  20  32  46  70 103 131 159 204 257 298
#
# _framework density 17.582656
#
# number of rings (size 3 to 8) (size 9 to 14) (size 15 to 20)
#    0.000    2.692    0.000    2.538    1.077    3.692 
#    0.000    0.769    0.000    1.846    0.000    3.231 
#    0.000    0.000    0.000    0.000    0.000    0.000 
#
# Total GULP energy -644572.664237 kJ/mol
# GULP energy per Si atom -12395.628158 kJ/mol
# Density = 1.754264 g / cm^3
# Si number density = 17.582656 Si / 1000 Ang^3
#
#
#
# Elastic Constant Matrix: (Units=GPa)
#
#
# Indices 1 2 3 4 5 6 
#
# 1 132.2465 75.1748 45.9650 0.0000 0.0000 0.0000
# 2 75.1748 95.2488 40.8047 0.0000 0.0000 0.0000
# 3 45.9650 40.8047 57.5959 0.0000 0.0000 0.0000
# 4 0.0000 0.0000 0.0000 19.0473 0.0000 0.0000
# 5 0.0000 0.0000 0.0000 0.0000 27.9984 0.0000
# 6 0.0000 0.0000 0.0000 0.0000 0.0000 48.8857
#
#
#
# Elastic Compliance Matrix: (Units=1/GPa)
#
#
# Indices 1 2 3 4 5 6 
#
# 1 0.014664 -0.009419 -0.005030 0.000000 0.000000 0.000000
# 2 -0.009419 0.021123 -0.007449 0.000000 0.000000 0.000000
# 3 -0.005030 -0.007449 0.026654 0.000000 0.000000 0.000000
# 4 0.000000 0.000000 0.000000 0.052501 0.000000 0.000000
# 5 0.000000 0.000000 0.000000 0.000000 0.035716 0.000000
# 6 0.000000 0.000000 0.000000 0.000000 0.000000 0.020456
#
#
# Mechanical properties :
#
#
# Convention : Reuss Voigt Hill
#
# Bulk Modulus (GPa) = 53.62888 67.66449 60.64669
# Shear Modulus (GPa) = 22.61181 27.39607 25.00394
#
# Velocity S-wave (km/s) = 3.59002 3.95160 3.77514
# Velocity P-wave (km/s) = 6.91025 7.70632 7.31911
#
# Compressibility (1/GPa) = 0.01864667
#
# Stress axis : x y z
#
# Youngs Moduli (GPa) = 68.19519 47.34093 37.51841
#
# Poissons Ratio (x) = 0.44588 0.18871
# Poissons Ratio (y) = 0.64230 0.27946
# Poissons Ratio (z) = 0.34301 0.35262
#
# Static dielectric constant tensor:
#      x y z
#    x 3.358970 0.000000 0.000000 
#    y 0.000000 3.366020 0.000000 
#    z 0.000000 0.000000 3.128930 
# 
# 
# High freq. dielectric constant tensor:
#      x y z
#    x 1.679630 0.000000 0.000000 
#    y 0.000000 1.666140 0.000000 
#    z 0.000000 0.000000 1.669250 
# 
# From -- ./inp_files/17042.got.cif
#   From: 2010.06.25/outbox.cif.g09.slc.cpg/sg71_9_cif.got.tgz:17042.got - 2010.06.28 04:59:45.
