data_PCOD8289786
_publ_section_title
;
Structure prediction by ZEFSAII (Michael W. Deem and Ramdas Pophale) SiO2 
 PCOD8289786
Probable space group: I M M M
;
_chemical_formula_sum "Si O2"
_cell_formula_units_Z 104
_cell_length_a 29.938971
_cell_length_b 9.411591
_cell_length_c 22.614970
_cell_angle_alpha 90.000000
_cell_angle_beta 90.000000
_cell_angle_gamma 90.000000
_cell_volume 6372.295857
_symmetry_space_group_name_H-M "I M M M"
_symmetry_group_IT_number 71
_symmetry_cell_setting 'orthorhombic'
loop_
_space_group_symop_operation_xyz
x,y,z
-x,-y,z
x,-y,-z
-x,y,-z
-x,-y,-z
x,y,-z
-x,y,z
x,-y,z
1/2+x,1/2+y,1/2+z
1/2-x,1/2-y,1/2+z
1/2+x,1/2-y,1/2-z
1/2-x,1/2+y,1/2-z
1/2-x,1/2-y,1/2-z
1/2+x,1/2+y,1/2-z
1/2-x,1/2+y,1/2+z
1/2+x,1/2-y,1/2+z
loop_
_atom_site_type_symbol
_atom_site_label
_atom_site_fract_x
_atom_site_fract_y
_atom_site_fract_z
Si Si1 0.105330 0.168172 0.704983
Si Si2 0.795557 0.156199 0.312845
Si Si3 0.450013 0.330983 0.566214
Si Si4 0.283514 0.342731 0.326763
Si Si5 0.880948 0.830792 0.838138
Si Si6 0.052955 0.338114 0.387727
Si Si7 0.553183 0.661863 0.000000
O O1 0.153801 0.210126 0.678292
O O2 0.101982 0.214617 0.773480
O O3 0.068621 0.260986 0.671793
O O4 0.096103 0.000000 0.697570
O O5 0.759580 0.253051 0.347133
O O6 0.785513 0.150259 0.243641
O O7 0.790545 0.000000 0.340367
O O8 0.437296 0.280187 0.500000
O O9 0.500000 0.277826 0.582410
O O10 0.448856 0.500000 0.569335
O O11 0.414479 0.266470 0.612698
O O12 0.277066 0.500000 0.353181
O O13 0.330317 0.274656 0.350009
O O14 0.878881 0.000000 0.840671
O O15 0.071096 0.500000 0.391385
O O16 0.071236 0.246671 0.442976
O O17 0.000000 0.339441 0.387566
O O18 0.571851 0.500000 0.000000
O O19 0.500000 0.658776 0.000000
#
# Coordination Sequence:
#
# PCOD8289786 Si02
#       7
#    16  16  16  16  16  16   8
#     4   9  17  28  42  62  88 116 146 180 218 264
#     4   8  14  24  37  56  82 107 135 174 213 253
#     4   8  13  21  34  54  81 113 147 181 220 266
#     4   8  13  22  37  56  79 107 137 171 214 262
#     4   8  14  24  37  57  85 113 144 183 223 264
#     4  10  20  32  45  64  91 118 144 179 220 256
#     4   9  17  31  51  69  83 107 147 183 207 243
#
# _framework density 16.320647999999998
#
# number of rings (size 3 to 8) (size 9 to 14) (size 15 to 20)
#    0.000    3.462    0.000    3.000    0.000    3.077 
#    0.000    3.846    0.000    0.000    2.000    0.000 
#    0.000    1.846    0.000    8.462    0.000    7.385 
#
# Total GULP energy -644350.778809 kJ/mol
# GULP energy per Si atom -12391.361131 kJ/mol
# Density = 1.628350 g / cm^3
# Si number density = 16.320648 Si / 1000 Ang^3
#
#
#
# Elastic Constant Matrix: (Units=GPa)
#
#
# Indices 1 2 3 4 5 6 
#
# 1 76.1088 30.5219 48.7272 0.0000 0.0000 0.0000
# 2 30.5219 63.8258 32.8589 0.0000 0.0000 0.0000
# 3 48.7272 32.8589 80.2024 0.0000 0.0000 0.0000
# 4 0.0000 0.0000 0.0000 12.3931 0.0000 0.0000
# 5 0.0000 0.0000 0.0000 0.0000 12.5364 0.0000
# 6 0.0000 0.0000 0.0000 0.0000 0.0000 24.3640
#
#
#
# Elastic Compliance Matrix: (Units=1/GPa)
#
#
# Indices 1 2 3 4 5 6 
#
# 1 0.022578 -0.004733 -0.011778 0.000000 0.000000 0.000000
# 2 -0.004733 0.020848 -0.005666 0.000000 0.000000 0.000000
# 3 -0.011778 -0.005666 0.021945 0.000000 0.000000 0.000000
# 4 0.000000 0.000000 0.000000 0.080690 0.000000 0.000000
# 5 0.000000 0.000000 0.000000 0.000000 0.079768 0.000000
# 6 0.000000 0.000000 0.000000 0.000000 0.000000 0.041044
#
#
# Mechanical properties :
#
#
# Convention : Reuss Voigt Hill
#
# Bulk Modulus (GPa) = 47.57983 49.37254 48.47618
# Shear Modulus (GPa) = 15.71176 17.06065 16.38620
#
# Velocity S-wave (km/s) = 3.10609 3.23668 3.17206
# Velocity P-wave (km/s) = 6.48693 6.65473 6.57136
#
# Compressibility (1/GPa) = 0.02101731
#
# Stress axis : x y z
#
# Youngs Moduli (GPa) = 44.29096 47.96631 45.56753
#
# Poissons Ratio (x) = 0.22704 0.53670
# Poissons Ratio (y) = 0.20964 0.25817
# Poissons Ratio (z) = 0.52166 0.27176
#
# Static dielectric constant tensor:
#      x y z
#    x 3.257300 0.000000 0.000000 
#    y 0.000000 3.011900 0.000000 
#    z 0.000000 0.000000 2.938730 
# 
# 
# High freq. dielectric constant tensor:
#      x y z
#    x 1.625210 0.000000 0.000000 
#    y 0.000000 1.598740 0.000000 
#    z 0.000000 0.000000 1.593680 
# 
# From -- ./inp_files/62326.got.cif
#   From: 2010.06.25/outbox.cif.g09.slc.cpg/sg71_32_cif.got.tgz:62326.got - 2010.06.28 04:59:45.
