data_PCOD8289780
_publ_section_title
;
Structure prediction by ZEFSAII (Michael W. Deem and Ramdas Pophale) SiO2 
 PCOD8289780
Probable space group: I M M M
;
_chemical_formula_sum "Si O2"
_cell_formula_units_Z 104
_cell_length_a 7.767333
_cell_length_b 27.276143
_cell_length_c 26.018714
_cell_angle_alpha 90.000000
_cell_angle_beta 90.000000
_cell_angle_gamma 90.000000
_cell_volume 5512.399829
_symmetry_space_group_name_H-M "I M M M"
_symmetry_group_IT_number 71
_symmetry_cell_setting 'orthorhombic'
loop_
_space_group_symop_operation_xyz
x,y,z
-x,-y,z
x,-y,-z
-x,y,-z
-x,-y,-z
x,y,-z
-x,y,z
x,-y,z
1/2+x,1/2+y,1/2+z
1/2-x,1/2-y,1/2+z
1/2+x,1/2-y,1/2-z
1/2-x,1/2+y,1/2-z
1/2-x,1/2-y,1/2-z
1/2+x,1/2+y,1/2-z
1/2-x,1/2+y,1/2+z
1/2+x,1/2-y,1/2+z
loop_
_atom_site_type_symbol
_atom_site_label
_atom_site_fract_x
_atom_site_fract_y
_atom_site_fract_z
Si Si1 0.500000 0.447957 0.395362
Si Si2 0.813235 0.593081 0.442855
Si Si3 0.795745 0.237495 0.442951
Si Si4 0.695984 0.818530 0.864499
Si Si5 0.808516 0.555127 0.855809
Si Si6 0.500000 0.634342 0.312176
Si Si7 0.500000 0.442431 0.780383
Si Si8 0.700743 0.626738 0.941348
O O1 0.500000 0.500000 0.365397
O O2 0.330865 0.447018 0.430756
O O3 0.500000 0.402114 0.359189
O O4 0.785608 0.614170 0.500000
O O5 0.804305 0.638227 0.404864
O O6 0.000000 0.567304 0.437740
O O7 0.724454 0.252539 0.500000
O O8 0.730366 0.271760 0.396290
O O9 0.736895 0.182147 0.430388
O O10 0.000000 0.240652 0.445316
O O11 0.500000 0.809935 0.843142
O O12 0.827512 0.831609 0.817419
O O13 0.770353 0.500000 0.875216
O O14 0.670728 0.569309 0.812627
O O15 0.802885 0.590379 0.904656
O O16 0.000000 0.558892 0.831446
O O17 0.500000 0.599331 0.262974
O O18 0.500000 0.500000 0.761366
O O19 0.500000 0.621307 0.929471
O O20 0.741588 0.612322 0.000000
#
# Coordination Sequence:
#
# PCOD8289780 Si02
#       8
#     8  16  16  16  16   8   8  16
#     4  10  20  32  44  63  91 120 154 205 266 318
#     4   9  17  28  43  63  89 124 164 200 245 308
#     4   8  14  27  50  79 111 149 186 217 257 313
#     4   9  17  31  50  73 101 136 170 219 270 312
#     4  10  21  37  58  84 110 143 184 220 265 324
#     4  10  21  35  54  77  97 124 174 229 280 326
#     4  10  21  40  62  80 102 136 180 236 290 330
#     4   9  17  31  54  86 120 153 183 211 253 310
#
# _framework density 18.866557
#
# number of rings (size 3 to 8) (size 9 to 14) (size 15 to 20)
#    0.000    2.769    0.769    1.846    0.000    4.000 
#    1.385    3.462    0.000    3.692    0.000    0.000 
#    0.000    0.000    0.000    0.000    0.000    0.000 
#
# Total GULP energy -644267.782624 kJ/mol
# GULP energy per Si atom -12389.765050 kJ/mol
# Density = 1.882362 g / cm^3
# Si number density = 18.866557 Si / 1000 Ang^3
#
#
#
# Elastic Constant Matrix: (Units=GPa)
#
#
# Indices 1 2 3 4 5 6 
#
# 1 115.5971 40.3830 48.2394 0.0000 0.0000 0.0000
# 2 40.3830 86.1271 46.3524 0.0000 0.0000 0.0000
# 3 48.2394 46.3524 81.2526 0.0000 0.0000 0.0000
# 4 0.0000 0.0000 0.0000 39.2971 0.0000 0.0000
# 5 0.0000 0.0000 0.0000 0.0000 13.9024 0.0000
# 6 0.0000 0.0000 0.0000 0.0000 0.0000 24.9239
#
#
#
# Elastic Compliance Matrix: (Units=1/GPa)
#
#
# Indices 1 2 3 4 5 6 
#
# 1 0.011879 -0.002560 -0.005592 0.000000 0.000000 0.000000
# 2 -0.002560 0.017307 -0.008353 0.000000 0.000000 0.000000
# 3 -0.005592 -0.008353 0.020392 0.000000 0.000000 0.000000
# 4 0.000000 0.000000 0.000000 0.025447 0.000000 0.000000
# 5 0.000000 0.000000 0.000000 0.000000 0.071930 0.000000
# 6 0.000000 0.000000 0.000000 0.000000 0.000000 0.040122
#
#
# Mechanical properties :
#
#
# Convention : Reuss Voigt Hill
#
# Bulk Modulus (GPa) = 60.35874 61.43626 60.89750
# Shear Modulus (GPa) = 22.16223 25.49148 23.82686
#
# Velocity S-wave (km/s) = 3.43108 3.67978 3.55761
# Velocity P-wave (km/s) = 6.91074 7.11960 7.01595
#
# Compressibility (1/GPa) = 0.01656761
#
# Stress axis : x y z
#
# Youngs Moduli (GPa) = 84.18501 57.78142 49.03821
#
# Poissons Ratio (x) = 0.14793 0.27421
# Poissons Ratio (y) = 0.21553 0.40961
# Poissons Ratio (z) = 0.47074 0.48265
#
# Static dielectric constant tensor:
#      x y z
#    x 3.842570 0.000000 0.000000 
#    y 0.000000 3.536540 0.000000 
#    z 0.000000 0.000000 3.166400 
# 
# 
# High freq. dielectric constant tensor:
#      x y z
#    x 1.738830 0.000000 0.000000 
#    y 0.000000 1.727890 0.000000 
#    z 0.000000 0.000000 1.694400 
# 
# From -- ./inp_files/58058.got.cif
#   From: 2010.06.25/outbox.cif.g09.slc.cpg/sg71_30_cif.got.tgz:58058.got - 2010.06.28 04:59:45.
