data_PCOD8289688
_publ_section_title
;
Structure prediction by ZEFSAII (Michael W. Deem and Ramdas Pophale) SiO2 
 PCOD8289688
Probable space group: I M M M
;
_chemical_formula_sum "Si O2"
_cell_formula_units_Z 88
_cell_length_a 28.039118
_cell_length_b 13.943140
_cell_length_c 12.048402
_cell_angle_alpha 90.000000
_cell_angle_beta 90.000000
_cell_angle_gamma 90.000000
_cell_volume 4710.363097
_symmetry_space_group_name_H-M "I M M M"
_symmetry_group_IT_number 71
_symmetry_cell_setting 'orthorhombic'
loop_
_space_group_symop_operation_xyz
x,y,z
-x,-y,z
x,-y,-z
-x,y,-z
-x,-y,-z
x,y,-z
-x,y,z
x,-y,z
1/2+x,1/2+y,1/2+z
1/2-x,1/2-y,1/2+z
1/2+x,1/2-y,1/2-z
1/2-x,1/2+y,1/2-z
1/2-x,1/2-y,1/2-z
1/2+x,1/2+y,1/2-z
1/2-x,1/2+y,1/2+z
1/2+x,1/2-y,1/2+z
loop_
_atom_site_type_symbol
_atom_site_label
_atom_site_fract_x
_atom_site_fract_y
_atom_site_fract_z
Si Si1 0.368331 0.254433 0.262410
Si Si2 0.095132 0.603150 0.000000
Si Si3 0.215034 0.610856 0.261117
Si Si4 0.308632 0.388759 0.873590
Si Si5 0.747060 0.609779 0.500000
Si Si6 0.149117 0.782189 0.000000
Si Si7 0.554373 0.891523 0.734997
O O1 0.326527 0.177239 0.285378
O O2 0.354829 0.331516 0.169333
O O3 0.376425 0.310822 0.381545
O O4 0.412928 0.193260 0.213758
O O5 0.142635 0.667284 0.000000
O O6 0.060196 0.618653 0.103380
O O7 0.119070 0.500000 0.000000
O O8 0.202719 0.500000 0.235875
O O9 0.263763 0.641633 0.200693
O O10 0.220551 0.628903 0.392727
O O11 0.320655 0.500000 0.860793
O O12 0.297724 0.360429 0.000000
O O13 0.727542 0.500000 0.500000
O O14 0.702810 0.681709 0.500000
O O15 0.500000 0.871517 0.769307
O O16 0.569109 0.000000 0.773965
#
# Coordination Sequence:
#
# PCOD8289688 Si02
#       7
#    16   8  16  16   8   8  16
#     4  11  21  32  53  75 105 135 171 211 252 299
#     4   8  15  28  46  74 108 140 165 197 247 300
#     4  10  21  34  50  74 105 138 173 208 248 300
#     4  10  22  37  53  74 102 137 171 209 253 297
#     4  10  20  34  49  69 101 137 172 208 253 301
#     4  10  20  29  48  76 101 134 174 203 242 298
#     4   9  17  31  51  76 105 134 166 206 254 305
#
# _framework density 18.682212
#
# number of rings (size 3 to 8) (size 9 to 14) (size 15 to 20)
#    0.000    2.182    1.818    1.364    2.545    1.818 
#    0.000    0.000    0.000    1.091    0.000    2.545 
#    0.000    7.273    0.000    0.000    0.000    0.000 
#
# Total GULP energy -545215.400307 kJ/mol
# GULP energy per Si atom -12391.259098 kJ/mol
# Density = 1.863969 g / cm^3
# Si number density = 18.682212 Si / 1000 Ang^3
#
#
#
# Elastic Constant Matrix: (Units=GPa)
#
#
# Indices 1 2 3 4 5 6 
#
# 1 81.0011 41.5874 20.5364 0.0000 0.0000 0.0000
# 2 41.5874 48.4371 27.2331 0.0000 0.0000 0.0000
# 3 20.5364 27.2331 94.4411 0.0000 0.0000 0.0000
# 4 0.0000 0.0000 0.0000 27.2007 0.0000 0.0000
# 5 0.0000 0.0000 0.0000 0.0000 15.3172 0.0000
# 6 0.0000 0.0000 0.0000 0.0000 0.0000 32.0953
#
#
#
# Elastic Compliance Matrix: (Units=1/GPa)
#
#
# Indices 1 2 3 4 5 6 
#
# 1 0.022128 -0.019446 0.000796 0.000000 0.000000 0.000000
# 2 -0.019446 0.041729 -0.007805 0.000000 0.000000 0.000000
# 3 0.000796 -0.007805 0.012666 0.000000 0.000000 0.000000
# 4 0.000000 0.000000 0.000000 0.036764 0.000000 0.000000
# 5 0.000000 0.000000 0.000000 0.000000 0.065286 0.000000
# 6 0.000000 0.000000 0.000000 0.000000 0.000000 0.031157
#
#
# Mechanical properties :
#
#
# Convention : Reuss Voigt Hill
#
# Bulk Modulus (GPa) = 42.34840 44.73257 43.54048
# Shear Modulus (GPa) = 18.48358 23.89080 21.18719
#
# Velocity S-wave (km/s) = 3.14883 3.57991 3.37127
# Velocity P-wave (km/s) = 5.99476 6.40965 6.20567
#
# Compressibility (1/GPa) = 0.02361364
#
# Stress axis : x y z
#
# Youngs Moduli (GPa) = 45.19245 23.96404 78.95086
#
# Poissons Ratio (x) = 0.46600 -0.06282
# Poissons Ratio (y) = 0.87880 0.61618
# Poissons Ratio (z) = -0.03596 0.18703
#
# Static dielectric constant tensor:
#      x y z
#    x 3.112680 0.000000 0.000000 
#    y 0.000000 3.591150 0.000000 
#    z 0.000000 0.000000 3.552970 
# 
# 
# High freq. dielectric constant tensor:
#      x y z
#    x 1.683420 0.000000 0.000000 
#    y 0.000000 1.725670 0.000000 
#    z 0.000000 0.000000 1.724130 
# 
# From -- ./inp_files/29934.got.cif
#   From: 2010.06.25/outbox.cif.g09.slc.cpg/sg71_15_cif.got.tgz:29934.got - 2010.06.28 04:59:45.
