data_PCOD8289810
_publ_section_title
;
Structure prediction by ZEFSAII (Michael W. Deem and Ramdas Pophale) SiO2 
 PCOD8289810
Probable space group: I M M M
;
_chemical_formula_sum "Si O2"
_cell_formula_units_Z 64
_cell_length_a 41.658547
_cell_length_b 9.607885
_cell_length_c 8.144911
_cell_angle_alpha 90.000000
_cell_angle_beta 90.000000
_cell_angle_gamma 90.000000
_cell_volume 3260.004935
_symmetry_space_group_name_H-M "I M M M"
_symmetry_group_IT_number 71
_symmetry_cell_setting 'orthorhombic'
loop_
_space_group_symop_operation_xyz
x,y,z
-x,-y,z
x,-y,-z
-x,y,-z
-x,-y,-z
x,y,-z
-x,y,z
x,-y,z
1/2+x,1/2+y,1/2+z
1/2-x,1/2-y,1/2+z
1/2+x,1/2-y,1/2-z
1/2-x,1/2+y,1/2-z
1/2-x,1/2-y,1/2-z
1/2+x,1/2+y,1/2-z
1/2-x,1/2+y,1/2+z
1/2+x,1/2-y,1/2+z
loop_
_atom_site_type_symbol
_atom_site_label
_atom_site_fract_x
_atom_site_fract_y
_atom_site_fract_z
Si Si1 0.091506 0.155553 0.804662
Si Si2 0.279682 0.842174 0.305384
Si Si3 0.662629 0.343420 0.304749
Si Si4 0.035305 0.655937 0.195355
O O1 0.127023 0.203804 0.746405
O O2 0.063706 0.251481 0.726544
O O3 0.085060 0.000000 0.741668
O O4 0.089936 0.160898 0.000000
O O5 0.280836 0.847826 0.500000
O O6 0.250000 0.750000 0.250000
O O7 0.311655 0.766963 0.234701
O O8 0.277422 0.000000 0.234518
O O9 0.664050 0.345789 0.500000
O O10 0.670272 0.500000 0.239760
O O11 0.040045 0.500000 0.261577
O O12 0.000000 0.711795 0.249268
O O13 0.037574 0.657531 0.000000
#
# Coordination Sequence:
#
# PCOD8289810 Si02
#       4
#    16  16  16  16
#     4   8  13  20  30  44  61  84 116 153 193 234
#     4  10  20  32  47  67  88 112 143 176 213 257
#     4   8  14  25  39  54  74  99 127 163 205 245
#     4   8  13  19  25  35  54  81 113 150 191 231
#
# _framework density 19.631871
#
# number of rings (size 3 to 8) (size 9 to 14) (size 15 to 20)
#    0.000    3.500    0.000    3.000    0.000    3.000 
#    0.000    7.500    0.000    0.000    0.000    0.000 
#    0.000    0.000    0.000    0.000    0.000    1.250 
#
# Total GULP energy -396473.919060 kJ/mol
# GULP energy per Si atom -12389.809971 kJ/mol
# Density = 1.958719 g / cm^3
# Si number density = 19.631871 Si / 1000 Ang^3
#
#
#
# Elastic Constant Matrix: (Units=GPa)
#
#
# Indices 1 2 3 4 5 6 
#
# 1 218.4178 129.5749 1.5906 0.0000 0.0000 0.0000
# 2 129.5749 155.6658 2.7249 0.0000 0.0000 0.0000
# 3 1.5906 2.7249 4.1088 0.0000 0.0000 0.0000
# 4 0.0000 0.0000 0.0000 7.4112 0.0000 0.0000
# 5 0.0000 0.0000 0.0000 0.0000 10.1539 0.0000
# 6 0.0000 0.0000 0.0000 0.0000 0.0000 50.0091
#
#
#
# Elastic Compliance Matrix: (Units=1/GPa)
#
#
# Indices 1 2 3 4 5 6 
#
# 1 0.009054 -0.007563 0.001511 0.000000 0.000000 0.000000
# 2 -0.007563 0.012817 -0.005572 0.000000 0.000000 0.000000
# 3 0.001511 -0.005572 0.246493 0.000001 0.000000 0.000000
# 4 0.000000 0.000000 0.000001 0.134930 0.000000 0.000000
# 5 0.000000 0.000000 0.000000 0.000000 0.098485 0.000000
# 6 0.000000 0.000000 0.000000 0.000000 0.000000 0.019996
#
#
# Mechanical properties :
#
#
# Convention : Reuss Voigt Hill
#
# Bulk Modulus (GPa) = 4.07972 71.77479 37.92726
# Shear Modulus (GPa) = 7.97792 29.80164 18.88978
#
# Velocity S-wave (km/s) = 2.01806 3.90041 3.10530
# Velocity P-wave (km/s) = 2.74094 7.54480 5.67612
#
# Compressibility (1/GPa) = 0.24511513
#
# Stress axis : x y z
#
# Youngs Moduli (GPa) = 110.44774 78.02200 4.05691
#
# Poissons Ratio (x) = 0.59008 -0.00613
# Poissons Ratio (y) = 0.83531 0.02261
# Poissons Ratio (z) = -0.16684 0.43475
#
# Static dielectric constant tensor:
#      x y z
#    x 4.110720 0.000000 0.000000 
#    y 0.000000 3.742750 0.000000 
#    z 0.000000 0.000000 2.802090 
# 
# 
# High freq. dielectric constant tensor:
#      x y z
#    x 1.783060 0.000000 0.000000 
#    y 0.000000 1.762390 0.000000 
#    z 0.000000 0.000000 1.687800 
# 
# From -- ./inp_files/16165.got.cif
#   From: 2010.06.25/outbox.cif.g09.slc.cpg/sg71_9_cif.got.tgz:16165.got - 2010.06.28 04:59:45.
