data_PCOD8289141
_publ_section_title
;
Structure prediction by ZEFSAII (Michael W. Deem and Ramdas Pophale) SiO2 
 PCOD8289141
Probable space group: I M M M
;
_chemical_formula_sum "Si O2"
_cell_formula_units_Z 104
_cell_length_a 23.872054
_cell_length_b 31.662366
_cell_length_c 7.737870
_cell_angle_alpha 90.000000
_cell_angle_beta 90.000000
_cell_angle_gamma 90.000000
_cell_volume 5848.635851
_symmetry_space_group_name_H-M "I M M M"
_symmetry_group_IT_number 71
_symmetry_cell_setting 'orthorhombic'
loop_
_space_group_symop_operation_xyz
x,y,z
-x,-y,z
x,-y,-z
-x,y,-z
-x,-y,-z
x,y,-z
-x,y,z
x,-y,z
1/2+x,1/2+y,1/2+z
1/2-x,1/2-y,1/2+z
1/2+x,1/2-y,1/2-z
1/2-x,1/2+y,1/2-z
1/2-x,1/2-y,1/2-z
1/2+x,1/2+y,1/2-z
1/2-x,1/2+y,1/2+z
1/2+x,1/2-y,1/2+z
loop_
_atom_site_type_symbol
_atom_site_label
_atom_site_fract_x
_atom_site_fract_y
_atom_site_fract_z
Si Si1 0.150078 0.047285 0.704711
Si Si2 0.063097 0.115631 0.705221
Si Si3 0.566449 0.763477 0.000000
Si Si4 0.938132 0.500000 0.795405
Si Si5 0.227048 0.547817 0.700202
Si Si6 0.933037 0.639499 0.500000
Si Si7 0.617725 0.914328 0.301962
Si Si8 0.433484 0.292766 0.308980
O O1 0.148799 0.047025 0.500000
O O2 0.102165 0.078164 0.778289
O O3 0.210149 0.064209 0.768125
O O4 0.139251 0.000000 0.777312
O O5 0.063378 0.116801 0.500000
O O6 0.088088 0.159858 0.773069
O O7 0.000000 0.107856 0.774254
O O8 0.584925 0.811799 0.000000
O O9 0.591346 0.740222 0.169925
O O10 0.500000 0.759900 0.000000
O O11 0.906809 0.541602 0.730396
O O12 0.000000 0.500000 0.714482
O O13 0.940452 0.500000 0.000000
O O14 0.212330 0.548361 0.500000
O O15 0.220784 0.500000 0.775416
O O16 0.184956 0.580296 0.794939
O O17 0.906158 0.621286 0.675352
O O18 0.000000 0.632713 0.500000
O O19 0.599609 0.903936 0.500000
O O20 0.414078 0.278324 0.500000
O O21 0.500000 0.293392 0.293102
#
# Coordination Sequence:
#
# PCOD8289141 Si02
#       8
#    16  16   8   8  16   8  16  16
#     4   9  18  30  46  72 107 144 182 222 261 304
#     4   9  16  28  47  73 109 145 177 217 262 311
#     4   9  18  34  51  72 104 136 167 211 262 315
#     4   9  18  31  49  73 100 135 172 206 250 305
#     4  10  19  33  52  72  97 134 183 230 262 297
#     4  11  24  37  52  79 112 139 169 213 268 327
#     4  11  21  35  54  75 103 140 179 217 260 310
#     4   9  16  28  50  75  99 132 173 214 256 308
#
# _framework density 17.781924
#
# number of rings (size 3 to 8) (size 9 to 14) (size 15 to 20)
#    0.000    2.385    2.308    0.923    0.000    3.385 
#    0.000    3.846    0.000    0.000    0.000    5.385 
#    0.000    0.000    0.000    0.000    0.000    0.000 
#
# Total GULP energy -644673.142294 kJ/mol
# GULP energy per Si atom -12397.560429 kJ/mol
# Density = 1.774145 g / cm^3
# Si number density = 17.781924 Si / 1000 Ang^3
#
#
#
# Elastic Constant Matrix: (Units=GPa)
#
#
# Indices 1 2 3 4 5 6 
#
# 1 86.2548 55.1606 27.1522 0.0000 0.0000 0.0000
# 2 55.1606 129.2114 55.9054 0.0000 0.0000 0.0000
# 3 27.1522 55.9054 87.5299 0.0000 0.0000 0.0000
# 4 0.0000 0.0000 0.0000 14.9815 0.0000 0.0000
# 5 0.0000 0.0000 0.0000 0.0000 17.8881 0.0000
# 6 0.0000 0.0000 0.0000 0.0000 0.0000 7.3789
#
#
#
# Elastic Compliance Matrix: (Units=1/GPa)
#
#
# Indices 1 2 3 4 5 6 
#
# 1 0.015991 -0.006468 -0.000830 0.000000 0.000000 0.000000
# 2 -0.006468 0.013311 -0.006495 0.000000 0.000000 0.000000
# 3 -0.000830 -0.006495 0.015830 0.000000 0.000000 0.000000
# 4 0.000000 0.000000 0.000000 0.066749 0.000000 0.000000
# 5 0.000000 0.000000 0.000000 0.000000 0.055903 0.000000
# 6 0.000000 0.000000 0.000000 0.000000 0.000000 0.135522
#
#
# Mechanical properties :
#
#
# Convention : Reuss Voigt Hill
#
# Bulk Modulus (GPa) = 56.98936 64.38139 60.68537
# Shear Modulus (GPa) = 14.84828 19.03489 16.94158
#
# Velocity S-wave (km/s) = 2.89281 3.27534 3.09000
# Velocity P-wave (km/s) = 6.57848 7.11256 6.85073
#
# Compressibility (1/GPa) = 0.01754714
#
# Stress axis : x y z
#
# Youngs Moduli (GPa) = 62.53620 75.12864 63.16929
#
# Poissons Ratio (x) = 0.48590 0.05240
# Poissons Ratio (y) = 0.40446 0.41029
# Poissons Ratio (z) = 0.05188 0.48797
#
# Static dielectric constant tensor:
#      x y z
#    x 3.192490 0.000000 0.000000 
#    y 0.000000 3.314930 0.000000 
#    z 0.000000 0.000000 3.283240 
# 
# 
# High freq. dielectric constant tensor:
#      x y z
#    x 1.659220 0.000000 0.000000 
#    y 0.000000 1.666120 0.000000 
#    z 0.000000 0.000000 1.694930 
# 
# From -- ./inp_files/13679.got.cif
#   From: 2010.06.25/outbox.cif.g09.slc.cpg/sg71_7_cif.got.tgz:13679.got - 2010.06.28 04:59:45.
