data_PCOD8289527
_publ_section_title
;
Structure prediction by ZEFSAII (Michael W. Deem and Ramdas Pophale) SiO2 
 PCOD8289527
Probable space group: I M M M
;
_chemical_formula_sum "Si O2"
_cell_formula_units_Z 104
_cell_length_a 18.554865
_cell_length_b 24.943230
_cell_length_c 13.505495
_cell_angle_alpha 90.000000
_cell_angle_beta 90.000000
_cell_angle_gamma 90.000000
_cell_volume 6250.589768
_symmetry_space_group_name_H-M "I M M M"
_symmetry_group_IT_number 71
_symmetry_cell_setting 'orthorhombic'
loop_
_space_group_symop_operation_xyz
x,y,z
-x,-y,z
x,-y,-z
-x,y,-z
-x,-y,-z
x,y,-z
-x,y,z
x,-y,z
1/2+x,1/2+y,1/2+z
1/2-x,1/2-y,1/2+z
1/2+x,1/2-y,1/2-z
1/2-x,1/2+y,1/2-z
1/2-x,1/2-y,1/2-z
1/2+x,1/2+y,1/2-z
1/2-x,1/2+y,1/2+z
1/2+x,1/2-y,1/2+z
loop_
_atom_site_type_symbol
_atom_site_label
_atom_site_fract_x
_atom_site_fract_y
_atom_site_fract_z
Si Si1 0.177561 0.202167 0.888707
Si Si2 0.690102 0.362985 0.202302
Si Si3 0.915733 0.288294 0.791135
Si Si4 0.919484 0.937584 0.388013
Si Si5 0.331215 0.748713 0.888645
Si Si6 0.844995 0.610326 0.117831
Si Si7 0.581175 0.000000 0.382795
O O1 0.189116 0.150981 0.818633
O O2 0.109482 0.238117 0.857650
O O3 0.246634 0.240252 0.878070
O O4 0.167056 0.180809 0.000000
O O5 0.634861 0.411201 0.188606
O O6 0.659715 0.313349 0.138763
O O7 0.768565 0.381545 0.169322
O O8 0.876229 0.286833 0.684527
O O9 0.899624 0.343728 0.846842
O O10 0.000000 0.282902 0.772926
O O11 0.893569 0.926004 0.500000
O O12 0.000000 0.914708 0.372173
O O13 0.918951 0.000000 0.365862
O O14 0.358982 0.759204 0.000000
O O15 0.876530 0.553057 0.152773
O O16 0.835829 0.613417 0.000000
O O17 0.500000 0.000000 0.338286
O O18 0.576180 0.000000 0.500000
#
# Coordination Sequence:
#
# PCOD8289527 Si02
#       7
#    16  16  16  16  16  16   8
#     4  10  20  36  53  71 102 138 171 207 248 295
#     4  11  19  32  53  79  99 131 171 209 250 299
#     4  11  21  33  51  77 105 136 171 203 248 305
#     4   9  19  34  51  75 106 135 163 202 255 307
#     4  10  19  35  53  72 104 137 169 209 250 293
#     4  11  20  32  50  75 104 134 169 204 248 303
#     4   9  20  34  46  68 104 138 164 201 250 298
#
# _framework density 16.638428999999999
#
# number of rings (size 3 to 8) (size 9 to 14) (size 15 to 20)
#    0.000    1.769    3.077    3.692    1.077    4.615 
#    0.000    0.000    0.000    0.462    0.000    2.692 
#    0.000    3.692    0.000    0.000    0.000    0.000 
#
# Total GULP energy -644879.463111 kJ/mol
# GULP energy per Si atom -12401.528137 kJ/mol
# Density = 1.660056 g / cm^3
# Si number density = 16.638429 Si / 1000 Ang^3
#
#
#
# Elastic Constant Matrix: (Units=GPa)
#
#
# Indices 1 2 3 4 5 6 
#
# 1 81.8400 36.2137 32.1617 0.0000 0.0000 0.0000
# 2 36.2137 75.7277 37.8886 0.0000 0.0000 0.0000
# 3 32.1617 37.8886 113.9876 0.0000 0.0000 0.0000
# 4 0.0000 0.0000 0.0000 23.3275 0.0000 0.0000
# 5 0.0000 0.0000 0.0000 0.0000 19.2552 0.0000
# 6 0.0000 0.0000 0.0000 0.0000 0.0000 27.6848
#
#
#
# Elastic Compliance Matrix: (Units=1/GPa)
#
#
# Indices 1 2 3 4 5 6 
#
# 1 0.016014 -0.006474 -0.002366 0.000000 0.000000 0.000000
# 2 -0.006474 0.018457 -0.004308 0.000000 0.000000 0.000000
# 3 -0.002366 -0.004308 0.010873 0.000000 0.000000 0.000000
# 4 0.000000 0.000000 0.000000 0.042868 0.000000 0.000000
# 5 0.000000 0.000000 0.000000 0.000000 0.051934 0.000000
# 6 0.000000 0.000000 0.000000 0.000000 0.000000 0.036121
#
#
# Mechanical properties :
#
#
# Convention : Reuss Voigt Hill
#
# Bulk Modulus (GPa) = 52.50503 53.78703 53.14603
# Shear Modulus (GPa) = 23.93362 25.07291 24.50327
#
# Velocity S-wave (km/s) = 3.79681 3.88613 3.84173
# Velocity P-wave (km/s) = 7.13064 7.24798 7.18955
#
# Compressibility (1/GPa) = 0.01904579
#
# Stress axis : x y z
#
# Youngs Moduli (GPa) = 62.44708 54.18118 91.97455
#
# Poissons Ratio (x) = 0.35076 0.21765
# Poissons Ratio (y) = 0.40427 0.39625
# Poissons Ratio (z) = 0.14777 0.23342
#
# Static dielectric constant tensor:
#      x y z
#    x 3.152170 0.000000 0.000000 
#    y 0.000000 3.068580 0.000000 
#    z 0.000000 0.000000 3.149280 
# 
# 
# High freq. dielectric constant tensor:
#      x y z
#    x 1.647520 0.000000 0.000000 
#    y 0.000000 1.629600 0.000000 
#    z 0.000000 0.000000 1.626830 
# 
# From -- ./inp_files/36936.got.cif
#   From: 2010.06.25/outbox.cif.g09.slc.cpg/sg71_19_cif.got.tgz:36936.got - 2010.06.28 04:59:45.
