data_PCOD8289861
_publ_section_title
;
Structure prediction by ZEFSAII (Michael W. Deem and Ramdas Pophale) SiO2 
 PCOD8289861
Probable space group: I M M M
;
_chemical_formula_sum "Si O2"
_cell_formula_units_Z 96
_cell_length_a 18.762617
_cell_length_b 31.037534
_cell_length_c 9.289721
_cell_angle_alpha 90.000000
_cell_angle_beta 90.000000
_cell_angle_gamma 90.000000
_cell_volume 5409.825949
_symmetry_space_group_name_H-M "I M M M"
_symmetry_group_IT_number 71
_symmetry_cell_setting 'orthorhombic'
loop_
_space_group_symop_operation_xyz
x,y,z
-x,-y,z
x,-y,-z
-x,y,-z
-x,-y,-z
x,y,-z
-x,y,z
x,-y,z
1/2+x,1/2+y,1/2+z
1/2-x,1/2-y,1/2+z
1/2+x,1/2-y,1/2-z
1/2-x,1/2+y,1/2-z
1/2-x,1/2-y,1/2-z
1/2+x,1/2+y,1/2-z
1/2-x,1/2+y,1/2+z
1/2+x,1/2-y,1/2+z
loop_
_atom_site_type_symbol
_atom_site_label
_atom_site_fract_x
_atom_site_fract_y
_atom_site_fract_z
Si Si1 0.164782 0.704998 0.667658
Si Si2 0.915257 0.046994 0.662093
Si Si3 0.584596 0.952340 0.161742
Si Si4 0.418105 0.372281 0.332023
Si Si5 0.915530 0.370013 0.166421
Si Si6 0.169699 0.790448 0.833315
O O1 0.144042 0.705562 0.500000
O O2 0.121473 0.667884 0.746236
O O3 0.143884 0.750484 0.737930
O O4 0.248371 0.697246 0.691261
O O5 0.888889 0.054782 0.500000
O O6 0.884071 0.085182 0.759734
O O7 0.000000 0.047612 0.669658
O O8 0.888080 0.000000 0.716642
O O9 0.500000 0.952568 0.162835
O O10 0.612484 0.915701 0.270679
O O11 0.612119 0.000000 0.209782
O O12 0.611850 0.941970 0.000000
O O13 0.408689 0.378947 0.500000
O O14 0.500000 0.365712 0.287400
O O15 0.375702 0.330777 0.277830
O O16 0.000000 0.365251 0.185777
O O17 0.893090 0.367529 0.000000
O O18 0.154353 0.779438 0.000000
#
# Coordination Sequence:
#
# PCOD8289861 Si02
#       6
#    16  16  16  16  16  16
#     4  10  20  34  52  70  91 124 163 199 234 280
#     4   8  14  25  41  63  93 125 153 184 224 268
#     4   8  14  26  45  69  97 127 157 190 230 279
#     4   9  17  29  47  71  96 121 150 187 230 274
#     4  10  20  32  48  72 100 127 156 196 243 285
#     4   9  19  35  51  69  95 125 158 194 236 286
#
# _framework density 17.745488000000002
#
# number of rings (size 3 to 8) (size 9 to 14) (size 15 to 20)
#    0.000    3.000    0.000    2.000    0.000    3.667 
#    0.000    5.000    0.000    1.000    0.000    2.333 
#    0.000    0.000    0.000    0.000    0.000    0.000 
#
# Total GULP energy -595023.947841 kJ/mol
# GULP energy per Si atom -12396.332247 kJ/mol
# Density = 1.770510 g / cm^3
# Si number density = 17.745488 Si / 1000 Ang^3
#
#
#
# Elastic Constant Matrix: (Units=GPa)
#
#
# Indices 1 2 3 4 5 6 
#
# 1 29.5610 51.2484 32.0825 0.0009 0.0003 0.0005
# 2 51.2484 195.8754 97.4647 0.0016 0.0006 -0.0001
# 3 32.0825 97.4647 107.5864 0.0141 0.0054 -0.0011
# 4 0.0009 0.0016 0.0141 41.8398 0.0023 0.0001
# 5 0.0003 0.0006 0.0054 0.0023 19.1672 -0.0001
# 6 0.0005 -0.0001 -0.0011 0.0001 -0.0001 -4.2658
#
#
#
# Elastic Compliance Matrix: (Units=1/GPa)
#
#
# Indices 1 2 3 4 5 6 
#
# 1 0.064854 -0.013373 -0.007224 0.000002 0.000001 0.000010
# 2 -0.013373 0.012053 -0.006931 0.000002 0.000002 0.000000
# 3 -0.007224 -0.006931 0.017728 -0.000006 -0.000005 -0.000005
# 4 0.000002 0.000002 -0.000006 0.023901 -0.000003 0.000000
# 5 0.000001 0.000002 -0.000005 -0.000003 0.052172 -0.000001
# 6 0.000010 0.000000 -0.000005 0.000000 -0.000001 -0.234423
#
#
# Mechanical properties :
#
#
# Convention : Reuss Voigt Hill
#
# Bulk Modulus (GPa) = 25.26705 77.17934 51.22319
# Shear Modulus (GPa) = 1102.47167 21.49673 561.98420
#
# Velocity S-wave (km/s) = 24.95230 3.48428 17.81513
# Velocity P-wave (km/s) = 29.05901 7.73135 21.26264
#
# Compressibility (1/GPa) = 0.03957724
#
# Stress axis : x y z
#
# Youngs Moduli (GPa) = 15.41935 82.96590 56.40717
#
# Poissons Ratio (x) = 1.10954 0.40750
# Poissons Ratio (y) = 0.20621 0.39097
# Poissons Ratio (z) = 0.11139 0.57505
#
# Static dielectric constant tensor:
#      x y z
#    x 2.918530 0.000000 -0.000010 
#    y 0.000000 3.709590 -0.000010 
#    z -0.000010 -0.000010 3.382890 
# 
# 
# High freq. dielectric constant tensor:
#      x y z
#    x 1.640210 0.000000 0.000000 
#    y 0.000000 1.704060 0.000000 
#    z 0.000000 0.000000 1.688170 
# 
# From -- ./inp_files/12840.got.cif
#   From: 2010.06.25/outbox.cif.g09.slc.cpg/sg71_7_cif.got.tgz:12840.got - 2010.06.28 04:59:45.
