data_PCOD8289166
_publ_section_title
;
Structure prediction by ZEFSAII (Michael W. Deem and Ramdas Pophale) SiO2 
 PCOD8289166
Probable space group: I M M M
;
_chemical_formula_sum "Si O2"
_cell_formula_units_Z 104
_cell_length_a 18.854053
_cell_length_b 9.636043
_cell_length_c 32.923906
_cell_angle_alpha 90.000000
_cell_angle_beta 90.000000
_cell_angle_gamma 90.000000
_cell_volume 5981.564718
_symmetry_space_group_name_H-M "I M M M"
_symmetry_group_IT_number 71
_symmetry_cell_setting 'orthorhombic'
loop_
_space_group_symop_operation_xyz
x,y,z
-x,-y,z
x,-y,-z
-x,y,-z
-x,-y,-z
x,y,-z
-x,y,z
x,-y,z
1/2+x,1/2+y,1/2+z
1/2-x,1/2-y,1/2+z
1/2+x,1/2-y,1/2-z
1/2-x,1/2+y,1/2-z
1/2-x,1/2-y,1/2-z
1/2+x,1/2+y,1/2-z
1/2-x,1/2+y,1/2+z
1/2+x,1/2-y,1/2+z
loop_
_atom_site_type_symbol
_atom_site_label
_atom_site_fract_x
_atom_site_fract_y
_atom_site_fract_z
Si Si1 0.839990 0.835865 0.124172
Si Si2 0.579689 0.664545 0.544927
Si Si3 0.582081 0.159519 0.308467
Si Si4 0.917270 0.160701 0.500000
Si Si5 0.320147 0.839680 0.143686
Si Si6 0.583585 0.662129 0.087235
Si Si7 0.814914 0.341775 0.263137
O O1 0.865994 0.784036 0.079665
O O2 0.886193 0.759108 0.157667
O O3 0.758373 0.793790 0.129969
O O4 0.851213 0.000000 0.130014
O O5 0.603505 0.718722 0.500000
O O6 0.500000 0.718861 0.554654
O O7 0.578874 0.500000 0.544402
O O8 0.500000 0.194515 0.303246
O O9 0.617625 0.190502 0.264977
O O10 0.594492 0.000000 0.321592
O O11 0.888131 0.219612 0.457026
O O12 0.000000 0.187068 0.500000
O O13 0.900245 0.000000 0.500000
O O14 0.377534 0.748265 0.121230
O O15 0.334304 0.808117 0.190691
O O16 0.332783 0.000000 0.133027
O O17 0.500000 0.686935 0.091590
O O18 0.601473 0.500000 0.092284
O O19 0.789864 0.500000 0.258893
O O20 0.750000 0.250000 0.250000
#
# Coordination Sequence:
#
# PCOD8289166 Si02
#       7
#    16  16  16   8  16  16  16
#     4  10  19  33  52  76 104 134 172 212 251 297
#     4   8  14  26  46  71  98 131 169 206 247 294
#     4  10  21  35  53  78 103 132 171 211 255 304
#     4   7  12  28  53  75  97 129 170 215 256 297
#     4  10  21  34  50  77 108 138 169 208 264 317
#     4   9  18  34  56  79 102 134 178 220 257 304
#     4  10  20  36  55  73 100 138 174 209 253 309
#
# _framework density 17.386755000000001
#
# number of rings (size 3 to 8) (size 9 to 14) (size 15 to 20)
#    0.000    2.692    1.538    1.846    0.000    3.077 
#    1.385    1.923    0.000    1.846    0.000    2.154 
#    0.000    0.000    0.000    0.000    0.000    0.000 
#
# Total GULP energy -644476.643048 kJ/mol
# GULP energy per Si atom -12393.781597 kJ/mol
# Density = 1.734718 g / cm^3
# Si number density = 17.386755 Si / 1000 Ang^3
#
#
#
# Elastic Constant Matrix: (Units=GPa)
#
#
# Indices 1 2 3 4 5 6 
#
# 1 93.9435 45.4030 74.2420 0.0000 0.0000 0.0000
# 2 45.4030 50.6947 55.0503 0.0000 0.0000 0.0000
# 3 74.2420 55.0503 163.5257 0.0000 0.0000 0.0000
# 4 0.0000 0.0000 0.0000 25.0491 0.0000 0.0000
# 5 0.0000 0.0000 0.0000 0.0000 33.3658 0.0000
# 6 0.0000 0.0000 0.0000 0.0000 0.0000 23.4134
#
#
#
# Elastic Compliance Matrix: (Units=1/GPa)
#
#
# Indices 1 2 3 4 5 6 
#
# 1 0.021148 -0.013420 -0.005084 0.000000 0.000000 0.000000
# 2 -0.013420 0.039609 -0.007241 0.000000 0.000000 0.000000
# 3 -0.005084 -0.007241 0.010861 0.000000 0.000000 0.000000
# 4 0.000000 0.000000 0.000000 0.039922 0.000000 0.000000
# 5 0.000000 0.000000 0.000000 0.000000 0.029971 0.000000
# 6 0.000000 0.000000 0.000000 0.000000 0.000000 0.042711
#
#
# Mechanical properties :
#
#
# Convention : Reuss Voigt Hill
#
# Bulk Modulus (GPa) = 49.68274 73.06162 61.37218
# Shear Modulus (GPa) = 20.62533 25.26356 22.94445
#
# Velocity S-wave (km/s) = 3.44796 3.81600 3.63664
# Velocity P-wave (km/s) = 6.66996 7.84401 7.28069
#
# Compressibility (1/GPa) = 0.02012771
#
# Stress axis : x y z
#
# Youngs Moduli (GPa) = 47.28528 25.24695 92.07315
#
# Poissons Ratio (x) = 0.33882 0.46806
# Poissons Ratio (y) = 0.63459 0.66672
# Poissons Ratio (z) = 0.24038 0.18282
#
# Static dielectric constant tensor:
#      x y z
#    x 3.201830 0.000000 0.000000 
#    y 0.000000 3.092640 0.000000 
#    z 0.000000 0.000000 3.706780 
# 
# 
# High freq. dielectric constant tensor:
#      x y z
#    x 1.662700 0.000000 0.000000 
#    y 0.000000 1.645410 0.000000 
#    z 0.000000 0.000000 1.690850 
# 
# From -- ./inp_files/70738.got.cif
#   From: 2010.06.25/outbox.cif.g09.slc.cpg/sg71_36_cif.got.tgz:70738.got - 2010.06.28 04:59:45.
