data_PCOD8289702
_publ_section_title
;
Structure prediction by ZEFSAII (Michael W. Deem and Ramdas Pophale) SiO2 
 PCOD8289702
Probable space group: I M M M
;
_chemical_formula_sum "Si O2"
_cell_formula_units_Z 88
_cell_length_a 16.844310
_cell_length_b 12.819133
_cell_length_c 25.553169
_cell_angle_alpha 90.000000
_cell_angle_beta 90.000000
_cell_angle_gamma 90.000000
_cell_volume 5517.681733
_symmetry_space_group_name_H-M "I M M M"
_symmetry_group_IT_number 71
_symmetry_cell_setting 'orthorhombic'
loop_
_space_group_symop_operation_xyz
x,y,z
-x,-y,z
x,-y,-z
-x,y,-z
-x,-y,-z
x,y,-z
-x,y,z
x,-y,z
1/2+x,1/2+y,1/2+z
1/2-x,1/2-y,1/2+z
1/2+x,1/2-y,1/2-z
1/2-x,1/2+y,1/2-z
1/2-x,1/2-y,1/2-z
1/2+x,1/2+y,1/2-z
1/2-x,1/2+y,1/2+z
1/2+x,1/2-y,1/2+z
loop_
_atom_site_type_symbol
_atom_site_label
_atom_site_fract_x
_atom_site_fract_y
_atom_site_fract_z
Si Si1 0.145475 0.246913 0.404272
Si Si2 0.587512 0.876467 0.693629
Si Si3 0.093237 0.380453 0.688881
Si Si4 0.588227 0.123140 0.500000
Si Si5 0.692429 0.875942 0.597995
Si Si6 0.000000 0.877461 0.560160
Si Si7 0.906399 0.621613 0.500000
O O1 0.142499 0.304955 0.348738
O O2 0.226845 0.185518 0.409977
O O3 0.135981 0.332839 0.449078
O O4 0.076636 0.161822 0.409104
O O5 0.500000 0.830371 0.680184
O O6 0.612630 0.842922 0.752115
O O7 0.652254 0.837534 0.652032
O O8 0.581102 0.000000 0.691087
O O9 0.120276 0.500000 0.680319
O O10 0.000000 0.370488 0.676526
O O11 0.500000 0.173118 0.500000
O O12 0.634535 0.159498 0.448485
O O13 0.580424 0.000000 0.500000
O O14 0.708748 0.000000 0.597269
O O15 0.000000 0.836963 0.500000
O O16 0.000000 0.000000 0.561701
O O17 0.890550 0.500000 0.500000
O O18 0.000000 0.647016 0.500000
#
# Coordination Sequence:
#
# PCOD8289702 Si02
#       7
#    16  16  16   8  16   8   8
#     4  12  19  32  46  69  97 126 162 193 233 280
#     4   8  15  30  49  69  94 124 155 195 247 288
#     4   9  17  30  50  70  91 122 162 205 243 280
#     4   9  17  30  48  67  89 121 152 186 232 279
#     4  10  20  30  45  70 101 128 154 189 231 285
#     4  11  22  34  46  62  94 140 170 185 216 281
#     4  11  21  34  50  68  90 118 157 204 244 273
#
# _framework density 15.948727
#
# number of rings (size 3 to 8) (size 9 to 14) (size 15 to 20)
#    0.000    2.091    2.727    3.273    0.000    4.364 
#    0.000    0.000    0.000    0.000    0.000    0.000 
#    0.000   26.909    0.000    0.000    0.000    0.000 
#
# Total GULP energy -545536.346396 kJ/mol
# GULP energy per Si atom -12398.553327 kJ/mol
# Density = 1.591243 g / cm^3
# Si number density = 15.948727 Si / 1000 Ang^3
#
#
#
# Elastic Constant Matrix: (Units=GPa)
#
#
# Indices 1 2 3 4 5 6 
#
# 1 127.9007 45.6525 66.6480 0.0000 0.0000 0.0000
# 2 45.6525 63.9509 41.2170 0.0000 0.0000 0.0000
# 3 66.6480 41.2170 125.4713 0.0000 0.0000 0.0000
# 4 0.0000 0.0000 0.0000 -52.2887 0.0000 0.0000
# 5 0.0000 0.0000 0.0000 0.0000 -629.8041 0.0000
# 6 0.0000 0.0000 0.0000 0.0000 0.0000 -16.3204
#
#
#
# Elastic Compliance Matrix: (Units=1/GPa)
#
#
# Indices 1 2 3 4 5 6 
#
# 1 0.012300 -0.005797 -0.004629 0.000000 0.000000 0.000000
# 2 -0.005797 0.022569 -0.004335 0.000000 0.000000 0.000000
# 3 -0.004629 -0.004335 0.011853 0.000000 0.000000 0.000000
# 4 0.000000 0.000000 0.000000 -0.019125 0.000000 0.000000
# 5 0.000000 0.000000 0.000000 0.000000 -0.001588 0.000000
# 6 0.000000 0.000000 0.000000 0.000000 0.000000 -0.061273
#
#
# Mechanical properties :
#
#
# Convention : Reuss Voigt Hill
#
# Bulk Modulus (GPa) = 58.13906 69.37310 63.75608
# Shear Modulus (GPa) = -582771.19040 -128.76228 -291449.97634
#
# Velocity S-wave (km/s) = -605.14147 -8.99502 -427.94691
# Velocity P-wave (km/s) = 698.73104 8.01801 494.10998
#
# Compressibility (1/GPa) = 0.01720014
#
# Stress axis : x y z
#
# Youngs Moduli (GPa) = 81.30103 44.30867 84.36810
#
# Poissons Ratio (x) = 0.25686 0.39056
# Poissons Ratio (y) = 0.47130 0.36570
# Poissons Ratio (z) = 0.37636 0.19206
#
# Static dielectric constant tensor:
#      x y z
#    x 3.037210 0.000000 0.000000 
#    y 0.000000 2.741300 0.000000 
#    z 0.000000 0.000000 3.297200 
# 
# 
# High freq. dielectric constant tensor:
#      x y z
#    x 1.604230 0.000000 0.000000 
#    y 0.000000 1.579740 0.000000 
#    z 0.000000 0.000000 1.627650 
# 
# From -- ./inp_files/59799.got.cif
#   From: 2010.06.25/outbox.cif.g09.slc.cpg/sg71_30_cif.got.tgz:59799.got - 2010.06.28 04:59:45.
