data_PCOD8289012
_publ_section_title
;
Structure prediction by ZEFSAII (Michael W. Deem and Ramdas Pophale) SiO2 
 PCOD8289012
Probable space group: I M M M
;
_chemical_formula_sum "Si O2"
_cell_formula_units_Z 80
_cell_length_a 28.763155
_cell_length_b 13.590433
_cell_length_c 10.638165
_cell_angle_alpha 90.000000
_cell_angle_beta 90.000000
_cell_angle_gamma 90.000000
_cell_volume 4158.498388
_symmetry_space_group_name_H-M "I M M M"
_symmetry_group_IT_number 71
_symmetry_cell_setting 'orthorhombic'
loop_
_space_group_symop_operation_xyz
x,y,z
-x,-y,z
x,-y,-z
-x,y,-z
-x,-y,-z
x,y,-z
-x,y,z
x,-y,z
1/2+x,1/2+y,1/2+z
1/2-x,1/2-y,1/2+z
1/2+x,1/2-y,1/2-z
1/2-x,1/2+y,1/2-z
1/2-x,1/2-y,1/2-z
1/2+x,1/2+y,1/2-z
1/2-x,1/2+y,1/2+z
1/2+x,1/2-y,1/2+z
loop_
_atom_site_type_symbol
_atom_site_label
_atom_site_fract_x
_atom_site_fract_y
_atom_site_fract_z
Si Si1 0.783897 0.611011 0.782161
Si Si2 0.401582 0.384969 0.643269
Si Si3 0.446737 0.274350 0.855160
Si Si4 0.697830 0.316625 0.636784
Si Si5 0.622291 0.893084 0.852637
O O1 0.787283 0.500000 0.840676
O O2 0.733207 0.623284 0.722670
O O3 0.790260 0.700144 0.879909
O O4 0.824298 0.630492 0.680294
O O5 0.416536 0.352779 0.500000
O O6 0.392801 0.500000 0.645459
O O7 0.439548 0.360179 0.751342
O O8 0.354359 0.330641 0.687469
O O9 0.500000 0.240175 0.851631
O O10 0.414844 0.185611 0.803182
O O11 0.433887 0.306416 0.000000
O O12 0.700927 0.365426 0.500000
O O13 0.608695 0.000000 0.795784
O O14 0.618559 0.895500 0.000000
#
# Coordination Sequence:
#
# PCOD8289012 Si02
#       5
#    16  16  16  16  16
#     4  10  19  32  53  80 108 139 177 219 263 316
#     4  10  21  38  58  80 109 146 186 226 273 331
#     4  10  21  37  57  82 111 141 180 233 284 326
#     4  10  20  34  53  78 110 145 179 218 266 321
#     4   9  17  31  53  80 109 141 176 215 264 323
#
# _framework density 19.237715000000001
#
# number of rings (size 3 to 8) (size 9 to 14) (size 15 to 20)
#    0.000    2.200    2.000    1.200    0.000    4.000 
#    0.000    4.000    0.000    3.000    0.000    1.400 
#    0.000    0.000    0.000    0.000    0.000    0.000 
#
# Total GULP energy -495563.650334 kJ/mol
# GULP energy per Si atom -12389.091258 kJ/mol
# Density = 1.919393 g / cm^3
# Si number density = 19.237715 Si / 1000 Ang^3
#
#
#
# Elastic Constant Matrix: (Units=GPa)
#
#
# Indices 1 2 3 4 5 6 
#
# 1 87.6615 23.9665 33.9658 0.0000 0.0000 0.0000
# 2 23.9665 75.7778 26.4772 0.0000 0.0000 0.0000
# 3 33.9658 26.4772 69.2861 0.0000 0.0000 0.0000
# 4 0.0000 0.0000 0.0000 19.3032 0.0000 0.0000
# 5 0.0000 0.0000 0.0000 0.0000 21.2554 0.0000
# 6 0.0000 0.0000 0.0000 0.0000 0.0000 22.7199
#
#
#
# Elastic Compliance Matrix: (Units=1/GPa)
#
#
# Indices 1 2 3 4 5 6 
#
# 1 0.014457 -0.002419 -0.006163 0.000000 0.000000 0.000000
# 2 -0.002419 0.015635 -0.004789 0.000000 0.000000 0.000000
# 3 -0.006163 -0.004789 0.019284 0.000000 0.000000 0.000000
# 4 0.000000 0.000000 0.000000 0.051805 0.000000 0.000000
# 5 0.000000 0.000000 0.000000 0.000000 0.047047 0.000000
# 6 0.000000 0.000000 0.000000 0.000000 0.000000 0.044014
#
#
# Mechanical properties :
#
#
# Convention : Reuss Voigt Hill
#
# Bulk Modulus (GPa) = 44.18037 44.61606 44.39821
# Shear Modulus (GPa) = 22.07237 22.54340 22.30789
#
# Velocity S-wave (km/s) = 3.39093 3.42692 3.40897
# Velocity P-wave (km/s) = 6.19246 6.23704 6.21479
#
# Compressibility (1/GPa) = 0.02263449
#
# Stress axis : x y z
#
# Youngs Moduli (GPa) = 69.17217 63.95981 51.85639
#
# Poissons Ratio (x) = 0.15472 0.31957
# Poissons Ratio (y) = 0.16733 0.24833
# Poissons Ratio (z) = 0.42628 0.30630
#
# Static dielectric constant tensor:
#      x y z
#    x 3.447190 0.000000 0.000000 
#    y 0.000000 3.786800 0.000000 
#    z 0.000000 0.000000 3.334460 
# 
# 
# High freq. dielectric constant tensor:
#      x y z
#    x 1.745440 0.000000 0.000000 
#    y 0.000000 1.751320 0.000000 
#    z 0.000000 0.000000 1.728130 
# 
# From -- ./inp_files/20105.got.cif
#   From: 2010.06.25/outbox.cif.g09.slc.cpg/sg71_11_cif.got.tgz:20105.got - 2010.06.28 04:59:45.
