data_PCOD8289346
_publ_section_title
;
Structure prediction by ZEFSAII (Michael W. Deem and Ramdas Pophale) SiO2 
 PCOD8289346
Probable space group: I M M M
;
_chemical_formula_sum "Si O2"
_cell_formula_units_Z 80
_cell_length_a 24.959995
_cell_length_b 18.811040
_cell_length_c 8.512301
_cell_angle_alpha 90.000000
_cell_angle_beta 90.000000
_cell_angle_gamma 90.000000
_cell_volume 3996.725055
_symmetry_space_group_name_H-M "I M M M"
_symmetry_group_IT_number 71
_symmetry_cell_setting 'orthorhombic'
loop_
_space_group_symop_operation_xyz
x,y,z
-x,-y,z
x,-y,-z
-x,y,-z
-x,-y,-z
x,y,-z
-x,y,z
x,-y,z
1/2+x,1/2+y,1/2+z
1/2-x,1/2-y,1/2+z
1/2+x,1/2-y,1/2-z
1/2-x,1/2+y,1/2-z
1/2-x,1/2-y,1/2-z
1/2+x,1/2+y,1/2-z
1/2-x,1/2+y,1/2+z
1/2+x,1/2-y,1/2+z
loop_
_atom_site_type_symbol
_atom_site_label
_atom_site_fract_x
_atom_site_fract_y
_atom_site_fract_z
Si Si1 0.261102 0.644808 0.316700
Si Si2 0.939866 0.078993 0.313600
Si Si3 0.864134 0.796201 0.685221
Si Si4 0.734285 0.500000 0.824826
Si Si5 0.361550 0.000000 0.326643
Si Si6 0.644681 0.152575 0.314106
O O1 0.248019 0.649498 0.500000
O O2 0.306087 0.701343 0.267402
O O3 0.285948 0.568439 0.269975
O O4 0.207575 0.659734 0.220372
O O5 0.940842 0.084310 0.500000
O O6 0.902333 0.141736 0.245701
O O7 0.000000 0.090606 0.248310
O O8 0.919173 0.000000 0.262933
O O9 0.857632 0.803201 0.500000
O O10 0.886970 0.717849 0.731522
O O11 0.797797 0.500000 0.837919
O O12 0.708527 0.500000 0.000000
O O13 0.377569 0.924246 0.245634
O O14 0.386828 0.000000 0.500000
O O15 0.635767 0.154979 0.500000
#
# Coordination Sequence:
#
# PCOD8289346 Si02
#       6
#    16  16  16   8   8  16
#     4  11  21  32  46  69 102 138 175 215 253 299
#     4   8  16  33  55  77 100 130 172 218 261 310
#     4  11  21  31  49  76 102 130 167 212 264 315
#     4   9  17  31  47  65  92 131 174 209 249 296
#     4   7  14  29  49  65  84 123 166 200 237 284
#     4  10  19  34  51  70  99 135 174 214 255 304
#
# _framework density 20.016387000000002
#
# number of rings (size 3 to 8) (size 9 to 14) (size 15 to 20)
#    0.000    2.400    0.000    5.700    1.400    0.000 
#    0.000    1.500    0.000    2.400    0.000    6.300 
#    0.000    5.600    0.000    0.000    0.000    0.000 
#
# Total GULP energy -495612.383501 kJ/mol
# GULP energy per Si atom -12390.309588 kJ/mol
# Density = 1.997083 g / cm^3
# Si number density = 20.016387 Si / 1000 Ang^3
#
#
#
# Elastic Constant Matrix: (Units=GPa)
#
#
# Indices 1 2 3 4 5 6 
#
# 1 34.9366 38.2196 1.0833 0.0000 0.0000 0.0000
# 2 38.2196 194.8017 12.9970 0.0000 0.0000 0.0000
# 3 1.0833 12.9970 49.6100 0.0000 0.0000 0.0000
# 4 0.0000 0.0000 0.0000 33.9963 0.0000 0.0000
# 5 0.0000 0.0000 0.0000 0.0000 7.9711 0.0000
# 6 0.0000 0.0000 0.0000 0.0000 0.0000 23.6532
#
#
#
# Elastic Compliance Matrix: (Units=1/GPa)
#
#
# Indices 1 2 3 4 5 6 
#
# 1 0.036505 -0.007235 0.001098 0.000000 0.000000 0.000000
# 2 -0.007235 0.006659 -0.001587 0.000000 0.000000 0.000000
# 3 0.001098 -0.001587 0.020549 0.000000 0.000000 0.000000
# 4 0.000000 0.000000 0.000000 0.029415 0.000000 0.000000
# 5 0.000000 0.000000 0.000000 0.000000 0.125453 0.000000
# 6 0.000000 0.000000 0.000000 0.000000 0.000000 0.042278
#
#
# Mechanical properties :
#
#
# Convention : Reuss Voigt Hill
#
# Bulk Modulus (GPa) = 20.71881 42.66090 31.68985
# Shear Modulus (GPa) = 17.10026 28.26067 22.68046
#
# Velocity S-wave (km/s) = 2.92603 3.76157 3.36980
# Velocity P-wave (km/s) = 4.66786 6.34233 5.56840
#
# Compressibility (1/GPa) = 0.04826533
#
# Stress axis : x y z
#
# Youngs Moduli (GPa) = 27.39385 150.17627 48.66447
#
# Poissons Ratio (x) = 1.08658 -0.05345
# Poissons Ratio (y) = 0.19821 0.07721
# Poissons Ratio (z) = -0.03009 0.23826
#
# Static dielectric constant tensor:
#      x y z
#    x 3.192330 0.000000 0.000000 
#    y 0.000000 4.662590 0.000000 
#    z 0.000000 0.000000 3.293330 
# 
# 
# High freq. dielectric constant tensor:
#      x y z
#    x 1.711920 0.000000 0.000000 
#    y 0.000000 1.818110 0.000000 
#    z 0.000000 0.000000 1.750370 
# 
# From -- ./inp_files/16556.got.cif
#   From: 2010.06.25/outbox.cif.g09.slc.cpg/sg71_9_cif.got.tgz:16556.got - 2010.06.28 04:59:45.
