data_PCOD8289461
_publ_section_title
;
Structure prediction by ZEFSAII (Michael W. Deem and Ramdas Pophale) SiO2 
 PCOD8289461
Probable space group: I M M M
;
_chemical_formula_sum "Si O2"
_cell_formula_units_Z 96
_cell_length_a 19.542680
_cell_length_b 9.088464
_cell_length_c 28.816051
_cell_angle_alpha 90.000000
_cell_angle_beta 90.000000
_cell_angle_gamma 90.000000
_cell_volume 5118.103642
_symmetry_space_group_name_H-M "I M M M"
_symmetry_group_IT_number 71
_symmetry_cell_setting 'orthorhombic'
loop_
_space_group_symop_operation_xyz
x,y,z
-x,-y,z
x,-y,-z
-x,y,-z
-x,-y,-z
x,y,-z
-x,y,z
x,-y,z
1/2+x,1/2+y,1/2+z
1/2-x,1/2-y,1/2+z
1/2+x,1/2-y,1/2-z
1/2-x,1/2+y,1/2-z
1/2-x,1/2-y,1/2-z
1/2+x,1/2+y,1/2-z
1/2-x,1/2+y,1/2+z
1/2+x,1/2-y,1/2+z
loop_
_atom_site_type_symbol
_atom_site_label
_atom_site_fract_x
_atom_site_fract_y
_atom_site_fract_z
Si Si1 0.695142 0.326585 0.903918
Si Si2 0.153270 0.665278 0.216234
Si Si3 0.313177 0.665102 0.801788
Si Si4 0.074784 0.338188 0.445593
Si Si5 0.419796 0.327884 0.368208
Si Si6 0.337663 0.174363 0.553947
O O1 0.701845 0.500000 0.900538
O O2 0.682958 0.260707 0.852607
O O3 0.629998 0.284443 0.933922
O O4 0.764325 0.266480 0.927737
O O5 0.122926 0.500000 0.216244
O O6 0.234027 0.661063 0.210844
O O7 0.140150 0.741894 0.266058
O O8 0.118892 0.756216 0.175118
O O9 0.343273 0.500000 0.801581
O O10 0.068471 0.345653 0.500000
O O11 0.096644 0.500000 0.426676
O O12 0.000000 0.295064 0.424968
O O13 0.500000 0.299352 0.362361
O O14 0.402198 0.500000 0.369478
O O15 0.396253 0.254409 0.416464
O O16 0.346008 0.217327 0.500000
O O17 0.344689 0.000000 0.561063
#
# Coordination Sequence:
#
# PCOD8289461 Si02
#       6
#    16  16  16  16  16  16
#     4  10  19  34  56  84 114 144 180 227 278 329
#     4  10  19  35  58  83 109 141 182 224 270 328
#     4   9  18  33  55  83 114 141 173 220 274 328
#     4   9  19  35  52  73 106 146 185 225 270 322
#     4  11  24  40  58  81 113 152 193 239 289 340
#     4  10  21  38  59  84 114 147 189 240 289 340
#
# _framework density 18.756947
#
# number of rings (size 3 to 8) (size 9 to 14) (size 15 to 20)
#    0.000    2.167    1.667    2.000    0.000    5.333 
#    0.000    3.333    0.000    1.000    0.000    0.000 
#    0.000    0.000    0.000    0.000    0.000    0.000 
#
# Total GULP energy -595040.020199 kJ/mol
# GULP energy per Si atom -12396.667087 kJ/mol
# Density = 1.871426 g / cm^3
# Si number density = 18.756947 Si / 1000 Ang^3
#
#
#
# Elastic Constant Matrix: (Units=GPa)
#
#
# Indices 1 2 3 4 5 6 
#
# 1 42.6326 26.6691 31.2597 0.0000 0.0000 0.0000
# 2 26.6691 70.6768 56.4481 0.0000 0.0000 0.0000
# 3 31.2597 56.4481 131.9236 0.0000 0.0000 0.0000
# 4 0.0000 0.0000 0.0000 32.3329 0.0000 0.0000
# 5 0.0000 0.0000 0.0000 0.0000 22.9876 0.0000
# 6 0.0000 0.0000 0.0000 0.0000 0.0000 1.4268
#
#
#
# Elastic Compliance Matrix: (Units=1/GPa)
#
#
# Indices 1 2 3 4 5 6 
#
# 1 0.031820 -0.009092 -0.003649 0.000000 0.000000 0.000000
# 2 -0.009092 0.024092 -0.008154 0.000000 0.000000 0.000000
# 3 -0.003649 -0.008154 0.011934 0.000000 0.000000 0.000000
# 4 0.000000 0.000000 0.000000 0.030928 0.000000 0.000000
# 5 0.000000 0.000000 0.000000 0.000000 0.043502 0.000000
# 6 0.000000 0.000000 0.000000 0.000000 0.000000 0.700887
#
#
# Mechanical properties :
#
#
# Convention : Reuss Voigt Hill
#
# Bulk Modulus (GPa) = 38.38121 52.66521 45.52321
# Shear Modulus (GPa) = 5.59510 20.07319 12.83414
#
# Velocity S-wave (km/s) = 1.72899 3.27490 2.61862
# Velocity P-wave (km/s) = 4.94901 6.51449 5.78495
#
# Compressibility (1/GPa) = 0.02605442
#
# Stress axis : x y z
#
# Youngs Moduli (GPa) = 31.42702 41.50678 83.79402
#
# Poissons Ratio (x) = 0.37738 0.30580
# Poissons Ratio (y) = 0.28574 0.68329
# Poissons Ratio (z) = 0.11469 0.33846
#
# Static dielectric constant tensor:
#      x y z
#    x 3.338170 0.000000 0.000000 
#    y 0.000000 3.534840 0.000000 
#    z 0.000000 0.000000 3.665510 
# 
# 
# High freq. dielectric constant tensor:
#      x y z
#    x 1.710580 0.000000 0.000000 
#    y 0.000000 1.724870 0.000000 
#    z 0.000000 0.000000 1.736380 
# 
# From -- ./inp_files/10869.got.cif
#   From: 2010.06.25/outbox.cif.g09.slc.cpg/sg71_6_cif.got.tgz:10869.got - 2010.06.28 04:59:45.
