data_PCOD8289076
_publ_section_title
;
Structure prediction by ZEFSAII (Michael W. Deem and Ramdas Pophale) SiO2 
 PCOD8289076
Probable space group: I M M M
;
_chemical_formula_sum "Si O2"
_cell_formula_units_Z 88
_cell_length_a 27.312778
_cell_length_b 19.372689
_cell_length_c 8.772512
_cell_angle_alpha 90.000000
_cell_angle_beta 90.000000
_cell_angle_gamma 90.000000
_cell_volume 4641.728690
_symmetry_space_group_name_H-M "I M M M"
_symmetry_group_IT_number 71
_symmetry_cell_setting 'orthorhombic'
loop_
_space_group_symop_operation_xyz
x,y,z
-x,-y,z
x,-y,-z
-x,y,-z
-x,-y,-z
x,y,-z
-x,y,z
x,-y,z
1/2+x,1/2+y,1/2+z
1/2-x,1/2-y,1/2+z
1/2+x,1/2-y,1/2-z
1/2-x,1/2+y,1/2-z
1/2-x,1/2-y,1/2-z
1/2+x,1/2+y,1/2-z
1/2-x,1/2+y,1/2+z
1/2+x,1/2-y,1/2+z
loop_
_atom_site_type_symbol
_atom_site_label
_atom_site_fract_x
_atom_site_fract_y
_atom_site_fract_z
Si Si1 0.707293 0.828054 0.674418
Si Si2 0.683950 0.687993 0.823231
Si Si3 0.086260 0.166130 0.821671
Si Si4 0.380736 0.921511 0.324314
Si Si5 0.000000 0.079259 0.320133
Si Si6 0.556994 0.193046 0.825214
O O1 0.705280 0.801005 0.500000
O O2 0.685026 0.768896 0.781371
O O3 0.763450 0.845565 0.718561
O O4 0.675245 0.896495 0.697082
O O5 0.641623 0.648217 0.730146
O O6 0.671315 0.680543 0.000000
O O7 0.048633 0.115321 0.740730
O O8 0.075694 0.245289 0.780381
O O9 0.080729 0.155406 0.000000
O O10 0.396815 0.914197 0.500000
O O11 0.417154 0.877779 0.220778
O O12 0.383483 0.000000 0.268175
O O13 0.000000 0.086766 0.500000
O O14 0.000000 0.000000 0.266985
O O15 0.500000 0.181855 0.798941
O O16 0.569010 0.211483 0.000000
#
# Coordination Sequence:
#
# PCOD8289076 Si02
#       6
#    16  16  16  16   8  16
#     4   9  18  33  53  81 115 151 194 242 295 349
#     4  10  19  32  55  85 116 150 193 244 291 342
#     4  12  23  37  61  90 121 155 193 239 290 348
#     4  10  21  37  57  82 116 156 198 245 298 356
#     4  11  25  45  67  91 120 153 190 235 293 357
#     4  11  23  38  58  84 115 151 198 249 291 343
#
# _framework density 18.958452999999999
#
# number of rings (size 3 to 8) (size 9 to 14) (size 15 to 20)
#    0.000    1.545    2.727    3.000    0.000    3.273 
#    0.000    2.727    0.000    3.273    0.000    0.000 
#    0.000    0.000    0.000    0.000    0.000    0.000 
#
# Total GULP energy -545737.776788 kJ/mol
# GULP energy per Si atom -12403.131291 kJ/mol
# Density = 1.891530 g / cm^3
# Si number density = 18.958453 Si / 1000 Ang^3
#
#
#
# Elastic Constant Matrix: (Units=GPa)
#
#
# Indices 1 2 3 4 5 6 
#
# 1 124.6701 33.4364 32.4899 0.0000 0.0000 0.0000
# 2 33.4364 71.8807 18.4303 0.0000 0.0000 0.0000
# 3 32.4899 18.4303 56.1196 0.0000 0.0000 0.0000
# 4 0.0000 0.0000 0.0000 25.1665 0.0000 0.0000
# 5 0.0000 0.0000 0.0000 0.0000 33.2505 0.0000
# 6 0.0000 0.0000 0.0000 0.0000 0.0000 26.0731
#
#
#
# Elastic Compliance Matrix: (Units=1/GPa)
#
#
# Indices 1 2 3 4 5 6 
#
# 1 0.010205 -0.003530 -0.004749 0.000000 0.000000 0.000000
# 2 -0.003530 0.016412 -0.003346 0.000000 0.000000 0.000000
# 3 -0.004749 -0.003346 0.021668 0.000000 0.000000 0.000000
# 4 0.000000 0.000000 0.000000 0.039735 0.000000 0.000000
# 5 0.000000 0.000000 0.000000 0.000000 0.030075 0.000000
# 6 0.000000 0.000000 0.000000 0.000000 0.000000 0.038354
#
#
# Mechanical properties :
#
#
# Convention : Reuss Voigt Hill
#
# Bulk Modulus (GPa) = 39.94483 46.82036 43.38259
# Shear Modulus (GPa) = 26.58956 28.11895 27.35425
#
# Velocity S-wave (km/s) = 3.74908 3.85540 3.80261
# Velocity P-wave (km/s) = 6.31318 6.67598 6.49711
#
# Compressibility (1/GPa) = 0.02503453
#
# Stress axis : x y z
#
# Youngs Moduli (GPa) = 97.98673 60.93182 46.15185
#
# Poissons Ratio (x) = 0.21506 0.21919
# Poissons Ratio (y) = 0.34585 0.15444
# Poissons Ratio (z) = 0.46536 0.20390
#
# Static dielectric constant tensor:
#      x y z
#    x 3.800680 0.000000 0.000000 
#    y 0.000000 3.239510 0.000000 
#    z 0.000000 0.000000 3.526680 
# 
# 
# High freq. dielectric constant tensor:
#      x y z
#    x 1.758550 0.000000 0.000000 
#    y 0.000000 1.705370 0.000000 
#    z 0.000000 0.000000 1.742900 
# 
# From -- ./inp_files/16648.got.cif
#   From: 2010.06.25/outbox.cif.g09.slc.cpg/sg71_9_cif.got.tgz:16648.got - 2010.06.28 04:59:45.
