data_PCOD8289113
_publ_section_title
;
Structure prediction by ZEFSAII (Michael W. Deem and Ramdas Pophale) SiO2 
 PCOD8289113
Probable space group: I M M M
;
_chemical_formula_sum "Si O2"
_cell_formula_units_Z 80
_cell_length_a 8.004153
_cell_length_b 23.531353
_cell_length_c 22.081662
_cell_angle_alpha 90.000000
_cell_angle_beta 90.000000
_cell_angle_gamma 90.000000
_cell_volume 4159.049013
_symmetry_space_group_name_H-M "I M M M"
_symmetry_group_IT_number 71
_symmetry_cell_setting 'orthorhombic'
loop_
_space_group_symop_operation_xyz
x,y,z
-x,-y,z
x,-y,-z
-x,y,-z
-x,-y,-z
x,y,-z
-x,y,z
x,-y,z
1/2+x,1/2+y,1/2+z
1/2-x,1/2-y,1/2+z
1/2+x,1/2-y,1/2-z
1/2-x,1/2+y,1/2-z
1/2-x,1/2-y,1/2-z
1/2+x,1/2+y,1/2-z
1/2-x,1/2+y,1/2+z
1/2+x,1/2-y,1/2+z
loop_
_atom_site_type_symbol
_atom_site_label
_atom_site_fract_x
_atom_site_fract_y
_atom_site_fract_z
Si Si1 0.300276 0.063730 0.869091
Si Si2 0.181547 0.432986 0.500000
Si Si3 0.802925 0.670261 0.706817
Si Si4 0.691418 0.212802 0.663339
Si Si5 0.000000 0.562510 0.071891
Si Si6 0.814294 0.133895 0.569419
O O1 0.500000 0.063076 0.873303
O O2 0.227500 0.082504 0.935909
O O3 0.239946 0.109240 0.818681
O O4 0.236835 0.000000 0.851426
O O5 0.156677 0.500000 0.500000
O O6 0.000000 0.402904 0.500000
O O7 0.715309 0.719921 0.668864
O O8 0.750470 0.678219 0.776693
O O9 0.000000 0.677173 0.699404
O O10 0.500000 0.199362 0.648517
O O11 0.804809 0.191594 0.607921
O O12 0.170656 0.591996 0.094740
O O13 0.000000 0.500000 0.100734
O O14 0.000000 0.559369 0.000000
O O15 0.778557 0.149807 0.500000
O O16 0.000000 0.106683 0.576318
#
# Coordination Sequence:
#
# PCOD8289113 Si02
#       6
#    16   8  16  16   8  16
#     4   8  13  24  43  68  99 131 166 212 265 318
#     4   7  10  18  36  62  93 127 153 189 251 308
#     4   9  18  31  49  73 101 136 182 223 269 324
#     4  10  19  33  51  70 103 144 182 224 273 320
#     4   9  18  34  56  82 112 144 177 216 268 330
#     4  10  20  35  57  82 109 143 180 225 278 327
#
# _framework density 19.235166
#
# number of rings (size 3 to 8) (size 9 to 14) (size 15 to 20)
#    0.000    3.000    1.000    1.800    0.000    1.200 
#    1.800    3.000    0.000    0.600    0.000    0.000 
#    0.000    2.400    0.000    0.000    0.000    0.000 
#
# Total GULP energy -495596.653497 kJ/mol
# GULP energy per Si atom -12389.916337 kJ/mol
# Density = 1.919139 g / cm^3
# Si number density = 19.235166 Si / 1000 Ang^3
#
#
#
# Elastic Constant Matrix: (Units=GPa)
#
#
# Indices 1 2 3 4 5 6 
#
# 1 73.7225 31.9906 26.2245 0.0000 0.0000 0.0000
# 2 31.9906 122.7393 66.8948 0.0000 0.0000 0.0000
# 3 26.2245 66.8948 81.4154 0.0000 0.0000 0.0000
# 4 0.0000 0.0000 0.0000 26.8146 0.0000 0.0000
# 5 0.0000 0.0000 0.0000 0.0000 14.5947 0.0000
# 6 0.0000 0.0000 0.0000 0.0000 0.0000 19.6782
#
#
#
# Elastic Compliance Matrix: (Units=1/GPa)
#
#
# Indices 1 2 3 4 5 6 
#
# 1 0.015707 -0.002420 -0.003071 0.000000 0.000000 0.000000
# 2 -0.002420 0.015128 -0.011650 0.000000 0.000000 0.000000
# 3 -0.003071 -0.011650 0.022844 0.000000 0.000000 0.000000
# 4 0.000000 0.000000 0.000000 0.037293 0.000000 0.000000
# 5 0.000000 0.000000 0.000000 0.000000 0.068518 0.000000
# 6 0.000000 0.000000 0.000000 0.000000 0.000000 0.050818
#
#
# Mechanical properties :
#
#
# Convention : Reuss Voigt Hill
#
# Bulk Modulus (GPa) = 51.55546 58.67745 55.11646
# Shear Modulus (GPa) = 19.91598 22.40198 21.15898
#
# Velocity S-wave (km/s) = 3.22124 3.41638 3.32025
# Velocity P-wave (km/s) = 6.37935 6.79218 6.58900
#
# Compressibility (1/GPa) = 0.01939659
#
# Stress axis : x y z
#
# Youngs Moduli (GPa) = 63.66622 66.10446 43.77524
#
# Poissons Ratio (x) = 0.15999 0.13442
# Poissons Ratio (y) = 0.15409 0.50998
# Poissons Ratio (z) = 0.19550 0.77011
#
# Static dielectric constant tensor:
#      x y z
#    x 3.294600 0.000000 0.000000 
#    y 0.000000 3.494360 0.000000 
#    z 0.000000 0.000000 3.638840 
# 
# 
# High freq. dielectric constant tensor:
#      x y z
#    x 1.727230 0.000000 0.000000 
#    y 0.000000 1.726600 0.000000 
#    z 0.000000 0.000000 1.741000 
# 
# From -- ./inp_files/50415.got.cif
#   From: 2010.06.25/outbox.cif.g09.slc.cpg/sg71_26_cif.got.tgz:50415.got - 2010.06.28 04:59:45.
