data_PCOD8289463
_publ_section_title
;
Structure prediction by ZEFSAII (Michael W. Deem and Ramdas Pophale) SiO2 
 PCOD8289463
Probable space group: I M M M
;
_chemical_formula_sum "Si O2"
_cell_formula_units_Z 88
_cell_length_a 9.028664
_cell_length_b 27.125978
_cell_length_c 17.520684
_cell_angle_alpha 90.000000
_cell_angle_beta 90.000000
_cell_angle_gamma 90.000000
_cell_volume 4291.014214
_symmetry_space_group_name_H-M "I M M M"
_symmetry_group_IT_number 71
_symmetry_cell_setting 'orthorhombic'
loop_
_space_group_symop_operation_xyz
x,y,z
-x,-y,z
x,-y,-z
-x,y,-z
-x,-y,-z
x,y,-z
-x,y,z
x,-y,z
1/2+x,1/2+y,1/2+z
1/2-x,1/2-y,1/2+z
1/2+x,1/2-y,1/2-z
1/2-x,1/2+y,1/2-z
1/2-x,1/2-y,1/2-z
1/2+x,1/2+y,1/2-z
1/2-x,1/2+y,1/2+z
1/2+x,1/2-y,1/2+z
loop_
_atom_site_type_symbol
_atom_site_label
_atom_site_fract_x
_atom_site_fract_y
_atom_site_fract_z
Si Si1 0.169643 0.826330 0.085793
Si Si2 0.174462 0.556916 0.844445
Si Si3 0.171962 0.144205 0.586861
Si Si4 0.825678 0.407836 0.677497
Si Si5 0.670846 0.229828 0.674970
Si Si6 0.176719 0.500000 0.585008
O O1 0.258211 0.856762 0.149045
O O2 0.185517 0.769118 0.106930
O O3 0.000000 0.843198 0.088953
O O4 0.233452 0.834027 0.000000
O O5 0.225256 0.500000 0.848976
O O6 0.261653 0.588959 0.906871
O O7 0.219898 0.580193 0.763432
O O8 0.000000 0.560872 0.859018
O O9 0.195551 0.162175 0.500000
O O10 0.255326 0.179637 0.646030
O O11 0.000000 0.143501 0.608804
O O12 0.760529 0.451569 0.625648
O O13 0.000000 0.403849 0.668619
O O14 0.500000 0.218635 0.694951
O O15 0.750000 0.250000 0.750000
O O16 0.238888 0.500000 0.500000
O O17 0.000000 0.500000 0.588676
#
# Coordination Sequence:
#
# PCOD8289463 Si02
#       6
#    16  16  16  16  16   8
#     4  10  22  38  55  80 117 156 193 236 289 349
#     4  10  21  39  63  90 120 156 201 252 306 370
#     4  11  25  43  63  90 124 160 203 255 307 364
#     4  10  19  34  56  84 115 150 196 244 290 346
#     4  11  23  41  65  91 121 158 200 248 303 364
#     4   9  16  28  49  77 110 147 188 236 287 337
#
# _framework density 20.507971999999999
#
# number of rings (size 3 to 8) (size 9 to 14) (size 15 to 20)
#    0.000    1.727    0.909    3.273    0.000    9.091 
#    0.000    2.273    0.000    1.636    0.000    0.000 
#    0.000    0.000    0.000    0.000    0.000    0.000 
#
# Total GULP energy -545722.813445 kJ/mol
# GULP energy per Si atom -12402.791215 kJ/mol
# Density = 2.046130 g / cm^3
# Si number density = 20.507972 Si / 1000 Ang^3
#
#
#
# Elastic Constant Matrix: (Units=GPa)
#
#
# Indices 1 2 3 4 5 6 
#
# 1 80.1447 49.0600 47.5008 0.0000 0.0000 0.0000
# 2 49.0600 121.0340 36.3561 0.0000 0.0000 0.0000
# 3 47.5008 36.3561 86.1741 -0.0004 0.0000 0.0000
# 4 0.0000 0.0000 -0.0004 40.0812 0.0000 0.0000
# 5 0.0000 0.0000 0.0000 0.0000 30.2702 0.0000
# 6 0.0000 0.0000 0.0000 0.0000 0.0000 31.8826
#
#
#
# Elastic Compliance Matrix: (Units=1/GPa)
#
#
# Indices 1 2 3 4 5 6 
#
# 1 0.021742 -0.005970 -0.009466 0.000000 0.000000 0.000000
# 2 -0.005970 0.011100 -0.001393 0.000000 0.000000 0.000000
# 3 -0.009466 -0.001393 0.017410 0.000000 0.000000 0.000000
# 4 0.000000 0.000000 0.000000 0.024949 0.000000 0.000000
# 5 0.000000 0.000000 0.000000 0.000000 0.033036 0.000000
# 6 0.000000 0.000000 0.000000 0.000000 0.000000 0.031365
#
#
# Mechanical properties :
#
#
# Convention : Reuss Voigt Hill
#
# Bulk Modulus (GPa) = 60.25684 61.46517 60.86100
# Shear Modulus (GPa) = 27.96569 30.74254 29.35411
#
# Velocity S-wave (km/s) = 3.69677 3.87596 3.78742
# Velocity P-wave (km/s) = 6.90416 7.07582 6.99051
#
# Compressibility (1/GPa) = 0.01659563
#
# Stress axis : x y z
#
# Youngs Moduli (GPa) = 45.99372 90.08916 57.43882
#
# Poissons Ratio (x) = 0.53779 0.54372
# Poissons Ratio (y) = 0.27456 0.07999
# Poissons Ratio (z) = 0.43538 0.12545
#
# Static dielectric constant tensor:
#      x y z
#    x 3.505200 0.000000 0.000000 
#    y 0.000000 3.800500 0.000000 
#    z 0.000000 0.000000 3.760020 
# 
# 
# High freq. dielectric constant tensor:
#      x y z
#    x 1.783550 0.000000 0.000000 
#    y 0.000000 1.813920 0.000000 
#    z 0.000000 0.000000 1.810270 
# 
# From -- ./inp_files/42503.got.cif
#   From: 2010.06.25/outbox.cif.g09.slc.cpg/sg71_22_cif.got.tgz:42503.got - 2010.06.28 04:59:45.
