data_PCOD8289132
_publ_section_title
;
Structure prediction by ZEFSAII (Michael W. Deem and Ramdas Pophale) SiO2 
 PCOD8289132
Probable space group: I M M M
;
_chemical_formula_sum "Si O2"
_cell_formula_units_Z 120
_cell_length_a 14.830092
_cell_length_b 13.770427
_cell_length_c 31.409730
_cell_angle_alpha 90.000000
_cell_angle_beta 90.000000
_cell_angle_gamma 90.000000
_cell_volume 6414.391386
_symmetry_space_group_name_H-M "I M M M"
_symmetry_group_IT_number 71
_symmetry_cell_setting 'orthorhombic'
loop_
_space_group_symop_operation_xyz
x,y,z
-x,-y,z
x,-y,-z
-x,y,-z
-x,-y,-z
x,y,-z
-x,y,z
x,-y,z
1/2+x,1/2+y,1/2+z
1/2-x,1/2-y,1/2+z
1/2+x,1/2-y,1/2-z
1/2-x,1/2+y,1/2-z
1/2-x,1/2-y,1/2-z
1/2+x,1/2+y,1/2-z
1/2-x,1/2+y,1/2+z
1/2+x,1/2-y,1/2+z
loop_
_atom_site_type_symbol
_atom_site_label
_atom_site_fract_x
_atom_site_fract_y
_atom_site_fract_z
Si Si1 0.796135 0.207572 0.173863
Si Si2 0.103323 0.717131 0.953803
Si Si3 0.106329 0.891001 0.500000
Si Si4 0.136278 0.892212 0.591576
Si Si5 0.597900 0.725819 0.169408
Si Si6 0.834963 0.605957 0.875923
Si Si7 0.396911 0.611433 0.747109
Si Si8 0.394995 0.390830 0.398800
O O1 0.686397 0.205089 0.171038
O O2 0.840991 0.311568 0.160558
O O3 0.829678 0.181648 0.221061
O O4 0.835676 0.124089 0.143439
O O5 0.112017 0.632127 0.919125
O O6 0.143309 0.817573 0.934687
O O7 0.000000 0.735205 0.962950
O O8 0.149558 0.693035 0.000000
O O9 0.140734 0.842612 0.544314
O O10 0.000000 0.886156 0.500000
O O11 0.144692 0.000000 0.500000
O O12 0.082574 0.822146 0.623155
O O13 0.233147 0.903296 0.611066
O O14 0.090875 0.000000 0.588235
O O15 0.500000 0.778768 0.178863
O O16 0.613227 0.640467 0.203681
O O17 0.869922 0.500000 0.859377
O O18 0.500000 0.624506 0.731227
O O19 0.366153 0.500000 0.742370
O O20 0.500000 0.369721 0.388001
O O21 0.381699 0.500000 0.415462
#
# Coordination Sequence:
#
# PCOD8289132 Si02
#       8
#    16  16   8  16  16  16  16  16
#     4  10  19  33  51  75 102 130 167 213 255 299
#     4   9  18  30  44  67  99 132 168 209 251 304
#     4   9  16  24  38  62  87 113 148 191 239 283
#     4   9  17  29  45  66  92 125 164 208 250 288
#     4  10  20  33  49  71 103 138 167 200 249 309
#     4   9  19  32  46  66  96 137 176 205 243 296
#     4  10  20  34  56  82 101 125 166 216 269 314
#     4   9  17  31  53  77  99 125 161 213 272 314
#
# _framework density 18.707933000000001
#
# number of rings (size 3 to 8) (size 9 to 14) (size 15 to 20)
#    0.000    2.600    0.000    2.000    0.933    4.267 
#    0.000    2.000    0.000    1.600    0.000    3.733 
#    0.000    0.000    0.000    6.267    0.000    0.133 
#
# Total GULP energy -743298.064420 kJ/mol
# GULP energy per Si atom -12388.301074 kJ/mol
# Density = 1.866535 g / cm^3
# Si number density = 18.707933 Si / 1000 Ang^3
#
#
#
# Elastic Constant Matrix: (Units=GPa)
#
#
# Indices 1 2 3 4 5 6 
#
# 1 65.7218 22.2785 23.9007 0.0000 0.0000 0.0000
# 2 22.2785 79.7771 30.1081 0.0000 0.0000 0.0000
# 3 23.9007 30.1081 111.5745 0.0000 0.0000 0.0000
# 4 0.0000 0.0000 0.0000 21.1416 0.0000 0.0000
# 5 0.0000 0.0000 0.0000 0.0000 11.0816 0.0000
# 6 0.0000 0.0000 0.0000 0.0000 0.0000 22.3435
#
#
#
# Elastic Compliance Matrix: (Units=1/GPa)
#
#
# Indices 1 2 3 4 5 6 
#
# 1 0.017512 -0.003869 -0.002707 0.000000 0.000000 0.000000
# 2 -0.003869 0.014811 -0.003168 0.000000 0.000000 0.000000
# 3 -0.002707 -0.003168 0.010397 0.000000 0.000000 0.000000
# 4 0.000000 0.000000 0.000000 0.047300 0.000000 0.000000
# 5 0.000000 0.000000 0.000000 0.000000 0.090239 0.000000
# 6 0.000000 0.000000 0.000000 0.000000 0.000000 0.044756
#
#
# Mechanical properties :
#
#
# Convention : Reuss Voigt Hill
#
# Bulk Modulus (GPa) = 43.04364 45.51645 44.28005
# Shear Modulus (GPa) = 19.82187 22.96576 21.39381
#
# Velocity S-wave (km/s) = 3.25859 3.50751 3.38534
# Velocity P-wave (km/s) = 6.10050 6.38642 6.24509
#
# Compressibility (1/GPa) = 0.02323224
#
# Stress axis : x y z
#
# Youngs Moduli (GPa) = 57.10517 67.51803 96.17761
#
# Poissons Ratio (x) = 0.26120 0.26038
# Poissons Ratio (y) = 0.22091 0.30469
# Poissons Ratio (z) = 0.15460 0.21390
#
# Static dielectric constant tensor:
#      x y z
#    x 3.369650 0.000000 0.000000 
#    y 0.000000 3.486390 0.000000 
#    z 0.000000 0.000000 3.479230 
# 
# 
# High freq. dielectric constant tensor:
#      x y z
#    x 1.718700 0.000000 0.000000 
#    y 0.000000 1.688010 0.000000 
#    z 0.000000 0.000000 1.734250 
# 
# From -- ./inp_files/70120.got.cif
#   From: 2010.06.25/outbox.cif.g09.slc.cpg/sg71_36_cif.got.tgz:70120.got - 2010.06.28 04:59:45.
