data_PCOD8289257
_publ_section_title
;
Structure prediction by ZEFSAII (Michael W. Deem and Ramdas Pophale) SiO2 
 PCOD8289257
Probable space group: I M M M
;
_chemical_formula_sum "Si O2"
_cell_formula_units_Z 56
_cell_length_a 7.984273
_cell_length_b 24.555294
_cell_length_c 14.083084
_cell_angle_alpha 90.000000
_cell_angle_beta 90.000000
_cell_angle_gamma 90.000000
_cell_volume 2761.075523
_symmetry_space_group_name_H-M "I M M M"
_symmetry_group_IT_number 71
_symmetry_cell_setting 'orthorhombic'
loop_
_space_group_symop_operation_xyz
x,y,z
-x,-y,z
x,-y,-z
-x,y,-z
-x,-y,-z
x,y,-z
-x,y,z
x,-y,z
1/2+x,1/2+y,1/2+z
1/2-x,1/2-y,1/2+z
1/2+x,1/2-y,1/2-z
1/2-x,1/2+y,1/2-z
1/2-x,1/2-y,1/2-z
1/2+x,1/2+y,1/2-z
1/2-x,1/2+y,1/2+z
1/2+x,1/2-y,1/2+z
loop_
_atom_site_type_symbol
_atom_site_label
_atom_site_fract_x
_atom_site_fract_y
_atom_site_fract_z
Si Si1 0.811836 0.938774 0.729065
Si Si2 0.000000 0.563582 0.897731
Si Si3 0.805097 0.333745 0.712887
Si Si4 0.301843 0.232678 0.393889
O O1 0.672844 0.919727 0.652649
O O2 0.792280 0.891210 0.808108
O O3 0.000000 0.938311 0.686179
O O4 0.772062 0.000000 0.768251
O O5 0.000000 0.500000 0.912671
O O6 0.000000 0.593594 0.000000
O O7 0.769984 0.292858 0.626866
O O8 0.735191 0.308591 0.812937
O O9 0.000000 0.346816 0.720556
O O10 0.242659 0.215329 0.500000
O O11 0.500000 0.235666 0.387556
#
# Coordination Sequence:
#
# PCOD8289257 Si02
#       4
#    16   8  16  16
#     4  10  20  34  53  77 106 145 185 220 268 326
#     4   9  18  32  48  70 103 139 177 223 267 312
#     4  10  19  33  54  81 109 143 181 227 273 322
#     4   9  19  35  54  77 107 143 181 224 276 328
#
# _framework density 20.281950999999999
#
# number of rings (size 3 to 8) (size 9 to 14) (size 15 to 20)
#    0.000    2.429    1.429    0.857    0.000    3.429 
#    0.000    2.857    0.000    0.857    0.000    6.000 
#    0.000    0.000    0.000    0.000    0.000    0.000 
#
# Total GULP energy -346870.271078 kJ/mol
# GULP energy per Si atom -12388.223967 kJ/mol
# Density = 2.023579 g / cm^3
# Si number density = 20.281951 Si / 1000 Ang^3
#
#
#
# Elastic Constant Matrix: (Units=GPa)
#
#
# Indices 1 2 3 4 5 6 
#
# 1 72.9109 11.6089 6.4662 0.0001 0.0000 0.0000
# 2 11.6089 111.3256 11.0258 0.0002 0.0000 0.0000
# 3 6.4662 11.0258 51.2718 0.0004 -0.0001 -0.0001
# 4 0.0001 0.0002 0.0004 12.3961 0.0000 0.0000
# 5 0.0000 0.0000 -0.0001 0.0000 18.6767 0.0000
# 6 0.0000 0.0000 -0.0001 0.0000 0.0000 32.2441
#
#
#
# Elastic Compliance Matrix: (Units=1/GPa)
#
#
# Indices 1 2 3 4 5 6 
#
# 1 0.014057 -0.001318 -0.001489 0.000000 0.000000 0.000000
# 2 -0.001318 0.009302 -0.001834 0.000000 0.000000 0.000000
# 3 -0.001489 -0.001834 0.020086 -0.000001 0.000000 0.000000
# 4 0.000000 0.000000 -0.000001 0.080671 0.000000 0.000000
# 5 0.000000 0.000000 0.000000 0.000000 0.053543 0.000000
# 6 0.000000 0.000000 0.000000 0.000000 0.000000 0.031013
#
#
# Mechanical properties :
#
#
# Convention : Reuss Voigt Hill
#
# Bulk Modulus (GPa) = 29.27254 32.63447 30.95350
# Shear Modulus (GPa) = 21.80145 26.42388 24.11266
#
# Velocity S-wave (km/s) = 3.28215 3.61339 3.45174
# Velocity P-wave (km/s) = 5.36912 5.79086 5.58398
#
# Compressibility (1/GPa) = 0.03416171
#
# Stress axis : x y z
#
# Youngs Moduli (GPa) = 71.13706 107.50623 49.78561
#
# Poissons Ratio (x) = 0.14173 0.07415
# Poissons Ratio (y) = 0.09379 0.09131
# Poissons Ratio (z) = 0.10595 0.19717
#
# Static dielectric constant tensor:
#      x y z
#    x 3.663500 0.000000 0.000000 
#    y 0.000000 3.981740 0.000000 
#    z 0.000000 0.000000 3.530580 
# 
# 
# High freq. dielectric constant tensor:
#      x y z
#    x 1.796670 0.000000 0.000000 
#    y 0.000000 1.812880 0.000000 
#    z 0.000000 0.000000 1.731990 
# 
# From -- ./inp_files/5324.got.cif
#   From: 2010.06.25/outbox.cif.g09.slc.cpg/sg71_3_cif.got.tgz:5324.got - 2010.06.28 04:59:45.
