data_PCOD8289453
_publ_section_title
;
Structure prediction by ZEFSAII (Michael W. Deem and Ramdas Pophale) SiO2 
 PCOD8289453
Probable space group: I M M M
;
_chemical_formula_sum "Si O2"
_cell_formula_units_Z 104
_cell_length_a 9.148684
_cell_length_b 22.251564
_cell_length_c 27.707968
_cell_angle_alpha 90.000000
_cell_angle_beta 90.000000
_cell_angle_gamma 90.000000
_cell_volume 5640.581079
_symmetry_space_group_name_H-M "I M M M"
_symmetry_group_IT_number 71
_symmetry_cell_setting 'orthorhombic'
loop_
_space_group_symop_operation_xyz
x,y,z
-x,-y,z
x,-y,-z
-x,y,-z
-x,-y,-z
x,y,-z
-x,y,z
x,-y,z
1/2+x,1/2+y,1/2+z
1/2-x,1/2-y,1/2+z
1/2+x,1/2-y,1/2-z
1/2-x,1/2+y,1/2-z
1/2-x,1/2-y,1/2-z
1/2+x,1/2+y,1/2-z
1/2-x,1/2+y,1/2+z
1/2+x,1/2-y,1/2+z
loop_
_atom_site_type_symbol
_atom_site_label
_atom_site_fract_x
_atom_site_fract_y
_atom_site_fract_z
Si Si1 0.668091 0.182409 0.702989
Si Si2 0.331321 0.387151 0.397944
Si Si3 0.826231 0.500000 0.443693
Si Si4 0.662022 0.933277 0.556865
Si Si5 0.831821 0.823397 0.798507
Si Si6 0.829044 0.163639 0.389565
Si Si7 0.666424 0.736248 0.555413
O O1 0.500000 0.164121 0.701606
O O2 0.731282 0.158523 0.753585
O O3 0.692159 0.252835 0.692486
O O4 0.754085 0.147996 0.661188
O O5 0.500000 0.407921 0.397112
O O6 0.232362 0.442103 0.415129
O O7 0.284317 0.362332 0.345106
O O8 0.306878 0.334209 0.436500
O O9 0.774659 0.500000 0.500000
O O10 0.000000 0.500000 0.440811
O O11 0.672630 0.935094 0.500000
O O12 0.500000 0.909807 0.572174
O O13 0.789319 0.890309 0.575010
O O14 0.687269 0.000000 0.577911
O O15 0.000000 0.836065 0.785470
O O16 0.774500 0.226417 0.411271
O O17 0.000000 0.168231 0.381923
O O18 0.697288 0.752090 0.500000
O O19 0.500000 0.752802 0.569979
#
# Coordination Sequence:
#
# PCOD8289453 Si02
#       7
#    16  16   8  16  16  16  16
#     4  10  19  34  56  82 114 147 182 221 271 332
#     4  10  20  38  62  84 109 147 192 236 285 342
#     4  11  25  41  57  83 119 155 195 245 294 345
#     4   9  19  37  59  79 103 142 188 228 269 323
#     4   9  18  34  57  85 112 138 178 229 278 329
#     4  12  23  33  51  81 116 149 182 224 276 328
#     4  10  20  35  55  80 111 146 186 230 276 331
#
# _framework density 18.437818
#
# number of rings (size 3 to 8) (size 9 to 14) (size 15 to 20)
#    0.000    1.923    1.538    3.462    0.000    5.846 
#    0.000    0.769    1.692    0.000    0.000    0.000 
#    0.000    0.000    0.000    0.000    0.000    0.000 
#
# Total GULP energy -644812.495802 kJ/mol
# GULP energy per Si atom -12400.240304 kJ/mol
# Density = 1.839585 g / cm^3
# Si number density = 18.437818 Si / 1000 Ang^3
#
#
#
# Elastic Constant Matrix: (Units=GPa)
#
#
# Indices 1 2 3 4 5 6 
#
# 1 105.7230 35.7468 59.1350 0.0000 0.0000 0.0000
# 2 35.7468 71.9771 37.9907 0.0000 0.0000 0.0000
# 3 59.1350 37.9907 100.5587 0.0000 0.0000 0.0000
# 4 0.0000 0.0000 0.0000 23.5728 0.0000 0.0000
# 5 0.0000 0.0000 0.0000 0.0000 33.3143 0.0000
# 6 0.0000 0.0000 0.0000 0.0000 0.0000 14.1198
#
#
#
# Elastic Compliance Matrix: (Units=1/GPa)
#
#
# Indices 1 2 3 4 5 6 
#
# 1 0.014743 -0.003430 -0.007374 0.000000 0.000000 0.000000
# 2 -0.003430 0.018152 -0.004841 0.000000 0.000000 0.000000
# 3 -0.007374 -0.004841 0.016110 0.000000 0.000000 0.000000
# 4 0.000000 0.000000 0.000000 0.042422 0.000000 0.000000
# 5 0.000000 0.000000 0.000000 0.000000 0.030017 0.000000
# 6 0.000000 0.000000 0.000000 0.000000 0.000000 0.070823
#
#
# Mechanical properties :
#
#
# Convention : Reuss Voigt Hill
#
# Bulk Modulus (GPa) = 56.44871 60.44489 58.44680
# Shear Modulus (GPa) = 21.79029 23.89378 22.84203
#
# Velocity S-wave (km/s) = 3.44150 3.60378 3.52357
# Velocity P-wave (km/s) = 6.81719 7.08312 6.95143
#
# Compressibility (1/GPa) = 0.01771520
#
# Stress axis : x y z
#
# Youngs Moduli (GPa) = 67.82899 55.09123 62.07462
#
# Poissons Ratio (x) = 0.18895 0.45774
# Poissons Ratio (y) = 0.23264 0.30048
# Poissons Ratio (z) = 0.50017 0.26668
#
# Static dielectric constant tensor:
#      x y z
#    x 3.370380 0.000000 0.000000 
#    y 0.000000 3.286630 0.000000 
#    z 0.000000 0.000000 3.483060 
# 
# 
# High freq. dielectric constant tensor:
#      x y z
#    x 1.710970 0.000000 0.000000 
#    y 0.000000 1.695060 0.000000 
#    z 0.000000 0.000000 1.723030 
# 
# From -- ./inp_files/50907.got.cif
#   From: 2010.06.25/outbox.cif.g09.slc.cpg/sg71_26_cif.got.tgz:50907.got - 2010.06.28 04:59:45.
