data_PCOD8289923
_publ_section_title
;
Structure prediction by ZEFSAII (Michael W. Deem and Ramdas Pophale) SiO2 
 PCOD8289923
Probable space group: I M M M
;
_chemical_formula_sum "Si O2"
_cell_formula_units_Z 56
_cell_length_a 23.961255
_cell_length_b 9.353636
_cell_length_c 14.046075
_cell_angle_alpha 90.000000
_cell_angle_beta 90.000000
_cell_angle_gamma 90.000000
_cell_volume 3148.074556
_symmetry_space_group_name_H-M "I M M M"
_symmetry_group_IT_number 71
_symmetry_cell_setting 'orthorhombic'
loop_
_space_group_symop_operation_xyz
x,y,z
-x,-y,z
x,-y,-z
-x,y,-z
-x,-y,-z
x,y,-z
-x,y,z
x,-y,z
1/2+x,1/2+y,1/2+z
1/2-x,1/2-y,1/2+z
1/2+x,1/2-y,1/2-z
1/2-x,1/2+y,1/2-z
1/2-x,1/2-y,1/2-z
1/2+x,1/2+y,1/2-z
1/2-x,1/2+y,1/2+z
1/2+x,1/2-y,1/2+z
loop_
_atom_site_type_symbol
_atom_site_label
_atom_site_fract_x
_atom_site_fract_y
_atom_site_fract_z
Si Si1 0.764138 0.664136 0.109787
Si Si2 0.565140 0.833397 0.707168
Si Si3 0.439804 0.167809 0.500000
Si Si4 0.835808 0.164398 0.742531
O O1 0.783875 0.500000 0.122689
O O2 0.804991 0.765168 0.167988
O O3 0.700902 0.682432 0.147509
O O4 0.765527 0.710472 0.000000
O O5 0.500000 0.790932 0.718494
O O6 0.589156 0.793310 0.600402
O O7 0.604518 0.741674 0.776978
O O8 0.572856 0.000000 0.729797
O O9 0.500000 0.244048 0.500000
O O10 0.449886 0.000000 0.500000
O O11 0.846775 0.000000 0.767107
#
# Coordination Sequence:
#
# PCOD8289923 Si02
#       4
#    16  16   8  16
#     4   9  19  36  54  69  92 131 169 196 233 293
#     4   9  17  30  48  69  96 132 167 193 228 288
#     4   7  12  24  41  61  85 119 161 189 208 259
#     4  10  20  32  49  76 102 122 156 206 250 281
#
# _framework density 17.788651000000002
#
# number of rings (size 3 to 8) (size 9 to 14) (size 15 to 20)
#    0.000    3.000    0.000    2.571    2.000    2.286 
#    0.000    0.000    0.000    3.429    0.000    6.000 
#    0.000    0.000    0.000    0.000    0.000    0.000 
#
# Total GULP energy -346892.955974 kJ/mol
# GULP energy per Si atom -12389.034142 kJ/mol
# Density = 1.774816 g / cm^3
# Si number density = 17.788651 Si / 1000 Ang^3
#
#
#
# Elastic Constant Matrix: (Units=GPa)
#
#
# Indices 1 2 3 4 5 6 
#
# 1 85.8367 50.7678 12.1823 0.0000 0.0000 0.0000
# 2 50.7678 81.3826 23.6899 0.0000 0.0000 0.0000
# 3 12.1823 23.6899 52.8205 0.0000 0.0000 0.0000
# 4 0.0000 0.0000 0.0000 19.7477 0.0000 0.0000
# 5 0.0000 0.0000 0.0000 0.0000 15.5555 0.0000
# 6 0.0000 0.0000 0.0000 0.0000 0.0000 36.1889
#
#
#
# Elastic Compliance Matrix: (Units=1/GPa)
#
#
# Indices 1 2 3 4 5 6 
#
# 1 0.018512 -0.011852 0.001046 0.000000 0.000000 0.000000
# 2 -0.011852 0.021721 -0.007008 0.000000 0.000000 0.000000
# 3 0.001046 -0.007008 0.021834 0.000000 0.000000 0.000000
# 4 0.000000 0.000000 0.000000 0.050639 0.000000 0.000000
# 5 0.000000 0.000000 0.000000 0.000000 0.064286 0.000000
# 6 0.000000 0.000000 0.000000 0.000000 0.000000 0.027633
#
#
# Mechanical properties :
#
#
# Convention : Reuss Voigt Hill
#
# Bulk Modulus (GPa) = 37.82433 43.70222 40.76327
# Shear Modulus (GPa) = 20.07498 23.19175 21.63336
#
# Velocity S-wave (km/s) = 3.36300 3.61465 3.49109
# Velocity P-wave (km/s) = 6.03233 6.48396 6.26222
#
# Compressibility (1/GPa) = 0.02643801
#
# Stress axis : x y z
#
# Youngs Moduli (GPa) = 54.02023 46.03740 45.80015
#
# Poissons Ratio (x) = 0.54565 -0.04792
# Poissons Ratio (y) = 0.64027 0.32099
# Poissons Ratio (z) = -0.05652 0.32265
#
# Static dielectric constant tensor:
#      x y z
#    x 3.369580 0.000000 0.000000 
#    y 0.000000 3.156770 0.000000 
#    z 0.000000 0.000000 3.215480 
# 
# 
# High freq. dielectric constant tensor:
#      x y z
#    x 1.695060 0.000000 0.000000 
#    y 0.000000 1.672380 0.000000 
#    z 0.000000 0.000000 1.656430 
# 
# From -- ./inp_files/5301.got.cif
#   From: 2010.06.25/outbox.cif.g09.slc.cpg/sg71_3_cif.got.tgz:5301.got - 2010.06.28 04:59:45.
