data_PCOD8289092
_publ_section_title
;
Structure prediction by ZEFSAII (Michael W. Deem and Ramdas Pophale) SiO2 
 PCOD8289092
Probable space group: I M M M
;
_chemical_formula_sum "Si O2"
_cell_formula_units_Z 112
_cell_length_a 29.737536
_cell_length_b 23.124292
_cell_length_c 9.246558
_cell_angle_alpha 90.000000
_cell_angle_beta 90.000000
_cell_angle_gamma 90.000000
_cell_volume 6358.483135
_symmetry_space_group_name_H-M "I M M M"
_symmetry_group_IT_number 71
_symmetry_cell_setting 'orthorhombic'
loop_
_space_group_symop_operation_xyz
x,y,z
-x,-y,z
x,-y,-z
-x,y,-z
-x,-y,-z
x,y,-z
-x,y,z
x,-y,z
1/2+x,1/2+y,1/2+z
1/2-x,1/2-y,1/2+z
1/2+x,1/2-y,1/2-z
1/2-x,1/2+y,1/2-z
1/2-x,1/2-y,1/2-z
1/2+x,1/2+y,1/2-z
1/2-x,1/2+y,1/2+z
1/2+x,1/2-y,1/2+z
loop_
_atom_site_type_symbol
_atom_site_label
_atom_site_fract_x
_atom_site_fract_y
_atom_site_fract_z
Si Si1 0.796385 0.935341 0.172309
Si Si2 0.639925 0.663692 0.329384
Si Si3 0.797479 0.618212 0.334241
Si Si4 0.890709 0.435936 0.665144
Si Si5 0.704833 0.767476 0.671106
Si Si6 0.049318 0.786055 0.827424
Si Si7 0.051452 0.655962 0.166117
O O1 0.836005 0.893732 0.234537
O O2 0.748374 0.910728 0.223919
O O3 0.803644 0.000000 0.234599
O O4 0.797241 0.936758 0.000000
O O5 0.638323 0.656921 0.500000
O O6 0.667493 0.720578 0.286887
O O7 0.588830 0.671494 0.269024
O O8 0.791081 0.639602 0.500000
O O9 0.837081 0.571753 0.321992
O O10 0.811383 0.671334 0.232230
O O11 0.906096 0.430217 0.500000
O O12 0.902215 0.500000 0.724495
O O13 0.916900 0.387956 0.752265
O O14 0.712603 0.770850 0.500000
O O15 0.750000 0.750000 0.750000
O O16 0.058118 0.720786 0.771506
O O17 0.000000 0.807796 0.773362
O O18 0.049596 0.784200 0.000000
O O19 0.000000 0.636352 0.185679
O O20 0.066061 0.654545 0.000000
#
# Coordination Sequence:
#
# PCOD8289092 Si02
#       7
#    16  16  16  16  16  16  16
#     4   9  16  27  44  64  89 124 162 193 221 270
#     4   9  16  26  43  68  92 118 156 193 229 278
#     4  10  19  33  49  68  95 127 163 199 236 282
#     4  10  21  34  48  68  95 129 166 202 244 292
#     4  11  20  31  48  72  99 126 157 198 244 289
#     4   8  14  26  45  68  93 118 148 192 244 291
#     4   9  18  33  51  69  90 121 161 203 250 301
#
# _framework density 17.614262
#
# number of rings (size 3 to 8) (size 9 to 14) (size 15 to 20)
#    0.000    2.571    1.429    2.571    0.000    4.286 
#    0.000    1.429    0.000    1.714    0.000    3.000 
#    0.000    0.000    0.000    0.000    0.000    1.429 
#
# Total GULP energy -694120.951122 kJ/mol
# GULP energy per Si atom -12395.016984 kJ/mol
# Density = 1.757417 g / cm^3
# Si number density = 17.614262 Si / 1000 Ang^3
#
#
#
# Elastic Constant Matrix: (Units=GPa)
#
#
# Indices 1 2 3 4 5 6 
#
# 1 127.3738 64.3433 22.7894 0.0000 0.0000 0.0000
# 2 64.3433 120.9037 23.0483 0.0000 0.0000 0.0000
# 3 22.7894 23.0483 30.6690 0.0000 0.0000 0.0000
# 4 0.0000 0.0000 0.0000 18.7145 0.0000 0.0000
# 5 0.0000 0.0000 0.0000 0.0000 18.8739 0.0000
# 6 0.0000 0.0000 0.0000 0.0000 0.0000 23.9974
#
#
#
# Elastic Compliance Matrix: (Units=1/GPa)
#
#
# Indices 1 2 3 4 5 6 
#
# 1 0.011247 -0.005127 -0.004504 0.000000 0.000000 0.000000
# 2 -0.005127 0.011991 -0.005202 0.000000 0.000000 0.000000
# 3 -0.004504 -0.005202 0.039863 0.000000 0.000000 0.000000
# 4 0.000000 0.000000 0.000000 0.053435 0.000000 0.000000
# 5 0.000000 0.000000 0.000000 0.000000 0.052983 0.000000
# 6 0.000000 0.000000 0.000000 0.000000 0.000000 0.041671
#
#
# Mechanical properties :
#
#
# Convention : Reuss Voigt Hill
#
# Bulk Modulus (GPa) = 29.90929 55.47870 42.69400
# Shear Modulus (GPa) = 19.84128 23.56819 21.70473
#
# Velocity S-wave (km/s) = 3.35988 3.66186 3.51411
# Velocity P-wave (km/s) = 5.66293 7.03163 6.38406
#
# Compressibility (1/GPa) = 0.03343443
#
# Stress axis : x y z
#
# Youngs Moduli (GPa) = 88.91650 83.39576 25.08611
#
# Poissons Ratio (x) = 0.42753 0.11300
# Poissons Ratio (y) = 0.45584 0.13050
# Poissons Ratio (z) = 0.40051 0.43383
#
# Static dielectric constant tensor:
#      x y z
#    x 4.288330 0.000000 0.000000 
#    y 0.000000 3.262210 0.000000 
#    z 0.000000 0.000000 2.954150 
# 
# 
# High freq. dielectric constant tensor:
#      x y z
#    x 1.689730 0.000000 0.000000 
#    y 0.000000 1.675310 0.000000 
#    z 0.000000 0.000000 1.631450 
# 
# From -- ./inp_files/29089.got.cif
#   From: 2010.06.25/outbox.cif.g09.slc.cpg/sg71_15_cif.got.tgz:29089.got - 2010.06.28 04:59:45.
