data_PCOD8289152
_publ_section_title
;
Structure prediction by ZEFSAII (Michael W. Deem and Ramdas Pophale) SiO2 
 PCOD8289152
Probable space group: I M M M
;
_chemical_formula_sum "Si O2"
_cell_formula_units_Z 88
_cell_length_a 26.349325
_cell_length_b 8.974733
_cell_length_c 19.979053
_cell_angle_alpha 90.000000
_cell_angle_beta 90.000000
_cell_angle_gamma 90.000000
_cell_volume 4724.609624
_symmetry_space_group_name_H-M "I M M M"
_symmetry_group_IT_number 71
_symmetry_cell_setting 'orthorhombic'
loop_
_space_group_symop_operation_xyz
x,y,z
-x,-y,z
x,-y,-z
-x,y,-z
-x,-y,-z
x,y,-z
-x,y,z
x,-y,z
1/2+x,1/2+y,1/2+z
1/2-x,1/2-y,1/2+z
1/2+x,1/2-y,1/2-z
1/2-x,1/2+y,1/2-z
1/2-x,1/2-y,1/2-z
1/2+x,1/2+y,1/2-z
1/2-x,1/2+y,1/2+z
1/2+x,1/2-y,1/2+z
loop_
_atom_site_type_symbol
_atom_site_label
_atom_site_fract_x
_atom_site_fract_y
_atom_site_fract_z
Si Si1 0.939700 0.168119 0.000000
Si Si2 0.334249 0.669399 0.000000
Si Si3 0.713563 0.833501 0.500000
Si Si4 0.939905 0.328721 0.133741
Si Si5 0.368385 0.324546 0.265360
Si Si6 0.666866 0.823511 0.865286
Si Si7 0.782924 0.172751 0.131209
O O1 0.919677 0.254137 0.934660
O O2 0.000000 0.166121 0.000000
O O3 0.918001 0.000000 0.000000
O O4 0.354297 0.755413 0.934485
O O5 0.354589 0.500000 0.000000
O O6 0.273936 0.673807 0.000000
O O7 0.693212 0.754414 0.433198
O O8 0.692530 0.000000 0.500000
O O9 0.922389 0.500000 0.134464
O O10 0.916514 0.241195 0.196073
O O11 0.000000 0.314278 0.139718
O O12 0.375649 0.500000 0.256083
O O13 0.366362 0.246347 0.193646
O O14 0.316673 0.286030 0.304853
O O15 0.725469 0.776062 0.853930
O O16 0.659898 0.000000 0.866577
O O17 0.784503 0.000000 0.113884
#
# Coordination Sequence:
#
# PCOD8289152 Si02
#       7
#     8   8   8  16  16  16  16
#     4   9  17  32  55  78  99 128 167 210 255 300
#     4   9  17  31  50  72  98 129 167 207 245 290
#     4   9  17  28  46  69  94 130 173 212 247 286
#     4  10  21  37  55  75 100 131 169 212 255 299
#     4  11  22  34  50  74 102 133 168 207 254 302
#     4  10  19  33  52  74 101 133 168 205 247 295
#     4   9  19  33  48  68  99 136 170 206 247 294
#
# _framework density 18.625878
#
# number of rings (size 3 to 8) (size 9 to 14) (size 15 to 20)
#    0.000    2.273    0.000    3.000    0.000    7.273 
#    0.000    0.909    0.000    0.000    0.000    0.636 
#    0.000    5.091    0.000    0.000    0.000    0.000 
#
# Total GULP energy -545735.852535 kJ/mol
# GULP energy per Si atom -12403.087558 kJ/mol
# Density = 1.858348 g / cm^3
# Si number density = 18.625878 Si / 1000 Ang^3
#
#
#
# Elastic Constant Matrix: (Units=GPa)
#
#
# Indices 1 2 3 4 5 6 
#
# 1 29.6830 26.3759 30.1844 0.0000 0.0000 0.0000
# 2 26.3759 118.6723 77.0223 0.0000 0.0000 0.0000
# 3 30.1844 77.0223 164.8051 0.0000 0.0000 0.0000
# 4 0.0000 0.0000 0.0000 39.1293 0.0000 0.0000
# 5 0.0000 0.0000 0.0000 0.0000 10.7670 0.0000
# 6 0.0000 0.0000 0.0000 0.0000 0.0000 22.3320
#
#
#
# Elastic Compliance Matrix: (Units=1/GPa)
#
#
# Indices 1 2 3 4 5 6 
#
# 1 0.044775 -0.006645 -0.005095 0.000000 0.000000 0.000000
# 2 -0.006645 0.013082 -0.004897 0.000000 0.000000 0.000000
# 3 -0.005095 -0.004897 0.009289 0.000000 0.000000 0.000000
# 4 0.000000 0.000000 0.000000 0.025556 0.000000 0.000000
# 5 0.000000 0.000000 0.000000 0.000000 0.092876 0.000000
# 6 0.000000 0.000000 0.000000 0.000000 0.000000 0.044779
#
#
# Mechanical properties :
#
#
# Convention : Reuss Voigt Hill
#
# Bulk Modulus (GPa) = 29.52226 64.48064 47.00145
# Shear Modulus (GPa) = 18.18702 26.41752 22.30227
#
# Velocity S-wave (km/s) = 3.12819 3.77015 3.46407
# Velocity P-wave (km/s) = 5.37885 7.32435 6.42565
#
# Compressibility (1/GPa) = 0.03387274
#
# Stress axis : x y z
#
# Youngs Moduli (GPa) = 22.33396 76.44369 107.64862
#
# Poissons Ratio (x) = 0.50794 0.54850
# Poissons Ratio (y) = 0.14840 0.52713
# Poissons Ratio (z) = 0.11380 0.37432
#
# Static dielectric constant tensor:
#      x y z
#    x 3.026350 0.000000 0.000000 
#    y 0.000000 3.555950 0.000000 
#    z 0.000000 0.000000 3.496580 
# 
# 
# High freq. dielectric constant tensor:
#      x y z
#    x 1.678940 0.000000 0.000000 
#    y 0.000000 1.738010 0.000000 
#    z 0.000000 0.000000 1.727260 
# 
# From -- ./inp_files/49284.got.cif
#   From: 2010.06.25/outbox.cif.g09.slc.cpg/sg71_25_cif.got.tgz:49284.got - 2010.06.28 04:59:45.
