data_PCOD8289135
_publ_section_title
;
Structure prediction by ZEFSAII (Michael W. Deem and Ramdas Pophale) SiO2 
 PCOD8289135
Probable space group: I M M M
;
_chemical_formula_sum "Si O2"
_cell_formula_units_Z 72
_cell_length_a 16.046273
_cell_length_b 18.473745
_cell_length_c 12.977227
_cell_angle_alpha 90.000000
_cell_angle_beta 90.000000
_cell_angle_gamma 90.000000
_cell_volume 3846.901114
_symmetry_space_group_name_H-M "I M M M"
_symmetry_group_IT_number 71
_symmetry_cell_setting 'orthorhombic'
loop_
_space_group_symop_operation_xyz
x,y,z
-x,-y,z
x,-y,-z
-x,y,-z
-x,-y,-z
x,y,-z
-x,y,z
x,-y,z
1/2+x,1/2+y,1/2+z
1/2-x,1/2-y,1/2+z
1/2+x,1/2-y,1/2-z
1/2-x,1/2+y,1/2-z
1/2-x,1/2-y,1/2-z
1/2+x,1/2+y,1/2-z
1/2-x,1/2+y,1/2+z
1/2+x,1/2-y,1/2+z
loop_
_atom_site_type_symbol
_atom_site_label
_atom_site_fract_x
_atom_site_fract_y
_atom_site_fract_z
Si Si1 0.750717 0.500000 0.880238
Si Si2 0.092864 0.126899 0.884680
Si Si3 0.500000 0.086405 0.622719
Si Si4 0.250807 0.782072 0.114134
Si Si5 0.907174 0.000000 0.271366
Si Si6 0.175394 0.644759 0.195447
O O1 0.650707 0.500000 0.872295
O O2 0.784051 0.566817 0.815258
O O3 0.780041 0.500000 0.000000
O O4 0.157621 0.190169 0.864637
O O5 0.000000 0.159058 0.870954
O O6 0.111728 0.067568 0.800317
O O7 0.103260 0.094081 0.000000
O O8 0.500000 0.089506 0.500000
O O9 0.579067 0.132341 0.664267
O O10 0.500000 0.000000 0.656340
O O11 0.234740 0.696302 0.125636
O O12 0.317675 0.820394 0.189653
O O13 0.284057 0.799177 0.000000
O O14 0.000000 0.000000 0.315202
#
# Coordination Sequence:
#
# PCOD8289135 Si02
#       6
#     8  16   8  16   8  16
#     4  12  22  37  57  78 111 152 194 240 293 349
#     4   9  17  30  52  82 112 140 175 224 279 332
#     4  11  22  38  63  91 119 154 204 261 307 348
#     4  10  21  38  60  86 117 153 191 235 296 361
#     4  10  19  33  51  78 112 145 186 228 275 337
#     4  11  23  39  59  88 118 151 194 250 299 356
#
# _framework density 18.716363000000001
#
# number of rings (size 3 to 8) (size 9 to 14) (size 15 to 20)
#    0.000    1.667    3.333    2.333    1.556    1.556 
#    0.000    1.111    0.000    0.667    0.000    0.000 
#    0.000    0.000    0.000    0.000    0.000    0.000 
#
# Total GULP energy -445994.395553 kJ/mol
# GULP energy per Si atom -12388.733210 kJ/mol
# Density = 1.867376 g / cm^3
# Si number density = 18.716363 Si / 1000 Ang^3
#
#
#
# Elastic Constant Matrix: (Units=GPa)
#
#
# Indices 1 2 3 4 5 6 
#
# 1 99.0448 35.2580 46.9708 0.0000 0.0000 0.0000
# 2 35.2580 108.1496 32.2784 0.0000 0.0000 0.0000
# 3 46.9708 32.2784 97.9252 0.0000 0.0000 0.0000
# 4 0.0000 0.0000 0.0000 16.4770 0.0000 0.0000
# 5 0.0000 0.0000 0.0000 0.0000 29.6544 0.0000
# 6 0.0000 0.0000 0.0000 0.0000 0.0000 23.4646
#
#
#
# Elastic Compliance Matrix: (Units=1/GPa)
#
#
# Indices 1 2 3 4 5 6 
#
# 1 0.013792 -0.002797 -0.005694 0.000000 0.000000 0.000000
# 2 -0.002797 0.010823 -0.002226 0.000000 0.000000 0.000000
# 3 -0.005694 -0.002226 0.013677 0.000000 0.000000 0.000000
# 4 0.000000 0.000000 0.000000 0.060691 0.000000 0.000000
# 5 0.000000 0.000000 0.000000 0.000000 0.033722 0.000000
# 6 0.000000 0.000000 0.000000 0.000000 0.000000 0.042617
#
#
# Mechanical properties :
#
#
# Convention : Reuss Voigt Hill
#
# Bulk Modulus (GPa) = 59.31714 59.34822 59.33268
# Shear Modulus (GPa) = 24.70677 26.62670 25.66673
#
# Velocity S-wave (km/s) = 3.63721 3.77589 3.70720
# Velocity P-wave (km/s) = 7.02855 7.12656 7.07772
#
# Compressibility (1/GPa) = 0.01685853
#
# Stress axis : x y z
#
# Youngs Moduli (GPa) = 72.50436 92.39894 73.11803
#
# Poissons Ratio (x) = 0.25845 0.41631
# Poissons Ratio (y) = 0.20280 0.16274
# Poissons Ratio (z) = 0.41281 0.20565
#
# Static dielectric constant tensor:
#      x y z
#    x 3.531020 0.000000 0.000000 
#    y 0.000000 3.623260 0.000000 
#    z 0.000000 0.000000 3.402310 
# 
# 
# High freq. dielectric constant tensor:
#      x y z
#    x 1.721680 0.000000 0.000000 
#    y 0.000000 1.735460 0.000000 
#    z 0.000000 0.000000 1.716400 
# 
# From -- ./inp_files/34139.got.cif
#   From: 2010.06.25/outbox.cif.g09.slc.cpg/sg71_18_cif.got.tgz:34139.got - 2010.06.28 04:59:45.
