data_PCOD8289320
_publ_section_title
;
Structure prediction by ZEFSAII (Michael W. Deem and Ramdas Pophale) SiO2 
 PCOD8289320
Probable space group: I M M M
;
_chemical_formula_sum "Si O2"
_cell_formula_units_Z 88
_cell_length_a 19.372418
_cell_length_b 28.566997
_cell_length_c 8.041963
_cell_angle_alpha 90.000000
_cell_angle_beta 90.000000
_cell_angle_gamma 90.000000
_cell_volume 4450.517275
_symmetry_space_group_name_H-M "I M M M"
_symmetry_group_IT_number 71
_symmetry_cell_setting 'orthorhombic'
loop_
_space_group_symop_operation_xyz
x,y,z
-x,-y,z
x,-y,-z
-x,y,-z
-x,-y,-z
x,y,-z
-x,y,z
x,-y,z
1/2+x,1/2+y,1/2+z
1/2-x,1/2-y,1/2+z
1/2+x,1/2-y,1/2-z
1/2-x,1/2+y,1/2-z
1/2-x,1/2-y,1/2-z
1/2+x,1/2+y,1/2-z
1/2-x,1/2+y,1/2+z
1/2+x,1/2-y,1/2+z
loop_
_atom_site_type_symbol
_atom_site_label
_atom_site_fract_x
_atom_site_fract_y
_atom_site_fract_z
Si Si1 0.313123 0.801248 0.691381
Si Si2 0.077332 0.555025 0.500000
Si Si3 0.692642 0.448298 0.807320
Si Si4 0.341636 0.294155 0.190944
Si Si5 0.922920 0.120771 0.191352
Si Si6 0.837808 0.406499 0.194777
O O1 0.309336 0.786645 0.500000
O O2 0.357829 0.761184 0.784806
O O3 0.235143 0.803551 0.762703
O O4 0.348697 0.851089 0.716671
O O5 0.078692 0.500000 0.500000
O O6 0.110964 0.570463 0.325797
O O7 0.000000 0.575021 0.500000
O O8 0.687010 0.500000 0.721805
O O9 0.625324 0.417405 0.777190
O O10 0.760983 0.421153 0.746694
O O11 0.700327 0.456297 0.000000
O O12 0.395557 0.326329 0.288422
O O13 0.346890 0.309128 0.000000
O O14 0.000000 0.117499 0.268140
O O15 0.925135 0.107820 0.000000
O O16 0.852379 0.420739 0.000000
#
# Coordination Sequence:
#
# PCOD8289320 Si02
#       6
#    16   8  16  16  16  16
#     4   9  18  33  57  89 119 147 191 246 300 358
#     4  11  26  44  64  94 127 161 203 247 307 385
#     4  10  21  38  61  89 118 153 204 258 305 358
#     4  10  19  33  56  85 115 151 194 243 297 359
#     4  11  24  39  55  80 120 165 206 253 307 364
#     4  10  21  40  66  95 126 160 202 256 309 362
#
# _framework density 19.772983
#
# number of rings (size 3 to 8) (size 9 to 14) (size 15 to 20)
#    0.000    1.909    1.818    1.636    2.545    4.364 
#    0.000    3.636    0.000    1.091    0.000    0.000 
#    0.000    0.000    0.000    0.000    0.000    0.000 
#
# Total GULP energy -545438.871045 kJ/mol
# GULP energy per Si atom -12396.337978 kJ/mol
# Density = 1.972798 g / cm^3
# Si number density = 19.772983 Si / 1000 Ang^3
#
#
#
# Elastic Constant Matrix: (Units=GPa)
#
#
# Indices 1 2 3 4 5 6 
#
# 1 121.1944 54.5401 36.5139 0.0000 0.0000 0.0000
# 2 54.5401 125.3131 25.3221 0.0000 0.0000 0.0000
# 3 36.5139 25.3221 58.4438 0.0000 0.0001 0.0000
# 4 0.0000 0.0000 0.0000 31.0839 0.0000 0.0000
# 5 0.0000 0.0000 0.0001 0.0000 22.1542 0.0000
# 6 0.0000 0.0000 0.0000 0.0000 0.0000 24.9331
#
#
#
# Elastic Compliance Matrix: (Units=1/GPa)
#
#
# Indices 1 2 3 4 5 6 
#
# 1 0.011727 -0.003971 -0.005606 0.000000 0.000000 0.000000
# 2 -0.003971 0.010091 -0.001891 0.000000 0.000000 0.000000
# 3 -0.005606 -0.001891 0.021432 0.000000 0.000000 0.000000
# 4 0.000000 0.000000 0.000000 0.032171 0.000000 0.000000
# 5 0.000000 0.000000 0.000000 0.000000 0.045138 0.000000
# 6 0.000000 0.000000 0.000000 0.000000 0.000000 0.040107
#
#
# Mechanical properties :
#
#
# Convention : Reuss Voigt Hill
#
# Bulk Modulus (GPa) = 49.22831 59.74484 54.48657
# Shear Modulus (GPa) = 26.26399 28.20593 27.23496
#
# Velocity S-wave (km/s) = 3.64851 3.78099 3.71534
# Velocity P-wave (km/s) = 6.53449 7.02439 6.78387
#
# Compressibility (1/GPa) = 0.02031352
#
# Stress axis : x y z
#
# Youngs Moduli (GPa) = 85.26995 99.10307 46.65840
#
# Poissons Ratio (x) = 0.39357 0.26158
# Poissons Ratio (y) = 0.33863 0.08822
# Poissons Ratio (z) = 0.47805 0.18739
#
# Static dielectric constant tensor:
#      x y z
#    x 3.608720 0.000000 0.000000 
#    y 0.000000 3.802010 0.000000 
#    z 0.000000 0.000000 3.520130 
# 
# 
# High freq. dielectric constant tensor:
#      x y z
#    x 1.742360 0.000000 0.000000 
#    y 0.000000 1.785790 0.000000 
#    z 0.000000 0.000000 1.768910 
# 
# From -- ./inp_files/8805.got.cif
#   From: 2010.06.25/outbox.cif.g09.slc.cpg/sg71_5_cif.got.tgz:8805.got - 2010.06.28 04:59:45.
