data_PCOD8289000
_publ_section_title
;
Structure prediction by ZEFSAII (Michael W. Deem and Ramdas Pophale) SiO2 
 PCOD8289000
Probable space group: I M M M
;
_chemical_formula_sum "Si O2"
_cell_formula_units_Z 104
_cell_length_a 14.367879
_cell_length_b 20.745625
_cell_length_c 17.665009
_cell_angle_alpha 90.000000
_cell_angle_beta 90.000000
_cell_angle_gamma 90.000000
_cell_volume 5265.420358
_symmetry_space_group_name_H-M "I M M M"
_symmetry_group_IT_number 71
_symmetry_cell_setting 'orthorhombic'
loop_
_space_group_symop_operation_xyz
x,y,z
-x,-y,z
x,-y,-z
-x,y,-z
-x,-y,-z
x,y,-z
-x,y,z
x,-y,z
1/2+x,1/2+y,1/2+z
1/2-x,1/2-y,1/2+z
1/2+x,1/2-y,1/2-z
1/2-x,1/2+y,1/2-z
1/2-x,1/2-y,1/2-z
1/2+x,1/2+y,1/2-z
1/2-x,1/2+y,1/2+z
1/2+x,1/2-y,1/2+z
loop_
_atom_site_type_symbol
_atom_site_label
_atom_site_fract_x
_atom_site_fract_y
_atom_site_fract_z
Si Si1 0.393904 0.500000 0.590156
Si Si2 0.225511 0.119979 0.089643
Si Si3 0.602303 0.265590 0.588663
Si Si4 0.106267 0.362389 0.165295
Si Si5 0.236573 0.072270 0.412366
Si Si6 0.393047 0.824170 0.163680
Si Si7 0.107671 0.809105 0.586814
O O1 0.500000 0.500000 0.622269
O O2 0.399092 0.500000 0.500000
O O3 0.335892 0.439085 0.620563
O O4 0.174680 0.183475 0.122059
O O5 0.330142 0.121713 0.122242
O O6 0.232578 0.116919 0.000000
O O7 0.596327 0.276281 0.500000
O O8 0.500000 0.277243 0.625213
O O9 0.634923 0.193588 0.606383
O O10 0.173497 0.421012 0.142569
O O11 0.123255 0.332739 0.247636
O O12 0.000000 0.385690 0.155538
O O13 0.265751 0.080799 0.500000
O O14 0.161345 0.126123 0.388297
O O15 0.196193 0.000000 0.399261
O O16 0.500000 0.837303 0.140475
O O17 0.363423 0.751898 0.138515
O O18 0.130735 0.790215 0.500000
O O19 0.000000 0.825709 0.597263
#
# Coordination Sequence:
#
# PCOD8289000 Si02
#       7
#     8  16  16  16  16  16  16
#     4   9  18  34  55  79 107 137 171 210 258 320
#     4  10  19  32  53  79 107 140 176 217 265 313
#     4   9  17  30  51  79 106 132 169 220 274 324
#     4  10  21  36  53  76 105 140 180 225 275 323
#     4  10  21  36  55  81 110 142 182 225 271 330
#     4  10  21  36  54  78 107 143 184 225 270 318
#     4   9  18  34  57  84 113 144 179 223 273 324
#
# _framework density 19.75151
#
# number of rings (size 3 to 8) (size 9 to 14) (size 15 to 20)
#    0.000    2.385    0.000    2.308    0.000    9.231 
#    1.385    2.692    0.000    2.308    0.000    0.000 
#    0.000    0.000    0.000    0.000    0.000    0.000 
#
# Total GULP energy -644667.804351 kJ/mol
# GULP energy per Si atom -12397.457776 kJ/mol
# Density = 1.970655 g / cm^3
# Si number density = 19.751510 Si / 1000 Ang^3
#
#
#
# Elastic Constant Matrix: (Units=GPa)
#
#
# Indices 1 2 3 4 5 6 
#
# 1 114.4138 69.6559 33.2318 0.0000 0.0000 0.0000
# 2 69.6559 99.3999 27.7082 0.0001 0.0000 0.0000
# 3 33.2318 27.7082 42.3854 0.0002 0.0000 0.0000
# 4 0.0000 0.0001 0.0002 12.3207 0.0000 0.0000
# 5 0.0000 0.0000 0.0000 0.0000 25.7662 0.0000
# 6 0.0000 0.0000 0.0000 0.0000 0.0000 31.4099
#
#
#
# Elastic Compliance Matrix: (Units=1/GPa)
#
#
# Indices 1 2 3 4 5 6 
#
# 1 0.016640 -0.009812 -0.006632 0.000000 0.000000 0.000000
# 2 -0.009812 0.018088 -0.004131 0.000000 0.000000 0.000000
# 3 -0.006632 -0.004131 0.031494 -0.000001 0.000000 0.000000
# 4 0.000000 0.000000 -0.000001 0.081164 0.000000 0.000000
# 5 0.000000 0.000000 0.000000 0.000000 0.038810 0.000000
# 6 0.000000 0.000000 0.000000 0.000000 0.000000 0.031837
#
#
# Mechanical properties :
#
#
# Convention : Reuss Voigt Hill
#
# Bulk Modulus (GPa) = 39.88754 57.48788 48.68771
# Shear Modulus (GPa) = 18.68866 22.27292 20.48079
#
# Velocity S-wave (km/s) = 3.07936 3.36170 3.22362
# Velocity P-wave (km/s) = 5.73426 6.65108 6.20961
#
# Compressibility (1/GPa) = 0.02507048
#
# Stress axis : x y z
#
# Youngs Moduli (GPa) = 60.09536 55.28523 31.75234
#
# Poissons Ratio (x) = 0.54246 0.21059
# Poissons Ratio (y) = 0.58966 0.13118
# Poissons Ratio (z) = 0.39856 0.22841
#
# Static dielectric constant tensor:
#      x y z
#    x 3.830130 0.000000 0.000000 
#    y 0.000000 3.573930 0.000000 
#    z 0.000000 0.000000 3.316620 
# 
# 
# High freq. dielectric constant tensor:
#      x y z
#    x 1.781460 0.000000 0.000000 
#    y 0.000000 1.759010 0.000000 
#    z 0.000000 0.000000 1.743040 
# 
# From -- ./inp_files/44990.got.cif
#   From: 2010.06.25/outbox.cif.g09.slc.cpg/sg71_23_cif.got.tgz:44990.got - 2010.06.28 04:59:45.
