data_PCOD8289841
_publ_section_title
;
Structure prediction by ZEFSAII (Michael W. Deem and Ramdas Pophale) SiO2 
 PCOD8289841
Probable space group: I M M M
;
_chemical_formula_sum "Si O2"
_cell_formula_units_Z 120
_cell_length_a 30.329714
_cell_length_b 14.493465
_cell_length_c 14.055199
_cell_angle_alpha 90.000000
_cell_angle_beta 90.000000
_cell_angle_gamma 90.000000
_cell_volume 6178.421599
_symmetry_space_group_name_H-M "I M M M"
_symmetry_group_IT_number 71
_symmetry_cell_setting 'orthorhombic'
loop_
_space_group_symop_operation_xyz
x,y,z
-x,-y,z
x,-y,-z
-x,y,-z
-x,-y,-z
x,y,-z
-x,y,z
x,-y,z
1/2+x,1/2+y,1/2+z
1/2-x,1/2-y,1/2+z
1/2+x,1/2-y,1/2-z
1/2-x,1/2+y,1/2-z
1/2-x,1/2-y,1/2-z
1/2+x,1/2+y,1/2-z
1/2-x,1/2+y,1/2+z
1/2+x,1/2-y,1/2+z
loop_
_atom_site_type_symbol
_atom_site_label
_atom_site_fract_x
_atom_site_fract_y
_atom_site_fract_z
Si Si1 0.500000 0.605531 0.112134
Si Si2 0.840732 0.649056 0.106547
Si Si3 0.621835 0.893498 0.203793
Si Si4 0.254049 0.605167 0.896516
Si Si5 0.212474 0.394350 0.608799
Si Si6 0.914871 0.221666 0.386346
Si Si7 0.809188 0.851412 0.895394
Si Si8 0.161003 0.898213 0.298212
O O1 0.500000 0.500000 0.155016
O O2 0.541776 0.665714 0.145378
O O3 0.500000 0.595692 0.000000
O O4 0.878670 0.618576 0.180987
O O5 0.794485 0.610081 0.148770
O O6 0.836267 0.757668 0.100854
O O7 0.851013 0.609278 0.000000
O O8 0.670314 0.861254 0.169032
O O9 0.585280 0.827063 0.154035
O O10 0.611370 0.000000 0.176321
O O11 0.267704 0.500000 0.909538
O O12 0.292853 0.648084 0.832978
O O13 0.252808 0.655599 0.000000
O O14 0.197698 0.383821 0.500000
O O15 0.224762 0.500000 0.633861
O O16 0.257136 0.336010 0.630608
O O17 0.908996 0.222335 0.500000
O O18 0.875694 0.170558 0.333489
O O19 0.834687 0.909877 0.815746
O O20 0.811681 0.899804 0.000000
O O21 0.150734 0.000000 0.339855
#
# Coordination Sequence:
#
# PCOD8289841 Si02
#       8
#     8  16  16  16  16  16  16  16
#     4   9  20  42  69  93 118 145 169 201 261 342
#     4  10  20  33  49  72 107 153 201 241 279 318
#     4  11  22  36  55  81 112 149 192 235 278 325
#     4   9  18  30  44  68 103 143 188 236 283 327
#     4   9  18  31  46  68 104 152 197 234 278 332
#     4  11  23  39  61  88 115 142 175 217 268 331
#     4  10  20  32  47  71 106 150 200 242 279 322
#     4  11  21  33  52  79 108 142 184 234 286 328
#
# _framework density 19.422436000000001
#
# number of rings (size 3 to 8) (size 9 to 14) (size 15 to 20)
#    0.000    1.933    1.333    2.800    1.867    6.933 
#    0.000    0.333    0.000    1.200    0.000    1.867 
#    0.000    4.267    0.000    0.000    0.000    0.000 
#
# Total GULP energy -743504.167115 kJ/mol
# GULP energy per Si atom -12391.736119 kJ/mol
# Density = 1.937823 g / cm^3
# Si number density = 19.422436 Si / 1000 Ang^3
#
#
#
# Elastic Constant Matrix: (Units=GPa)
#
#
# Indices 1 2 3 4 5 6 
#
# 1 66.7471 36.3463 45.2639 0.0000 0.0000 0.0000
# 2 36.3463 87.2463 26.9384 0.0000 0.0000 0.0000
# 3 45.2639 26.9384 87.4510 0.0000 0.0000 0.0000
# 4 0.0000 0.0000 0.0000 21.8455 0.0000 0.0000
# 5 0.0000 0.0000 0.0000 0.0000 16.6698 0.0000
# 6 0.0000 0.0000 0.0000 0.0000 0.0000 19.7077
#
#
#
# Elastic Compliance Matrix: (Units=1/GPa)
#
#
# Indices 1 2 3 4 5 6 
#
# 1 0.027055 -0.007677 -0.011639 0.000000 0.000000 0.000000
# 2 -0.007677 0.014845 -0.000599 0.000000 0.000000 0.000000
# 3 -0.011639 -0.000599 0.017644 0.000000 0.000000 0.000000
# 4 0.000000 0.000000 0.000000 0.045776 0.000000 0.000000
# 5 0.000000 0.000000 0.000000 0.000000 0.059989 0.000000
# 6 0.000000 0.000000 0.000000 0.000000 0.000000 0.050742
#
#
# Mechanical properties :
#
#
# Convention : Reuss Voigt Hill
#
# Bulk Modulus (GPa) = 50.72640 50.94908 50.83774
# Shear Modulus (GPa) = 19.05112 20.50431 19.77771
#
# Velocity S-wave (km/s) = 3.13530 3.25268 3.19453
# Velocity P-wave (km/s) = 6.26745 6.35575 6.31176
#
# Compressibility (1/GPa) = 0.01971360
#
# Stress axis : x y z
#
# Youngs Moduli (GPa) = 36.96149 67.36188 56.67796
#
# Poissons Ratio (x) = 0.51717 0.65965
# Poissons Ratio (y) = 0.28377 0.03396
# Poissons Ratio (z) = 0.43018 0.04036
#
# Static dielectric constant tensor:
#      x y z
#    x 3.120030 0.000000 0.000000 
#    y 0.000000 3.592010 0.000000 
#    z 0.000000 0.000000 3.810540 
# 
# 
# High freq. dielectric constant tensor:
#      x y z
#    x 1.686250 0.000000 0.000000 
#    y 0.000000 1.765440 0.000000 
#    z 0.000000 0.000000 1.761560 
# 
# From -- ./inp_files/41140.got.cif
#   From: 2010.06.25/outbox.cif.g09.slc.cpg/sg71_21_cif.got.tgz:41140.got - 2010.06.28 04:59:45.
