data_PCOD8289096
_publ_section_title
;
Structure prediction by ZEFSAII (Michael W. Deem and Ramdas Pophale) SiO2 
 PCOD8289096
Probable space group: I M M M
;
_chemical_formula_sum "Si O2"
_cell_formula_units_Z 104
_cell_length_a 9.430897
_cell_length_b 32.325114
_cell_length_c 19.748823
_cell_angle_alpha 90.000000
_cell_angle_beta 90.000000
_cell_angle_gamma 90.000000
_cell_volume 6020.523894
_symmetry_space_group_name_H-M "I M M M"
_symmetry_group_IT_number 71
_symmetry_cell_setting 'orthorhombic'
loop_
_space_group_symop_operation_xyz
x,y,z
-x,-y,z
x,-y,-z
-x,y,-z
-x,-y,-z
x,y,-z
-x,y,z
x,-y,z
1/2+x,1/2+y,1/2+z
1/2-x,1/2-y,1/2+z
1/2+x,1/2-y,1/2-z
1/2-x,1/2+y,1/2-z
1/2-x,1/2-y,1/2-z
1/2+x,1/2+y,1/2-z
1/2-x,1/2+y,1/2+z
1/2+x,1/2-y,1/2+z
loop_
_atom_site_type_symbol
_atom_site_label
_atom_site_fract_x
_atom_site_fract_y
_atom_site_fract_z
Si Si1 0.337579 0.431098 0.639887
Si Si2 0.163680 0.725020 0.577151
Si Si3 0.335126 0.194044 0.422437
Si Si4 0.338576 0.453564 0.794711
Si Si5 0.335857 0.125207 0.681068
Si Si6 0.154922 0.500000 0.422537
Si Si7 0.836374 0.646494 0.666412
O O1 0.500000 0.429294 0.615250
O O2 0.326005 0.449598 0.714488
O O3 0.246319 0.459749 0.592015
O O4 0.269563 0.386035 0.633080
O O5 0.200404 0.710842 0.500000
O O6 0.253473 0.764703 0.598749
O O7 0.201793 0.689800 0.631424
O O8 0.000000 0.737363 0.582381
O O9 0.304178 0.182064 0.500000
O O10 0.500000 0.202536 0.409179
O O11 0.280136 0.156365 0.376378
O O12 0.500000 0.446786 0.818220
O O13 0.287414 0.500000 0.815098
O O14 0.243807 0.418367 0.829432
O O15 0.500000 0.114876 0.671514
O O16 0.307079 0.147365 0.753098
O O17 0.119181 0.500000 0.500000
O O18 0.000000 0.500000 0.384414
O O19 0.000000 0.634342 0.651841
#
# Coordination Sequence:
#
# PCOD8289096 Si02
#       7
#    16  16  16  16  16   8  16
#     4  10  19  33  50  69  94 124 159 202 247 289
#     4   9  18  32  49  68  93 128 165 197 237 291
#     4   9  18  33  51  70  96 127 159 199 243 288
#     4   9  17  31  50  72  98 125 153 192 240 288
#     4   9  18  31  48  73  98 124 161 199 240 289
#     4  11  23  35  47  65  91 127 168 205 244 289
#     4   9  18  32  48  70  99 127 158 201 244 288
#
# _framework density 17.274245000000001
#
# number of rings (size 3 to 8) (size 9 to 14) (size 15 to 20)
#    0.000    2.692    0.769    0.692    0.000    4.000 
#    0.000    1.538    0.000    0.462    0.000    3.231 
#    0.000    0.000    0.000    0.000    0.000    0.000 
#
# Total GULP energy -644709.829704 kJ/mol
# GULP energy per Si atom -12398.265956 kJ/mol
# Density = 1.723493 g / cm^3
# Si number density = 17.274245 Si / 1000 Ang^3
#
#
#
# Elastic Constant Matrix: (Units=GPa)
#
#
# Indices 1 2 3 4 5 6 
#
# 1 95.4749 78.8892 41.8417 0.0000 0.0000 0.0000
# 2 78.8892 163.3296 68.8421 0.0000 0.0000 0.0000
# 3 41.8417 68.8421 62.7069 0.0003 0.0002 0.0002
# 4 0.0000 0.0000 0.0003 22.4376 0.0000 0.0000
# 5 0.0000 0.0000 0.0002 0.0000 17.7893 0.0001
# 6 0.0000 0.0000 0.0002 0.0000 0.0001 35.3937
#
#
#
# Elastic Compliance Matrix: (Units=1/GPa)
#
#
# Indices 1 2 3 4 5 6 
#
# 1 0.018122 -0.006806 -0.004621 0.000000 0.000000 0.000000
# 2 -0.006806 0.013951 -0.010775 0.000000 0.000000 0.000000
# 3 -0.004621 -0.010775 0.030860 0.000000 0.000000 0.000000
# 4 0.000000 0.000000 0.000000 0.044568 0.000000 0.000000
# 5 0.000000 0.000000 0.000000 0.000000 0.056213 0.000000
# 6 0.000000 0.000000 0.000000 0.000000 0.000000 0.028254
#
#
# Mechanical properties :
#
#
# Convention : Reuss Voigt Hill
#
# Bulk Modulus (GPa) = 53.96559 77.85083 65.90821
# Shear Modulus (GPa) = 20.61434 23.92002 22.26718
#
# Velocity S-wave (km/s) = 3.45825 3.72522 3.59421
# Velocity P-wave (km/s) = 6.87417 7.97925 7.44724
#
# Compressibility (1/GPa) = 0.01853033
#
# Stress axis : x y z
#
# Youngs Moduli (GPa) = 55.18042 71.67708 32.40417
#
# Poissons Ratio (x) = 0.48780 0.14974
# Poissons Ratio (y) = 0.37553 0.34917
# Poissons Ratio (z) = 0.25498 0.77235
#
# Static dielectric constant tensor:
#      x y z
#    x 3.300480 0.000000 0.000000 
#    y 0.000000 3.257810 0.000000 
#    z 0.000000 0.000000 3.072110 
# 
# 
# High freq. dielectric constant tensor:
#      x y z
#    x 1.671810 0.000000 0.000000 
#    y 0.000000 1.668510 0.000000 
#    z 0.000000 0.000000 1.643090 
# 
# From -- ./inp_files/11145.got.cif
#   From: 2010.06.25/outbox.cif.g09.slc.cpg/sg71_6_cif.got.tgz:11145.got - 2010.06.28 04:59:45.
