data_PCOD8289695
_publ_section_title
;
Structure prediction by ZEFSAII (Michael W. Deem and Ramdas Pophale) SiO2 
 PCOD8289695
Probable space group: I M M M
;
_chemical_formula_sum "Si O2"
_cell_formula_units_Z 104
_cell_length_a 9.442301
_cell_length_b 27.897579
_cell_length_c 24.362118
_cell_angle_alpha 90.000000
_cell_angle_beta 90.000000
_cell_angle_gamma 90.000000
_cell_volume 6417.404274
_symmetry_space_group_name_H-M "I M M M"
_symmetry_group_IT_number 71
_symmetry_cell_setting 'orthorhombic'
loop_
_space_group_symop_operation_xyz
x,y,z
-x,-y,z
x,-y,-z
-x,y,-z
-x,-y,-z
x,y,-z
-x,y,z
x,-y,z
1/2+x,1/2+y,1/2+z
1/2-x,1/2-y,1/2+z
1/2+x,1/2-y,1/2-z
1/2-x,1/2+y,1/2-z
1/2-x,1/2-y,1/2-z
1/2+x,1/2+y,1/2-z
1/2-x,1/2+y,1/2+z
1/2+x,1/2-y,1/2+z
loop_
_atom_site_type_symbol
_atom_site_label
_atom_site_fract_x
_atom_site_fract_y
_atom_site_fract_z
Si Si1 0.658707 0.552865 0.434737
Si Si2 0.169200 0.396849 0.938482
Si Si3 0.341032 0.288625 0.371081
Si Si4 0.345613 0.000000 0.435095
Si Si5 0.159359 0.359608 0.434861
Si Si6 0.836515 0.798625 0.749926
Si Si7 0.165826 0.678412 0.152103
O O1 0.660852 0.554140 0.500000
O O2 0.500000 0.563678 0.413565
O O3 0.707709 0.500000 0.414500
O O4 0.762861 0.593224 0.410851
O O5 0.231127 0.449420 0.919422
O O6 0.220542 0.356428 0.896133
O O7 0.000000 0.399929 0.939144
O O8 0.223285 0.383725 0.000000
O O9 0.500000 0.293637 0.394398
O O10 0.234005 0.311617 0.414018
O O11 0.329831 0.316881 0.312804
O O12 0.302158 0.232691 0.365948
O O13 0.500000 0.000000 0.406601
O O14 0.365049 0.000000 0.500000
O O15 0.164143 0.358926 0.500000
O O16 0.000000 0.360689 0.412582
O O17 0.750000 0.750000 0.750000
O O18 0.757934 0.833950 0.706773
O O19 0.000000 0.790329 0.732295
O O20 0.000000 0.671074 0.165344
#
# Coordination Sequence:
#
# PCOD8289695 Si02
#       7
#    16  16  16   8  16  16  16
#     4   8  14  26  44  63  82 107 140 174 206 246
#     4   8  13  22  38  63  94 123 151 184 222 265
#     4   9  18  30  43  60  83 114 149 182 217 262
#     4   7  10  18  34  58  89 121 149 181 220 257
#     4  10  20  30  41  62  90 117 143 174 217 263
#     4   9  17  30  47  65  84 108 143 186 223 259
#     4   9  17  28  44  67  90 114 148 186 223 264
#
# _framework density 16.205929000000001
#
# number of rings (size 3 to 8) (size 9 to 14) (size 15 to 20)
#    0.000    3.308    0.000    3.231    0.000    4.923 
#    0.000    3.077    0.000    0.462    2.000    0.538 
#    0.000    1.846    0.000    0.000    0.000    0.000 
#
# Total GULP energy -644200.013119 kJ/mol
# GULP energy per Si atom -12388.461791 kJ/mol
# Density = 1.616904 g / cm^3
# Si number density = 16.205929 Si / 1000 Ang^3
#
#
#
# Elastic Constant Matrix: (Units=GPa)
#
#
# Indices 1 2 3 4 5 6 
#
# 1 75.2201 39.5681 22.4912 0.0000 0.0000 0.0000
# 2 39.5681 99.0426 42.1604 0.0000 0.0000 0.0000
# 3 22.4912 42.1604 50.9948 0.0000 0.0000 0.0000
# 4 0.0000 0.0000 0.0000 8.4879 0.0000 0.0000
# 5 0.0000 0.0000 0.0000 0.0000 24.1808 0.0000
# 6 0.0000 0.0000 0.0000 0.0000 0.0000 14.9069
#
#
#
# Elastic Compliance Matrix: (Units=1/GPa)
#
#
# Indices 1 2 3 4 5 6 
#
# 1 0.017109 -0.005591 -0.002924 0.000000 0.000000 0.000000
# 2 -0.005591 0.017406 -0.011925 0.000000 0.000000 0.000000
# 3 -0.002924 -0.011925 0.030759 0.000000 0.000000 0.000000
# 4 0.000000 0.000000 0.000000 0.117815 0.000000 0.000000
# 5 0.000000 0.000000 0.000000 0.000000 0.041355 0.000000
# 6 0.000000 0.000000 0.000000 0.000000 0.000000 0.067083
#
#
# Mechanical properties :
#
#
# Convention : Reuss Voigt Hill
#
# Bulk Modulus (GPa) = 40.99204 48.18855 44.59029
# Shear Modulus (GPa) = 14.68258 17.58429 16.13343
#
# Velocity S-wave (km/s) = 3.01325 3.29759 3.15862
# Velocity P-wave (km/s) = 6.12010 6.65571 6.39352
#
# Compressibility (1/GPa) = 0.02439498
#
# Stress axis : x y z
#
# Youngs Moduli (GPa) = 58.44717 57.44985 32.51106
#
# Poissons Ratio (x) = 0.32118 0.09506
# Poissons Ratio (y) = 0.32676 0.38770
# Poissons Ratio (z) = 0.17090 0.68510
#
# Static dielectric constant tensor:
#      x y z
#    x 3.032960 0.000000 0.000000 
#    y 0.000000 3.231640 0.000000 
#    z 0.000000 0.000000 3.089390 
# 
# 
# High freq. dielectric constant tensor:
#      x y z
#    x 1.604330 0.000000 0.000000 
#    y 0.000000 1.613840 0.000000 
#    z 0.000000 0.000000 1.593620 
# 
# From -- ./inp_files/58189.got.cif
#   From: 2010.06.25/outbox.cif.g09.slc.cpg/sg71_30_cif.got.tgz:58189.got - 2010.06.28 04:59:45.
