data_PCOD8289518
_publ_section_title
;
Structure prediction by ZEFSAII (Michael W. Deem and Ramdas Pophale) SiO2 
 PCOD8289518
Probable space group: I M M M
;
_chemical_formula_sum "Si O2"
_cell_formula_units_Z 96
_cell_length_a 13.584414
_cell_length_b 22.502494
_cell_length_c 15.673620
_cell_angle_alpha 90.000000
_cell_angle_beta 90.000000
_cell_angle_gamma 90.000000
_cell_volume 4791.162231
_symmetry_space_group_name_H-M "I M M M"
_symmetry_group_IT_number 71
_symmetry_cell_setting 'orthorhombic'
loop_
_space_group_symop_operation_xyz
x,y,z
-x,-y,z
x,-y,-z
-x,y,-z
-x,-y,-z
x,y,-z
-x,y,z
x,-y,z
1/2+x,1/2+y,1/2+z
1/2-x,1/2-y,1/2+z
1/2+x,1/2-y,1/2-z
1/2-x,1/2+y,1/2-z
1/2-x,1/2-y,1/2-z
1/2+x,1/2+y,1/2-z
1/2-x,1/2+y,1/2+z
1/2+x,1/2-y,1/2+z
loop_
_atom_site_type_symbol
_atom_site_label
_atom_site_fract_x
_atom_site_fract_y
_atom_site_fract_z
Si Si1 0.818321 0.242217 0.091142
Si Si2 0.385878 0.383219 0.400596
Si Si3 0.393876 0.746326 0.874311
Si Si4 0.888856 0.109499 0.598664
Si Si5 0.110796 0.332012 0.780044
Si Si6 0.261780 0.566524 0.251245
O O1 0.866754 0.183985 0.133587
O O2 0.701457 0.230685 0.075577
O O3 0.835807 0.304479 0.137973
O O4 0.869833 0.249776 0.000000
O O5 0.350880 0.390736 0.500000
O O6 0.500000 0.399201 0.392752
O O7 0.327811 0.425875 0.336197
O O8 0.500000 0.762472 0.918530
O O9 0.386982 0.675884 0.864840
O O10 0.389633 0.776197 0.782510
O O11 0.850235 0.106929 0.500000
O O12 0.821877 0.071545 0.662604
O O13 0.000000 0.084366 0.601810
O O14 0.170577 0.388103 0.745147
O O15 0.000000 0.353224 0.800692
O O16 0.218610 0.500000 0.254253
#
# Coordination Sequence:
#
# PCOD8289518 Si02
#       6
#    16  16  16  16  16  16
#     4  11  20  35  61  92 124 153 184 234 305 369
#     4  10  22  40  63  93 123 150 188 243 304 364
#     4  10  19  34  60  89 117 150 187 233 297 361
#     4  10  21  37  59  91 126 153 184 235 298 363
#     4  11  23  39  59  85 118 156 198 244 292 350
#     4  12  25  41  61  83 113 161 212 249 287 337
#
# _framework density 20.036892000000002
#
# number of rings (size 3 to 8) (size 9 to 14) (size 15 to 20)
#    0.000    1.333    3.333    3.000    0.000    5.667 
#    0.000    1.667    0.000    0.500    0.000    3.500 
#    0.000    0.000    0.000    0.000    0.000    0.000 
#
# Total GULP energy -594794.005806 kJ/mol
# GULP energy per Si atom -12391.541788 kJ/mol
# Density = 1.999129 g / cm^3
# Si number density = 20.036892 Si / 1000 Ang^3
#
#
#
# Elastic Constant Matrix: (Units=GPa)
#
#
# Indices 1 2 3 4 5 6 
#
# 1 111.3239 26.1633 44.5439 0.0000 0.0000 0.0000
# 2 26.1633 96.0386 47.4427 0.0000 0.0000 0.0000
# 3 44.5439 47.4427 95.4710 -0.0001 -0.0001 0.0000
# 4 0.0000 0.0000 -0.0001 3.1114 0.0000 0.0000
# 5 0.0000 0.0000 -0.0001 0.0000 6.8145 0.0000
# 6 0.0000 0.0000 0.0000 0.0000 0.0000 11.6445
#
#
#
# Elastic Compliance Matrix: (Units=1/GPa)
#
#
# Indices 1 2 3 4 5 6 
#
# 1 0.011072 -0.000615 -0.004860 0.000000 0.000000 0.000000
# 2 -0.000615 0.013834 -0.006588 0.000000 0.000000 0.000000
# 3 -0.004860 -0.006588 0.016016 0.000001 0.000000 0.000000
# 4 0.000000 0.000000 0.000001 0.321400 0.000001 0.000000
# 5 0.000000 0.000000 0.000000 0.000001 0.146745 0.000000
# 6 0.000000 0.000000 0.000000 0.000000 0.000000 0.085878
#
#
# Mechanical properties :
#
#
# Convention : Reuss Voigt Hill
#
# Bulk Modulus (GPa) = 59.53883 59.90371 59.72127
# Shear Modulus (GPa) = 8.00423 16.62632 12.31528
#
# Velocity S-wave (km/s) = 2.00085 2.88372 2.48186
# Velocity P-wave (km/s) = 5.92596 6.40698 6.17116
#
# Compressibility (1/GPa) = 0.01679576
#
# Stress axis : x y z
#
# Youngs Moduli (GPa) = 90.31721 72.28359 62.43932
#
# Poissons Ratio (x) = 0.04449 0.30346
# Poissons Ratio (y) = 0.05559 0.41133
# Poissons Ratio (z) = 0.43895 0.47618
#
# Static dielectric constant tensor:
#      x y z
#    x 3.882360 0.000000 0.000000 
#    y 0.000000 3.336710 0.000000 
#    z 0.000000 0.000000 3.696190 
# 
# 
# High freq. dielectric constant tensor:
#      x y z
#    x 1.783340 0.000000 0.000000 
#    y 0.000000 1.753290 0.000000 
#    z 0.000000 0.000000 1.787910 
# 
# From -- ./inp_files/34493.got.cif
#   From: 2010.06.25/outbox.cif.g09.slc.cpg/sg71_18_cif.got.tgz:34493.got - 2010.06.28 04:59:45.
