data_PCOD8289815
_publ_section_title
;
Structure prediction by ZEFSAII (Michael W. Deem and Ramdas Pophale) SiO2 
 PCOD8289815
Probable space group: I M M M
;
_chemical_formula_sum "Si O2"
_cell_formula_units_Z 88
_cell_length_a 19.568403
_cell_length_b 30.783137
_cell_length_c 8.859753
_cell_angle_alpha 90.000000
_cell_angle_beta 90.000000
_cell_angle_gamma 90.000000
_cell_volume 5336.909930
_symmetry_space_group_name_H-M "I M M M"
_symmetry_group_IT_number 71
_symmetry_cell_setting 'orthorhombic'
loop_
_space_group_symop_operation_xyz
x,y,z
-x,-y,z
x,-y,-z
-x,y,-z
-x,-y,-z
x,y,-z
-x,y,z
x,-y,z
1/2+x,1/2+y,1/2+z
1/2-x,1/2-y,1/2+z
1/2+x,1/2-y,1/2-z
1/2-x,1/2+y,1/2-z
1/2-x,1/2-y,1/2-z
1/2+x,1/2+y,1/2-z
1/2-x,1/2+y,1/2+z
1/2+x,1/2-y,1/2+z
loop_
_atom_site_type_symbol
_atom_site_label
_atom_site_fract_x
_atom_site_fract_y
_atom_site_fract_z
Si Si1 0.000000 0.950795 0.177642
Si Si2 0.211835 0.291150 0.823465
Si Si3 0.691179 0.369584 0.823599
Si Si4 0.076490 0.271255 0.676673
Si Si5 0.649410 0.449717 0.321217
Si Si6 0.576504 0.319278 0.671002
O O1 0.926478 0.932789 0.234381
O O2 0.000000 0.000000 0.228945
O O3 0.000000 0.946385 0.000000
O O4 0.250000 0.250000 0.750000
O O5 0.247844 0.336638 0.782877
O O6 0.134536 0.297865 0.764523
O O7 0.211343 0.282190 0.000000
O O8 0.704788 0.419048 0.766023
O O9 0.625512 0.356596 0.726827
O O10 0.675445 0.368678 0.000000
O O11 0.088665 0.276825 0.500000
O O12 0.085501 0.221079 0.717666
O O13 0.000000 0.287300 0.722843
O O14 0.657992 0.444143 0.500000
O O15 0.662223 0.500000 0.276337
O O16 0.594345 0.304709 0.500000
O O17 0.500000 0.338341 0.678402
#
# Coordination Sequence:
#
# PCOD8289815 Si02
#       6
#     8  16  16  16  16  16
#     4   7  12  26  47  67  87 115 155 203 245 281
#     4  11  22  35  51  71  99 135 170 204 245 292
#     4  11  23  34  47  70  98 129 163 206 254 293
#     4  10  20  34  52  73  98 127 161 206 253 293
#     4   9  18  33  51  69  91 123 164 206 247 295
#     4  10  20  32  47  67  92 128 171 207 243 292
#
# _framework density 16.488942000000002
#
# number of rings (size 3 to 8) (size 9 to 14) (size 15 to 20)
#    0.000    2.091    1.818    3.273    1.273    4.727 
#    0.000    0.000    0.000    1.636    0.000    0.000 
#    0.000    0.727    0.000    8.000    0.000    5.818 
#
# Total GULP energy -545193.526841 kJ/mol
# GULP energy per Si atom -12390.761974 kJ/mol
# Density = 1.645141 g / cm^3
# Si number density = 16.488942 Si / 1000 Ang^3
#
#
#
# Elastic Constant Matrix: (Units=GPa)
#
#
# Indices 1 2 3 4 5 6 
#
# 1 95.2324 58.0819 45.7645 0.0000 0.0001 0.0000
# 2 58.0819 88.3722 39.0875 0.0001 -0.0001 0.0001
# 3 45.7645 39.0875 67.4255 -0.0004 -0.0007 -0.0003
# 4 0.0000 0.0001 -0.0004 26.2790 -0.0001 0.0000
# 5 0.0001 -0.0001 -0.0007 -0.0001 25.0526 0.0000
# 6 0.0000 0.0001 -0.0003 0.0000 0.0000 25.3241
#
#
#
# Elastic Compliance Matrix: (Units=1/GPa)
#
#
# Indices 1 2 3 4 5 6 
#
# 1 0.020400 -0.009795 -0.008168 0.000000 0.000000 0.000000
# 2 -0.009795 0.019921 -0.004900 0.000000 0.000000 0.000000
# 3 -0.008168 -0.004900 0.023216 0.000000 0.000001 0.000000
# 4 0.000000 0.000000 0.000000 0.038053 0.000000 0.000000
# 5 0.000000 0.000000 0.000001 0.000000 0.039916 0.000000
# 6 0.000000 0.000000 0.000000 0.000000 0.000000 0.039488
#
#
# Mechanical properties :
#
#
# Convention : Reuss Voigt Hill
#
# Bulk Modulus (GPa) = 56.14707 59.65533 57.90120
# Shear Modulus (GPa) = 21.49101 22.53757 22.01429
#
# Velocity S-wave (km/s) = 3.61412 3.70108 3.65786
# Velocity P-wave (km/s) = 7.17921 7.38387 7.28226
#
# Compressibility (1/GPa) = 0.01781037
#
# Stress axis : x y z
#
# Youngs Moduli (GPa) = 49.02078 50.19915 43.07419
#
# Poissons Ratio (x) = 0.49169 0.35182
# Poissons Ratio (y) = 0.48014 0.21107
# Poissons Ratio (z) = 0.40039 0.24599
#
# Static dielectric constant tensor:
#      x y z
#    x 3.243480 0.000000 0.000000 
#    y 0.000000 3.019150 0.000000 
#    z 0.000000 0.000000 3.082370 
# 
# 
# High freq. dielectric constant tensor:
#      x y z
#    x 1.612730 0.000000 0.000000 
#    y 0.000000 1.615810 0.000000 
#    z 0.000000 0.000000 1.638270 
# 
# From -- ./inp_files/8873.got.cif
#   From: 2010.06.25/outbox.cif.g09.slc.cpg/sg71_5_cif.got.tgz:8873.got - 2010.06.28 04:59:45.
