data_PCOD8289548
_publ_section_title
;
Structure prediction by ZEFSAII (Michael W. Deem and Ramdas Pophale) SiO2 
 PCOD8289548
Probable space group: I M M M
;
_chemical_formula_sum "Si O2"
_cell_formula_units_Z 72
_cell_length_a 16.886561
_cell_length_b 8.908108
_cell_length_c 24.683016
_cell_angle_alpha 90.000000
_cell_angle_beta 90.000000
_cell_angle_gamma 90.000000
_cell_volume 3712.999678
_symmetry_space_group_name_H-M "I M M M"
_symmetry_group_IT_number 71
_symmetry_cell_setting 'orthorhombic'
loop_
_space_group_symop_operation_xyz
x,y,z
-x,-y,z
x,-y,-z
-x,y,-z
-x,-y,-z
x,y,-z
-x,y,z
x,-y,z
1/2+x,1/2+y,1/2+z
1/2-x,1/2-y,1/2+z
1/2+x,1/2-y,1/2-z
1/2-x,1/2+y,1/2-z
1/2-x,1/2-y,1/2-z
1/2+x,1/2+y,1/2-z
1/2-x,1/2+y,1/2+z
1/2+x,1/2-y,1/2+z
loop_
_atom_site_type_symbol
_atom_site_label
_atom_site_fract_x
_atom_site_fract_y
_atom_site_fract_z
Si Si1 0.412247 0.178503 0.240893
Si Si2 0.000000 0.321373 0.938451
Si Si3 0.092062 0.831329 0.438272
Si Si4 0.196356 0.675197 0.644476
Si Si5 0.363503 0.821773 0.641268
O O1 0.500000 0.236336 0.223899
O O2 0.345682 0.238244 0.199185
O O3 0.393468 0.239766 0.300819
O O4 0.411642 0.000000 0.240456
O O5 0.922120 0.264069 0.906228
O O6 0.000000 0.500000 0.940023
O O7 0.000000 0.256863 0.000000
O O8 0.119898 0.817282 0.500000
O O9 0.137556 0.705495 0.404824
O O10 0.000000 0.796078 0.432838
O O11 0.110735 0.000000 0.417091
O O12 0.214352 0.500000 0.649379
O O13 0.276370 0.761401 0.631009
O O14 0.361440 0.000000 0.641516
#
# Coordination Sequence:
#
# PCOD8289548 Si02
#       5
#    16   8  16  16  16
#     4   9  17  32  54  78 106 144 186 226 273 325
#     4   9  18  34  59  85 101 129 186 243 282 320
#     4   9  19  37  58  78 104 140 182 225 267 316
#     4  11  22  33  51  82 116 145 178 220 274 339
#     4  10  19  35  57  77 104 142 184 232 279 324
#
# _framework density 19.391328000000001
#
# number of rings (size 3 to 8) (size 9 to 14) (size 15 to 20)
#    0.000    2.333    1.111    2.667    0.000    2.667 
#    0.000    5.000    0.000    3.333    0.000    0.000 
#    0.000    0.000    0.000    0.000    0.000    0.000 
#
# Total GULP energy -446349.805462 kJ/mol
# GULP energy per Si atom -12398.605707 kJ/mol
# Density = 1.934719 g / cm^3
# Si number density = 19.391328 Si / 1000 Ang^3
#
#
#
# Elastic Constant Matrix: (Units=GPa)
#
#
# Indices 1 2 3 4 5 6 
#
# 1 114.9402 17.2589 77.5325 0.0000 0.0000 0.0000
# 2 17.2589 16.8202 19.8578 0.0000 0.0000 0.0000
# 3 77.5325 19.8578 140.7178 0.0000 0.0000 0.0000
# 4 0.0000 0.0000 0.0000 21.7731 0.0000 0.0000
# 5 0.0000 0.0000 0.0000 0.0000 20.7811 0.0000
# 6 0.0000 0.0000 0.0000 0.0000 0.0000 23.7903
#
#
#
# Elastic Compliance Matrix: (Units=1/GPa)
#
#
# Indices 1 2 3 4 5 6 
#
# 1 0.014415 -0.006496 -0.007025 0.000000 0.000000 0.000000
# 2 -0.006496 0.074265 -0.006901 0.000000 0.000000 0.000000
# 3 -0.007025 -0.006901 0.011951 0.000000 0.000000 0.000000
# 4 0.000000 0.000000 0.000000 0.045928 0.000000 0.000000
# 5 0.000000 0.000000 0.000000 0.000000 0.048121 0.000000
# 6 0.000000 0.000000 0.000000 0.000000 0.000000 0.042034
#
#
# Mechanical properties :
#
#
# Convention : Reuss Voigt Hill
#
# Bulk Modulus (GPa) = 16.72641 55.75295 36.23968
# Shear Modulus (GPa) = 16.80745 23.79084 20.29914
#
# Velocity S-wave (km/s) = 2.94726 3.50649 3.23896
# Velocity P-wave (km/s) = 4.49736 6.72368 5.71988
#
# Compressibility (1/GPa) = 0.05978571
#
# Stress axis : x y z
#
# Youngs Moduli (GPa) = 69.37409 13.46527 83.67458
#
# Poissons Ratio (x) = 0.08748 0.58785
# Poissons Ratio (y) = 0.45069 0.57741
# Poissons Ratio (z) = 0.48738 0.09292
#
# Static dielectric constant tensor:
#      x y z
#    x 3.601540 0.000000 0.000000 
#    y 0.000000 3.104140 0.000000 
#    z 0.000000 0.000000 3.763410 
# 
# 
# High freq. dielectric constant tensor:
#      x y z
#    x 1.764940 0.000000 0.000000 
#    y 0.000000 1.711170 0.000000 
#    z 0.000000 0.000000 1.762100 
# 
# From -- ./inp_files/6108.got.cif
#   From: 2010.06.25/outbox.cif.g09.slc.cpg/sg71_4_cif.got.tgz:6108.got - 2010.06.28 04:59:45.
