data_PCOD8289536
_publ_section_title
;
Structure prediction by ZEFSAII (Michael W. Deem and Ramdas Pophale) SiO2 
 PCOD8289536
Probable space group: I M M M
;
_chemical_formula_sum "Si O2"
_cell_formula_units_Z 96
_cell_length_a 24.652795
_cell_length_b 9.244148
_cell_length_c 22.509136
_cell_angle_alpha 90.000000
_cell_angle_beta 90.000000
_cell_angle_gamma 90.000000
_cell_volume 5129.698966
_symmetry_space_group_name_H-M "I M M M"
_symmetry_group_IT_number 71
_symmetry_cell_setting 'orthorhombic'
loop_
_space_group_symop_operation_xyz
x,y,z
-x,-y,z
x,-y,-z
-x,y,-z
-x,-y,-z
x,y,-z
-x,y,z
x,-y,z
1/2+x,1/2+y,1/2+z
1/2-x,1/2-y,1/2+z
1/2+x,1/2-y,1/2-z
1/2-x,1/2+y,1/2-z
1/2-x,1/2-y,1/2-z
1/2+x,1/2+y,1/2-z
1/2-x,1/2+y,1/2+z
1/2+x,1/2-y,1/2+z
loop_
_atom_site_type_symbol
_atom_site_label
_atom_site_fract_x
_atom_site_fract_y
_atom_site_fract_z
Si Si1 0.500000 0.173099 0.147781
Si Si2 0.000000 0.669949 0.218311
Si Si3 0.185372 0.671615 0.066157
Si Si4 0.884221 0.671461 0.175732
Si Si5 0.803353 0.163747 0.601686
Si Si6 0.804921 0.834340 0.739305
Si Si7 0.404181 0.835446 0.066270
O O1 0.500000 0.236103 0.214902
O O2 0.553121 0.231744 0.113209
O O3 0.500000 0.000000 0.145381
O O4 0.052783 0.717458 0.180839
O O5 0.000000 0.500000 0.227075
O O6 0.186551 0.500000 0.065228
O O7 0.138376 0.722842 0.111603
O O8 0.243517 0.729839 0.089183
O O9 0.172891 0.732386 0.000000
O O10 0.875741 0.500000 0.185055
O O11 0.853293 0.754449 0.227458
O O12 0.818634 0.171762 0.670347
O O13 0.847531 0.252169 0.565659
O O14 0.804731 0.000000 0.578151
O O15 0.750000 0.750000 0.750000
O O16 0.799096 0.000000 0.761251
O O17 0.391506 0.000000 0.083932
O O18 0.429164 0.825504 0.000000
#
# Coordination Sequence:
#
# PCOD8289536 Si02
#       7
#     8   8  16  16  16  16  16
#     4   9  17  32  50  71 100 137 174 213 266 314
#     4   9  18  31  54  80 105 139 178 221 268 312
#     4   9  17  31  51  73 103 142 175 208 258 316
#     4  10  19  35  55  80 109 140 179 220 263 316
#     4  10  20  34  51  74 104 140 175 207 258 320
#     4  11  21  34  54  81 108 139 175 218 268 316
#     4  10  20  33  51  75 102 136 179 222 257 299
#
# _framework density 18.714547
#
# number of rings (size 3 to 8) (size 9 to 14) (size 15 to 20)
#    0.000    2.167    1.667    2.250    0.000    4.667 
#    0.000    1.250    0.000    7.000    0.000    0.000 
#    0.000    1.333    0.000    0.000    0.000    0.000 
#
# Total GULP energy -595120.425994 kJ/mol
# GULP energy per Si atom -12398.342208 kJ/mol
# Density = 1.867195 g / cm^3
# Si number density = 18.714547 Si / 1000 Ang^3
#
#
#
# Elastic Constant Matrix: (Units=GPa)
#
#
# Indices 1 2 3 4 5 6 
#
# 1 163.5736 33.9540 74.1339 0.0000 0.0000 0.0000
# 2 33.9540 46.2797 21.5086 0.0000 0.0000 0.0000
# 3 74.1339 21.5086 130.0132 0.0000 0.0000 0.0000
# 4 0.0000 0.0000 0.0000 19.4750 0.0000 0.0000
# 5 0.0000 0.0000 0.0000 0.0000 30.8612 0.0000
# 6 0.0000 0.0000 0.0000 0.0000 0.0000 23.3353
#
#
#
# Elastic Compliance Matrix: (Units=1/GPa)
#
#
# Indices 1 2 3 4 5 6 
#
# 1 0.009067 -0.004603 -0.004408 0.000000 0.000000 0.000000
# 2 -0.004603 0.025745 -0.001634 0.000000 0.000000 0.000000
# 3 -0.004408 -0.001634 0.010476 0.000000 0.000000 0.000000
# 4 0.000000 0.000000 0.000000 0.051348 0.000000 0.000000
# 5 0.000000 0.000000 0.000000 0.000000 0.032403 0.000000
# 6 0.000000 0.000000 0.000000 0.000000 0.000000 0.042853
#
#
# Mechanical properties :
#
#
# Convention : Reuss Voigt Hill
#
# Bulk Modulus (GPa) = 41.67510 66.56216 54.11863
# Shear Modulus (GPa) = 24.85313 28.75232 26.80272
#
# Velocity S-wave (km/s) = 3.64814 3.92390 3.78853
# Velocity P-wave (km/s) = 6.32949 7.49490 6.93671
#
# Compressibility (1/GPa) = 0.02399515
#
# Stress axis : x y z
#
# Youngs Moduli (GPa) = 110.29041 38.84321 95.45998
#
# Poissons Ratio (x) = 0.17881 0.42083
# Poissons Ratio (y) = 0.50770 0.15600
# Poissons Ratio (z) = 0.48621 0.06348
#
# Static dielectric constant tensor:
#      x y z
#    x 4.256010 0.000000 0.000000 
#    y 0.000000 3.160100 0.000000 
#    z 0.000000 0.000000 3.754240 
# 
# 
# High freq. dielectric constant tensor:
#      x y z
#    x 1.727770 0.000000 0.000000 
#    y 0.000000 1.684150 0.000000 
#    z 0.000000 0.000000 1.734580 
# 
# From -- ./inp_files/61554.got.cif
#   From: 2010.06.25/outbox.cif.g09.slc.cpg/sg71_31_cif.got.tgz:61554.got - 2010.06.28 04:59:45.
