data_PCOD8289299
_publ_section_title
;
Structure prediction by ZEFSAII (Michael W. Deem and Ramdas Pophale) SiO2 
 PCOD8289299
Probable space group: I M M M
;
_chemical_formula_sum "Si O2"
_cell_formula_units_Z 80
_cell_length_a 29.117395
_cell_length_b 15.468436
_cell_length_c 9.034282
_cell_angle_alpha 90.000000
_cell_angle_beta 90.000000
_cell_angle_gamma 90.000000
_cell_volume 4069.045681
_symmetry_space_group_name_H-M "I M M M"
_symmetry_group_IT_number 71
_symmetry_cell_setting 'orthorhombic'
loop_
_space_group_symop_operation_xyz
x,y,z
-x,-y,z
x,-y,-z
-x,y,-z
-x,-y,-z
x,y,-z
-x,y,z
x,-y,z
1/2+x,1/2+y,1/2+z
1/2-x,1/2-y,1/2+z
1/2+x,1/2-y,1/2-z
1/2-x,1/2+y,1/2-z
1/2-x,1/2-y,1/2-z
1/2+x,1/2+y,1/2-z
1/2-x,1/2+y,1/2+z
1/2+x,1/2-y,1/2+z
loop_
_atom_site_type_symbol
_atom_site_label
_atom_site_fract_x
_atom_site_fract_y
_atom_site_fract_z
Si Si1 0.052731 0.259991 0.175524
Si Si2 0.106841 0.094762 0.824226
Si Si3 0.886774 0.402081 0.669478
Si Si4 0.294727 0.650107 0.669316
Si Si5 0.703569 0.146044 0.330856
O O1 0.074224 0.170462 0.238476
O O2 0.077930 0.341732 0.244402
O O3 0.000000 0.262162 0.224410
O O4 0.058619 0.265755 0.000000
O O5 0.159053 0.106325 0.768437
O O6 0.088959 0.000000 0.772259
O O7 0.106708 0.101190 0.000000
O O8 0.883706 0.371356 0.500000
O O9 0.905253 0.500000 0.680959
O O10 0.836329 0.399246 0.739152
O O11 0.284937 0.624058 0.500000
O O12 0.302075 0.751902 0.684889
O O13 0.252542 0.615952 0.766815
O O14 0.700211 0.115671 0.500000
#
# Coordination Sequence:
#
# PCOD8289299 Si02
#       5
#    16  16  16  16  16
#     4  10  21  39  62  87 114 144 184 235 289 342
#     4   9  17  32  56  86 118 150 185 227 275 330
#     4  11  24  40  59  83 112 149 193 237 285 343
#     4   9  17  31  52  81 118 156 191 225 270 330
#     4  10  19  33  55  83 116 151 191 235 278 330
#
# _framework density 19.660629
#
# number of rings (size 3 to 8) (size 9 to 14) (size 15 to 20)
#    0.000    2.200    2.000    1.200    0.000    4.400 
#    0.000    6.000    0.000    1.800    0.000    1.400 
#    0.000    0.000    0.000    0.000    0.000    0.000 
#
# Total GULP energy -496014.800206 kJ/mol
# GULP energy per Si atom -12400.370005 kJ/mol
# Density = 1.961588 g / cm^3
# Si number density = 19.660629 Si / 1000 Ang^3
#
#
#
# Elastic Constant Matrix: (Units=GPa)
#
#
# Indices 1 2 3 4 5 6 
#
# 1 136.3661 64.4975 37.5065 0.0000 0.0000 0.0000
# 2 64.4975 101.6633 21.7361 0.0000 0.0000 0.0000
# 3 37.5065 21.7361 44.1214 0.0000 0.0000 0.0000
# 4 0.0000 0.0000 0.0000 17.8945 0.0000 0.0000
# 5 0.0000 0.0000 0.0000 0.0000 29.6287 0.0000
# 6 0.0000 0.0000 0.0000 0.0000 0.0000 9.4348
#
#
#
# Elastic Compliance Matrix: (Units=1/GPa)
#
#
# Indices 1 2 3 4 5 6 
#
# 1 0.012316 -0.006231 -0.007399 0.000000 0.000000 0.000000
# 2 -0.006231 0.014147 -0.001673 0.000000 0.000000 0.000000
# 3 -0.007399 -0.001673 0.029779 0.000000 0.000000 0.000000
# 4 0.000000 0.000000 0.000000 0.055883 0.000000 0.000000
# 5 0.000000 0.000000 0.000000 0.000000 0.033751 0.000000
# 6 0.000000 0.000000 0.000000 0.000000 0.000000 0.105991
#
#
# Mechanical properties :
#
#
# Convention : Reuss Voigt Hill
#
# Bulk Modulus (GPa) = 39.00879 58.84790 48.92834
# Shear Modulus (GPa) = 17.18109 21.95231 19.56670
#
# Velocity S-wave (km/s) = 2.95936 3.34512 3.15814
# Velocity P-wave (km/s) = 5.61794 6.70199 6.18376
#
# Compressibility (1/GPa) = 0.02563525
#
# Stress axis : x y z
#
# Youngs Moduli (GPa) = 81.19823 70.68531 33.58101
#
# Poissons Ratio (x) = 0.44046 0.24848
# Poissons Ratio (y) = 0.50596 0.05617
# Poissons Ratio (z) = 0.60082 0.11822
#
# Static dielectric constant tensor:
#      x y z
#    x 3.645050 0.000000 0.000000 
#    y 0.000000 3.658400 0.000000 
#    z 0.000000 0.000000 3.402070 
# 
# 
# High freq. dielectric constant tensor:
#      x y z
#    x 1.766750 0.000000 0.000000 
#    y 0.000000 1.771490 0.000000 
#    z 0.000000 0.000000 1.739840 
# 
# From -- ./inp_files/14547.got.cif
#   From: 2010.06.25/outbox.cif.g09.slc.cpg/sg71_8_cif.got.tgz:14547.got - 2010.06.28 04:59:45.
