data_PCOD8289855
_publ_section_title
;
Structure prediction by ZEFSAII (Michael W. Deem and Ramdas Pophale) SiO2 
 PCOD8289855
Probable space group: I M M M
;
_chemical_formula_sum "Si O2"
_cell_formula_units_Z 88
_cell_length_a 28.016312
_cell_length_b 9.119033
_cell_length_c 18.668007
_cell_angle_alpha 90.000000
_cell_angle_beta 90.000000
_cell_angle_gamma 90.000000
_cell_volume 4769.333672
_symmetry_space_group_name_H-M "I M M M"
_symmetry_group_IT_number 71
_symmetry_cell_setting 'orthorhombic'
loop_
_space_group_symop_operation_xyz
x,y,z
-x,-y,z
x,-y,-z
-x,y,-z
-x,-y,-z
x,y,-z
-x,y,z
x,-y,z
1/2+x,1/2+y,1/2+z
1/2-x,1/2-y,1/2+z
1/2+x,1/2-y,1/2-z
1/2-x,1/2+y,1/2-z
1/2-x,1/2-y,1/2-z
1/2+x,1/2+y,1/2-z
1/2-x,1/2+y,1/2+z
1/2+x,1/2-y,1/2+z
loop_
_atom_site_type_symbol
_atom_site_label
_atom_site_fract_x
_atom_site_fract_y
_atom_site_fract_z
Si Si1 0.556646 0.332181 0.142448
Si Si2 0.056804 0.667410 0.500000
Si Si3 0.909582 0.164553 0.921266
Si Si4 0.100158 0.325950 0.220738
Si Si5 0.796936 0.840292 0.077757
Si Si6 0.709756 0.831873 0.708032
O O1 0.500000 0.328745 0.143018
O O2 0.575293 0.500000 0.142514
O O3 0.574379 0.248199 0.212590
O O4 0.575977 0.250726 0.070978
O O5 0.076033 0.500000 0.500000
O O6 0.000000 0.668253 0.500000
O O7 0.923437 0.268986 0.854162
O O8 0.853332 0.162107 0.928242
O O9 0.928870 0.000000 0.905552
O O10 0.929651 0.218221 0.000000
O O11 0.093023 0.500000 0.223372
O O12 0.155963 0.281384 0.226931
O O13 0.779040 0.706802 0.125841
O O14 0.780992 0.000000 0.108551
O O15 0.773733 0.816647 0.000000
O O16 0.750000 0.750000 0.750000
O O17 0.716638 0.000000 0.722860
#
# Coordination Sequence:
#
# PCOD8289855 Si02
#       6
#    16   8  16  16  16  16
#     4  10  20  34  54  79 105 134 170 210 253 305
#     4   9  17  31  53  79 105 133 165 205 253 303
#     4   8  14  26  45  69  96 127 163 200 240 289
#     4  10  20  32  49  75 103 132 167 208 256 302
#     4   8  14  26  45  67  90 118 154 197 241 284
#     4  10  20  32  48  70  97 130 166 204 246 295
#
# _framework density 18.451214
#
# number of rings (size 3 to 8) (size 9 to 14) (size 15 to 20)
#    0.000    2.818    0.000    3.000    0.000    5.091 
#    0.000    3.636    2.000    0.545    0.000    3.818 
#    0.000    0.000    0.000    0.000    0.000    0.000 
#
# Total GULP energy -545121.384017 kJ/mol
# GULP energy per Si atom -12389.122364 kJ/mol
# Density = 1.840922 g / cm^3
# Si number density = 18.451214 Si / 1000 Ang^3
#
#
#
# Elastic Constant Matrix: (Units=GPa)
#
#
# Indices 1 2 3 4 5 6 
#
# 1 16.5816 17.9807 18.0790 0.0000 0.0000 0.0000
# 2 17.9807 97.4262 68.1582 0.0000 0.0000 0.0000
# 3 18.0790 68.1582 155.9386 0.0000 0.0000 0.0000
# 4 0.0000 0.0000 0.0000 39.4315 0.0000 0.0000
# 5 0.0000 0.0000 0.0000 0.0000 17.5892 0.0000
# 6 0.0000 0.0000 0.0000 0.0000 0.0000 21.2222
#
#
#
# Elastic Compliance Matrix: (Units=1/GPa)
#
#
# Indices 1 2 3 4 5 6 
#
# 1 0.077020 -0.011477 -0.003913 0.000000 0.000000 0.000000
# 2 -0.011477 0.016495 -0.005879 0.000000 0.000000 0.000000
# 3 -0.003913 -0.005879 0.009436 0.000000 0.000000 0.000000
# 4 0.000000 0.000000 0.000000 0.025360 0.000000 0.000000
# 5 0.000000 0.000000 0.000000 0.000000 0.056853 0.000000
# 6 0.000000 0.000000 0.000000 0.000000 0.000000 0.047120
#
#
# Mechanical properties :
#
#
# Convention : Reuss Voigt Hill
#
# Bulk Modulus (GPa) = 16.55282 53.15359 34.85320
# Shear Modulus (GPa) = 16.95135 26.69714 21.82425
#
# Velocity S-wave (km/s) = 3.03431 3.80795 3.44293
# Velocity P-wave (km/s) = 4.61158 6.94292 5.89367
#
# Compressibility (1/GPa) = 0.06041267
#
# Stress axis : x y z
#
# Youngs Moduli (GPa) = 12.98368 60.62278 105.97526
#
# Poissons Ratio (x) = 0.69578 0.41467
# Poissons Ratio (y) = 0.14902 0.62306
# Poissons Ratio (z) = 0.05080 0.35642
#
# Static dielectric constant tensor:
#      x y z
#    x 2.962850 0.000000 0.000000 
#    y 0.000000 3.809450 0.000000 
#    z 0.000000 0.000000 -28.594440 
# 
# 
# High freq. dielectric constant tensor:
#      x y z
#    x 1.660820 0.000000 0.000000 
#    y 0.000000 1.722470 0.000000 
#    z 0.000000 0.000000 1.732560 
# 
# From -- ./inp_files/8770.got.cif
#   From: 2010.06.25/outbox.cif.g09.slc.cpg/sg71_5_cif.got.tgz:8770.got - 2010.06.28 04:59:45.
