data_PCOD8289683
_publ_section_title
;
Structure prediction by ZEFSAII (Michael W. Deem and Ramdas Pophale) SiO2 
 PCOD8289683
Probable space group: I M M M
;
_chemical_formula_sum "Si O2"
_cell_formula_units_Z 104
_cell_length_a 22.065305
_cell_length_b 15.255807
_cell_length_c 16.679979
_cell_angle_alpha 90.000000
_cell_angle_beta 90.000000
_cell_angle_gamma 90.000000
_cell_volume 5614.881826
_symmetry_space_group_name_H-M "I M M M"
_symmetry_group_IT_number 71
_symmetry_cell_setting 'orthorhombic'
loop_
_space_group_symop_operation_xyz
x,y,z
-x,-y,z
x,-y,-z
-x,y,-z
-x,-y,-z
x,y,-z
-x,y,z
x,-y,z
1/2+x,1/2+y,1/2+z
1/2-x,1/2-y,1/2+z
1/2+x,1/2-y,1/2-z
1/2-x,1/2+y,1/2-z
1/2-x,1/2-y,1/2-z
1/2+x,1/2+y,1/2-z
1/2-x,1/2+y,1/2+z
1/2+x,1/2-y,1/2+z
loop_
_atom_site_type_symbol
_atom_site_label
_atom_site_fract_x
_atom_site_fract_y
_atom_site_fract_z
Si Si1 0.928722 0.500000 0.094230
Si Si2 0.757084 0.733446 0.907176
Si Si3 0.428945 0.693665 0.744853
Si Si4 0.637986 0.852267 0.308611
Si Si5 0.735613 0.096076 0.188532
Si Si6 0.928335 0.097080 0.912910
Si Si7 0.172167 0.101042 0.328181
O O1 0.899278 0.413975 0.132079
O O2 0.000000 0.500000 0.111856
O O3 0.914812 0.500000 0.000000
O O4 0.817819 0.709033 0.860294
O O5 0.731828 0.827111 0.876699
O O6 0.705949 0.658705 0.895284
O O7 0.772319 0.741630 0.000000
O O8 0.500000 0.683613 0.760729
O O9 0.409000 0.794718 0.743846
O O10 0.407216 0.659628 0.657677
O O11 0.395601 0.638362 0.814537
O O12 0.676324 0.907065 0.244647
O O13 0.793737 0.112843 0.244040
O O14 0.740208 0.000000 0.146873
O O15 0.000000 0.091607 0.914394
O O16 0.901576 0.000000 0.897175
O O17 0.905034 0.131954 0.000000
O O18 0.170049 0.000000 0.356777
#
# Coordination Sequence:
#
# PCOD8289683 Si02
#       7
#     8  16  16  16  16  16  16
#     4  11  24  38  54  86 127 161 198 238 278 341
#     4  11  22  37  60  88 115 144 191 248 299 347
#     4  11  20  32  55  80 110 151 192 229 274 339
#     4  11  20  39  57  81 115 154 193 229 285 343
#     4  10  19  38  63  80 108 148 190 244 294 342
#     4   8  15  27  41  62  96 137 179 217 254 306
#     4  10  20  36  56  82 116 149 190 238 284 341
#
# _framework density 18.522206000000001
#
# number of rings (size 3 to 8) (size 9 to 14) (size 15 to 20)
#    0.000    1.769    3.846    2.769    1.077    2.769 
#    0.000    1.538    0.000    0.462    0.000    1.077 
#    0.000    1.846    0.000    0.000    0.000    0.000 
#
# Total GULP energy -644659.073061 kJ/mol
# GULP energy per Si atom -12397.289867 kJ/mol
# Density = 1.848005 g / cm^3
# Si number density = 18.522206 Si / 1000 Ang^3
#
#
#
# Elastic Constant Matrix: (Units=GPa)
#
#
# Indices 1 2 3 4 5 6 
#
# 1 89.2657 34.5656 13.0885 0.0000 0.0000 0.0000
# 2 34.5656 121.8039 26.5570 0.0000 0.0000 0.0000
# 3 13.0885 26.5570 32.7976 0.0000 0.0000 0.0000
# 4 0.0000 0.0000 0.0000 14.0520 0.0000 0.0000
# 5 0.0000 0.0000 0.0000 0.0000 20.1953 0.0000
# 6 0.0000 0.0000 0.0000 0.0000 0.0000 15.8950
#
#
#
# Elastic Compliance Matrix: (Units=1/GPa)
#
#
# Indices 1 2 3 4 5 6 
#
# 1 0.012769 -0.003051 -0.002625 0.000000 0.000000 0.000000
# 2 -0.003051 0.010699 -0.007446 0.000000 0.000000 0.000000
# 3 -0.002625 -0.007446 0.037567 0.000000 0.000000 0.000000
# 4 0.000000 0.000000 0.000000 0.071164 0.000000 0.000000
# 5 0.000000 0.000000 0.000000 0.000000 0.049516 0.000000
# 6 0.000000 0.000000 0.000000 0.000000 0.000000 0.062913
#
#
# Mechanical properties :
#
#
# Convention : Reuss Voigt Hill
#
# Bulk Modulus (GPa) = 28.74333 43.58772 36.16553
# Shear Modulus (GPa) = 17.70105 21.33886 19.51995
#
# Velocity S-wave (km/s) = 3.09474 3.39790 3.24985
# Velocity P-wave (km/s) = 5.32183 6.24324 5.80086
#
# Compressibility (1/GPa) = 0.03479068
#
# Stress axis : x y z
#
# Youngs Moduli (GPa) = 78.31521 93.46493 26.61940
#
# Poissons Ratio (x) = 0.28518 0.06988
# Poissons Ratio (y) = 0.23896 0.19820
# Poissons Ratio (z) = 0.20558 0.69592
#
# Static dielectric constant tensor:
#      x y z
#    x 3.308040 0.000000 0.000000 
#    y 0.000000 3.544070 0.000000 
#    z 0.000000 0.000000 3.165060 
# 
# 
# High freq. dielectric constant tensor:
#      x y z
#    x 1.712840 0.000000 0.000000 
#    y 0.000000 1.732740 0.000000 
#    z 0.000000 0.000000 1.681000 
# 
# From -- ./inp_files/47309.got.cif
#   From: 2010.06.25/outbox.cif.g09.slc.cpg/sg71_24_cif.got.tgz:47309.got - 2010.06.28 04:59:45.
