data_PCOD8289122
_publ_section_title
;
Structure prediction by ZEFSAII (Michael W. Deem and Ramdas Pophale) SiO2 
 PCOD8289122
Probable space group: I M M M
;
_chemical_formula_sum "Si O2"
_cell_formula_units_Z 120
_cell_length_a 27.842103
_cell_length_b 9.101330
_cell_length_c 27.056464
_cell_angle_alpha 90.000000
_cell_angle_beta 90.000000
_cell_angle_gamma 90.000000
_cell_volume 6856.112504
_symmetry_space_group_name_H-M "I M M M"
_symmetry_group_IT_number 71
_symmetry_cell_setting 'orthorhombic'
loop_
_space_group_symop_operation_xyz
x,y,z
-x,-y,z
x,-y,-z
-x,y,-z
-x,-y,-z
x,y,-z
-x,y,z
x,-y,z
1/2+x,1/2+y,1/2+z
1/2-x,1/2-y,1/2+z
1/2+x,1/2-y,1/2-z
1/2-x,1/2+y,1/2-z
1/2-x,1/2-y,1/2-z
1/2+x,1/2+y,1/2-z
1/2-x,1/2+y,1/2+z
1/2+x,1/2-y,1/2+z
loop_
_atom_site_type_symbol
_atom_site_label
_atom_site_fract_x
_atom_site_fract_y
_atom_site_fract_z
Si Si1 0.715013 0.834021 0.557493
Si Si2 0.794090 0.833560 0.301643
Si Si3 0.089693 0.339140 0.442621
Si Si4 0.555893 0.829530 0.556668
Si Si5 0.815764 0.671612 0.793926
Si Si6 0.819350 0.832490 0.411132
Si Si7 0.500000 0.336586 0.940855
Si Si8 0.135917 0.825388 0.117985
O O1 0.703821 0.835434 0.500000
O O2 0.768516 0.777421 0.568037
O O3 0.678805 0.721474 0.582181
O O4 0.708514 0.000000 0.579505
O O5 0.819638 0.727449 0.262396
O O6 0.738379 0.793058 0.312243
O O7 0.822764 0.815051 0.352289
O O8 0.796644 0.000000 0.281429
O O9 0.078743 0.355230 0.500000
O O10 0.089722 0.500000 0.417616
O O11 0.140902 0.266082 0.435994
O O12 0.047084 0.243131 0.418917
O O13 0.567524 0.783683 0.500000
O O14 0.500000 0.802357 0.568034
O O15 0.586044 0.732970 0.595264
O O16 0.569359 0.000000 0.564154
O O17 0.827942 0.500000 0.795706
O O18 0.854170 0.756617 0.827963
O O19 0.827976 0.000000 0.427508
O O20 0.500000 0.500000 0.919151
O O21 0.500000 0.339860 0.000000
O O22 0.133448 0.000000 0.122461
#
# Coordination Sequence:
#
# PCOD8289122 Si02
#       8
#    16  16  16  16  16  16   8  16
#     4  10  20  34  50  69 100 142 181 212 246 297
#     4   9  18  33  52  75 102 130 168 216 259 299
#     4  10  20  32  47  71 103 134 166 209 254 295
#     4   9  19  37  59  80 104 138 179 220 264 318
#     4  10  19  34  54  74 100 133 172 212 255 303
#     4  10  19  33  51  72 100 135 172 207 249 304
#     4   9  17  31  51  71  91 123 169 211 247 291
#     4  12  23  33  50  77 108 139 174 215 261 310
#
# _framework density 17.50263
#
# number of rings (size 3 to 8) (size 9 to 14) (size 15 to 20)
#    0.000    2.067    1.333    3.400    0.000    6.133 
#    0.000    0.667    0.000    0.000    1.733    0.000 
#    0.000    0.000    0.000    0.000    0.000    0.000 
#
# Total GULP energy -744051.660496 kJ/mol
# GULP energy per Si atom -12400.861008 kJ/mol
# Density = 1.746279 g / cm^3
# Si number density = 17.502630 Si / 1000 Ang^3
#
#
#
# Elastic Constant Matrix: (Units=GPa)
#
#
# Indices 1 2 3 4 5 6 
#
# 1 88.0589 51.0224 17.1061 0.0000 0.0000 0.0000
# 2 51.0224 117.2456 32.6353 0.0000 0.0000 0.0000
# 3 17.1061 32.6353 48.3201 0.0000 0.0000 0.0000
# 4 0.0000 0.0000 0.0000 27.0441 0.0000 0.0000
# 5 0.0000 0.0000 0.0000 0.0000 20.4819 0.0000
# 6 0.0000 0.0000 0.0000 0.0000 0.0000 22.8391
#
#
#
# Elastic Compliance Matrix: (Units=1/GPa)
#
#
# Indices 1 2 3 4 5 6 
#
# 1 0.015235 -0.006316 -0.001128 0.000000 0.000000 0.000000
# 2 -0.006316 0.013122 -0.006627 0.000000 0.000000 0.000000
# 3 -0.001128 -0.006627 0.025570 0.000000 0.000000 0.000000
# 4 0.000000 0.000000 0.000000 0.036977 0.000000 0.000000
# 5 0.000000 0.000000 0.000000 0.000000 0.048824 0.000000
# 6 0.000000 0.000000 0.000000 0.000000 0.000000 0.043784
#
#
# Mechanical properties :
#
#
# Convention : Reuss Voigt Hill
#
# Bulk Modulus (GPa) = 38.77989 50.57247 44.67618
# Shear Modulus (GPa) = 22.70172 24.26374 23.48273
#
# Velocity S-wave (km/s) = 3.60536 3.72733 3.66685
# Velocity P-wave (km/s) = 6.28778 6.89064 6.59610
#
# Compressibility (1/GPa) = 0.02578656
#
# Stress axis : x y z
#
# Youngs Moduli (GPa) = 65.64027 76.20686 39.10796
#
# Poissons Ratio (x) = 0.48131 0.04410
# Poissons Ratio (y) = 0.41457 0.25916
# Poissons Ratio (z) = 0.07401 0.50501
#
# Static dielectric constant tensor:
#      x y z
#    x 3.137010 0.000000 0.000000 
#    y 0.000000 3.338280 0.000000 
#    z 0.000000 0.000000 3.120240 
# 
# 
# High freq. dielectric constant tensor:
#      x y z
#    x 1.663280 0.000000 0.000000 
#    y 0.000000 1.679900 0.000000 
#    z 0.000000 0.000000 1.656990 
# 
# From -- ./inp_files/67154.got.cif
#   From: 2010.06.25/outbox.cif.g09.slc.cpg/sg71_34_cif.got.tgz:67154.got - 2010.06.28 04:59:45.
