data_PCOD8289021
_publ_section_title
;
Structure prediction by ZEFSAII (Michael W. Deem and Ramdas Pophale) SiO2 
 PCOD8289021
Probable space group: I M M M
;
_chemical_formula_sum "Si O2"
_cell_formula_units_Z 104
_cell_length_a 20.497756
_cell_length_b 28.893195
_cell_length_c 8.859325
_cell_angle_alpha 90.000000
_cell_angle_beta 90.000000
_cell_angle_gamma 90.000000
_cell_volume 5246.896792
_symmetry_space_group_name_H-M "I M M M"
_symmetry_group_IT_number 71
_symmetry_cell_setting 'orthorhombic'
loop_
_space_group_symop_operation_xyz
x,y,z
-x,-y,z
x,-y,-z
-x,y,-z
-x,-y,-z
x,y,-z
-x,y,z
x,-y,z
1/2+x,1/2+y,1/2+z
1/2-x,1/2-y,1/2+z
1/2+x,1/2-y,1/2-z
1/2-x,1/2+y,1/2-z
1/2-x,1/2-y,1/2-z
1/2+x,1/2+y,1/2-z
1/2-x,1/2+y,1/2+z
1/2+x,1/2-y,1/2+z
loop_
_atom_site_type_symbol
_atom_site_label
_atom_site_fract_x
_atom_site_fract_y
_atom_site_fract_z
Si Si1 0.624707 0.890296 0.678244
Si Si2 0.325357 0.294473 0.676969
Si Si3 0.749685 0.052942 0.670954
Si Si4 0.573033 0.360401 0.827069
Si Si5 0.383398 0.447318 0.324211
Si Si6 0.176947 0.698130 0.322737
Si Si7 0.500000 0.947198 0.320177
O O1 0.619690 0.884544 0.500000
O O2 0.689201 0.917335 0.728275
O O3 0.628628 0.839608 0.751069
O O4 0.562962 0.919180 0.739841
O O5 0.329030 0.284835 0.500000
O O6 0.376495 0.333656 0.721706
O O7 0.252514 0.310788 0.723804
O O8 0.345437 0.247949 0.763008
O O9 0.770528 0.066292 0.500000
O O10 0.808379 0.063187 0.784379
O O11 0.727206 0.000000 0.677459
O O12 0.500000 0.340180 0.808689
O O13 0.571125 0.413771 0.773568
O O14 0.596062 0.357176 0.000000
O O15 0.394465 0.437752 0.500000
O O16 0.401660 0.500000 0.281582
O O17 0.167284 0.697098 0.500000
O O18 0.500000 0.949236 0.500000
O O19 0.500000 0.000000 0.256826
#
# Coordination Sequence:
#
# PCOD8289021 Si02
#       7
#    16  16  16  16  16  16   8
#     4  10  19  32  53  81 110 146 191 236 284 338
#     4  10  21  39  63  88 112 143 184 230 280 336
#     4   9  17  30  51  79 109 142 183 233 286 335
#     4  11  24  40  58  82 113 149 185 222 272 330
#     4  10  21  36  55  81 112 146 186 231 275 322
#     4  10  21  37  59  86 115 144 180 230 286 338
#     4   9  18  34  55  79 111 151 197 245 286 333
#
# _framework density 19.82124
#
# number of rings (size 3 to 8) (size 9 to 14) (size 15 to 20)
#    0.000    2.077    0.000    3.231    0.000    9.231 
#    1.385    1.923    0.000    1.846    0.000    0.000 
#    0.000    0.000    0.000    0.000    0.000    0.000 
#
# Total GULP energy -644933.767839 kJ/mol
# GULP energy per Si atom -12402.572458 kJ/mol
# Density = 1.977613 g / cm^3
# Si number density = 19.821240 Si / 1000 Ang^3
#
#
#
# Elastic Constant Matrix: (Units=GPa)
#
#
# Indices 1 2 3 4 5 6 
#
# 1 69.9173 47.1693 20.3447 0.0000 0.0000 0.0000
# 2 47.1693 110.0028 22.0831 0.0000 0.0000 0.0000
# 3 20.3447 22.0831 41.5640 0.0000 0.0000 0.0000
# 4 0.0000 0.0000 0.0000 33.3120 0.0000 0.0000
# 5 0.0000 0.0000 0.0000 0.0000 22.0807 0.0000
# 6 0.0000 0.0000 0.0000 0.0000 0.0000 31.7536
#
#
#
# Elastic Compliance Matrix: (Units=1/GPa)
#
#
# Indices 1 2 3 4 5 6 
#
# 1 0.021503 -0.007956 -0.006298 0.000000 0.000000 0.000000
# 2 -0.007956 0.013120 -0.003076 0.000000 0.000000 0.000000
# 3 -0.006298 -0.003076 0.028777 0.000000 0.000000 0.000000
# 4 0.000000 0.000000 0.000000 0.030019 0.000000 0.000000
# 5 0.000000 0.000000 0.000000 0.000000 0.045288 0.000000
# 6 0.000000 0.000000 0.000000 0.000000 0.000000 0.031492
#
#
# Mechanical properties :
#
#
# Convention : Reuss Voigt Hill
#
# Bulk Modulus (GPa) = 34.79680 44.51980 39.65830
# Shear Modulus (GPa) = 23.31662 26.22173 24.76918
#
# Velocity S-wave (km/s) = 3.43351 3.64113 3.53884
# Velocity P-wave (km/s) = 5.77166 6.33928 6.06212
#
# Compressibility (1/GPa) = 0.02873827
#
# Stress axis : x y z
#
# Youngs Moduli (GPa) = 46.50571 76.22062 34.75057
#
# Poissons Ratio (x) = 0.60642 0.21886
# Poissons Ratio (y) = 0.37000 0.10690
# Poissons Ratio (z) = 0.29289 0.23448
#
# Static dielectric constant tensor:
#      x y z
#    x 3.524350 0.000000 0.000000 
#    y 0.000000 3.670600 0.000000 
#    z 0.000000 0.000000 3.433300 
# 
# 
# High freq. dielectric constant tensor:
#      x y z
#    x 1.762980 0.000000 0.000000 
#    y 0.000000 1.780680 0.000000 
#    z 0.000000 0.000000 1.763780 
# 
# From -- ./inp_files/11056.got.cif
#   From: 2010.06.25/outbox.cif.g09.slc.cpg/sg71_6_cif.got.tgz:11056.got - 2010.06.28 04:59:45.
