data_PCOD8289868
_publ_section_title
;
Structure prediction by ZEFSAII (Michael W. Deem and Ramdas Pophale) SiO2 
 PCOD8289868
Probable space group: I M M M
;
_chemical_formula_sum "Si O2"
_cell_formula_units_Z 80
_cell_length_a 16.920094
_cell_length_b 10.196583
_cell_length_c 26.168338
_cell_angle_alpha 90.000000
_cell_angle_beta 90.000000
_cell_angle_gamma 90.000000
_cell_volume 4514.748588
_symmetry_space_group_name_H-M "I M M M"
_symmetry_group_IT_number 71
_symmetry_cell_setting 'orthorhombic'
loop_
_space_group_symop_operation_xyz
x,y,z
-x,-y,z
x,-y,-z
-x,y,-z
-x,-y,-z
x,y,-z
-x,y,z
x,-y,z
1/2+x,1/2+y,1/2+z
1/2-x,1/2-y,1/2+z
1/2+x,1/2-y,1/2-z
1/2-x,1/2+y,1/2-z
1/2-x,1/2-y,1/2-z
1/2+x,1/2+y,1/2-z
1/2-x,1/2+y,1/2+z
1/2+x,1/2-y,1/2+z
loop_
_atom_site_type_symbol
_atom_site_label
_atom_site_fract_x
_atom_site_fract_y
_atom_site_fract_z
Si Si1 0.820404 0.210302 0.286441
Si Si2 0.591695 0.148175 0.129997
Si Si3 0.177651 0.848196 0.558963
Si Si4 0.590297 0.646475 0.309425
Si Si5 0.698766 0.140865 0.362771
O O1 0.750000 0.250000 0.250000
O O2 0.861306 0.330378 0.316710
O O3 0.885513 0.142167 0.250424
O O4 0.778507 0.119661 0.328677
O O5 0.500000 0.168916 0.141771
O O6 0.616169 0.251212 0.086449
O O7 0.609470 0.000000 0.111304
O O8 0.180052 0.808779 0.500000
O O9 0.266849 0.826424 0.581038
O O10 0.151132 0.000000 0.566299
O O11 0.500000 0.692488 0.313398
O O12 0.601258 0.500000 0.331709
O O13 0.641892 0.744935 0.343444
O O14 0.653713 0.000000 0.362448
#
# Coordination Sequence:
#
# PCOD8289868 Si02
#       5
#    16  16  16  16  16
#     4   9  18  31  48  69  96 131 167 201 237 281
#     4  10  21  35  51  74 104 135 167 205 247 291
#     4   9  19  36  56  76  98 127 164 205 250 299
#     4  10  20  32  48  72 102 134 165 199 243 295
#     4   9  18  32  51  73  96 125 163 206 247 290
#
# _framework density 17.719702000000002
#
# number of rings (size 3 to 8) (size 9 to 14) (size 15 to 20)
#    0.000    2.600    0.000    1.200    0.000   12.800 
#    0.000    2.000    0.000    0.600    0.000    4.200 
#    0.000    0.000    0.000    0.000    0.000    0.000 
#
# Total GULP energy -495523.090562 kJ/mol
# GULP energy per Si atom -12388.077264 kJ/mol
# Density = 1.767937 g / cm^3
# Si number density = 17.719702 Si / 1000 Ang^3
#
#
#
# Elastic Constant Matrix: (Units=GPa)
#
#
# Indices 1 2 3 4 5 6 
#
# 1 104.9751 63.0277 50.8837 0.0000 0.0000 0.0000
# 2 63.0277 117.3018 50.8732 0.0000 0.0000 0.0000
# 3 50.8837 50.8732 103.8750 0.0000 0.0000 0.0000
# 4 0.0000 0.0000 0.0000 21.8773 0.0000 0.0000
# 5 0.0000 0.0000 0.0000 0.0000 18.8874 0.0000
# 6 0.0000 0.0000 0.0000 0.0000 0.0000 29.3526
#
#
#
# Elastic Compliance Matrix: (Units=1/GPa)
#
#
# Indices 1 2 3 4 5 6 
#
# 1 0.015545 -0.006412 -0.004474 0.000000 0.000000 0.000000
# 2 -0.006412 0.013469 -0.003456 0.000000 0.000000 0.000000
# 3 -0.004474 -0.003456 0.013511 0.000000 0.000000 0.000000
# 4 0.000000 0.000000 0.000000 0.045709 0.000000 0.000000
# 5 0.000000 0.000000 0.000000 0.000000 0.052945 0.000000
# 6 0.000000 0.000000 0.000000 0.000000 0.000000 0.034069
#
#
# Mechanical properties :
#
#
# Convention : Reuss Voigt Hill
#
# Bulk Modulus (GPa) = 72.24885 72.85792 72.55339
# Shear Modulus (GPa) = 23.97564 24.78128 24.37846
#
# Velocity S-wave (km/s) = 3.68237 3.74373 3.71318
# Velocity P-wave (km/s) = 7.67734 7.73909 7.70828
#
# Compressibility (1/GPa) = 0.01384105
#
# Stress axis : x y z
#
# Youngs Moduli (GPa) = 64.33119 74.24570 74.01300
#
# Poissons Ratio (x) = 0.47605 0.33116
# Poissons Ratio (y) = 0.41248 0.25576
# Poissons Ratio (z) = 0.28784 0.25656
#
# Static dielectric constant tensor:
#      x y z
#    x 3.253360 0.000000 0.000000 
#    y 0.000000 2.479900 0.000000 
#    z 0.000000 0.000000 3.750600 
# 
# 
# High freq. dielectric constant tensor:
#      x y z
#    x 1.674870 0.000000 0.000000 
#    y 0.000000 1.689300 0.000000 
#    z 0.000000 0.000000 1.673490 
# 
# From -- ./inp_files/8290.got.cif
#   From: 2010.06.25/outbox.cif.g09.slc.cpg/sg71_5_cif.got.tgz:8290.got - 2010.06.28 04:59:45.
