data_PCOD8289935
_publ_section_title
;
Structure prediction by ZEFSAII (Michael W. Deem and Ramdas Pophale) SiO2 
 PCOD8289935
Probable space group: I M M M
;
_chemical_formula_sum "Si O2"
_cell_formula_units_Z 112
_cell_length_a 18.555507
_cell_length_b 17.842007
_cell_length_c 17.687390
_cell_angle_alpha 90.000000
_cell_angle_beta 90.000000
_cell_angle_gamma 90.000000
_cell_volume 5855.719737
_symmetry_space_group_name_H-M "I M M M"
_symmetry_group_IT_number 71
_symmetry_cell_setting 'orthorhombic'
loop_
_space_group_symop_operation_xyz
x,y,z
-x,-y,z
x,-y,-z
-x,y,-z
-x,-y,-z
x,y,-z
-x,y,z
x,-y,z
1/2+x,1/2+y,1/2+z
1/2-x,1/2-y,1/2+z
1/2+x,1/2-y,1/2-z
1/2-x,1/2+y,1/2-z
1/2-x,1/2-y,1/2-z
1/2+x,1/2+y,1/2-z
1/2-x,1/2+y,1/2+z
1/2+x,1/2-y,1/2+z
loop_
_atom_site_type_symbol
_atom_site_label
_atom_site_fract_x
_atom_site_fract_y
_atom_site_fract_z
Si Si1 0.140811 0.913507 0.915604
Si Si2 0.419325 0.808227 0.677664
Si Si3 0.081271 0.587474 0.312745
Si Si4 0.218076 0.912288 0.295582
Si Si5 0.277489 0.808080 0.410627
Si Si6 0.080288 0.150160 0.768652
Si Si7 0.221564 0.346642 0.645513
O O1 0.092818 0.867277 0.857335
O O2 0.225533 0.895211 0.907079
O O3 0.128584 0.000000 0.898200
O O4 0.116088 0.892093 0.000000
O O5 0.500000 0.803855 0.642541
O O6 0.410162 0.883533 0.726636
O O7 0.362122 0.804288 0.609664
O O8 0.407522 0.739597 0.737118
O O9 0.099103 0.500000 0.311288
O O10 0.138462 0.628957 0.368246
O O11 0.000000 0.603100 0.342605
O O12 0.243388 0.884712 0.377965
O O13 0.133088 0.896364 0.285353
O O14 0.261105 0.863900 0.233366
O O15 0.233956 0.000000 0.286108
O O16 0.268250 0.806608 0.500000
O O17 0.232881 0.740444 0.372692
O O18 0.000000 0.126907 0.744639
#
# Coordination Sequence:
#
# PCOD8289935 Si02
#       7
#    16  16  16  16  16  16  16
#     4  10  20  32  49  79 116 150 184 226 281 345
#     4  10  20  35  56  84 119 152 188 231 277 342
#     4  10  20  34  57  88 116 145 187 242 297 338
#     4  11  22  37  60  86 114 150 197 248 290 337
#     4  12  24  38  59  85 118 159 196 236 288 347
#     4  10  20  35  58  85 114 149 191 236 286 347
#     4  11  19  35  59  82 110 149 195 240 283 337
#
# _framework density 19.126598000000001
#
# number of rings (size 3 to 8) (size 9 to 14) (size 15 to 20)
#    0.000    1.429    4.286    4.286    0.000    2.000 
#    0.000    2.143    0.000    3.000    0.000    9.000 
#    0.000    0.000    0.000    0.000    0.000    0.000 
#
# Total GULP energy -694341.764780 kJ/mol
# GULP energy per Si atom -12398.960085 kJ/mol
# Density = 1.908307 g / cm^3
# Si number density = 19.126598 Si / 1000 Ang^3
#
#
#
# Elastic Constant Matrix: (Units=GPa)
#
#
# Indices 1 2 3 4 5 6 
#
# 1 116.5496 36.2237 21.5451 0.0000 0.0000 0.0000
# 2 36.2237 76.3423 41.0241 0.0000 0.0000 0.0000
# 3 21.5451 41.0241 57.3596 0.0000 0.0000 0.0000
# 4 0.0000 0.0000 0.0000 22.1444 0.0000 0.0000
# 5 0.0000 0.0000 0.0000 0.0000 17.3146 0.0000
# 6 0.0000 0.0000 0.0000 0.0000 0.0000 22.6231
#
#
#
# Elastic Compliance Matrix: (Units=1/GPa)
#
#
# Indices 1 2 3 4 5 6 
#
# 1 0.010077 -0.004462 -0.000593 0.000000 0.000000 0.000000
# 2 -0.004462 0.023252 -0.014954 0.000000 0.000000 0.000000
# 3 -0.000593 -0.014954 0.028352 0.000000 0.000000 0.000000
# 4 0.000000 0.000000 0.000000 0.045158 0.000000 0.000000
# 5 0.000000 0.000000 0.000000 0.000000 0.057755 0.000000
# 6 0.000000 0.000000 0.000000 0.000000 0.000000 0.044203
#
#
# Mechanical properties :
#
#
# Convention : Reuss Voigt Hill
#
# Bulk Modulus (GPa) = 46.16547 49.75970 47.96258
# Shear Modulus (GPa) = 19.52852 22.51367 21.02109
#
# Velocity S-wave (km/s) = 3.19880 3.43459 3.31879
# Velocity P-wave (km/s) = 6.15079 6.46537 6.31004
#
# Compressibility (1/GPa) = 0.02166121
#
# Stress axis : x y z
#
# Youngs Moduli (GPa) = 99.23941 43.00698 35.27095
#
# Poissons Ratio (x) = 0.19191 0.02093
# Poissons Ratio (y) = 0.44285 0.52744
# Poissons Ratio (z) = 0.05889 0.64312
#
# Static dielectric constant tensor:
#      x y z
#    x 3.770030 0.000000 0.000000 
#    y 0.000000 3.587780 0.000000 
#    z 0.000000 0.000000 3.104950 
# 
# 
# High freq. dielectric constant tensor:
#      x y z
#    x 1.755610 0.000000 0.000000 
#    y 0.000000 1.753310 0.000000 
#    z 0.000000 0.000000 1.695630 
# 
# From -- ./inp_files/54285.got.cif
#   From: 2010.06.25/outbox.cif.g09.slc.cpg/sg71_28_cif.got.tgz:54285.got - 2010.06.28 04:59:45.
