data_PCOD8289134
_publ_section_title
;
Structure prediction by ZEFSAII (Michael W. Deem and Ramdas Pophale) SiO2 
 PCOD8289134
Probable space group: I M M M
;
_chemical_formula_sum "Si O2"
_cell_formula_units_Z 104
_cell_length_a 26.489709
_cell_length_b 12.326529
_cell_length_c 17.566185
_cell_angle_alpha 90.000000
_cell_angle_beta 90.000000
_cell_angle_gamma 90.000000
_cell_volume 5735.819043
_symmetry_space_group_name_H-M "I M M M"
_symmetry_group_IT_number 71
_symmetry_cell_setting 'orthorhombic'
loop_
_space_group_symop_operation_xyz
x,y,z
-x,-y,z
x,-y,-z
-x,y,-z
-x,-y,-z
x,y,-z
-x,y,z
x,-y,z
1/2+x,1/2+y,1/2+z
1/2-x,1/2-y,1/2+z
1/2+x,1/2-y,1/2-z
1/2-x,1/2+y,1/2-z
1/2-x,1/2-y,1/2-z
1/2+x,1/2+y,1/2-z
1/2-x,1/2+y,1/2+z
1/2+x,1/2-y,1/2+z
loop_
_atom_site_type_symbol
_atom_site_label
_atom_site_fract_x
_atom_site_fract_y
_atom_site_fract_z
Si Si1 0.873736 0.626120 0.415881
Si Si2 0.559878 0.373944 0.500000
Si Si3 0.776000 0.267164 0.361220
Si Si4 0.393092 0.267324 0.649668
Si Si5 0.308051 0.120348 0.585995
Si Si6 0.307897 0.378789 0.725532
Si Si7 0.558184 0.874996 0.224816
O O1 0.896879 0.650744 0.500000
O O2 0.863990 0.500000 0.404985
O O3 0.819518 0.683168 0.412702
O O4 0.911096 0.666211 0.349317
O O5 0.577729 0.500000 0.500000
O O6 0.500000 0.367475 0.500000
O O7 0.579762 0.311547 0.425613
O O8 0.746070 0.177848 0.409615
O O9 0.736804 0.360775 0.335813
O O10 0.802722 0.211728 0.289589
O O11 0.350011 0.179071 0.635062
O O12 0.363846 0.367362 0.689054
O O13 0.432490 0.206901 0.704927
O O14 0.327150 0.118024 0.500000
O O15 0.301856 0.000000 0.619575
O O16 0.303169 0.500000 0.758421
O O17 0.500000 0.866839 0.202212
O O18 0.571952 0.000000 0.246759
#
# Coordination Sequence:
#
# PCOD8289134 Si02
#       7
#    16   8  16  16  16  16  16
#     4  10  20  35  56  82 113 146 181 225 278 333
#     4  11  24  40  59  83 111 145 190 240 282 325
#     4  10  19  33  51  78 111 145 180 224 267 324
#     4  11  20  38  57  79 110 147 181 229 276 328
#     4  10  20  33  52  77 109 147 182 219 269 326
#     4  10  20  32  52  79 107 143 184 222 269 325
#     4  10  21  37  58  84 111 142 183 229 280 336
#
# _framework density 18.131675000000001
#
# number of rings (size 3 to 8) (size 9 to 14) (size 15 to 20)
#    0.000    1.769    2.308    2.769    0.000    0.308 
#    0.000    1.538    0.000    1.846    0.000    0.000 
#    0.000    1.231    0.000    0.000    0.000    0.000 
#
# Total GULP energy -644695.795832 kJ/mol
# GULP energy per Si atom -12397.996074 kJ/mol
# Density = 1.809041 g / cm^3
# Si number density = 18.131675 Si / 1000 Ang^3
#
#
#
# Elastic Constant Matrix: (Units=GPa)
#
#
# Indices 1 2 3 4 5 6 
#
# 1 87.1229 30.0381 34.3514 0.0000 0.0000 0.0000
# 2 30.0381 78.8860 35.3743 0.0000 0.0000 0.0000
# 3 34.3514 35.3743 93.1759 0.0000 0.0000 0.0000
# 4 0.0000 0.0000 0.0000 20.7794 0.0000 0.0000
# 5 0.0000 0.0000 0.0000 0.0000 28.7395 0.0000
# 6 0.0000 0.0000 0.0000 0.0000 0.0000 20.9841
#
#
#
# Elastic Compliance Matrix: (Units=1/GPa)
#
#
# Indices 1 2 3 4 5 6 
#
# 1 0.014277 -0.003707 -0.003856 0.000000 0.000000 0.000000
# 2 -0.003707 0.016240 -0.004799 0.000000 0.000000 0.000000
# 3 -0.003856 -0.004799 0.013976 0.000000 0.000000 0.000000
# 4 0.000000 0.000000 0.000000 0.048125 0.000000 0.000000
# 5 0.000000 0.000000 0.000000 0.000000 0.034795 0.000000
# 6 0.000000 0.000000 0.000000 0.000000 0.000000 0.047655
#
#
# Mechanical properties :
#
#
# Convention : Reuss Voigt Hill
#
# Bulk Modulus (GPa) = 50.58522 50.96805 50.77663
# Shear Modulus (GPa) = 24.22709 24.72868 24.47788
#
# Velocity S-wave (km/s) = 3.65934 3.69703 3.67823
# Velocity P-wave (km/s) = 6.76858 6.81139 6.79002
#
# Compressibility (1/GPa) = 0.01976862
#
# Stress axis : x y z
#
# Youngs Moduli (GPa) = 70.04506 61.57628 71.55199
#
# Poissons Ratio (x) = 0.22827 0.27590
# Poissons Ratio (y) = 0.25966 0.34337
# Poissons Ratio (z) = 0.27009 0.29549
#
# Static dielectric constant tensor:
#      x y z
#    x 3.307790 0.000000 0.000000 
#    y 0.000000 3.312900 0.000000 
#    z 0.000000 0.000000 3.388950 
# 
# 
# High freq. dielectric constant tensor:
#      x y z
#    x 1.698620 0.000000 0.000000 
#    y 0.000000 1.697610 0.000000 
#    z 0.000000 0.000000 1.704100 
# 
# From -- ./inp_files/48846.got.cif
#   From: 2010.06.25/outbox.cif.g09.slc.cpg/sg71_25_cif.got.tgz:48846.got - 2010.06.28 04:59:45.
