data_PCOD8289471
_publ_section_title
;
Structure prediction by ZEFSAII (Michael W. Deem and Ramdas Pophale) SiO2 
 PCOD8289471
Probable space group: I M M M
;
_chemical_formula_sum "Si O2"
_cell_formula_units_Z 72
_cell_length_a 9.430772
_cell_length_b 31.648502
_cell_length_c 12.515713
_cell_angle_alpha 90.000000
_cell_angle_beta 90.000000
_cell_angle_gamma 90.000000
_cell_volume 3735.562437
_symmetry_space_group_name_H-M "I M M M"
_symmetry_group_IT_number 71
_symmetry_cell_setting 'orthorhombic'
loop_
_space_group_symop_operation_xyz
x,y,z
-x,-y,z
x,-y,-z
-x,y,-z
-x,-y,-z
x,y,-z
-x,y,z
x,-y,z
1/2+x,1/2+y,1/2+z
1/2-x,1/2-y,1/2+z
1/2+x,1/2-y,1/2-z
1/2-x,1/2+y,1/2-z
1/2-x,1/2-y,1/2-z
1/2+x,1/2+y,1/2-z
1/2-x,1/2+y,1/2+z
1/2+x,1/2-y,1/2+z
loop_
_atom_site_type_symbol
_atom_site_label
_atom_site_fract_x
_atom_site_fract_y
_atom_site_fract_z
Si Si1 0.663162 0.950079 0.500000
Si Si2 0.166467 0.138272 0.116921
Si Si3 0.345315 0.692565 0.878767
Si Si4 0.340366 0.732081 0.372449
Si Si5 0.667766 0.399577 0.830556
O O1 0.500000 0.934600 0.500000
O O2 0.741780 0.934598 0.607683
O O3 0.671895 0.000000 0.500000
O O4 0.208512 0.184655 0.166112
O O5 0.205025 0.101582 0.203029
O O6 0.000000 0.139207 0.098953
O O7 0.238087 0.129405 0.000000
O O8 0.500000 0.691088 0.822605
O O9 0.256149 0.730019 0.821885
O O10 0.280547 0.645636 0.875498
O O11 0.359648 0.706740 0.000000
O O12 0.329449 0.731054 0.500000
O O13 0.500000 0.742871 0.337896
O O14 0.500000 0.407567 0.850902
#
# Coordination Sequence:
#
# PCOD8289471 Si02
#       5
#     8  16  16  16  16
#     4  11  25  43  61  83 109 131 161 215 281 341
#     4   8  15  29  50  77 109 144 183 222 256 297
#     4   9  16  26  40  65 102 138 176 222 263 299
#     4   8  14  25  41  64  98 143 185 216 251 296
#     4  10  19  34  57  81 105 138 177 216 265 321
#
# _framework density 19.274207000000001
#
# number of rings (size 3 to 8) (size 9 to 14) (size 15 to 20)
#    0.000    3.000    1.111    1.667    0.000    2.667 
#    0.000    1.111    0.000    2.667    0.000    4.667 
#    0.000    0.000    0.000    0.000    0.000    0.000 
#
# Total GULP energy -445999.139973 kJ/mol
# GULP energy per Si atom -12388.864999 kJ/mol
# Density = 1.923034 g / cm^3
# Si number density = 19.274207 Si / 1000 Ang^3
#
#
#
# Elastic Constant Matrix: (Units=GPa)
#
#
# Indices 1 2 3 4 5 6 
#
# 1 69.3054 42.2802 29.3018 -0.0001 -0.0001 0.0000
# 2 42.2802 77.9078 44.6394 -0.0001 0.0000 0.0000
# 3 29.3018 44.6394 95.2298 -0.0029 0.0010 0.0005
# 4 -0.0001 -0.0001 -0.0029 22.6110 0.0002 0.0001
# 5 -0.0001 0.0000 0.0010 0.0002 5.9471 -0.0008
# 6 0.0000 0.0000 0.0005 0.0001 -0.0008 20.4712
#
#
#
# Elastic Compliance Matrix: (Units=1/GPa)
#
#
# Indices 1 2 3 4 5 6 
#
# 1 0.021744 -0.010892 -0.001585 0.000000 0.000000 0.000000
# 2 -0.010892 0.023006 -0.007432 -0.000001 0.000001 0.000000
# 3 -0.001585 -0.007432 0.014472 0.000002 -0.000002 0.000000
# 4 0.000000 -0.000001 0.000002 0.044226 -0.000001 0.000000
# 5 0.000000 0.000001 -0.000002 -0.000001 0.168150 0.000006
# 6 0.000000 0.000000 0.000000 0.000000 0.000006 0.048849
#
#
# Mechanical properties :
#
#
# Convention : Reuss Voigt Hill
#
# Bulk Modulus (GPa) = 51.53832 52.76509 52.15171
# Shear Modulus (GPa) = 13.63386 18.22062 15.92724
#
# Velocity S-wave (km/s) = 2.66252 3.07797 2.87775
# Velocity P-wave (km/s) = 6.02076 6.32987 6.17725
#
# Compressibility (1/GPa) = 0.01940304
#
# Stress axis : x y z
#
# Youngs Moduli (GPa) = 45.99012 43.46782 69.09664
#
# Poissons Ratio (x) = 0.47346 0.10949
# Poissons Ratio (y) = 0.50094 0.51356
# Poissons Ratio (z) = 0.07288 0.32307
#
# Static dielectric constant tensor:
#      x y z
#    x 3.502780 0.000000 0.000000 
#    y 0.000000 3.217260 0.000000 
#    z 0.000000 0.000000 4.108100 
# 
# 
# High freq. dielectric constant tensor:
#      x y z
#    x 1.708650 0.000000 0.000000 
#    y 0.000000 1.708710 0.000000 
#    z 0.000000 0.000000 1.795370 
# 
# From -- ./inp_files/31453.got.cif
#   From: 2010.06.25/outbox.cif.g09.slc.cpg/sg71_16_cif.got.tgz:31453.got - 2010.06.28 04:59:45.
