data_PCOD8289065
_publ_section_title
;
Structure prediction by ZEFSAII (Michael W. Deem and Ramdas Pophale) SiO2 
 PCOD8289065
Probable space group: I M M M
;
_chemical_formula_sum "Si O2"
_cell_formula_units_Z 88
_cell_length_a 28.722310
_cell_length_b 9.225495
_cell_length_c 17.781925
_cell_angle_alpha 90.000000
_cell_angle_beta 90.000000
_cell_angle_gamma 90.000000
_cell_volume 4711.810517
_symmetry_space_group_name_H-M "I M M M"
_symmetry_group_IT_number 71
_symmetry_cell_setting 'orthorhombic'
loop_
_space_group_symop_operation_xyz
x,y,z
-x,-y,z
x,-y,-z
-x,y,-z
-x,-y,-z
x,y,-z
-x,y,z
x,-y,z
1/2+x,1/2+y,1/2+z
1/2-x,1/2-y,1/2+z
1/2+x,1/2-y,1/2-z
1/2-x,1/2+y,1/2-z
1/2-x,1/2-y,1/2-z
1/2+x,1/2+y,1/2-z
1/2-x,1/2+y,1/2+z
1/2+x,1/2-y,1/2+z
loop_
_atom_site_type_symbol
_atom_site_label
_atom_site_fract_x
_atom_site_fract_y
_atom_site_fract_z
Si Si1 0.790889 0.834114 0.156211
Si Si2 0.887363 0.169468 0.086925
Si Si3 0.446356 0.170390 0.293146
Si Si4 0.700498 0.666414 0.167114
Si Si5 0.551553 0.828007 0.000000
Si Si6 0.607918 0.171652 0.855773
O O1 0.835845 0.778234 0.110803
O O2 0.747396 0.735070 0.132657
O O3 0.801346 0.815706 0.243719
O O4 0.778957 0.000000 0.135881
O O5 0.926807 0.252142 0.133098
O O6 0.892418 0.000000 0.104162
O O7 0.895339 0.206114 0.000000
O O8 0.500000 0.214555 0.281768
O O9 0.417662 0.222426 0.220303
O O10 0.441046 0.000000 0.304915
O O11 0.698211 0.500000 0.142098
O O12 0.657172 0.751840 0.133449
O O13 0.577223 0.773877 0.925351
O O14 0.500000 0.760588 0.000000
O O15 0.548815 0.000000 0.000000
O O16 0.615662 0.000000 0.856197
#
# Coordination Sequence:
#
# PCOD8289065 Si02
#       6
#    16  16  16  16   8  16
#     4   9  18  34  54  78 107 139 178 221 266 317
#     4  10  21  38  58  80 108 144 186 229 269 316
#     4  10  21  36  56  82 110 141 179 224 274 326
#     4  10  19  32  55  82 109 140 176 220 268 322
#     4   9  18  34  57  83 109 141 185 231 270 315
#     4  10  19  34  57  82 109 142 181 224 270 322
#
# _framework density 18.676473000000001
#
# number of rings (size 3 to 8) (size 9 to 14) (size 15 to 20)
#    0.000    2.273    1.818    1.091    0.000    4.727 
#    1.636    2.273    0.000    2.182    0.000    0.000 
#    0.000    0.000    0.000    0.000    0.000    0.000 
#
# Total GULP energy -545733.937559 kJ/mol
# GULP energy per Si atom -12403.044035 kJ/mol
# Density = 1.863396 g / cm^3
# Si number density = 18.676473 Si / 1000 Ang^3
#
#
#
# Elastic Constant Matrix: (Units=GPa)
#
#
# Indices 1 2 3 4 5 6 
#
# 1 129.5260 46.4214 38.9674 0.0000 0.0000 0.0000
# 2 46.4214 51.4263 26.5164 0.0000 0.0000 0.0000
# 3 38.9674 26.5164 80.9603 0.0000 0.0000 0.0000
# 4 0.0000 0.0000 0.0000 21.3783 0.0000 0.0000
# 5 0.0000 0.0000 0.0000 0.0000 29.0647 0.0000
# 6 0.0000 0.0000 0.0000 0.0000 0.0000 32.1842
#
#
#
# Elastic Compliance Matrix: (Units=1/GPa)
#
#
# Indices 1 2 3 4 5 6 
#
# 1 0.011867 -0.009345 -0.002651 0.000000 0.000000 0.000000
# 2 -0.009345 0.030756 -0.005575 0.000000 0.000000 0.000000
# 3 -0.002651 -0.005575 0.015454 0.000000 0.000000 0.000000
# 4 0.000000 0.000000 0.000000 0.046776 0.000000 0.000000
# 5 0.000000 0.000000 0.000000 0.000000 0.034406 0.000000
# 6 0.000000 0.000000 0.000000 0.000000 0.000000 0.031071
#
#
# Mechanical properties :
#
#
# Convention : Reuss Voigt Hill
#
# Bulk Modulus (GPa) = 43.60418 53.96922 48.78670
# Shear Modulus (GPa) = 23.46113 26.52594 24.99353
#
# Velocity S-wave (km/s) = 3.54812 3.77276 3.66216
# Velocity P-wave (km/s) = 6.33903 6.92372 6.63782
#
# Compressibility (1/GPa) = 0.02293358
#
# Stress axis : x y z
#
# Youngs Moduli (GPa) = 84.26453 32.51411 64.70924
#
# Poissons Ratio (x) = 0.30386 0.17155
# Poissons Ratio (y) = 0.78749 0.36076
# Poissons Ratio (z) = 0.22339 0.18127
#
# Static dielectric constant tensor:
#      x y z
#    x 3.540560 0.000000 0.000000 
#    y 0.000000 3.274160 0.000000 
#    z 0.000000 0.000000 3.357400 
# 
# 
# High freq. dielectric constant tensor:
#      x y z
#    x 1.738650 0.000000 0.000000 
#    y 0.000000 1.707730 0.000000 
#    z 0.000000 0.000000 1.716030 
# 
# From -- ./inp_files/8740.got.cif
#   From: 2010.06.25/outbox.cif.g09.slc.cpg/sg71_5_cif.got.tgz:8740.got - 2010.06.28 04:59:45.
