data_PCOD8289665
_publ_section_title
;
Structure prediction by ZEFSAII (Michael W. Deem and Ramdas Pophale) SiO2 
 PCOD8289665
Probable space group: I M M M
;
_chemical_formula_sum "Si O2"
_cell_formula_units_Z 52
_cell_length_a 10.239730
_cell_length_b 20.051825
_cell_length_c 11.300186
_cell_angle_alpha 90.000000
_cell_angle_beta 90.000000
_cell_angle_gamma 90.000000
_cell_volume 2320.213787
_symmetry_space_group_name_H-M "I M M M"
_symmetry_group_IT_number 71
_symmetry_cell_setting 'orthorhombic'
loop_
_space_group_symop_operation_xyz
x,y,z
-x,-y,z
x,-y,-z
-x,y,-z
-x,-y,-z
x,y,-z
-x,y,z
x,-y,z
1/2+x,1/2+y,1/2+z
1/2-x,1/2-y,1/2+z
1/2+x,1/2-y,1/2-z
1/2-x,1/2+y,1/2-z
1/2-x,1/2-y,1/2-z
1/2+x,1/2+y,1/2-z
1/2-x,1/2+y,1/2+z
1/2+x,1/2-y,1/2+z
loop_
_atom_site_type_symbol
_atom_site_label
_atom_site_fract_x
_atom_site_fract_y
_atom_site_fract_z
Si Si1 0.500000 0.856746 0.299067
Si Si2 0.654761 0.423475 0.000000
Si Si3 0.000000 0.213282 0.868378
Si Si4 0.245201 0.000000 0.862770
Si Si5 0.000000 0.500000 0.794554
Si Si6 0.216802 0.131023 0.247287
O O1 0.500000 0.793301 0.385041
O O2 0.500000 0.929719 0.367900
O O3 0.631064 0.852988 0.217934
O O4 0.705500 0.382611 0.887215
O O5 0.709549 0.500000 0.000000
O O6 0.500000 0.425436 0.000000
O O7 0.871874 0.192292 0.794850
O O8 0.000000 0.182178 0.000000
O O9 0.377502 0.000000 0.790543
O O10 0.165565 0.066148 0.824951
O O11 0.274842 0.000000 0.000000
#
# Coordination Sequence:
#
# PCOD8289665 Si02
#       6
#     8   8   8   8   4  16
#     4  10  24  45  69  95 134 170 219 279 332 395
#     4  11  22  41  69 101 137 175 223 278 328 391
#     4  12  26  44  64  96 136 179 220 273 330 403
#     4  10  19  36  64  98 131 168 209 271 322 387
#     4   8  19  40  67  92 126 169 216 267 324 400
#     4  11  23  43  67  99 131 175 224 267 335 393
#
# _framework density 22.411728
#
# number of rings (size 3 to 8) (size 9 to 14) (size 15 to 20)
#    0.000    1.385    3.077    2.077    2.154    0.615 
#    0.000    5.000   16.923    0.000    0.000    0.000 
#    0.000    0.000    0.000    0.000    0.000    0.000 
#
# Total GULP energy -322207.505257 kJ/mol
# GULP energy per Si atom -12392.596356 kJ/mol
# Density = 2.236072 g / cm^3
# Si number density = 22.411728 Si / 1000 Ang^3
#
#
#
# Elastic Constant Matrix: (Units=GPa)
#
#
# Indices 1 2 3 4 5 6 
#
# 1 130.7335 48.4191 25.4969 0.0000 0.0000 0.0000
# 2 48.4191 158.0872 51.1544 -0.0001 0.0000 0.0000
# 3 25.4969 51.1544 135.5480 -0.0001 -0.0001 0.0000
# 4 0.0000 -0.0001 -0.0001 20.9312 0.0000 0.0000
# 5 0.0000 0.0000 -0.0001 0.0000 45.9008 0.0000
# 6 0.0000 0.0000 0.0000 0.0000 0.0000 23.6621
#
#
#
# Elastic Compliance Matrix: (Units=1/GPa)
#
#
# Indices 1 2 3 4 5 6 
#
# 1 0.008689 -0.002429 -0.000718 0.000000 0.000000 0.000000
# 2 -0.002429 0.007885 -0.002519 0.000000 0.000000 0.000000
# 3 -0.000718 -0.002519 0.008463 0.000000 0.000000 0.000000
# 4 0.000000 0.000000 0.000000 0.047776 0.000000 0.000000
# 5 0.000000 0.000000 0.000000 0.000000 0.021786 0.000000
# 6 0.000000 0.000000 0.000000 0.000000 0.000000 0.042262
#
#
# Mechanical properties :
#
#
# Convention : Reuss Voigt Hill
#
# Bulk Modulus (GPa) = 72.96277 74.94552 73.95414
# Shear Modulus (GPa) = 32.73134 38.05203 35.39168
#
# Velocity S-wave (km/s) = 3.82574 4.12498 3.97817
# Velocity P-wave (km/s) = 7.22089 7.49668 7.36008
#
# Compressibility (1/GPa) = 0.01370562
#
# Stress axis : x y z
#
# Youngs Moduli (GPa) = 115.09167 126.83017 118.16167
#
# Poissons Ratio (x) = 0.30806 0.08481
# Poissons Ratio (y) = 0.27955 0.29761
# Poissons Ratio (z) = 0.08260 0.31944
#
# Static dielectric constant tensor:
#      x y z
#    x 4.151710 0.000000 0.000000 
#    y 0.000000 4.501500 0.000000 
#    z 0.000000 0.000000 3.592900 
# 
# 
# High freq. dielectric constant tensor:
#      x y z
#    x 1.893880 0.000000 0.000000 
#    y 0.000000 1.896260 0.000000 
#    z 0.000000 0.000000 1.848560 
# 
# From -- ./inp_files/19321.got.cif
#   From: 2010.06.25/outbox.cif.g09.slc.cpg/sg71_10_cif.got.tgz:19321.got - 2010.06.28 04:59:45.
