data_PCOD8289339
_publ_section_title
;
Structure prediction by ZEFSAII (Michael W. Deem and Ramdas Pophale) SiO2 
 PCOD8289339
Probable space group: I M M M
;
_chemical_formula_sum "Si O2"
_cell_formula_units_Z 88
_cell_length_a 16.733529
_cell_length_b 13.837118
_cell_length_c 19.933708
_cell_angle_alpha 90.000000
_cell_angle_beta 90.000000
_cell_angle_gamma 90.000000
_cell_volume 4615.526804
_symmetry_space_group_name_H-M "I M M M"
_symmetry_group_IT_number 71
_symmetry_cell_setting 'orthorhombic'
loop_
_space_group_symop_operation_xyz
x,y,z
-x,-y,z
x,-y,-z
-x,y,-z
-x,-y,-z
x,y,-z
-x,y,z
x,-y,z
1/2+x,1/2+y,1/2+z
1/2-x,1/2-y,1/2+z
1/2+x,1/2-y,1/2-z
1/2-x,1/2+y,1/2-z
1/2-x,1/2-y,1/2-z
1/2+x,1/2+y,1/2-z
1/2-x,1/2+y,1/2+z
1/2+x,1/2-y,1/2+z
loop_
_atom_site_type_symbol
_atom_site_label
_atom_site_fract_x
_atom_site_fract_y
_atom_site_fract_z
Si Si1 0.693015 0.110742 0.643653
Si Si2 0.592483 0.891624 0.221521
Si Si3 0.592544 0.743953 0.425013
Si Si4 0.905464 0.107636 0.193400
Si Si5 0.000000 0.114062 0.422574
Si Si6 0.638195 0.699518 0.166184
O O1 0.644326 0.120223 0.712062
O O2 0.639012 0.155224 0.584669
O O3 0.772750 0.174015 0.645417
O O4 0.713713 0.000000 0.626656
O O5 0.500000 0.869003 0.239218
O O6 0.624762 0.815465 0.166599
O O7 0.601518 0.000000 0.192027
O O8 0.607586 0.704391 0.500000
O O9 0.500000 0.765657 0.412424
O O10 0.624813 0.664455 0.372314
O O11 0.876078 0.161049 0.259279
O O12 0.000000 0.101342 0.194318
O O13 0.868209 0.000000 0.191636
O O14 0.921064 0.153684 0.387472
O O15 0.000000 0.146410 0.500000
O O16 0.000000 0.000000 0.414683
#
# Coordination Sequence:
#
# PCOD8289339 Si02
#       6
#    16  16  16  16   8  16
#     4  11  23  36  57  89 121 156 199 251 303 351
#     4  10  20  36  60  90 121 154 196 248 301 351
#     4  10  22  39  57  82 120 162 202 247 299 354
#     4  10  19  33  58  87 114 151 198 245 292 347
#     4  11  24  40  61  89 122 160 198 243 299 355
#     4  12  21  39  61  89 122 154 200 249 297 352
#
# _framework density 19.066078999999998
#
# number of rings (size 3 to 8) (size 9 to 14) (size 15 to 20)
#    0.000    1.364    3.636    2.727    0.000    2.545 
#    0.000    2.727    0.000    1.091    0.000    0.000 
#    0.000    0.000    0.000    0.000    0.000    0.000 
#
# Total GULP energy -545663.691409 kJ/mol
# GULP energy per Si atom -12401.447532 kJ/mol
# Density = 1.902268 g / cm^3
# Si number density = 19.066079 Si / 1000 Ang^3
#
#
#
# Elastic Constant Matrix: (Units=GPa)
#
#
# Indices 1 2 3 4 5 6 
#
# 1 94.7575 56.2245 38.1705 0.0000 0.0000 0.0000
# 2 56.2245 130.6368 51.4676 0.0000 0.0000 0.0000
# 3 38.1705 51.4676 116.7214 0.0000 0.0000 0.0000
# 4 0.0000 0.0000 0.0000 23.7157 0.0000 0.0000
# 5 0.0000 0.0000 0.0000 0.0000 3.5375 0.0000
# 6 0.0000 0.0000 0.0000 0.0000 0.0000 30.5090
#
#
#
# Elastic Compliance Matrix: (Units=1/GPa)
#
#
# Indices 1 2 3 4 5 6 
#
# 1 0.014728 -0.005375 -0.002446 0.000000 0.000000 0.000000
# 2 -0.005375 0.011226 -0.003192 0.000000 0.000000 0.000000
# 3 -0.002446 -0.003192 0.010775 0.000000 0.000000 0.000000
# 4 0.000000 0.000000 0.000000 0.042166 0.000000 0.000000
# 5 0.000000 0.000000 0.000000 0.000000 0.282685 0.000000
# 6 0.000000 0.000000 0.000000 0.000000 0.000000 0.032777
#
#
# Mechanical properties :
#
#
# Convention : Reuss Voigt Hill
#
# Bulk Modulus (GPa) = 68.01905 70.42676 69.22291
# Shear Modulus (GPa) = 11.86847 24.63597 18.25222
#
# Velocity S-wave (km/s) = 2.49768 3.59853 3.09741
# Velocity P-wave (km/s) = 6.63858 7.36779 7.01267
#
# Compressibility (1/GPa) = 0.01470176
#
# Stress axis : x y z
#
# Youngs Moduli (GPa) = 67.89823 89.08074 92.80743
#
# Poissons Ratio (x) = 0.47880 0.22704
# Poissons Ratio (y) = 0.36495 0.29626
# Poissons Ratio (z) = 0.16610 0.28436
#
# Static dielectric constant tensor:
#      x y z
#    x 3.574850 0.000000 0.000000 
#    y 0.000000 3.887050 0.000000 
#    z 0.000000 0.000000 3.350070 
# 
# 
# High freq. dielectric constant tensor:
#      x y z
#    x 1.743950 0.000000 0.000000 
#    y 0.000000 1.754140 0.000000 
#    z 0.000000 0.000000 1.716500 
# 
# From -- ./inp_files/45861.got.cif
#   From: 2010.06.25/outbox.cif.g09.slc.cpg/sg71_23_cif.got.tgz:45861.got - 2010.06.28 04:59:45.
