data_PCOD8289963
_publ_section_title
;
Structure prediction by ZEFSAII (Michael W. Deem and Ramdas Pophale) SiO2 
 PCOD8289963
Probable space group: I M M M
;
_chemical_formula_sum "Si O2"
_cell_formula_units_Z 64
_cell_length_a 13.067949
_cell_length_b 18.197777
_cell_length_c 14.047243
_cell_angle_alpha 90.000000
_cell_angle_beta 90.000000
_cell_angle_gamma 90.000000
_cell_volume 3340.541450
_symmetry_space_group_name_H-M "I M M M"
_symmetry_group_IT_number 71
_symmetry_cell_setting 'orthorhombic'
loop_
_space_group_symop_operation_xyz
x,y,z
-x,-y,z
x,-y,-z
-x,y,-z
-x,-y,-z
x,y,-z
-x,y,z
x,-y,z
1/2+x,1/2+y,1/2+z
1/2-x,1/2-y,1/2+z
1/2+x,1/2-y,1/2-z
1/2-x,1/2+y,1/2-z
1/2-x,1/2-y,1/2-z
1/2+x,1/2+y,1/2-z
1/2-x,1/2+y,1/2+z
1/2+x,1/2-y,1/2+z
loop_
_atom_site_type_symbol
_atom_site_label
_atom_site_fract_x
_atom_site_fract_y
_atom_site_fract_z
Si Si1 0.500000 0.663373 0.887248
Si Si2 0.000000 0.335002 0.389049
Si Si3 0.889092 0.587273 0.107152
Si Si4 0.700910 0.085146 0.107316
Si Si5 0.311173 0.585518 0.789469
O O1 0.500000 0.749234 0.867294
O O2 0.401829 0.630590 0.835646
O O3 0.500000 0.644724 0.000000
O O4 0.103785 0.371374 0.348717
O O5 0.000000 0.352744 0.500000
O O6 0.888361 0.500000 0.109110
O O7 0.794849 0.617098 0.168188
O O8 0.000000 0.615473 0.146530
O O9 0.874518 0.616154 0.000000
O O10 0.800015 0.098129 0.175308
O O11 0.669513 0.000000 0.109510
O O12 0.729864 0.110627 0.000000
O O13 0.329166 0.500000 0.813793
#
# Coordination Sequence:
#
# PCOD8289963 Si02
#       5
#     8   8  16  16  16
#     4  11  23  37  52  75 111 153 187 213 253 318
#     4   9  19  35  55  80 109 142 176 218 272 326
#     4   8  14  25  42  67  99 131 166 215 267 305
#     4   9  18  34  57  83 107 132 173 231 283 318
#     4  10  20  32  52  79 106 140 183 221 262 316
#
# _framework density 19.158570000000001
#
# number of rings (size 3 to 8) (size 9 to 14) (size 15 to 20)
#    0.000    2.750    0.000    2.250    1.750    4.500 
#    0.000    0.625    0.000    3.000    0.000    1.750 
#    0.000    0.000    0.000    0.000    0.000    0.000 
#
# Total GULP energy -396562.323228 kJ/mol
# GULP energy per Si atom -12392.572601 kJ/mol
# Density = 1.911496 g / cm^3
# Si number density = 19.158570 Si / 1000 Ang^3
#
#
#
# Elastic Constant Matrix: (Units=GPa)
#
#
# Indices 1 2 3 4 5 6 
#
# 1 140.1287 47.8997 72.9602 -0.0001 0.0000 0.0000
# 2 47.8997 63.9191 36.2145 -0.0001 -0.0001 0.0000
# 3 72.9602 36.2145 100.8706 0.0001 0.0000 0.0000
# 4 -0.0001 -0.0001 0.0001 15.9324 -0.0001 -0.0001
# 5 0.0000 -0.0001 0.0000 -0.0001 32.0780 0.0000
# 6 0.0000 0.0000 0.0000 -0.0001 0.0000 14.8491
#
#
#
# Elastic Compliance Matrix: (Units=1/GPa)
#
#
# Indices 1 2 3 4 5 6 
#
# 1 0.012804 -0.005458 -0.007301 0.000000 0.000000 0.000000
# 2 -0.005458 0.021966 -0.003939 0.000000 0.000000 0.000000
# 3 -0.007301 -0.003939 0.016609 0.000000 0.000000 0.000000
# 4 0.000000 0.000000 0.000000 0.062765 0.000000 0.000000
# 5 0.000000 0.000000 0.000000 0.000000 0.031174 0.000000
# 6 0.000000 0.000000 0.000000 0.000000 0.000000 0.067344
#
#
# Mechanical properties :
#
#
# Convention : Reuss Voigt Hill
#
# Bulk Modulus (GPa) = 55.60833 68.78524 62.19679
# Shear Modulus (GPa) = 19.83718 22.42818 21.13268
#
# Velocity S-wave (km/s) = 3.22129 3.42520 3.32481
# Velocity P-wave (km/s) = 6.55163 7.18497 6.87560
#
# Compressibility (1/GPa) = 0.01798292
#
# Stress axis : x y z
#
# Youngs Moduli (GPa) = 78.10335 45.52417 60.20908
#
# Poissons Ratio (x) = 0.24847 0.43961
# Poissons Ratio (y) = 0.42629 0.23714
# Poissons Ratio (z) = 0.57026 0.17930
#
# Static dielectric constant tensor:
#      x y z
#    x 4.032830 0.000000 0.000000 
#    y 0.000000 3.121870 0.000000 
#    z 0.000000 0.000000 3.777650 
# 
# 
# High freq. dielectric constant tensor:
#      x y z
#    x 1.738420 0.000000 0.000000 
#    y 0.000000 1.702040 0.000000 
#    z 0.000000 0.000000 1.756210 
# 
# From -- ./inp_files/32281.got.cif
#   From: 2010.06.25/outbox.cif.g09.slc.cpg/sg71_17_cif.got.tgz:32281.got - 2010.06.28 04:59:45.
