data_PCOD8289324
_publ_section_title
;
Structure prediction by ZEFSAII (Michael W. Deem and Ramdas Pophale) SiO2 
 PCOD8289324
Probable space group: I M M M
;
_chemical_formula_sum "Si O2"
_cell_formula_units_Z 80
_cell_length_a 21.156234
_cell_length_b 21.513612
_cell_length_c 9.112695
_cell_angle_alpha 90.000000
_cell_angle_beta 90.000000
_cell_angle_gamma 90.000000
_cell_volume 4147.615879
_symmetry_space_group_name_H-M "I M M M"
_symmetry_group_IT_number 71
_symmetry_cell_setting 'orthorhombic'
loop_
_space_group_symop_operation_xyz
x,y,z
-x,-y,z
x,-y,-z
-x,y,-z
-x,-y,-z
x,y,-z
-x,y,z
x,-y,z
1/2+x,1/2+y,1/2+z
1/2-x,1/2-y,1/2+z
1/2+x,1/2-y,1/2-z
1/2-x,1/2+y,1/2-z
1/2-x,1/2-y,1/2-z
1/2+x,1/2+y,1/2-z
1/2-x,1/2+y,1/2+z
1/2+x,1/2-y,1/2+z
loop_
_atom_site_type_symbol
_atom_site_label
_atom_site_fract_x
_atom_site_fract_y
_atom_site_fract_z
Si Si1 0.183475 0.736985 0.328070
Si Si2 0.925565 0.500000 0.835492
Si Si3 0.852497 0.601394 0.331959
Si Si4 0.712037 0.569166 0.338392
Si Si5 0.500000 0.427540 0.674335
Si Si6 0.885355 0.140121 0.330538
O O1 0.199298 0.734256 0.500000
O O2 0.250000 0.750000 0.250000
O O3 0.154509 0.671842 0.272832
O O4 0.128312 0.787506 0.295682
O O5 0.903735 0.436486 0.758874
O O6 0.000000 0.500000 0.832459
O O7 0.898738 0.500000 0.000000
O O8 0.874981 0.601491 0.500000
O O9 0.786373 0.566340 0.312133
O O10 0.697757 0.598787 0.500000
O O11 0.684037 0.500000 0.334427
O O12 0.680547 0.607200 0.207641
O O13 0.500000 0.500000 0.727624
O O14 0.500000 0.425250 0.500000
O O15 0.560517 0.390004 0.731524
O O16 0.903048 0.129604 0.500000
#
# Coordination Sequence:
#
# PCOD8289324 Si02
#       6
#    16   8  16  16   8  16
#     4  10  21  37  60  91 125 158 196 244 298 359
#     4  11  25  43  61  87 123 156 199 260 313 357
#     4  10  20  38  62  87 117 158 201 243 294 359
#     4  10  19  33  56  86 117 151 197 246 294 355
#     4  11  25  45  65  85 115 164 215 252 297 361
#     4  11  23  38  59  89 123 158 198 250 308 357
#
# _framework density 19.28819
#
# number of rings (size 3 to 8) (size 9 to 14) (size 15 to 20)
#    0.000    1.600    3.000    1.800    0.000    6.800 
#    1.800    0.000    0.000    0.000    0.000    0.000 
#    0.000    0.000    0.000    0.000    0.000    0.000 
#
# Total GULP energy -495923.701287 kJ/mol
# GULP energy per Si atom -12398.092532 kJ/mol
# Density = 1.924429 g / cm^3
# Si number density = 19.288190 Si / 1000 Ang^3
#
#
#
# Elastic Constant Matrix: (Units=GPa)
#
#
# Indices 1 2 3 4 5 6 
#
# 1 67.9294 48.1872 42.0074 0.0000 0.0000 0.0000
# 2 48.1872 156.4278 56.8116 0.0000 0.0000 0.0000
# 3 42.0074 56.8116 81.1616 0.0000 0.0000 0.0000
# 4 0.0000 0.0000 0.0000 28.0715 0.0000 0.0000
# 5 0.0000 0.0000 0.0000 0.0000 32.8311 0.0000
# 6 0.0000 0.0000 0.0000 0.0000 0.0000 31.2094
#
#
#
# Elastic Compliance Matrix: (Units=1/GPa)
#
#
# Indices 1 2 3 4 5 6 
#
# 1 0.023168 -0.003730 -0.009380 0.000000 0.000000 0.000000
# 2 -0.003730 0.009172 -0.004490 0.000000 0.000000 0.000000
# 3 -0.009380 -0.004490 0.020319 0.000000 0.000000 0.000000
# 4 0.000000 0.000000 0.000000 0.035623 0.000000 0.000000
# 5 0.000000 0.000000 0.000000 0.000000 0.030459 0.000000
# 6 0.000000 0.000000 0.000000 0.000000 0.000000 0.032042
#
#
# Mechanical properties :
#
#
# Convention : Reuss Voigt Hill
#
# Bulk Modulus (GPa) = 57.27750 66.61458 61.94604
# Shear Modulus (GPa) = 26.06841 28.98990 27.52916
#
# Velocity S-wave (km/s) = 3.68029 3.88104 3.78200
# Velocity P-wave (km/s) = 6.91517 7.39559 7.15941
#
# Compressibility (1/GPa) = 0.01745886
#
# Stress axis : x y z
#
# Youngs Moduli (GPa) = 43.16322 109.02240 49.21525
#
# Poissons Ratio (x) = 0.40667 0.46165
# Poissons Ratio (y) = 0.16100 0.22097
# Poissons Ratio (z) = 0.40488 0.48950
#
# Static dielectric constant tensor:
#      x y z
#    x 3.348910 0.000000 0.000000 
#    y 0.000000 3.825550 0.000000 
#    z 0.000000 0.000000 3.566280 
# 
# 
# High freq. dielectric constant tensor:
#      x y z
#    x 1.737120 0.000000 0.000000 
#    y 0.000000 1.766210 0.000000 
#    z 0.000000 0.000000 1.747500 
# 
# From -- ./inp_files/10277.got.cif
#   From: 2010.06.25/outbox.cif.g09.slc.cpg/sg71_6_cif.got.tgz:10277.got - 2010.06.28 04:59:45.
