data_PCOD8289649
_publ_section_title
;
Structure prediction by ZEFSAII (Michael W. Deem and Ramdas Pophale) SiO2 
 PCOD8289649
Probable space group: I M M M
;
_chemical_formula_sum "Si O2"
_cell_formula_units_Z 88
_cell_length_a 28.736543
_cell_length_b 17.765971
_cell_length_c 9.199680
_cell_angle_alpha 90.000000
_cell_angle_beta 90.000000
_cell_angle_gamma 90.000000
_cell_volume 4696.736454
_symmetry_space_group_name_H-M "I M M M"
_symmetry_group_IT_number 71
_symmetry_cell_setting 'orthorhombic'
loop_
_space_group_symop_operation_xyz
x,y,z
-x,-y,z
x,-y,-z
-x,y,-z
-x,-y,-z
x,y,-z
-x,y,z
x,-y,z
1/2+x,1/2+y,1/2+z
1/2-x,1/2-y,1/2+z
1/2+x,1/2-y,1/2-z
1/2-x,1/2+y,1/2-z
1/2-x,1/2-y,1/2-z
1/2+x,1/2+y,1/2-z
1/2-x,1/2+y,1/2+z
1/2+x,1/2-y,1/2+z
loop_
_atom_site_type_symbol
_atom_site_label
_atom_site_fract_x
_atom_site_fract_y
_atom_site_fract_z
Si Si1 0.292218 0.844973 0.669421
Si Si2 0.204403 0.827868 0.833605
Si Si3 0.054336 0.289605 0.671382
Si Si4 0.551922 0.500000 0.672772
Si Si5 0.399694 0.649884 0.670159
Si Si6 0.388782 0.912555 0.669406
O O1 0.284960 0.856436 0.500000
O O2 0.244422 0.872031 0.745244
O O3 0.300844 0.758788 0.714554
O O4 0.336548 0.892830 0.723404
O O5 0.154758 0.865467 0.803550
O O6 0.219195 0.833366 0.000000
O O7 0.063191 0.290452 0.500000
O O8 0.081951 0.220464 0.740585
O O9 0.073256 0.367032 0.739000
O O10 0.000000 0.282162 0.709056
O O11 0.500000 0.500000 0.733717
O O12 0.553855 0.500000 0.500000
O O13 0.576006 0.424784 0.731728
O O14 0.409988 0.665030 0.500000
O O15 0.393836 0.890634 0.500000
O O16 0.398486 0.000000 0.696427
#
# Coordination Sequence:
#
# PCOD8289649 Si02
#       6
#    16  16  16   8  16  16
#     4   9  17  32  52  78 108 140 179 223 269 321
#     4   9  17  30  52  80 108 142 180 222 269 321
#     4  11  24  39  57  83 113 145 183 230 286 343
#     4   9  18  32  55  85 111 141 183 233 282 321
#     4  10  19  36  59  83 112 146 189 233 274 330
#     4  10  21  39  61  83 110 147 192 237 277 327
#
# _framework density 18.736415000000001
#
# number of rings (size 3 to 8) (size 9 to 14) (size 15 to 20)
#    0.000    2.273    1.818    1.091    0.000    4.364 
#    1.636    2.273    0.000    1.636    0.000    0.000 
#    0.000    0.000    0.000    0.000    0.000    0.000 
#
# Total GULP energy -545625.961392 kJ/mol
# GULP energy per Si atom -12400.590032 kJ/mol
# Density = 1.869377 g / cm^3
# Si number density = 18.736415 Si / 1000 Ang^3
#
#
#
# Elastic Constant Matrix: (Units=GPa)
#
#
# Indices 1 2 3 4 5 6 
#
# 1 95.2021 27.0478 36.5190 0.0000 0.0000 0.0000
# 2 27.0478 78.5211 27.2458 0.0000 0.0000 0.0000
# 3 36.5190 27.2458 53.9734 0.0000 0.0000 0.0000
# 4 0.0000 0.0000 0.0000 12.6164 0.0000 0.0000
# 5 0.0000 0.0000 0.0000 0.0000 34.3281 0.0000
# 6 0.0000 0.0000 0.0000 0.0000 0.0000 29.5097
#
#
#
# Elastic Compliance Matrix: (Units=1/GPa)
#
#
# Indices 1 2 3 4 5 6 
#
# 1 0.014420 -0.001918 -0.008789 0.000000 0.000000 0.000000
# 2 -0.001918 0.015695 -0.006625 0.000000 0.000000 0.000000
# 3 -0.008789 -0.006625 0.027819 0.000000 0.000000 0.000000
# 4 0.000000 0.000000 0.000000 0.079262 0.000000 0.000000
# 5 0.000000 0.000000 0.000000 0.000000 0.029131 0.000000
# 6 0.000000 0.000000 0.000000 0.000000 0.000000 0.033887
#
#
# Mechanical properties :
#
#
# Convention : Reuss Voigt Hill
#
# Bulk Modulus (GPa) = 42.97331 45.48019 44.22675
# Shear Modulus (GPa) = 20.60720 24.41644 22.51182
#
# Velocity S-wave (km/s) = 3.31999 3.61384 3.47003
# Velocity P-wave (km/s) = 6.13857 6.46061 6.30165
#
# Compressibility (1/GPa) = 0.02327026
#
# Stress axis : x y z
#
# Youngs Moduli (GPa) = 69.34755 63.71506 35.94709
#
# Poissons Ratio (x) = 0.12218 0.31593
# Poissons Ratio (y) = 0.13298 0.23816
# Poissons Ratio (z) = 0.60948 0.42213
#
# Static dielectric constant tensor:
#      x y z
#    x 3.664180 0.000000 0.000000 
#    y 0.000000 3.354590 0.000000 
#    z 0.000000 0.000000 3.298160 
# 
# 
# High freq. dielectric constant tensor:
#      x y z
#    x 1.742850 0.000000 0.000000 
#    y 0.000000 1.715920 0.000000 
#    z 0.000000 0.000000 1.708230 
# 
# From -- ./inp_files/8802.got.cif
#   From: 2010.06.25/outbox.cif.g09.slc.cpg/sg71_5_cif.got.tgz:8802.got - 2010.06.28 04:59:45.
