data_PCOD8289528
_publ_section_title
;
Structure prediction by ZEFSAII (Michael W. Deem and Ramdas Pophale) SiO2 
 PCOD8289528
Probable space group: I M M M
;
_chemical_formula_sum "Si O2"
_cell_formula_units_Z 82
_cell_length_a 24.397343
_cell_length_b 8.964154
_cell_length_c 20.275707
_cell_angle_alpha 90.000000
_cell_angle_beta 90.000000
_cell_angle_gamma 90.000000
_cell_volume 4434.328342
_symmetry_space_group_name_H-M "I M M M"
_symmetry_group_IT_number 71
_symmetry_cell_setting 'orthorhombic'
loop_
_space_group_symop_operation_xyz
x,y,z
-x,-y,z
x,-y,-z
-x,y,-z
-x,-y,-z
x,y,-z
-x,y,z
x,-y,z
1/2+x,1/2+y,1/2+z
1/2-x,1/2-y,1/2+z
1/2+x,1/2-y,1/2-z
1/2-x,1/2+y,1/2-z
1/2-x,1/2-y,1/2-z
1/2+x,1/2+y,1/2-z
1/2-x,1/2+y,1/2+z
1/2+x,1/2-y,1/2+z
loop_
_atom_site_type_symbol
_atom_site_label
_atom_site_fract_x
_atom_site_fract_y
_atom_site_fract_z
Si Si1 0.000000 0.263158 0.613473
Si Si2 0.784051 0.670753 0.424612
Si Si3 0.881806 0.163607 0.376684
Si Si4 0.500000 0.831705 0.264064
Si Si5 0.111594 0.826307 0.775913
Si Si6 0.000000 0.500000 0.500000
Si Si7 0.719073 0.177186 0.311457
O O1 0.945863 0.163063 0.606197
O O2 0.000000 0.340114 0.685044
O O3 0.000000 0.378289 0.556018
O O4 0.765354 0.690918 0.500000
O O5 0.776649 0.500000 0.401811
O O6 0.848487 0.713185 0.418217
O O7 0.749153 0.780662 0.379209
O O8 0.872224 0.196834 0.299970
O O9 0.858733 0.000000 0.394382
O O10 0.447186 0.745056 0.291814
O O11 0.500000 0.000000 0.291707
O O12 0.157533 0.740125 0.817839
O O13 0.110101 0.000000 0.795445
O O14 0.750000 0.250000 0.250000
O O15 0.718535 0.000000 0.302465
#
# Coordination Sequence:
#
# PCOD8289528 Si02
#       7
#     8  16  16   8  16   2  16
#     4  10  23  34  51  67 104 140 194 237 284 330
#     4  11  25  40  58  81 113 151 192 237 287 342
#     4  10  21  37  55  76 105 144 189 241 290 335
#     4  10  19  35  54  81 110 143 182 234 286 333
#     4  10  20  35  58  84 113 146 184 234 288 343
#     4  12  24  36  46  72  96 156 194 248 282 338
#     4  12  23  38  60  86 114 149 191 238 289 345
#
# _framework density 18.492090999999999
#
# number of rings (size 3 to 8) (size 9 to 14) (size 15 to 20)
#    0.000    1.366    2.439    3.512    2.732    4.683 
#    0.000    0.488    0.000    0.000    0.000    0.683 
#    0.000    5.463    0.000    0.000    0.000    0.000 
#
# Total GULP energy -507939.172561 kJ/mol
# GULP energy per Si atom -12388.760306 kJ/mol
# Density = 1.845000 g / cm^3
# Si number density = 18.492091 Si / 1000 Ang^3
#
#
#
# Elastic Constant Matrix: (Units=GPa)
#
#
# Indices 1 2 3 4 5 6 
#
# 1 129.8129 59.2133 38.0627 0.0000 0.0000 0.0000
# 2 59.2133 150.4847 35.0179 0.0000 0.0000 0.0000
# 3 38.0627 35.0179 57.1032 0.0000 0.0000 0.0000
# 4 0.0000 0.0000 0.0000 26.1002 0.0000 0.0000
# 5 0.0000 0.0000 0.0000 0.0000 12.7192 0.0000
# 6 0.0000 0.0000 0.0000 0.0000 0.0000 36.7461
#
#
#
# Elastic Compliance Matrix: (Units=1/GPa)
#
#
# Indices 1 2 3 4 5 6 
#
# 1 0.010586 -0.002943 -0.005251 0.000000 0.000000 0.000000
# 2 -0.002943 0.008570 -0.003293 0.000000 0.000000 0.000000
# 3 -0.005251 -0.003293 0.023032 0.000000 0.000000 0.000000
# 4 0.000000 0.000000 0.000000 0.038314 0.000000 0.000000
# 5 0.000000 0.000000 0.000000 0.000000 0.078621 0.000000
# 6 0.000000 0.000000 0.000000 0.000000 0.000000 0.027214
#
#
# Mechanical properties :
#
#
# Convention : Reuss Voigt Hill
#
# Bulk Modulus (GPa) = 52.05129 66.88764 59.46947
# Shear Modulus (GPa) = 23.17867 28.78690 25.98279
#
# Velocity S-wave (km/s) = 3.54423 3.94980 3.75250
# Velocity P-wave (km/s) = 6.70505 7.55319 7.14172
#
# Compressibility (1/GPa) = 0.01921182
#
# Stress axis : x y z
#
# Youngs Moduli (GPa) = 94.46755 116.68985 43.41812
#
# Poissons Ratio (x) = 0.34346 0.22799
# Poissons Ratio (y) = 0.27805 0.14299
# Poissons Ratio (z) = 0.49605 0.38430
#
# Static dielectric constant tensor:
#      x y z
#    x 3.566850 0.000000 0.000000 
#    y 0.000000 3.670790 0.000000 
#    z 0.000000 0.000000 3.127900 
# 
# 
# High freq. dielectric constant tensor:
#      x y z
#    x 1.718100 0.000000 0.000000 
#    y 0.000000 1.738180 0.000000 
#    z 0.000000 0.000000 1.676740 
# 
# From -- ./inp_files/50442.got.cif
#   From: 2010.06.25/outbox.cif.g09.slc.cpg/sg71_26_cif.got.tgz:50442.got - 2010.06.28 04:59:45.
