data_PCOD8289775
_publ_section_title
;
Structure prediction by ZEFSAII (Michael W. Deem and Ramdas Pophale) SiO2 
 PCOD8289775
Probable space group: I M M M
;
_chemical_formula_sum "Si O2"
_cell_formula_units_Z 96
_cell_length_a 16.700383
_cell_length_b 22.012438
_cell_length_c 17.070944
_cell_angle_alpha 90.000000
_cell_angle_beta 90.000000
_cell_angle_gamma 90.000000
_cell_volume 6275.554631
_symmetry_space_group_name_H-M "I M M M"
_symmetry_group_IT_number 71
_symmetry_cell_setting 'orthorhombic'
loop_
_space_group_symop_operation_xyz
x,y,z
-x,-y,z
x,-y,-z
-x,y,-z
-x,-y,-z
x,y,-z
-x,y,z
x,-y,z
1/2+x,1/2+y,1/2+z
1/2-x,1/2-y,1/2+z
1/2+x,1/2-y,1/2-z
1/2-x,1/2+y,1/2-z
1/2-x,1/2-y,1/2-z
1/2+x,1/2+y,1/2-z
1/2-x,1/2+y,1/2+z
1/2+x,1/2-y,1/2+z
loop_
_atom_site_type_symbol
_atom_site_label
_atom_site_fract_x
_atom_site_fract_y
_atom_site_fract_z
Si Si1 0.168006 0.429998 0.852681
Si Si2 0.500000 0.255579 0.591989
Si Si3 0.223512 0.072027 0.500000
Si Si4 0.860700 0.220091 0.199436
Si Si5 0.295870 0.165971 0.230855
Si Si6 0.405006 0.674841 0.000000
Si Si7 0.500000 0.884333 0.407676
Si Si8 0.088990 0.741755 0.642483
O O1 0.180879 0.500000 0.836205
O O2 0.188427 0.398620 0.770041
O O3 0.076593 0.417668 0.873768
O O4 0.225231 0.409031 0.923712
O O5 0.500000 0.264560 0.500000
O O6 0.580697 0.286263 0.625292
O O7 0.500000 0.185642 0.619309
O O8 0.141619 0.110740 0.500000
O O9 0.203293 0.000000 0.500000
O O10 0.795239 0.166246 0.198575
O O11 0.809819 0.283615 0.199865
O O12 0.913297 0.217124 0.278790
O O13 0.355159 0.182245 0.157718
O O14 0.378131 0.715144 0.074087
O O15 0.500000 0.660540 0.000000
O O16 0.500000 0.890125 0.500000
O O17 0.000000 0.718414 0.622017
#
# Coordination Sequence:
#
# PCOD8289775 Si02
#       8
#    16   8   8  16  16   8   8  16
#     4  11  21  32  47  68  98 138 177 201 234 290
#     4  11  20  29  48  76 104 134 162 195 248 306
#     4  10  22  34  44  64 101 134 167 211 233 280
#     4   9  16  31  45  65  96 126 155 200 252 284
#     4   9  18  30  46  66  89 129 159 203 248 280
#     4  10  20  31  51  75  85 126 171 203 258 304
#     4  11  19  30  43  66 105 141 170 197 226 276
#     4   9  16  29  46  64  94 116 155 205 245 290
#
# _framework density 15.297452
#
# number of rings (size 3 to 8) (size 9 to 14) (size 15 to 20)
#    1.000    1.167    3.333    1.250    1.167    0.500 
#    1.500    0.000    0.000    0.000    0.000    0.583 
#    0.000    2.667    0.000    0.000    0.000    0.000 
#
# Total GULP energy -594834.238000 kJ/mol
# GULP energy per Si atom -12392.379958 kJ/mol
# Density = 1.526263 g / cm^3
# Si number density = 15.297452 Si / 1000 Ang^3
#
#
#
# Elastic Constant Matrix: (Units=GPa)
#
#
# Indices 1 2 3 4 5 6 
#
# 1 99.1064 39.2463 34.9934 0.0000 0.0000 0.0000
# 2 39.2463 61.6335 36.4888 0.0000 0.0000 0.0000
# 3 34.9934 36.4888 70.7392 0.0000 0.0000 0.0000
# 4 0.0000 0.0000 0.0000 22.5518 0.0000 0.0000
# 5 0.0000 0.0000 0.0000 0.0000 17.6174 0.0000
# 6 0.0000 0.0000 0.0000 0.0000 0.0000 23.1275
#
#
#
# Elastic Compliance Matrix: (Units=1/GPa)
#
#
# Indices 1 2 3 4 5 6 
#
# 1 0.014025 -0.006944 -0.003356 0.000000 0.000000 0.000000
# 2 -0.006944 0.026796 -0.010387 0.000000 0.000000 0.000000
# 3 -0.003356 -0.010387 0.021154 0.000000 0.000000 0.000000
# 4 0.000000 0.000000 0.000000 0.044342 0.000000 0.000000
# 5 0.000000 0.000000 0.000000 0.000000 0.056762 0.000000
# 6 0.000000 0.000000 0.000000 0.000000 0.000000 0.043238
#
#
# Mechanical properties :
#
#
# Convention : Reuss Voigt Hill
#
# Bulk Modulus (GPa) = 48.53989 50.32625 49.43307
# Shear Modulus (GPa) = 19.64181 20.70938 20.17559
#
# Velocity S-wave (km/s) = 3.58717 3.68337 3.63559
# Velocity P-wave (km/s) = 6.99690 7.14559 7.07164
#
# Compressibility (1/GPa) = 0.02060161
#
# Stress axis : x y z
#
# Youngs Moduli (GPa) = 71.30179 37.31924 47.27127
#
# Poissons Ratio (x) = 0.25913 0.15865
# Poissons Ratio (y) = 0.49510 0.49101
# Poissons Ratio (z) = 0.23930 0.38763
#
# Static dielectric constant tensor:
#      x y z
#    x 2.938490 0.000000 0.000000 
#    y 0.000000 2.628190 0.000000 
#    z 0.000000 0.000000 2.806580 
# 
# 
# High freq. dielectric constant tensor:
#      x y z
#    x 1.599950 0.000000 0.000000 
#    y 0.000000 1.542150 0.000000 
#    z 0.000000 0.000000 1.570590 
# 
# From -- ./inp_files/34830.got.cif
#   From: 2010.06.25/outbox.cif.g09.slc.cpg/sg71_18_cif.got.tgz:34830.got - 2010.06.28 04:59:45.
