data_PCOD8289792
_publ_section_title
;
Structure prediction by ZEFSAII (Michael W. Deem and Ramdas Pophale) SiO2 
 PCOD8289792
Probable space group: I M M M
;
_chemical_formula_sum "Si O2"
_cell_formula_units_Z 96
_cell_length_a 25.244745
_cell_length_b 9.083313
_cell_length_c 25.469781
_cell_angle_alpha 90.000000
_cell_angle_beta 90.000000
_cell_angle_gamma 90.000000
_cell_volume 5840.371576
_symmetry_space_group_name_H-M "I M M M"
_symmetry_group_IT_number 71
_symmetry_cell_setting 'orthorhombic'
loop_
_space_group_symop_operation_xyz
x,y,z
-x,-y,z
x,-y,-z
-x,y,-z
-x,-y,-z
x,y,-z
-x,y,z
x,-y,z
1/2+x,1/2+y,1/2+z
1/2-x,1/2-y,1/2+z
1/2+x,1/2-y,1/2-z
1/2-x,1/2+y,1/2-z
1/2-x,1/2-y,1/2-z
1/2+x,1/2+y,1/2-z
1/2-x,1/2+y,1/2+z
1/2+x,1/2-y,1/2+z
loop_
_atom_site_type_symbol
_atom_site_label
_atom_site_fract_x
_atom_site_fract_y
_atom_site_fract_z
Si Si1 0.746885 0.839438 0.937922
Si Si2 0.360671 0.676158 0.441286
Si Si3 0.937523 0.829990 0.644479
Si Si4 0.132350 0.325090 0.439517
Si Si5 0.560932 0.326869 0.648204
Si Si6 0.437030 0.833903 0.752267
O O1 0.802636 0.758969 0.923209
O O2 0.691014 0.762689 0.922186
O O3 0.747178 0.000000 0.910981
O O4 0.746213 0.860224 0.000000
O O5 0.375268 0.731947 0.500000
O O6 0.357305 0.500000 0.441443
O O7 0.405466 0.731713 0.401330
O O8 0.911771 0.756273 0.593925
O O9 0.915403 0.751876 0.696921
O O10 0.000000 0.808092 0.639077
O O11 0.921708 0.000000 0.647550
O O12 0.120804 0.286749 0.500000
O O13 0.129480 0.500000 0.430379
O O14 0.500000 0.285793 0.637019
O O15 0.567818 0.500000 0.657056
O O16 0.583265 0.246577 0.699830
O O17 0.500000 0.831269 0.752742
O O18 0.415017 0.000000 0.753285
#
# Coordination Sequence:
#
# PCOD8289792 Si02
#       6
#    16  16  16  16  16  16
#     4   7  11  22  40  61  84 112 148 183 210 241
#     4   8  13  22  39  64  92 120 148 178 213 253
#     4  10  20  32  46  65  89 114 139 172 216 262
#     4   9  17  29  46  67  89 114 145 179 212 249
#     4   9  16  25  40  65  94 119 144 178 218 256
#     4   9  17  30  47  63  81 111 150 184 213 252
#
# _framework density 16.437311000000001
#
# number of rings (size 3 to 8) (size 9 to 14) (size 15 to 20)
#    0.000    3.333    0.000    3.000    0.000    4.000 
#    0.000    3.333    0.000    2.500    0.000    4.667 
#    0.000    0.000    0.000    0.000    0.000    0.000 
#
# Total GULP energy -594661.740416 kJ/mol
# GULP energy per Si atom -12388.786259 kJ/mol
# Density = 1.639990 g / cm^3
# Si number density = 16.437311 Si / 1000 Ang^3
#
#
#
# Elastic Constant Matrix: (Units=GPa)
#
#
# Indices 1 2 3 4 5 6 
#
# 1 62.9122 33.0695 55.6646 0.0000 0.0000 0.0000
# 2 33.0695 57.8346 49.1220 0.0000 0.0000 0.0000
# 3 55.6646 49.1220 118.3717 0.0000 0.0000 0.0000
# 4 0.0000 0.0000 0.0000 21.6287 0.0000 0.0000
# 5 0.0000 0.0000 0.0000 0.0000 4.1204 0.0000
# 6 0.0000 0.0000 0.0000 0.0000 0.0000 9.1312
#
#
#
# Elastic Compliance Matrix: (Units=1/GPa)
#
#
# Indices 1 2 3 4 5 6 
#
# 1 0.029341 -0.007811 -0.010556 0.000000 0.000000 0.000000
# 2 -0.007811 0.028782 -0.008271 0.000000 0.000000 0.000000
# 3 -0.010556 -0.008271 0.016844 0.000000 0.000000 0.000000
# 4 0.000000 0.000000 0.000000 0.046235 0.000000 0.000000
# 5 0.000000 0.000000 0.000000 0.000000 0.242692 0.000000
# 6 0.000000 0.000000 0.000000 0.000000 0.000000 0.109514
#
#
# Mechanical properties :
#
#
# Convention : Reuss Voigt Hill
#
# Bulk Modulus (GPa) = 46.10197 57.20340 51.65269
# Shear Modulus (GPa) = 9.36478 13.72690 11.54584
#
# Velocity S-wave (km/s) = 2.38948 2.89296 2.65319
# Velocity P-wave (km/s) = 5.97670 6.78494 6.39360
#
# Compressibility (1/GPa) = 0.02169104
#
# Stress axis : x y z
#
# Youngs Moduli (GPa) = 34.08169 34.74416 59.36730
#
# Poissons Ratio (x) = 0.27139 0.62670
# Poissons Ratio (y) = 0.26622 0.49101
# Poissons Ratio (z) = 0.35978 0.28736
#
# Static dielectric constant tensor:
#      x y z
#    x 3.268650 0.000000 0.000000 
#    y 0.000000 2.836720 0.000000 
#    z 0.000000 0.000000 3.070400 
# 
# 
# High freq. dielectric constant tensor:
#      x y z
#    x 1.621940 0.000000 0.000000 
#    y 0.000000 1.599940 0.000000 
#    z 0.000000 0.000000 1.620570 
# 
# From -- ./inp_files/13129.got.cif
#   From: 2010.06.25/outbox.cif.g09.slc.cpg/sg71_7_cif.got.tgz:13129.got - 2010.06.28 04:59:45.
