data_PCOD8289714
_publ_section_title
;
Structure prediction by ZEFSAII (Michael W. Deem and Ramdas Pophale) SiO2 
 PCOD8289714
Probable space group: I M M M
;
_chemical_formula_sum "Si O2"
_cell_formula_units_Z 104
_cell_length_a 13.489817
_cell_length_b 17.495716
_cell_length_c 26.695557
_cell_angle_alpha 90.000000
_cell_angle_beta 90.000000
_cell_angle_gamma 90.000000
_cell_volume 6300.525380
_symmetry_space_group_name_H-M "I M M M"
_symmetry_group_IT_number 71
_symmetry_cell_setting 'orthorhombic'
loop_
_space_group_symop_operation_xyz
x,y,z
-x,-y,z
x,-y,-z
-x,y,-z
-x,-y,-z
x,y,-z
-x,y,z
x,-y,z
1/2+x,1/2+y,1/2+z
1/2-x,1/2-y,1/2+z
1/2+x,1/2-y,1/2-z
1/2-x,1/2+y,1/2-z
1/2-x,1/2-y,1/2-z
1/2+x,1/2+y,1/2-z
1/2-x,1/2+y,1/2+z
1/2+x,1/2-y,1/2+z
loop_
_atom_site_type_symbol
_atom_site_label
_atom_site_fract_x
_atom_site_fract_y
_atom_site_fract_z
Si Si1 0.118466 0.912033 0.500000
Si Si2 0.616754 0.337303 0.897697
Si Si3 0.201146 0.590577 0.444980
Si Si4 0.767536 0.088799 0.796021
Si Si5 0.607774 0.588160 0.608278
Si Si6 0.112938 0.674557 0.640553
Si Si7 0.389933 0.410870 0.203367
O O1 0.160920 0.868369 0.450458
O O2 0.000000 0.911567 0.500000
O O3 0.156000 0.000000 0.500000
O O4 0.500000 0.332073 0.904949
O O5 0.657184 0.254355 0.880666
O O6 0.646628 0.395076 0.853098
O O7 0.175362 0.622350 0.500000
O O8 0.204086 0.500000 0.444283
O O9 0.308605 0.624037 0.428136
O O10 0.117312 0.616224 0.406086
O O11 0.858004 0.097489 0.834575
O O12 0.675922 0.142350 0.812656
O O13 0.809401 0.120602 0.743125
O O14 0.732164 0.000000 0.793393
O O15 0.500000 0.628355 0.601030
O O16 0.596281 0.500000 0.594475
O O17 0.000000 0.683073 0.658991
O O18 0.500000 0.373948 0.211427
O O19 0.398502 0.500000 0.212514
#
# Coordination Sequence:
#
# PCOD8289714 Si02
#       7
#     8  16  16  16  16  16  16
#     4   9  16  28  46  66  89 113 140 179 221 263
#     4   9  18  29  43  65  88 115 147 175 216 268
#     4   9  18  29  40  57  79 108 151 191 220 255
#     4   9  17  28  43  63  85 115 152 183 213 254
#     4   8  13  23  39  58  80 104 134 174 218 260
#     4  10  20  31  42  57  84 120 154 185 214 249
#     4   9  16  28  47  69  91 112 138 175 218 269
#
# _framework density 16.50656
#
# number of rings (size 3 to 8) (size 9 to 14) (size 15 to 20)
#    0.000    3.000    0.000    2.308    1.077    6.154 
#    0.000    2.308    0.000    0.000    0.000    0.000 
#    0.000    0.000    0.000    0.154    0.000   30.769 
#
# Total GULP energy -644307.085245 kJ/mol
# GULP energy per Si atom -12390.520870 kJ/mol
# Density = 1.646899 g / cm^3
# Si number density = 16.506560 Si / 1000 Ang^3
#
#
#
# Elastic Constant Matrix: (Units=GPa)
#
#
# Indices 1 2 3 4 5 6 
#
# 1 55.6501 25.0869 30.0144 0.0000 0.0000 0.0000
# 2 25.0869 52.9077 34.6364 0.0000 0.0000 0.0000
# 3 30.0144 34.6364 125.6828 0.0000 0.0000 0.0000
# 4 0.0000 0.0000 0.0000 20.5418 0.0000 0.0000
# 5 0.0000 0.0000 0.0000 0.0000 15.2490 0.0000
# 6 0.0000 0.0000 0.0000 0.0000 0.0000 10.0109
#
#
#
# Elastic Compliance Matrix: (Units=1/GPa)
#
#
# Indices 1 2 3 4 5 6 
#
# 1 0.023831 -0.009241 -0.003144 0.000000 0.000000 0.000000
# 2 -0.009241 0.026645 -0.005136 0.000000 0.000000 0.000000
# 3 -0.003144 -0.005136 0.010123 0.000000 0.000000 0.000000
# 4 0.000000 0.000000 0.000000 0.048681 0.000000 0.000000
# 5 0.000000 0.000000 0.000000 0.000000 0.065578 0.000000
# 6 0.000000 0.000000 0.000000 0.000000 0.000000 0.099891
#
#
# Mechanical properties :
#
#
# Convention : Reuss Voigt Hill
#
# Bulk Modulus (GPa) = 39.13042 45.96846 42.54944
# Shear Modulus (GPa) = 15.70785 18.79387 17.25086
#
# Velocity S-wave (km/s) = 3.08817 3.37793 3.23629
# Velocity P-wave (km/s) = 6.03930 6.56681 6.30857
#
# Compressibility (1/GPa) = 0.02555556
#
# Stress axis : x y z
#
# Youngs Moduli (GPa) = 41.96156 37.53025 98.78620
#
# Poissons Ratio (x) = 0.34684 0.31062
# Poissons Ratio (y) = 0.38779 0.50737
# Poissons Ratio (z) = 0.13194 0.19276
#
# Static dielectric constant tensor:
#      x y z
#    x 2.986580 0.000000 0.000000 
#    y 0.000000 2.957740 0.000000 
#    z 0.000000 0.000000 3.321390 
# 
# 
# High freq. dielectric constant tensor:
#      x y z
#    x 1.597680 0.000000 0.000000 
#    y 0.000000 1.608950 0.000000 
#    z 0.000000 0.000000 1.641540 
# 
# From -- ./inp_files/65647.got.cif
#   From: 2010.06.25/outbox.cif.g09.slc.cpg/sg71_33_cif.got.tgz:65647.got - 2010.06.28 04:59:45.
