data_PCOD8289630
_publ_section_title
;
Structure prediction by ZEFSAII (Michael W. Deem and Ramdas Pophale) SiO2 
 PCOD8289630
Probable space group: I M M M
;
_chemical_formula_sum "Si O2"
_cell_formula_units_Z 120
_cell_length_a 14.520157
_cell_length_b 14.863812
_cell_length_c 28.708290
_cell_angle_alpha 90.000000
_cell_angle_beta 90.000000
_cell_angle_gamma 90.000000
_cell_volume 6195.963355
_symmetry_space_group_name_H-M "I M M M"
_symmetry_group_IT_number 71
_symmetry_cell_setting 'orthorhombic'
loop_
_space_group_symop_operation_xyz
x,y,z
-x,-y,z
x,-y,-z
-x,y,-z
-x,-y,-z
x,y,-z
-x,y,z
x,-y,z
1/2+x,1/2+y,1/2+z
1/2-x,1/2-y,1/2+z
1/2+x,1/2-y,1/2-z
1/2-x,1/2+y,1/2-z
1/2-x,1/2-y,1/2-z
1/2+x,1/2+y,1/2-z
1/2-x,1/2+y,1/2+z
1/2+x,1/2-y,1/2+z
loop_
_atom_site_type_symbol
_atom_site_label
_atom_site_fract_x
_atom_site_fract_y
_atom_site_fract_z
Si Si1 0.223975 0.595932 0.695052
Si Si2 0.108380 0.500000 0.052258
Si Si3 0.103534 0.601420 0.445113
Si Si4 0.102675 0.142732 0.243663
Si Si5 0.285179 0.766488 0.115660
Si Si6 0.607675 0.834342 0.616539
Si Si7 0.102167 0.351687 0.222813
Si Si8 0.892651 0.102856 0.651447
O O1 0.201520 0.500000 0.670570
O O2 0.332518 0.596191 0.705813
O O3 0.194033 0.678371 0.662860
O O4 0.172509 0.596853 0.744484
O O5 0.138022 0.411316 0.080393
O O6 0.000000 0.500000 0.047808
O O7 0.152196 0.500000 0.000000
O O8 0.104638 0.610880 0.500000
O O9 0.132760 0.500000 0.430585
O O10 0.175282 0.674459 0.426203
O O11 0.000000 0.621165 0.426332
O O12 0.108557 0.247832 0.235071
O O13 0.137018 0.119188 0.295368
O O14 0.000000 0.105243 0.235870
O O15 0.175583 0.750606 0.107440
O O16 0.335129 0.669817 0.118454
O O17 0.500000 0.805224 0.610848
O O18 0.626627 0.869902 0.668803
O O19 0.000000 0.388543 0.233001
O O20 0.000000 0.125165 0.644836
O O21 0.870932 0.000000 0.636901
#
# Coordination Sequence:
#
# PCOD8289630 Si02
#       8
#    16   8  16  16  16  16  16  16
#     4  12  24  34  50  82 117 152 195 243 287 336
#     4   9  20  40  62  84 109 141 191 251 301 353
#     4   9  20  41  67  91 114 144 186 237 295 359
#     4  10  19  36  54  70 104 154 199 236 273 328
#     4  12  22  36  59  85 117 151 194 239 296 352
#     4  10  22  37  57  83 116 155 196 243 296 351
#     4  10  20  36  54  76 111 154 197 238 288 342
#     4  10  21  35  53  79 111 150 196 240 288 345
#
# _framework density 19.367448
#
# number of rings (size 3 to 8) (size 9 to 14) (size 15 to 20)
#    0.000    1.667    2.667    2.800    1.867    2.133 
#    0.000    0.000    0.000    1.200    0.000    2.800 
#    0.000    0.000    0.000    0.000    0.000    0.000 
#
# Total GULP energy -743849.099880 kJ/mol
# GULP energy per Si atom -12397.484998 kJ/mol
# Density = 1.932337 g / cm^3
# Si number density = 19.367448 Si / 1000 Ang^3
#
#
#
# Elastic Constant Matrix: (Units=GPa)
#
#
# Indices 1 2 3 4 5 6 
#
# 1 86.6183 45.4128 36.2951 0.0000 0.0000 0.0000
# 2 45.4128 117.1207 43.1406 0.0000 0.0000 0.0000
# 3 36.2951 43.1406 73.0474 0.0000 0.0000 0.0000
# 4 0.0000 0.0000 0.0000 29.3094 0.0000 0.0000
# 5 0.0000 0.0000 0.0000 0.0000 18.8076 0.0000
# 6 0.0000 0.0000 0.0000 0.0000 0.0000 7.2796
#
#
#
# Elastic Compliance Matrix: (Units=1/GPa)
#
#
# Indices 1 2 3 4 5 6 
#
# 1 0.016049 -0.004199 -0.005494 0.000000 0.000000 0.000000
# 2 -0.004199 0.012011 -0.005007 0.000000 0.000000 0.000000
# 3 -0.005494 -0.005007 0.019377 0.000000 0.000000 0.000000
# 4 0.000000 0.000000 0.000000 0.034119 0.000000 0.000000
# 5 0.000000 0.000000 0.000000 0.000000 0.053170 0.000000
# 6 0.000000 0.000000 0.000000 0.000000 0.000000 0.137369
#
#
# Mechanical properties :
#
#
# Convention : Reuss Voigt Hill
#
# Bulk Modulus (GPa) = 55.44585 58.49813 56.97199
# Shear Modulus (GPa) = 16.25985 21.20852 18.73419
#
# Velocity S-wave (km/s) = 2.90063 3.31276 3.11352
# Velocity P-wave (km/s) = 6.31734 6.70093 6.51196
#
# Compressibility (1/GPa) = 0.01803562
#
# Stress axis : x y z
#
# Youngs Moduli (GPa) = 62.31078 83.25993 51.60848
#
# Poissons Ratio (x) = 0.34961 0.28355
# Poissons Ratio (y) = 0.26164 0.25840
# Poissons Ratio (z) = 0.34235 0.41687
#
# Static dielectric constant tensor:
#      x y z
#    x 3.748400 0.000000 0.000000 
#    y 0.000000 3.575830 0.000000 
#    z 0.000000 0.000000 3.384530 
# 
# 
# High freq. dielectric constant tensor:
#      x y z
#    x 1.757540 0.000000 0.000000 
#    y 0.000000 1.755990 0.000000 
#    z 0.000000 0.000000 1.724340 
# 
# From -- ./inp_files/70143.got.cif
#   From: 2010.06.25/outbox.cif.g09.slc.cpg/sg71_36_cif.got.tgz:70143.got - 2010.06.28 04:59:45.
