data_PCOD8289885
_publ_section_title
;
Structure prediction by ZEFSAII (Michael W. Deem and Ramdas Pophale) SiO2 
 PCOD8289885
Probable space group: I M M M
;
_chemical_formula_sum "Si O2"
_cell_formula_units_Z 120
_cell_length_a 9.072913
_cell_length_b 27.132166
_cell_length_c 27.304084
_cell_angle_alpha 90.000000
_cell_angle_beta 90.000000
_cell_angle_gamma 90.000000
_cell_volume 6721.385787
_symmetry_space_group_name_H-M "I M M M"
_symmetry_group_IT_number 71
_symmetry_cell_setting 'orthorhombic'
loop_
_space_group_symop_operation_xyz
x,y,z
-x,-y,z
x,-y,-z
-x,y,-z
-x,-y,-z
x,y,-z
-x,y,z
x,-y,z
1/2+x,1/2+y,1/2+z
1/2-x,1/2-y,1/2+z
1/2+x,1/2-y,1/2-z
1/2-x,1/2+y,1/2-z
1/2-x,1/2-y,1/2-z
1/2+x,1/2+y,1/2-z
1/2-x,1/2+y,1/2+z
1/2+x,1/2-y,1/2+z
loop_
_atom_site_type_symbol
_atom_site_label
_atom_site_fract_x
_atom_site_fract_y
_atom_site_fract_z
Si Si1 0.827072 0.392901 0.221307
Si Si2 0.671046 0.191812 0.556868
Si Si3 0.323960 0.000000 0.555522
Si Si4 0.672749 0.791780 0.056073
Si Si5 0.668900 0.649330 0.364671
Si Si6 0.171825 0.199664 0.236925
Si Si7 0.670133 0.555653 0.694483
Si Si8 0.172947 0.404607 0.890183
O O1 0.742886 0.342013 0.229398
O O2 0.769318 0.435096 0.257784
O O3 0.790722 0.410647 0.166766
O O4 0.000000 0.384502 0.229601
O O5 0.697487 0.180012 0.500000
O O6 0.500000 0.200877 0.568568
O O7 0.755533 0.240737 0.573671
O O8 0.737658 0.146243 0.587813
O O9 0.258416 0.048402 0.582025
O O10 0.500000 0.000000 0.558637
O O11 0.268102 0.000000 0.500000
O O12 0.500000 0.786917 0.062865
O O13 0.730866 0.836328 0.089401
O O14 0.716211 0.803372 0.000000
O O15 0.500000 0.651413 0.381608
O O16 0.697735 0.686745 0.319922
O O17 0.713455 0.593800 0.348489
O O18 0.250000 0.250000 0.250000
O O19 0.000000 0.203523 0.249289
O O20 0.500000 0.564887 0.709327
O O21 0.696490 0.500000 0.675689
O O22 0.000000 0.403170 0.900285
#
# Coordination Sequence:
#
# PCOD8289885 Si02
#       8
#    16  16   8  16  16  16  16  16
#     4  10  20  32  48  75 108 138 173 216 263 313
#     4   9  17  31  50  71  97 133 175 215 258 309
#     4   9  16  28  46  68  97 133 173 221 274 315
#     4  10  21  35  52  78 109 138 170 211 257 307
#     4   9  19  35  55  78 103 135 174 213 256 310
#     4  10  21  36  53  75 106 140 176 216 261 313
#     4   9  19  37  58  78 104 136 173 218 263 314
#     4   9  18  29  45  71 101 131 169 219 267 311
#
# _framework density 17.853460999999999
#
# number of rings (size 3 to 8) (size 9 to 14) (size 15 to 20)
#    0.000    2.600    0.000    2.400    2.800    5.333 
#    0.000    0.667    0.000    0.400    0.000    2.800 
#    0.000    4.800    0.000    0.000    0.000    0.000 
#
# Total GULP energy -744062.761633 kJ/mol
# GULP energy per Si atom -12401.046027 kJ/mol
# Density = 1.781283 g / cm^3
# Si number density = 17.853461 Si / 1000 Ang^3
#
#
#
# Elastic Constant Matrix: (Units=GPa)
#
#
# Indices 1 2 3 4 5 6 
#
# 1 68.4297 48.9599 47.1046 0.0000 0.0000 0.0000
# 2 48.9599 148.4162 73.3272 0.0000 0.0000 0.0000
# 3 47.1046 73.3272 101.7761 0.0000 0.0000 0.0000
# 4 0.0000 0.0000 0.0000 25.9535 0.0000 0.0000
# 5 0.0000 0.0000 0.0000 0.0000 24.3983 0.0000
# 6 0.0000 0.0000 0.0000 0.0000 0.0000 19.4596
#
#
#
# Elastic Compliance Matrix: (Units=1/GPa)
#
#
# Indices 1 2 3 4 5 6 
#
# 1 0.022590 -0.003550 -0.007897 0.000000 0.000000 0.000000
# 2 -0.003550 0.011020 -0.006296 0.000000 0.000000 0.000000
# 3 -0.007897 -0.006296 0.018017 0.000000 0.000000 0.000000
# 4 0.000000 0.000000 0.000000 0.038530 0.000000 0.000000
# 5 0.000000 0.000000 0.000000 0.000000 0.040986 0.000000
# 6 0.000000 0.000000 0.000000 0.000000 0.000000 0.051389
#
#
# Mechanical properties :
#
#
# Convention : Reuss Voigt Hill
#
# Bulk Modulus (GPa) = 61.96245 73.04506 67.50375
# Shear Modulus (GPa) = 22.38142 23.91096 23.14619
#
# Velocity S-wave (km/s) = 3.54449 3.66360 3.60454
# Velocity P-wave (km/s) = 7.17863 7.67453 7.43072
#
# Compressibility (1/GPa) = 0.01613881
#
# Stress axis : x y z
#
# Youngs Moduli (GPa) = 44.26754 90.74601 55.50324
#
# Poissons Ratio (x) = 0.32217 0.43833
# Poissons Ratio (y) = 0.15716 0.34947
# Poissons Ratio (z) = 0.34960 0.57137
#
# Static dielectric constant tensor:
#      x y z
#    x 3.171190 0.000000 0.000000 
#    y 0.000000 3.495930 0.000000 
#    z 0.000000 0.000000 3.235590 
# 
# 
# High freq. dielectric constant tensor:
#      x y z
#    x 1.673270 0.000000 0.000000 
#    y 0.000000 1.694770 0.000000 
#    z 0.000000 0.000000 1.683500 
# 
# From -- ./inp_files/63763.got.cif
#   From: 2010.06.25/outbox.cif.g09.slc.cpg/sg71_32_cif.got.tgz:63763.got - 2010.06.28 04:59:45.
