data_PCOD8289275
_publ_section_title
;
Structure prediction by ZEFSAII (Michael W. Deem and Ramdas Pophale) SiO2 
 PCOD8289275
Probable space group: I M M M
;
_chemical_formula_sum "Si O2"
_cell_formula_units_Z 72
_cell_length_a 13.444613
_cell_length_b 16.108982
_cell_length_c 16.751737
_cell_angle_alpha 90.000000
_cell_angle_beta 90.000000
_cell_angle_gamma 90.000000
_cell_volume 3628.074930
_symmetry_space_group_name_H-M "I M M M"
_symmetry_group_IT_number 71
_symmetry_cell_setting 'orthorhombic'
loop_
_space_group_symop_operation_xyz
x,y,z
-x,-y,z
x,-y,-z
-x,y,-z
-x,-y,-z
x,y,-z
-x,y,z
x,-y,z
1/2+x,1/2+y,1/2+z
1/2-x,1/2-y,1/2+z
1/2+x,1/2-y,1/2-z
1/2-x,1/2+y,1/2-z
1/2-x,1/2-y,1/2-z
1/2+x,1/2+y,1/2-z
1/2-x,1/2+y,1/2+z
1/2+x,1/2-y,1/2+z
loop_
_atom_site_type_symbol
_atom_site_label
_atom_site_fract_x
_atom_site_fract_y
_atom_site_fract_z
Si Si1 0.306331 0.832195 0.910727
Si Si2 0.282713 0.095157 0.594199
Si Si3 0.113716 0.243039 0.857849
Si Si4 0.612214 0.681910 0.180701
Si Si5 0.113036 0.500000 0.595138
O O1 0.189064 0.810083 0.911738
O O2 0.374713 0.763302 0.871526
O O3 0.328831 0.920436 0.868894
O O4 0.345229 0.838230 0.000000
O O5 0.263402 0.112904 0.500000
O O6 0.365712 0.158589 0.628701
O O7 0.182547 0.109557 0.645866
O O8 0.318098 0.000000 0.606589
O O9 0.139483 0.211795 0.769373
O O10 0.000000 0.224405 0.881790
O O11 0.500000 0.648401 0.175951
O O12 0.118013 0.500000 0.500000
O O13 0.000000 0.500000 0.626217
#
# Coordination Sequence:
#
# PCOD8289275 Si02
#       5
#    16  16  16  16   8
#     4  10  19  33  55  80 106 140 179 224 273 318
#     4  10  21  36  57  85 112 142 183 233 285 331
#     4  10  21  38  55  77 110 148 189 224 266 327
#     4  10  20  36  55  78 109 145 183 222 272 332
#     4   9  18  32  51  79 109 131 163 216 272 320
#
# _framework density 19.845234999999999
#
# number of rings (size 3 to 8) (size 9 to 14) (size 15 to 20)
#    0.000    2.111    0.000    6.000    0.000    5.333 
#    8.000    2.778    0.000    2.000    0.000    0.000 
#    0.000    0.000    0.000    0.000    0.000    0.000 
#
# Total GULP energy -446151.809170 kJ/mol
# GULP energy per Si atom -12393.105810 kJ/mol
# Density = 1.980007 g / cm^3
# Si number density = 19.845235 Si / 1000 Ang^3
#
#
#
# Elastic Constant Matrix: (Units=GPa)
#
#
# Indices 1 2 3 4 5 6 
#
# 1 83.4635 26.1889 1.0560 0.0000 0.0000 0.0000
# 2 26.1889 112.9828 8.6644 0.0000 0.0000 0.0000
# 3 1.0560 8.6644 67.5030 0.0000 0.0000 0.0000
# 4 0.0000 0.0000 0.0000 17.2840 0.0000 0.0000
# 5 0.0000 0.0000 0.0000 0.0000 23.9557 0.0000
# 6 0.0000 0.0000 0.0000 0.0000 0.0000 18.1853
#
#
#
# Elastic Compliance Matrix: (Units=1/GPa)
#
#
# Indices 1 2 3 4 5 6 
#
# 1 0.012923 -0.003010 0.000184 0.000000 0.000000 0.000000
# 2 -0.003010 0.009640 -0.001190 0.000000 0.000000 0.000000
# 3 0.000184 -0.001190 0.014964 0.000000 0.000000 0.000000
# 4 0.000000 0.000000 0.000000 0.057857 0.000000 0.000000
# 5 0.000000 0.000000 0.000000 0.000000 0.041744 0.000000
# 6 0.000000 0.000000 0.000000 0.000000 0.000000 0.054989
#
#
# Mechanical properties :
#
#
# Convention : Reuss Voigt Hill
#
# Bulk Modulus (GPa) = 33.90336 37.30755 35.60546
# Shear Modulus (GPa) = 23.81170 27.08766 25.44968
#
# Velocity S-wave (km/s) = 3.46767 3.69852 3.58496
# Velocity P-wave (km/s) = 5.75795 6.08924 5.92591
#
# Compressibility (1/GPa) = 0.02949560
#
# Stress axis : x y z
#
# Youngs Moduli (GPa) = 77.37946 103.73640 66.82678
#
# Poissons Ratio (x) = 0.31221 -0.01231
# Poissons Ratio (y) = 0.23289 0.07954
# Poissons Ratio (z) = -0.01425 0.12347
#
# Static dielectric constant tensor:
#      x y z
#    x 3.532230 0.000000 0.000000 
#    y 0.000000 3.726050 0.000000 
#    z 0.000000 0.000000 3.626060 
# 
# 
# High freq. dielectric constant tensor:
#      x y z
#    x 1.769020 0.000000 0.000000 
#    y 0.000000 1.770610 0.000000 
#    z 0.000000 0.000000 1.772100 
# 
# From -- ./inp_files/34048.got.cif
#   From: 2010.06.25/outbox.cif.g09.slc.cpg/sg71_18_cif.got.tgz:34048.got - 2010.06.28 04:59:45.
