data_PCOD8289388
_publ_section_title
;
Structure prediction by ZEFSAII (Michael W. Deem and Ramdas Pophale) SiO2 
 PCOD8289388
Probable space group: I M M M
;
_chemical_formula_sum "Si O2"
_cell_formula_units_Z 88
_cell_length_a 21.292163
_cell_length_b 10.383415
_cell_length_c 22.547122
_cell_angle_alpha 90.000000
_cell_angle_beta 90.000000
_cell_angle_gamma 90.000000
_cell_volume 4984.838690
_symmetry_space_group_name_H-M "I M M M"
_symmetry_group_IT_number 71
_symmetry_cell_setting 'orthorhombic'
loop_
_space_group_symop_operation_xyz
x,y,z
-x,-y,z
x,-y,-z
-x,y,-z
-x,-y,-z
x,y,-z
-x,y,z
x,-y,z
1/2+x,1/2+y,1/2+z
1/2-x,1/2-y,1/2+z
1/2+x,1/2-y,1/2-z
1/2-x,1/2+y,1/2-z
1/2-x,1/2-y,1/2-z
1/2+x,1/2+y,1/2-z
1/2-x,1/2+y,1/2+z
1/2+x,1/2-y,1/2+z
loop_
_atom_site_type_symbol
_atom_site_label
_atom_site_fract_x
_atom_site_fract_y
_atom_site_fract_z
Si Si1 0.119640 0.651958 0.866940
Si Si2 0.500000 0.845954 0.566258
Si Si3 0.245925 0.652683 0.069797
Si Si4 0.872534 0.750662 0.620388
Si Si5 0.568800 0.000000 0.931253
Si Si6 0.426094 0.848417 0.761282
Si Si7 0.427459 0.500000 0.064671
O O1 0.117974 0.500000 0.873779
O O2 0.061315 0.712028 0.902416
O O3 0.183269 0.702701 0.897235
O O4 0.110722 0.690595 0.798481
O O5 0.500000 0.794519 0.500000
O O6 0.500000 0.000000 0.569681
O O7 0.255984 0.500000 0.076978
O O8 0.299783 0.726698 0.105852
O O9 0.244200 0.690029 0.000000
O O10 0.893156 0.626144 0.584666
O O11 0.887885 0.730435 0.689411
O O12 0.911264 0.873748 0.600662
O O13 0.500000 0.000000 0.899037
O O14 0.557024 0.000000 0.000000
O O15 0.500000 0.810040 0.757905
O O16 0.420237 0.000000 0.774685
O O17 0.500000 0.500000 0.052386
O O18 0.392491 0.500000 0.000000
#
# Coordination Sequence:
#
# PCOD8289388 Si02
#       7
#    16   8  16  16   8  16   8
#     4   9  17  30  51  78 108 149 185 225 279 332
#     4   9  14  24  46  80 112 139 182 233 277 327
#     4  10  20  35  53  77 113 151 186 226 282 340
#     4  12  22  35  55  79 110 150 185 227 281 338
#     4  11  22  36  54  79 106 139 193 248 283 315
#     4  10  19  34  54  78 112 146 186 231 280 332
#     4  11  22  36  54  77 106 143 193 240 283 329
#
# _framework density 17.65353
#
# number of rings (size 3 to 8) (size 9 to 14) (size 15 to 20)
#    0.000    1.727    2.727    3.818    0.000    4.364 
#    0.000    0.000    0.000    0.000    0.000    0.000 
#    0.000    0.000    0.000    4.455    0.000    1.545 
#
# Total GULP energy -545457.022784 kJ/mol
# GULP energy per Si atom -12396.750518 kJ/mol
# Density = 1.761335 g / cm^3
# Si number density = 17.653530 Si / 1000 Ang^3
#
#
#
# Elastic Constant Matrix: (Units=GPa)
#
#
# Indices 1 2 3 4 5 6 
#
# 1 164.6640 39.6913 84.2136 0.0000 0.0000 0.0000
# 2 39.6913 71.0559 40.7935 0.0000 0.0000 0.0000
# 3 84.2136 40.7935 151.5415 0.0000 0.0000 0.0000
# 4 0.0000 0.0000 0.0000 14.4287 0.0000 0.0000
# 5 0.0000 0.0000 0.0000 0.0000 36.3930 0.0000
# 6 0.0000 0.0000 0.0000 0.0000 0.0000 23.2335
#
#
#
# Elastic Compliance Matrix: (Units=1/GPa)
#
#
# Indices 1 2 3 4 5 6 
#
# 1 0.008846 -0.002507 -0.004241 0.000000 0.000000 0.000000
# 2 -0.002507 0.017356 -0.003279 0.000000 0.000000 0.000000
# 3 -0.004241 -0.003279 0.009838 0.000000 0.000000 0.000000
# 4 0.000000 0.000000 0.000000 0.069307 0.000000 0.000000
# 5 0.000000 0.000000 0.000000 0.000000 0.027478 0.000000
# 6 0.000000 0.000000 0.000000 0.000000 0.000000 0.043041
#
#
# Mechanical properties :
#
#
# Convention : Reuss Voigt Hill
#
# Bulk Modulus (GPa) = 62.55100 79.62868 71.08984
# Shear Modulus (GPa) = 24.84479 29.64857 27.24668
#
# Velocity S-wave (km/s) = 3.75554 4.10258 3.93289
# Velocity P-wave (km/s) = 7.36987 8.22471 7.80900
#
# Compressibility (1/GPa) = 0.01598695
#
# Stress axis : x y z
#
# Youngs Moduli (GPa) = 113.04242 57.61649 101.64157
#
# Poissons Ratio (x) = 0.14442 0.43109
# Poissons Ratio (y) = 0.28334 0.33330
# Poissons Ratio (z) = 0.47944 0.18894
#
# Static dielectric constant tensor:
#      x y z
#    x 3.512140 0.000000 0.000000 
#    y 0.000000 2.881940 0.000000 
#    z 0.000000 0.000000 3.450610 
# 
# 
# High freq. dielectric constant tensor:
#      x y z
#    x 1.694060 0.000000 0.000000 
#    y 0.000000 1.634760 0.000000 
#    z 0.000000 0.000000 1.698650 
# 
# From -- ./inp_files/61153.got.cif
#   From: 2010.06.25/outbox.cif.g09.slc.cpg/sg71_31_cif.got.tgz:61153.got - 2010.06.28 04:59:45.
