data_PCOD8289797
_publ_section_title
;
Structure prediction by ZEFSAII (Michael W. Deem and Ramdas Pophale) SiO2 
 PCOD8289797
Probable space group: I M M M
;
_chemical_formula_sum "Si O2"
_cell_formula_units_Z 104
_cell_length_a 9.047049
_cell_length_b 28.381179
_cell_length_c 24.216694
_cell_angle_alpha 90.000000
_cell_angle_beta 90.000000
_cell_angle_gamma 90.000000
_cell_volume 6218.021644
_symmetry_space_group_name_H-M "I M M M"
_symmetry_group_IT_number 71
_symmetry_cell_setting 'orthorhombic'
loop_
_space_group_symop_operation_xyz
x,y,z
-x,-y,z
x,-y,-z
-x,y,-z
-x,-y,-z
x,y,-z
-x,y,z
x,-y,z
1/2+x,1/2+y,1/2+z
1/2-x,1/2-y,1/2+z
1/2+x,1/2-y,1/2-z
1/2-x,1/2+y,1/2-z
1/2-x,1/2-y,1/2-z
1/2+x,1/2+y,1/2-z
1/2-x,1/2+y,1/2+z
1/2+x,1/2-y,1/2+z
loop_
_atom_site_type_symbol
_atom_site_label
_atom_site_fract_x
_atom_site_fract_y
_atom_site_fract_z
Si Si1 0.675825 0.447661 0.353671
Si Si2 0.676294 0.371033 0.561771
Si Si3 0.675276 0.091373 0.373335
Si Si4 0.828681 0.175561 0.435233
Si Si5 0.328246 0.445371 0.770567
Si Si6 0.163834 0.232410 0.934561
Si Si7 0.675763 0.000000 0.561906
O O1 0.500000 0.448294 0.356928
O O2 0.735984 0.500000 0.368108
O O3 0.743209 0.410315 0.397046
O O4 0.722961 0.433357 0.291699
O O5 0.738183 0.380580 0.500000
O O6 0.500000 0.373413 0.560616
O O7 0.723660 0.319139 0.583941
O O8 0.500000 0.093822 0.373011
O O9 0.736188 0.137848 0.401632
O O10 0.733327 0.087533 0.310894
O O11 0.735017 0.046369 0.407345
O O12 0.796764 0.168477 0.500000
O O13 0.776228 0.227151 0.414963
O O14 0.000000 0.170018 0.421175
O O15 0.500000 0.433792 0.779161
O O16 0.295925 0.500000 0.783406
O O17 0.000000 0.242307 0.909819
O O18 0.151734 0.231486 0.000000
O O19 0.500000 0.000000 0.561044
O O20 0.740282 0.000000 0.500000
#
# Coordination Sequence:
#
# PCOD8289797 Si02
#       7
#    16  16  16  16  16  16   8
#     4   8  14  24  40  65  96 129 158 186 226 272
#     4   8  13  22  40  68  98 125 155 189 225 269
#     4  11  20  31  48  67  89 118 153 193 231 272
#     4  10  20  32  46  67  93 119 149 186 230 280
#     4   9  17  30  46  63  89 124 160 193 226 269
#     4   8  14  26  44  65  90 121 154 188 226 268
#     4   9  18  30  43  63  89 113 138 175 226 276
#
# _framework density 16.725577000000001
#
# number of rings (size 3 to 8) (size 9 to 14) (size 15 to 20)
#    0.000    3.000    0.769    3.231    0.000    1.846 
#    0.000    1.538    0.000    3.692    0.000    0.000 
#    0.000    0.000    0.000    9.385    0.000    9.538 
#
# Total GULP energy -644572.683627 kJ/mol
# GULP energy per Si atom -12395.628531 kJ/mol
# Density = 1.668751 g / cm^3
# Si number density = 16.725577 Si / 1000 Ang^3
#
#
#
# Elastic Constant Matrix: (Units=GPa)
#
#
# Indices 1 2 3 4 5 6 
#
# 1 48.1042 37.5202 31.5454 0.0000 0.0000 0.0000
# 2 37.5202 136.3831 71.4824 0.0000 0.0000 0.0000
# 3 31.5454 71.4824 95.1212 0.0000 0.0000 0.0000
# 4 0.0000 0.0000 0.0000 12.0974 0.0000 0.0000
# 5 0.0000 0.0000 0.0000 0.0000 13.1664 0.0000
# 6 0.0000 0.0000 0.0000 0.0000 0.0000 13.0230
#
#
#
# Elastic Compliance Matrix: (Units=1/GPa)
#
#
# Indices 1 2 3 4 5 6 
#
# 1 0.028301 -0.004729 -0.005832 0.000000 0.000000 0.000000
# 2 -0.004729 0.012887 -0.008116 0.000000 0.000000 0.000000
# 3 -0.005832 -0.008116 0.018546 0.000000 0.000000 0.000000
# 4 0.000000 0.000000 0.000000 0.082662 0.000000 0.000000
# 5 0.000000 0.000000 0.000000 0.000000 0.075951 0.000000
# 6 0.000000 0.000000 0.000000 0.000000 0.000000 0.076787
#
#
# Mechanical properties :
#
#
# Convention : Reuss Voigt Hill
#
# Bulk Modulus (GPa) = 44.68226 62.30050 53.49138
# Shear Modulus (GPa) = 14.70806 16.92807 15.81807
#
# Velocity S-wave (km/s) = 2.96864 3.18481 3.07863
# Velocity P-wave (km/s) = 6.20672 7.13117 6.68494
#
# Compressibility (1/GPa) = 0.02238024
#
# Stress axis : x y z
#
# Youngs Moduli (GPa) = 35.33419 77.59536 53.91971
#
# Poissons Ratio (x) = 0.36698 0.31443
# Poissons Ratio (y) = 0.16711 0.43763
# Poissons Ratio (z) = 0.20605 0.62978
#
# Static dielectric constant tensor:
#      x y z
#    x 2.807900 0.000000 0.000000 
#    y 0.000000 3.446490 0.000000 
#    z 0.000000 0.000000 3.121520 
# 
# 
# High freq. dielectric constant tensor:
#      x y z
#    x 1.609920 0.000000 0.000000 
#    y 0.000000 1.646770 0.000000 
#    z 0.000000 0.000000 1.625010 
# 
# From -- ./inp_files/63693.got.cif
#   From: 2010.06.25/outbox.cif.g09.slc.cpg/sg71_32_cif.got.tgz:63693.got - 2010.06.28 04:59:45.
