data_PCOD8289337
_publ_section_title
;
Structure prediction by ZEFSAII (Michael W. Deem and Ramdas Pophale) SiO2 
 PCOD8289337
Probable space group: I M M M
;
_chemical_formula_sum "Si O2"
_cell_formula_units_Z 96
_cell_length_a 25.251378
_cell_length_b 7.660158
_cell_length_c 23.986005
_cell_angle_alpha 90.000000
_cell_angle_beta 90.000000
_cell_angle_gamma 90.000000
_cell_volume 4639.602038
_symmetry_space_group_name_H-M "I M M M"
_symmetry_group_IT_number 71
_symmetry_cell_setting 'orthorhombic'
loop_
_space_group_symop_operation_xyz
x,y,z
-x,-y,z
x,-y,-z
-x,y,-z
-x,-y,-z
x,y,-z
-x,y,z
x,-y,z
1/2+x,1/2+y,1/2+z
1/2-x,1/2-y,1/2+z
1/2+x,1/2-y,1/2-z
1/2-x,1/2+y,1/2-z
1/2-x,1/2-y,1/2-z
1/2+x,1/2+y,1/2-z
1/2-x,1/2+y,1/2+z
1/2+x,1/2-y,1/2+z
loop_
_atom_site_type_symbol
_atom_site_label
_atom_site_fract_x
_atom_site_fract_y
_atom_site_fract_z
Si Si1 0.074020 0.000000 0.939186
Si Si2 0.942104 0.697703 0.857524
Si Si3 0.440180 0.207114 0.936940
Si Si4 0.147052 0.291509 0.348062
Si Si5 0.733823 0.198037 0.361755
Si Si6 0.697693 0.500000 0.560875
Si Si7 0.352406 0.795240 0.723806
O O1 0.054588 0.176628 0.910209
O O2 0.135978 0.000000 0.943913
O O3 0.047974 0.000000 0.000000
O O4 0.926511 0.500000 0.876019
O O5 0.899045 0.777899 0.815224
O O6 0.000000 0.695791 0.828402
O O7 0.500000 0.272598 0.922326
O O8 0.397934 0.279259 0.891225
O O9 0.439335 0.000000 0.935068
O O10 0.425052 0.269756 0.000000
O O11 0.150565 0.500000 0.351050
O O12 0.203389 0.210207 0.362049
O O13 0.137208 0.219192 0.285501
O O14 0.714279 0.322791 0.409844
O O15 0.705006 0.255138 0.303214
O O16 0.716608 0.000000 0.375710
O O17 0.724630 0.500000 0.500000
O O18 0.357859 0.000000 0.729362
#
# Coordination Sequence:
#
# PCOD8289337 Si02
#       7
#     8  16  16  16  16   8  16
#     4  11  23  40  63  88 114 153 204 248 297 365
#     4  10  21  38  59  85 120 158 197 248 304 353
#     4   8  15  29  51  82 118 153 191 239 293 347
#     4  10  19  33  57  89 118 154 205 246 290 351
#     4  11  22  40  60  85 122 158 196 246 303 356
#     4  11  24  41  64  89 117 160 201 243 303 358
#     4   9  19  35  55  82 118 158 198 244 295 353
#
# _framework density 20.691428999999999
#
# number of rings (size 3 to 8) (size 9 to 14) (size 15 to 20)
#    0.000    2.167    2.500    1.250    0.000    2.667 
#    3.000    5.833    0.000    0.500    0.000    1.167 
#    0.000    0.000    0.000    0.000    0.000    0.000 
#
# Total GULP energy -594769.161367 kJ/mol
# GULP energy per Si atom -12391.024195 kJ/mol
# Density = 2.064433 g / cm^3
# Si number density = 20.691429 Si / 1000 Ang^3
#
#
#
# Elastic Constant Matrix: (Units=GPa)
#
#
# Indices 1 2 3 4 5 6 
#
# 1 155.0985 19.2359 81.0427 0.0000 0.0000 0.0000
# 2 19.2359 76.3583 41.4890 0.0000 0.0000 0.0000
# 3 81.0427 41.4890 168.5967 0.0000 0.0000 0.0000
# 4 0.0000 0.0000 0.0000 18.2865 0.0000 0.0000
# 5 0.0000 0.0000 0.0000 0.0000 17.4076 0.0000
# 6 0.0000 0.0000 0.0000 0.0000 0.0000 38.7825
#
#
#
# Elastic Compliance Matrix: (Units=1/GPa)
#
#
# Indices 1 2 3 4 5 6 
#
# 1 0.008611 0.000092 -0.004162 0.000000 0.000000 0.000000
# 2 0.000092 0.015118 -0.003765 0.000000 0.000000 0.000000
# 3 -0.004162 -0.003765 0.008858 0.000000 0.000000 0.000000
# 4 0.000000 0.000000 0.000000 0.054685 0.000000 0.000000
# 5 0.000000 0.000000 0.000000 0.000000 0.057446 0.000000
# 6 0.000000 0.000000 0.000000 0.000000 0.000000 0.025785
#
#
# Mechanical properties :
#
#
# Convention : Reuss Voigt Hill
#
# Bulk Modulus (GPa) = 59.10594 75.95428 67.53011
# Shear Modulus (GPa) = 26.06723 32.11439 29.09081
#
# Velocity S-wave (km/s) = 3.55323 3.94390 3.75365
# Velocity P-wave (km/s) = 6.74250 7.58465 7.17594
#
# Compressibility (1/GPa) = 0.01691877
#
# Stress axis : x y z
#
# Youngs Moduli (GPa) = 116.13450 66.14417 112.88905
#
# Poissons Ratio (x) = -0.00609 0.46982
# Poissons Ratio (y) = -0.01070 0.42499
# Poissons Ratio (z) = 0.48332 0.24901
#
# Static dielectric constant tensor:
#      x y z
#    x 4.090230 0.000000 0.000000 
#    y 0.000000 3.455220 0.000000 
#    z 0.000000 0.000000 4.678890 
# 
# 
# High freq. dielectric constant tensor:
#      x y z
#    x 1.822180 0.000000 0.000000 
#    y 0.000000 1.793220 0.000000 
#    z 0.000000 0.000000 1.799800 
# 
# From -- ./inp_files/61915.got.cif
#   From: 2010.06.25/outbox.cif.g09.slc.cpg/sg71_31_cif.got.tgz:61915.got - 2010.06.28 04:59:45.
