data_PCOD8289451
_publ_section_title
;
Structure prediction by ZEFSAII (Michael W. Deem and Ramdas Pophale) SiO2 
 PCOD8289451
Probable space group: I M M M
;
_chemical_formula_sum "Si O2"
_cell_formula_units_Z 64
_cell_length_a 22.345589
_cell_length_b 8.817527
_cell_length_c 16.703439
_cell_angle_alpha 90.000000
_cell_angle_beta 90.000000
_cell_angle_gamma 90.000000
_cell_volume 3291.125929
_symmetry_space_group_name_H-M "I M M M"
_symmetry_group_IT_number 71
_symmetry_cell_setting 'orthorhombic'
loop_
_space_group_symop_operation_xyz
x,y,z
-x,-y,z
x,-y,-z
-x,y,-z
-x,-y,-z
x,y,-z
-x,y,z
x,-y,z
1/2+x,1/2+y,1/2+z
1/2-x,1/2-y,1/2+z
1/2+x,1/2-y,1/2-z
1/2-x,1/2+y,1/2-z
1/2-x,1/2-y,1/2-z
1/2+x,1/2+y,1/2-z
1/2-x,1/2+y,1/2+z
1/2+x,1/2-y,1/2+z
loop_
_atom_site_type_symbol
_atom_site_label
_atom_site_fract_x
_atom_site_fract_y
_atom_site_fract_z
Si Si1 0.500000 0.181154 0.590914
Si Si2 0.931049 0.178358 0.500000
Si Si3 0.382380 0.820381 0.322040
Si Si4 0.262590 0.822765 0.593774
Si Si5 0.358652 0.821144 0.143020
O O1 0.500000 0.240552 0.500000
O O2 0.441488 0.246718 0.635691
O O3 0.500000 0.000000 0.592928
O O4 0.900862 0.243013 0.578877
O O5 0.000000 0.226336 0.500000
O O6 0.921607 0.000000 0.500000
O O7 0.323728 0.759899 0.367773
O O8 0.381649 0.768762 0.229929
O O9 0.383140 0.000000 0.328919
O O10 0.264388 0.789993 0.500000
O O11 0.209547 0.729243 0.633803
O O12 0.252889 0.000000 0.611791
O O13 0.362864 0.000000 0.131550
#
# Coordination Sequence:
#
# PCOD8289451 Si02
#       5
#     8   8  16  16  16
#     4   9  16  30  52  79 113 148 188 231 274 328
#     4  11  25  43  61  81 111 150 191 232 283 347
#     4   9  19  32  51  82 115 150 189 234 284 330
#     4  10  19  34  56  81 115 154 192 231 275 332
#     4  11  22  36  57  85 116 147 186 235 286 335
#
# _framework density 19.446231999999998
#
# number of rings (size 3 to 8) (size 9 to 14) (size 15 to 20)
#    0.000    2.000    1.250    2.625    1.750    4.000 
#    0.000    1.250    0.000    0.000    0.000    0.000 
#    0.000    7.000    0.000    0.000    0.000    0.000 
#
# Total GULP energy -396885.344419 kJ/mol
# GULP energy per Si atom -12402.667013 kJ/mol
# Density = 1.940197 g / cm^3
# Si number density = 19.446232 Si / 1000 Ang^3
#
#
#
# Elastic Constant Matrix: (Units=GPa)
#
#
# Indices 1 2 3 4 5 6 
#
# 1 197.5571 35.5456 103.2483 0.0000 0.0000 0.0000
# 2 35.5456 17.7497 18.8098 0.0000 0.0000 0.0000
# 3 103.2483 18.8098 155.4685 0.0000 0.0000 0.0000
# 4 0.0000 0.0000 0.0000 13.0750 0.0000 0.0000
# 5 0.0000 0.0000 0.0000 0.0000 201.4482 0.0000
# 6 0.0000 0.0000 0.0000 0.0000 0.0000 -0.6744
#
#
#
# Elastic Compliance Matrix: (Units=1/GPa)
#
#
# Indices 1 2 3 4 5 6 
#
# 1 0.010566 -0.015742 -0.005113 0.000000 0.000000 0.000000
# 2 -0.015742 0.088078 -0.000202 0.000000 0.000000 0.000000
# 3 -0.005113 -0.000202 0.009852 0.000000 0.000000 0.000000
# 4 0.000000 0.000000 0.000000 0.076482 0.000000 0.000000
# 5 0.000000 0.000000 0.000000 0.000000 0.004964 0.000000
# 6 0.000000 0.000000 0.000000 0.000000 0.000000 -1.482787
#
#
# Mechanical properties :
#
#
# Convention : Reuss Voigt Hill
#
# Bulk Modulus (GPa) = 15.06409 76.22030 45.64219
# Shear Modulus (GPa) = -4.06966 56.98119 26.45577
#
# Velocity S-wave (km/s) = -1.44821 5.41900 3.69244
# Velocity P-wave (km/s) = 2.22866 8.85633 6.45761
#
# Compressibility (1/GPa) = 0.06638305
#
# Stress axis : x y z
#
# Youngs Moduli (GPa) = 94.64196 11.35360 101.50350
#
# Poissons Ratio (x) = 0.17873 0.51894
# Poissons Ratio (y) = 1.48985 0.02050
# Poissons Ratio (z) = 0.48386 0.00229
#
# Static dielectric constant tensor:
#      x y z
#    x 3.896180 0.000000 0.000000 
#    y 0.000000 3.181660 0.000000 
#    z 0.000000 0.000000 3.781440 
# 
# 
# High freq. dielectric constant tensor:
#      x y z
#    x 1.774580 0.000000 0.000000 
#    y 0.000000 1.717510 0.000000 
#    z 0.000000 0.000000 1.776060 
# 
# From -- ./inp_files/9568.got.cif
#   From: 2010.06.25/outbox.cif.g09.slc.cpg/sg71_5_cif.got.tgz:9568.got - 2010.06.28 04:59:45.
