data_PCOD8289059
_publ_section_title
;
Structure prediction by ZEFSAII (Michael W. Deem and Ramdas Pophale) SiO2 
 PCOD8289059
Probable space group: I M M M
;
_chemical_formula_sum "Si O2"
_cell_formula_units_Z 112
_cell_length_a 13.805792
_cell_length_b 14.014571
_cell_length_c 31.488008
_cell_angle_alpha 90.000000
_cell_angle_beta 90.000000
_cell_angle_gamma 90.000000
_cell_volume 6092.370705
_symmetry_space_group_name_H-M "I M M M"
_symmetry_group_IT_number 71
_symmetry_cell_setting 'orthorhombic'
loop_
_space_group_symop_operation_xyz
x,y,z
-x,-y,z
x,-y,-z
-x,y,-z
-x,-y,-z
x,y,-z
-x,y,z
x,-y,z
1/2+x,1/2+y,1/2+z
1/2-x,1/2-y,1/2+z
1/2+x,1/2-y,1/2-z
1/2-x,1/2+y,1/2-z
1/2-x,1/2-y,1/2-z
1/2+x,1/2+y,1/2-z
1/2-x,1/2+y,1/2+z
1/2+x,1/2-y,1/2+z
loop_
_atom_site_type_symbol
_atom_site_label
_atom_site_fract_x
_atom_site_fract_y
_atom_site_fract_z
Si Si1 0.111377 0.770944 0.328568
Si Si2 0.217721 0.144632 0.744528
Si Si3 0.107140 0.602577 0.192606
Si Si4 0.886473 0.744024 0.881041
Si Si5 0.265102 0.391699 0.335778
Si Si6 0.303084 0.890997 0.548465
Si Si7 0.107635 0.107783 0.589649
O O1 0.135364 0.849477 0.291791
O O2 0.168889 0.670853 0.327678
O O3 0.136194 0.821463 0.372736
O O4 0.000000 0.743185 0.324507
O O5 0.250000 0.250000 0.750000
O O6 0.314704 0.089708 0.729849
O O7 0.179829 0.102908 0.789609
O O8 0.099060 0.500000 0.169396
O O9 0.144597 0.679504 0.158973
O O10 0.000000 0.631440 0.210401
O O11 0.831163 0.844126 0.872870
O O12 0.857693 0.688264 0.923660
O O13 0.000000 0.764856 0.882635
O O14 0.240516 0.500000 0.350403
O O15 0.331774 0.870722 0.500000
O O16 0.186987 0.878597 0.552835
O O17 0.333168 0.000000 0.561105
O O18 0.000000 0.130978 0.571593
O O19 0.110487 0.000000 0.607520
#
# Coordination Sequence:
#
# PCOD8289059 Si02
#       7
#    16  16  16  16  16  16  16
#     4  10  20  35  56  82 112 147 185 229 277 324
#     4  10  19  34  49  76 109 143 179 230 274 319
#     4  10  19  32  55  81 105 141 183 223 272 326
#     4  11  22  38  56  78 110 144 181 226 274 331
#     4  11  23  39  56  77 106 148 195 239 280 316
#     4  10  20  35  59  90 120 145 171 213 272 337
#     4   9  17  31  54  85 119 152 181 210 258 329
#
# _framework density 18.383648000000001
#
# number of rings (size 3 to 8) (size 9 to 14) (size 15 to 20)
#    0.000    1.857    4.286    0.857    0.000    7.143 
#    0.000    2.143    0.000    0.429    0.000    1.000 
#    0.000    2.286    0.000    0.000    0.000    0.000 
#
# Total GULP energy -693848.796188 kJ/mol
# GULP energy per Si atom -12390.157075 kJ/mol
# Density = 1.834181 g / cm^3
# Si number density = 18.383648 Si / 1000 Ang^3
#
#
#
# Elastic Constant Matrix: (Units=GPa)
#
#
# Indices 1 2 3 4 5 6 
#
# 1 85.6099 36.1447 35.1264 0.0000 0.0000 0.0000
# 2 36.1447 102.8870 32.9195 0.0000 0.0000 0.0000
# 3 35.1264 32.9195 82.6371 0.0000 0.0000 0.0000
# 4 0.0000 0.0000 0.0000 21.1954 0.0000 0.0000
# 5 0.0000 0.0000 0.0000 0.0000 17.0606 0.0000
# 6 0.0000 0.0000 0.0000 0.0000 0.0000 19.9113
#
#
#
# Elastic Compliance Matrix: (Units=1/GPa)
#
#
# Indices 1 2 3 4 5 6 
#
# 1 0.015334 -0.003784 -0.005011 0.000000 0.000000 0.000000
# 2 -0.003784 0.012073 -0.003201 0.000000 0.000000 0.000000
# 3 -0.005011 -0.003201 0.015506 0.000000 0.000000 0.000000
# 4 0.000000 0.000000 0.000000 0.047180 0.000000 0.000000
# 5 0.000000 0.000000 0.000000 0.000000 0.058614 0.000000
# 6 0.000000 0.000000 0.000000 0.000000 0.000000 0.050223
#
#
# Mechanical properties :
#
#
# Convention : Reuss Voigt Hill
#
# Bulk Modulus (GPa) = 52.84798 53.27945 53.06372
# Shear Modulus (GPa) = 21.81221 22.76303 22.28762
#
# Velocity S-wave (km/s) = 3.44830 3.52265 3.48567
# Velocity P-wave (km/s) = 6.68312 6.75206 6.71768
#
# Compressibility (1/GPa) = 0.01892220
#
# Stress axis : x y z
#
# Youngs Moduli (GPa) = 65.21282 82.83043 64.49030
#
# Poissons Ratio (x) = 0.31341 0.32315
# Poissons Ratio (y) = 0.24675 0.20643
# Poissons Ratio (z) = 0.32677 0.26514
#
# Static dielectric constant tensor:
#      x y z
#    x 3.429730 0.000000 0.000000 
#    y 0.000000 3.507610 0.000000 
#    z 0.000000 0.000000 3.664010 
# 
# 
# High freq. dielectric constant tensor:
#      x y z
#    x 1.716430 0.000000 0.000000 
#    y 0.000000 1.700550 0.000000 
#    z 0.000000 0.000000 1.685440 
# 
# From -- ./inp_files/70091.got.cif
#   From: 2010.06.25/outbox.cif.g09.slc.cpg/sg71_36_cif.got.tgz:70091.got - 2010.06.28 04:59:45.
