data_PCOD8289993
_publ_section_title
;
Structure prediction by ZEFSAII (Michael W. Deem and Ramdas Pophale) SiO2 
 PCOD8289993
Probable space group: I M M M
;
_chemical_formula_sum "Si O2"
_cell_formula_units_Z 72
_cell_length_a 22.075904
_cell_length_b 19.217445
_cell_length_c 9.646564
_cell_angle_alpha 90.000000
_cell_angle_beta 90.000000
_cell_angle_gamma 90.000000
_cell_volume 4092.482147
_symmetry_space_group_name_H-M "I M M M"
_symmetry_group_IT_number 71
_symmetry_cell_setting 'orthorhombic'
loop_
_space_group_symop_operation_xyz
x,y,z
-x,-y,z
x,-y,-z
-x,y,-z
-x,-y,-z
x,y,-z
-x,y,z
x,-y,z
1/2+x,1/2+y,1/2+z
1/2-x,1/2-y,1/2+z
1/2+x,1/2-y,1/2-z
1/2-x,1/2+y,1/2-z
1/2-x,1/2-y,1/2-z
1/2+x,1/2+y,1/2-z
1/2-x,1/2+y,1/2+z
1/2+x,1/2-y,1/2+z
loop_
_atom_site_type_symbol
_atom_site_label
_atom_site_fract_x
_atom_site_fract_y
_atom_site_fract_z
Si Si1 0.361938 0.918687 0.840449
Si Si2 0.273505 0.577444 0.664893
Si Si3 0.500000 0.421498 0.334558
Si Si4 0.885667 0.163614 0.164967
Si Si5 0.929265 0.311380 0.159659
O O1 0.293938 0.900423 0.788238
O O2 0.409986 0.877333 0.749238
O O3 0.375016 0.000000 0.820745
O O4 0.370389 0.897041 0.000000
O O5 0.275490 0.575161 0.500000
O O6 0.288953 0.500000 0.721219
O O7 0.322488 0.632448 0.723510
O O8 0.500000 0.500000 0.277730
O O9 0.500000 0.420636 0.500000
O O10 0.440665 0.382695 0.276131
O O11 0.892988 0.243350 0.213283
O O12 0.887157 0.160379 0.000000
O O13 0.000000 0.296541 0.179711
O O14 0.914197 0.327391 0.000000
#
# Coordination Sequence:
#
# PCOD8289993 Si02
#       5
#    16  16   8  16  16
#     4   9  19  35  52  70  92 120 159 204 242 278
#     4   8  14  26  45  68  94 124 157 194 235 277
#     4   9  14  20  36  64  96 129 160 186 219 271
#     4   9  15  25  41  65  98 130 155 185 230 280
#     4  10  20  33  48  69 100 130 154 190 239 285
#
# _framework density 17.593235
#
# number of rings (size 3 to 8) (size 9 to 14) (size 15 to 20)
#    0.000    3.000    1.111    2.000    0.000    4.889 
#    0.000    2.222    0.000    0.000    0.000    0.000 
#    0.000    3.556    0.000    0.000    0.000    0.222 
#
# Total GULP energy -446267.782548 kJ/mol
# GULP energy per Si atom -12396.327293 kJ/mol
# Density = 1.755319 g / cm^3
# Si number density = 17.593235 Si / 1000 Ang^3
#
#
#
# Elastic Constant Matrix: (Units=GPa)
#
#
# Indices 1 2 3 4 5 6 
#
# 1 61.9805 46.2185 26.8333 0.0000 0.0000 0.0000
# 2 46.2185 100.2137 37.3163 0.0000 0.0000 0.0000
# 3 26.8333 37.3163 31.9621 0.0000 0.0000 0.0000
# 4 0.0000 0.0000 0.0000 16.3825 0.0000 0.0000
# 5 0.0000 0.0000 0.0000 0.0000 15.7923 0.0000
# 6 0.0000 0.0000 0.0000 0.0000 0.0000 37.8236
#
#
#
# Elastic Compliance Matrix: (Units=1/GPa)
#
#
# Indices 1 2 3 4 5 6 
#
# 1 0.028138 -0.007396 -0.014987 0.000000 0.000000 0.000000
# 2 -0.007396 0.019598 -0.016671 0.000000 0.000000 0.000000
# 3 -0.014987 -0.016671 0.063333 0.000000 0.000000 0.000000
# 4 0.000000 0.000000 0.000000 0.061041 0.000000 0.000000
# 5 0.000000 0.000000 0.000000 0.000000 0.063322 0.000000
# 6 0.000000 0.000000 0.000000 0.000000 0.000000 0.026439
#
#
# Mechanical properties :
#
#
# Convention : Reuss Voigt Hill
#
# Bulk Modulus (GPa) = 30.34052 46.09915 38.21983
# Shear Modulus (GPa) = 14.24636 19.58555 16.91595
#
# Velocity S-wave (km/s) = 2.84872 3.34015 3.10418
# Velocity P-wave (km/s) = 5.30125 6.41367 5.88381
#
# Compressibility (1/GPa) = 0.03295922
#
# Stress axis : x y z
#
# Youngs Moduli (GPa) = 35.53904 51.02652 15.78948
#
# Poissons Ratio (x) = 0.37741 0.23664
# Poissons Ratio (y) = 0.26286 0.26323
# Poissons Ratio (z) = 0.53264 0.85067
#
# Static dielectric constant tensor:
#      x y z
#    x 3.448110 0.000000 0.000000 
#    y 0.000000 3.331200 0.000000 
#    z 0.000000 0.000000 2.634760 
# 
# 
# High freq. dielectric constant tensor:
#      x y z
#    x 1.689940 0.000000 0.000000 
#    y 0.000000 1.687300 0.000000 
#    z 0.000000 0.000000 1.609420 
# 
# From -- ./inp_files/7983.got.cif
#   From: 2010.06.25/outbox.cif.g09.slc.cpg/sg71_4_cif.got.tgz:7983.got - 2010.06.28 04:59:45.
