data_PCOD8289756
_publ_section_title
;
Structure prediction by ZEFSAII (Michael W. Deem and Ramdas Pophale) SiO2 
 PCOD8289756
Probable space group: I M M M
;
_chemical_formula_sum "Si O2"
_cell_formula_units_Z 96
_cell_length_a 30.638373
_cell_length_b 18.990064
_cell_length_c 9.120929
_cell_angle_alpha 90.000000
_cell_angle_beta 90.000000
_cell_angle_gamma 90.000000
_cell_volume 5306.781452
_symmetry_space_group_name_H-M "I M M M"
_symmetry_group_IT_number 71
_symmetry_cell_setting 'orthorhombic'
loop_
_space_group_symop_operation_xyz
x,y,z
-x,-y,z
x,-y,-z
-x,y,-z
-x,-y,-z
x,y,-z
-x,y,z
x,-y,z
1/2+x,1/2+y,1/2+z
1/2-x,1/2-y,1/2+z
1/2+x,1/2-y,1/2-z
1/2-x,1/2+y,1/2-z
1/2-x,1/2-y,1/2-z
1/2+x,1/2+y,1/2-z
1/2-x,1/2+y,1/2+z
1/2+x,1/2-y,1/2+z
loop_
_atom_site_type_symbol
_atom_site_label
_atom_site_fract_x
_atom_site_fract_y
_atom_site_fract_z
Si Si1 0.048135 0.421213 0.674281
Si Si2 0.127586 0.669921 0.674212
Si Si3 0.449643 0.419698 0.329531
Si Si4 0.701476 0.577773 0.173950
Si Si5 0.700551 0.081551 0.328702
Si Si6 0.622172 0.669979 0.174156
O O1 0.049112 0.420526 0.500000
O O2 0.058360 0.500000 0.731340
O O3 0.084464 0.368596 0.737300
O O4 0.000000 0.397415 0.729145
O O5 0.130091 0.665332 0.500000
O O6 0.170042 0.632571 0.736969
O O7 0.125050 0.749965 0.729083
O O8 0.439693 0.408336 0.500000
O O9 0.500000 0.403123 0.294746
O O10 0.438661 0.500000 0.284173
O O11 0.420954 0.366190 0.236208
O O12 0.690987 0.500000 0.236835
O O13 0.750136 0.600743 0.220826
O O14 0.665484 0.631486 0.236133
O O15 0.699455 0.575156 0.000000
O O16 0.693597 0.095985 0.500000
O O17 0.690406 0.000000 0.292071
O O18 0.619552 0.665690 0.000000
#
# Coordination Sequence:
#
# PCOD8289756 Si02
#       6
#    16  16  16  16  16  16
#     4   8  14  26  44  63  85 119 158 190 228 281
#     4  10  20  31  46  73 104 127 153 199 252 294
#     4   9  19  36  55  74  99 132 168 206 249 294
#     4   8  15  30  50  69  92 125 164 204 244 288
#     4   9  18  33  52  70  90 125 170 206 240 291
#     4  10  20  32  49  75 103 131 164 201 244 296
#
# _framework density 18.090060000000001
#
# number of rings (size 3 to 8) (size 9 to 14) (size 15 to 20)
#    0.000    3.000    0.000    3.000    0.000    4.333 
#    0.000    3.333    0.000    1.500    0.000    2.333 
#    0.000    0.000    0.000    0.000    0.000    0.000 
#
# Total GULP energy -595047.473271 kJ/mol
# GULP energy per Si atom -12396.822360 kJ/mol
# Density = 1.804889 g / cm^3
# Si number density = 18.090060 Si / 1000 Ang^3
#
#
#
# Elastic Constant Matrix: (Units=GPa)
#
#
# Indices 1 2 3 4 5 6 
#
# 1 150.1626 101.2324 25.6134 0.0000 0.0000 0.0000
# 2 101.2324 147.1787 28.0390 0.0000 0.0000 0.0000
# 3 25.6134 28.0390 18.5868 0.0000 0.0000 0.0000
# 4 0.0000 0.0000 0.0000 9.5828 0.0000 0.0000
# 5 0.0000 0.0000 0.0000 0.0000 27.8305 0.0000
# 6 0.0000 0.0000 0.0000 0.0000 0.0000 15.8563
#
#
#
# Elastic Compliance Matrix: (Units=1/GPa)
#
#
# Indices 1 2 3 4 5 6 
#
# 1 0.012902 -0.007700 -0.006163 0.000000 0.000000 0.000000
# 2 -0.007700 0.014130 -0.010705 0.000000 0.000000 0.000000
# 3 -0.006163 -0.010705 0.078444 0.000000 0.000000 0.000000
# 4 0.000000 0.000000 0.000000 0.104354 0.000000 0.000000
# 5 0.000000 0.000000 0.000000 0.000000 0.035932 0.000000
# 6 0.000000 0.000000 0.000000 0.000000 0.000000 0.063066
#
#
# Mechanical properties :
#
#
# Convention : Reuss Voigt Hill
#
# Bulk Modulus (GPa) = 17.74961 69.52197 43.63579
# Shear Modulus (GPa) = 13.27161 21.39014 17.33088
#
# Velocity S-wave (km/s) = 2.71152 3.44237 3.09857
# Velocity P-wave (km/s) = 4.43128 7.36983 6.08073
#
# Compressibility (1/GPa) = 0.05633928
#
# Stress axis : x y z
#
# Youngs Moduli (GPa) = 77.50996 70.77176 12.74788
#
# Poissons Ratio (x) = 0.54492 0.07857
# Poissons Ratio (y) = 0.59681 0.13647
# Poissons Ratio (z) = 0.47773 0.75762
#
# Static dielectric constant tensor:
#      x y z
#    x 3.589020 0.000000 0.000000 
#    y 0.000000 3.507620 0.000000 
#    z 0.000000 0.000000 2.870870 
# 
# 
# High freq. dielectric constant tensor:
#      x y z
#    x 1.715740 0.000000 0.000000 
#    y 0.000000 1.701450 0.000000 
#    z 0.000000 0.000000 1.656600 
# 
# From -- ./inp_files/10930.got.cif
#   From: 2010.06.25/outbox.cif.g09.slc.cpg/sg71_6_cif.got.tgz:10930.got - 2010.06.28 04:59:45.
