data_PCOD8289199
_publ_section_title
;
Structure prediction by ZEFSAII (Michael W. Deem and Ramdas Pophale) SiO2 
 PCOD8289199
Probable space group: I M M M
;
_chemical_formula_sum "Si O2"
_cell_formula_units_Z 64
_cell_length_a 20.764620
_cell_length_b 18.415176
_cell_length_c 8.919292
_cell_angle_alpha 90.000000
_cell_angle_beta 90.000000
_cell_angle_gamma 90.000000
_cell_volume 3410.595728
_symmetry_space_group_name_H-M "I M M M"
_symmetry_group_IT_number 71
_symmetry_cell_setting 'orthorhombic'
loop_
_space_group_symop_operation_xyz
x,y,z
-x,-y,z
x,-y,-z
-x,y,-z
-x,-y,-z
x,y,-z
-x,y,z
x,-y,z
1/2+x,1/2+y,1/2+z
1/2-x,1/2-y,1/2+z
1/2+x,1/2-y,1/2-z
1/2-x,1/2+y,1/2-z
1/2-x,1/2-y,1/2-z
1/2+x,1/2+y,1/2-z
1/2-x,1/2+y,1/2+z
1/2+x,1/2-y,1/2+z
loop_
_atom_site_type_symbol
_atom_site_label
_atom_site_fract_x
_atom_site_fract_y
_atom_site_fract_z
Si Si1 0.115342 0.086076 0.829288
Si Si2 0.741671 0.586280 0.166646
Si Si3 0.000000 0.322354 0.821326
Si Si4 0.000000 0.834081 0.323562
Si Si5 0.617290 0.918952 0.321530
O O1 0.185855 0.113732 0.777930
O O2 0.062775 0.121661 0.723427
O O3 0.109277 0.000000 0.813094
O O4 0.104169 0.111008 0.000000
O O5 0.741762 0.500000 0.157392
O O6 0.812033 0.610624 0.228348
O O7 0.729009 0.618156 0.000000
O O8 0.000000 0.242989 0.755126
O O9 0.937089 0.364639 0.760642
O O10 0.000000 0.317718 0.000000
O O11 0.000000 0.823494 0.500000
O O12 0.615351 0.922802 0.500000
O O13 0.604407 0.000000 0.257071
#
# Coordination Sequence:
#
# PCOD8289199 Si02
#       5
#    16  16   8   8  16
#     4  10  20  35  56  80 102 126 163 210 256 303
#     4   8  14  27  49  78 108 133 161 201 249 300
#     4  10  19  33  53  76 105 139 175 214 252 290
#     4  12  25  38  51  70 101 138 173 208 252 306
#     4   8  14  27  52  83 108 133 169 210 250 296
#
# _framework density 18.765049999999999
#
# number of rings (size 3 to 8) (size 9 to 14) (size 15 to 20)
#    0.000    2.750    0.000    4.125    0.000    4.500 
#    0.000    2.500    0.000    3.000    0.000    0.000 
#    0.000    0.000    0.000    0.000    0.000    0.000 
#
# Total GULP energy -396673.383806 kJ/mol
# GULP energy per Si atom -12396.043244 kJ/mol
# Density = 1.872234 g / cm^3
# Si number density = 18.765050 Si / 1000 Ang^3
#
#
#
# Elastic Constant Matrix: (Units=GPa)
#
#
# Indices 1 2 3 4 5 6 
#
# 1 159.1744 42.3418 27.9874 0.0000 0.0000 0.0000
# 2 42.3418 50.2096 17.4079 0.0000 0.0000 0.0000
# 3 27.9874 17.4079 40.2104 0.0000 0.0000 0.0000
# 4 0.0000 0.0000 0.0000 15.4197 0.0000 0.0000
# 5 0.0000 0.0000 0.0000 0.0000 9.4958 0.0000
# 6 0.0000 0.0000 0.0000 0.0000 0.0000 7.8706
#
#
#
# Elastic Compliance Matrix: (Units=1/GPa)
#
#
# Indices 1 2 3 4 5 6 
#
# 1 0.008454 -0.005988 -0.003292 0.000000 0.000000 0.000000
# 2 -0.005988 0.027675 -0.007813 0.000000 0.000000 0.000000
# 3 -0.003292 -0.007813 0.030543 0.000000 0.000000 0.000000
# 4 0.000000 0.000000 0.000000 0.064852 0.000000 0.000000
# 5 0.000000 0.000000 0.000000 0.000000 0.105310 0.000000
# 6 0.000000 0.000000 0.000000 0.000000 0.000000 0.127055
#
#
# Mechanical properties :
#
#
# Convention : Reuss Voigt Hill
#
# Bulk Modulus (GPa) = 30.78280 47.22984 39.00632
# Shear Modulus (GPa) = 12.22780 17.34771 14.78776
#
# Velocity S-wave (km/s) = 2.55547 3.04381 2.81026
# Velocity P-wave (km/s) = 5.01469 6.12998 5.60017
#
# Compressibility (1/GPa) = 0.03248568
#
# Stress axis : x y z
#
# Youngs Moduli (GPa) = 118.28587 36.13354 32.74077
#
# Poissons Ratio (x) = 0.21637 0.10778
# Poissons Ratio (y) = 0.70830 0.25581
# Poissons Ratio (z) = 0.38939 0.28232
#
# Static dielectric constant tensor:
#      x y z
#    x 4.010110 0.000000 0.000000 
#    y 0.000000 3.180620 0.000000 
#    z 0.000000 0.000000 3.240970 
# 
# 
# High freq. dielectric constant tensor:
#      x y z
#    x 1.751840 0.000000 0.000000 
#    y 0.000000 1.694370 0.000000 
#    z 0.000000 0.000000 1.699340 
# 
# From -- ./inp_files/9522.got.cif
#   From: 2010.06.25/outbox.cif.g09.slc.cpg/sg71_5_cif.got.tgz:9522.got - 2010.06.28 04:59:45.
