data_PCOD8289389
_publ_section_title
;
Structure prediction by ZEFSAII (Michael W. Deem and Ramdas Pophale) SiO2 
 PCOD8289389
Probable space group: I M M M
;
_chemical_formula_sum "Si O2"
_cell_formula_units_Z 104
_cell_length_a 26.933792
_cell_length_b 28.183527
_cell_length_c 7.576671
_cell_angle_alpha 90.000000
_cell_angle_beta 90.000000
_cell_angle_gamma 90.000000
_cell_volume 5751.369538
_symmetry_space_group_name_H-M "I M M M"
_symmetry_group_IT_number 71
_symmetry_cell_setting 'orthorhombic'
loop_
_space_group_symop_operation_xyz
x,y,z
-x,-y,z
x,-y,-z
-x,y,-z
-x,-y,-z
x,y,-z
-x,y,z
x,-y,z
1/2+x,1/2+y,1/2+z
1/2-x,1/2-y,1/2+z
1/2+x,1/2-y,1/2-z
1/2-x,1/2+y,1/2-z
1/2-x,1/2-y,1/2-z
1/2+x,1/2+y,1/2-z
1/2-x,1/2+y,1/2+z
1/2+x,1/2-y,1/2+z
loop_
_atom_site_type_symbol
_atom_site_label
_atom_site_fract_x
_atom_site_fract_y
_atom_site_fract_z
Si Si1 0.445152 0.866829 0.208992
Si Si2 0.196814 0.055915 0.000000
Si Si3 0.270255 0.055690 0.307483
Si Si4 0.596452 0.232252 0.202524
Si Si5 0.158949 0.155374 0.000000
Si Si6 0.943839 0.795657 0.000000
Si Si7 0.300184 0.721769 0.203139
Si Si8 0.376290 0.947422 0.791457
O O1 0.500000 0.862919 0.291803
O O2 0.412822 0.821462 0.262912
O O3 0.418931 0.913663 0.287132
O O4 0.448391 0.870867 0.000000
O O5 0.228385 0.069348 0.170535
O O6 0.155829 0.097479 0.000000
O O7 0.178270 0.000000 0.000000
O O8 0.253102 0.073671 0.500000
O O9 0.323813 0.077053 0.258730
O O10 0.278099 0.000000 0.301646
O O11 0.561987 0.265106 0.322788
O O12 0.654738 0.241546 0.231360
O O13 0.580413 0.241204 0.000000
O O14 0.188459 0.176599 0.829547
O O15 0.100142 0.165721 0.000000
O O16 0.000000 0.817559 0.000000
O O17 0.250000 0.750000 0.250000
O O18 0.297668 0.703960 0.000000
O O19 0.382992 0.000000 0.708845
O O20 0.379467 0.950701 0.000000
#
# Coordination Sequence:
#
# PCOD8289389 Si02
#       8
#    16   8  16  16   8   8  16  16
#     4   9  17  29  45  65  90 123 167 214 259 305
#     4  10  20  36  56  79 109 140 171 211 254 305
#     4   9  17  31  51  72  96 130 171 210 250 298
#     4   9  19  34  52  74 100 131 170 214 259 307
#     4  10  22  36  54  83 112 142 182 216 260 325
#     4  10  20  36  58  79 101 132 169 213 258 305
#     4  10  19  34  54  78 112 147 175 215 265 322
#     4   9  16  28  45  65  94 127 164 213 260 306
#
# _framework density 18.082649
#
# number of rings (size 3 to 8) (size 9 to 14) (size 15 to 20)
#    0.000    2.615    1.538    0.462    0.000    3.077 
#    1.385    1.538    0.000    0.231    0.000    2.154 
#    0.000    0.000    0.000   11.538    0.000    0.000 
#
# Total GULP energy -644322.738751 kJ/mol
# GULP energy per Si atom -12390.821899 kJ/mol
# Density = 1.804149 g / cm^3
# Si number density = 18.082649 Si / 1000 Ang^3
#
#
#
# Elastic Constant Matrix: (Units=GPa)
#
#
# Indices 1 2 3 4 5 6 
#
# 1 108.6740 57.2092 32.4746 0.0000 0.0000 0.0000
# 2 57.2092 112.4348 34.1758 0.0000 0.0000 0.0000
# 3 32.4746 34.1758 86.8942 0.0000 0.0000 0.0000
# 4 0.0000 0.0000 0.0000 3.7171 0.0000 0.0000
# 5 0.0000 0.0000 0.0000 0.0000 42.2450 0.0000
# 6 0.0000 0.0000 0.0000 0.0000 0.0000 22.3489
#
#
#
# Elastic Compliance Matrix: (Units=1/GPa)
#
#
# Indices 1 2 3 4 5 6 
#
# 1 0.013056 -0.005861 -0.002574 0.000000 0.000000 0.000000
# 2 -0.005861 0.012733 -0.002817 0.000000 0.000000 0.000000
# 3 -0.002574 -0.002817 0.013578 0.000000 0.000000 0.000000
# 4 0.000000 0.000000 0.000000 0.269023 0.000000 0.000000
# 5 0.000000 0.000000 0.000000 0.000000 0.023671 0.000000
# 6 0.000000 0.000000 0.000000 0.000000 0.000000 0.044745
#
#
# Mechanical properties :
#
#
# Convention : Reuss Voigt Hill
#
# Bulk Modulus (GPa) = 59.30469 61.74693 60.52581
# Shear Modulus (GPa) = 12.34771 25.93843 19.14307
#
# Velocity S-wave (km/s) = 2.61597 3.79151 3.25721
# Velocity P-wave (km/s) = 6.48013 7.30675 6.90582
#
# Compressibility (1/GPa) = 0.01686207
#
# Stress axis : x y z
#
# Youngs Moduli (GPa) = 76.59034 78.53873 73.64597
#
# Poissons Ratio (x) = 0.46031 0.18960
# Poissons Ratio (y) = 0.44889 0.20749
# Poissons Ratio (z) = 0.19718 0.22128
#
# Static dielectric constant tensor:
#      x y z
#    x 3.321440 0.000000 0.000000 
#    y 0.000000 3.221130 0.000000 
#    z 0.000000 0.000000 3.109460 
# 
# 
# High freq. dielectric constant tensor:
#      x y z
#    x 1.685580 0.000000 0.000000 
#    y 0.000000 1.673970 0.000000 
#    z 0.000000 0.000000 1.708720 
# 
# From -- ./inp_files/13381.got.cif
#   From: 2010.06.25/outbox.cif.g09.slc.cpg/sg71_7_cif.got.tgz:13381.got - 2010.06.28 04:59:45.
