data_PCOD8289970
_publ_section_title
;
Structure prediction by ZEFSAII (Michael W. Deem and Ramdas Pophale) SiO2 
 PCOD8289970
Probable space group: I M M M
;
_chemical_formula_sum "Si O2"
_cell_formula_units_Z 96
_cell_length_a 25.598591
_cell_length_b 21.963551
_cell_length_c 9.057797
_cell_angle_alpha 90.000000
_cell_angle_beta 90.000000
_cell_angle_gamma 90.000000
_cell_volume 5092.619182
_symmetry_space_group_name_H-M "I M M M"
_symmetry_group_IT_number 71
_symmetry_cell_setting 'orthorhombic'
loop_
_space_group_symop_operation_xyz
x,y,z
-x,-y,z
x,-y,-z
-x,y,-z
-x,-y,-z
x,y,-z
-x,y,z
x,-y,z
1/2+x,1/2+y,1/2+z
1/2-x,1/2-y,1/2+z
1/2+x,1/2-y,1/2-z
1/2-x,1/2+y,1/2-z
1/2-x,1/2-y,1/2-z
1/2+x,1/2+y,1/2-z
1/2-x,1/2+y,1/2+z
1/2+x,1/2-y,1/2+z
loop_
_atom_site_type_symbol
_atom_site_label
_atom_site_fract_x
_atom_site_fract_y
_atom_site_fract_z
Si Si1 0.807878 0.500000 0.665767
Si Si2 0.057791 0.380054 0.669102
Si Si3 0.850998 0.294612 0.675335
Si Si4 0.558473 0.568446 0.175463
Si Si5 0.148312 0.842389 0.324276
Si Si6 0.586056 0.000000 0.326383
Si Si7 0.246614 0.373034 0.669904
O O1 0.831705 0.500000 0.500000
O O2 0.853384 0.500000 0.784509
O O3 0.772996 0.558810 0.690754
O O4 0.072348 0.395958 0.500000
O O5 0.099789 0.332946 0.735923
O O6 0.057594 0.441232 0.762545
O O7 0.000000 0.350567 0.679052
O O8 0.852414 0.294294 0.500000
O O9 0.856637 0.226343 0.737533
O O10 0.797021 0.325467 0.729322
O O11 0.500000 0.586180 0.230234
O O12 0.572524 0.500000 0.230330
O O13 0.600493 0.616743 0.238873
O O14 0.559786 0.569851 0.000000
O O15 0.148241 0.843252 0.500000
O O16 0.202497 0.869224 0.269197
O O17 0.579687 0.000000 0.500000
O O18 0.260309 0.358851 0.500000
#
# Coordination Sequence:
#
# PCOD8289970 Si02
#       7
#     8  16  16  16  16   8  16
#     4  10  20  37  59  76 101 142 182 220 260 317
#     4  10  20  36  58  78 102 143 190 225 259 315
#     4   9  18  34  53  76 105 138 176 218 261 304
#     4   8  15  29  48  72 105 139 164 199 258 312
#     4  10  20  32  53  82 108 133 172 222 260 308
#     4  12  23  35  54  81 112 139 173 227 280 320
#     4  10  20  35  54  74 104 140 172 211 262 319
#
# _framework density 18.850809999999999
#
# number of rings (size 3 to 8) (size 9 to 14) (size 15 to 20)
#    0.000    2.333    1.667    2.000    1.167    2.667 
#    0.000    4.167    0.000    0.500    0.000    1.167 
#    0.000    0.000    0.000    0.000    0.000    0.000 
#
# Total GULP energy -595131.191259 kJ/mol
# GULP energy per Si atom -12398.566485 kJ/mol
# Density = 1.880790 g / cm^3
# Si number density = 18.850810 Si / 1000 Ang^3
#
#
#
# Elastic Constant Matrix: (Units=GPa)
#
#
# Indices 1 2 3 4 5 6 
#
# 1 150.5109 76.5336 20.3188 0.0000 0.0000 0.0000
# 2 76.5336 141.1608 18.1983 0.0000 0.0000 0.0000
# 3 20.3188 18.1983 34.3287 0.0000 0.0000 0.0000
# 4 0.0000 0.0000 0.0000 8.2836 0.0000 0.0000
# 5 0.0000 0.0000 0.0000 0.0000 25.2387 0.0000
# 6 0.0000 0.0000 0.0000 0.0000 0.0000 22.1634
#
#
#
# Elastic Compliance Matrix: (Units=1/GPa)
#
#
# Indices 1 2 3 4 5 6 
#
# 1 0.009470 -0.004735 -0.003095 0.000000 0.000000 0.000000
# 2 -0.004735 0.009972 -0.002483 0.000000 0.000000 0.000000
# 3 -0.003095 -0.002483 0.032278 0.000000 0.000000 0.000000
# 4 0.000000 0.000000 0.000000 0.120720 0.000000 0.000000
# 5 0.000000 0.000000 0.000000 0.000000 0.039622 0.000000
# 6 0.000000 0.000000 0.000000 0.000000 0.000000 0.045119
#
#
# Mechanical properties :
#
#
# Convention : Reuss Voigt Hill
#
# Bulk Modulus (GPa) = 32.16167 61.78909 46.97538
# Shear Modulus (GPa) = 17.35075 25.20046 21.27561
#
# Velocity S-wave (km/s) = 3.03714 3.66024 3.36315
# Velocity P-wave (km/s) = 5.42192 7.12126 6.32888
#
# Compressibility (1/GPa) = 0.03109291
#
# Stress axis : x y z
#
# Youngs Moduli (GPa) = 105.60059 100.28498 30.98045
#
# Poissons Ratio (x) = 0.47487 0.09588
# Poissons Ratio (y) = 0.50004 0.07694
# Poissons Ratio (z) = 0.32681 0.24905
#
# Static dielectric constant tensor:
#      x y z
#    x 3.600690 0.000000 0.000000 
#    y 0.000000 3.810960 0.000000 
#    z 0.000000 0.000000 2.997620 
# 
# 
# High freq. dielectric constant tensor:
#      x y z
#    x 1.744320 0.000000 0.000000 
#    y 0.000000 1.740750 0.000000 
#    z 0.000000 0.000000 1.682420 
# 
# From -- ./inp_files/12940.got.cif
#   From: 2010.06.25/outbox.cif.g09.slc.cpg/sg71_7_cif.got.tgz:12940.got - 2010.06.28 04:59:45.
