data_PCOD8289686
_publ_section_title
;
Structure prediction by ZEFSAII (Michael W. Deem and Ramdas Pophale) SiO2 
 PCOD8289686
Probable space group: I M M M
;
_chemical_formula_sum "Si O2"
_cell_formula_units_Z 48
_cell_length_a 9.516742
_cell_length_b 24.698894
_cell_length_c 11.176078
_cell_angle_alpha 90.000000
_cell_angle_beta 90.000000
_cell_angle_gamma 90.000000
_cell_volume 2626.970683
_symmetry_space_group_name_H-M "I M M M"
_symmetry_group_IT_number 71
_symmetry_cell_setting 'orthorhombic'
loop_
_space_group_symop_operation_xyz
x,y,z
-x,-y,z
x,-y,-z
-x,y,-z
-x,-y,-z
x,y,-z
-x,y,z
x,-y,z
1/2+x,1/2+y,1/2+z
1/2-x,1/2-y,1/2+z
1/2+x,1/2-y,1/2-z
1/2-x,1/2+y,1/2-z
1/2-x,1/2-y,1/2-z
1/2+x,1/2+y,1/2-z
1/2-x,1/2+y,1/2+z
1/2+x,1/2-y,1/2+z
loop_
_atom_site_type_symbol
_atom_site_label
_atom_site_fract_x
_atom_site_fract_y
_atom_site_fract_z
Si Si1 0.722189 0.126879 0.731343
Si Si2 0.500000 0.206649 0.639559
Si Si3 0.500000 0.666302 0.358697
Si Si4 0.500000 0.059343 0.861168
Si Si5 0.167458 0.563537 0.000000
O O1 0.639513 0.181864 0.699175
O O2 0.637921 0.091827 0.826688
O O3 0.742309 0.090312 0.613906
O O4 0.867503 0.140835 0.793097
O O5 0.500000 0.192231 0.500000
O O6 0.500000 0.269976 0.663262
O O7 0.500000 0.652553 0.500000
O O8 0.500000 0.000000 0.797299
O O9 0.500000 0.050503 0.000000
O O10 0.197357 0.500000 0.000000
O O11 0.000000 0.576242 0.000000
#
# Coordination Sequence:
#
# PCOD8289686 Si02
#       5
#    16   8   8   8   8
#     4  11  20  38  60  86 119 150 194 245 293 351
#     4  10  19  39  61  87 113 154 197 246 287 350
#     4  11  25  38  56  83 124 163 194 233 296 346
#     4  10  20  35  59  84 110 150 200 237 280 345
#     4  11  20  37  67  93 113 147 197 253 305 343
#
# _framework density 18.271996000000001
#
# number of rings (size 3 to 8) (size 9 to 14) (size 15 to 20)
#    0.000    1.333    5.000    3.000    0.000    0.667 
#    0.000    4.167    7.333    6.000    0.000    0.000 
#    0.000    0.000    0.000    0.000    0.000    0.000 
#
# Total GULP energy -297621.454244 kJ/mol
# GULP energy per Si atom -12400.893927 kJ/mol
# Density = 1.823041 g / cm^3
# Si number density = 18.271996 Si / 1000 Ang^3
#
#
#
# Elastic Constant Matrix: (Units=GPa)
#
#
# Indices 1 2 3 4 5 6 
#
# 1 160.7937 82.7396 77.5929 0.0001 0.0000 0.0000
# 2 82.7396 139.1793 72.3165 0.0019 -0.0002 0.0000
# 3 77.5929 72.3165 126.3826 0.0037 0.0008 -0.0005
# 4 0.0001 0.0019 0.0037 144.5152 -0.0031 0.0004
# 5 0.0000 -0.0002 0.0008 -0.0031 4.6011 0.0004
# 6 0.0000 0.0000 -0.0005 0.0004 0.0004 35.3693
#
#
#
# Elastic Compliance Matrix: (Units=1/GPa)
#
#
# Indices 1 2 3 4 5 6 
#
# 1 0.010191 -0.003995 -0.003971 0.000000 0.000000 0.000000
# 2 -0.003995 0.011791 -0.004294 0.000000 0.000001 0.000000
# 3 -0.003971 -0.004294 0.012807 0.000000 -0.000002 0.000000
# 4 0.000000 0.000000 0.000000 0.006920 0.000005 0.000000
# 5 0.000000 0.000001 -0.000002 0.000005 0.217341 -0.000002
# 6 0.000000 0.000000 0.000000 0.000000 -0.000002 0.028273
#
#
# Mechanical properties :
#
#
# Convention : Reuss Voigt Hill
#
# Bulk Modulus (GPa) = 97.37494 99.07262 98.22378
# Shear Modulus (GPa) = 15.85956 49.81088 32.83522
#
# Velocity S-wave (km/s) = 2.94933 5.22685 4.24373
# Velocity P-wave (km/s) = 8.06261 9.52708 8.82528
#
# Compressibility (1/GPa) = 0.01026958
#
# Stress axis : x y z
#
# Youngs Moduli (GPa) = 98.12447 84.80849 78.07962
#
# Poissons Ratio (x) = 0.33883 0.31004
# Poissons Ratio (y) = 0.39203 0.33528
# Poissons Ratio (z) = 0.38963 0.36418
#
# Static dielectric constant tensor:
#      x y z
#    x 3.169940 0.000000 0.000000 
#    y 0.000000 3.567990 0.000000 
#    z 0.000000 0.000000 3.462420 
# 
# 
# High freq. dielectric constant tensor:
#      x y z
#    x 1.689180 0.000000 0.000000 
#    y 0.000000 1.726510 0.000000 
#    z 0.000000 0.000000 1.722710 
# 
# From -- ./inp_files/3084.got.cif
#   From: 2010.06.25/outbox.cif.g09.slc.cpg/sg71_2_cif.got.tgz:3084.got - 2010.06.28 04:59:45.
