data_PCOD8289502
_publ_section_title
;
Structure prediction by ZEFSAII (Michael W. Deem and Ramdas Pophale) SiO2 
 PCOD8289502
Probable space group: I M M M
;
_chemical_formula_sum "Si O2"
_cell_formula_units_Z 112
_cell_length_a 14.753720
_cell_length_b 18.012224
_cell_length_c 21.937571
_cell_angle_alpha 90.000000
_cell_angle_beta 90.000000
_cell_angle_gamma 90.000000
_cell_volume 5829.850470
_symmetry_space_group_name_H-M "I M M M"
_symmetry_group_IT_number 71
_symmetry_cell_setting 'orthorhombic'
loop_
_space_group_symop_operation_xyz
x,y,z
-x,-y,z
x,-y,-z
-x,y,-z
-x,-y,-z
x,y,-z
-x,y,z
x,-y,z
1/2+x,1/2+y,1/2+z
1/2-x,1/2-y,1/2+z
1/2+x,1/2-y,1/2-z
1/2-x,1/2+y,1/2-z
1/2-x,1/2-y,1/2-z
1/2+x,1/2+y,1/2-z
1/2-x,1/2+y,1/2+z
1/2+x,1/2-y,1/2+z
loop_
_atom_site_type_symbol
_atom_site_label
_atom_site_fract_x
_atom_site_fract_y
_atom_site_fract_z
Si Si1 0.099981 0.148157 0.784715
Si Si2 0.605506 0.586619 0.846824
Si Si3 0.753067 0.828753 0.572452
Si Si4 0.604916 0.913642 0.641135
Si Si5 0.736876 0.176100 0.859081
Si Si6 0.600196 0.187698 0.247508
Si Si7 0.098312 0.412736 0.432663
O O1 0.132949 0.114393 0.720466
O O2 0.173165 0.131715 0.837331
O O3 0.094606 0.236795 0.784883
O O4 0.000000 0.115551 0.801218
O O5 0.500000 0.602516 0.858653
O O6 0.629237 0.500000 0.852770
O O7 0.659627 0.632387 0.897548
O O8 0.766571 0.826085 0.500000
O O9 0.663604 0.876086 0.587954
O O10 0.740968 0.745722 0.598061
O O11 0.500000 0.900752 0.624717
O O12 0.629389 0.877802 0.706520
O O13 0.629655 0.000000 0.645473
O O14 0.676981 0.201919 0.802092
O O15 0.680402 0.114490 0.893104
O O16 0.500000 0.170304 0.219397
O O17 0.107588 0.378544 0.500000
O O18 0.104217 0.500000 0.435661
O O19 0.000000 0.388620 0.405511
#
# Coordination Sequence:
#
# PCOD8289502 Si02
#       7
#    16  16  16  16  16  16  16
#     4  10  20  36  59  83 113 148 183 230 292 350
#     4  10  22  40  59  81 111 147 188 236 289 341
#     4  12  25  38  55  82 114 153 201 240 274 329
#     4  10  22  40  60  84 115 150 190 240 296 350
#     4  12  21  34  59  89 115 150 190 233 285 344
#     4  10  19  34  58  85 112 142 178 231 298 355
#     4   9  20  39  59  82 117 155 188 230 285 341
#
# _framework density 19.211469999999998
#
# number of rings (size 3 to 8) (size 9 to 14) (size 15 to 20)
#    0.000    1.571    2.857    3.000    0.000    3.429 
#    0.000    2.857    0.000    1.286    0.000    1.000 
#    0.000    0.000    0.000    0.000    0.000    0.000 
#
# Total GULP energy -694267.619748 kJ/mol
# GULP energy per Si atom -12397.636067 kJ/mol
# Density = 1.916774 g / cm^3
# Si number density = 19.211470 Si / 1000 Ang^3
#
#
#
# Elastic Constant Matrix: (Units=GPa)
#
#
# Indices 1 2 3 4 5 6 
#
# 1 116.0474 27.9091 66.6649 0.0000 0.0000 0.0000
# 2 27.9091 43.0936 44.4379 0.0000 0.0000 0.0000
# 3 66.6649 44.4379 116.0906 0.0000 0.0000 0.0000
# 4 0.0000 0.0000 0.0000 23.3615 0.0000 0.0000
# 5 0.0000 0.0000 0.0000 0.0000 29.6642 0.0000
# 6 0.0000 0.0000 0.0000 0.0000 0.0000 30.5935
#
#
#
# Elastic Compliance Matrix: (Units=1/GPa)
#
#
# Indices 1 2 3 4 5 6 
#
# 1 0.012896 -0.001182 -0.006953 0.000000 0.000000 0.000000
# 2 -0.001182 0.038447 -0.014038 0.000000 0.000000 0.000000
# 3 -0.006953 -0.014038 0.017980 0.000000 0.000000 0.000000
# 4 0.000000 0.000000 0.000000 0.042805 0.000000 0.000000
# 5 0.000000 0.000000 0.000000 0.000000 0.033711 0.000000
# 6 0.000000 0.000000 0.000000 0.000000 0.000000 0.032687
#
#
# Mechanical properties :
#
#
# Convention : Reuss Voigt Hill
#
# Bulk Modulus (GPa) = 40.03729 61.47285 50.75507
# Shear Modulus (GPa) = 21.62656 25.80514 23.71585
#
# Velocity S-wave (km/s) = 3.35880 3.66897 3.51730
# Velocity P-wave (km/s) = 5.99396 7.07219 6.55528
#
# Compressibility (1/GPa) = 0.02497672
#
# Stress axis : x y z
#
# Youngs Moduli (GPa) = 77.54598 26.00990 55.61654
#
# Poissons Ratio (x) = 0.03074 0.38669
# Poissons Ratio (y) = 0.09166 0.78076
# Poissons Ratio (z) = 0.53916 0.36513
#
# Static dielectric constant tensor:
#      x y z
#    x 3.999820 0.000000 0.000000 
#    y 0.000000 3.452900 0.000000 
#    z 0.000000 0.000000 3.400530 
# 
# 
# High freq. dielectric constant tensor:
#      x y z
#    x 1.763840 0.000000 0.000000 
#    y 0.000000 1.745690 0.000000 
#    z 0.000000 0.000000 1.726920 
# 
# From -- ./inp_files/59947.got.cif
#   From: 2010.06.25/outbox.cif.g09.slc.cpg/sg71_30_cif.got.tgz:59947.got - 2010.06.28 04:59:45.
