data_PCOD8289352
_publ_section_title
;
Structure prediction by ZEFSAII (Michael W. Deem and Ramdas Pophale) SiO2 
 PCOD8289352
Probable space group: I M M M
;
_chemical_formula_sum "Si O2"
_cell_formula_units_Z 104
_cell_length_a 17.042884
_cell_length_b 14.300676
_cell_length_c 24.703670
_cell_angle_alpha 90.000000
_cell_angle_beta 90.000000
_cell_angle_gamma 90.000000
_cell_volume 6020.896096
_symmetry_space_group_name_H-M "I M M M"
_symmetry_group_IT_number 71
_symmetry_cell_setting 'orthorhombic'
loop_
_space_group_symop_operation_xyz
x,y,z
-x,-y,z
x,-y,-z
-x,y,-z
-x,-y,-z
x,y,-z
-x,y,z
x,-y,z
1/2+x,1/2+y,1/2+z
1/2-x,1/2-y,1/2+z
1/2+x,1/2-y,1/2-z
1/2-x,1/2+y,1/2-z
1/2-x,1/2-y,1/2-z
1/2+x,1/2+y,1/2-z
1/2-x,1/2+y,1/2+z
1/2+x,1/2-y,1/2+z
loop_
_atom_site_type_symbol
_atom_site_label
_atom_site_fract_x
_atom_site_fract_y
_atom_site_fract_z
Si Si1 0.589599 0.770322 0.059954
Si Si2 0.144575 0.608101 0.866227
Si Si3 0.839451 0.723102 0.757707
Si Si4 0.089552 0.104466 0.713540
Si Si5 0.320050 0.605379 0.103941
Si Si6 0.500000 0.110692 0.439152
Si Si7 0.907792 0.393018 0.660422
O O1 0.500000 0.740998 0.071092
O O2 0.641739 0.676925 0.062197
O O3 0.617172 0.846888 0.103433
O O4 0.599337 0.813949 0.000000
O O5 0.131110 0.500000 0.849449
O O6 0.142045 0.670021 0.812737
O O7 0.226973 0.620529 0.896459
O O8 0.077321 0.644164 0.906959
O O9 0.750000 0.750000 0.750000
O O10 0.890352 0.818848 0.758966
O O11 0.862589 0.657175 0.708299
O O12 0.146190 0.125860 0.663423
O O13 0.000000 0.115663 0.694112
O O14 0.104665 0.000000 0.736616
O O15 0.341223 0.500000 0.085845
O O16 0.500000 0.153778 0.500000
O O17 0.500000 0.000000 0.443665
O O18 0.880749 0.500000 0.658202
O O19 0.000000 0.383622 0.670983
#
# Coordination Sequence:
#
# PCOD8289352 Si02
#       7
#    16  16  16  16  16   8  16
#     4  10  20  34  51  74 104 138 180 223 261 307
#     4  10  21  35  53  80 108 139 177 216 273 332
#     4  12  21  33  53  79 111 139 175 223 273 326
#     4  10  20  33  50  72 105 147 180 211 263 324
#     4  10  19  34  52  74 105 141 177 218 268 320
#     4   9  20  38  56  76 107 143 180 226 276 327
#     4  10  21  35  52  75 103 140 178 214 263 315
#
# _framework density 17.273177
#
# number of rings (size 3 to 8) (size 9 to 14) (size 15 to 20)
#    0.000    1.769    3.077    1.385    2.154    2.769 
#    0.000    3.846    0.000    0.000    0.000    0.000 
#    0.000    1.231    0.000    0.000    0.000    0.154 
#
# Total GULP energy -644841.258385 kJ/mol
# GULP energy per Si atom -12400.793430 kJ/mol
# Density = 1.723386 g / cm^3
# Si number density = 17.273177 Si / 1000 Ang^3
#
#
#
# Elastic Constant Matrix: (Units=GPa)
#
#
# Indices 1 2 3 4 5 6 
#
# 1 96.8706 42.6181 44.2789 0.0000 0.0000 0.0000
# 2 42.6181 109.3999 56.4350 0.0000 0.0000 0.0000
# 3 44.2789 56.4350 116.4614 0.0000 0.0000 0.0000
# 4 0.0000 0.0000 0.0000 23.6726 0.0000 0.0000
# 5 0.0000 0.0000 0.0000 0.0000 21.4231 0.0000
# 6 0.0000 0.0000 0.0000 0.0000 0.0000 24.5904
#
#
#
# Elastic Compliance Matrix: (Units=1/GPa)
#
#
# Indices 1 2 3 4 5 6 
#
# 1 0.013409 -0.003458 -0.003422 0.000000 0.000000 0.000000
# 2 -0.003458 0.013079 -0.005023 0.000000 0.000000 0.000000
# 3 -0.003422 -0.005023 0.012322 0.000000 0.000000 0.000000
# 4 0.000000 0.000000 0.000000 0.042243 0.000000 0.000000
# 5 0.000000 0.000000 0.000000 0.000000 0.046679 0.000000
# 6 0.000000 0.000000 0.000000 0.000000 0.000000 0.040666
#
#
# Mechanical properties :
#
#
# Convention : Reuss Voigt Hill
#
# Bulk Modulus (GPa) = 66.65495 67.71063 67.18279
# Shear Modulus (GPa) = 25.35428 25.89723 25.62575
#
# Velocity S-wave (km/s) = 3.83540 3.87625 3.85588
# Velocity P-wave (km/s) = 7.63454 7.70186 7.66827
#
# Compressibility (1/GPa) = 0.01500264
#
# Stress axis : x y z
#
# Youngs Moduli (GPa) = 74.57812 76.45754 81.15692
#
# Poissons Ratio (x) = 0.26440 0.27774
# Poissons Ratio (y) = 0.25790 0.40766
# Poissons Ratio (z) = 0.25523 0.38406
#
# Static dielectric constant tensor:
#      x y z
#    x 3.317450 0.000000 0.000000 
#    y 0.000000 3.390160 0.000000 
#    z 0.000000 0.000000 3.140740 
# 
# 
# High freq. dielectric constant tensor:
#      x y z
#    x 1.670800 0.000000 0.000000 
#    y 0.000000 1.662750 0.000000 
#    z 0.000000 0.000000 1.651720 
# 
# From -- ./inp_files/45124.got.cif
#   From: 2010.06.25/outbox.cif.g09.slc.cpg/sg71_23_cif.got.tgz:45124.got - 2010.06.28 04:59:45.
