data_PCOD8289058
_publ_section_title
;
Structure prediction by ZEFSAII (Michael W. Deem and Ramdas Pophale) SiO2 
 PCOD8289058
Probable space group: I M M M
;
_chemical_formula_sum "Si O2"
_cell_formula_units_Z 88
_cell_length_a 17.274833
_cell_length_b 13.979039
_cell_length_c 21.300970
_cell_angle_alpha 90.000000
_cell_angle_beta 90.000000
_cell_angle_gamma 90.000000
_cell_volume 5143.876759
_symmetry_space_group_name_H-M "I M M M"
_symmetry_group_IT_number 71
_symmetry_cell_setting 'orthorhombic'
loop_
_space_group_symop_operation_xyz
x,y,z
-x,-y,z
x,-y,-z
-x,y,-z
-x,-y,-z
x,y,-z
-x,y,z
x,-y,z
1/2+x,1/2+y,1/2+z
1/2-x,1/2-y,1/2+z
1/2+x,1/2-y,1/2-z
1/2-x,1/2+y,1/2-z
1/2-x,1/2-y,1/2-z
1/2+x,1/2+y,1/2-z
1/2-x,1/2+y,1/2+z
1/2+x,1/2-y,1/2+z
loop_
_atom_site_type_symbol
_atom_site_label
_atom_site_fract_x
_atom_site_fract_y
_atom_site_fract_z
Si Si1 0.236768 0.110128 0.702073
Si Si2 0.000000 0.388171 0.926349
Si Si3 0.789851 0.108460 0.927945
Si Si4 0.668519 0.106998 0.174666
Si Si5 0.868171 0.273275 0.141204
Si Si6 0.414076 0.720314 0.778493
O O1 0.265887 0.128844 0.772911
O O2 0.287116 0.172565 0.653834
O O3 0.147454 0.141529 0.698941
O O4 0.243295 0.000000 0.682440
O O5 0.076775 0.344188 0.896413
O O6 0.000000 0.500000 0.911129
O O7 0.000000 0.367083 0.000000
O O8 0.708009 0.120415 0.892727
O O9 0.854271 0.179316 0.900618
O O10 0.821005 0.000000 0.919366
O O11 0.773975 0.133433 0.000000
O O12 0.598787 0.181014 0.183177
O O13 0.635138 0.000000 0.183247
O O14 0.909184 0.241456 0.204876
O O15 0.500000 0.682392 0.794216
#
# Coordination Sequence:
#
# PCOD8289058 Si02
#       6
#    16   8  16  16  16  16
#     4  10  19  33  54  76 103 141 178 220 270 317
#     4  11  24  38  53  79 113 145 181 225 265 308
#     4  10  19  32  55  81 104 138 179 214 255 315
#     4   9  17  32  51  74 105 134 170 218 267 321
#     4  11  19  37  54  77 109 142 177 217 263 322
#     4  11  20  32  51  78 108 135 175 222 269 315
#
# _framework density 17.107718999999999
#
# number of rings (size 3 to 8) (size 9 to 14) (size 15 to 20)
#    0.000    1.727    4.545    2.182    0.000    1.455 
#    0.000    0.455    0.000    2.182    0.000    2.545 
#    0.000    1.455    0.000    0.000    0.000    0.000 
#
# Total GULP energy -545687.749845 kJ/mol
# GULP energy per Si atom -12401.994315 kJ/mol
# Density = 1.706878 g / cm^3
# Si number density = 17.107719 Si / 1000 Ang^3
#
#
#
# Elastic Constant Matrix: (Units=GPa)
#
#
# Indices 1 2 3 4 5 6 
#
# 1 114.1594 41.7358 33.1839 0.0000 0.0000 0.0000
# 2 41.7358 92.9844 47.9548 0.0000 0.0000 0.0000
# 3 33.1839 47.9548 86.1685 0.0000 0.0000 0.0000
# 4 0.0000 0.0000 0.0000 25.9755 0.0000 0.0000
# 5 0.0000 0.0000 0.0000 0.0000 6.6740 0.0000
# 6 0.0000 0.0000 0.0000 0.0000 0.0000 24.8916
#
#
#
# Elastic Compliance Matrix: (Units=1/GPa)
#
#
# Indices 1 2 3 4 5 6 
#
# 1 0.010728 -0.003765 -0.002036 0.000000 0.000000 0.000000
# 2 -0.003765 0.016405 -0.007680 0.000000 0.000000 0.000000
# 3 -0.002036 -0.007680 0.016663 0.000000 0.000000 0.000000
# 4 0.000000 0.000000 0.000000 0.038498 0.000000 0.000000
# 5 0.000000 0.000000 0.000000 0.000000 0.149835 0.000000
# 6 0.000000 0.000000 0.000000 0.000000 0.000000 0.040174
#
#
# Mechanical properties :
#
#
# Convention : Reuss Voigt Hill
#
# Bulk Modulus (GPa) = 59.40236 59.89570 59.64903
# Shear Modulus (GPa) = 16.40006 22.87074 19.63540
#
# Velocity S-wave (km/s) = 3.09954 3.66029 3.39152
# Velocity P-wave (km/s) = 6.89982 7.27671 7.09077
#
# Compressibility (1/GPa) = 0.01683435
#
# Stress axis : x y z
#
# Youngs Moduli (GPa) = 93.21365 60.95606 60.01225
#
# Poissons Ratio (x) = 0.22951 0.12218
# Poissons Ratio (y) = 0.35097 0.46089
# Poissons Ratio (z) = 0.18978 0.46814
#
# Static dielectric constant tensor:
#      x y z
#    x 2.973860 0.000000 0.000000 
#    y 0.000000 3.355760 0.000000 
#    z 0.000000 0.000000 3.125840 
# 
# 
# High freq. dielectric constant tensor:
#      x y z
#    x 1.640790 0.000000 0.000000 
#    y 0.000000 1.674590 0.000000 
#    z 0.000000 0.000000 1.643330 
# 
# From -- ./inp_files/36578.got.cif
#   From: 2010.06.25/outbox.cif.g09.slc.cpg/sg71_19_cif.got.tgz:36578.got - 2010.06.28 04:59:45.
