data_PCOD8289961
_publ_section_title
;
Structure prediction by ZEFSAII (Michael W. Deem and Ramdas Pophale) SiO2 
 PCOD8289961
Probable space group: I M M M
;
_chemical_formula_sum "Si O2"
_cell_formula_units_Z 88
_cell_length_a 13.251352
_cell_length_b 26.741087
_cell_length_c 13.863476
_cell_angle_alpha 90.000000
_cell_angle_beta 90.000000
_cell_angle_gamma 90.000000
_cell_volume 4912.599756
_symmetry_space_group_name_H-M "I M M M"
_symmetry_group_IT_number 71
_symmetry_cell_setting 'orthorhombic'
loop_
_space_group_symop_operation_xyz
x,y,z
-x,-y,z
x,-y,-z
-x,y,-z
-x,-y,-z
x,y,-z
-x,y,z
x,-y,z
1/2+x,1/2+y,1/2+z
1/2-x,1/2-y,1/2+z
1/2+x,1/2-y,1/2-z
1/2-x,1/2+y,1/2-z
1/2-x,1/2-y,1/2-z
1/2+x,1/2+y,1/2-z
1/2-x,1/2+y,1/2+z
1/2+x,1/2-y,1/2+z
loop_
_atom_site_type_symbol
_atom_site_label
_atom_site_fract_x
_atom_site_fract_y
_atom_site_fract_z
Si Si1 0.298164 0.402412 0.706868
Si Si2 0.383455 0.702437 0.289506
Si Si3 0.296160 0.249924 0.889703
Si Si4 0.615187 0.558526 0.108814
Si Si5 0.887181 0.000000 0.886368
Si Si6 0.884762 0.641954 0.610183
O O1 0.365652 0.354612 0.676709
O O2 0.309641 0.411968 0.820967
O O3 0.331979 0.450379 0.647772
O O4 0.181727 0.391557 0.682198
O O5 0.500000 0.716672 0.301156
O O6 0.346230 0.708036 0.178429
O O7 0.319413 0.739658 0.357808
O O8 0.362115 0.200228 0.875454
O O9 0.298425 0.268930 0.000000
O O10 0.500000 0.575954 0.127052
O O11 0.624256 0.500000 0.130305
O O12 0.648114 0.570820 0.000000
O O13 0.000000 0.000000 0.842886
O O14 0.889001 0.000000 0.000000
O O15 0.861179 0.626431 0.500000
O O16 0.000000 0.631450 0.637363
#
# Coordination Sequence:
#
# PCOD8289961 Si02
#       6
#    16  16  16  16   8  16
#     4  11  20  33  52  76 106 137 172 216 259 304
#     4  10  20  32  51  80 108 135 172 215 258 306
#     4   9  19  35  53  75 105 139 172 209 259 313
#     4   9  17  30  49  71  97 133 172 207 249 301
#     4  11  22  34  50  74 106 141 170 202 256 319
#     4   9  18  34  55  76 101 136 175 214 259 310
#
# _framework density 17.913122000000001
#
# number of rings (size 3 to 8) (size 9 to 14) (size 15 to 20)
#    0.000    2.273    0.909    3.273    0.000    2.909 
#    0.000    0.455    0.000    2.182    0.000    1.273 
#    0.000    0.000    0.000    0.000    0.000    0.000 
#
# Total GULP energy -545623.888912 kJ/mol
# GULP energy per Si atom -12400.542930 kJ/mol
# Density = 1.787235 g / cm^3
# Si number density = 17.913122 Si / 1000 Ang^3
#
#
#
# Elastic Constant Matrix: (Units=GPa)
#
#
# Indices 1 2 3 4 5 6 
#
# 1 130.0215 38.4068 46.2816 0.0000 0.0000 0.0000
# 2 38.4068 66.4759 22.0993 -0.0009 0.0000 0.0001
# 3 46.2816 22.0993 82.9025 -0.0013 -0.0003 0.0000
# 4 0.0000 -0.0009 -0.0013 20.7619 0.0001 0.0001
# 5 0.0000 0.0000 -0.0003 0.0001 27.7393 0.0000
# 6 0.0000 0.0001 0.0000 0.0001 0.0000 19.4813
#
#
#
# Elastic Compliance Matrix: (Units=1/GPa)
#
#
# Indices 1 2 3 4 5 6 
#
# 1 0.010757 -0.004629 -0.004771 0.000000 0.000000 0.000000
# 2 -0.004629 0.018497 -0.002347 0.000001 0.000000 0.000000
# 3 -0.004771 -0.002347 0.015352 0.000001 0.000000 0.000000
# 4 0.000000 0.000001 0.000001 0.048165 0.000000 0.000000
# 5 0.000000 0.000000 0.000000 0.000000 0.036050 0.000000
# 6 0.000000 0.000000 0.000000 0.000000 0.000000 0.051331
#
#
# Mechanical properties :
#
#
# Convention : Reuss Voigt Hill
#
# Bulk Modulus (GPa) = 47.36579 54.77505 51.07042
# Shear Modulus (GPa) = 23.73238 25.10397 24.41817
#
# Velocity S-wave (km/s) = 3.64381 3.74763 3.69608
# Velocity P-wave (km/s) = 6.64850 7.02644 6.84008
#
# Compressibility (1/GPa) = 0.02111228
#
# Stress axis : x y z
#
# Youngs Moduli (GPa) = 92.96643 54.06165 65.13992
#
# Poissons Ratio (x) = 0.25023 0.31080
# Poissons Ratio (y) = 0.43030 0.15288
# Poissons Ratio (z) = 0.44356 0.12688
#
# Static dielectric constant tensor:
#      x y z
#    x 3.237330 0.000000 0.000000 
#    y 0.000000 3.176000 0.000000 
#    z 0.000000 0.000000 3.442490 
# 
# 
# High freq. dielectric constant tensor:
#      x y z
#    x 1.678570 0.000000 0.000000 
#    y 0.000000 1.683070 0.000000 
#    z 0.000000 0.000000 1.698470 
# 
# From -- ./inp_files/28620.got.cif
#   From: 2010.06.25/outbox.cif.g09.slc.cpg/sg71_15_cif.got.tgz:28620.got - 2010.06.28 04:59:45.
