data_PCOD8289506
_publ_section_title
;
Structure prediction by ZEFSAII (Michael W. Deem and Ramdas Pophale) SiO2 
 PCOD8289506
Probable space group: I M M M
;
_chemical_formula_sum "Si O2"
_cell_formula_units_Z 64
_cell_length_a 27.138900
_cell_length_b 13.546819
_cell_length_c 8.338325
_cell_angle_alpha 90.000000
_cell_angle_beta 90.000000
_cell_angle_gamma 90.000000
_cell_volume 3065.549883
_symmetry_space_group_name_H-M "I M M M"
_symmetry_group_IT_number 71
_symmetry_cell_setting 'orthorhombic'
loop_
_space_group_symop_operation_xyz
x,y,z
-x,-y,z
x,-y,-z
-x,y,-z
-x,-y,-z
x,y,-z
-x,y,z
x,-y,z
1/2+x,1/2+y,1/2+z
1/2-x,1/2-y,1/2+z
1/2+x,1/2-y,1/2-z
1/2-x,1/2+y,1/2-z
1/2-x,1/2-y,1/2-z
1/2+x,1/2+y,1/2-z
1/2-x,1/2+y,1/2+z
1/2+x,1/2-y,1/2+z
loop_
_atom_site_type_symbol
_atom_site_label
_atom_site_fract_x
_atom_site_fract_y
_atom_site_fract_z
Si Si1 0.266271 0.647779 0.186533
Si Si2 0.090290 0.500000 0.183353
Si Si3 0.444430 0.211722 0.309683
Si Si4 0.126348 0.888281 0.812472
Si Si5 0.693320 0.000000 0.179105
O O1 0.250000 0.750000 0.250000
O O2 0.322813 0.621960 0.218140
O O3 0.228781 0.590177 0.296010
O O4 0.255325 0.630538 0.000000
O O5 0.070466 0.603222 0.261817
O O6 0.148927 0.500000 0.195063
O O7 0.073136 0.500000 0.000000
O O8 0.439721 0.207749 0.500000
O O9 0.500000 0.235059 0.254726
O O10 0.410644 0.302927 0.246461
O O11 0.105297 0.000000 0.782580
O O12 0.136397 0.871924 0.000000
O O13 0.670957 0.000000 0.000000
#
# Coordination Sequence:
#
# PCOD8289506 Si02
#       5
#    16   8  16  16   8
#     4  12  24  39  60  86 119 159 200 246 299 361
#     4  10  19  34  58  86 118 155 201 254 305 360
#     4   9  18  33  56  86 116 152 201 255 305 353
#     4  10  20  35  56  83 119 158 200 250 299 356
#     4  12  24  39  59  87 121 157 200 246 299 363
#
# _framework density 20.877168000000001
#
# number of rings (size 3 to 8) (size 9 to 14) (size 15 to 20)
#    0.000    1.500    1.250    5.250    0.000    4.000 
#    0.000    2.500    0.000    3.750    0.000    1.750 
#    0.000    0.000    0.000    0.000    0.000    0.000 
#
# Total GULP energy -396472.813727 kJ/mol
# GULP energy per Si atom -12389.775429 kJ/mol
# Density = 2.082965 g / cm^3
# Si number density = 20.877168 Si / 1000 Ang^3
#
#
#
# Elastic Constant Matrix: (Units=GPa)
#
#
# Indices 1 2 3 4 5 6 
#
# 1 117.4829 49.5475 1.0416 0.0000 0.0000 0.0000
# 2 49.5475 179.7402 13.0732 0.0000 0.0000 0.0000
# 3 1.0416 13.0732 50.3681 0.0000 0.0000 0.0000
# 4 0.0000 0.0000 0.0000 19.5652 0.0000 0.0000
# 5 0.0000 0.0000 0.0000 0.0000 24.2122 0.0000
# 6 0.0000 0.0000 0.0000 0.0000 0.0000 40.9998
#
#
#
# Elastic Compliance Matrix: (Units=1/GPa)
#
#
# Indices 1 2 3 4 5 6 
#
# 1 0.009644 -0.002695 0.000500 0.000000 0.000000 0.000000
# 2 -0.002695 0.006424 -0.001612 0.000000 0.000000 0.000000
# 3 0.000500 -0.001612 0.020262 0.000000 0.000000 0.000000
# 4 0.000000 0.000000 0.000000 0.051111 0.000000 0.000000
# 5 0.000000 0.000000 0.000000 0.000000 0.041302 0.000000
# 6 0.000000 0.000000 0.000000 0.000000 0.000000 0.024390
#
#
# Mechanical properties :
#
#
# Convention : Reuss Voigt Hill
#
# Bulk Modulus (GPa) = 34.82296 52.76841 43.79569
# Shear Modulus (GPa) = 29.35693 35.88401 32.62047
#
# Velocity S-wave (km/s) = 3.75397 4.15036 3.95713
# Velocity P-wave (km/s) = 5.95868 6.94966 6.47316
#
# Compressibility (1/GPa) = 0.02871668
#
# Stress axis : x y z
#
# Youngs Moduli (GPa) = 103.69167 155.67433 49.35398
#
# Poissons Ratio (x) = 0.41952 -0.02468
# Poissons Ratio (y) = 0.27943 0.07954
# Poissons Ratio (z) = -0.05185 0.25088
#
# Static dielectric constant tensor:
#      x y z
#    x 3.721410 0.000000 0.000000 
#    y 0.000000 4.296850 0.000000 
#    z 0.000000 0.000000 3.450840 
# 
# 
# High freq. dielectric constant tensor:
#      x y z
#    x 1.816010 0.000000 0.000000 
#    y 0.000000 1.847970 0.000000 
#    z 0.000000 0.000000 1.779940 
# 
# From -- ./inp_files/11978.got.cif
#   From: 2010.06.25/outbox.cif.g09.slc.cpg/sg71_6_cif.got.tgz:11978.got - 2010.06.28 04:59:45.
