data_PCOD8289447
_publ_section_title
;
Structure prediction by ZEFSAII (Michael W. Deem and Ramdas Pophale) SiO2 
 PCOD8289447
Probable space group: I M M M
;
_chemical_formula_sum "Si O2"
_cell_formula_units_Z 96
_cell_length_a 23.237579
_cell_length_b 25.366523
_cell_length_c 9.051747
_cell_angle_alpha 90.000000
_cell_angle_beta 90.000000
_cell_angle_gamma 90.000000
_cell_volume 5335.611849
_symmetry_space_group_name_H-M "I M M M"
_symmetry_group_IT_number 71
_symmetry_cell_setting 'orthorhombic'
loop_
_space_group_symop_operation_xyz
x,y,z
-x,-y,z
x,-y,-z
-x,y,-z
-x,-y,-z
x,y,-z
-x,y,z
x,-y,z
1/2+x,1/2+y,1/2+z
1/2-x,1/2-y,1/2+z
1/2+x,1/2-y,1/2-z
1/2-x,1/2+y,1/2-z
1/2-x,1/2-y,1/2-z
1/2+x,1/2+y,1/2-z
1/2-x,1/2+y,1/2+z
1/2+x,1/2-y,1/2+z
loop_
_atom_site_type_symbol
_atom_site_label
_atom_site_fract_x
_atom_site_fract_y
_atom_site_fract_z
Si Si1 0.434262 0.301571 0.829927
Si Si2 0.067788 0.000000 0.168820
Si Si3 0.630536 0.898074 0.827477
Si Si4 0.368763 0.593483 0.173593
Si Si5 0.244064 0.061357 0.170668
Si Si6 0.564755 0.000000 0.824149
Si Si7 0.434369 0.194429 0.325943
O O1 0.500000 0.319138 0.799663
O O2 0.392282 0.348976 0.785002
O O3 0.416808 0.252096 0.730327
O O4 0.425913 0.285416 0.000000
O O5 0.091339 0.948442 0.246648
O O6 0.000000 0.000000 0.181916
O O7 0.089020 0.000000 0.000000
O O8 0.697562 0.907293 0.796848
O O9 0.596031 0.948112 0.763046
O O10 0.609878 0.846578 0.743071
O O11 0.617736 0.890570 0.000000
O O12 0.303546 0.588568 0.227935
O O13 0.371784 0.582923 0.000000
O O14 0.251637 0.000000 0.212760
O O15 0.226188 0.066627 0.000000
O O16 0.500000 0.000000 0.764351
O O17 0.568100 0.000000 0.000000
O O18 0.427591 0.193236 0.500000
O O19 0.500000 0.181112 0.277529
#
# Coordination Sequence:
#
# PCOD8289447 Si02
#       7
#    16   8  16  16  16   8  16
#     4   9  19  37  59  81 107 141 181 227 276 327
#     4  11  23  36  53  80 114 149 182 221 274 333
#     4  10  19  34  56  81 108 144 188 228 269 322
#     4  11  22  36  57  84 111 142 185 231 278 330
#     4  10  20  36  56  79 111 149 187 227 273 326
#     4   9  16  27  49  80 106 131 172 223 268 315
#     4  10  21  36  55  82 114 145 179 224 279 335
#
# _framework density 17.992311999999998
#
# number of rings (size 3 to 8) (size 9 to 14) (size 15 to 20)
#    0.000    2.000    1.667    2.250    0.000    5.000 
#    0.000    2.917    0.000    1.500    0.000    0.000 
#    0.000    0.000    0.000    0.000    0.000    0.000 
#
# Total GULP energy -595361.191718 kJ/mol
# GULP energy per Si atom -12403.358161 kJ/mol
# Density = 1.795136 g / cm^3
# Si number density = 17.992312 Si / 1000 Ang^3
#
#
#
# Elastic Constant Matrix: (Units=GPa)
#
#
# Indices 1 2 3 4 5 6 
#
# 1 106.0645 76.7125 58.4173 0.0000 0.0000 0.0000
# 2 76.7125 138.9877 68.7718 0.0000 0.0000 0.0000
# 3 58.4173 68.7718 81.3848 0.0000 0.0000 0.0000
# 4 0.0000 0.0000 0.0000 113.7951 0.0000 0.0000
# 5 0.0000 0.0000 0.0000 0.0000 25.1028 0.0000
# 6 0.0000 0.0000 0.0000 0.0000 0.0000 33.2535
#
#
#
# Elastic Compliance Matrix: (Units=1/GPa)
#
#
# Indices 1 2 3 4 5 6 
#
# 1 0.018220 -0.006161 -0.007872 0.000000 0.000000 0.000000
# 2 -0.006161 0.014448 -0.007787 0.000000 0.000000 0.000000
# 3 -0.007872 -0.007787 0.024517 0.000000 0.000000 0.000000
# 4 0.000000 0.000000 0.000000 0.008788 0.000000 0.000000
# 5 0.000000 0.000000 0.000000 0.000000 0.039836 0.000000
# 6 0.000000 0.000000 0.000000 0.000000 0.000000 0.030072
#
#
# Mechanical properties :
#
#
# Convention : Reuss Voigt Hill
#
# Bulk Modulus (GPa) = 73.82002 81.58226 77.70114
# Shear Modulus (GPa) = 27.16848 42.59930 34.88389
#
# Velocity S-wave (km/s) = 3.89009 4.87112 4.40798
# Velocity P-wave (km/s) = 7.82910 8.77943 8.31785
#
# Compressibility (1/GPa) = 0.01354646
#
# Stress axis : x y z
#
# Youngs Moduli (GPa) = 54.88469 69.21162 40.78724
#
# Poissons Ratio (x) = 0.42644 0.32107
# Poissons Ratio (y) = 0.33816 0.31760
# Poissons Ratio (z) = 0.43204 0.53893
#
# Static dielectric constant tensor:
#      x y z
#    x 3.364650 0.000000 0.000000 
#    y 0.000000 3.312620 0.000000 
#    z 0.000000 0.000000 3.248310 
# 
# 
# High freq. dielectric constant tensor:
#      x y z
#    x 1.699420 0.000000 0.000000 
#    y 0.000000 1.699310 0.000000 
#    z 0.000000 0.000000 1.689970 
# 
# From -- ./inp_files/12951.got.cif
#   From: 2010.06.25/outbox.cif.g09.slc.cpg/sg71_7_cif.got.tgz:12951.got - 2010.06.28 04:59:45.
