data_PCOD8289098
_publ_section_title
;
Structure prediction by ZEFSAII (Michael W. Deem and Ramdas Pophale) SiO2 
 PCOD8289098
Probable space group: I M M M
;
_chemical_formula_sum "Si O2"
_cell_formula_units_Z 120
_cell_length_a 27.262291
_cell_length_b 9.185222
_cell_length_c 28.029319
_cell_angle_alpha 90.000000
_cell_angle_beta 90.000000
_cell_angle_gamma 90.000000
_cell_volume 7018.827238
_symmetry_space_group_name_H-M "I M M M"
_symmetry_group_IT_number 71
_symmetry_cell_setting 'orthorhombic'
loop_
_space_group_symop_operation_xyz
x,y,z
-x,-y,z
x,-y,-z
-x,y,-z
-x,-y,-z
x,y,-z
-x,y,z
x,-y,z
1/2+x,1/2+y,1/2+z
1/2-x,1/2-y,1/2+z
1/2+x,1/2-y,1/2-z
1/2-x,1/2+y,1/2-z
1/2-x,1/2-y,1/2-z
1/2+x,1/2+y,1/2-z
1/2-x,1/2+y,1/2+z
1/2+x,1/2-y,1/2+z
loop_
_atom_site_type_symbol
_atom_site_label
_atom_site_fract_x
_atom_site_fract_y
_atom_site_fract_z
Si Si1 0.445026 0.172768 0.053278
Si Si2 0.056940 0.834816 0.716985
Si Si3 0.698314 0.334879 0.705634
Si Si4 0.441340 0.337322 0.500000
Si Si5 0.380487 0.826869 0.858966
Si Si6 0.292581 0.669964 0.185141
Si Si7 0.410636 0.665867 0.678803
Si Si8 0.057291 0.339493 0.089026
O O1 0.500000 0.231021 0.065668
O O2 0.405120 0.229215 0.091567
O O3 0.446264 0.000000 0.054861
O O4 0.429944 0.225951 0.000000
O O5 0.084374 0.721293 0.683707
O O6 0.066180 0.786521 0.771108
O O7 0.000000 0.827445 0.704707
O O8 0.077326 0.000000 0.709209
O O9 0.717973 0.500000 0.702076
O O10 0.688990 0.296187 0.761189
O O11 0.737301 0.229423 0.680413
O O12 0.647740 0.314180 0.678051
O O13 0.420063 0.500000 0.500000
O O14 0.500000 0.340100 0.500000
O O15 0.419823 0.257038 0.546650
O O16 0.327492 0.752088 0.852581
O O17 0.374154 0.000000 0.858035
O O18 0.293010 0.500000 0.173003
O O19 0.425283 0.500000 0.667214
O O20 0.433786 0.768882 0.639852
O O21 0.081301 0.500000 0.087743
O O22 0.000000 0.352735 0.079928
#
# Coordination Sequence:
#
# PCOD8289098 Si02
#       8
#    16  16  16   8  16  16  16  16
#     4   8  15  29  48  71 100 132 167 209 254 297
#     4  10  20  33  47  66  99 139 170 198 238 290
#     4   9  18  33  51  71  96 126 165 206 241 286
#     4   9  17  31  51  71  91 123 167 205 239 283
#     4  11  20  30  49  75 100 128 167 209 249 296
#     4  10  19  33  51  71  98 128 161 200 249 297
#     4  10  19  33  50  69  96 131 167 199 238 294
#     4  10  20  32  47  71 102 131 162 204 247 285
#
# _framework density 17.096872000000001
#
# number of rings (size 3 to 8) (size 9 to 14) (size 15 to 20)
#    0.000    2.333    1.333    2.600    0.000    4.533 
#    0.000    0.000    0.000    1.600    1.733    4.667 
#    0.000    0.000    0.000    0.000    0.000    0.000 
#
# Total GULP energy -743965.852460 kJ/mol
# GULP energy per Si atom -12399.430874 kJ/mol
# Density = 1.705796 g / cm^3
# Si number density = 17.096872 Si / 1000 Ang^3
#
#
#
# Elastic Constant Matrix: (Units=GPa)
#
#
# Indices 1 2 3 4 5 6 
#
# 1 52.0368 25.3333 20.5413 0.0000 0.0000 0.0000
# 2 25.3333 88.0561 42.4196 0.0000 0.0000 0.0000
# 3 20.5413 42.4196 85.6322 0.0000 0.0000 0.0000
# 4 0.0000 0.0000 0.0000 22.6781 0.0000 0.0000
# 5 0.0000 0.0000 0.0000 0.0000 19.2135 0.0000
# 6 0.0000 0.0000 0.0000 0.0000 0.0000 26.1835
#
#
#
# Elastic Compliance Matrix: (Units=1/GPa)
#
#
# Indices 1 2 3 4 5 6 
#
# 1 0.022893 -0.005176 -0.002928 0.000000 0.000000 0.000000
# 2 -0.005176 0.016086 -0.006727 0.000000 0.000000 0.000000
# 3 -0.002928 -0.006727 0.015712 0.000000 0.000000 0.000000
# 4 0.000000 0.000000 0.000000 0.044095 0.000000 0.000000
# 5 0.000000 0.000000 0.000000 0.000000 0.052047 0.000000
# 6 0.000000 0.000000 0.000000 0.000000 0.000000 0.038192
#
#
# Mechanical properties :
#
#
# Convention : Reuss Voigt Hill
#
# Bulk Modulus (GPa) = 39.95126 44.70149 42.32637
# Shear Modulus (GPa) = 22.02359 22.77708 22.40033
#
# Velocity S-wave (km/s) = 3.59300 3.65394 3.62360
# Velocity P-wave (km/s) = 6.37426 6.63359 6.50521
#
# Compressibility (1/GPa) = 0.02503050
#
# Stress axis : x y z
#
# Youngs Moduli (GPa) = 43.68235 62.16564 63.64381
#
# Poissons Ratio (x) = 0.32176 0.18632
# Poissons Ratio (y) = 0.22609 0.42813
# Poissons Ratio (z) = 0.12788 0.41819
#
# Static dielectric constant tensor:
#      x y z
#    x 3.106700 0.000000 0.000000 
#    y 0.000000 3.219900 0.000000 
#    z 0.000000 0.000000 3.188570 
# 
# 
# High freq. dielectric constant tensor:
#      x y z
#    x 1.642480 0.000000 0.000000 
#    y 0.000000 1.656730 0.000000 
#    z 0.000000 0.000000 1.645310 
# 
# From -- ./inp_files/67158.got.cif
#   From: 2010.06.25/outbox.cif.g09.slc.cpg/sg71_34_cif.got.tgz:67158.got - 2010.06.28 04:59:45.
