data_PCOD8289706
_publ_section_title
;
Structure prediction by ZEFSAII (Michael W. Deem and Ramdas Pophale) SiO2 
 PCOD8289706
Probable space group: I M M M
;
_chemical_formula_sum "Si O2"
_cell_formula_units_Z 96
_cell_length_a 12.048501
_cell_length_b 29.648521
_cell_length_c 14.739441
_cell_angle_alpha 90.000000
_cell_angle_beta 90.000000
_cell_angle_gamma 90.000000
_cell_volume 5265.226577
_symmetry_space_group_name_H-M "I M M M"
_symmetry_group_IT_number 71
_symmetry_cell_setting 'orthorhombic'
loop_
_space_group_symop_operation_xyz
x,y,z
-x,-y,z
x,-y,-z
-x,y,-z
-x,-y,-z
x,y,-z
-x,y,z
x,-y,z
1/2+x,1/2+y,1/2+z
1/2-x,1/2-y,1/2+z
1/2+x,1/2-y,1/2-z
1/2-x,1/2+y,1/2-z
1/2-x,1/2-y,1/2-z
1/2+x,1/2+y,1/2-z
1/2-x,1/2+y,1/2+z
1/2+x,1/2-y,1/2+z
loop_
_atom_site_type_symbol
_atom_site_label
_atom_site_fract_x
_atom_site_fract_y
_atom_site_fract_z
Si Si1 0.716115 0.450068 0.690348
Si Si2 0.122148 0.947179 0.000000
Si Si3 0.257473 0.356452 0.749400
Si Si4 0.500000 0.453141 0.189950
Si Si5 0.500000 0.263336 0.897172
Si Si6 0.500000 0.642792 0.179020
Si Si7 0.779215 0.718008 0.606366
Si Si8 0.371211 0.800688 0.605450
O O1 0.776044 0.500000 0.693218
O O2 0.692369 0.433534 0.588134
O O3 0.784505 0.408443 0.735265
O O4 0.602781 0.454428 0.743488
O O5 0.000000 0.923598 0.000000
O O6 0.102737 0.000000 0.000000
O O7 0.390430 0.353590 0.759487
O O8 0.230188 0.328376 0.659591
O O9 0.194215 0.338224 0.837681
O O10 0.500000 0.500000 0.130525
O O11 0.500000 0.407046 0.130238
O O12 0.500000 0.317579 0.894136
O O13 0.611268 0.242977 0.853250
O O14 0.500000 0.248222 0.000000
O O15 0.787641 0.706957 0.500000
O O16 0.675815 0.750921 0.626785
O O17 0.352396 0.812725 0.500000
O O18 0.500000 0.800979 0.632254
#
# Coordination Sequence:
#
# PCOD8289706 Si02
#       8
#    16   8  16   8   8   8  16  16
#     4   9  17  29  46  72 105 144 180 215 259 309
#     4   9  14  24  44  70 107 149 181 211 258 315
#     4  11  22  33  54  79 109 143 179 221 264 314
#     4   8  14  27  42  67 104 134 173 213 253 306
#     4  10  20  36  54  73 103 138 178 222 262 321
#     4  10  20  30  50  81 100 141 184 209 259 312
#     4  10  22  36  52  79 111 143 177 216 260 315
#     4  10  22  39  58  79 105 137 174 221 276 322
#
# _framework density 18.232834
#
# number of rings (size 3 to 8) (size 9 to 14) (size 15 to 20)
#    0.000    2.250    2.500    0.500    3.500    0.000 
#    0.000    0.000    0.000    1.250    0.000    5.833 
#    0.000    4.000    0.000    0.000    0.000    0.000 
#
# Total GULP energy -594685.425659 kJ/mol
# GULP energy per Si atom -12389.279701 kJ/mol
# Density = 1.819134 g / cm^3
# Si number density = 18.232834 Si / 1000 Ang^3
#
#
#
# Elastic Constant Matrix: (Units=GPa)
#
#
# Indices 1 2 3 4 5 6 
#
# 1 86.2315 48.1684 28.2522 0.0000 0.0000 0.0000
# 2 48.1684 164.4028 46.6022 -0.0002 0.0000 0.0001
# 3 28.2522 46.6022 55.3257 -0.0009 0.0001 0.0002
# 4 0.0000 -0.0002 -0.0009 22.9496 0.0002 0.0002
# 5 0.0000 0.0000 0.0001 0.0002 14.3393 0.0000
# 6 0.0000 0.0001 0.0002 0.0002 0.0000 9.8790
#
#
#
# Elastic Compliance Matrix: (Units=1/GPa)
#
#
# Indices 1 2 3 4 5 6 
#
# 1 0.014912 -0.002904 -0.005169 0.000000 0.000000 0.000000
# 2 -0.002904 0.008556 -0.005724 0.000000 0.000000 0.000000
# 3 -0.005169 -0.005724 0.025536 0.000001 0.000000 -0.000001
# 4 0.000000 0.000000 0.000001 0.043574 -0.000001 -0.000001
# 5 0.000000 0.000000 0.000000 -0.000001 0.069739 0.000000
# 6 0.000000 0.000000 -0.000001 -0.000001 0.000000 0.101225
#
#
# Mechanical properties :
#
#
# Convention : Reuss Voigt Hill
#
# Bulk Modulus (GPa) = 46.70651 61.33394 54.02022
# Shear Modulus (GPa) = 16.76324 21.62939 19.19631
#
# Velocity S-wave (km/s) = 3.03545 3.44799 3.24827
# Velocity P-wave (km/s) = 6.16097 7.04016 6.61519
#
# Compressibility (1/GPa) = 0.02141029
#
# Stress axis : x y z
#
# Youngs Moduli (GPa) = 67.05858 116.87704 39.16071
#
# Poissons Ratio (x) = 0.33941 0.20242
# Poissons Ratio (y) = 0.19474 0.22416
# Poissons Ratio (z) = 0.34662 0.66901
#
# Static dielectric constant tensor:
#      x y z
#    x 3.282030 0.000000 0.000000 
#    y 0.000000 3.822160 0.000000 
#    z 0.000000 0.000000 3.291700 
# 
# 
# High freq. dielectric constant tensor:
#      x y z
#    x 1.680610 0.000000 0.000000 
#    y 0.000000 1.712360 0.000000 
#    z 0.000000 0.000000 1.692110 
# 
# From -- ./inp_files/30011.got.cif
#   From: 2010.06.25/outbox.cif.g09.slc.cpg/sg71_16_cif.got.tgz:30011.got - 2010.06.28 04:59:45.
