data_PCOD8289215
_publ_section_title
;
Structure prediction by ZEFSAII (Michael W. Deem and Ramdas Pophale) SiO2 
 PCOD8289215
Probable space group: I M M M
;
_chemical_formula_sum "Si O2"
_cell_formula_units_Z 80
_cell_length_a 20.648559
_cell_length_b 23.234491
_cell_length_c 8.602983
_cell_angle_alpha 90.000000
_cell_angle_beta 90.000000
_cell_angle_gamma 90.000000
_cell_volume 4127.356441
_symmetry_space_group_name_H-M "I M M M"
_symmetry_group_IT_number 71
_symmetry_cell_setting 'orthorhombic'
loop_
_space_group_symop_operation_xyz
x,y,z
-x,-y,z
x,-y,-z
-x,y,-z
-x,-y,-z
x,y,-z
-x,y,z
x,-y,z
1/2+x,1/2+y,1/2+z
1/2-x,1/2-y,1/2+z
1/2+x,1/2-y,1/2-z
1/2-x,1/2+y,1/2-z
1/2-x,1/2-y,1/2-z
1/2+x,1/2+y,1/2-z
1/2-x,1/2+y,1/2+z
1/2+x,1/2-y,1/2+z
loop_
_atom_site_type_symbol
_atom_site_label
_atom_site_fract_x
_atom_site_fract_y
_atom_site_fract_z
Si Si1 0.500000 0.565896 0.315106
Si Si2 0.252770 0.436236 0.685274
Si Si3 0.872195 0.371944 0.315442
Si Si4 0.000000 0.434092 0.314359
Si Si5 0.822678 0.249685 0.683693
Si Si6 0.374470 0.364761 0.684659
O O1 0.500000 0.500000 0.250050
O O2 0.500000 0.562775 0.500000
O O3 0.437745 0.601337 0.254923
O O4 0.252432 0.436800 0.500000
O O5 0.259342 0.500000 0.753114
O O6 0.187218 0.408970 0.751556
O O7 0.313096 0.399960 0.746588
O O8 0.873246 0.375728 0.500000
O O9 0.937960 0.399589 0.248271
O O10 0.861654 0.306386 0.261435
O O11 0.000000 0.500000 0.253165
O O12 0.000000 0.434383 0.500000
O O13 0.815645 0.247556 0.500000
O O14 0.750000 0.250000 0.750000
O O15 0.868274 0.198347 0.742847
O O16 0.375491 0.358904 0.500000
#
# Coordination Sequence:
#
# PCOD8289215 Si02
#       6
#     8  16  16   8  16  16
#     4   9  18  33  55  83 111 141 182 231 276 320
#     4   9  15  25  45  71  97 129 172 217 257 299
#     4   9  17  28  44  70 101 133 167 206 255 308
#     4   9  16  27  44  70 105 133 156 201 260 310
#     4  11  21  35  54  77 107 141 178 222 268 316
#     4  10  19  33  53  79 108 139 178 222 268 318
#
# _framework density 19.382867999999998
#
# number of rings (size 3 to 8) (size 9 to 14) (size 15 to 20)
#    0.000    2.400    2.000    1.800    0.000    5.600 
#    0.000    1.500    0.000    3.000    0.000    0.000 
#    0.000    3.200    0.000    0.000    0.000    0.000 
#
# Total GULP energy -495877.657050 kJ/mol
# GULP energy per Si atom -12396.941426 kJ/mol
# Density = 1.933875 g / cm^3
# Si number density = 19.382868 Si / 1000 Ang^3
#
#
#
# Elastic Constant Matrix: (Units=GPa)
#
#
# Indices 1 2 3 4 5 6 
#
# 1 183.0188 96.6101 12.7327 0.0000 0.0000 0.0000
# 2 96.6101 196.8355 18.3852 0.0000 0.0000 0.0000
# 3 12.7327 18.3852 20.5601 0.0000 0.0000 0.0000
# 4 0.0000 0.0000 0.0000 24.9009 0.0000 0.0000
# 5 0.0000 0.0000 0.0000 0.0000 9.1230 0.0000
# 6 0.0000 0.0000 0.0000 0.0000 0.0000 45.0549
#
#
#
# Elastic Compliance Matrix: (Units=1/GPa)
#
#
# Indices 1 2 3 4 5 6 
#
# 1 0.007414 -0.003503 -0.001459 0.000000 0.000000 0.000000
# 2 -0.003503 0.007198 -0.004268 0.000000 0.000000 0.000000
# 3 -0.001459 -0.004268 0.053358 0.000000 0.000000 0.000000
# 4 0.000000 0.000000 0.000000 0.040159 0.000000 0.000000
# 5 0.000000 0.000000 0.000000 0.000000 0.109613 0.000000
# 6 0.000000 0.000000 0.000000 0.000000 0.000000 0.022195
#
#
# Mechanical properties :
#
#
# Convention : Reuss Voigt Hill
#
# Bulk Modulus (GPa) = 20.19751 72.87450 46.53601
# Shear Modulus (GPa) = 18.18837 33.99486 26.09162
#
# Velocity S-wave (km/s) = 3.06661 4.19246 3.67293
# Velocity P-wave (km/s) = 4.79393 7.81758 6.48445
#
# Compressibility (1/GPa) = 0.04951104
#
# Stress axis : x y z
#
# Youngs Moduli (GPa) = 134.87094 138.92287 18.74137
#
# Poissons Ratio (x) = 0.48662 0.02735
# Poissons Ratio (y) = 0.47243 0.07998
# Poissons Ratio (z) = 0.19683 0.59286
#
# Static dielectric constant tensor:
#      x y z
#    x 3.776840 0.000000 0.000000 
#    y 0.000000 3.851550 0.000000 
#    z 0.000000 0.000000 2.888780 
# 
# 
# High freq. dielectric constant tensor:
#      x y z
#    x 1.763740 0.000000 0.000000 
#    y 0.000000 1.775700 0.000000 
#    z 0.000000 0.000000 1.688000 
# 
# From -- ./inp_files/10295.got.cif
#   From: 2010.06.25/outbox.cif.g09.slc.cpg/sg71_6_cif.got.tgz:10295.got - 2010.06.28 04:59:45.
