data_PCOD8289377
_publ_section_title
;
Structure prediction by ZEFSAII (Michael W. Deem and Ramdas Pophale) SiO2 
 PCOD8289377
Probable space group: I M M M
;
_chemical_formula_sum "Si O2"
_cell_formula_units_Z 120
_cell_length_a 25.748407
_cell_length_b 8.902322
_cell_length_c 27.246378
_cell_angle_alpha 90.000000
_cell_angle_beta 90.000000
_cell_angle_gamma 90.000000
_cell_volume 6245.431388
_symmetry_space_group_name_H-M "I M M M"
_symmetry_group_IT_number 71
_symmetry_cell_setting 'orthorhombic'
loop_
_space_group_symop_operation_xyz
x,y,z
-x,-y,z
x,-y,-z
-x,y,-z
-x,-y,-z
x,y,-z
-x,y,z
x,-y,z
1/2+x,1/2+y,1/2+z
1/2-x,1/2-y,1/2+z
1/2+x,1/2-y,1/2-z
1/2-x,1/2+y,1/2-z
1/2-x,1/2-y,1/2-z
1/2+x,1/2+y,1/2-z
1/2-x,1/2+y,1/2+z
1/2+x,1/2-y,1/2+z
loop_
_atom_site_type_symbol
_atom_site_label
_atom_site_fract_x
_atom_site_fract_y
_atom_site_fract_z
Si Si1 0.586184 0.826226 0.944736
Si Si2 0.144131 0.678403 0.817975
Si Si3 0.743203 0.325255 0.153722
Si Si4 0.941335 0.319888 0.893750
Si Si5 0.806968 0.829454 0.554074
Si Si6 0.352819 0.823069 0.792892
Si Si7 0.561353 0.163641 0.500000
Si Si8 0.557476 0.329119 0.851871
O O1 0.646545 0.786458 0.938465
O O2 0.552826 0.724307 0.908196
O O3 0.578432 0.000000 0.931374
O O4 0.567230 0.792584 0.000000
O O5 0.143331 0.500000 0.821883
O O6 0.200087 0.741197 0.834775
O O7 0.098379 0.744007 0.852744
O O8 0.135589 0.732633 0.762293
O O9 0.740276 0.500000 0.166956
O O10 0.735161 0.295511 0.095808
O O11 0.700199 0.246083 0.186993
O O12 0.940008 0.500000 0.895820
O O13 0.000000 0.266296 0.880511
O O14 0.923970 0.255700 0.948018
O O15 0.781570 0.807421 0.500000
O O16 0.828332 0.000000 0.559650
O O17 0.402295 0.776579 0.824463
O O18 0.346286 0.000000 0.795147
O O19 0.500000 0.142290 0.500000
O O20 0.588441 0.000000 0.500000
O O21 0.500000 0.315363 0.828333
O O22 0.577573 0.500000 0.849597
#
# Coordination Sequence:
#
# PCOD8289377 Si02
#       8
#    16  16  16  16  16  16   8  16
#     4  10  20  34  55  82 110 140 175 218 266 319
#     4   9  19  32  47  74 104 135 178 223 265 314
#     4  10  19  34  54  75 106 141 176 218 266 321
#     4   8  13  24  42  65  98 136 170 206 251 304
#     4   9  17  30  50  75 105 143 180 214 263 323
#     4  11  22  36  55  76 102 138 182 225 269 319
#     4   7  10  18  36  62  92 132 171 197 236 301
#     4  11  24  40  57  78 105 139 179 224 275 326
#
# _framework density 19.214044999999999
#
# number of rings (size 3 to 8) (size 9 to 14) (size 15 to 20)
#    0.000    2.467    1.333    2.400    0.000    2.667 
#    1.200    3.333    0.000    0.000    0.000    0.000 
#    0.000    0.000    0.000    0.000    0.000   25.333 
#
# Total GULP energy -743628.884255 kJ/mol
# GULP energy per Si atom -12393.814738 kJ/mol
# Density = 1.917031 g / cm^3
# Si number density = 19.214045 Si / 1000 Ang^3
#
#
#
# Elastic Constant Matrix: (Units=GPa)
#
#
# Indices 1 2 3 4 5 6 
#
# 1 117.6919 20.0559 71.8567 0.0000 0.0000 0.0000
# 2 20.0559 35.0634 24.9556 0.0000 0.0000 0.0000
# 3 71.8567 24.9556 151.5334 0.0000 0.0000 0.0000
# 4 0.0000 0.0000 0.0000 16.3596 0.0000 0.0000
# 5 0.0000 0.0000 0.0000 0.0000 16.9811 0.0000
# 6 0.0000 0.0000 0.0000 0.0000 0.0000 6.5379
#
#
#
# Elastic Compliance Matrix: (Units=1/GPa)
#
#
# Indices 1 2 3 4 5 6 
#
# 1 0.012280 -0.003262 -0.005286 0.000000 0.000000 0.000000
# 2 -0.003262 0.033173 -0.003916 0.000000 0.000000 0.000000
# 3 -0.005286 -0.003916 0.009751 0.000000 0.000000 0.000000
# 4 0.000000 0.000000 0.000000 0.061126 0.000000 0.000000
# 5 0.000000 0.000000 0.000000 0.000000 0.058889 0.000000
# 6 0.000000 0.000000 0.000000 0.000000 0.000000 0.152954
#
#
# Mechanical properties :
#
#
# Convention : Reuss Voigt Hill
#
# Bulk Modulus (GPa) = 33.03027 59.78057 46.40542
# Shear Modulus (GPa) = 13.76680 20.47043 17.11861
#
# Velocity S-wave (km/s) = 2.67965 3.26757 2.98810
# Velocity P-wave (km/s) = 5.17707 6.73918 6.00910
#
# Compressibility (1/GPa) = 0.03027526
#
# Stress axis : x y z
#
# Youngs Moduli (GPa) = 81.43373 30.14510 102.55619
#
# Poissons Ratio (x) = 0.09833 0.54210
# Poissons Ratio (y) = 0.26562 0.40165
# Poissons Ratio (z) = 0.43045 0.11806
#
# Static dielectric constant tensor:
#      x y z
#    x 3.438980 0.000000 0.000000 
#    y 0.000000 3.158910 0.000000 
#    z 0.000000 0.000000 3.932290 
# 
# 
# High freq. dielectric constant tensor:
#      x y z
#    x 1.733920 0.000000 0.000000 
#    y 0.000000 1.707310 0.000000 
#    z 0.000000 0.000000 1.763300 
# 
# From -- ./inp_files/67178.got.cif
#   From: 2010.06.25/outbox.cif.g09.slc.cpg/sg71_34_cif.got.tgz:67178.got - 2010.06.28 04:59:45.
