data_PCOD8289761
_publ_section_title
;
Structure prediction by ZEFSAII (Michael W. Deem and Ramdas Pophale) SiO2 
 PCOD8289761
Probable space group: I M M M
;
_chemical_formula_sum "Si O2"
_cell_formula_units_Z 88
_cell_length_a 9.798923
_cell_length_b 15.118447
_cell_length_c 33.753325
_cell_angle_alpha 90.000000
_cell_angle_beta 90.000000
_cell_angle_gamma 90.000000
_cell_volume 5000.369389
_symmetry_space_group_name_H-M "I M M M"
_symmetry_group_IT_number 71
_symmetry_cell_setting 'orthorhombic'
loop_
_space_group_symop_operation_xyz
x,y,z
-x,-y,z
x,-y,-z
-x,y,-z
-x,-y,-z
x,y,-z
-x,y,z
x,-y,z
1/2+x,1/2+y,1/2+z
1/2-x,1/2-y,1/2+z
1/2+x,1/2-y,1/2-z
1/2-x,1/2+y,1/2-z
1/2-x,1/2-y,1/2-z
1/2+x,1/2+y,1/2-z
1/2-x,1/2+y,1/2+z
1/2+x,1/2-y,1/2+z
loop_
_atom_site_type_symbol
_atom_site_label
_atom_site_fract_x
_atom_site_fract_y
_atom_site_fract_z
Si Si1 0.341932 0.308026 0.953186
Si Si2 0.843718 0.102027 0.174859
Si Si3 0.841070 0.753826 0.111464
Si Si4 0.339402 0.500000 0.042971
Si Si5 0.337674 0.098381 0.668307
Si Si6 0.348572 0.895238 0.244153
O O1 0.500000 0.287381 0.944191
O O2 0.246406 0.240606 0.928995
O O3 0.299639 0.406762 0.936711
O O4 0.313192 0.299058 0.000000
O O5 0.812710 0.155992 0.135015
O O6 0.753220 0.141421 0.210609
O O7 0.000000 0.115054 0.187949
O O8 0.810000 0.000000 0.165652
O O9 0.786324 0.670656 0.137063
O O10 0.000000 0.743296 0.100713
O O11 0.500000 0.500000 0.036448
O O12 0.268224 0.500000 0.000000
O O13 0.500000 0.094586 0.668988
O O14 0.289978 0.128812 0.712283
O O15 0.280262 0.000000 0.657563
O O16 0.500000 0.854794 0.237402
O O17 0.356899 0.000000 0.240899
#
# Coordination Sequence:
#
# PCOD8289761 Si02
#       6
#    16  16  16   8  16  16
#     4   9  18  33  51  70  95 125 153 184 226 275
#     4   9  18  32  47  65  93 124 155 197 242 276
#     4  10  20  31  47  71  94 122 158 193 233 277
#     4   7  12  26  47  67  89 121 151 171 207 267
#     4   8  15  28  44  65  96 126 150 185 232 276
#     4   8  14  27  47  66  86 120 161 193 226 273
#
# _framework density 17.598700000000001
#
# number of rings (size 3 to 8) (size 9 to 14) (size 15 to 20)
#    0.000    3.364    0.000    2.182    1.273    1.818 
#    0.000    0.909    0.000    3.273    0.000    3.818 
#    0.000    0.000    0.000    0.000    0.000    0.000 
#
# Total GULP energy -545165.406937 kJ/mol
# GULP energy per Si atom -12390.122885 kJ/mol
# Density = 1.755864 g / cm^3
# Si number density = 17.598700 Si / 1000 Ang^3
#
#
#
# Elastic Constant Matrix: (Units=GPa)
#
#
# Indices 1 2 3 4 5 6 
#
# 1 59.8463 27.0455 54.2117 0.0000 0.0000 0.0000
# 2 27.0455 56.3828 38.0187 0.0000 0.0000 0.0000
# 3 54.2117 38.0187 97.9870 0.0000 0.0000 0.0000
# 4 0.0000 0.0000 0.0000 21.2728 0.0000 0.0000
# 5 0.0000 0.0000 0.0000 0.0000 27.9035 0.0000
# 6 0.0000 0.0000 0.0000 0.0000 0.0000 16.4122
#
#
#
# Elastic Compliance Matrix: (Units=1/GPa)
#
#
# Indices 1 2 3 4 5 6 
#
# 1 0.034500 -0.004982 -0.017154 0.000000 0.000000 0.000000
# 2 -0.004982 0.024740 -0.006843 0.000000 0.000000 0.000000
# 3 -0.017154 -0.006843 0.022351 0.000000 0.000000 0.000000
# 4 0.000000 0.000000 0.000000 0.047008 0.000000 0.000000
# 5 0.000000 0.000000 0.000000 0.000000 0.035838 0.000000
# 6 0.000000 0.000000 0.000000 0.000000 0.000000 0.060930
#
#
# Mechanical properties :
#
#
# Convention : Reuss Voigt Hill
#
# Bulk Modulus (GPa) = 42.31364 50.30754 46.31059
# Shear Modulus (GPa) = 17.17017 19.44704 18.30861
#
# Velocity S-wave (km/s) = 3.12693 3.32780 3.22893
# Velocity P-wave (km/s) = 6.09366 6.58891 6.34612
#
# Compressibility (1/GPa) = 0.02363304
#
# Stress axis : x y z
#
# Youngs Moduli (GPa) = 28.98542 40.42117 44.74047
#
# Poissons Ratio (x) = 0.20137 0.76750
# Poissons Ratio (y) = 0.14440 0.30614
# Poissons Ratio (z) = 0.49723 0.27659
#
# Static dielectric constant tensor:
#      x y z
#    x 3.101620 0.000000 0.000000 
#    y 0.000000 3.270550 0.000000 
#    z 0.000000 0.000000 3.196960 
# 
# 
# High freq. dielectric constant tensor:
#      x y z
#    x 1.654220 0.000000 0.000000 
#    y 0.000000 1.662270 0.000000 
#    z 0.000000 0.000000 1.670690 
# 
# From -- ./inp_files/58741.got.cif
#   From: 2010.06.25/outbox.cif.g09.slc.cpg/sg71_30_cif.got.tgz:58741.got - 2010.06.28 04:59:45.
