data_PCOD8289114
_publ_section_title
;
Structure prediction by ZEFSAII (Michael W. Deem and Ramdas Pophale) SiO2 
 PCOD8289114
Probable space group: I M M M
;
_chemical_formula_sum "Si O2"
_cell_formula_units_Z 104
_cell_length_a 29.273421
_cell_length_b 22.672977
_cell_length_c 9.364070
_cell_angle_alpha 90.000000
_cell_angle_beta 90.000000
_cell_angle_gamma 90.000000
_cell_volume 6215.079348
_symmetry_space_group_name_H-M "I M M M"
_symmetry_group_IT_number 71
_symmetry_cell_setting 'orthorhombic'
loop_
_space_group_symop_operation_xyz
x,y,z
-x,-y,z
x,-y,-z
-x,y,-z
-x,-y,-z
x,y,-z
-x,y,z
x,-y,z
1/2+x,1/2+y,1/2+z
1/2-x,1/2-y,1/2+z
1/2+x,1/2-y,1/2-z
1/2-x,1/2+y,1/2-z
1/2-x,1/2-y,1/2-z
1/2+x,1/2+y,1/2-z
1/2-x,1/2+y,1/2+z
1/2+x,1/2-y,1/2+z
loop_
_atom_site_type_symbol
_atom_site_label
_atom_site_fract_x
_atom_site_fract_y
_atom_site_fract_z
Si Si1 0.553825 0.000000 0.166036
Si Si2 0.448115 0.339283 0.166442
Si Si3 0.400230 0.894952 0.333890
Si Si4 0.785554 0.070180 0.161408
Si Si5 0.127106 0.067748 0.666039
Si Si6 0.699734 0.068249 0.663233
Si Si7 0.552491 0.774733 0.334704
O O1 0.574059 0.942112 0.238156
O O2 0.500000 0.000000 0.189013
O O3 0.567284 0.000000 0.000000
O O4 0.500000 0.354284 0.212209
O O5 0.417435 0.395152 0.209209
O O6 0.429860 0.281611 0.247438
O O7 0.444738 0.325433 0.000000
O O8 0.410744 0.908880 0.500000
O O9 0.346186 0.895790 0.303981
O O10 0.417596 0.830655 0.288821
O O11 0.830178 0.092875 0.244637
O O12 0.739887 0.094267 0.237702
O O13 0.784665 0.000000 0.166925
O O14 0.786920 0.094157 0.000000
O O15 0.139401 0.074599 0.500000
O O16 0.116409 0.000000 0.704857
O O17 0.715486 0.075955 0.500000
O O18 0.689484 0.000000 0.697395
O O19 0.558922 0.759807 0.500000
O O20 0.500000 0.789053 0.297568
#
# Coordination Sequence:
#
# PCOD8289114 Si02
#       7
#     8  16  16  16  16  16  16
#     4  11  23  33  43  67 101 131 159 201 256 299
#     4   9  18  32  50  72  98 127 158 194 236 282
#     4  10  19  33  51  70  92 125 167 206 243 289
#     4   9  17  28  44  68  97 127 155 188 234 286
#     4   9  17  30  49  73  99 127 158 191 231 281
#     4   9  16  28  46  68  93 121 156 197 241 286
#     4   9  18  32  50  70  92 124 165 202 236 281
#
# _framework density 16.733495000000001
#
# number of rings (size 3 to 8) (size 9 to 14) (size 15 to 20)
#    0.000    2.692    0.769    1.154    0.000    5.231 
#    0.000    3.077    0.000    0.923    0.000    4.308 
#    0.000    0.000    0.000    0.000    0.000    0.000 
#
# Total GULP energy -644862.937221 kJ/mol
# GULP energy per Si atom -12401.210331 kJ/mol
# Density = 1.669541 g / cm^3
# Si number density = 16.733495 Si / 1000 Ang^3
#
#
#
# Elastic Constant Matrix: (Units=GPa)
#
#
# Indices 1 2 3 4 5 6 
#
# 1 119.5733 67.8355 63.5125 0.0000 0.0000 0.0000
# 2 67.8355 93.2189 50.9460 0.0000 0.0000 0.0000
# 3 63.5125 50.9460 82.1088 0.0000 0.0000 0.0000
# 4 0.0000 0.0000 0.0000 24.3625 0.0000 0.0000
# 5 0.0000 0.0000 0.0000 0.0000 24.4780 0.0000
# 6 0.0000 0.0000 0.0000 0.0000 0.0000 4.2490
#
#
#
# Elastic Compliance Matrix: (Units=1/GPa)
#
#
# Indices 1 2 3 4 5 6 
#
# 1 0.017444 -0.008049 -0.008499 0.000000 0.000000 0.000000
# 2 -0.008049 0.019946 -0.006150 0.000000 0.000000 0.000000
# 3 -0.008499 -0.006150 0.022568 0.000000 0.000000 0.000000
# 4 0.000000 0.000000 0.000000 0.041047 0.000000 0.000000
# 5 0.000000 0.000000 0.000000 0.000000 0.040853 0.000000
# 6 0.000000 0.000000 0.000000 0.000000 0.000000 0.235348
#
#
# Mechanical properties :
#
#
# Convention : Reuss Voigt Hill
#
# Bulk Modulus (GPa) = 68.66711 73.27657 70.97184
# Shear Modulus (GPa) = 11.69716 18.12504 14.91110
#
# Velocity S-wave (km/s) = 2.64678 3.29471 2.98836
# Velocity P-wave (km/s) = 7.10390 7.63930 7.37646
#
# Compressibility (1/GPa) = 0.01456301
#
# Stress axis : x y z
#
# Youngs Moduli (GPa) = 57.32786 50.13645 44.30955
#
# Poissons Ratio (x) = 0.40355 0.37657
# Poissons Ratio (y) = 0.46143 0.27249
# Poissons Ratio (z) = 0.48721 0.30832
#
# Static dielectric constant tensor:
#      x y z
#    x 3.238340 0.000000 0.000000 
#    y 0.000000 2.926300 0.000000 
#    z 0.000000 0.000000 3.195480 
# 
# 
# High freq. dielectric constant tensor:
#      x y z
#    x 1.649420 0.000000 0.000000 
#    y 0.000000 1.613900 0.000000 
#    z 0.000000 0.000000 1.645950 
# 
# From -- ./inp_files/15248.got.cif
#   From: 2010.06.25/outbox.cif.g09.slc.cpg/sg71_8_cif.got.tgz:15248.got - 2010.06.28 04:59:45.
