data_PCOD8289442
_publ_section_title
;
Structure prediction by ZEFSAII (Michael W. Deem and Ramdas Pophale) SiO2 
 PCOD8289442
Probable space group: I M M M
;
_chemical_formula_sum "Si O2"
_cell_formula_units_Z 120
_cell_length_a 12.839584
_cell_length_b 18.984533
_cell_length_c 25.462493
_cell_angle_alpha 90.000000
_cell_angle_beta 90.000000
_cell_angle_gamma 90.000000
_cell_volume 6206.571944
_symmetry_space_group_name_H-M "I M M M"
_symmetry_group_IT_number 71
_symmetry_cell_setting 'orthorhombic'
loop_
_space_group_symop_operation_xyz
x,y,z
-x,-y,z
x,-y,-z
-x,y,-z
-x,-y,-z
x,y,-z
-x,y,z
x,-y,z
1/2+x,1/2+y,1/2+z
1/2-x,1/2-y,1/2+z
1/2+x,1/2-y,1/2-z
1/2-x,1/2+y,1/2-z
1/2-x,1/2-y,1/2-z
1/2+x,1/2+y,1/2-z
1/2-x,1/2+y,1/2+z
1/2+x,1/2-y,1/2+z
loop_
_atom_site_type_symbol
_atom_site_label
_atom_site_fract_x
_atom_site_fract_y
_atom_site_fract_z
Si Si1 0.886280 0.582131 0.662449
Si Si2 0.623679 0.692902 0.194082
Si Si3 0.298093 0.416292 0.889627
Si Si4 0.778130 0.181976 0.807077
Si Si5 0.121712 0.077943 0.500000
Si Si6 0.716619 0.079289 0.943103
Si Si7 0.878901 0.346059 0.940205
Si Si8 0.380436 0.688333 0.414141
O O1 0.885737 0.500000 0.672582
O O2 0.795285 0.613546 0.698548
O O3 0.865229 0.601850 0.601481
O O4 0.000000 0.613184 0.677177
O O5 0.500000 0.709370 0.189587
O O6 0.649414 0.623466 0.159615
O O7 0.697312 0.756504 0.175648
O O8 0.655232 0.685258 0.254654
O O9 0.315172 0.500000 0.881323
O O10 0.345348 0.385996 0.944872
O O11 0.176643 0.396001 0.896726
O O12 0.864013 0.177351 0.852145
O O13 0.000000 0.073731 0.500000
O O14 0.172062 0.000000 0.500000
O O15 0.815526 0.130257 0.945132
O O16 0.756804 0.000000 0.931718
O O17 0.660714 0.083343 0.000000
O O18 0.843931 0.265494 0.932407
O O19 0.000000 0.354786 0.928488
O O20 0.851583 0.369753 0.000000
O O21 0.500000 0.676438 0.428578
#
# Coordination Sequence:
#
# PCOD8289442 Si02
#       8
#    16  16  16  16   8  16  16  16
#     4   9  18  34  56  80 108 144 183 224 272 323
#     4  11  23  39  60  85 111 144 183 228 281 333
#     4  11  22  38  58  84 116 148 187 236 287 343
#     4  10  21  38  59  83 110 144 183 231 274 331
#     4   9  18  34  57  81 109 149 187 222 276 342
#     4   9  18  31  49  78 114 149 188 233 278 327
#     4  10  20  35  57  84 115 153 193 235 285 337
#     4  10  19  34  56  80 110 150 192 232 279 335
#
# _framework density 19.334344999999999
#
# number of rings (size 3 to 8) (size 9 to 14) (size 15 to 20)
#    0.000    2.067    2.000    1.600    0.000    2.933 
#    0.000    3.333    0.000    2.400    0.000    0.000 
#    0.000    0.000    0.000    0.000    0.000    0.000 
#
# Total GULP energy -743535.014077 kJ/mol
# GULP energy per Si atom -12392.250235 kJ/mol
# Density = 1.929034 g / cm^3
# Si number density = 19.334345 Si / 1000 Ang^3
#
#
#
# Elastic Constant Matrix: (Units=GPa)
#
#
# Indices 1 2 3 4 5 6 
#
# 1 61.2360 21.7898 6.6343 0.0000 0.0000 0.0000
# 2 21.7898 62.1750 15.2704 0.0000 0.0000 0.0000
# 3 6.6343 15.2704 49.6137 0.0000 0.0000 0.0000
# 4 0.0000 0.0000 0.0000 27.6383 0.0000 0.0000
# 5 0.0000 0.0000 0.0000 0.0000 19.7472 0.0000
# 6 0.0000 0.0000 0.0000 0.0000 0.0000 26.2764
#
#
#
# Elastic Compliance Matrix: (Units=1/GPa)
#
#
# Indices 1 2 3 4 5 6 
#
# 1 0.018669 -0.006415 -0.000522 0.000000 0.000000 0.000000
# 2 -0.006415 0.019603 -0.005176 0.000000 0.000000 0.000000
# 3 -0.000522 -0.005176 0.021819 0.000000 0.000000 0.000000
# 4 0.000000 0.000000 0.000000 0.036182 0.000000 0.000000
# 5 0.000000 0.000000 0.000000 0.000000 0.050640 0.000000
# 6 0.000000 0.000000 0.000000 0.000000 0.000000 0.038057
#
#
# Mechanical properties :
#
#
# Convention : Reuss Voigt Hill
#
# Bulk Modulus (GPa) = 27.88169 28.93487 28.40828
# Shear Modulus (GPa) = 22.60910 23.35438 22.98174
#
# Velocity S-wave (km/s) = 3.42332 3.47929 3.45142
# Velocity P-wave (km/s) = 5.48431 5.58020 5.53246
#
# Compressibility (1/GPa) = 0.03586583
#
# Stress axis : x y z
#
# Youngs Moduli (GPa) = 53.56366 51.01295 45.83256
#
# Poissons Ratio (x) = 0.32723 0.02393
# Poissons Ratio (y) = 0.34359 0.23722
# Poissons Ratio (z) = 0.02797 0.26403
#
# Static dielectric constant tensor:
#      x y z
#    x 3.540970 0.000000 0.000000 
#    y 0.000000 3.590400 0.000000 
#    z 0.000000 0.000000 3.486450 
# 
# 
# High freq. dielectric constant tensor:
#      x y z
#    x 1.752760 0.000000 0.000000 
#    y 0.000000 1.745490 0.000000 
#    z 0.000000 0.000000 1.751120 
# 
# From -- ./inp_files/59087.got.cif
#   From: 2010.06.25/outbox.cif.g09.slc.cpg/sg71_30_cif.got.tgz:59087.got - 2010.06.28 04:59:45.
