data_PCOD8289429
_publ_section_title
;
Structure prediction by ZEFSAII (Michael W. Deem and Ramdas Pophale) SiO2 
 PCOD8289429
Probable space group: I M M M
;
_chemical_formula_sum "Si O2"
_cell_formula_units_Z 88
_cell_length_a 29.313303
_cell_length_b 17.431916
_cell_length_c 9.277338
_cell_angle_alpha 90.000000
_cell_angle_beta 90.000000
_cell_angle_gamma 90.000000
_cell_volume 4740.599443
_symmetry_space_group_name_H-M "I M M M"
_symmetry_group_IT_number 71
_symmetry_cell_setting 'orthorhombic'
loop_
_space_group_symop_operation_xyz
x,y,z
-x,-y,z
x,-y,-z
-x,y,-z
-x,-y,-z
x,y,-z
-x,y,z
x,-y,z
1/2+x,1/2+y,1/2+z
1/2-x,1/2-y,1/2+z
1/2+x,1/2-y,1/2-z
1/2-x,1/2+y,1/2-z
1/2-x,1/2-y,1/2-z
1/2+x,1/2+y,1/2-z
1/2-x,1/2+y,1/2+z
1/2+x,1/2-y,1/2+z
loop_
_atom_site_type_symbol
_atom_site_label
_atom_site_fract_x
_atom_site_fract_y
_atom_site_fract_z
Si Si1 0.500000 0.912046 0.671907
Si Si2 0.827784 0.000000 0.163859
Si Si3 0.313996 0.806936 0.669371
Si Si4 0.918722 0.000000 0.670902
Si Si5 0.230328 0.851328 0.164958
Si Si6 0.552254 0.646375 0.339694
Si Si7 0.083858 0.691119 0.171354
O O1 0.500000 0.911671 0.500000
O O2 0.454321 0.868604 0.730713
O O3 0.500000 0.000000 0.729089
O O4 0.798016 0.073584 0.194767
O O5 0.866739 0.000000 0.281957
O O6 0.846906 0.000000 0.000000
O O7 0.310366 0.819278 0.500000
O O8 0.276889 0.860709 0.745282
O O9 0.301560 0.719602 0.713752
O O10 0.364900 0.830747 0.722326
O O11 0.942693 0.075385 0.732976
O O12 0.923571 0.000000 0.500000
O O13 0.244829 0.841894 0.000000
O O14 0.572211 0.626290 0.500000
O O15 0.500000 0.668238 0.356049
O O16 0.575970 0.721962 0.273185
O O17 0.080435 0.692469 0.000000
#
# Coordination Sequence:
#
# PCOD8289429 Si02
#       7
#     8   8  16   8  16  16  16
#     4   9  16  28  48  77 111 136 164 219 277 311
#     4  10  20  37  57  74  98 136 179 218 253 305
#     4   9  17  30  50  75 104 133 164 207 257 308
#     4  12  25  35  48  77 114 142 169 217 274 319
#     4   9  18  33  52  73  98 131 171 213 252 298
#     4  10  19  34  56  76 101 143 191 224 250 301
#     4   9  16  30  51  77 105 138 179 219 260 310
#
# _framework density 18.563054000000001
#
# number of rings (size 3 to 8) (size 9 to 14) (size 15 to 20)
#    0.000    2.455    0.909    2.182    0.000    5.091 
#    1.636    4.545    0.000    0.000    0.000    0.000 
#    0.000    2.909    0.000    0.000    0.000    0.000 
#
# Total GULP energy -545427.177807 kJ/mol
# GULP energy per Si atom -12396.072223 kJ/mol
# Density = 1.852080 g / cm^3
# Si number density = 18.563054 Si / 1000 Ang^3
#
#
#
# Elastic Constant Matrix: (Units=GPa)
#
#
# Indices 1 2 3 4 5 6 
#
# 1 132.7007 29.6592 25.3958 0.0000 0.0000 0.0000
# 2 29.6592 71.4524 18.0486 0.0000 0.0000 0.0000
# 3 25.3958 18.0486 46.9229 0.0000 0.0000 0.0000
# 4 0.0000 0.0000 0.0000 12.0362 0.0000 0.0000
# 5 0.0000 0.0000 0.0000 0.0000 24.7568 0.0000
# 6 0.0000 0.0000 0.0000 0.0000 0.0000 -6.8791
#
#
#
# Elastic Compliance Matrix: (Units=1/GPa)
#
#
# Indices 1 2 3 4 5 6 
#
# 1 0.008863 -0.002733 -0.003746 0.000000 0.000000 0.000000
# 2 -0.002733 0.016344 -0.004808 0.000000 0.000000 0.000000
# 3 -0.003746 -0.004808 0.025188 0.000000 0.000000 0.000000
# 4 0.000000 0.000000 0.000000 0.083082 0.000000 0.000000
# 5 0.000000 0.000000 0.000000 0.000000 0.040393 0.000000
# 6 0.000000 0.000000 0.000000 0.000000 0.000000 -0.145368
#
#
# Mechanical properties :
#
#
# Convention : Reuss Voigt Hill
#
# Bulk Modulus (GPa) = 35.94159 44.14258 40.04209
# Shear Modulus (GPa) = 82.84961 17.84761 50.34861
#
# Velocity S-wave (km/s) = 6.68793 3.10410 5.21363
# Velocity P-wave (km/s) = 8.89054 6.05630 7.60659
#
# Compressibility (1/GPa) = 0.02782292
#
# Stress axis : x y z
#
# Youngs Moduli (GPa) = 112.82283 61.18405 39.70128
#
# Poissons Ratio (x) = 0.16721 0.14872
# Poissons Ratio (y) = 0.30834 0.19087
# Poissons Ratio (z) = 0.42262 0.29415
#
# Static dielectric constant tensor:
#      x y z
#    x 3.597850 0.000000 0.000000 
#    y 0.000000 3.398460 0.000000 
#    z 0.000000 0.000000 3.036760 
# 
# 
# High freq. dielectric constant tensor:
#      x y z
#    x 1.733780 0.000000 0.000000 
#    y 0.000000 1.716440 0.000000 
#    z 0.000000 0.000000 1.673970 
# 
# From -- ./inp_files/16741.got.cif
#   From: 2010.06.25/outbox.cif.g09.slc.cpg/sg71_9_cif.got.tgz:16741.got - 2010.06.28 04:59:45.
