data_PCOD8289924
_publ_section_title
;
Structure prediction by ZEFSAII (Michael W. Deem and Ramdas Pophale) SiO2 
 PCOD8289924
Probable space group: I M M M
;
_chemical_formula_sum "Si O2"
_cell_formula_units_Z 88
_cell_length_a 30.473260
_cell_length_b 8.969561
_cell_length_c 18.061213
_cell_angle_alpha 90.000000
_cell_angle_beta 90.000000
_cell_angle_gamma 90.000000
_cell_volume 4936.703217
_symmetry_space_group_name_H-M "I M M M"
_symmetry_group_IT_number 71
_symmetry_cell_setting 'orthorhombic'
loop_
_space_group_symop_operation_xyz
x,y,z
-x,-y,z
x,-y,-z
-x,y,-z
-x,-y,-z
x,y,-z
-x,y,z
x,-y,z
1/2+x,1/2+y,1/2+z
1/2-x,1/2-y,1/2+z
1/2+x,1/2-y,1/2-z
1/2-x,1/2+y,1/2-z
1/2-x,1/2-y,1/2-z
1/2+x,1/2+y,1/2-z
1/2-x,1/2+y,1/2+z
1/2+x,1/2-y,1/2+z
loop_
_atom_site_type_symbol
_atom_site_label
_atom_site_fract_x
_atom_site_fract_y
_atom_site_fract_z
Si Si1 0.119476 0.675330 0.278397
Si Si2 0.950624 0.321685 0.840099
Si Si3 0.788771 0.674997 0.795199
Si Si4 0.447947 0.163202 0.500000
Si Si5 0.652336 0.675076 0.915735
Si Si6 0.244324 0.667854 0.585180
O O1 0.114846 0.500000 0.292484
O O2 0.080751 0.736446 0.225444
O O3 0.164658 0.718047 0.238561
O O4 0.116892 0.757857 0.358048
O O5 0.948753 0.500000 0.844972
O O6 0.935084 0.257127 0.921468
O O7 0.000000 0.267802 0.821672
O O8 0.781923 0.500000 0.799167
O O9 0.750000 0.750000 0.750000
O O10 0.784704 0.745145 0.877049
O O11 0.500000 0.145116 0.500000
O O12 0.425725 0.000000 0.500000
O O13 0.657184 0.500000 0.903400
O O14 0.698763 0.750214 0.898104
O O15 0.637320 0.711342 0.000000
O O16 0.256203 0.665905 0.500000
O O17 0.239545 0.500000 0.616824
#
# Coordination Sequence:
#
# PCOD8289924 Si02
#       6
#    16  16  16   8  16  16
#     4  10  20  32  49  76 102 129 165 205 251 298
#     4   8  14  27  48  74 102 129 161 203 248 292
#     4  11  21  32  47  70 102 136 168 203 245 294
#     4   7  10  20  42  70  99 129 157 191 239 287
#     4  10  20  33  51  73  95 126 168 209 250 299
#     4  10  20  34  51  69  93 129 171 211 250 293
#
# _framework density 17.825661
#
# number of rings (size 3 to 8) (size 9 to 14) (size 15 to 20)
#    0.000    2.455    1.818    2.727    0.000    2.909 
#    1.636    0.000    0.000    1.091    0.000    3.818 
#    0.000    2.182    0.000    0.000    0.000    0.000 
#
# Total GULP energy -545283.612577 kJ/mol
# GULP energy per Si atom -12392.809377 kJ/mol
# Density = 1.778509 g / cm^3
# Si number density = 17.825661 Si / 1000 Ang^3
#
#
#
# Elastic Constant Matrix: (Units=GPa)
#
#
# Indices 1 2 3 4 5 6 
#
# 1 82.8123 35.1354 65.6867 0.0000 0.0000 0.0000
# 2 35.1354 59.3547 50.3740 0.0000 0.0000 0.0000
# 3 65.6867 50.3740 148.7852 0.0000 0.0000 0.0000
# 4 0.0000 0.0000 0.0000 29.5192 0.0000 0.0000
# 5 0.0000 0.0000 0.0000 0.0000 33.2797 0.0000
# 6 0.0000 0.0000 0.0000 0.0000 0.0000 13.3637
#
#
#
# Elastic Compliance Matrix: (Units=1/GPa)
#
#
# Indices 1 2 3 4 5 6 
#
# 1 0.020048 -0.006112 -0.006782 0.000000 0.000000 0.000000
# 2 -0.006112 0.025504 -0.005937 0.000000 0.000000 0.000000
# 3 -0.006782 -0.005937 0.011725 0.000000 0.000000 0.000000
# 4 0.000000 0.000000 0.000000 0.033876 0.000000 0.000000
# 5 0.000000 0.000000 0.000000 0.000000 0.030048 0.000000
# 6 0.000000 0.000000 0.000000 0.000000 0.000000 0.074830
#
#
# Mechanical properties :
#
#
# Convention : Reuss Voigt Hill
#
# Bulk Modulus (GPa) = 50.97655 65.92717 58.45186
# Shear Modulus (GPa) = 20.81333 24.54956 22.68145
#
# Velocity S-wave (km/s) = 3.42073 3.71510 3.57095
# Velocity P-wave (km/s) = 6.65291 7.44764 7.06146
#
# Compressibility (1/GPa) = 0.01961686
#
# Stress axis : x y z
#
# Youngs Moduli (GPa) = 49.88078 39.20914 85.28799
#
# Poissons Ratio (x) = 0.23965 0.57838
# Poissons Ratio (y) = 0.30487 0.50632
# Poissons Ratio (z) = 0.33827 0.23277
#
# Static dielectric constant tensor:
#      x y z
#    x 3.118800 0.000000 0.000000 
#    y 0.000000 3.221000 0.000000 
#    z 0.000000 0.000000 3.762220 
# 
# 
# High freq. dielectric constant tensor:
#      x y z
#    x 1.649250 0.000000 0.000000 
#    y 0.000000 1.666810 0.000000 
#    z 0.000000 0.000000 1.712160 
# 
# From -- ./inp_files/10901.got.cif
#   From: 2010.06.25/outbox.cif.g09.slc.cpg/sg71_6_cif.got.tgz:10901.got - 2010.06.28 04:59:45.
