data_PCOD8289616
_publ_section_title
;
Structure prediction by ZEFSAII (Michael W. Deem and Ramdas Pophale) SiO2 
 PCOD8289616
Probable space group: I M M M
;
_chemical_formula_sum "Si O2"
_cell_formula_units_Z 68
_cell_length_a 13.382376
_cell_length_b 23.505186
_cell_length_c 11.499119
_cell_angle_alpha 90.000000
_cell_angle_beta 90.000000
_cell_angle_gamma 90.000000
_cell_volume 3617.108102
_symmetry_space_group_name_H-M "I M M M"
_symmetry_group_IT_number 71
_symmetry_cell_setting 'orthorhombic'
loop_
_space_group_symop_operation_xyz
x,y,z
-x,-y,z
x,-y,-z
-x,y,-z
-x,-y,-z
x,y,-z
-x,y,z
x,-y,z
1/2+x,1/2+y,1/2+z
1/2-x,1/2-y,1/2+z
1/2+x,1/2-y,1/2-z
1/2-x,1/2+y,1/2-z
1/2-x,1/2-y,1/2-z
1/2+x,1/2+y,1/2-z
1/2-x,1/2+y,1/2+z
1/2+x,1/2-y,1/2+z
loop_
_atom_site_type_symbol
_atom_site_label
_atom_site_fract_x
_atom_site_fract_y
_atom_site_fract_z
Si Si1 0.881106 0.500000 0.742063
Si Si2 0.617701 0.771886 0.629782
Si Si3 0.292510 0.889476 0.636461
Si Si4 0.890985 0.093708 0.000000
Si Si5 0.887734 0.841057 0.761732
Si Si6 0.775895 0.500000 0.500000
O O1 0.836439 0.555631 0.801674
O O2 0.849511 0.500000 0.608621
O O3 0.000000 0.500000 0.754215
O O4 0.665024 0.763920 0.500000
O O5 0.500000 0.765707 0.619616
O O6 0.644472 0.834470 0.676981
O O7 0.654164 0.723583 0.721558
O O8 0.298574 0.900469 0.500000
O O9 0.178164 0.877959 0.673081
O O10 0.884020 0.133088 0.888980
O O11 0.796520 0.053383 0.000000
O O12 0.000000 0.062065 0.000000
O O13 0.000000 0.841674 0.710611
#
# Coordination Sequence:
#
# PCOD8289616 Si02
#       6
#     8  16  16   8  16   4
#     4  12  26  43  62  83 112 150 195 242 287 337
#     4   9  17  32  57  86 113 147 194 239 284 337
#     4  11  23  38  57  83 116 159 196 233 282 342
#     4  10  19  35  63  92 115 146 188 234 286 345
#     4  10  19  35  60  88 117 147 186 239 291 346
#     4  12  22  42  64  88 118 144 188 242 296 330
#
# _framework density 18.799548000000001
#
# number of rings (size 3 to 8) (size 9 to 14) (size 15 to 20)
#    0.000    1.647    3.529    2.118    0.000    2.353 
#    0.000    0.588    0.000    1.412    0.000    0.000 
#    0.000    0.000    0.000    0.000    0.000    0.000 
#
# Total GULP energy -421482.669542 kJ/mol
# GULP energy per Si atom -12396.549104 kJ/mol
# Density = 1.875676 g / cm^3
# Si number density = 18.799548 Si / 1000 Ang^3
#
#
#
# Elastic Constant Matrix: (Units=GPa)
#
#
# Indices 1 2 3 4 5 6 
#
# 1 92.2011 65.8657 37.8849 0.0000 0.0000 0.0000
# 2 65.8657 145.2741 50.9291 0.0001 -0.0001 0.0000
# 3 37.8849 50.9291 86.1529 0.0007 0.0001 0.0000
# 4 0.0000 0.0001 0.0007 -6.7098 0.0002 0.0000
# 5 0.0000 -0.0001 0.0001 0.0002 33.8303 0.0000
# 6 0.0000 0.0000 0.0000 0.0000 0.0000 38.4038
#
#
#
# Elastic Compliance Matrix: (Units=1/GPa)
#
#
# Indices 1 2 3 4 5 6 
#
# 1 0.016911 -0.006383 -0.003663 -0.000001 0.000000 0.000000
# 2 -0.006383 0.011092 -0.003750 0.000000 0.000000 0.000000
# 3 -0.003663 -0.003750 0.015435 0.000002 0.000000 0.000000
# 4 -0.000001 0.000000 0.000002 -0.149037 0.000001 0.000000
# 5 0.000000 0.000000 0.000000 0.000001 0.029559 0.000000
# 6 0.000000 0.000000 0.000000 0.000000 0.000000 0.026039
#
#
# Mechanical properties :
#
#
# Convention : Reuss Voigt Hill
#
# Bulk Modulus (GPa) = 63.10984 70.33192 66.72088
# Shear Modulus (GPa) = -291.96318 24.36810 -133.79754
#
# Velocity S-wave (km/s) = -12.47559 3.60419 -8.44542
# Velocity P-wave (km/s) = 13.18628 7.40358 7.71573
#
# Compressibility (1/GPa) = 0.01584539
#
# Stress axis : x y z
#
# Youngs Moduli (GPa) = 59.13369 90.15276 64.78761
#
# Poissons Ratio (x) = 0.57545 0.23732
# Poissons Ratio (y) = 0.37745 0.24297
# Poissons Ratio (z) = 0.21661 0.33810
#
# Static dielectric constant tensor:
#      x y z
#    x 3.519830 0.000000 0.000000 
#    y 0.000000 3.641910 0.000000 
#    z 0.000000 0.000000 3.368670 
# 
# 
# High freq. dielectric constant tensor:
#      x y z
#    x 1.731010 0.000000 0.000000 
#    y 0.000000 1.743020 0.000000 
#    z 0.000000 0.000000 1.718000 
# 
# From -- ./inp_files/21608.got.cif
#   From: 2010.06.25/outbox.cif.g09.slc.cpg/sg71_11_cif.got.tgz:21608.got - 2010.06.28 04:59:45.
