data_PCOD8289697
_publ_section_title
;
Structure prediction by ZEFSAII (Michael W. Deem and Ramdas Pophale) SiO2 
 PCOD8289697
Probable space group: I M M M
;
_chemical_formula_sum "Si O2"
_cell_formula_units_Z 104
_cell_length_a 9.565149
_cell_length_b 25.713071
_cell_length_c 28.073478
_cell_angle_alpha 90.000000
_cell_angle_beta 90.000000
_cell_angle_gamma 90.000000
_cell_volume 6904.653817
_symmetry_space_group_name_H-M "I M M M"
_symmetry_group_IT_number 71
_symmetry_cell_setting 'orthorhombic'
loop_
_space_group_symop_operation_xyz
x,y,z
-x,-y,z
x,-y,-z
-x,y,-z
-x,-y,-z
x,y,-z
-x,y,z
x,-y,z
1/2+x,1/2+y,1/2+z
1/2-x,1/2-y,1/2+z
1/2+x,1/2-y,1/2-z
1/2-x,1/2+y,1/2-z
1/2-x,1/2-y,1/2-z
1/2+x,1/2+y,1/2-z
1/2-x,1/2+y,1/2+z
1/2+x,1/2-y,1/2+z
loop_
_atom_site_type_symbol
_atom_site_label
_atom_site_fract_x
_atom_site_fract_y
_atom_site_fract_z
Si Si1 0.334574 0.644252 0.697193
Si Si2 0.336060 0.201037 0.268098
Si Si3 0.847510 0.440787 0.648525
Si Si4 0.160700 0.726047 0.446986
Si Si5 0.843057 0.247583 0.137783
Si Si6 0.000000 0.057385 0.944763
Si Si7 0.788128 0.604759 0.445736
O O1 0.500000 0.638018 0.707934
O O2 0.245619 0.651236 0.746445
O O3 0.274210 0.593374 0.671904
O O4 0.303316 0.693655 0.663767
O O5 0.500000 0.202863 0.251960
O O6 0.250000 0.250000 0.250000
O O7 0.327894 0.203755 0.325713
O O8 0.797958 0.500000 0.653503
O O9 0.875688 0.427282 0.592773
O O10 0.000000 0.432528 0.673254
O O11 0.211228 0.742056 0.500000
O O12 0.245572 0.758130 0.407612
O O13 0.183194 0.665163 0.439506
O O14 0.000000 0.740307 0.439977
O O15 0.000000 0.243898 0.118381
O O16 0.870399 0.092920 0.930502
O O17 0.000000 0.000000 0.919509
O O18 0.000000 0.046252 0.000000
O O19 0.823778 0.586914 0.500000
#
# Coordination Sequence:
#
# PCOD8289697 Si02
#       7
#    16  16  16  16  16   8  16
#     4  10  20  33  48  65  83 107 139 175 220 267
#     4   9  17  30  48  69  89 105 130 169 214 262
#     4  11  23  34  45  62  83 110 142 181 231 273
#     4  10  20  30  42  61  85 113 142 174 214 254
#     4   9  18  30  46  67  85 106 136 170 211 258
#     4   9  18  30  42  56  70  90 128 178 226 264
#     4  10  20  32  45  58  75 104 144 186 227 267
#
# _framework density 15.062305
#
# number of rings (size 3 to 8) (size 9 to 14) (size 15 to 20)
#    0.000    2.231    1.538    2.769    2.154    5.538 
#    0.000    0.769    0.000    0.000    0.000    0.000 
#    0.000    0.000    0.000    0.000    0.000    0.769 
#
# Total GULP energy -644295.057426 kJ/mol
# GULP energy per Si atom -12390.289566 kJ/mol
# Density = 1.502802 g / cm^3
# Si number density = 15.062305 Si / 1000 Ang^3
#
#
#
# Elastic Constant Matrix: (Units=GPa)
#
#
# Indices 1 2 3 4 5 6 
#
# 1 100.7468 25.6999 52.3908 0.0000 0.0000 0.0000
# 2 25.6999 38.8461 36.3822 0.0000 0.0000 0.0000
# 3 52.3908 36.3822 87.8865 0.0000 0.0000 0.0000
# 4 0.0000 0.0000 0.0000 46.5031 0.0000 0.0000
# 5 0.0000 0.0000 0.0000 0.0000 26.1413 0.0000
# 6 0.0000 0.0000 0.0000 0.0000 0.0000 24.2209
#
#
#
# Elastic Compliance Matrix: (Units=1/GPa)
#
#
# Indices 1 2 3 4 5 6 
#
# 1 0.014527 -0.002450 -0.007645 0.000000 0.000000 0.000000
# 2 -0.002450 0.042456 -0.016115 0.000000 0.000000 0.000000
# 3 -0.007645 -0.016115 0.022607 0.000000 0.000000 0.000000
# 4 0.000000 0.000000 0.000000 0.021504 0.000000 0.000000
# 5 0.000000 0.000000 0.000000 0.000000 0.038254 0.000000
# 6 0.000000 0.000000 0.000000 0.000000 0.000000 0.041287
#
#
# Mechanical properties :
#
#
# Convention : Reuss Voigt Hill
#
# Bulk Modulus (GPa) = 36.80664 50.71390 43.76027
# Shear Modulus (GPa) = 20.65165 26.90683 23.77924
#
# Velocity S-wave (km/s) = 3.70683 4.23113 3.97763
# Velocity P-wave (km/s) = 6.54294 7.59029 7.08599
#
# Compressibility (1/GPa) = 0.02716901
#
# Stress axis : x y z
#
# Youngs Moduli (GPa) = 68.83903 23.55357 44.23431
#
# Poissons Ratio (x) = 0.05771 0.33818
# Poissons Ratio (y) = 0.16867 0.71283
# Poissons Ratio (z) = 0.52629 0.37957
#
# Static dielectric constant tensor:
#      x y z
#    x 3.147100 0.000000 0.000000 
#    y 0.000000 2.600730 0.000000 
#    z 0.000000 0.000000 3.117910 
# 
# 
# High freq. dielectric constant tensor:
#      x y z
#    x 1.599570 0.000000 0.000000 
#    y 0.000000 1.519620 0.000000 
#    z 0.000000 0.000000 1.560970 
# 
# From -- ./inp_files/58184.got.cif
#   From: 2010.06.25/outbox.cif.g09.slc.cpg/sg71_30_cif.got.tgz:58184.got - 2010.06.28 04:59:45.
