data_PCOD8289183
_publ_section_title
;
Structure prediction by ZEFSAII (Michael W. Deem and Ramdas Pophale) SiO2 
 PCOD8289183
Probable space group: I M M M
;
_chemical_formula_sum "Si O2"
_cell_formula_units_Z 88
_cell_length_a 21.611714
_cell_length_b 14.066975
_cell_length_c 12.637178
_cell_angle_alpha 90.000000
_cell_angle_beta 90.000000
_cell_angle_gamma 90.000000
_cell_volume 3841.846688
_symmetry_space_group_name_H-M "I M M M"
_symmetry_group_IT_number 71
_symmetry_cell_setting 'orthorhombic'
loop_
_space_group_symop_operation_xyz
x,y,z
-x,-y,z
x,-y,-z
-x,y,-z
-x,-y,-z
x,y,-z
-x,y,z
x,-y,z
1/2+x,1/2+y,1/2+z
1/2-x,1/2-y,1/2+z
1/2+x,1/2-y,1/2-z
1/2-x,1/2+y,1/2-z
1/2-x,1/2-y,1/2-z
1/2+x,1/2+y,1/2-z
1/2-x,1/2+y,1/2+z
1/2+x,1/2-y,1/2+z
loop_
_atom_site_type_symbol
_atom_site_label
_atom_site_fract_x
_atom_site_fract_y
_atom_site_fract_z
Si Si1 0.428426 0.388141 0.500000
Si Si2 0.205821 0.394322 0.385893
Si Si3 0.500000 0.707199 0.881304
Si Si4 0.000000 0.604063 0.245219
Si Si5 0.867025 0.603945 0.181901
Si Si6 0.833288 0.805667 0.163375
Si Si7 0.372171 0.388081 0.121942
O O1 0.432969 0.500000 0.500000
O O2 0.500000 0.347436 0.500000
O O3 0.389860 0.358479 0.604668
O O4 0.175393 0.374150 0.500000
O O5 0.233402 0.500000 0.377583
O O6 0.149790 0.380794 0.305165
O O7 0.264932 0.328451 0.373029
O O8 0.500000 0.805122 0.818830
O O9 0.442719 0.639287 0.856277
O O10 0.500000 0.742828 0.000000
O O11 0.940618 0.608379 0.169109
O O12 0.000000 0.500000 0.304604
O O13 0.842458 0.500000 0.140297
O O14 0.837652 0.695000 0.126052
O O15 0.834127 0.827603 0.290247
O O16 0.362486 0.500000 0.142243
O O17 0.352587 0.362537 0.000000
#
# Coordination Sequence:
#
# PCOD8289183 Si02
#       7
#     8  16   8   8  16  16  16
#     4  11  26  42  65 103 135 170 219 269 323 385
#     4  10  21  40  65  96 131 168 213 267 327 387
#     4  10  19  33  52  81 119 162 205 253 316 387
#     4  10  20  38  59  88 123 159 209 265 319 376
#     4  10  23  40  63  91 124 168 216 268 321 382
#     4  12  22  41  68  93 128 173 217 268 320 385
#     4  10  21  35  56  89 127 167 207 256 323 391
#
# _framework density 22.905650000000001
#
# number of rings (size 3 to 8) (size 9 to 14) (size 15 to 20)
#    0.000    1.545    2.727    2.455    2.545    2.727 
#    0.000    2.273    0.000    0.545    0.000    0.000 
#    0.000    0.000    0.000    0.000    0.000    0.000 
#
# Total GULP energy -545084.924608 kJ/mol
# GULP energy per Si atom -12388.293741 kJ/mol
# Density = 2.285352 g / cm^3
# Si number density = 22.905650 Si / 1000 Ang^3
#
#
#
# Elastic Constant Matrix: (Units=GPa)
#
#
# Indices 1 2 3 4 5 6 
#
# 1 62.1753 3.6146 2.7992 0.0000 0.0000 0.0000
# 2 3.6146 137.1864 5.1754 0.0000 0.0000 0.0000
# 3 2.7992 5.1754 73.2381 0.0000 0.0000 0.0000
# 4 0.0000 0.0000 0.0000 17.4373 0.0000 0.0000
# 5 0.0000 0.0000 0.0000 0.0000 -102.8398 0.0000
# 6 0.0000 0.0000 0.0000 0.0000 0.0000 22.0070
#
#
#
# Elastic Compliance Matrix: (Units=1/GPa)
#
#
# Indices 1 2 3 4 5 6 
#
# 1 0.016133 -0.000403 -0.000588 0.000000 0.000000 0.000000
# 2 -0.000403 0.007319 -0.000502 0.000000 0.000000 0.000000
# 3 -0.000588 -0.000502 0.013712 0.000000 0.000000 0.000000
# 4 0.000000 0.000000 0.000000 0.057348 0.000000 0.000000
# 5 0.000000 0.000000 0.000000 0.000000 -0.009724 0.000000
# 6 0.000000 0.000000 0.000000 0.000000 0.000000 0.045440
#
#
# Mechanical properties :
#
#
# Convention : Reuss Voigt Hill
#
# Bulk Modulus (GPa) = 29.25800 32.86425 31.06113
# Shear Modulus (GPa) = 34.57638 4.72161 19.64900
#
# Velocity S-wave (km/s) = 3.88946 1.43729 2.93204
# Velocity P-wave (km/s) = 5.74208 4.13923 5.00523
#
# Compressibility (1/GPa) = 0.03417868
#
# Stress axis : x y z
#
# Youngs Moduli (GPa) = 61.98300 136.63259 72.92862
#
# Poissons Ratio (x) = 0.05505 0.04289
# Poissons Ratio (y) = 0.02497 0.03660
# Poissons Ratio (z) = 0.03646 0.06856
#
# Static dielectric constant tensor:
#      x y z
#    x 4.037920 0.000000 0.000000 
#    y 0.000000 4.515330 0.000000 
#    z 0.000000 0.000000 4.101540 
# 
# 
# High freq. dielectric constant tensor:
#      x y z
#    x 1.898510 0.000000 0.000000 
#    y 0.000000 1.928030 0.000000 
#    z 0.000000 0.000000 1.882500 
# 
# From -- ./inp_files/27235.got.cif
#   From: 2010.06.25/outbox.cif.g09.slc.cpg/sg71_14_cif.got.tgz:27235.got - 2010.06.28 04:59:45.
