data_PCOD8289195
_publ_section_title
;
Structure prediction by ZEFSAII (Michael W. Deem and Ramdas Pophale) SiO2 
 PCOD8289195
Probable space group: I M M M
;
_chemical_formula_sum "Si O2"
_cell_formula_units_Z 104
_cell_length_a 20.892993
_cell_length_b 29.997878
_cell_length_c 8.947918
_cell_angle_alpha 90.000000
_cell_angle_beta 90.000000
_cell_angle_gamma 90.000000
_cell_volume 5608.066939
_symmetry_space_group_name_H-M "I M M M"
_symmetry_group_IT_number 71
_symmetry_cell_setting 'orthorhombic'
loop_
_space_group_symop_operation_xyz
x,y,z
-x,-y,z
x,-y,-z
-x,y,-z
-x,-y,-z
x,y,-z
-x,y,z
x,-y,z
1/2+x,1/2+y,1/2+z
1/2-x,1/2-y,1/2+z
1/2+x,1/2-y,1/2-z
1/2-x,1/2+y,1/2-z
1/2-x,1/2-y,1/2-z
1/2+x,1/2+y,1/2-z
1/2-x,1/2+y,1/2+z
1/2+x,1/2-y,1/2+z
loop_
_atom_site_type_symbol
_atom_site_label
_atom_site_fract_x
_atom_site_fract_y
_atom_site_fract_z
Si Si1 0.500000 0.947699 0.338504
Si Si2 0.863850 0.870154 0.675528
Si Si3 0.137551 0.449875 0.820554
Si Si4 0.925266 0.049749 0.168649
Si Si5 0.812609 0.271744 0.176223
Si Si6 0.426615 0.280188 0.822944
Si Si7 0.277684 0.130262 0.675787
O O1 0.500000 0.923231 0.500000
O O2 0.566942 0.936082 0.254971
O O3 0.500000 0.000000 0.366533
O O4 0.858663 0.866697 0.500000
O O5 0.892117 0.917715 0.716008
O O6 0.908865 0.830043 0.732833
O O7 0.793155 0.865953 0.746831
O O8 0.157409 0.500000 0.767882
O O9 0.186708 0.413149 0.755808
O O10 0.134202 0.448793 0.000000
O O11 0.000000 0.050285 0.200201
O O12 0.898386 0.000000 0.195612
O O13 0.910551 0.065310 0.000000
O O14 0.750000 0.250000 0.250000
O O15 0.878893 0.253526 0.241620
O O16 0.814978 0.324323 0.212892
O O17 0.808744 0.262627 0.000000
O O18 0.500000 0.270179 0.776333
O O19 0.417439 0.275298 0.000000
O O20 0.272066 0.123129 0.500000
#
# Coordination Sequence:
#
# PCOD8289195 Si02
#       7
#     8  16  16  16  16  16  16
#     4   7  10  18  34  56  84 122 163 193 231 297
#     4  10  19  33  53  76 102 134 174 217 267 320
#     4   8  13  23  40  63  93 130 167 203 250 306
#     4   9  19  35  51  70 102 139 172 213 264 312
#     4  11  21  37  58  79 109 145 183 223 270 328
#     4  10  21  38  58  80 109 142 178 227 281 329
#     4   9  18  31  47  71 103 134 167 213 262 310
#
# _framework density 18.544715
#
# number of rings (size 3 to 8) (size 9 to 14) (size 15 to 20)
#    0.000    2.692    1.538    2.308    0.000    2.769 
#    1.385    2.308    0.000    0.000    0.000    0.000 
#    0.000    0.000    0.000    1.692    0.000    1.385 
#
# Total GULP energy -644384.371473 kJ/mol
# GULP energy per Si atom -12392.007144 kJ/mol
# Density = 1.850251 g / cm^3
# Si number density = 18.544715 Si / 1000 Ang^3
#
#
#
# Elastic Constant Matrix: (Units=GPa)
#
#
# Indices 1 2 3 4 5 6 
#
# 1 128.7279 72.5416 29.7586 0.0000 0.0000 0.0000
# 2 72.5416 126.8259 24.9845 0.0000 0.0000 0.0000
# 3 29.7586 24.9845 21.2648 0.0000 0.0000 0.0000
# 4 0.0000 0.0000 0.0000 23.7027 0.0000 0.0000
# 5 0.0000 0.0000 0.0000 0.0000 20.2649 0.0000
# 6 0.0000 0.0000 0.0000 0.0000 0.0000 36.9524
#
#
#
# Elastic Compliance Matrix: (Units=1/GPa)
#
#
# Indices 1 2 3 4 5 6 
#
# 1 0.013775 -0.005311 -0.013038 0.000000 0.000000 0.000000
# 2 -0.005311 0.012307 -0.007028 0.000000 0.000000 0.000000
# 3 -0.013038 -0.007028 0.073529 0.000000 0.000000 0.000000
# 4 0.000000 0.000000 0.000000 0.042189 0.000000 0.000000
# 5 0.000000 0.000000 0.000000 0.000000 0.049346 0.000000
# 6 0.000000 0.000000 0.000000 0.000000 0.000000 0.027062
#
#
# Mechanical properties :
#
#
# Convention : Reuss Voigt Hill
#
# Bulk Modulus (GPa) = 20.46733 59.04309 39.75521
# Shear Modulus (GPa) = 17.52874 26.15291 21.84082
#
# Velocity S-wave (km/s) = 3.07777 3.75942 3.43554
# Velocity P-wave (km/s) = 4.86733 7.12402 6.10093
#
# Compressibility (1/GPa) = 0.04885836
#
# Stress axis : x y z
#
# Youngs Moduli (GPa) = 72.59570 81.25571 13.60017
#
# Poissons Ratio (x) = 0.43151 0.17731
# Poissons Ratio (y) = 0.38552 0.09558
# Poissons Ratio (z) = 0.94647 0.57105
#
# Static dielectric constant tensor:
#      x y z
#    x 3.747200 0.000000 0.000000 
#    y 0.000000 3.667590 0.000000 
#    z 0.000000 0.000000 2.961080 
# 
# 
# High freq. dielectric constant tensor:
#      x y z
#    x 1.728790 0.000000 0.000000 
#    y 0.000000 1.720630 0.000000 
#    z 0.000000 0.000000 1.669810 
# 
# From -- ./inp_files/11493.got.cif
#   From: 2010.06.25/outbox.cif.g09.slc.cpg/sg71_6_cif.got.tgz:11493.got - 2010.06.28 04:59:45.
