data_PCOD8289365
_publ_section_title
;
Structure prediction by ZEFSAII (Michael W. Deem and Ramdas Pophale) SiO2 
 PCOD8289365
Probable space group: I M M M
;
_chemical_formula_sum "Si O2"
_cell_formula_units_Z 72
_cell_length_a 19.269780
_cell_length_b 12.243825
_cell_length_c 16.842107
_cell_angle_alpha 90.000000
_cell_angle_beta 90.000000
_cell_angle_gamma 90.000000
_cell_volume 3973.656226
_symmetry_space_group_name_H-M "I M M M"
_symmetry_group_IT_number 71
_symmetry_cell_setting 'orthorhombic'
loop_
_space_group_symop_operation_xyz
x,y,z
-x,-y,z
x,-y,-z
-x,y,-z
-x,-y,-z
x,y,-z
-x,y,z
x,-y,z
1/2+x,1/2+y,1/2+z
1/2-x,1/2-y,1/2+z
1/2+x,1/2-y,1/2-z
1/2-x,1/2+y,1/2-z
1/2-x,1/2-y,1/2-z
1/2+x,1/2+y,1/2-z
1/2-x,1/2+y,1/2+z
1/2+x,1/2-y,1/2+z
loop_
_atom_site_type_symbol
_atom_site_label
_atom_site_fract_x
_atom_site_fract_y
_atom_site_fract_z
Si Si1 0.500000 0.126903 0.912270
Si Si2 0.420927 0.500000 0.906200
Si Si3 0.139405 0.371221 0.325406
Si Si4 0.840349 0.377775 0.149654
Si Si5 0.307874 0.673395 0.093571
Si Si6 0.420597 0.130579 0.500000
O O1 0.434845 0.160442 0.860346
O O2 0.500000 0.000000 0.928845
O O3 0.500000 0.185314 0.000000
O O4 0.500000 0.500000 0.870083
O O5 0.377180 0.392612 0.879322
O O6 0.427371 0.500000 0.000000
O O7 0.157812 0.500000 0.333046
O O8 0.143276 0.325441 0.235460
O O9 0.191845 0.299644 0.378311
O O10 0.869246 0.500000 0.155731
O O11 0.758653 0.381364 0.133583
O O12 0.882797 0.319355 0.078231
O O13 0.298176 0.667296 0.000000
O O14 0.500000 0.168726 0.500000
O O15 0.412771 0.000000 0.500000
#
# Coordination Sequence:
#
# PCOD8289365 Si02
#       6
#     8   8  16  16  16   8
#     4   9  18  34  50  70 104 142 168 203 253 313
#     4   9  20  34  52  78 104 139 184 217 255 314
#     4  10  22  34  51  77 107 138 178 219 265 316
#     4  10  19  34  53  76 107 137 174 218 272 319
#     4  11  20  34  56  75 106 142 176 221 267 315
#     4   9  18  30  52  78 105 137 172 215 266 325
#
# _framework density 18.119333000000001
#
# number of rings (size 3 to 8) (size 9 to 14) (size 15 to 20)
#    0.000    2.111    2.222    1.333    3.111    1.333 
#    0.000    0.000    0.000    0.000    0.000    0.000 
#    0.000    0.889    0.000    0.000    0.000    0.000 
#
# Total GULP energy -446138.140555 kJ/mol
# GULP energy per Si atom -12392.726127 kJ/mol
# Density = 1.807809 g / cm^3
# Si number density = 18.119333 Si / 1000 Ang^3
#
#
#
# Elastic Constant Matrix: (Units=GPa)
#
#
# Indices 1 2 3 4 5 6 
#
# 1 115.6017 14.2947 56.9968 0.0000 0.0000 0.0000
# 2 14.2947 57.2650 23.8603 0.0000 0.0000 0.0000
# 3 56.9968 23.8603 122.4905 0.0000 0.0000 0.0000
# 4 0.0000 0.0000 0.0000 16.6855 0.0000 0.0000
# 5 0.0000 0.0000 0.0000 0.0000 40.9545 0.0000
# 6 0.0000 0.0000 0.0000 0.0000 0.0000 7.0827
#
#
#
# Elastic Compliance Matrix: (Units=1/GPa)
#
#
# Indices 1 2 3 4 5 6 
#
# 1 0.011250 -0.000683 -0.005102 0.000000 0.000000 0.000000
# 2 -0.000683 0.019047 -0.003393 0.000000 0.000000 0.000000
# 3 -0.005102 -0.003393 0.011199 0.000000 0.000000 0.000000
# 4 0.000000 0.000000 0.000000 0.059932 0.000000 0.000000
# 5 0.000000 0.000000 0.000000 0.000000 0.024417 0.000000
# 6 0.000000 0.000000 0.000000 0.000000 0.000000 0.141190
#
#
# Mechanical properties :
#
#
# Convention : Reuss Voigt Hill
#
# Bulk Modulus (GPa) = 43.21232 53.96230 48.58731
# Shear Modulus (GPa) = 17.05885 26.29155 21.67520
#
# Velocity S-wave (km/s) = 3.07167 3.81336 3.46243
# Velocity P-wave (km/s) = 6.03993 7.01678 6.54660
#
# Compressibility (1/GPa) = 0.02314155
#
# Stress axis : x y z
#
# Youngs Moduli (GPa) = 88.88656 52.50276 89.29541
#
# Poissons Ratio (x) = 0.03583 0.45558
# Poissons Ratio (y) = 0.06067 0.30294
# Poissons Ratio (z) = 0.45350 0.17812
#
# Static dielectric constant tensor:
#      x y z
#    x 3.498050 0.000000 0.000000 
#    y 0.000000 3.119910 0.000000 
#    z 0.000000 0.000000 3.511870 
# 
# 
# High freq. dielectric constant tensor:
#      x y z
#    x 1.701990 0.000000 0.000000 
#    y 0.000000 1.663390 0.000000 
#    z 0.000000 0.000000 1.703970 
# 
# From -- ./inp_files/23542.got.cif
#   From: 2010.06.25/outbox.cif.g09.slc.cpg/sg71_12_cif.got.tgz:23542.got - 2010.06.28 04:59:45.
