data_PCOD8289719
_publ_section_title
;
Structure prediction by ZEFSAII (Michael W. Deem and Ramdas Pophale) SiO2 
 PCOD8289719
Probable space group: I M M M
;
_chemical_formula_sum "Si O2"
_cell_formula_units_Z 112
_cell_length_a 22.977696
_cell_length_b 29.438037
_cell_length_c 8.986596
_cell_angle_alpha 90.000000
_cell_angle_beta 90.000000
_cell_angle_gamma 90.000000
_cell_volume 6078.697675
_symmetry_space_group_name_H-M "I M M M"
_symmetry_group_IT_number 71
_symmetry_cell_setting 'orthorhombic'
loop_
_space_group_symop_operation_xyz
x,y,z
-x,-y,z
x,-y,-z
-x,y,-z
-x,-y,-z
x,y,-z
-x,y,z
x,-y,z
1/2+x,1/2+y,1/2+z
1/2-x,1/2-y,1/2+z
1/2+x,1/2-y,1/2-z
1/2-x,1/2+y,1/2-z
1/2-x,1/2-y,1/2-z
1/2+x,1/2+y,1/2-z
1/2-x,1/2+y,1/2+z
1/2+x,1/2-y,1/2+z
loop_
_atom_site_type_symbol
_atom_site_label
_atom_site_fract_x
_atom_site_fract_y
_atom_site_fract_z
Si Si1 0.739774 0.863015 0.823092
Si Si2 0.063724 0.601550 0.676352
Si Si3 0.130696 0.137703 0.822857
Si Si4 0.565536 0.449882 0.676960
Si Si5 0.870686 0.308870 0.324763
Si Si6 0.433990 0.272864 0.323648
Si Si7 0.826161 0.549981 0.677525
O O1 0.804207 0.853234 0.760034
O O2 0.694469 0.823755 0.772730
O O3 0.719551 0.912606 0.763187
O O4 0.739379 0.864685 0.000000
O O5 0.060481 0.599156 0.500000
O O6 0.084883 0.651588 0.722960
O O7 0.109195 0.563811 0.734163
O O8 0.000000 0.592443 0.746680
O O9 0.106870 0.089776 0.758251
O O10 0.088260 0.177871 0.769740
O O11 0.132772 0.135574 0.000000
O O12 0.565417 0.447446 0.500000
O O13 0.500000 0.441944 0.735790
O O14 0.587830 0.500000 0.728145
O O15 0.872617 0.299759 0.500000
O O16 0.889555 0.263640 0.241337
O O17 0.432196 0.269263 0.500000
O O18 0.500000 0.265861 0.264722
O O19 0.825472 0.549475 0.500000
O O20 0.810449 0.500000 0.740727
#
# Coordination Sequence:
#
# PCOD8289719 Si02
#       7
#    16  16  16  16  16  16  16
#     4   8  15  26  39  56  78 108 144 174 205 252
#     4   8  13  21  34  52  74 103 137 167 198 240
#     4   9  16  26  39  56  82 112 138 171 216 256
#     4   8  13  21  34  53  78 111 149 180 207 250
#     4   9  17  30  46  62  83 113 146 176 207 248
#     4  10  20  31  44  64  87 110 139 176 215 252
#     4   8  13  20  30  48  76 105 132 166 203 238
#
# _framework density 18.424997999999999
#
# number of rings (size 3 to 8) (size 9 to 14) (size 15 to 20)
#    0.000    3.429    0.000    3.000    0.000    4.000 
#    0.000    4.286    0.000    0.000    0.000    0.000 
#    0.000    9.714    0.000   39.571    0.000   36.857 
#
# Total GULP energy -693877.111495 kJ/mol
# GULP energy per Si atom -12390.662705 kJ/mol
# Density = 1.838306 g / cm^3
# Si number density = 18.424998 Si / 1000 Ang^3
#
#
#
# Elastic Constant Matrix: (Units=GPa)
#
#
# Indices 1 2 3 4 5 6 
#
# 1 138.1859 72.4962 11.2168 0.0000 0.0000 0.0000
# 2 72.4962 150.2268 14.5537 0.0000 0.0000 0.0000
# 3 11.2168 14.5537 5.9521 0.0000 0.0000 0.0000
# 4 0.0000 0.0000 0.0000 14.2869 0.0000 0.0000
# 5 0.0000 0.0000 0.0000 0.0000 9.0421 0.0000
# 6 0.0000 0.0000 0.0000 0.0000 0.0000 27.2117
#
#
#
# Elastic Compliance Matrix: (Units=1/GPa)
#
#
# Indices 1 2 3 4 5 6 
#
# 1 0.010068 -0.003958 -0.009295 0.000000 0.000000 0.000000
# 2 -0.003958 0.010279 -0.017675 0.000000 0.000000 0.000000
# 3 -0.009295 -0.017675 0.228744 0.000000 0.000000 0.000000
# 4 0.000000 0.000000 0.000000 0.069994 0.000000 0.000000
# 5 0.000000 0.000000 0.000000 0.000000 0.110594 0.000000
# 6 0.000000 0.000000 0.000000 0.000000 0.000000 0.036749
#
#
# Mechanical properties :
#
#
# Convention : Reuss Voigt Hill
#
# Bulk Modulus (GPa) = 5.34089 54.54426 29.94257
# Shear Modulus (GPa) = 8.46462 23.18133 15.82298
#
# Velocity S-wave (km/s) = 2.14571 3.55088 2.93367
# Velocity P-wave (km/s) = 3.00729 6.81758 5.26892
#
# Compressibility (1/GPa) = 0.18723476
#
# Stress axis : x y z
#
# Youngs Moduli (GPa) = 99.32912 97.28660 4.37171
#
# Poissons Ratio (x) = 0.38505 0.04063
# Poissons Ratio (y) = 0.39313 0.07727
# Poissons Ratio (z) = 0.92325 1.71952
#
# Static dielectric constant tensor:
#      x y z
#    x 3.838160 0.000000 0.000000 
#    y 0.000000 3.600130 0.000000 
#    z 0.000000 0.000000 2.569280 
# 
# 
# High freq. dielectric constant tensor:
#      x y z
#    x 1.723990 0.000000 0.000000 
#    y 0.000000 1.723000 0.000000 
#    z 0.000000 0.000000 1.623930 
# 
# From -- ./inp_files/29216.got.cif
#   From: 2010.06.25/outbox.cif.g09.slc.cpg/sg71_15_cif.got.tgz:29216.got - 2010.06.28 04:59:45.
