data_PCOD8289650
_publ_section_title
;
Structure prediction by ZEFSAII (Michael W. Deem and Ramdas Pophale) SiO2 
 PCOD8289650
Probable space group: I M M M
;
_chemical_formula_sum "Si O2"
_cell_formula_units_Z 96
_cell_length_a 13.914234
_cell_length_b 18.333152
_cell_length_c 20.129245
_cell_angle_alpha 90.000000
_cell_angle_beta 90.000000
_cell_angle_gamma 90.000000
_cell_volume 5134.804673
_symmetry_space_group_name_H-M "I M M M"
_symmetry_group_IT_number 71
_symmetry_cell_setting 'orthorhombic'
loop_
_space_group_symop_operation_xyz
x,y,z
-x,-y,z
x,-y,-z
-x,y,-z
-x,-y,-z
x,y,-z
-x,y,z
x,-y,z
1/2+x,1/2+y,1/2+z
1/2-x,1/2-y,1/2+z
1/2+x,1/2-y,1/2-z
1/2-x,1/2+y,1/2-z
1/2-x,1/2-y,1/2-z
1/2+x,1/2+y,1/2-z
1/2-x,1/2+y,1/2+z
1/2+x,1/2-y,1/2+z
loop_
_atom_site_type_symbol
_atom_site_label
_atom_site_fract_x
_atom_site_fract_y
_atom_site_fract_z
Si Si1 0.230600 0.916480 0.313937
Si Si2 0.777178 0.084007 0.075573
Si Si3 0.388805 0.657121 0.923539
Si Si4 0.389728 0.810218 0.274239
Si Si5 0.610399 0.817575 0.118247
Si Si6 0.112730 0.854358 0.195083
O O1 0.170653 0.899564 0.379992
O O2 0.326498 0.867923 0.314309
O O3 0.166403 0.903297 0.249031
O O4 0.263204 0.000000 0.315331
O O5 0.672861 0.120211 0.083731
O O6 0.856630 0.122431 0.121381
O O7 0.766837 0.000000 0.096034
O O8 0.812652 0.092549 0.000000
O O9 0.500000 0.648942 0.903736
O O10 0.355202 0.739350 0.908582
O O11 0.370441 0.637908 0.000000
O O12 0.500000 0.823527 0.294011
O O13 0.372603 0.821076 0.196505
O O14 0.356903 0.729215 0.293985
O O15 0.500000 0.832047 0.098956
O O16 0.000000 0.866057 0.204595
#
# Coordination Sequence:
#
# PCOD8289650 Si02
#       6
#    16  16  16  16  16  16
#     4  12  23  36  59  87 116 150 186 228 283 340
#     4  11  24  38  53  81 119 154 189 232 282 334
#     4  10  21  37  58  86 117 149 188 232 279 335
#     4  10  21  38  62  87 113 144 187 241 283 323
#     4  10  19  36  60  84 112 149 191 235 282 332
#     4  11  22  39  61  82 108 148 195 237 276 326
#
# _framework density 18.69594
#
# number of rings (size 3 to 8) (size 9 to 14) (size 15 to 20)
#    0.000    1.333    3.333    3.000    0.000    4.667 
#    0.000    4.167    0.000    1.500    0.000    1.167 
#    0.000    0.000    0.000    0.000    0.000    0.000 
#
# Total GULP energy -595501.808393 kJ/mol
# GULP energy per Si atom -12406.287675 kJ/mol
# Density = 1.865339 g / cm^3
# Si number density = 18.695940 Si / 1000 Ang^3
#
#
#
# Elastic Constant Matrix: (Units=GPa)
#
#
# Indices 1 2 3 4 5 6 
#
# 1 44.3157 21.8221 13.0815 0.0000 0.0000 0.0000
# 2 21.8221 93.1588 17.7377 0.0000 0.0000 0.0000
# 3 13.0815 17.7377 70.4457 0.0000 0.0000 0.0000
# 4 0.0000 0.0000 0.0000 26.5454 0.0000 0.0000
# 5 0.0000 0.0000 0.0000 0.0000 29.8431 0.0000
# 6 0.0000 0.0000 0.0000 0.0000 0.0000 14.3729
#
#
#
# Elastic Compliance Matrix: (Units=1/GPa)
#
#
# Indices 1 2 3 4 5 6 
#
# 1 0.026305 -0.005495 -0.003501 0.000000 0.000000 0.000000
# 2 -0.005495 0.012423 -0.002108 0.000000 0.000000 0.000000
# 3 -0.003501 -0.002108 0.015376 0.000000 0.000000 0.000000
# 4 0.000000 0.000000 0.000000 0.037671 0.000000 0.000000
# 5 0.000000 0.000000 0.000000 0.000000 0.033509 0.000000
# 6 0.000000 0.000000 0.000000 0.000000 0.000000 0.069575
#
#
# Mechanical properties :
#
#
# Convention : Reuss Voigt Hill
#
# Bulk Modulus (GPa) = 31.35170 34.80032 33.07601
# Shear Modulus (GPa) = 21.95885 24.50421 23.23153
#
# Velocity S-wave (km/s) = 3.43085 3.62425 3.52887
# Velocity P-wave (km/s) = 5.70088 6.01397 5.85951
#
# Compressibility (1/GPa) = 0.03189620
#
# Stress axis : x y z
#
# Youngs Moduli (GPa) = 38.01590 80.49662 65.03586
#
# Poissons Ratio (x) = 0.44234 0.22769
# Poissons Ratio (y) = 0.20890 0.13707
# Poissons Ratio (z) = 0.13310 0.16965
#
# Static dielectric constant tensor:
#      x y z
#    x 3.472130 0.000000 0.000000 
#    y 0.000000 3.408480 0.000000 
#    z 0.000000 0.000000 3.448520 
# 
# 
# High freq. dielectric constant tensor:
#      x y z
#    x 1.726180 0.000000 0.000000 
#    y 0.000000 1.725600 0.000000 
#    z 0.000000 0.000000 1.726130 
# 
# From -- ./inp_files/34501.got.cif
#   From: 2010.06.25/outbox.cif.g09.slc.cpg/sg71_18_cif.got.tgz:34501.got - 2010.06.28 04:59:45.
