data_PCOD8289047
_publ_section_title
;
Structure prediction by ZEFSAII (Michael W. Deem and Ramdas Pophale) SiO2 
 PCOD8289047
Probable space group: I M M M
;
_chemical_formula_sum "Si O2"
_cell_formula_units_Z 120
_cell_length_a 9.006673
_cell_length_b 26.914811
_cell_length_c 27.616137
_cell_angle_alpha 90.000000
_cell_angle_beta 90.000000
_cell_angle_gamma 90.000000
_cell_volume 6694.507899
_symmetry_space_group_name_H-M "I M M M"
_symmetry_group_IT_number 71
_symmetry_cell_setting 'orthorhombic'
loop_
_space_group_symop_operation_xyz
x,y,z
-x,-y,z
x,-y,-z
-x,y,-z
-x,-y,-z
x,y,-z
-x,y,z
x,-y,z
1/2+x,1/2+y,1/2+z
1/2-x,1/2-y,1/2+z
1/2+x,1/2-y,1/2-z
1/2-x,1/2+y,1/2-z
1/2-x,1/2-y,1/2-z
1/2+x,1/2+y,1/2-z
1/2-x,1/2+y,1/2+z
1/2+x,1/2-y,1/2+z
loop_
_atom_site_type_symbol
_atom_site_label
_atom_site_fract_x
_atom_site_fract_y
_atom_site_fract_z
Si Si1 0.827778 0.818248 0.055872
Si Si2 0.176255 0.353113 0.854991
Si Si3 0.168900 0.897689 0.788368
Si Si4 0.324582 0.904639 0.887549
Si Si5 0.172954 0.056874 0.687609
Si Si6 0.828692 0.200752 0.267291
Si Si7 0.176746 0.500000 0.554530
Si Si8 0.823898 0.293399 0.946927
O O1 0.736307 0.853866 0.090593
O O2 0.769911 0.762319 0.065977
O O3 0.000000 0.823621 0.069419
O O4 0.800055 0.832619 0.000000
O O5 0.233387 0.409508 0.849501
O O6 0.248219 0.317809 0.815269
O O7 0.230155 0.332964 0.907197
O O8 0.000000 0.351458 0.849419
O O9 0.274886 0.911511 0.832373
O O10 0.219035 0.931181 0.742748
O O11 0.185947 0.839792 0.775114
O O12 0.000000 0.909945 0.803033
O O13 0.500000 0.902670 0.889174
O O14 0.262920 0.951140 0.918301
O O15 0.000000 0.069837 0.680803
O O16 0.208877 0.000000 0.675498
O O17 0.750000 0.250000 0.250000
O O18 0.000000 0.211380 0.279462
O O19 0.240102 0.500000 0.500000
O O20 0.000000 0.500000 0.554158
O O21 0.000000 0.291676 0.949111
O O22 0.761968 0.309195 0.000000
#
# Coordination Sequence:
#
# PCOD8289047 Si02
#       8
#    16  16  16  16  16  16   8  16
#     4   9  18  34  54  74  99 134 174 214 258 311
#     4  10  19  32  54  83 109 138 178 219 265 316
#     4   9  20  36  52  73 101 135 171 210 258 312
#     4  11  22  34  52  76 100 131 171 219 269 316
#     4   9  19  37  58  77 103 141 178 217 269 321
#     4  10  21  36  53  74 107 144 178 215 260 315
#     4   9  20  38  53  67  97 137 169 209 274 329
#     4   8  16  32  54  79 108 142 175 208 254 313
#
# _framework density 17.925141
#
# number of rings (size 3 to 8) (size 9 to 14) (size 15 to 20)
#    0.000    2.600    0.000    3.200    2.800    3.733 
#    0.000    1.667    0.000    6.000    0.000    2.800 
#    0.000    0.000    0.000    0.000    0.000    0.000 
#
# Total GULP energy -744003.778063 kJ/mol
# GULP energy per Si atom -12400.062968 kJ/mol
# Density = 1.788434 g / cm^3
# Si number density = 17.925141 Si / 1000 Ang^3
#
#
#
# Elastic Constant Matrix: (Units=GPa)
#
#
# Indices 1 2 3 4 5 6 
#
# 1 66.2636 44.0033 44.8773 0.0000 0.0000 0.0000
# 2 44.0033 122.6974 73.9618 0.0000 0.0000 0.0000
# 3 44.8773 73.9618 125.8926 0.0000 0.0000 0.0000
# 4 0.0000 0.0000 0.0000 23.8126 0.0000 0.0000
# 5 0.0000 0.0000 0.0000 0.0000 23.8225 0.0000
# 6 0.0000 0.0000 0.0000 0.0000 0.0000 28.1182
#
#
#
# Elastic Compliance Matrix: (Units=1/GPa)
#
#
# Indices 1 2 3 4 5 6 
#
# 1 0.021580 -0.004803 -0.004871 0.000000 0.000000 0.000000
# 2 -0.004803 0.013688 -0.006330 0.000000 0.000000 0.000000
# 3 -0.004871 -0.006330 0.013398 0.000000 0.000000 0.000000
# 4 0.000000 0.000000 0.000000 0.041995 0.000000 0.000000
# 5 0.000000 0.000000 0.000000 0.000000 0.041977 0.000000
# 6 0.000000 0.000000 0.000000 0.000000 0.000000 0.035564
#
#
# Mechanical properties :
#
#
# Convention : Reuss Voigt Hill
#
# Bulk Modulus (GPa) = 60.02735 71.17093 65.59914
# Shear Modulus (GPa) = 24.29998 25.28473 24.79235
#
# Velocity S-wave (km/s) = 3.68589 3.75984 3.72305
# Velocity P-wave (km/s) = 7.18852 7.65762 7.42678
#
# Compressibility (1/GPa) = 0.01665907
#
# Stress axis : x y z
#
# Youngs Moduli (GPa) = 46.34025 73.05589 74.63697
#
# Poissons Ratio (x) = 0.35089 0.36354
# Poissons Ratio (y) = 0.22258 0.47242
# Poissons Ratio (z) = 0.22571 0.46241
#
# Static dielectric constant tensor:
#      x y z
#    x 3.152460 0.000000 0.000000 
#    y 0.000000 3.321740 0.000000 
#    z 0.000000 0.000000 3.398010 
# 
# 
# High freq. dielectric constant tensor:
#      x y z
#    x 1.679160 0.000000 0.000000 
#    y 0.000000 1.695160 0.000000 
#    z 0.000000 0.000000 1.690240 
# 
# From -- ./inp_files/63849.got.cif
#   From: 2010.06.25/outbox.cif.g09.slc.cpg/sg71_32_cif.got.tgz:63849.got - 2010.06.28 04:59:45.
