data_PCOD8289309
_publ_section_title
;
Structure prediction by ZEFSAII (Michael W. Deem and Ramdas Pophale) SiO2 
 PCOD8289309
Probable space group: I M M M
;
_chemical_formula_sum "Si O2"
_cell_formula_units_Z 88
_cell_length_a 30.750053
_cell_length_b 17.512708
_cell_length_c 8.520866
_cell_angle_alpha 90.000000
_cell_angle_beta 90.000000
_cell_angle_gamma 90.000000
_cell_volume 4588.628632
_symmetry_space_group_name_H-M "I M M M"
_symmetry_group_IT_number 71
_symmetry_cell_setting 'orthorhombic'
loop_
_space_group_symop_operation_xyz
x,y,z
-x,-y,z
x,-y,-z
-x,y,-z
-x,-y,-z
x,y,-z
-x,y,z
x,-y,z
1/2+x,1/2+y,1/2+z
1/2-x,1/2-y,1/2+z
1/2+x,1/2-y,1/2-z
1/2-x,1/2+y,1/2-z
1/2-x,1/2-y,1/2-z
1/2+x,1/2+y,1/2-z
1/2-x,1/2+y,1/2+z
1/2+x,1/2-y,1/2+z
loop_
_atom_site_type_symbol
_atom_site_label
_atom_site_fract_x
_atom_site_fract_y
_atom_site_fract_z
Si Si1 0.180378 0.584315 0.179277
Si Si2 0.549560 0.411705 0.815450
Si Si3 0.112941 0.785435 0.815001
Si Si4 0.703218 0.236444 0.819889
Si Si5 0.594028 0.127355 0.182574
Si Si6 0.548270 0.000000 0.331118
O O1 0.200176 0.500000 0.210788
O O2 0.198892 0.645553 0.300874
O O3 0.129357 0.583088 0.211875
O O4 0.189788 0.609548 0.000000
O O5 0.500000 0.389186 0.763712
O O6 0.558124 0.500000 0.771027
O O7 0.586825 0.361919 0.730943
O O8 0.554390 0.399207 0.000000
O O9 0.163893 0.783856 0.762258
O O10 0.087840 0.714899 0.735002
O O11 0.111962 0.776081 0.000000
O O12 0.750000 0.250000 0.750000
O O13 0.702149 0.260443 0.000000
O O14 0.552884 0.075982 0.222887
O O15 0.606348 0.126277 0.000000
O O16 0.500000 0.000000 0.386247
O O17 0.574350 0.000000 0.500000
#
# Coordination Sequence:
#
# PCOD8289309 Si02
#       6
#    16  16  16  16  16   8
#     4  10  19  33  56  81 108 140 179 224 273 329
#     4   9  19  38  63  89 118 153 195 245 301 360
#     4  11  22  37  59  86 117 153 193 236 290 349
#     4  11  22  38  59  83 116 151 192 240 291 349
#     4  11  21  34  54  77 105 141 185 229 273 329
#     4  11  23  37  51  71 105 145 183 229 283 329
#
# _framework density 19.177841999999998
#
# number of rings (size 3 to 8) (size 9 to 14) (size 15 to 20)
#    0.000    1.545    0.909    8.455    0.000    3.273 
#    0.000    1.818    0.000    5.455    0.000    0.000 
#    0.000    0.000    0.000    0.000    0.000    0.000 
#
# Total GULP energy -545138.339302 kJ/mol
# GULP energy per Si atom -12389.507711 kJ/mol
# Density = 1.913419 g / cm^3
# Si number density = 19.177842 Si / 1000 Ang^3
#
#
#
# Elastic Constant Matrix: (Units=GPa)
#
#
# Indices 1 2 3 4 5 6 
#
# 1 106.8778 56.7910 34.5111 0.0000 0.0000 0.0000
# 2 56.7910 103.0306 34.3386 0.0000 0.0000 0.0000
# 3 34.5111 34.3386 101.0586 0.0000 0.0000 0.0000
# 4 0.0000 0.0000 0.0000 32.2108 0.0000 0.0000
# 5 0.0000 0.0000 0.0000 0.0000 26.7588 0.0000
# 6 0.0000 0.0000 0.0000 0.0000 0.0000 9.2083
#
#
#
# Elastic Compliance Matrix: (Units=1/GPa)
#
#
# Indices 1 2 3 4 5 6 
#
# 1 0.013724 -0.006769 -0.002387 0.000000 0.000000 0.000000
# 2 -0.006769 0.014284 -0.002542 0.000000 0.000000 0.000000
# 3 -0.002387 -0.002542 0.011574 0.000000 0.000000 0.000000
# 4 0.000000 0.000000 0.000000 0.031046 0.000000 0.000000
# 5 0.000000 0.000000 0.000000 0.000000 0.037371 0.000000
# 6 0.000000 0.000000 0.000000 0.000000 0.000000 0.108598
#
#
# Mechanical properties :
#
#
# Convention : Reuss Voigt Hill
#
# Bulk Modulus (GPa) = 61.77932 62.47205 62.12568
# Shear Modulus (GPa) = 20.37590 25.99066 23.18328
#
# Velocity S-wave (km/s) = 3.26309 3.68536 3.48063
# Velocity P-wave (km/s) = 6.81769 7.12425 6.97266
#
# Compressibility (1/GPa) = 0.01618665
#
# Stress axis : x y z
#
# Youngs Moduli (GPa) = 72.86435 70.00656 86.40070
#
# Poissons Ratio (x) = 0.47390 0.20620
# Poissons Ratio (y) = 0.49325 0.21963
# Poissons Ratio (z) = 0.17390 0.17795
#
# Static dielectric constant tensor:
#      x y z
#    x 3.482060 0.000000 0.000000 
#    y 0.000000 3.176840 0.000000 
#    z 0.000000 0.000000 3.663630 
# 
# 
# High freq. dielectric constant tensor:
#      x y z
#    x 1.728190 0.000000 0.000000 
#    y 0.000000 1.744640 0.000000 
#    z 0.000000 0.000000 1.760610 
# 
# From -- ./inp_files/16708.got.cif
#   From: 2010.06.25/outbox.cif.g09.slc.cpg/sg71_9_cif.got.tgz:16708.got - 2010.06.28 04:59:45.
