data_PCOD8289967
_publ_section_title
;
Structure prediction by ZEFSAII (Michael W. Deem and Ramdas Pophale) SiO2 
 PCOD8289967
Probable space group: I M M M
;
_chemical_formula_sum "Si O2"
_cell_formula_units_Z 104
_cell_length_a 17.097772
_cell_length_b 9.764697
_cell_length_c 34.602025
_cell_angle_alpha 90.000000
_cell_angle_beta 90.000000
_cell_angle_gamma 90.000000
_cell_volume 5776.965961
_symmetry_space_group_name_H-M "I M M M"
_symmetry_group_IT_number 71
_symmetry_cell_setting 'orthorhombic'
loop_
_space_group_symop_operation_xyz
x,y,z
-x,-y,z
x,-y,-z
-x,y,-z
-x,-y,-z
x,y,-z
-x,y,z
x,-y,z
1/2+x,1/2+y,1/2+z
1/2-x,1/2-y,1/2+z
1/2+x,1/2-y,1/2-z
1/2-x,1/2+y,1/2-z
1/2-x,1/2-y,1/2-z
1/2+x,1/2+y,1/2-z
1/2-x,1/2+y,1/2+z
1/2+x,1/2-y,1/2+z
loop_
_atom_site_type_symbol
_atom_site_label
_atom_site_fract_x
_atom_site_fract_y
_atom_site_fract_z
Si Si1 0.000000 0.161844 0.043449
Si Si2 0.911917 0.846555 0.545530
Si Si3 0.909882 0.348923 0.172424
Si Si4 0.673646 0.160426 0.751265
Si Si5 0.186040 0.339495 0.401696
Si Si6 0.632686 0.339568 0.397777
Si Si7 0.912228 0.662098 0.671633
O O1 0.921607 0.209409 0.066290
O O2 0.000000 0.000000 0.039855
O O3 0.000000 0.225952 0.000000
O O4 0.905085 0.834970 0.500000
O O5 0.853653 0.736708 0.562953
O O6 0.000000 0.812372 0.558991
O O7 0.889340 0.000000 0.559040
O O8 0.880683 0.500000 0.158835
O O9 0.869858 0.304643 0.211922
O O10 0.893821 0.237264 0.140288
O O11 0.000000 0.354682 0.182239
O O12 0.750000 0.250000 0.750000
O O13 0.620654 0.210580 0.787120
O O14 0.694388 0.000000 0.755373
O O15 0.171718 0.500000 0.406879
O O16 0.277260 0.302968 0.404821
O O17 0.147229 0.286038 0.361739
O O18 0.620740 0.500000 0.390176
O O19 0.916770 0.500000 0.670423
O O20 0.000000 0.722623 0.665466
#
# Coordination Sequence:
#
# PCOD8289967 Si02
#       7
#     8  16  16  16  16  16  16
#     4   9  18  34  55  77 105 143 181 219 269 331
#     4   9  19  36  55  75 103 140 177 211 257 320
#     4  10  20  34  54  78 104 137 179 223 266 315
#     4  10  20  34  52  75 103 137 176 218 264 314
#     4  10  20  32  52  81 107 134 175 225 271 314
#     4  10  20  35  55  80 107 139 178 221 272 328
#     4   9  17  31  50  72 102 138 174 212 260 318
#
# _framework density 18.002528000000002
#
# number of rings (size 3 to 8) (size 9 to 14) (size 15 to 20)
#    0.000    2.385    0.769    2.308    0.000    6.154 
#    0.000    3.077    0.000    3.231    0.000    0.000 
#    0.000    0.000    0.000    0.000    0.000    0.000 
#
# Total GULP energy -644695.719147 kJ/mol
# GULP energy per Si atom -12397.994599 kJ/mol
# Density = 1.796155 g / cm^3
# Si number density = 18.002528 Si / 1000 Ang^3
#
#
#
# Elastic Constant Matrix: (Units=GPa)
#
#
# Indices 1 2 3 4 5 6 
#
# 1 148.3234 40.5396 77.0996 0.0000 0.0000 0.0000
# 2 40.5396 32.4645 42.0196 0.0000 0.0000 0.0000
# 3 77.0996 42.0196 115.9664 0.0000 0.0000 0.0000
# 4 0.0000 0.0000 0.0000 68.5403 0.0000 0.0000
# 5 0.0000 0.0000 0.0000 0.0000 26.3833 0.0000
# 6 0.0000 0.0000 0.0000 0.0000 0.0000 24.5570
#
#
#
# Elastic Compliance Matrix: (Units=1/GPa)
#
#
# Indices 1 2 3 4 5 6 
#
# 1 0.011383 -0.008322 -0.004553 0.000000 0.000000 0.000000
# 2 -0.008322 0.064092 -0.017690 0.000000 0.000000 0.000000
# 3 -0.004553 -0.017690 0.018060 0.000000 0.000000 0.000000
# 4 0.000000 0.000000 0.000000 0.014590 0.000000 0.000000
# 5 0.000000 0.000000 0.000000 0.000000 0.037903 0.000000
# 6 0.000000 0.000000 0.000000 0.000000 0.000000 0.040722
#
#
# Mechanical properties :
#
#
# Convention : Reuss Voigt Hill
#
# Bulk Modulus (GPa) = 30.85941 68.45242 49.65592
# Shear Modulus (GPa) = 19.32886 33.03583 26.18234
#
# Velocity S-wave (km/s) = 3.28025 4.28841 3.81776
# Velocity P-wave (km/s) = 5.61477 7.91372 6.86122
#
# Compressibility (1/GPa) = 0.03240502
#
# Stress axis : x y z
#
# Youngs Moduli (GPa) = 87.85027 15.60259 55.37128
#
# Poissons Ratio (x) = 0.12984 0.25208
# Poissons Ratio (y) = 0.73108 0.97954
# Poissons Ratio (z) = 0.39994 0.27602
#
# Static dielectric constant tensor:
#      x y z
#    x 3.511620 0.000000 0.000000 
#    y 0.000000 3.259340 0.000000 
#    z 0.000000 0.000000 3.423500 
# 
# 
# High freq. dielectric constant tensor:
#      x y z
#    x 1.709340 0.000000 0.000000 
#    y 0.000000 1.671180 0.000000 
#    z 0.000000 0.000000 1.702850 
# 
# From -- ./inp_files/69945.got.cif
#   From: 2010.06.25/outbox.cif.g09.slc.cpg/sg71_35_cif.got.tgz:69945.got - 2010.06.28 04:59:45.
