data_PCOD8289779
_publ_section_title
;
Structure prediction by ZEFSAII (Michael W. Deem and Ramdas Pophale) SiO2 
 PCOD8289779
Probable space group: I M M M
;
_chemical_formula_sum "Si O2"
_cell_formula_units_Z 96
_cell_length_a 26.442835
_cell_length_b 28.144365
_cell_length_c 9.526199
_cell_angle_alpha 90.000000
_cell_angle_beta 90.000000
_cell_angle_gamma 90.000000
_cell_volume 7089.557335
_symmetry_space_group_name_H-M "I M M M"
_symmetry_group_IT_number 71
_symmetry_cell_setting 'orthorhombic'
loop_
_space_group_symop_operation_xyz
x,y,z
-x,-y,z
x,-y,-z
-x,y,-z
-x,-y,-z
x,y,-z
-x,y,z
x,-y,z
1/2+x,1/2+y,1/2+z
1/2-x,1/2-y,1/2+z
1/2+x,1/2-y,1/2-z
1/2-x,1/2+y,1/2-z
1/2-x,1/2-y,1/2-z
1/2+x,1/2+y,1/2-z
1/2-x,1/2+y,1/2+z
1/2+x,1/2-y,1/2+z
loop_
_atom_site_type_symbol
_atom_site_label
_atom_site_fract_x
_atom_site_fract_y
_atom_site_fract_z
Si Si1 0.398507 0.946091 0.662053
Si Si2 0.147438 0.298261 0.336556
Si Si3 0.756385 0.362477 0.658370
Si Si4 0.057150 0.364493 0.338937
Si Si5 0.782379 0.553240 0.836234
Si Si6 0.703405 0.270250 0.663511
O O1 0.404195 0.932193 0.500000
O O2 0.434032 0.911944 0.750911
O O3 0.340503 0.940434 0.709843
O O4 0.416622 0.000000 0.687481
O O5 0.149280 0.283355 0.500000
O O6 0.192217 0.334984 0.300069
O O7 0.094366 0.321979 0.293374
O O8 0.153426 0.251053 0.239107
O O9 0.760839 0.381011 0.500000
O O10 0.748258 0.408362 0.755581
O O11 0.707715 0.327585 0.674715
O O12 0.067544 0.377891 0.500000
O O13 0.000000 0.346615 0.314811
O O14 0.764004 0.500000 0.798128
O O15 0.776125 0.562619 0.000000
O O16 0.705787 0.254539 0.500000
O O17 0.750000 0.250000 0.750000
#
# Coordination Sequence:
#
# PCOD8289779 Si02
#       6
#    16  16  16  16  16  16
#     4   9  18  31  43  55  72  95 126 165 205 241
#     4   9  17  29  41  56  76  96 123 157 193 234
#     4   9  16  26  40  58  76  95 122 154 186 225
#     4  10  20  32  44  57  74  97 127 165 205 241
#     4   9  17  27  39  56  76  99 127 156 189 228
#     4   9  17  27  40  59  79  97 119 149 188 229
#
# _framework density 13.541043
#
# number of rings (size 3 to 8) (size 9 to 14) (size 15 to 20)
#    0.000    2.833    1.667    2.500    0.000    5.333 
#    0.000    3.333    0.000    0.000    0.000    0.000 
#    0.000    0.000    0.000    0.000    0.000    0.833 
#
# Total GULP energy -594957.534909 kJ/mol
# GULP energy per Si atom -12394.948644 kJ/mol
# Density = 1.351022 g / cm^3
# Si number density = 13.541043 Si / 1000 Ang^3
#
#
#
# Elastic Constant Matrix: (Units=GPa)
#
#
# Indices 1 2 3 4 5 6 
#
# 1 47.5849 43.5576 30.7587 0.0000 0.0000 0.0000
# 2 43.5576 86.5977 51.5810 0.0000 0.0000 0.0000
# 3 30.7587 51.5810 64.8983 0.0000 0.0000 0.0000
# 4 0.0000 0.0000 0.0000 28.6838 0.0000 0.0000
# 5 0.0000 0.0000 0.0000 0.0000 15.3435 0.0000
# 6 0.0000 0.0000 0.0000 0.0000 0.0000 19.6701
#
#
#
# Elastic Compliance Matrix: (Units=1/GPa)
#
#
# Indices 1 2 3 4 5 6 
#
# 1 0.040004 -0.016765 -0.005635 0.000000 0.000000 0.000000
# 2 -0.016765 0.028955 -0.015068 0.000000 0.000000 0.000000
# 3 -0.005635 -0.015068 0.030055 0.000000 0.000000 0.000000
# 4 0.000000 0.000000 0.000000 0.034863 0.000000 0.000000
# 5 0.000000 0.000000 0.000000 0.000000 0.065174 0.000000
# 6 0.000000 0.000000 0.000000 0.000000 0.000000 0.050839
#
#
# Mechanical properties :
#
#
# Convention : Reuss Voigt Hill
#
# Bulk Modulus (GPa) = 41.53062 50.09727 45.81395
# Shear Modulus (GPa) = 15.02173 17.61839 16.32006
#
# Velocity S-wave (km/s) = 3.33430 3.61100 3.47541
# Velocity P-wave (km/s) = 6.74983 7.37989 7.07188
#
# Compressibility (1/GPa) = 0.02407862
#
# Stress axis : x y z
#
# Youngs Moduli (GPa) = 24.99779 34.53621 33.27201
#
# Poissons Ratio (x) = 0.57899 0.18749
# Poissons Ratio (y) = 0.41908 0.50133
# Poissons Ratio (z) = 0.14086 0.52038
#
# Static dielectric constant tensor:
#      x y z
#    x 2.537960 0.000000 0.000000 
#    y 0.000000 2.798100 0.000000 
#    z 0.000000 0.000000 2.771450 
# 
# 
# High freq. dielectric constant tensor:
#      x y z
#    x 1.466680 0.000000 0.000000 
#    y 0.000000 1.505340 0.000000 
#    z 0.000000 0.000000 1.525590 
# 
# From -- ./inp_files/13139.got.cif
#   From: 2010.06.25/outbox.cif.g09.slc.cpg/sg71_7_cif.got.tgz:13139.got - 2010.06.28 04:59:45.
