data_PCOD8289814
_publ_section_title
;
Structure prediction by ZEFSAII (Michael W. Deem and Ramdas Pophale) SiO2 
 PCOD8289814
Probable space group: I M M M
;
_chemical_formula_sum "Si O2"
_cell_formula_units_Z 88
_cell_length_a 30.627941
_cell_length_b 19.730371
_cell_length_c 8.770207
_cell_angle_alpha 90.000000
_cell_angle_beta 90.000000
_cell_angle_gamma 90.000000
_cell_volume 5299.841693
_symmetry_space_group_name_H-M "I M M M"
_symmetry_group_IT_number 71
_symmetry_cell_setting 'orthorhombic'
loop_
_space_group_symop_operation_xyz
x,y,z
-x,-y,z
x,-y,-z
-x,y,-z
-x,-y,-z
x,y,-z
-x,y,z
x,-y,z
1/2+x,1/2+y,1/2+z
1/2-x,1/2-y,1/2+z
1/2+x,1/2-y,1/2-z
1/2-x,1/2+y,1/2-z
1/2-x,1/2-y,1/2-z
1/2+x,1/2+y,1/2-z
1/2-x,1/2+y,1/2+z
1/2+x,1/2-y,1/2+z
loop_
_atom_site_type_symbol
_atom_site_label
_atom_site_fract_x
_atom_site_fract_y
_atom_site_fract_z
Si Si1 0.551557 0.500000 0.665758
Si Si2 0.293191 0.782526 0.677035
Si Si3 0.130605 0.800130 0.322564
Si Si4 0.549329 0.352388 0.681920
Si Si5 0.672067 0.575913 0.673731
Si Si6 0.262405 0.073873 0.327271
O O1 0.500000 0.500000 0.642357
O O2 0.574535 0.500000 0.500000
O O3 0.563542 0.427918 0.745709
O O4 0.292181 0.763768 0.500000
O O5 0.250000 0.750000 0.750000
O O6 0.337616 0.754859 0.748269
O O7 0.294902 0.863721 0.705206
O O8 0.128645 0.785349 0.500000
O O9 0.081670 0.796119 0.253028
O O10 0.147864 0.875261 0.289870
O O11 0.553088 0.352182 0.500000
O O12 0.500000 0.334512 0.732991
O O13 0.665095 0.600514 0.500000
O O14 0.653272 0.500000 0.697240
O O15 0.723249 0.578114 0.708088
O O16 0.243895 0.080715 0.500000
O O17 0.285909 0.000000 0.307823
#
# Coordination Sequence:
#
# PCOD8289814 Si02
#       6
#     8  16  16  16  16  16
#     4   7  12  26  49  71  89 115 153 201 253 295
#     4  11  21  34  52  73 100 131 165 203 245 295
#     4  12  24  34  47  69  99 134 167 204 247 293
#     4   9  18  34  53  71  92 121 162 209 253 296
#     4  10  20  32  47  67  92 126 169 211 248 291
#     4   9  18  33  52  72  95 124 159 204 253 293
#
# _framework density 16.60427
#
# number of rings (size 3 to 8) (size 9 to 14) (size 15 to 20)
#    0.000    2.091    1.818    3.818    1.273    2.182 
#    0.000    0.000    0.000    1.636    0.000    0.000 
#    0.000    0.727    0.000    8.364    0.000    2.364 
#
# Total GULP energy -545236.312014 kJ/mol
# GULP energy per Si atom -12391.734364 kJ/mol
# Density = 1.656648 g / cm^3
# Si number density = 16.604270 Si / 1000 Ang^3
#
#
#
# Elastic Constant Matrix: (Units=GPa)
#
#
# Indices 1 2 3 4 5 6 
#
# 1 96.7626 53.5115 34.9586 0.0000 0.0000 0.0000
# 2 53.5115 94.9173 32.1549 0.0000 0.0000 0.0000
# 3 34.9586 32.1549 72.4912 0.0000 0.0000 0.0000
# 4 0.0000 0.0000 0.0000 17.1628 0.0000 0.0000
# 5 0.0000 0.0000 0.0000 0.0000 22.7342 0.0000
# 6 0.0000 0.0000 0.0000 0.0000 0.0000 29.7869
#
#
#
# Elastic Compliance Matrix: (Units=1/GPa)
#
#
# Indices 1 2 3 4 5 6 
#
# 1 0.016130 -0.007601 -0.004407 0.000000 0.000000 0.000000
# 2 -0.007601 0.015980 -0.003423 0.000000 0.000000 0.000000
# 3 -0.004407 -0.003423 0.017438 0.000000 0.000000 0.000000
# 4 0.000000 0.000000 0.000000 0.058265 0.000000 0.000000
# 5 0.000000 0.000000 0.000000 0.000000 0.043987 0.000000
# 6 0.000000 0.000000 0.000000 0.000000 0.000000 0.033572
#
#
# Mechanical properties :
#
#
# Convention : Reuss Voigt Hill
#
# Bulk Modulus (GPa) = 53.51304 56.15789 54.83546
# Shear Modulus (GPa) = 22.47563 23.50653 22.99108
#
# Velocity S-wave (km/s) = 3.68313 3.76665 3.72512
# Velocity P-wave (km/s) = 7.09829 7.26716 7.18322
#
# Compressibility (1/GPa) = 0.01868704
#
# Stress axis : x y z
#
# Youngs Moduli (GPa) = 61.99577 62.57796 57.34446
#
# Poissons Ratio (x) = 0.47563 0.25273
# Poissons Ratio (y) = 0.47121 0.19628
# Poissons Ratio (z) = 0.27323 0.21420
#
# Static dielectric constant tensor:
#      x y z
#    x 3.107500 0.000000 0.000000 
#    y 0.000000 3.273590 0.000000 
#    z 0.000000 0.000000 3.092870 
# 
# 
# High freq. dielectric constant tensor:
#      x y z
#    x 1.619180 0.000000 0.000000 
#    y 0.000000 1.619210 0.000000 
#    z 0.000000 0.000000 1.635520 
# 
# From -- ./inp_files/16634.got.cif
#   From: 2010.06.25/outbox.cif.g09.slc.cpg/sg71_9_cif.got.tgz:16634.got - 2010.06.28 04:59:45.
