data_PCOD8289920
_publ_section_title
;
Structure prediction by ZEFSAII (Michael W. Deem and Ramdas Pophale) SiO2 
 PCOD8289920
Probable space group: I M M M
;
_chemical_formula_sum "Si O2"
_cell_formula_units_Z 88
_cell_length_a 9.028452
_cell_length_b 18.190070
_cell_length_c 27.731587
_cell_angle_alpha 90.000000
_cell_angle_beta 90.000000
_cell_angle_gamma 90.000000
_cell_volume 4554.307892
_symmetry_space_group_name_H-M "I M M M"
_symmetry_group_IT_number 71
_symmetry_cell_setting 'orthorhombic'
loop_
_space_group_symop_operation_xyz
x,y,z
-x,-y,z
x,-y,-z
-x,y,-z
-x,-y,-z
x,y,-z
-x,y,z
x,-y,z
1/2+x,1/2+y,1/2+z
1/2-x,1/2-y,1/2+z
1/2+x,1/2-y,1/2-z
1/2-x,1/2+y,1/2-z
1/2-x,1/2-y,1/2-z
1/2+x,1/2+y,1/2-z
1/2-x,1/2+y,1/2+z
1/2+x,1/2-y,1/2+z
loop_
_atom_site_type_symbol
_atom_site_label
_atom_site_fract_x
_atom_site_fract_y
_atom_site_fract_z
Si Si1 0.168530 0.587077 0.000000
Si Si2 0.828727 0.329407 0.709543
Si Si3 0.824914 0.913826 0.401249
Si Si4 0.674257 0.814376 0.319740
Si Si5 0.839057 0.085218 0.859179
Si Si6 0.664925 0.087532 0.052622
O O1 0.253193 0.613910 0.951654
O O2 0.167934 0.500000 0.000000
O O3 0.000000 0.617650 0.000000
O O4 0.735818 0.268407 0.679735
O O5 0.789481 0.340531 0.765393
O O6 0.776444 0.404446 0.684543
O O7 0.000000 0.311890 0.702268
O O8 0.757049 0.867249 0.357229
O O9 0.000000 0.899993 0.403882
O O10 0.789743 0.000000 0.392226
O O11 0.500000 0.815901 0.331163
O O12 0.774484 0.122112 0.907889
O O13 0.000000 0.120298 0.847857
O O14 0.857188 0.000000 0.868277
O O15 0.500000 0.118371 0.061990
O O16 0.660550 0.000000 0.055953
O O17 0.721590 0.112614 0.000000
#
# Coordination Sequence:
#
# PCOD8289920 Si02
#       6
#     8  16  16  16  16  16
#     4   9  17  31  53  81 113 147 182 221 266 317
#     4  10  21  37  56  76 102 139 180 221 268 323
#     4  10  20  34  55  84 116 148 182 221 267 322
#     4  10  21  37  57  79 104 138 179 221 267 321
#     4  10  20  32  49  75 105 136 171 215 264 311
#     4   8  14  26  45  68  94 126 164 204 248 300
#
# _framework density 19.322365000000001
#
# number of rings (size 3 to 8) (size 9 to 14) (size 15 to 20)
#    0.000    2.455    0.000    3.000    0.000    6.545 
#    0.000    5.455    2.000    0.000    0.000    0.000 
#    0.000    0.000    0.000    0.000    0.000    0.000 
#
# Total GULP energy -545289.118725 kJ/mol
# GULP energy per Si atom -12392.934516 kJ/mol
# Density = 1.927839 g / cm^3
# Si number density = 19.322365 Si / 1000 Ang^3
#
#
#
# Elastic Constant Matrix: (Units=GPa)
#
#
# Indices 1 2 3 4 5 6 
#
# 1 124.1093 37.1627 80.2706 0.0000 0.0000 0.0000
# 2 37.1627 30.0431 45.6177 0.0000 0.0000 0.0000
# 3 80.2706 45.6177 144.1868 0.0000 0.0000 0.0000
# 4 0.0000 0.0000 0.0000 23.4208 0.0000 0.0000
# 5 0.0000 0.0000 0.0000 0.0000 38.1542 0.0000
# 6 0.0000 0.0000 0.0000 0.0000 0.0000 27.0622
#
#
#
# Elastic Compliance Matrix: (Units=1/GPa)
#
#
# Indices 1 2 3 4 5 6 
#
# 1 0.014174 -0.010684 -0.004511 0.000000 0.000000 0.000000
# 2 -0.010684 0.072112 -0.016867 0.000000 0.000000 0.000000
# 3 -0.004511 -0.016867 0.014783 0.000000 0.000000 0.000000
# 4 0.000000 0.000000 0.000000 0.042697 0.000000 0.000000
# 5 0.000000 0.000000 0.000000 0.000000 0.026209 0.000000
# 6 0.000000 0.000000 0.000000 0.000000 0.000000 0.036952
#
#
# Mechanical properties :
#
#
# Convention : Reuss Voigt Hill
#
# Bulk Modulus (GPa) = 27.06648 69.38237 48.22442
# Shear Modulus (GPa) = 17.64506 26.74666 22.19586
#
# Velocity S-wave (km/s) = 3.02519 3.72456 3.39294
# Velocity P-wave (km/s) = 5.12256 7.38121 6.35307
#
# Compressibility (1/GPa) = 0.03694607
#
# Stress axis : x y z
#
# Youngs Moduli (GPa) = 70.55216 13.86731 67.64560
#
# Poissons Ratio (x) = 0.14816 0.30513
# Poissons Ratio (y) = 0.75377 1.14097
# Poissons Ratio (z) = 0.31824 0.23390
#
# Static dielectric constant tensor:
#      x y z
#    x 3.866910 0.000000 0.000000 
#    y 0.000000 3.167230 0.000000 
#    z 0.000000 0.000000 3.745190 
# 
# 
# High freq. dielectric constant tensor:
#      x y z
#    x 1.767620 0.000000 0.000000 
#    y 0.000000 1.709110 0.000000 
#    z 0.000000 0.000000 1.764510 
# 
# From -- ./inp_files/50499.got.cif
#   From: 2010.06.25/outbox.cif.g09.slc.cpg/sg71_26_cif.got.tgz:50499.got - 2010.06.28 04:59:45.
