data_PCOD8289189
_publ_section_title
;
Structure prediction by ZEFSAII (Michael W. Deem and Ramdas Pophale) SiO2 
 PCOD8289189
Probable space group: I M M M
;
_chemical_formula_sum "Si O2"
_cell_formula_units_Z 104
_cell_length_a 18.614399
_cell_length_b 9.674180
_cell_length_c 29.845784
_cell_angle_alpha 90.000000
_cell_angle_beta 90.000000
_cell_angle_gamma 90.000000
_cell_volume 5374.600325
_symmetry_space_group_name_H-M "I M M M"
_symmetry_group_IT_number 71
_symmetry_cell_setting 'orthorhombic'
loop_
_space_group_symop_operation_xyz
x,y,z
-x,-y,z
x,-y,-z
-x,y,-z
-x,-y,-z
x,y,-z
-x,y,z
x,-y,z
1/2+x,1/2+y,1/2+z
1/2-x,1/2-y,1/2+z
1/2+x,1/2-y,1/2-z
1/2-x,1/2+y,1/2-z
1/2-x,1/2-y,1/2-z
1/2+x,1/2+y,1/2-z
1/2-x,1/2+y,1/2+z
1/2+x,1/2-y,1/2+z
loop_
_atom_site_type_symbol
_atom_site_label
_atom_site_fract_x
_atom_site_fract_y
_atom_site_fract_z
Si Si1 0.833366 0.338598 0.703073
Si Si2 0.332381 0.659553 0.710543
Si Si3 0.921484 0.500000 0.552741
Si Si4 0.311764 0.659165 0.449408
Si Si5 0.342179 0.272386 0.948567
Si Si6 0.582790 0.349202 0.865340
Si Si7 0.579650 0.663628 0.375511
O O1 0.854917 0.500000 0.706768
O O2 0.748908 0.321625 0.693261
O O3 0.852180 0.260569 0.748983
O O4 0.877725 0.267740 0.663466
O O5 0.345782 0.500000 0.724670
O O6 0.383947 0.708426 0.670750
O O7 0.929068 0.500000 0.500000
O O8 0.877323 0.369143 0.568263
O O9 0.000000 0.500000 0.575477
O O10 0.340893 0.668001 0.500000
O O11 0.290880 0.500000 0.437834
O O12 0.243212 0.757971 0.443527
O O13 0.373549 0.718296 0.417197
O O14 0.376549 0.376764 0.912969
O O15 0.362006 0.312798 0.000000
O O16 0.500000 0.304969 0.873046
O O17 0.586064 0.500000 0.841266
O O18 0.500000 0.728970 0.378187
O O19 0.575026 0.500000 0.378450
#
# Coordination Sequence:
#
# PCOD8289189 Si02
#       7
#    16  16   8  16  16  16  16
#     4  10  21  37  59  84 107 138 181 227 273 325
#     4   9  18  35  58  82 111 143 177 222 274 327
#     4   9  16  26  44  72  99 125 165 217 266 312
#     4   9  16  28  47  74 109 143 177 222 271 312
#     4  10  19  33  53  75 101 138 183 226 270 323
#     4  11  25  40  53  75 110 148 181 221 277 331
#     4   9  17  28  46  74 106 144 184 216 257 319
#
# _framework density 19.350276000000001
#
# number of rings (size 3 to 8) (size 9 to 14) (size 15 to 20)
#    0.000    2.385    0.769    1.846    1.077    4.308 
#    0.000    3.846    0.000    0.000    0.000    0.000 
#    0.000    0.000    0.000    9.385    0.000    2.769 
#
# Total GULP energy -644557.823617 kJ/mol
# GULP energy per Si atom -12395.342762 kJ/mol
# Density = 1.930623 g / cm^3
# Si number density = 19.350276 Si / 1000 Ang^3
#
#
#
# Elastic Constant Matrix: (Units=GPa)
#
#
# Indices 1 2 3 4 5 6 
#
# 1 126.1089 32.8552 79.3901 0.0000 0.0000 0.0000
# 2 32.8552 79.0140 44.1687 0.0000 0.0000 0.0000
# 3 79.3901 44.1687 125.1601 0.0000 0.0000 0.0000
# 4 0.0000 0.0000 0.0000 23.5028 0.0000 0.0000
# 5 0.0000 0.0000 0.0000 0.0000 25.7107 0.0000
# 6 0.0000 0.0000 0.0000 0.0000 0.0000 0.0132
#
#
#
# Elastic Compliance Matrix: (Units=1/GPa)
#
#
# Indices 1 2 3 4 5 6 
#
# 1 0.013266 -0.001012 -0.008057 0.000000 0.000000 0.000000
# 2 -0.001012 0.015843 -0.004949 0.000000 0.000000 0.000000
# 3 -0.008057 -0.004949 0.014847 0.000000 0.000000 0.000000
# 4 0.000000 0.000000 0.000000 0.042548 0.000000 0.000000
# 5 0.000000 0.000000 0.000000 0.000000 0.038894 0.000000
# 6 0.000000 0.000000 0.000000 0.000000 0.000000 75.903761
#
#
# Mechanical properties :
#
#
# Convention : Reuss Voigt Hill
#
# Bulk Modulus (GPa) = 62.81755 71.45677 67.13716
# Shear Modulus (GPa) = 0.06574 21.43661 10.75117
#
# Velocity S-wave (km/s) = 0.18451 3.33200 2.35969
# Velocity P-wave (km/s) = 5.70782 7.19800 6.49579
#
# Compressibility (1/GPa) = 0.01591912
#
# Stress axis : x y z
#
# Youngs Moduli (GPa) = 75.38202 63.11785 67.35262
#
# Poissons Ratio (x) = 0.06388 0.54269
# Poissons Ratio (y) = 0.07629 0.33334
# Poissons Ratio (z) = 0.60739 0.31238
#
# Static dielectric constant tensor:
#      x y z
#    x 3.649760 0.000000 0.000000 
#    y 0.000000 4.374800 0.000000 
#    z 0.000000 0.000000 3.491400 
# 
# 
# High freq. dielectric constant tensor:
#      x y z
#    x 1.752410 0.000000 0.000000 
#    y 0.000000 1.723990 0.000000 
#    z 0.000000 0.000000 1.754510 
# 
# From -- ./inp_files/70495.got.cif
#   From: 2010.06.25/outbox.cif.g09.slc.cpg/sg71_36_cif.got.tgz:70495.got - 2010.06.28 04:59:45.
