data_PCOD8289554
_publ_section_title
;
Structure prediction by ZEFSAII (Michael W. Deem and Ramdas Pophale) SiO2 
 PCOD8289554
Probable space group: I M M M
;
_chemical_formula_sum "Si O2"
_cell_formula_units_Z 104
_cell_length_a 9.335914
_cell_length_b 29.454537
_cell_length_c 20.723977
_cell_angle_alpha 90.000000
_cell_angle_beta 90.000000
_cell_angle_gamma 90.000000
_cell_volume 5698.783320
_symmetry_space_group_name_H-M "I M M M"
_symmetry_group_IT_number 71
_symmetry_cell_setting 'orthorhombic'
loop_
_space_group_symop_operation_xyz
x,y,z
-x,-y,z
x,-y,-z
-x,y,-z
-x,-y,-z
x,y,-z
-x,y,z
x,-y,z
1/2+x,1/2+y,1/2+z
1/2-x,1/2-y,1/2+z
1/2+x,1/2-y,1/2-z
1/2-x,1/2+y,1/2-z
1/2-x,1/2-y,1/2-z
1/2+x,1/2+y,1/2-z
1/2-x,1/2+y,1/2+z
1/2+x,1/2-y,1/2+z
loop_
_atom_site_type_symbol
_atom_site_label
_atom_site_fract_x
_atom_site_fract_y
_atom_site_fract_z
Si Si1 0.830545 0.713506 0.071556
Si Si2 0.661098 0.552257 0.926376
Si Si3 0.668646 0.875601 0.354688
Si Si4 0.339146 0.053772 0.000000
Si Si5 0.665248 0.728955 0.309760
Si Si6 0.833339 0.052348 0.124679
Si Si7 0.663536 0.371214 0.725336
O O1 0.784024 0.663827 0.096105
O O2 0.773997 0.750641 0.122945
O O3 0.000000 0.716585 0.066611
O O4 0.763782 0.721836 0.000000
O O5 0.500000 0.570829 0.915896
O O6 0.667059 0.500000 0.906770
O O7 0.771762 0.577169 0.880446
O O8 0.708887 0.559189 0.000000
O O9 0.500000 0.879070 0.347517
O O10 0.732240 0.865655 0.285091
O O11 0.256004 0.070237 0.936449
O O12 0.500000 0.073928 0.000000
O O13 0.342912 0.000000 0.000000
O O14 0.500000 0.743371 0.300165
O O15 0.750000 0.750000 0.250000
O O16 0.681311 0.674755 0.316027
O O17 0.791136 0.084757 0.184043
O O18 0.000000 0.057333 0.107081
O O19 0.796434 0.000000 0.142668
O O20 0.500000 0.376710 0.749328
#
# Coordination Sequence:
#
# PCOD8289554 Si02
#       7
#    16  16  16   8  16  16  16
#     4   9  18  33  53  78 106 137 175 221 273 323
#     4   9  19  36  55  75 104 142 179 218 267 318
#     4  11  21  33  53  79 107 142 180 222 269 320
#     4   9  17  31  53  79 105 137 175 215 265 321
#     4  10  19  35  57  79 106 141 180 224 271 323
#     4   9  18  34  54  76 105 140 178 221 267 316
#     4  10  21  35  53  79 106 141 186 225 265 320
#
# _framework density 18.249507999999999
#
# number of rings (size 3 to 8) (size 9 to 14) (size 15 to 20)
#    0.000    2.385    1.538    1.615    0.000    3.385 
#    1.385    2.308    0.000    1.385    0.000    0.000 
#    0.000    0.000    0.000    0.000    0.000    0.000 
#
# Total GULP energy -644758.625952 kJ/mol
# GULP energy per Si atom -12399.204345 kJ/mol
# Density = 1.820797 g / cm^3
# Si number density = 18.249508 Si / 1000 Ang^3
#
#
#
# Elastic Constant Matrix: (Units=GPa)
#
#
# Indices 1 2 3 4 5 6 
#
# 1 66.6541 34.6046 50.0171 0.0000 0.0000 0.0000
# 2 34.6046 88.0734 56.7317 -0.0001 0.0000 0.0000
# 3 50.0171 56.7317 141.9616 -0.0003 0.0001 0.0000
# 4 0.0000 -0.0001 -0.0003 33.5652 0.0000 0.0000
# 5 0.0000 0.0000 0.0001 0.0000 29.7150 0.0000
# 6 0.0000 0.0000 0.0000 0.0000 0.0000 20.5511
#
#
#
# Elastic Compliance Matrix: (Units=1/GPa)
#
#
# Indices 1 2 3 4 5 6 
#
# 1 0.021851 -0.004883 -0.005747 0.000000 0.000000 0.000000
# 2 -0.004883 0.016381 -0.004826 0.000000 0.000000 0.000000
# 3 -0.005747 -0.004826 0.010998 0.000000 0.000000 0.000000
# 4 0.000000 0.000000 0.000000 0.029793 0.000000 0.000000
# 5 0.000000 0.000000 0.000000 0.000000 0.033653 0.000000
# 6 0.000000 0.000000 0.000000 0.000000 0.000000 0.048659
#
#
# Mechanical properties :
#
#
# Convention : Reuss Voigt Hill
#
# Bulk Modulus (GPa) = 54.59408 64.37731 59.48569
# Shear Modulus (GPa) = 25.20754 27.12195 26.16475
#
# Velocity S-wave (km/s) = 3.72058 3.85928 3.79056
# Velocity P-wave (km/s) = 6.95969 7.43044 7.19891
#
# Compressibility (1/GPa) = 0.01831700
#
# Stress axis : x y z
#
# Youngs Moduli (GPa) = 45.76505 61.04466 90.92896
#
# Poissons Ratio (x) = 0.29810 0.52258
# Poissons Ratio (y) = 0.22349 0.43882
# Poissons Ratio (z) = 0.26302 0.29460
#
# Static dielectric constant tensor:
#      x y z
#    x 3.274920 0.000000 0.000000 
#    y 0.000000 3.406130 0.000000 
#    z 0.000000 0.000000 3.479890 
# 
# 
# High freq. dielectric constant tensor:
#      x y z
#    x 1.691020 0.000000 0.000000 
#    y 0.000000 1.705600 0.000000 
#    z 0.000000 0.000000 1.708160 
# 
# From -- ./inp_files/16971.got.cif
#   From: 2010.06.25/outbox.cif.g09.slc.cpg/sg71_9_cif.got.tgz:16971.got - 2010.06.28 04:59:45.
