data_PCOD8289722
_publ_section_title
;
Structure prediction by ZEFSAII (Michael W. Deem and Ramdas Pophale) SiO2 
 PCOD8289722
Probable space group: I M M M
;
_chemical_formula_sum "Si O2"
_cell_formula_units_Z 88
_cell_length_a 8.958351
_cell_length_b 30.265854
_cell_length_c 19.861748
_cell_angle_alpha 90.000000
_cell_angle_beta 90.000000
_cell_angle_gamma 90.000000
_cell_volume 5385.158308
_symmetry_space_group_name_H-M "I M M M"
_symmetry_group_IT_number 71
_symmetry_cell_setting 'orthorhombic'
loop_
_space_group_symop_operation_xyz
x,y,z
-x,-y,z
x,-y,-z
-x,y,-z
-x,-y,-z
x,y,-z
-x,y,z
x,-y,z
1/2+x,1/2+y,1/2+z
1/2-x,1/2-y,1/2+z
1/2+x,1/2-y,1/2-z
1/2-x,1/2+y,1/2-z
1/2-x,1/2-y,1/2-z
1/2+x,1/2+y,1/2-z
1/2-x,1/2+y,1/2+z
1/2+x,1/2-y,1/2+z
loop_
_atom_site_type_symbol
_atom_site_label
_atom_site_fract_x
_atom_site_fract_y
_atom_site_fract_z
Si Si1 0.673317 0.950578 0.134308
Si Si2 0.332834 0.447523 0.500000
Si Si3 0.169037 0.236784 0.573019
Si Si4 0.327139 0.292606 0.216695
Si Si5 0.828349 0.635516 0.699380
Si Si6 0.170514 0.826774 0.924792
O O1 0.500000 0.951612 0.115550
O O2 0.756062 0.930944 0.068601
O O3 0.701682 0.917657 0.198022
O O4 0.729734 0.000000 0.153667
O O5 0.326742 0.500000 0.500000
O O6 0.500000 0.428713 0.500000
O O7 0.184042 0.212078 0.500000
O O8 0.201571 0.204839 0.636299
O O9 0.290049 0.275264 0.574602
O O10 0.000000 0.255836 0.580347
O O11 0.500000 0.288809 0.234742
O O12 0.250000 0.250000 0.250000
O O13 0.267467 0.339017 0.245090
O O14 0.786376 0.650494 0.624603
O O15 0.000000 0.646642 0.713653
O O16 0.000000 0.831932 0.899532
O O17 0.188808 0.847081 0.000000
#
# Coordination Sequence:
#
# PCOD8289722 Si02
#       6
#    16   8  16  16  16  16
#     4   9  19  35  50  64  86 120 162 201 238 285
#     4   9  17  29  47  69  91 117 151 199 253 289
#     4   9  18  33  51  68  89 122 160 194 230 276
#     4  11  21  33  50  71  98 127 156 194 234 280
#     4  11  22  33  48  68  91 125 161 198 242 286
#     4  10  20  31  44  65  92 123 160 202 240 277
#
# _framework density 16.341208999999999
#
# number of rings (size 3 to 8) (size 9 to 14) (size 15 to 20)
#    0.000    2.091    1.818    1.909    1.273    4.364 
#    0.000    0.000    0.000    0.000    0.000    0.000 
#    0.000    0.727    0.000    9.091    0.000    0.000 
#
# Total GULP energy -545280.998687 kJ/mol
# GULP energy per Si atom -12392.749970 kJ/mol
# Density = 1.630402 g / cm^3
# Si number density = 16.341209 Si / 1000 Ang^3
#
#
#
# Elastic Constant Matrix: (Units=GPa)
#
#
# Indices 1 2 3 4 5 6 
#
# 1 68.4895 26.4789 30.7114 -0.0002 0.0000 0.0000
# 2 26.4789 67.3265 44.6609 -0.0001 0.0000 0.0000
# 3 30.7114 44.6609 99.4967 -0.0008 0.0000 0.0000
# 4 -0.0002 -0.0001 -0.0008 26.1765 0.0000 0.0000
# 5 0.0000 0.0000 0.0000 0.0000 22.3968 -0.0001
# 6 0.0000 0.0000 0.0000 0.0000 -0.0001 18.4900
#
#
#
# Elastic Compliance Matrix: (Units=1/GPa)
#
#
# Indices 1 2 3 4 5 6 
#
# 1 0.017985 -0.004829 -0.003384 0.000000 0.000000 0.000000
# 2 -0.004829 0.022447 -0.008585 0.000000 0.000000 0.000000
# 3 -0.003384 -0.008585 0.014949 0.000000 0.000000 0.000000
# 4 0.000000 0.000000 0.000000 0.038202 0.000000 0.000000
# 5 0.000000 0.000000 0.000000 0.000000 0.044649 0.000000
# 6 0.000000 0.000000 0.000000 0.000000 0.000000 0.054083
#
#
# Mechanical properties :
#
#
# Convention : Reuss Voigt Hill
#
# Bulk Modulus (GPa) = 45.90305 48.77945 47.34125
# Shear Modulus (GPa) = 21.44330 22.31010 21.87670
#
# Velocity S-wave (km/s) = 3.62639 3.69896 3.66285
# Velocity P-wave (km/s) = 6.75911 6.93963 6.84997
#
# Compressibility (1/GPa) = 0.02178504
#
# Stress axis : x y z
#
# Youngs Moduli (GPa) = 55.60197 44.54919 66.89497
#
# Poissons Ratio (x) = 0.21511 0.22637
# Poissons Ratio (y) = 0.26848 0.57432
# Poissons Ratio (z) = 0.18816 0.38247
#
# Static dielectric constant tensor:
#      x y z
#    x 3.188640 0.000000 0.000000 
#    y 0.000000 3.091040 0.000000 
#    z 0.000000 0.000000 3.156940 
# 
# 
# High freq. dielectric constant tensor:
#      x y z
#    x 1.642030 0.000000 0.000000 
#    y 0.000000 1.604560 0.000000 
#    z 0.000000 0.000000 1.605720 
# 
# From -- ./inp_files/11354.got.cif
#   From: 2010.06.25/outbox.cif.g09.slc.cpg/sg71_6_cif.got.tgz:11354.got - 2010.06.28 04:59:45.
