data_PCOD8289900
_publ_section_title
;
Structure prediction by ZEFSAII (Michael W. Deem and Ramdas Pophale) SiO2 
 PCOD8289900
Probable space group: I M M M
;
_chemical_formula_sum "Si O2"
_cell_formula_units_Z 80
_cell_length_a 27.344944
_cell_length_b 8.102586
_cell_length_c 19.106965
_cell_angle_alpha 90.000000
_cell_angle_beta 90.000000
_cell_angle_gamma 90.000000
_cell_volume 4233.430123
_symmetry_space_group_name_H-M "I M M M"
_symmetry_group_IT_number 71
_symmetry_cell_setting 'orthorhombic'
loop_
_space_group_symop_operation_xyz
x,y,z
-x,-y,z
x,-y,-z
-x,y,-z
-x,-y,-z
x,y,-z
-x,y,z
x,-y,z
1/2+x,1/2+y,1/2+z
1/2-x,1/2-y,1/2+z
1/2+x,1/2-y,1/2-z
1/2-x,1/2+y,1/2-z
1/2-x,1/2-y,1/2-z
1/2+x,1/2+y,1/2-z
1/2-x,1/2+y,1/2+z
1/2+x,1/2-y,1/2+z
loop_
_atom_site_type_symbol
_atom_site_label
_atom_site_fract_x
_atom_site_fract_y
_atom_site_fract_z
Si Si1 0.811952 0.310985 0.823081
Si Si2 0.895568 0.806952 0.922642
Si Si3 0.500000 0.680528 0.416929
Si Si4 0.885367 0.685316 0.417253
Si Si5 0.791180 0.308910 0.668790
Si Si6 0.945202 0.000000 0.416620
O O1 0.827060 0.500000 0.824975
O O2 0.852488 0.218295 0.867748
O O3 0.811284 0.241992 0.743432
O O4 0.757824 0.285352 0.855254
O O5 0.948203 0.729278 0.896289
O O6 0.904825 0.000000 0.930284
O O7 0.881315 0.735616 0.000000
O O8 0.500000 0.500000 0.381138
O O9 0.500000 0.664514 0.500000
O O10 0.883419 0.691619 0.500000
O O11 0.902584 0.500000 0.392835
O O12 0.831248 0.723284 0.390162
O O13 0.920358 0.830822 0.388352
O O14 0.777578 0.500000 0.676983
O O15 0.944132 0.000000 0.500000
O O16 0.000000 0.000000 0.387371
#
# Coordination Sequence:
#
# PCOD8289900 Si02
#       6
#    16  16   8  16  16   8
#     4  10  20  32  49  73 100 131 165 204 254 305
#     4   9  17  31  51  73  98 129 168 210 246 289
#     4   7  12  26  49  71  91 123 164 203 242 282
#     4   9  18  33  54  77 102 136 173 212 259 306
#     4   9  19  35  51  70  98 132 169 206 250 305
#     4   9  18  32  52  80 108 132 167 212 258 310
#
# _framework density 18.897206000000001
#
# number of rings (size 3 to 8) (size 9 to 14) (size 15 to 20)
#    0.000    3.000    0.000    1.800    1.400    2.400 
#    0.000    4.500    2.200    1.800    0.000    0.000 
#    0.000    0.000    0.000    0.000    0.000    0.000 
#
# Total GULP energy -495550.372187 kJ/mol
# GULP energy per Si atom -12388.759305 kJ/mol
# Density = 1.885419 g / cm^3
# Si number density = 18.897206 Si / 1000 Ang^3
#
#
#
# Elastic Constant Matrix: (Units=GPa)
#
#
# Indices 1 2 3 4 5 6 
#
# 1 147.0467 44.4286 42.5409 0.0000 0.0000 0.0000
# 2 44.4286 70.1966 15.7054 0.0000 0.0000 0.0000
# 3 42.5409 15.7054 30.2152 0.0000 0.0000 0.0000
# 4 0.0000 0.0000 0.0000 18.8687 0.0000 0.0000
# 5 0.0000 0.0000 0.0000 0.0000 14.5804 0.0000
# 6 0.0000 0.0000 0.0000 0.0000 0.0000 25.1232
#
#
#
# Elastic Compliance Matrix: (Units=1/GPa)
#
#
# Indices 1 2 3 4 5 6 
#
# 1 0.012638 -0.004547 -0.015431 0.000000 0.000000 0.000000
# 2 -0.004547 0.017756 -0.002828 0.000000 0.000000 0.000000
# 3 -0.015431 -0.002828 0.056291 0.000000 0.000000 0.000000
# 4 0.000000 0.000000 0.000000 0.052998 0.000000 0.000000
# 5 0.000000 0.000000 0.000000 0.000000 0.068585 0.000000
# 6 0.000000 0.000000 0.000000 0.000000 0.000000 0.039804
#
#
# Mechanical properties :
#
#
# Convention : Reuss Voigt Hill
#
# Bulk Modulus (GPa) = 24.34566 50.31202 37.32884
# Shear Modulus (GPa) = 16.26677 21.36670 18.81674
#
# Velocity S-wave (km/s) = 2.93713 3.36621 3.15896
# Velocity P-wave (km/s) = 4.94100 6.46454 5.75342
#
# Compressibility (1/GPa) = 0.04107508
#
# Stress axis : x y z
#
# Youngs Moduli (GPa) = 79.12367 56.31876 17.76476
#
# Poissons Ratio (x) = 0.25606 0.27412
# Poissons Ratio (y) = 0.35975 0.05024
# Poissons Ratio (z) = 1.22094 0.15926
#
# Static dielectric constant tensor:
#      x y z
#    x 3.663670 0.000000 0.000000 
#    y 0.000000 3.492310 0.000000 
#    z 0.000000 0.000000 3.177770 
# 
# 
# High freq. dielectric constant tensor:
#      x y z
#    x 1.741970 0.000000 0.000000 
#    y 0.000000 1.724080 0.000000 
#    z 0.000000 0.000000 1.698580 
# 
# From -- ./inp_files/55444.got.cif
#   From: 2010.06.25/outbox.cif.g09.slc.cpg/sg71_28_cif.got.tgz:55444.got - 2010.06.28 04:59:45.
