data_PCOD8289931
_publ_section_title
;
Structure prediction by ZEFSAII (Michael W. Deem and Ramdas Pophale) SiO2 
 PCOD8289931
Probable space group: I M M M
;
_chemical_formula_sum "Si O2"
_cell_formula_units_Z 104
_cell_length_a 32.574431
_cell_length_b 9.218768
_cell_length_c 19.724628
_cell_angle_alpha 90.000000
_cell_angle_beta 90.000000
_cell_angle_gamma 90.000000
_cell_volume 5923.229299
_symmetry_space_group_name_H-M "I M M M"
_symmetry_group_IT_number 71
_symmetry_cell_setting 'orthorhombic'
loop_
_space_group_symop_operation_xyz
x,y,z
-x,-y,z
x,-y,-z
-x,y,-z
-x,-y,-z
x,y,-z
-x,y,z
x,-y,z
1/2+x,1/2+y,1/2+z
1/2-x,1/2-y,1/2+z
1/2+x,1/2-y,1/2-z
1/2-x,1/2+y,1/2-z
1/2-x,1/2-y,1/2-z
1/2+x,1/2+y,1/2-z
1/2-x,1/2+y,1/2+z
1/2+x,1/2-y,1/2+z
loop_
_atom_site_type_symbol
_atom_site_label
_atom_site_fract_x
_atom_site_fract_y
_atom_site_fract_z
Si Si1 0.322257 0.665692 0.078726
Si Si2 0.418774 0.665172 0.623962
Si Si3 0.625176 0.832858 0.184148
Si Si4 0.453548 0.666204 0.231959
Si Si5 0.342220 0.832456 0.670914
Si Si6 0.045893 0.329054 0.000000
Si Si7 0.230883 0.671091 0.074953
O O1 0.325256 0.500000 0.104107
O O2 0.354762 0.760144 0.119276
O O3 0.276485 0.730101 0.091380
O O4 0.333775 0.676735 0.000000
O O5 0.417149 0.500000 0.598096
O O6 0.449276 0.681580 0.687185
O O7 0.373557 0.717046 0.641689
O O8 0.432883 0.771473 0.566274
O O9 0.580138 0.765302 0.195678
O O10 0.656444 0.813345 0.247736
O O11 0.617611 0.000000 0.168271
O O12 0.500000 0.714643 0.212311
O O13 0.445816 0.500000 0.210075
O O14 0.299086 0.785311 0.636821
O O15 0.353001 0.000000 0.651867
O O16 0.048988 0.500000 0.000000
O O17 0.000000 0.270647 0.000000
O O18 0.234457 0.500000 0.069373
O O19 0.216179 0.728819 0.000000
#
# Coordination Sequence:
#
# PCOD8289931 Si02
#       7
#    16  16  16  16  16   8  16
#     4   9  18  34  55  76  98 130 174 213 248 299
#     4  10  20  33  49  71  99 130 167 214 261 302
#     4  10  20  32  49  77 109 135 162 203 257 309
#     4   9  18  34  55  75  97 130 169 206 248 300
#     4   9  18  32  49  73 103 135 173 211 251 303
#     4  11  23  35  47  65  91 129 175 217 261 311
#     4   8  15  29  50  73  97 133 179 219 250 289
#
# _framework density 17.55799
#
# number of rings (size 3 to 8) (size 9 to 14) (size 15 to 20)
#    0.000    2.692    0.000    2.538    1.077    3.692 
#    0.000    0.769    0.000    1.385    0.000    3.231 
#    0.000    0.000    0.000    0.000    0.000    0.000 
#
# Total GULP energy -644548.406416 kJ/mol
# GULP energy per Si atom -12395.161662 kJ/mol
# Density = 1.751803 g / cm^3
# Si number density = 17.557990 Si / 1000 Ang^3
#
#
#
# Elastic Constant Matrix: (Units=GPa)
#
#
# Indices 1 2 3 4 5 6 
#
# 1 105.1370 39.1915 54.4316 0.0000 0.0000 0.0000
# 2 39.1915 55.0565 33.7172 0.0000 0.0000 0.0000
# 3 54.4316 33.7172 70.2836 0.0000 0.0000 0.0000
# 4 0.0000 0.0000 0.0000 27.7140 0.0000 0.0000
# 5 0.0000 0.0000 0.0000 0.0000 4.9571 0.0000
# 6 0.0000 0.0000 0.0000 0.0000 0.0000 21.6720
#
#
#
# Elastic Compliance Matrix: (Units=1/GPa)
#
#
# Indices 1 2 3 4 5 6 
#
# 1 0.017070 -0.005742 -0.010465 0.000000 0.000000 0.000000
# 2 -0.005742 0.027651 -0.008818 0.000000 0.000000 0.000000
# 3 -0.010465 -0.008818 0.026563 0.000000 0.000000 0.000000
# 4 0.000000 0.000000 0.000000 0.036083 0.000000 0.000000
# 5 0.000000 0.000000 0.000000 0.000000 0.201730 0.000000
# 6 0.000000 0.000000 0.000000 0.000000 0.000000 0.046142
#
#
# Mechanical properties :
#
#
# Convention : Reuss Voigt Hill
#
# Bulk Modulus (GPa) = 47.09569 53.90642 50.50105
# Shear Modulus (GPa) = 12.12512 17.74442 14.93477
#
# Velocity S-wave (km/s) = 2.63073 3.18247 2.91966
# Velocity P-wave (km/s) = 6.00906 6.65378 6.33962
#
# Compressibility (1/GPa) = 0.02123337
#
# Stress axis : x y z
#
# Youngs Moduli (GPa) = 58.58253 36.16530 37.64607
#
# Poissons Ratio (x) = 0.20766 0.39398
# Poissons Ratio (y) = 0.33638 0.33196
# Poissons Ratio (z) = 0.61308 0.31890
#
# Static dielectric constant tensor:
#      x y z
#    x 3.320240 0.000000 0.000000 
#    y 0.000000 3.180620 0.000000 
#    z 0.000000 0.000000 3.164280 
# 
# 
# High freq. dielectric constant tensor:
#      x y z
#    x 1.676870 0.000000 0.000000 
#    y 0.000000 1.669270 0.000000 
#    z 0.000000 0.000000 1.665800 
# 
# From -- ./inp_files/11470.got.cif
#   From: 2010.06.25/outbox.cif.g09.slc.cpg/sg71_6_cif.got.tgz:11470.got - 2010.06.28 04:59:45.
