data_PCOD8289151
_publ_section_title
;
Structure prediction by ZEFSAII (Michael W. Deem and Ramdas Pophale) SiO2 
 PCOD8289151
Probable space group: I M M M
;
_chemical_formula_sum "Si O2"
_cell_formula_units_Z 104
_cell_length_a 26.984772
_cell_length_b 9.051401
_cell_length_c 24.170768
_cell_angle_alpha 90.000000
_cell_angle_beta 90.000000
_cell_angle_gamma 90.000000
_cell_volume 5903.709897
_symmetry_space_group_name_H-M "I M M M"
_symmetry_group_IT_number 71
_symmetry_cell_setting 'orthorhombic'
loop_
_space_group_symop_operation_xyz
x,y,z
-x,-y,z
x,-y,-z
-x,y,-z
-x,-y,-z
x,y,-z
-x,y,z
x,-y,z
1/2+x,1/2+y,1/2+z
1/2-x,1/2-y,1/2+z
1/2+x,1/2-y,1/2-z
1/2-x,1/2+y,1/2-z
1/2-x,1/2-y,1/2-z
1/2+x,1/2+y,1/2-z
1/2-x,1/2+y,1/2+z
1/2+x,1/2-y,1/2+z
loop_
_atom_site_type_symbol
_atom_site_label
_atom_site_fract_x
_atom_site_fract_y
_atom_site_fract_z
Si Si1 0.367381 0.172844 0.760036
Si Si2 0.331391 0.325576 0.351727
Si Si3 0.500000 0.332759 0.434285
Si Si4 0.558571 0.668135 0.832634
Si Si5 0.599122 0.172406 0.564904
Si Si6 0.941153 0.334601 0.560723
Si Si7 0.233201 0.668395 0.303445
O O1 0.354846 0.260067 0.704164
O O2 0.418658 0.234438 0.783613
O O3 0.325768 0.199865 0.809002
O O4 0.372828 0.000000 0.745847
O O5 0.342612 0.500000 0.354796
O O6 0.354231 0.245624 0.404835
O O7 0.271398 0.291448 0.353376
O O8 0.500000 0.500000 0.411014
O O9 0.500000 0.332579 0.500000
O O10 0.451271 0.248043 0.412774
O O11 0.500000 0.685712 0.827888
O O12 0.575765 0.500000 0.825884
O O13 0.578377 0.724334 0.892206
O O14 0.606351 0.200442 0.500000
O O15 0.596071 0.000000 0.578939
O O16 0.921766 0.283459 0.500000
O O17 0.921744 0.500000 0.573742
O O18 0.000000 0.334974 0.560248
O O19 0.241974 0.500000 0.288910
O O20 0.250000 0.750000 0.250000
#
# Coordination Sequence:
#
# PCOD8289151 Si02
#       7
#    16  16   8  16  16  16  16
#     4  10  19  33  52  73  99 131 168 206 250 301
#     4  10  19  33  53  77 102 126 161 206 254 304
#     4   9  17  31  51  73  97 129 169 209 250 295
#     4  10  20  32  46  68 100 133 164 200 244 293
#     4  10  20  34  52  75 104 136 171 211 254 303
#     4   8  14  26  45  67  89 117 156 197 234 276
#     4   8  16  30  50  74  96 120 153 197 242 289
#
# _framework density 17.616042
#
# number of rings (size 3 to 8) (size 9 to 14) (size 15 to 20)
#    0.000    2.692    0.000    2.538    0.000    4.308 
#    1.385    1.538    0.000    0.923    0.000    2.154 
#    0.000    0.000    0.000    0.000    0.000    0.000 
#
# Total GULP energy -644260.604447 kJ/mol
# GULP energy per Si atom -12389.627009 kJ/mol
# Density = 1.757595 g / cm^3
# Si number density = 17.616042 Si / 1000 Ang^3
#
#
#
# Elastic Constant Matrix: (Units=GPa)
#
#
# Indices 1 2 3 4 5 6 
#
# 1 62.4122 43.0534 30.8308 0.0000 0.0000 0.0000
# 2 43.0534 103.1752 38.2045 0.0000 0.0000 0.0000
# 3 30.8308 38.2045 59.3707 0.0000 0.0000 0.0000
# 4 0.0000 0.0000 0.0000 31.1900 0.0000 0.0000
# 5 0.0000 0.0000 0.0000 0.0000 26.2580 0.0000
# 6 0.0000 0.0000 0.0000 0.0000 0.0000 22.7086
#
#
#
# Elastic Compliance Matrix: (Units=1/GPa)
#
#
# Indices 1 2 3 4 5 6 
#
# 1 0.025288 -0.007469 -0.008325 0.000000 0.000000 0.000000
# 2 -0.007469 0.014930 -0.005729 0.000000 0.000000 0.000000
# 3 -0.008325 -0.005729 0.024853 0.000000 0.000000 0.000000
# 4 0.000000 0.000000 0.000000 0.032062 0.000000 0.000000
# 5 0.000000 0.000000 0.000000 0.000000 0.038084 0.000000
# 6 0.000000 0.000000 0.000000 0.000000 0.000000 0.044036
#
#
# Mechanical properties :
#
#
# Convention : Reuss Voigt Hill
#
# Bulk Modulus (GPa) = 45.40453 49.90395 47.65424
# Shear Modulus (GPa) = 21.77316 23.55594 22.66455
#
# Velocity S-wave (km/s) = 3.51947 3.66072 3.59079
# Velocity P-wave (km/s) = 6.50739 6.80133 6.65598
#
# Compressibility (1/GPa) = 0.02202423
#
# Stress axis : x y z
#
# Youngs Moduli (GPa) = 39.54506 66.97735 40.23667
#
# Poissons Ratio (x) = 0.50028 0.33498
# Poissons Ratio (y) = 0.29538 0.23051
# Poissons Ratio (z) = 0.32922 0.38370
#
# Static dielectric constant tensor:
#      x y z
#    x 3.616240 0.000000 0.000000 
#    y 0.000000 3.411020 0.000000 
#    z 0.000000 0.000000 3.110080 
# 
# 
# High freq. dielectric constant tensor:
#      x y z
#    x 1.667890 0.000000 0.000000 
#    y 0.000000 1.695820 0.000000 
#    z 0.000000 0.000000 1.654230 
# 
# From -- ./inp_files/66856.got.cif
#   From: 2010.06.25/outbox.cif.g09.slc.cpg/sg71_34_cif.got.tgz:66856.got - 2010.06.28 04:59:45.
