data_PCOD8289239
_publ_section_title
;
Structure prediction by ZEFSAII (Michael W. Deem and Ramdas Pophale) SiO2 
 PCOD8289239
Probable space group: I M M M
;
_chemical_formula_sum "Si O2"
_cell_formula_units_Z 56
_cell_length_a 13.972240
_cell_length_b 24.643055
_cell_length_c 7.937101
_cell_angle_alpha 90.000000
_cell_angle_beta 90.000000
_cell_angle_gamma 90.000000
_cell_volume 2732.892130
_symmetry_space_group_name_H-M "I M M M"
_symmetry_group_IT_number 71
_symmetry_cell_setting 'orthorhombic'
loop_
_space_group_symop_operation_xyz
x,y,z
-x,-y,z
x,-y,-z
-x,y,-z
-x,-y,-z
x,y,-z
-x,y,z
x,-y,z
1/2+x,1/2+y,1/2+z
1/2-x,1/2-y,1/2+z
1/2+x,1/2-y,1/2-z
1/2-x,1/2+y,1/2-z
1/2-x,1/2-y,1/2-z
1/2+x,1/2+y,1/2-z
1/2-x,1/2+y,1/2+z
1/2+x,1/2-y,1/2+z
loop_
_atom_site_type_symbol
_atom_site_label
_atom_site_fract_x
_atom_site_fract_y
_atom_site_fract_z
Si Si1 0.709270 0.334200 0.193413
Si Si2 0.608911 0.226727 0.800102
Si Si3 0.896779 0.436733 0.000000
Si Si4 0.733929 0.939133 0.811479
O O1 0.639247 0.287181 0.261451
O O2 0.820480 0.316524 0.215425
O O3 0.687732 0.390715 0.294920
O O4 0.688211 0.346470 0.000000
O O5 0.500000 0.215458 0.742742
O O6 0.620706 0.222496 0.000000
O O7 0.843192 0.421045 0.172043
O O8 0.912657 0.500000 0.000000
O O9 0.000000 0.407315 0.000000
O O10 0.775283 0.000000 0.774433
O O11 0.689342 0.938310 0.000000
#
# Coordination Sequence:
#
# PCOD8289239 Si02
#       4
#    16  16   8  16
#     4  10  19  33  54  78 107 141 178 222 268 318
#     4   9  19  35  54  77 105 139 179 222 270 321
#     4   9  18  32  48  70 101 135 175 219 259 308
#     4  10  20  34  53  76 104 142 180 216 265 319
#
# _framework density 20.491112000000001
#
# number of rings (size 3 to 8) (size 9 to 14) (size 15 to 20)
#    0.000    2.429    1.429    0.857    0.000    3.429 
#    0.000    2.857    0.000    0.857    0.000    6.000 
#    0.000    0.000    0.000    0.000    0.000    0.000 
#
# Total GULP energy -346868.470301 kJ/mol
# GULP energy per Si atom -12388.159654 kJ/mol
# Density = 2.044447 g / cm^3
# Si number density = 20.491112 Si / 1000 Ang^3
#
#
#
# Elastic Constant Matrix: (Units=GPa)
#
#
# Indices 1 2 3 4 5 6 
#
# 1 38.9107 -0.5280 -3.8127 -0.0008 -0.0017 -0.0003
# 2 -0.5280 134.0947 19.8292 -0.0072 -0.0027 -0.0005
# 3 -3.8127 19.8292 86.4190 -0.0457 -0.0032 -0.0005
# 4 -0.0008 -0.0072 -0.0457 30.9512 -0.0015 -0.0004
# 5 -0.0017 -0.0027 -0.0032 -0.0015 14.5880 0.0001
# 6 -0.0003 -0.0005 -0.0005 -0.0004 0.0001 14.4409
#
#
#
# Elastic Compliance Matrix: (Units=1/GPa)
#
#
# Indices 1 2 3 4 5 6 
#
# 1 0.025812 -0.000069 0.001155 0.000002 0.000003 0.000001
# 2 -0.000069 0.007720 -0.001774 -0.000001 0.000001 0.000000
# 3 0.001155 -0.001774 0.012030 0.000017 0.000002 0.000000
# 4 0.000002 -0.000001 0.000017 0.032309 0.000003 0.000001
# 5 0.000003 0.000001 0.000002 0.000003 0.068550 0.000000
# 6 0.000001 0.000000 0.000000 0.000001 0.000000 0.069248
#
#
# Mechanical properties :
#
#
# Convention : Reuss Voigt Hill
#
# Bulk Modulus (GPa) = 22.63282 32.26683 27.44982
# Shear Modulus (GPa) = 21.57285 28.25842 24.91563
#
# Velocity S-wave (km/s) = 3.24819 3.71759 3.49079
# Velocity P-wave (km/s) = 5.01367 5.84878 5.44725
#
# Compressibility (1/GPa) = 0.04418362
#
# Stress axis : x y z
#
# Youngs Moduli (GPa) = 38.74159 129.54172 83.12822
#
# Poissons Ratio (x) = 0.00895 -0.09598
# Poissons Ratio (y) = 0.00268 0.14750
# Poissons Ratio (z) = -0.04473 0.22985
#
# Static dielectric constant tensor:
#      x y z
#    x 3.460150 0.000000 0.000000 
#    y 0.000000 4.110330 -0.000020 
#    z 0.000000 -0.000020 3.713340 
# 
# 
# High freq. dielectric constant tensor:
#      x y z
#    x 1.735290 0.000000 0.000000 
#    y 0.000000 1.827460 0.000000 
#    z 0.000000 0.000000 1.805940 
# 
# From -- ./inp_files/5756.got.cif
#   From: 2010.06.25/outbox.cif.g09.slc.cpg/sg71_3_cif.got.tgz:5756.got - 2010.06.28 04:59:45.
