data_PCOD8289048
_publ_section_title
;
Structure prediction by ZEFSAII (Michael W. Deem and Ramdas Pophale) SiO2 
 PCOD8289048
Probable space group: I M M M
;
_chemical_formula_sum "Si O2"
_cell_formula_units_Z 96
_cell_length_a 23.214809
_cell_length_b 25.408244
_cell_length_c 8.986393
_cell_angle_alpha 90.000000
_cell_angle_beta 90.000000
_cell_angle_gamma 90.000000
_cell_volume 5300.601728
_symmetry_space_group_name_H-M "I M M M"
_symmetry_group_IT_number 71
_symmetry_cell_setting 'orthorhombic'
loop_
_space_group_symop_operation_xyz
x,y,z
-x,-y,z
x,-y,-z
-x,y,-z
-x,-y,-z
x,y,-z
-x,y,z
x,-y,z
1/2+x,1/2+y,1/2+z
1/2-x,1/2-y,1/2+z
1/2+x,1/2-y,1/2-z
1/2-x,1/2+y,1/2-z
1/2-x,1/2-y,1/2-z
1/2+x,1/2+y,1/2-z
1/2-x,1/2+y,1/2+z
1/2+x,1/2-y,1/2+z
loop_
_atom_site_type_symbol
_atom_site_label
_atom_site_fract_x
_atom_site_fract_y
_atom_site_fract_z
Si Si1 0.433588 0.309000 0.825881
Si Si2 0.067864 0.000000 0.333114
Si Si3 0.636057 0.900855 0.675947
Si Si4 0.373687 0.595887 0.324733
Si Si5 0.253253 0.060201 0.174690
Si Si6 0.435572 0.000000 0.677221
Si Si7 0.433879 0.200977 0.328489
O O1 0.500000 0.322320 0.788210
O O2 0.391851 0.347758 0.737724
O O3 0.418355 0.250333 0.773990
O O4 0.421330 0.314225 0.000000
O O5 0.087055 0.948311 0.247633
O O6 0.093723 0.000000 0.500000
O O7 0.000000 0.000000 0.340323
O O8 0.641784 0.904394 0.500000
O O9 0.699165 0.904191 0.745862
O O10 0.606474 0.846571 0.725131
O O11 0.597343 0.948692 0.737468
O O12 0.383625 0.594178 0.500000
O O13 0.307678 0.585432 0.282455
O O14 0.255401 0.000000 0.232962
O O15 0.263984 0.061822 0.000000
O O16 0.500000 0.000000 0.743058
O O17 0.437825 0.000000 0.500000
O O18 0.422187 0.215905 0.500000
O O19 0.500000 0.183319 0.307008
#
# Coordination Sequence:
#
# PCOD8289048 Si02
#       7
#    16   8  16  16  16   8  16
#     4  10  21  37  57  83 113 143 178 224 278 330
#     4  11  23  36  53  82 116 143 172 219 276 329
#     4  10  19  32  54  83 109 140 185 226 267 322
#     4  11  22  38  58  80 107 144 188 226 269 325
#     4  10  21  38  55  75 108 147 183 223 271 320
#     4   9  16  27  47  78 112 139 168 217 272 317
#     4   9  18  34  56  82 112 146 183 224 270 324
#
# _framework density 18.111151
#
# number of rings (size 3 to 8) (size 9 to 14) (size 15 to 20)
#    0.000    2.000    1.667    2.250    0.000    7.667 
#    0.000    0.833    0.000    2.000    0.000    0.000 
#    0.000    0.000    0.000    0.000    0.000    0.000 
#
# Total GULP energy -595378.555090 kJ/mol
# GULP energy per Si atom -12403.719898 kJ/mol
# Density = 1.806993 g / cm^3
# Si number density = 18.111151 Si / 1000 Ang^3
#
#
#
# Elastic Constant Matrix: (Units=GPa)
#
#
# Indices 1 2 3 4 5 6 
#
# 1 118.1471 73.1953 48.9772 0.0000 0.0000 0.0000
# 2 73.1953 123.4596 44.8969 0.0000 0.0000 0.0000
# 3 48.9772 44.8969 59.1976 0.0000 0.0000 0.0000
# 4 0.0000 0.0000 0.0000 27.3998 0.0000 0.0000
# 5 0.0000 0.0000 0.0000 0.0000 28.5961 0.0000
# 6 0.0000 0.0000 0.0000 0.0000 0.0000 8.9655
#
#
#
# Elastic Compliance Matrix: (Units=1/GPa)
#
#
# Indices 1 2 3 4 5 6 
#
# 1 0.015850 -0.006391 -0.008267 0.000000 0.000000 0.000000
# 2 -0.006391 0.013761 -0.005149 0.000000 0.000000 0.000000
# 3 -0.008267 -0.005149 0.027638 0.000000 0.000000 0.000000
# 4 0.000000 0.000000 0.000000 0.036497 0.000000 0.000000
# 5 0.000000 0.000000 0.000000 0.000000 0.034970 0.000000
# 6 0.000000 0.000000 0.000000 0.000000 0.000000 0.111538
#
#
# Mechanical properties :
#
#
# Convention : Reuss Voigt Hill
#
# Bulk Modulus (GPa) = 56.70526 70.54923 63.62724
# Shear Modulus (GPa) = 17.49804 21.90797 19.70301
#
# Velocity S-wave (km/s) = 3.11166 3.48176 3.30190
# Velocity P-wave (km/s) = 6.65488 7.42978 7.05298
#
# Compressibility (1/GPa) = 0.01763505
#
# Stress axis : x y z
#
# Youngs Moduli (GPa) = 63.09038 72.66707 36.18258
#
# Poissons Ratio (x) = 0.46441 0.29911
# Poissons Ratio (y) = 0.40320 0.18632
# Poissons Ratio (z) = 0.52155 0.37420
#
# Static dielectric constant tensor:
#      x y z
#    x 3.359700 0.000000 0.000000 
#    y 0.000000 3.343850 0.000000 
#    z 0.000000 0.000000 3.274920 
# 
# 
# High freq. dielectric constant tensor:
#      x y z
#    x 1.701580 0.000000 0.000000 
#    y 0.000000 1.705620 0.000000 
#    z 0.000000 0.000000 1.695230 
# 
# From -- ./inp_files/12950.got.cif
#   From: 2010.06.25/outbox.cif.g09.slc.cpg/sg71_7_cif.got.tgz:12950.got - 2010.06.28 04:59:45.
