data_PCOD8289023
_publ_section_title
;
Structure prediction by ZEFSAII (Michael W. Deem and Ramdas Pophale) SiO2 
 PCOD8289023
Probable space group: I M M M
;
_chemical_formula_sum "Si O2"
_cell_formula_units_Z 88
_cell_length_a 21.513594
_cell_length_b 8.835582
_cell_length_c 23.894066
_cell_angle_alpha 90.000000
_cell_angle_beta 90.000000
_cell_angle_gamma 90.000000
_cell_volume 4541.906496
_symmetry_space_group_name_H-M "I M M M"
_symmetry_group_IT_number 71
_symmetry_cell_setting 'orthorhombic'
loop_
_space_group_symop_operation_xyz
x,y,z
-x,-y,z
x,-y,-z
-x,y,-z
-x,-y,-z
x,y,-z
-x,y,z
x,-y,z
1/2+x,1/2+y,1/2+z
1/2-x,1/2-y,1/2+z
1/2+x,1/2-y,1/2-z
1/2-x,1/2+y,1/2-z
1/2-x,1/2-y,1/2-z
1/2+x,1/2+y,1/2-z
1/2-x,1/2+y,1/2+z
1/2+x,1/2-y,1/2+z
loop_
_atom_site_type_symbol
_atom_site_label
_atom_site_fract_x
_atom_site_fract_y
_atom_site_fract_z
Si Si1 0.845981 0.325622 0.849363
Si Si2 0.068480 0.168769 0.768278
Si Si3 0.893739 0.827851 0.646989
Si Si4 0.428572 0.329419 0.436553
Si Si5 0.269319 0.822330 0.190376
Si Si6 0.000000 0.180388 0.564497
O O1 0.826990 0.500000 0.849248
O O2 0.883040 0.289693 0.792083
O O3 0.888714 0.289208 0.901996
O O4 0.784299 0.224195 0.853240
O O5 0.063395 0.179772 0.701724
O O6 0.000000 0.200983 0.793326
O O7 0.090609 0.000000 0.785964
O O8 0.832572 0.731373 0.660757
O O9 0.936708 0.762687 0.596020
O O10 0.873126 0.000000 0.633721
O O11 0.405442 0.320768 0.500000
O O12 0.500000 0.280855 0.432101
O O13 0.419695 0.500000 0.413366
O O14 0.250000 0.750000 0.250000
O O15 0.272813 0.000000 0.199512
O O16 0.000000 0.238509 0.500000
O O17 0.000000 0.000000 0.567449
#
# Coordination Sequence:
#
# PCOD8289023 Si02
#       6
#    16  16  16  16  16   8
#     4  12  24  36  54  84 119 156 196 241 289 345
#     4  10  19  32  53  81 115 155 194 237 291 352
#     4  10  19  35  59  87 117 153 194 239 294 356
#     4   9  19  38  62  85 113 153 196 237 286 342
#     4  12  24  39  58  83 116 156 196 243 300 362
#     4   9  18  36  65  97 125 157 200 247 296 351
#
# _framework density 19.375122999999999
#
# number of rings (size 3 to 8) (size 9 to 14) (size 15 to 20)
#    0.000    1.545    2.727    4.364    0.000    3.273 
#    0.000    2.273    0.000    4.364    0.000    0.000 
#    0.000    0.000    0.000    0.000    0.000    0.000 
#
# Total GULP energy -545428.372328 kJ/mol
# GULP energy per Si atom -12396.099371 kJ/mol
# Density = 1.933102 g / cm^3
# Si number density = 19.375123 Si / 1000 Ang^3
#
#
#
# Elastic Constant Matrix: (Units=GPa)
#
#
# Indices 1 2 3 4 5 6 
#
# 1 127.9696 53.2265 48.9721 0.0000 0.0000 0.0000
# 2 53.2265 104.9983 30.8993 0.0000 0.0000 0.0000
# 3 48.9721 30.8993 110.1182 0.0000 0.0000 0.0000
# 4 0.0000 0.0000 0.0000 19.9305 0.0000 0.0000
# 5 0.0000 0.0000 0.0000 0.0000 9.9944 0.0000
# 6 0.0000 0.0000 0.0000 0.0000 0.0000 31.4795
#
#
#
# Elastic Compliance Matrix: (Units=1/GPa)
#
#
# Indices 1 2 3 4 5 6 
#
# 1 0.011110 -0.004554 -0.003663 0.000000 0.000000 0.000000
# 2 -0.004554 0.012248 -0.001411 0.000000 0.000000 0.000000
# 3 -0.003663 -0.001411 0.011106 0.000000 0.000000 0.000000
# 4 0.000000 0.000000 0.000000 0.050174 0.000000 0.000000
# 5 0.000000 0.000000 0.000000 0.000000 0.100056 0.000000
# 6 0.000000 0.000000 0.000000 0.000000 0.000000 0.031767
#
#
# Mechanical properties :
#
#
# Convention : Reuss Voigt Hill
#
# Bulk Modulus (GPa) = 65.75861 67.69797 66.72829
# Shear Modulus (GPa) = 20.76511 26.28008 23.52260
#
# Velocity S-wave (km/s) = 3.27730 3.68691 3.48812
# Velocity P-wave (km/s) = 6.95229 7.28978 7.12303
#
# Compressibility (1/GPa) = 0.01520713
#
# Stress axis : x y z
#
# Youngs Moduli (GPa) = 90.00571 81.64630 90.03901
#
# Poissons Ratio (x) = 0.37183 0.32983
# Poissons Ratio (y) = 0.40990 0.12709
# Poissons Ratio (z) = 0.32970 0.11524
#
# Static dielectric constant tensor:
#      x y z
#    x 3.678200 0.000000 0.000000 
#    y 0.000000 3.312430 0.000000 
#    z 0.000000 0.000000 3.519890 
# 
# 
# High freq. dielectric constant tensor:
#      x y z
#    x 1.762150 0.000000 0.000000 
#    y 0.000000 1.733250 0.000000 
#    z 0.000000 0.000000 1.741730 
# 
# From -- ./inp_files/10411.got.cif
#   From: 2010.06.25/outbox.cif.g09.slc.cpg/sg71_6_cif.got.tgz:10411.got - 2010.06.28 04:59:45.
