data_PCOD8289416
_publ_section_title
;
Structure prediction by ZEFSAII (Michael W. Deem and Ramdas Pophale) SiO2 
 PCOD8289416
Probable space group: I M M M
;
_chemical_formula_sum "Si O2"
_cell_formula_units_Z 96
_cell_length_a 11.905015
_cell_length_b 14.658151
_cell_length_c 27.803109
_cell_angle_alpha 90.000000
_cell_angle_beta 90.000000
_cell_angle_gamma 90.000000
_cell_volume 4851.795647
_symmetry_space_group_name_H-M "I M M M"
_symmetry_group_IT_number 71
_symmetry_cell_setting 'orthorhombic'
loop_
_space_group_symop_operation_xyz
x,y,z
-x,-y,z
x,-y,-z
-x,y,-z
-x,-y,-z
x,y,-z
-x,y,z
x,-y,z
1/2+x,1/2+y,1/2+z
1/2-x,1/2-y,1/2+z
1/2+x,1/2-y,1/2-z
1/2-x,1/2+y,1/2-z
1/2-x,1/2-y,1/2-z
1/2+x,1/2+y,1/2-z
1/2-x,1/2+y,1/2+z
1/2+x,1/2-y,1/2+z
loop_
_atom_site_type_symbol
_atom_site_label
_atom_site_fract_x
_atom_site_fract_y
_atom_site_fract_z
Si Si1 0.780461 0.608011 0.610889
Si Si2 0.873642 0.607960 0.184779
Si Si3 0.000000 0.106835 0.554085
Si Si4 0.261469 0.607284 0.907276
Si Si5 0.500000 0.107808 0.946082
Si Si6 0.374972 0.108244 0.790409
Si Si7 0.872498 0.763556 0.053833
O O1 0.761269 0.500000 0.605517
O O2 0.792795 0.639266 0.666602
O O3 0.674399 0.660848 0.590166
O O4 0.889874 0.641868 0.581700
O O5 0.880284 0.500000 0.185154
O O6 0.780891 0.638610 0.145741
O O7 0.833353 0.642370 0.237742
O O8 0.000000 0.645365 0.173100
O O9 0.108718 0.135707 0.585196
O O10 0.000000 0.150795 0.500000
O O11 0.000000 0.000000 0.546904
O O12 0.241449 0.500000 0.916955
O O13 0.189189 0.665723 0.944679
O O14 0.500000 0.000000 0.947653
O O15 0.500000 0.148808 0.000000
O O16 0.500000 0.146759 0.800169
O O17 0.381244 0.000000 0.791404
O O18 0.000000 0.746204 0.068650
O O19 0.861441 0.802647 0.000000
#
# Coordination Sequence:
#
# PCOD8289416 Si02
#       7
#    16  16   8  16   8  16  16
#     4  10  19  34  55  78 110 147 184 228 276 327
#     4   8  14  26  51  84 112 142 179 218 267 323
#     4   9  18  33  55  81 108 143 181 214 265 332
#     4  10  20  37  60  83 111 142 175 222 276 329
#     4   9  16  27  49  81 108 135 177 226 275 322
#     4   8  13  26  51  83 113 141 178 224 272 325
#     4  11  25  40  54  77 107 142 189 234 272 325
#
# _framework density 19.786489
#
# number of rings (size 3 to 8) (size 9 to 14) (size 15 to 20)
#    0.000    2.667    0.833    2.500    0.000    4.000 
#    0.000    4.167    1.833    0.000    0.000    0.000 
#    0.000    0.000    0.000    0.000    0.000    0.000 
#
# Total GULP energy -594840.594906 kJ/mol
# GULP energy per Si atom -12392.512394 kJ/mol
# Density = 1.974145 g / cm^3
# Si number density = 19.786489 Si / 1000 Ang^3
#
#
#
# Elastic Constant Matrix: (Units=GPa)
#
#
# Indices 1 2 3 4 5 6 
#
# 1 149.4119 32.2877 81.7316 0.0000 0.0000 0.0000
# 2 32.2877 50.5306 20.9315 0.0000 0.0000 0.0000
# 3 81.7316 20.9315 159.5962 0.0000 0.0000 0.0000
# 4 0.0000 0.0000 0.0000 17.0815 0.0000 0.0000
# 5 0.0000 0.0000 0.0000 0.0000 36.2514 0.0000
# 6 0.0000 0.0000 0.0000 0.0000 0.0000 17.9903
#
#
#
# Elastic Compliance Matrix: (Units=1/GPa)
#
#
# Indices 1 2 3 4 5 6 
#
# 1 0.010223 -0.004614 -0.004630 0.000000 0.000000 0.000000
# 2 -0.004614 0.023010 -0.000655 0.000000 0.000000 0.000000
# 3 -0.004630 -0.000655 0.008723 0.000000 0.000000 0.000000
# 4 0.000000 0.000000 0.000000 0.058543 0.000000 0.000000
# 5 0.000000 0.000000 0.000000 0.000000 0.027585 0.000000
# 6 0.000000 0.000000 0.000000 0.000000 0.000000 0.055585
#
#
# Mechanical properties :
#
#
# Convention : Reuss Voigt Hill
#
# Bulk Modulus (GPa) = 45.13223 69.93781 57.53502
# Shear Modulus (GPa) = 23.71327 29.23717 26.47522
#
# Velocity S-wave (km/s) = 3.46563 3.84817 3.66190
# Velocity P-wave (km/s) = 6.23484 7.42748 6.85714
#
# Compressibility (1/GPa) = 0.02215712
#
# Stress axis : x y z
#
# Youngs Moduli (GPa) = 97.82090 43.46021 114.64182
#
# Poissons Ratio (x) = 0.20053 0.53080
# Poissons Ratio (y) = 0.45136 0.07507
# Poissons Ratio (z) = 0.45292 0.02846
#
# Static dielectric constant tensor:
#      x y z
#    x 3.585260 0.000000 0.000000 
#    y 0.000000 3.167410 0.000000 
#    z 0.000000 0.000000 4.108480 
# 
# 
# High freq. dielectric constant tensor:
#      x y z
#    x 1.756970 0.000000 0.000000 
#    y 0.000000 1.739400 0.000000 
#    z 0.000000 0.000000 1.784480 
# 
# From -- ./inp_files/69261.got.cif
#   From: 2010.06.25/outbox.cif.g09.slc.cpg/sg71_35_cif.got.tgz:69261.got - 2010.06.28 04:59:45.
