data_PCOD8289022
_publ_section_title
;
Structure prediction by ZEFSAII (Michael W. Deem and Ramdas Pophale) SiO2 
 PCOD8289022
Probable space group: I M M M
;
_chemical_formula_sum "Si O2"
_cell_formula_units_Z 88
_cell_length_a 24.868461
_cell_length_b 21.420450
_cell_length_c 8.820891
_cell_angle_alpha 90.000000
_cell_angle_beta 90.000000
_cell_angle_gamma 90.000000
_cell_volume 4698.832406
_symmetry_space_group_name_H-M "I M M M"
_symmetry_group_IT_number 71
_symmetry_cell_setting 'orthorhombic'
loop_
_space_group_symop_operation_xyz
x,y,z
-x,-y,z
x,-y,-z
-x,y,-z
-x,-y,-z
x,y,-z
-x,y,z
x,-y,z
1/2+x,1/2+y,1/2+z
1/2-x,1/2-y,1/2+z
1/2+x,1/2-y,1/2-z
1/2-x,1/2+y,1/2-z
1/2-x,1/2-y,1/2-z
1/2+x,1/2+y,1/2-z
1/2-x,1/2+y,1/2+z
1/2+x,1/2-y,1/2+z
loop_
_atom_site_type_symbol
_atom_site_label
_atom_site_fract_x
_atom_site_fract_y
_atom_site_fract_z
Si Si1 0.000000 0.749798 0.678908
Si Si2 0.085718 0.650943 0.320629
Si Si3 0.197202 0.830599 0.821278
Si Si4 0.500000 0.072784 0.669177
Si Si5 0.000000 0.888000 0.319814
Si Si6 0.307621 0.812388 0.678215
Si Si7 0.884002 0.070517 0.678430
O O1 0.946631 0.713073 0.730635
O O2 0.000000 0.754837 0.500000
O O3 0.000000 0.818388 0.751537
O O4 0.093711 0.647693 0.500000
O O5 0.052663 0.591612 0.263387
O O6 0.142393 0.648348 0.237537
O O7 0.255811 0.844449 0.753740
O O8 0.183065 0.759670 0.772842
O O9 0.153800 0.878968 0.757693
O O10 0.199250 0.838559 0.000000
O O11 0.500000 0.103061 0.500000
O O12 0.500000 0.000000 0.653227
O O13 0.945751 0.922292 0.264024
O O14 0.000000 0.885868 0.500000
O O15 0.301160 0.818810 0.500000
O O16 0.880731 0.082981 0.500000
O O17 0.865241 0.000000 0.718407
#
# Coordination Sequence:
#
# PCOD8289022 Si02
#       7
#     8  16  16   8   8  16  16
#     4   8  15  26  45  76 108 137 167 206 256 302
#     4  10  19  32  53  81 111 140 174 218 266 317
#     4  10  21  36  55  79 107 140 175 216 267 318
#     4  10  21  37  55  76 107 146 182 218 264 318
#     4   9  16  29  51  77 105 137 175 213 250 299
#     4  10  20  35  56  81 107 136 173 218 269 323
#     4  10  20  34  53  77 106 142 182 221 259 303
#
# _framework density 18.728058000000001
#
# number of rings (size 3 to 8) (size 9 to 14) (size 15 to 20)
#    0.000    2.273    0.000    3.818    0.000    5.818 
#    0.000    1.364    0.000    9.818    0.000    0.000 
#    0.000    0.000    0.000    0.000    0.000    0.000 
#
# Total GULP energy -545545.250851 kJ/mol
# GULP energy per Si atom -12398.755701 kJ/mol
# Density = 1.868543 g / cm^3
# Si number density = 18.728058 Si / 1000 Ang^3
#
#
#
# Elastic Constant Matrix: (Units=GPa)
#
#
# Indices 1 2 3 4 5 6 
#
# 1 155.8430 48.9942 40.5277 0.0000 0.0000 0.0000
# 2 48.9942 81.2743 35.3572 0.0000 0.0000 0.0000
# 3 40.5277 35.3572 48.8062 0.0000 0.0000 0.0000
# 4 0.0000 0.0000 0.0000 25.8157 0.0000 0.0000
# 5 0.0000 0.0000 0.0000 0.0000 31.8207 0.0000
# 6 0.0000 0.0000 0.0000 0.0000 0.0000 -0.7976
#
#
#
# Elastic Compliance Matrix: (Units=1/GPa)
#
#
# Indices 1 2 3 4 5 6 
#
# 1 0.008676 -0.003060 -0.004987 0.000000 0.000000 0.000000
# 2 -0.003060 0.019046 -0.011256 0.000000 0.000000 0.000000
# 3 -0.004987 -0.011256 0.032785 0.000000 0.000000 0.000000
# 4 0.000000 0.000000 0.000000 0.038736 0.000000 0.000000
# 5 0.000000 0.000000 0.000000 0.000000 0.031426 0.000000
# 6 0.000000 0.000000 0.000000 0.000000 0.000000 -1.253685
#
#
# Mechanical properties :
#
#
# Convention : Reuss Voigt Hill
#
# Bulk Modulus (GPa) = 45.66433 59.52019 52.59226
# Shear Modulus (GPa) = -4.64205 22.10406 8.73100
#
# Velocity S-wave (km/s) = -1.57608 3.43922 2.16151
# Velocity P-wave (km/s) = 4.59606 6.90082 5.86281
#
# Compressibility (1/GPa) = 0.02189893
#
# Stress axis : x y z
#
# Youngs Moduli (GPa) = 115.26353 52.50520 30.50188
#
# Poissons Ratio (x) = 0.16069 0.15212
# Poissons Ratio (y) = 0.35275 0.34334
# Poissons Ratio (z) = 0.57483 0.59101
#
# Static dielectric constant tensor:
#      x y z
#    x 3.532450 0.000000 0.000000 
#    y 0.000000 3.399930 0.000000 
#    z 0.000000 0.000000 3.340600 
# 
# 
# High freq. dielectric constant tensor:
#      x y z
#    x 1.735170 0.000000 0.000000 
#    y 0.000000 1.713360 0.000000 
#    z 0.000000 0.000000 1.717880 
# 
# From -- ./inp_files/12635.got.cif
#   From: 2010.06.25/outbox.cif.g09.slc.cpg/sg71_7_cif.got.tgz:12635.got - 2010.06.28 04:59:45.
