data_PCOD8289708
_publ_section_title
;
Structure prediction by ZEFSAII (Michael W. Deem and Ramdas Pophale) SiO2 
 PCOD8289708
Probable space group: I M M M
;
_chemical_formula_sum "Si O2"
_cell_formula_units_Z 90
_cell_length_a 11.574201
_cell_length_b 22.563858
_cell_length_c 17.324421
_cell_angle_alpha 90.000000
_cell_angle_beta 90.000000
_cell_angle_gamma 90.000000
_cell_volume 4524.422016
_symmetry_space_group_name_H-M "I M M M"
_symmetry_group_IT_number 71
_symmetry_cell_setting 'orthorhombic'
loop_
_space_group_symop_operation_xyz
x,y,z
-x,-y,z
x,-y,-z
-x,y,-z
-x,-y,-z
x,y,-z
-x,y,z
x,-y,z
1/2+x,1/2+y,1/2+z
1/2-x,1/2-y,1/2+z
1/2+x,1/2-y,1/2-z
1/2-x,1/2+y,1/2-z
1/2-x,1/2-y,1/2-z
1/2+x,1/2+y,1/2-z
1/2-x,1/2+y,1/2+z
1/2+x,1/2-y,1/2+z
loop_
_atom_site_type_symbol
_atom_site_label
_atom_site_fract_x
_atom_site_fract_y
_atom_site_fract_z
Si Si1 0.770645 0.356195 0.140817
Si Si2 0.365468 0.068577 0.775316
Si Si3 0.500000 0.000000 0.500000
Si Si4 0.250129 0.627588 0.589695
Si Si5 0.268253 0.936594 0.500000
Si Si6 0.000000 0.291862 0.908964
Si Si7 0.132995 0.751520 0.410854
Si Si8 0.000000 0.839901 0.909050
O O1 0.785428 0.390679 0.221192
O O2 0.889838 0.326524 0.119237
O O3 0.673761 0.304748 0.145188
O O4 0.729900 0.402351 0.076415
O O5 0.500000 0.085574 0.766243
O O6 0.323212 0.079521 0.862609
O O7 0.348215 0.000000 0.752610
O O8 0.593100 0.053593 0.500000
O O9 0.231662 0.612144 0.500000
O O10 0.205620 0.693302 0.608978
O O11 0.384921 0.623988 0.614745
O O12 0.202402 0.000000 0.500000
O O13 0.000000 0.225876 0.872181
O O14 0.000000 0.287479 0.000000
O O15 0.154373 0.769996 0.500000
O O16 0.000000 0.737430 0.394192
O O17 0.000000 0.830949 0.000000
#
# Coordination Sequence:
#
# PCOD8289708 Si02
#       8
#    16  16   2  16   8   8  16   8
#     4  12  20  35  57  86 125 157 195 243 290 344
#     4  11  26  42  60  86 118 155 200 253 295 343
#     4   8  20  28  48  92 106 156 214 240 278 342
#     4  10  21  42  65  91 118 150 191 244 304 361
#     4  10  20  30  51  82 118 161 201 238 281 337
#     4  11  17  30  58  93 121 156 186 233 295 354
#     4  10  20  36  61  91 123 159 197 240 291 353
#     4   9  18  35  65  96 123 141 185 241 304 359
#
# _framework density 19.892045
#
# number of rings (size 3 to 8) (size 9 to 14) (size 15 to 20)
#    0.267    1.244    4.444    1.600    0.000    2.133 
#    1.600    1.333    0.000    3.733    0.000    0.000 
#    0.000    0.000    0.000    0.000    0.000    0.000 
#
# Total GULP energy -557470.644712 kJ/mol
# GULP energy per Si atom -12388.236549 kJ/mol
# Density = 1.984677 g / cm^3
# Si number density = 19.892045 Si / 1000 Ang^3
#
#
#
# Elastic Constant Matrix: (Units=GPa)
#
#
# Indices 1 2 3 4 5 6 
#
# 1 89.9812 20.6254 22.7055 0.0000 0.0000 0.0000
# 2 20.6254 42.9742 20.6761 0.0000 0.0000 0.0000
# 3 22.7055 20.6761 73.7493 0.0001 0.0000 0.0000
# 4 0.0000 0.0000 0.0001 24.0092 0.0000 0.0000
# 5 0.0000 0.0000 0.0000 0.0000 25.7158 0.0000
# 6 0.0000 0.0000 0.0000 0.0000 0.0000 30.2750
#
#
#
# Elastic Compliance Matrix: (Units=1/GPa)
#
#
# Indices 1 2 3 4 5 6 
#
# 1 0.012900 -0.004948 -0.002584 0.000000 0.000000 0.000000
# 2 -0.004948 0.028796 -0.006550 0.000000 0.000000 0.000000
# 3 -0.002584 -0.006550 0.016191 0.000000 0.000000 0.000000
# 4 0.000000 0.000000 0.000000 0.041651 0.000000 0.000000
# 5 0.000000 0.000000 0.000000 0.000000 0.038887 0.000000
# 6 0.000000 0.000000 0.000000 0.000000 0.000000 0.033031
#
#
# Mechanical properties :
#
#
# Convention : Reuss Voigt Hill
#
# Bulk Modulus (GPa) = 33.64397 37.19098 35.41748
# Shear Modulus (GPa) = 23.86336 25.51317 24.68827
#
# Velocity S-wave (km/s) = 3.46734 3.58520 3.52676
# Velocity P-wave (km/s) = 5.74282 5.98959 5.86750
#
# Compressibility (1/GPa) = 0.02972300
#
# Stress axis : x y z
#
# Youngs Moduli (GPa) = 77.52129 34.72731 61.76125
#
# Poissons Ratio (x) = 0.17182 0.15961
# Poissons Ratio (y) = 0.38356 0.40452
# Poissons Ratio (z) = 0.20034 0.22746
#
# Static dielectric constant tensor:
#      x y z
#    x 6.163800 0.000000 0.000000 
#    y 0.000000 3.602790 0.000000 
#    z 0.000000 0.000000 3.431140 
# 
# 
# High freq. dielectric constant tensor:
#      x y z
#    x 1.769860 0.000000 0.000000 
#    y 0.000000 1.775760 0.000000 
#    z 0.000000 0.000000 1.750710 
# 
# From -- ./inp_files/43414.got.cif
#   From: 2010.06.25/outbox.cif.g09.slc.cpg/sg71_22_cif.got.tgz:43414.got - 2010.06.28 04:59:45.
