data_PCOD8289405
_publ_section_title
;
Structure prediction by ZEFSAII (Michael W. Deem and Ramdas Pophale) SiO2 
 PCOD8289405
Probable space group: I M M M
;
_chemical_formula_sum "Si O2"
_cell_formula_units_Z 104
_cell_length_a 25.186312
_cell_length_b 25.514805
_cell_length_c 9.238393
_cell_angle_alpha 90.000000
_cell_angle_beta 90.000000
_cell_angle_gamma 90.000000
_cell_volume 5936.811579
_symmetry_space_group_name_H-M "I M M M"
_symmetry_group_IT_number 71
_symmetry_cell_setting 'orthorhombic'
loop_
_space_group_symop_operation_xyz
x,y,z
-x,-y,z
x,-y,-z
-x,y,-z
-x,-y,-z
x,y,-z
-x,y,z
x,-y,z
1/2+x,1/2+y,1/2+z
1/2-x,1/2-y,1/2+z
1/2+x,1/2-y,1/2-z
1/2-x,1/2+y,1/2-z
1/2-x,1/2-y,1/2-z
1/2+x,1/2+y,1/2-z
1/2-x,1/2+y,1/2+z
1/2+x,1/2-y,1/2+z
loop_
_atom_site_type_symbol
_atom_site_label
_atom_site_fract_x
_atom_site_fract_y
_atom_site_fract_z
Si Si1 0.799572 0.318637 0.664007
Si Si2 0.399942 0.349300 0.670373
Si Si3 0.939606 0.500000 0.669532
Si Si4 0.000000 0.785907 0.171641
Si Si5 0.097222 0.613644 0.330076
Si Si6 0.000000 0.333388 0.172451
Si Si7 0.804466 0.803256 0.336219
Si Si8 0.938506 0.058663 0.338245
O O1 0.780638 0.331792 0.500000
O O2 0.846475 0.359107 0.709276
O O3 0.817459 0.258333 0.670895
O O4 0.752545 0.322828 0.779531
O O5 0.398010 0.346195 0.500000
O O6 0.448029 0.314534 0.734723
O O7 0.345122 0.329783 0.730390
O O8 0.406523 0.408819 0.720267
O O9 0.947647 0.500000 0.500000
O O10 0.905506 0.551786 0.713704
O O11 0.000000 0.500000 0.737886
O O12 0.000000 0.726513 0.223801
O O13 0.000000 0.790069 0.000000
O O14 0.085046 0.621291 0.500000
O O15 0.052436 0.641216 0.236504
O O16 0.000000 0.339484 0.000000
O O17 0.809923 0.823620 0.500000
O O18 0.929636 0.081263 0.500000
O O19 0.000000 0.059863 0.297109
O O20 0.916311 0.000000 0.329817
#
# Coordination Sequence:
#
# PCOD8289405 Si02
#       8
#    16  16   8   8  16   8  16  16
#     4   9  19  35  55  78 101 133 177 221 262 316
#     4  11  20  33  52  75 105 138 175 215 256 307
#     4   9  16  30  54  80 106 138 172 209 260 311
#     4   9  20  33  45  71 109 143 169 206 259 308
#     4  10  19  34  55  77 103 135 175 216 259 310
#     4  11  21  32  48  74 109 142 171 204 255 310
#     4  10  20  34  53  77 105 136 173 215 270 323
#     4   9  18  33  52  74 101 133 168 207 254 305
#
# _framework density 17.51782
#
# number of rings (size 3 to 8) (size 9 to 14) (size 15 to 20)
#    0.000    2.231    1.538    2.538    0.000    1.538 
#    0.000    3.846    1.692    0.000    0.000    0.000 
#    0.000    0.000    0.000    0.000    0.000    0.000 
#
# Total GULP energy -644575.400199 kJ/mol
# GULP energy per Si atom -12395.680773 kJ/mol
# Density = 1.747795 g / cm^3
# Si number density = 17.517820 Si / 1000 Ang^3
#
#
#
# Elastic Constant Matrix: (Units=GPa)
#
#
# Indices 1 2 3 4 5 6 
#
# 1 90.2113 55.3811 37.9590 0.0000 0.0000 0.0000
# 2 55.3811 105.1486 37.0853 0.0000 0.0000 0.0000
# 3 37.9590 37.0853 72.9972 0.0000 0.0000 0.0000
# 4 0.0000 0.0000 0.0000 25.4483 0.0000 0.0000
# 5 0.0000 0.0000 0.0000 0.0000 16.4984 0.0000
# 6 0.0000 0.0000 0.0000 0.0000 0.0000 72.2108
#
#
#
# Elastic Compliance Matrix: (Units=1/GPa)
#
#
# Indices 1 2 3 4 5 6 
#
# 1 0.018058 -0.007553 -0.005554 0.000000 0.000000 0.000000
# 2 -0.007553 0.014745 -0.003564 0.000000 0.000000 0.000000
# 3 -0.005554 -0.003564 0.018397 0.000000 0.000000 0.000000
# 4 0.000000 0.000000 0.000000 0.039295 0.000000 0.000000
# 5 0.000000 0.000000 0.000000 0.000000 0.060612 0.000000
# 6 0.000000 0.000000 0.000000 0.000000 0.000000 0.013848
#
#
# Mechanical properties :
#
#
# Convention : Reuss Voigt Hill
#
# Bulk Modulus (GPa) = 55.98628 58.80088 57.39358
# Shear Modulus (GPa) = 24.47979 32.02695 28.25337
#
# Velocity S-wave (km/s) = 3.74227 4.28044 4.02037
# Velocity P-wave (km/s) = 7.12052 7.62029 7.37464
#
# Compressibility (1/GPa) = 0.01786152
#
# Stress axis : x y z
#
# Youngs Moduli (GPa) = 55.37573 67.81905 54.35522
#
# Poissons Ratio (x) = 0.51221 0.30186
# Poissons Ratio (y) = 0.41823 0.19370
# Poissons Ratio (z) = 0.30753 0.24169
#
# Static dielectric constant tensor:
#      x y z
#    x 3.199430 0.000000 0.000000 
#    y 0.000000 3.627770 0.000000 
#    z 0.000000 0.000000 3.174820 
# 
# 
# High freq. dielectric constant tensor:
#      x y z
#    x 1.666890 0.000000 0.000000 
#    y 0.000000 1.676730 0.000000 
#    z 0.000000 0.000000 1.670480 
# 
# From -- ./inp_files/15356.got.cif
#   From: 2010.06.25/outbox.cif.g09.slc.cpg/sg71_8_cif.got.tgz:15356.got - 2010.06.28 04:59:45.
