data_PCOD8289217
_publ_section_title
;
Structure prediction by ZEFSAII (Michael W. Deem and Ramdas Pophale) SiO2 
 PCOD8289217
Probable space group: I M M M
;
_chemical_formula_sum "Si O2"
_cell_formula_units_Z 104
_cell_length_a 28.026177
_cell_length_b 9.115128
_cell_length_c 22.577327
_cell_angle_alpha 90.000000
_cell_angle_beta 90.000000
_cell_angle_gamma 90.000000
_cell_volume 5767.653416
_symmetry_space_group_name_H-M "I M M M"
_symmetry_group_IT_number 71
_symmetry_cell_setting 'orthorhombic'
loop_
_space_group_symop_operation_xyz
x,y,z
-x,-y,z
x,-y,-z
-x,y,-z
-x,-y,-z
x,y,-z
-x,y,z
x,-y,z
1/2+x,1/2+y,1/2+z
1/2-x,1/2-y,1/2+z
1/2+x,1/2-y,1/2-z
1/2-x,1/2+y,1/2-z
1/2-x,1/2-y,1/2-z
1/2+x,1/2+y,1/2-z
1/2-x,1/2+y,1/2+z
1/2+x,1/2-y,1/2+z
loop_
_atom_site_type_symbol
_atom_site_label
_atom_site_fract_x
_atom_site_fract_y
_atom_site_fract_z
Si Si1 0.794886 0.334038 0.814670
Si Si2 0.886908 0.826416 0.828741
Si Si3 0.943877 0.825329 0.500000
Si Si4 0.201487 0.666721 0.325685
Si Si5 0.552955 0.325975 0.435998
Si Si6 0.445759 0.831760 0.232535
Si Si7 0.897538 0.330979 0.388199
O O1 0.800362 0.500000 0.836761
O O2 0.834308 0.229807 0.842779
O O3 0.804434 0.323970 0.744723
O O4 0.744586 0.276543 0.840066
O O5 0.916733 0.759241 0.882997
O O6 0.909255 0.769007 0.767970
O O7 0.886378 0.000000 0.825747
O O8 0.915150 0.766793 0.557112
O O9 0.000000 0.774938 0.500000
O O10 0.941025 0.000000 0.500000
O O11 0.214449 0.500000 0.343651
O O12 0.154204 0.717601 0.361581
O O13 0.574740 0.281161 0.500000
O O14 0.500000 0.261049 0.430334
O O15 0.551365 0.500000 0.430267
O O16 0.500000 0.785086 0.246383
O O17 0.436629 0.809883 0.163009
O O18 0.435983 0.000000 0.250420
O O19 0.895155 0.500000 0.408892
#
# Coordination Sequence:
#
# PCOD8289217 Si02
#       7
#    16  16   8  16  16  16  16
#     4  10  19  33  53  79 112 142 172 212 268 325
#     4  11  20  30  50  79 108 138 177 222 269 317
#     4  11  25  41  57  83 117 149 187 237 286 333
#     4   9  18  34  56  81 106 134 176 220 261 319
#     4   8  15  29  48  70  99 136 177 217 254 298
#     4  10  20  34  52  77 110 143 175 216 269 328
#     4  10  20  38  61  81 105 143 188 227 270 331
#
# _framework density 18.031597000000001
#
# number of rings (size 3 to 8) (size 9 to 14) (size 15 to 20)
#    0.000    2.231    1.538    2.538    0.000    4.000 
#    0.000    0.000    1.692    1.846    0.000    5.385 
#    0.000    0.000    0.000    0.000    0.000    0.000 
#
# Total GULP energy -644516.097049 kJ/mol
# GULP energy per Si atom -12394.540328 kJ/mol
# Density = 1.799056 g / cm^3
# Si number density = 18.031597 Si / 1000 Ang^3
#
#
#
# Elastic Constant Matrix: (Units=GPa)
#
#
# Indices 1 2 3 4 5 6 
#
# 1 118.1920 49.7115 42.1603 0.0000 0.0000 0.0000
# 2 49.7115 76.2435 34.2033 0.0000 0.0000 0.0000
# 3 42.1603 34.2033 75.9330 0.0000 0.0000 0.0000
# 4 0.0000 0.0000 0.0000 19.9845 0.0000 0.0000
# 5 0.0000 0.0000 0.0000 0.0000 26.7004 0.0000
# 6 0.0000 0.0000 0.0000 0.0000 0.0000 30.8434
#
#
#
# Elastic Compliance Matrix: (Units=1/GPa)
#
#
# Indices 1 2 3 4 5 6 
#
# 1 0.012615 -0.006370 -0.004135 0.000000 0.000000 0.000000
# 2 -0.006370 0.019654 -0.005316 0.000000 0.000000 0.000000
# 3 -0.004135 -0.005316 0.017860 0.000000 0.000000 0.000000
# 4 0.000000 0.000000 0.000000 0.050039 0.000000 0.000000
# 5 0.000000 0.000000 0.000000 0.000000 0.037453 0.000000
# 6 0.000000 0.000000 0.000000 0.000000 0.000000 0.032422
#
#
# Mechanical properties :
#
#
# Convention : Reuss Voigt Hill
#
# Bulk Modulus (GPa) = 54.09276 58.05764 56.07520
# Shear Modulus (GPa) = 24.05616 25.12523 24.59070
#
# Velocity S-wave (km/s) = 3.65651 3.73688 3.69691
# Velocity P-wave (km/s) = 6.92032 7.13349 7.02771
#
# Compressibility (1/GPa) = 0.01848676
#
# Stress axis : x y z
#
# Youngs Moduli (GPa) = 79.27029 50.87980 55.99144
#
# Poissons Ratio (x) = 0.32412 0.23152
# Poissons Ratio (y) = 0.50497 0.29766
# Poissons Ratio (z) = 0.32777 0.27048
#
# Static dielectric constant tensor:
#      x y z
#    x 3.494750 0.000000 0.000000 
#    y 0.000000 3.188220 0.000000 
#    z 0.000000 0.000000 3.281070 
# 
# 
# High freq. dielectric constant tensor:
#      x y z
#    x 1.707350 0.000000 0.000000 
#    y 0.000000 1.685530 0.000000 
#    z 0.000000 0.000000 1.679620 
# 
# From -- ./inp_files/16954.got.cif
#   From: 2010.06.25/outbox.cif.g09.slc.cpg/sg71_9_cif.got.tgz:16954.got - 2010.06.28 04:59:45.
