data_PCOD8289948
_publ_section_title
;
Structure prediction by ZEFSAII (Michael W. Deem and Ramdas Pophale) SiO2 
 PCOD8289948
Probable space group: I M M M
;
_chemical_formula_sum "Si O2"
_cell_formula_units_Z 88
_cell_length_a 9.950929
_cell_length_b 29.130128
_cell_length_c 17.056682
_cell_angle_alpha 90.000000
_cell_angle_beta 90.000000
_cell_angle_gamma 90.000000
_cell_volume 4944.251719
_symmetry_space_group_name_H-M "I M M M"
_symmetry_group_IT_number 71
_symmetry_cell_setting 'orthorhombic'
loop_
_space_group_symop_operation_xyz
x,y,z
-x,-y,z
x,-y,-z
-x,y,-z
-x,-y,-z
x,y,-z
-x,y,z
x,-y,z
1/2+x,1/2+y,1/2+z
1/2-x,1/2-y,1/2+z
1/2+x,1/2-y,1/2-z
1/2-x,1/2+y,1/2-z
1/2-x,1/2-y,1/2-z
1/2+x,1/2+y,1/2-z
1/2-x,1/2+y,1/2+z
1/2+x,1/2-y,1/2+z
loop_
_atom_site_type_symbol
_atom_site_label
_atom_site_fract_x
_atom_site_fract_y
_atom_site_fract_z
Si Si1 0.345892 0.120817 0.365428
Si Si2 0.351089 0.554159 0.587266
Si Si3 0.841349 0.551831 0.000000
Si Si4 0.153530 0.611032 0.315948
Si Si5 0.349017 0.298778 0.092534
Si Si6 0.159157 0.697208 0.587181
O O1 0.500000 0.133782 0.386419
O O2 0.294532 0.079945 0.422605
O O3 0.333265 0.104782 0.276521
O O4 0.254588 0.165389 0.372133
O O5 0.315267 0.571910 0.500000
O O6 0.500000 0.571831 0.610941
O O7 0.348760 0.500000 0.588884
O O8 0.241345 0.570994 0.647975
O O9 0.778457 0.500000 0.000000
O O10 0.000000 0.546846 0.000000
O O11 0.208115 0.659987 0.348765
O O12 0.000000 0.604449 0.342996
O O13 0.500000 0.307317 0.125967
O O14 0.294445 0.247921 0.114839
O O15 0.352484 0.304223 0.000000
O O16 0.216912 0.685507 0.500000
O O17 0.000000 0.698492 0.581720
#
# Coordination Sequence:
#
# PCOD8289948 Si02
#       6
#    16  16   8  16  16  16
#     4  10  20  33  51  75 101 130 167 215 265 309
#     4   9  19  36  55  74 101 138 172 203 250 309
#     4   9  18  34  53  69  93 133 171 207 264 323
#     4  10  20  32  50  78 106 132 170 217 256 301
#     4   9  17  31  52  72  94 132 175 207 246 310
#     4   8  15  29  48  71 101 135 166 202 253 306
#
# _framework density 17.798445999999998
#
# number of rings (size 3 to 8) (size 9 to 14) (size 15 to 20)
#    0.000    2.818    0.909    2.182    0.000    3.636 
#    0.000    3.636    0.000    2.182    0.000    0.000 
#    0.000    0.000    0.000    0.000    0.000    0.000 
#
# Total GULP energy -545362.410488 kJ/mol
# GULP energy per Si atom -12394.600238 kJ/mol
# Density = 1.775794 g / cm^3
# Si number density = 17.798446 Si / 1000 Ang^3
#
#
#
# Elastic Constant Matrix: (Units=GPa)
#
#
# Indices 1 2 3 4 5 6 
#
# 1 65.0468 37.3824 41.0754 0.0006 0.0001 0.0001
# 2 37.3824 80.7157 49.7054 0.0006 0.0000 0.0000
# 3 41.0754 49.7054 95.2672 0.0026 0.0001 0.0002
# 4 0.0006 0.0006 0.0026 20.3645 0.0001 0.0001
# 5 0.0001 0.0000 0.0001 0.0001 15.8803 0.0002
# 6 0.0001 0.0000 0.0002 0.0001 0.0002 29.0770
#
#
#
# Elastic Compliance Matrix: (Units=1/GPa)
#
#
# Indices 1 2 3 4 5 6 
#
# 1 0.023424 -0.006820 -0.006541 0.000000 0.000000 0.000000
# 2 -0.006820 0.020240 -0.007620 0.000001 0.000000 0.000000
# 3 -0.006541 -0.007620 0.017292 -0.000002 0.000000 0.000000
# 4 0.000000 0.000001 -0.000002 0.049105 0.000000 0.000000
# 5 0.000000 0.000000 0.000000 0.000000 0.062971 0.000000
# 6 0.000000 0.000000 0.000000 0.000000 0.000000 0.034391
#
#
# Mechanical properties :
#
#
# Convention : Reuss Voigt Hill
#
# Bulk Modulus (GPa) = 52.64653 55.26178 53.95416
# Shear Modulus (GPa) = 19.55290 20.58880 20.07085
#
# Velocity S-wave (km/s) = 3.31807 3.40483 3.36173
# Velocity P-wave (km/s) = 6.65755 6.82446 6.74152
#
# Compressibility (1/GPa) = 0.01899461
#
# Stress axis : x y z
#
# Youngs Moduli (GPa) = 42.69201 49.40680 57.82901
#
# Poissons Ratio (x) = 0.33698 0.37824
# Poissons Ratio (y) = 0.29118 0.44063
# Poissons Ratio (z) = 0.27924 0.37646
#
# Static dielectric constant tensor:
#      x y z
#    x 3.247560 0.000000 0.000000 
#    y 0.000000 3.477350 0.000000 
#    z 0.000000 0.000000 3.274600 
# 
# 
# High freq. dielectric constant tensor:
#      x y z
#    x 1.662050 0.000000 0.000000 
#    y 0.000000 1.689100 0.000000 
#    z 0.000000 0.000000 1.684440 
# 
# From -- ./inp_files/8742.got.cif
#   From: 2010.06.25/outbox.cif.g09.slc.cpg/sg71_5_cif.got.tgz:8742.got - 2010.06.28 04:59:45.
