data_PCOD8289462
_publ_section_title
;
Structure prediction by ZEFSAII (Michael W. Deem and Ramdas Pophale) SiO2 
 PCOD8289462
Probable space group: I M M M
;
_chemical_formula_sum "Si O2"
_cell_formula_units_Z 96
_cell_length_a 28.671016
_cell_length_b 12.191476
_cell_length_c 13.793651
_cell_angle_alpha 90.000000
_cell_angle_beta 90.000000
_cell_angle_gamma 90.000000
_cell_volume 4821.460406
_symmetry_space_group_name_H-M "I M M M"
_symmetry_group_IT_number 71
_symmetry_cell_setting 'orthorhombic'
loop_
_space_group_symop_operation_xyz
x,y,z
-x,-y,z
x,-y,-z
-x,y,-z
-x,-y,-z
x,y,-z
-x,y,z
x,-y,z
1/2+x,1/2+y,1/2+z
1/2-x,1/2-y,1/2+z
1/2+x,1/2-y,1/2-z
1/2-x,1/2+y,1/2-z
1/2-x,1/2-y,1/2-z
1/2+x,1/2+y,1/2-z
1/2-x,1/2+y,1/2+z
1/2+x,1/2-y,1/2+z
loop_
_atom_site_type_symbol
_atom_site_label
_atom_site_fract_x
_atom_site_fract_y
_atom_site_fract_z
Si Si1 0.739932 0.000000 0.388761
Si Si2 0.602171 0.500000 0.389660
Si Si3 0.797508 0.262820 0.111892
Si Si4 0.054997 0.378794 0.000000
Si Si5 0.137800 0.229989 0.287071
Si Si6 0.708387 0.122223 0.886156
Si Si7 0.835561 0.000000 0.291241
Si Si8 0.554662 0.721301 0.329679
O O1 0.708674 0.107371 0.371561
O O2 0.780357 0.000000 0.308442
O O3 0.759641 0.000000 0.500000
O O4 0.620210 0.500000 0.500000
O O5 0.648458 0.500000 0.322146
O O6 0.568677 0.602910 0.369863
O O7 0.838906 0.220671 0.179603
O O8 0.750629 0.200217 0.146127
O O9 0.809672 0.235835 0.000000
O O10 0.070992 0.313788 0.905279
O O11 0.078198 0.500000 0.000000
O O12 0.000000 0.389003 0.000000
O O13 0.159842 0.327583 0.348477
O O14 0.082692 0.248857 0.269794
O O15 0.144581 0.111780 0.340179
O O16 0.714946 0.000000 0.842442
O O17 0.704678 0.116036 0.000000
O O18 0.500000 0.725119 0.307135
#
# Coordination Sequence:
#
# PCOD8289462 Si02
#       8
#     8   8  16   8  16  16   8  16
#     4  10  20  38  57  77 107 145 184 228 277 329
#     4  10  19  34  56  84 114 148 185 227 275 322
#     4  10  22  36  54  81 114 147 184 223 268 327
#     4   9  18  33  51  71 101 140 181 217 257 319
#     4  11  23  35  57  80 112 145 181 231 273 320
#     4  10  22  39  59  82 109 145 183 223 275 331
#     4  10  22  33  54  82 107 144 188 227 264 328
#     4  10  21  36  55  80 108 145 186 225 274 324
#
# _framework density 19.910979999999999
#
# number of rings (size 3 to 8) (size 9 to 14) (size 15 to 20)
#    0.000    1.917    2.500    0.750    3.500    1.667 
#    0.000    0.000    0.000    0.500    0.000    1.167 
#    0.000    6.667    0.000    0.000    0.000    0.000 
#
# Total GULP energy -595077.695763 kJ/mol
# GULP energy per Si atom -12397.451995 kJ/mol
# Density = 1.986566 g / cm^3
# Si number density = 19.910980 Si / 1000 Ang^3
#
#
#
# Elastic Constant Matrix: (Units=GPa)
#
#
# Indices 1 2 3 4 5 6 
#
# 1 76.8250 24.6716 22.1449 0.0000 0.0000 0.0000
# 2 24.6716 153.5187 19.8466 0.0000 0.0000 0.0000
# 3 22.1449 19.8466 17.3885 0.0000 0.0000 0.0000
# 4 0.0000 0.0000 0.0000 28.1840 0.0000 0.0000
# 5 0.0000 0.0000 0.0000 0.0000 26.9064 0.0000
# 6 0.0000 0.0000 0.0000 0.0000 0.0000 21.1028
#
#
#
# Elastic Compliance Matrix: (Units=1/GPa)
#
#
# Indices 1 2 3 4 5 6 
#
# 1 0.020568 0.000095 -0.026302 0.000000 0.000000 0.000000
# 2 0.000095 0.007642 -0.008843 0.000000 0.000000 0.000000
# 3 -0.026302 -0.008843 0.101099 0.000000 0.000000 0.000000
# 4 0.000000 0.000000 0.000000 0.035481 0.000000 0.000000
# 5 0.000000 0.000000 0.000000 0.000000 0.037166 0.000000
# 6 0.000000 0.000000 0.000000 0.000000 0.000000 0.047387
#
#
# Mechanical properties :
#
#
# Convention : Reuss Voigt Hill
#
# Bulk Modulus (GPa) = 16.88955 42.33983 29.61469
# Shear Modulus (GPa) = 14.74151 27.30993 21.02572
#
# Velocity S-wave (km/s) = 2.72393 3.70753 3.25312
# Velocity P-wave (km/s) = 4.28882 6.29591 5.38667
#
# Compressibility (1/GPa) = 0.05920820
#
# Stress axis : x y z
#
# Youngs Moduli (GPa) = 48.61995 130.85897 9.89132
#
# Poissons Ratio (x) = -0.01242 0.26016
# Poissons Ratio (y) = -0.00461 0.08747
# Poissons Ratio (z) = 1.27880 1.15718
#
# Static dielectric constant tensor:
#      x y z
#    x 3.390670 0.000000 0.000000 
#    y 0.000000 4.203080 0.000000 
#    z 0.000000 0.000000 3.469450 
# 
# 
# High freq. dielectric constant tensor:
#      x y z
#    x 1.753140 0.000000 0.000000 
#    y 0.000000 1.804720 0.000000 
#    z 0.000000 0.000000 1.750750 
# 
# From -- ./inp_files/40917.got.cif
#   From: 2010.06.25/outbox.cif.g09.slc.cpg/sg71_21_cif.got.tgz:40917.got - 2010.06.28 04:59:45.
