data_PCOD8289287
_publ_section_title
;
Structure prediction by ZEFSAII (Michael W. Deem and Ramdas Pophale) SiO2 
 PCOD8289287
Probable space group: I M M M
;
_chemical_formula_sum "Si O2"
_cell_formula_units_Z 112
_cell_length_a 15.960756
_cell_length_b 15.113441
_cell_length_c 22.908904
_cell_angle_alpha 90.000000
_cell_angle_beta 90.000000
_cell_angle_gamma 90.000000
_cell_volume 5526.130361
_symmetry_space_group_name_H-M "I M M M"
_symmetry_group_IT_number 71
_symmetry_cell_setting 'orthorhombic'
loop_
_space_group_symop_operation_xyz
x,y,z
-x,-y,z
x,-y,-z
-x,y,-z
-x,-y,-z
x,y,-z
-x,y,z
x,-y,z
1/2+x,1/2+y,1/2+z
1/2-x,1/2-y,1/2+z
1/2+x,1/2-y,1/2-z
1/2-x,1/2+y,1/2-z
1/2-x,1/2-y,1/2-z
1/2+x,1/2+y,1/2-z
1/2-x,1/2+y,1/2+z
1/2+x,1/2-y,1/2+z
loop_
_atom_site_type_symbol
_atom_site_label
_atom_site_fract_x
_atom_site_fract_y
_atom_site_fract_z
Si Si1 0.828394 0.095092 0.769556
Si Si2 0.236527 0.399372 0.619750
Si Si3 0.819703 0.897735 0.567998
Si Si4 0.403201 0.234086 0.123718
Si Si5 0.293041 0.097331 0.670067
Si Si6 0.906624 0.729765 0.240030
Si Si7 0.091031 0.894984 0.934381
O O1 0.744693 0.104328 0.809851
O O2 0.795957 0.099450 0.703432
O O3 0.896899 0.169702 0.782206
O O4 0.871803 0.000000 0.782587
O O5 0.220218 0.500000 0.597692
O O6 0.160059 0.338953 0.596034
O O7 0.326921 0.360175 0.599432
O O8 0.804158 0.877060 0.500000
O O9 0.888437 0.829857 0.594193
O O10 0.731762 0.882387 0.602724
O O11 0.850168 0.000000 0.576461
O O12 0.500000 0.207694 0.112388
O O13 0.381390 0.230610 0.192220
O O14 0.352276 0.169794 0.697648
O O15 0.335005 0.000000 0.675406
O O16 0.000000 0.696004 0.231617
O O17 0.000000 0.862280 0.908804
O O18 0.092730 0.000000 0.932901
O O19 0.098809 0.859626 0.000000
#
# Coordination Sequence:
#
# PCOD8289287 Si02
#       7
#    16  16  16  16  16  16  16
#     4  10  19  33  55  81 111 151 191 236 295 358
#     4  10  20  34  55  83 119 160 195 232 289 355
#     4  10  22  41  65  88 110 148 205 264 316 361
#     4  11  23  37  56  85 121 160 204 249 293 354
#     4  10  19  36  61  86 116 153 197 248 303 364
#     4  11  22  35  55  85 122 158 193 242 304 369
#     4   8  15  30  52  76 103 139 185 233 278 329
#
# _framework density 20.267347000000001
#
# number of rings (size 3 to 8) (size 9 to 14) (size 15 to 20)
#    0.000    2.000    2.857    1.714    0.000    2.571 
#    0.000    5.000    0.000    0.429    0.000    5.000 
#    0.000    0.000    0.000    0.000    0.000    0.143 
#
# Total GULP energy -693772.936899 kJ/mol
# GULP energy per Si atom -12388.802445 kJ/mol
# Density = 2.022122 g / cm^3
# Si number density = 20.267347 Si / 1000 Ang^3
#
#
#
# Elastic Constant Matrix: (Units=GPa)
#
#
# Indices 1 2 3 4 5 6 
#
# 1 122.8208 69.8841 49.8219 0.0000 0.0000 0.0000
# 2 69.8841 110.3887 36.7881 0.0000 0.0000 0.0000
# 3 49.8219 36.7881 93.0349 0.0000 0.0000 0.0000
# 4 0.0000 0.0000 0.0000 22.7200 0.0000 0.0000
# 5 0.0000 0.0000 0.0000 0.0000 20.8215 0.0000
# 6 0.0000 0.0000 0.0000 0.0000 0.0000 14.8060
#
#
#
# Elastic Compliance Matrix: (Units=1/GPa)
#
#
# Indices 1 2 3 4 5 6 
#
# 1 0.014314 -0.007495 -0.004702 0.000000 0.000000 0.000000
# 2 -0.007495 0.014358 -0.001664 0.000000 0.000000 0.000000
# 3 -0.004702 -0.001664 0.013924 0.000000 0.000000 0.000000
# 4 0.000000 0.000000 0.000000 0.044014 0.000000 0.000000
# 5 0.000000 0.000000 0.000000 0.000000 0.048027 0.000000
# 6 0.000000 0.000000 0.000000 0.000000 0.000000 0.067540
#
#
# Mechanical properties :
#
#
# Convention : Reuss Voigt Hill
#
# Bulk Modulus (GPa) = 67.22435 71.02583 69.12509
# Shear Modulus (GPa) = 21.28958 22.98618 22.13788
#
# Velocity S-wave (km/s) = 3.24456 3.37137 3.30857
# Velocity P-wave (km/s) = 6.87583 7.09051 6.98400
#
# Compressibility (1/GPa) = 0.01487556
#
# Stress axis : x y z
#
# Youngs Moduli (GPa) = 69.86398 69.64707 71.81623
#
# Poissons Ratio (x) = 0.52198 0.33765
# Poissons Ratio (y) = 0.52361 0.11950
# Poissons Ratio (z) = 0.32847 0.11589
#
# Static dielectric constant tensor:
#      x y z
#    x 3.511660 0.000000 0.000000 
#    y 0.000000 3.669840 0.000000 
#    z 0.000000 0.000000 3.772220 
# 
# 
# High freq. dielectric constant tensor:
#      x y z
#    x 1.764240 0.000000 0.000000 
#    y 0.000000 1.785330 0.000000 
#    z 0.000000 0.000000 1.787870 
# 
# From -- ./inp_files/34882.got.cif
#   From: 2010.06.25/outbox.cif.g09.slc.cpg/sg71_18_cif.got.tgz:34882.got - 2010.06.28 04:59:45.
