data_PCOD8289486
_publ_section_title
;
Structure prediction by ZEFSAII (Michael W. Deem and Ramdas Pophale) SiO2 
 PCOD8289486
Probable space group: I M M M
;
_chemical_formula_sum "Si O2"
_cell_formula_units_Z 80
_cell_length_a 24.219728
_cell_length_b 17.544222
_cell_length_c 10.065111
_cell_angle_alpha 90.000000
_cell_angle_beta 90.000000
_cell_angle_gamma 90.000000
_cell_volume 4276.829572
_symmetry_space_group_name_H-M "I M M M"
_symmetry_group_IT_number 71
_symmetry_cell_setting 'orthorhombic'
loop_
_space_group_symop_operation_xyz
x,y,z
-x,-y,z
x,-y,-z
-x,y,-z
-x,-y,-z
x,y,-z
-x,y,z
x,-y,z
1/2+x,1/2+y,1/2+z
1/2-x,1/2-y,1/2+z
1/2+x,1/2-y,1/2-z
1/2-x,1/2+y,1/2-z
1/2-x,1/2-y,1/2-z
1/2+x,1/2+y,1/2-z
1/2-x,1/2+y,1/2+z
1/2+x,1/2-y,1/2+z
loop_
_atom_site_type_symbol
_atom_site_label
_atom_site_fract_x
_atom_site_fract_y
_atom_site_fract_z
Si Si1 0.438731 0.090627 0.851355
Si Si2 0.368358 0.590513 0.754793
Si Si3 0.060449 0.909777 0.500000
Si Si4 0.238358 0.178836 0.656166
Si Si5 0.349918 0.911951 0.351324
Si Si6 0.063091 0.090351 0.000000
O O1 0.500000 0.121833 0.817420
O O2 0.394572 0.125617 0.748492
O O3 0.439459 0.000000 0.839974
O O4 0.421644 0.115756 0.000000
O O5 0.357416 0.500000 0.754998
O O6 0.310778 0.632841 0.773960
O O7 0.400972 0.618302 0.624698
O O8 0.407496 0.618437 0.872028
O O9 0.000000 0.872084 0.500000
O O10 0.055237 0.000000 0.500000
O O11 0.226246 0.199516 0.500000
O O12 0.250000 0.250000 0.750000
O O13 0.291319 0.126186 0.665800
O O14 0.373038 0.900712 0.500000
O O15 0.341172 0.000000 0.316901
O O16 0.000000 0.123683 0.000000
O O17 0.058006 0.000000 0.000000
#
# Coordination Sequence:
#
# PCOD8289486 Si02
#       6
#    16  16   8  16  16   8
#     4   8  14  26  46  75 107 133 160 203 260 313
#     4  10  19  34  57  84 115 147 183 228 276 330
#     4   9  16  28  53  86 112 138 177 226 276 325
#     4  11  24  39  55  77 107 148 188 230 275 326
#     4   9  18  33  54  79 105 134 172 219 266 317
#     4   9  18  32  53  86 122 148 175 222 282 337
#
# _framework density 18.705444
#
# number of rings (size 3 to 8) (size 9 to 14) (size 15 to 20)
#    0.000    2.600    1.000    1.800    1.400    4.400 
#    0.000    2.000    0.000    2.400    0.000    0.000 
#    0.000    0.000    0.000    0.000    0.000    0.000 
#
# Total GULP energy -495754.299048 kJ/mol
# GULP energy per Si atom -12393.857476 kJ/mol
# Density = 1.866287 g / cm^3
# Si number density = 18.705444 Si / 1000 Ang^3
#
#
#
# Elastic Constant Matrix: (Units=GPa)
#
#
# Indices 1 2 3 4 5 6 
#
# 1 150.2540 38.0706 96.7680 0.0000 0.0000 0.0000
# 2 38.0706 38.9731 39.6453 0.0000 0.0000 0.0000
# 3 96.7680 39.6453 169.6260 0.0000 0.0000 0.0000
# 4 0.0000 0.0000 0.0000 -638.1448 0.0000 0.0000
# 5 0.0000 0.0000 0.0000 0.0000 36.9007 0.0000
# 6 0.0000 0.0000 0.0000 0.0000 0.0000 -4.0771
#
#
#
# Elastic Compliance Matrix: (Units=1/GPa)
#
#
# Indices 1 2 3 4 5 6 
#
# 1 0.011493 -0.005979 -0.005159 0.000000 0.000000 0.000000
# 2 -0.005979 0.036772 -0.005184 0.000000 0.000000 0.000000
# 3 -0.005159 -0.005184 0.010050 0.000000 0.000000 0.000000
# 4 0.000000 0.000000 0.000000 -0.001567 0.000000 0.000000
# 5 0.000000 0.000000 0.000000 0.000000 0.027100 0.000000
# 6 0.000000 0.000000 0.000000 0.000000 0.000000 -0.245274
#
#
# Mechanical properties :
#
#
# Convention : Reuss Voigt Hill
#
# Bulk Modulus (GPa) = 38.95291 78.64676 58.79984
# Shear Modulus (GPa) = -41.58817 -108.77296 -75.18056
#
# Velocity S-wave (km/s) = -4.72032 -7.63392 -6.34658
# Velocity P-wave (km/s) = 2.97305 5.96373 4.71196
#
# Compressibility (1/GPa) = 0.02567202
#
# Stress axis : x y z
#
# Youngs Moduli (GPa) = 87.01082 27.19451 99.50231
#
# Poissons Ratio (x) = 0.16259 0.51334
# Poissons Ratio (y) = 0.52021 0.51580
# Poissons Ratio (z) = 0.44889 0.14097
#
# Static dielectric constant tensor:
#      x y z
#    x 3.728530 0.000000 0.000000 
#    y 0.000000 2.960390 0.000000 
#    z 0.000000 0.000000 3.787790 
# 
# 
# High freq. dielectric constant tensor:
#      x y z
#    x 1.742010 0.000000 0.000000 
#    y 0.000000 1.675490 0.000000 
#    z 0.000000 0.000000 1.740670 
# 
# From -- ./inp_files/12415.got.cif
#   From: 2010.06.25/outbox.cif.g09.slc.cpg/sg71_7_cif.got.tgz:12415.got - 2010.06.28 04:59:45.
