data_PCOD8289347
_publ_section_title
;
Structure prediction by ZEFSAII (Michael W. Deem and Ramdas Pophale) SiO2 
 PCOD8289347
Probable space group: I M M M
;
_chemical_formula_sum "Si O2"
_cell_formula_units_Z 112
_cell_length_a 26.697739
_cell_length_b 19.282232
_cell_length_c 12.550137
_cell_angle_alpha 90.000000
_cell_angle_beta 90.000000
_cell_angle_gamma 90.000000
_cell_volume 6460.710092
_symmetry_space_group_name_H-M "I M M M"
_symmetry_group_IT_number 71
_symmetry_cell_setting 'orthorhombic'
loop_
_space_group_symop_operation_xyz
x,y,z
-x,-y,z
x,-y,-z
-x,y,-z
-x,-y,-z
x,y,-z
-x,y,z
x,-y,z
1/2+x,1/2+y,1/2+z
1/2-x,1/2-y,1/2+z
1/2+x,1/2-y,1/2-z
1/2-x,1/2+y,1/2-z
1/2-x,1/2-y,1/2-z
1/2+x,1/2+y,1/2-z
1/2-x,1/2+y,1/2+z
1/2+x,1/2-y,1/2+z
loop_
_atom_site_type_symbol
_atom_site_label
_atom_site_fract_x
_atom_site_fract_y
_atom_site_fract_z
Si Si1 0.813847 0.577861 0.620484
Si Si2 0.800010 0.265659 0.875633
Si Si3 0.113340 0.678083 0.730871
Si Si4 0.943136 0.805089 0.625390
Si Si5 0.771422 0.138640 0.746989
Si Si6 0.635715 0.420514 0.123138
Si Si7 0.059052 0.576892 0.882599
O O1 0.794706 0.590144 0.500000
O O2 0.835308 0.500000 0.633829
O O3 0.857048 0.633931 0.642582
O O4 0.768477 0.585380 0.704000
O O5 0.849274 0.289246 0.815163
O O6 0.789566 0.186441 0.844355
O O7 0.752753 0.313558 0.844956
O O8 0.809782 0.271263 0.000000
O O9 0.081477 0.737420 0.675460
O O10 0.075829 0.628487 0.791913
O O11 0.943241 0.794402 0.500000
O O12 0.911246 0.872990 0.657478
O O13 0.000000 0.814654 0.667847
O O14 0.816657 0.096200 0.695890
O O15 0.619695 0.500000 0.141808
O O16 0.650147 0.407222 0.000000
O O17 0.080668 0.500000 0.858835
O O18 0.000000 0.574316 0.881610
O O19 0.077923 0.600884 0.000000
#
# Coordination Sequence:
#
# PCOD8289347 Si02
#       7
#    16  16  16  16  16  16  16
#     4  10  21  34  50  74 105 141 178 212 247 297
#     4  10  20  31  49  77 105 133 169 209 252 301
#     4  11  19  33  52  75 103 137 173 212 257 305
#     4  10  21  36  54  78 105 133 170 216 266 317
#     4  10  19  34  51  75 104 140 168 208 254 303
#     4  10  20  35  56  80 105 134 169 212 263 317
#     4   9  18  32  50  73 101 134 173 217 262 306
#
# _framework density 17.335556
#
# number of rings (size 3 to 8) (size 9 to 14) (size 15 to 20)
#    0.000    2.000    1.429    3.429    0.000    0.286 
#    0.000    1.429    0.000    6.857    0.000    6.000 
#    0.000    1.143    0.000    0.000    0.000    0.000 
#
# Total GULP energy -694397.599360 kJ/mol
# GULP energy per Si atom -12399.957131 kJ/mol
# Density = 1.729610 g / cm^3
# Si number density = 17.335556 Si / 1000 Ang^3
#
#
#
# Elastic Constant Matrix: (Units=GPa)
#
#
# Indices 1 2 3 4 5 6 
#
# 1 99.7141 57.7616 38.1886 0.0000 0.0000 0.0000
# 2 57.7616 112.9097 35.7001 0.0000 0.0000 0.0000
# 3 38.1886 35.7001 57.3664 0.0000 0.0000 0.0000
# 4 0.0000 0.0000 0.0000 24.5662 0.0000 0.0000
# 5 0.0000 0.0000 0.0000 0.0000 25.9332 0.0000
# 6 0.0000 0.0000 0.0000 0.0000 0.0000 32.4849
#
#
#
# Elastic Compliance Matrix: (Units=1/GPa)
#
#
# Indices 1 2 3 4 5 6 
#
# 1 0.016247 -0.006090 -0.007026 0.000000 0.000000 0.000000
# 2 -0.006090 0.013309 -0.004228 0.000000 0.000000 0.000000
# 3 -0.007026 -0.004228 0.024740 0.000000 0.000000 0.000000
# 4 0.000000 0.000000 0.000000 0.040706 0.000000 0.000000
# 5 0.000000 0.000000 0.000000 0.000000 0.038561 0.000000
# 6 0.000000 0.000000 0.000000 0.000000 0.000000 0.030784
#
#
# Mechanical properties :
#
#
# Convention : Reuss Voigt Hill
#
# Bulk Modulus (GPa) = 50.99926 59.25455 55.12690
# Shear Modulus (GPa) = 24.32244 25.81953 25.07099
#
# Velocity S-wave (km/s) = 3.74978 3.86346 3.80704
# Velocity P-wave (km/s) = 6.94482 7.35914 7.15498
#
# Compressibility (1/GPa) = 0.01960813
#
# Stress axis : x y z
#
# Youngs Moduli (GPa) = 61.54864 75.13622 40.42027
#
# Poissons Ratio (x) = 0.45760 0.28398
# Poissons Ratio (y) = 0.37485 0.17091
# Poissons Ratio (z) = 0.43242 0.31769
#
# Static dielectric constant tensor:
#      x y z
#    x 3.222520 0.000000 0.000000 
#    y 0.000000 3.426190 0.000000 
#    z 0.000000 0.000000 3.271350 
# 
# 
# High freq. dielectric constant tensor:
#      x y z
#    x 1.665460 0.000000 0.000000 
#    y 0.000000 1.678350 0.000000 
#    z 0.000000 0.000000 1.665460 
# 
# From -- ./inp_files/27653.got.cif
#   From: 2010.06.25/outbox.cif.g09.slc.cpg/sg71_14_cif.got.tgz:27653.got - 2010.06.28 04:59:45.
