data_PCOD8289640
_publ_section_title
;
Structure prediction by ZEFSAII (Michael W. Deem and Ramdas Pophale) SiO2 
 PCOD8289640
Probable space group: I M M M
;
_chemical_formula_sum "Si O2"
_cell_formula_units_Z 104
_cell_length_a 18.544690
_cell_length_b 17.980673
_cell_length_c 17.457595
_cell_angle_alpha 90.000000
_cell_angle_beta 90.000000
_cell_angle_gamma 90.000000
_cell_volume 5821.165341
_symmetry_space_group_name_H-M "I M M M"
_symmetry_group_IT_number 71
_symmetry_cell_setting 'orthorhombic'
loop_
_space_group_symop_operation_xyz
x,y,z
-x,-y,z
x,-y,-z
-x,y,-z
-x,-y,-z
x,y,-z
-x,y,z
x,-y,z
1/2+x,1/2+y,1/2+z
1/2-x,1/2-y,1/2+z
1/2+x,1/2-y,1/2-z
1/2-x,1/2+y,1/2-z
1/2-x,1/2-y,1/2-z
1/2+x,1/2+y,1/2-z
1/2-x,1/2+y,1/2+z
1/2+x,1/2-y,1/2+z
loop_
_atom_site_type_symbol
_atom_site_label
_atom_site_fract_x
_atom_site_fract_y
_atom_site_fract_z
Si Si1 0.312715 0.586227 0.200029
Si Si2 0.416576 0.186702 0.833026
Si Si3 0.183626 0.416423 0.589216
Si Si4 0.171069 0.153153 0.140289
Si Si5 0.084679 0.913145 0.000000
Si Si6 0.694150 0.799741 0.703919
Si Si7 0.083437 0.156688 0.588681
O O1 0.295387 0.500000 0.213464
O O2 0.350595 0.621111 0.276082
O O3 0.237511 0.627233 0.176115
O O4 0.369143 0.594191 0.130470
O O5 0.500000 0.176741 0.814972
O O6 0.392290 0.122268 0.891787
O O7 0.374442 0.176218 0.753691
O O8 0.398792 0.264930 0.872151
O O9 0.199065 0.416007 0.500000
O O10 0.182805 0.500000 0.621370
O O11 0.246237 0.370674 0.630304
O O12 0.118461 0.121483 0.076105
O O13 0.166167 0.243712 0.136827
O O14 0.000000 0.897116 0.000000
O O15 0.102764 0.000000 0.000000
O O16 0.750000 0.750000 0.750000
O O17 0.105645 0.161095 0.500000
O O18 0.000000 0.135229 0.597842
#
# Coordination Sequence:
#
# PCOD8289640 Si02
#       7
#    16  16  16  16   8  16  16
#     4  11  21  36  59  83 110 145 189 232 278 329
#     4  11  21  36  56  81 113 147 186 233 278 327
#     4  11  21  33  54  82 114 151 190 229 280 338
#     4  11  20  37  60  81 112 152 189 228 278 335
#     4  11  24  38  56  90 124 148 184 233 284 338
#     4  10  19  36  57  84 107 144 190 232 270 329
#     4  10  21  37  56  80 112 147 182 223 278 337
#
# _framework density 17.865838
#
# number of rings (size 3 to 8) (size 9 to 14) (size 15 to 20)
#    0.000    1.308    6.923    1.846    0.000    3.077 
#    1.385    1.538    0.000    0.000    0.000    0.000 
#    0.000    0.615    0.000    0.000    0.000    0.000 
#
# Total GULP energy -644781.176942 kJ/mol
# GULP energy per Si atom -12399.638018 kJ/mol
# Density = 1.782517 g / cm^3
# Si number density = 17.865838 Si / 1000 Ang^3
#
#
#
# Elastic Constant Matrix: (Units=GPa)
#
#
# Indices 1 2 3 4 5 6 
#
# 1 86.0388 32.1205 46.6124 0.0000 0.0000 0.0000
# 2 32.1205 99.5548 38.0846 0.0000 0.0000 0.0000
# 3 46.6124 38.0846 82.9939 0.0000 0.0000 0.0000
# 4 0.0000 0.0000 0.0000 27.3225 0.0000 0.0000
# 5 0.0000 0.0000 0.0000 0.0000 26.3658 0.0000
# 6 0.0000 0.0000 0.0000 0.0000 0.0000 24.4238
#
#
#
# Elastic Compliance Matrix: (Units=1/GPa)
#
#
# Indices 1 2 3 4 5 6 
#
# 1 0.017107 -0.002237 -0.008581 0.000000 0.000000 0.000000
# 2 -0.002237 0.012476 -0.004469 0.000000 0.000000 0.000000
# 3 -0.008581 -0.004469 0.018919 0.000000 0.000000 0.000000
# 4 0.000000 0.000000 0.000000 0.036600 0.000000 0.000000
# 5 0.000000 0.000000 0.000000 0.000000 0.037928 0.000000
# 6 0.000000 0.000000 0.000000 0.000000 0.000000 0.040944
#
#
# Mechanical properties :
#
#
# Convention : Reuss Voigt Hill
#
# Bulk Modulus (GPa) = 55.77765 55.80252 55.79008
# Shear Modulus (GPa) = 24.93478 25.74043 25.33760
#
# Velocity S-wave (km/s) = 3.73992 3.79986 3.77001
# Velocity P-wave (km/s) = 7.06664 7.11013 7.08841
#
# Compressibility (1/GPa) = 0.01792833
#
# Stress axis : x y z
#
# Youngs Moduli (GPa) = 58.45670 80.15470 52.85575
#
# Poissons Ratio (x) = 0.17927 0.45358
# Poissons Ratio (y) = 0.13074 0.23621
# Poissons Ratio (z) = 0.50164 0.35820
#
# Static dielectric constant tensor:
#      x y z
#    x 3.288320 0.000000 0.000000 
#    y 0.000000 3.640320 0.000000 
#    z 0.000000 0.000000 3.349410 
# 
# 
# High freq. dielectric constant tensor:
#      x y z
#    x 1.683950 0.000000 0.000000 
#    y 0.000000 1.692060 0.000000 
#    z 0.000000 0.000000 1.680730 
# 
# From -- ./inp_files/46159.got.cif
#   From: 2010.06.25/outbox.cif.g09.slc.cpg/sg71_24_cif.got.tgz:46159.got - 2010.06.28 04:59:45.
