data_PCOD8289672
_publ_section_title
;
Structure prediction by ZEFSAII (Michael W. Deem and Ramdas Pophale) SiO2 
 PCOD8289672
Probable space group: I M M M
;
_chemical_formula_sum "Si O2"
_cell_formula_units_Z 68
_cell_length_a 14.266357
_cell_length_b 21.863206
_cell_length_c 11.522540
_cell_angle_alpha 90.000000
_cell_angle_beta 90.000000
_cell_angle_gamma 90.000000
_cell_volume 3593.975886
_symmetry_space_group_name_H-M "I M M M"
_symmetry_group_IT_number 71
_symmetry_cell_setting 'orthorhombic'
loop_
_space_group_symop_operation_xyz
x,y,z
-x,-y,z
x,-y,-z
-x,y,-z
-x,-y,-z
x,y,-z
-x,y,z
x,-y,z
1/2+x,1/2+y,1/2+z
1/2-x,1/2-y,1/2+z
1/2+x,1/2-y,1/2-z
1/2-x,1/2+y,1/2-z
1/2-x,1/2-y,1/2-z
1/2+x,1/2+y,1/2-z
1/2-x,1/2+y,1/2+z
1/2+x,1/2-y,1/2+z
loop_
_atom_site_type_symbol
_atom_site_label
_atom_site_fract_x
_atom_site_fract_y
_atom_site_fract_z
Si Si1 0.892935 0.500000 0.751732
Si Si2 0.607830 0.767623 0.632286
Si Si3 0.285125 0.888368 0.636433
Si Si4 0.145734 0.932174 0.000000
Si Si5 0.894619 0.861391 0.767565
Si Si6 0.825896 0.500000 0.500000
O O1 0.841184 0.559271 0.798771
O O2 0.891418 0.500000 0.612407
O O3 0.000000 0.500000 0.794731
O O4 0.632345 0.750019 0.500000
O O5 0.500000 0.787717 0.643061
O O6 0.670591 0.823983 0.674798
O O7 0.629924 0.709802 0.713116
O O8 0.292423 0.899717 0.500000
O O9 0.176534 0.889852 0.674398
O O10 0.111026 0.896379 0.111565
O O11 0.099809 0.000000 0.000000
O O12 0.259250 0.939363 0.000000
O O13 0.000000 0.868221 0.718045
#
# Coordination Sequence:
#
# PCOD8289672 Si02
#       6
#     8  16  16   8  16   4
#     4  12  24  42  65  87 115 149 189 239 293 350
#     4   9  18  34  58  86 112 148 198 245 289 341
#     4  11  23  39  57  84 119 159 196 237 284 345
#     4  10  19  37  60  87 118 150 186 241 292 349
#     4  11  21  36  60  86 116 154 196 242 290 342
#     4  10  21  42  63  90 118 140 183 236 303 344
#
# _framework density 18.920551
#
# number of rings (size 3 to 8) (size 9 to 14) (size 15 to 20)
#    0.353    1.176    3.529    2.294    0.000    3.294 
#    0.000    0.000    0.000    1.412    0.000    0.000 
#    0.000    0.000    0.000    0.000    0.000    0.000 
#
# Total GULP energy -421636.155888 kJ/mol
# GULP energy per Si atom -12401.063408 kJ/mol
# Density = 1.887749 g / cm^3
# Si number density = 18.920551 Si / 1000 Ang^3
#
#
#
# Elastic Constant Matrix: (Units=GPa)
#
#
# Indices 1 2 3 4 5 6 
#
# 1 129.9761 55.0573 38.5441 0.0000 0.0000 0.0001
# 2 55.0573 105.8195 42.0447 0.0001 0.0000 -0.0006
# 3 38.5441 42.0447 84.0375 0.0051 -0.0011 0.0009
# 4 0.0000 0.0001 0.0051 -15.2052 -0.0017 -0.0005
# 5 0.0000 0.0000 -0.0011 -0.0017 2.2630 0.0016
# 6 0.0001 -0.0006 0.0009 -0.0005 0.0016 -97.8487
#
#
#
# Elastic Compliance Matrix: (Units=1/GPa)
#
#
# Indices 1 2 3 4 5 6 
#
# 1 0.010288 -0.004341 -0.002547 -0.000001 -0.000001 0.000000
# 2 -0.004341 0.013626 -0.004826 -0.000002 -0.000003 0.000000
# 3 -0.002547 -0.004826 0.015482 0.000005 0.000008 0.000000
# 4 -0.000001 -0.000002 0.000005 -0.065767 -0.000048 0.000000
# 5 -0.000001 -0.000003 0.000008 -0.000048 0.441897 0.000007
# 6 0.000000 0.000000 0.000000 0.000000 0.000007 -0.010220
#
#
# Mechanical properties :
#
#
# Convention : Reuss Voigt Hill
#
# Bulk Modulus (GPa) = 62.62421 65.68058 64.15240
# Shear Modulus (GPa) = 11.51923 -9.87905 0.82009
#
# Velocity S-wave (km/s) = 2.47011 -2.28750 0.65908
# Velocity P-wave (km/s) = 6.42694 5.27374 5.87869
#
# Compressibility (1/GPa) = 0.01596826
#
# Stress axis : x y z
#
# Youngs Moduli (GPa) = 97.20372 73.38828 64.59024
#
# Poissons Ratio (x) = 0.31856 0.16450
# Poissons Ratio (y) = 0.42193 0.31174
# Poissons Ratio (z) = 0.24756 0.35420
#
# Static dielectric constant tensor:
#      x y z
#    x 3.488420 0.000000 0.000000 
#    y 0.000000 3.584390 0.000000 
#    z 0.000000 0.000000 3.276810 
# 
# 
# High freq. dielectric constant tensor:
#      x y z
#    x 1.741280 0.000000 0.000000 
#    y 0.000000 1.742800 0.000000 
#    z 0.000000 0.000000 1.717690 
# 
# From -- ./inp_files/21607.got.cif
#   From: 2010.06.25/outbox.cif.g09.slc.cpg/sg71_11_cif.got.tgz:21607.got - 2010.06.28 04:59:45.
