data_PCOD8289525
_publ_section_title
;
Structure prediction by ZEFSAII (Michael W. Deem and Ramdas Pophale) SiO2 
 PCOD8289525
Probable space group: I M M M
;
_chemical_formula_sum "Si O2"
_cell_formula_units_Z 120
_cell_length_a 14.135350
_cell_length_b 15.059555
_cell_length_c 30.559546
_cell_angle_alpha 90.000000
_cell_angle_beta 90.000000
_cell_angle_gamma 90.000000
_cell_volume 6505.274144
_symmetry_space_group_name_H-M "I M M M"
_symmetry_group_IT_number 71
_symmetry_cell_setting 'orthorhombic'
loop_
_space_group_symop_operation_xyz
x,y,z
-x,-y,z
x,-y,-z
-x,y,-z
-x,-y,-z
x,y,-z
-x,y,z
x,-y,z
1/2+x,1/2+y,1/2+z
1/2-x,1/2-y,1/2+z
1/2+x,1/2-y,1/2-z
1/2-x,1/2+y,1/2-z
1/2-x,1/2-y,1/2-z
1/2+x,1/2+y,1/2-z
1/2-x,1/2+y,1/2+z
1/2+x,1/2-y,1/2+z
loop_
_atom_site_type_symbol
_atom_site_label
_atom_site_fract_x
_atom_site_fract_y
_atom_site_fract_z
Si Si1 0.392385 0.897617 0.856176
Si Si2 0.139690 0.401039 0.743074
Si Si3 0.892640 0.897604 0.354886
Si Si4 0.754845 0.751288 0.381842
Si Si5 0.611268 0.307062 0.551585
Si Si6 0.608303 0.500000 0.448867
Si Si7 0.639298 0.400931 0.244092
Si Si8 0.900322 0.749608 0.191312
O O1 0.500000 0.884157 0.872904
O O2 0.387451 0.869300 0.805501
O O3 0.322085 0.835316 0.883968
O O4 0.360169 0.000000 0.862369
O O5 0.099495 0.500000 0.751088
O O6 0.250342 0.398890 0.748962
O O7 0.094871 0.336424 0.778221
O O8 0.820670 0.838453 0.383348
O O9 0.886304 0.867774 0.304473
O O10 0.000000 0.882722 0.371566
O O11 0.861718 0.000000 0.360264
O O12 0.682019 0.758306 0.422701
O O13 0.691915 0.749384 0.338269
O O14 0.627637 0.295129 0.500000
O O15 0.500000 0.290475 0.562283
O O16 0.646546 0.405406 0.568683
O O17 0.500000 0.500000 0.436766
O O18 0.624281 0.500000 0.500000
O O19 0.598605 0.500000 0.251224
O O20 0.593174 0.336828 0.279070
O O21 0.000000 0.748822 0.164185
#
# Coordination Sequence:
#
# PCOD8289525 Si02
#       8
#    16  16  16  16  16   8  16  16
#     4  10  21  35  51  74 107 147 185 218 261 317
#     4  10  19  35  53  68  97 144 188 223 260 308
#     4  10  21  37  57  78 103 142 189 232 273 315
#     4  12  22  34  55  81 108 137 175 226 274 318
#     4   9  19  37  60  85 113 143 174 209 258 326
#     4   7  12  28  54  80 105 137 173 199 230 296
#     4  10  19  35  53  70 100 144 187 226 267 311
#     4  12  23  32  47  75 108 140 176 222 271 316
#
# _framework density 18.446570999999999
#
# number of rings (size 3 to 8) (size 9 to 14) (size 15 to 20)
#    0.000    1.800    2.667    3.600    0.933    1.600 
#    0.000    0.000    0.000    3.200    0.000    2.800 
#    0.000    0.000    0.000    0.000    0.000    0.000 
#
# Total GULP energy -743526.945494 kJ/mol
# GULP energy per Si atom -12392.115758 kJ/mol
# Density = 1.840459 g / cm^3
# Si number density = 18.446571 Si / 1000 Ang^3
#
#
#
# Elastic Constant Matrix: (Units=GPa)
#
#
# Indices 1 2 3 4 5 6 
#
# 1 121.0585 46.5015 33.8875 0.0000 0.0000 0.0000
# 2 46.5015 90.3865 34.0181 0.0000 0.0000 0.0000
# 3 33.8875 34.0181 59.5280 0.0000 0.0000 0.0000
# 4 0.0000 0.0000 0.0000 17.7580 0.0000 0.0000
# 5 0.0000 0.0000 0.0000 0.0000 24.4775 0.0000
# 6 0.0000 0.0000 0.0000 0.0000 0.0000 95.7798
#
#
#
# Elastic Compliance Matrix: (Units=1/GPa)
#
#
# Indices 1 2 3 4 5 6 
#
# 1 0.010942 -0.004185 -0.003837 0.000000 0.000000 0.000000
# 2 -0.004185 0.015696 -0.006587 0.000000 0.000000 0.000000
# 3 -0.003837 -0.006587 0.022748 0.000000 0.000000 0.000000
# 4 0.000000 0.000000 0.000000 0.056313 0.000000 0.000000
# 5 0.000000 0.000000 0.000000 0.000000 0.040854 0.000000
# 6 0.000000 0.000000 0.000000 0.000000 0.000000 0.010441
#
#
# Mechanical properties :
#
#
# Convention : Reuss Voigt Hill
#
# Bulk Modulus (GPa) = 49.58764 55.53193 52.55978
# Shear Modulus (GPa) = 25.91548 38.04078 31.97813
#
# Velocity S-wave (km/s) = 3.75226 4.54609 4.16811
# Velocity P-wave (km/s) = 6.76112 7.59773 7.19160
#
# Compressibility (1/GPa) = 0.02016632
#
# Stress axis : x y z
#
# Youngs Moduli (GPa) = 91.38821 63.71060 43.96060
#
# Poissons Ratio (x) = 0.26665 0.16869
# Poissons Ratio (y) = 0.38249 0.28957
# Poissons Ratio (z) = 0.35069 0.41967
#
# Static dielectric constant tensor:
#      x y z
#    x 3.510270 0.000000 0.000000 
#    y 0.000000 3.766440 0.000000 
#    z 0.000000 0.000000 2.903900 
# 
# 
# High freq. dielectric constant tensor:
#      x y z
#    x 1.733600 0.000000 0.000000 
#    y 0.000000 1.717750 0.000000 
#    z 0.000000 0.000000 1.658950 
# 
# From -- ./inp_files/70139.got.cif
#   From: 2010.06.25/outbox.cif.g09.slc.cpg/sg71_36_cif.got.tgz:70139.got - 2010.06.28 04:59:45.
