data_PCOD8289235
_publ_section_title
;
Structure prediction by ZEFSAII (Michael W. Deem and Ramdas Pophale) SiO2 
 PCOD8289235
Probable space group: I M M M
;
_chemical_formula_sum "Si O2"
_cell_formula_units_Z 104
_cell_length_a 19.213924
_cell_length_b 9.193233
_cell_length_c 31.871501
_cell_angle_alpha 90.000000
_cell_angle_beta 90.000000
_cell_angle_gamma 90.000000
_cell_volume 5629.720749
_symmetry_space_group_name_H-M "I M M M"
_symmetry_group_IT_number 71
_symmetry_cell_setting 'orthorhombic'
loop_
_space_group_symop_operation_xyz
x,y,z
-x,-y,z
x,-y,-z
-x,y,-z
-x,-y,-z
x,y,-z
-x,y,z
x,-y,z
1/2+x,1/2+y,1/2+z
1/2-x,1/2-y,1/2+z
1/2+x,1/2-y,1/2-z
1/2-x,1/2+y,1/2-z
1/2-x,1/2-y,1/2-z
1/2+x,1/2+y,1/2-z
1/2-x,1/2+y,1/2+z
1/2+x,1/2-y,1/2+z
loop_
_atom_site_type_symbol
_atom_site_label
_atom_site_fract_x
_atom_site_fract_y
_atom_site_fract_z
Si Si1 0.579236 0.834166 0.840240
Si Si2 0.078293 0.672671 0.500000
Si Si3 0.194801 0.328096 0.098366
Si Si4 0.199451 0.332337 0.194348
Si Si5 0.834035 0.327436 0.420337
Si Si6 0.580447 0.333973 0.548616
Si Si7 0.851134 0.168166 0.270078
O O1 0.500000 0.820226 0.855538
O O2 0.627738 0.777451 0.877836
O O3 0.589335 0.738819 0.798643
O O4 0.598139 0.000000 0.829084
O O5 0.073957 0.500000 0.500000
O O6 0.119210 0.727492 0.459010
O O7 0.000000 0.737766 0.500000
O O8 0.204409 0.500000 0.093917
O O9 0.188932 0.280795 0.146822
O O10 0.259782 0.249934 0.076441
O O11 0.124661 0.277966 0.075882
O O12 0.179880 0.500000 0.200474
O O13 0.148458 0.239589 0.223998
O O14 0.278728 0.301345 0.206685
O O15 0.822954 0.500000 0.421941
O O16 0.596128 0.304632 0.500000
O O17 0.500000 0.304196 0.558743
O O18 0.600036 0.500000 0.560080
O O19 0.867856 0.000000 0.264491
#
# Coordination Sequence:
#
# PCOD8289235 Si02
#       7
#    16   8  16  16  16  16  16
#     4  10  20  34  53  78 110 149 191 234 279 326
#     4   9  18  34  55  79 108 145 192 241 279 316
#     4  11  22  36  56  85 118 147 179 225 277 331
#     4   9  19  35  53  76 108 142 177 219 271 326
#     4  10  20  34  55  81 110 147 192 235 276 324
#     4   9  20  40  63  85 111 144 182 224 271 325
#     4  10  19  33  54  78 104 138 182 228 273 323
#
# _framework density 18.473385
#
# number of rings (size 3 to 8) (size 9 to 14) (size 15 to 20)
#    0.000    2.231    1.538    1.846    1.077    4.615 
#    0.000    1.538    0.000    2.769    0.000    0.000 
#    0.000    0.000    0.000    0.000    0.000    0.000 
#
# Total GULP energy -644975.487379 kJ/mol
# GULP energy per Si atom -12403.374757 kJ/mol
# Density = 1.843134 g / cm^3
# Si number density = 18.473385 Si / 1000 Ang^3
#
#
#
# Elastic Constant Matrix: (Units=GPa)
#
#
# Indices 1 2 3 4 5 6 
#
# 1 85.7775 37.4961 55.9969 0.0000 0.0000 0.0000
# 2 37.4961 63.1196 47.3006 0.0000 0.0000 0.0000
# 3 55.9969 47.3006 119.4488 0.0000 0.0000 0.0000
# 4 0.0000 0.0000 0.0000 27.6217 0.0000 0.0000
# 5 0.0000 0.0000 0.0000 0.0000 29.8159 0.0000
# 6 0.0000 0.0000 0.0000 0.0000 0.0000 24.5309
#
#
#
# Elastic Compliance Matrix: (Units=1/GPa)
#
#
# Indices 1 2 3 4 5 6 
#
# 1 0.018437 -0.006364 -0.006123 0.000000 0.000000 0.000000
# 2 -0.006364 0.024725 -0.006807 0.000000 0.000000 0.000000
# 3 -0.006123 -0.006807 0.013938 0.000000 0.000000 0.000000
# 4 0.000000 0.000000 0.000000 0.036203 0.000000 0.000000
# 5 0.000000 0.000000 0.000000 0.000000 0.033539 0.000000
# 6 0.000000 0.000000 0.000000 0.000000 0.000000 0.040765
#
#
# Mechanical properties :
#
#
# Convention : Reuss Voigt Hill
#
# Bulk Modulus (GPa) = 54.02237 61.10368 57.56302
# Shear Modulus (GPa) = 23.54414 24.89719 24.22066
#
# Velocity S-wave (km/s) = 3.57387 3.67513 3.62486
# Velocity P-wave (km/s) = 6.80712 7.15243 6.98191
#
# Compressibility (1/GPa) = 0.01851085
#
# Stress axis : x y z
#
# Youngs Moduli (GPa) = 54.23780 40.44515 71.74652
#
# Poissons Ratio (x) = 0.25740 0.43932
# Poissons Ratio (y) = 0.34517 0.48841
# Poissons Ratio (z) = 0.33211 0.27533
#
# Static dielectric constant tensor:
#      x y z
#    x 3.245490 0.000000 0.000000 
#    y 0.000000 3.235230 0.000000 
#    z 0.000000 0.000000 3.469460 
# 
# 
# High freq. dielectric constant tensor:
#      x y z
#    x 1.707240 0.000000 0.000000 
#    y 0.000000 1.705060 0.000000 
#    z 0.000000 0.000000 1.722730 
# 
# From -- ./inp_files/70756.got.cif
#   From: 2010.06.25/outbox.cif.g09.slc.cpg/sg71_36_cif.got.tgz:70756.got - 2010.06.28 04:59:45.
