data_PCOD8289892
_publ_section_title
;
Structure prediction by ZEFSAII (Michael W. Deem and Ramdas Pophale) SiO2 
 PCOD8289892
Probable space group: I M M M
;
_chemical_formula_sum "Si O2"
_cell_formula_units_Z 104
_cell_length_a 13.843708
_cell_length_b 25.817574
_cell_length_c 17.787077
_cell_angle_alpha 90.000000
_cell_angle_beta 90.000000
_cell_angle_gamma 90.000000
_cell_volume 6357.296190
_symmetry_space_group_name_H-M "I M M M"
_symmetry_group_IT_number 71
_symmetry_cell_setting 'orthorhombic'
loop_
_space_group_symop_operation_xyz
x,y,z
-x,-y,z
x,-y,-z
-x,y,-z
-x,-y,-z
x,y,-z
-x,y,z
x,-y,z
1/2+x,1/2+y,1/2+z
1/2-x,1/2-y,1/2+z
1/2+x,1/2-y,1/2-z
1/2-x,1/2+y,1/2-z
1/2-x,1/2-y,1/2-z
1/2+x,1/2+y,1/2-z
1/2-x,1/2+y,1/2+z
1/2+x,1/2-y,1/2+z
loop_
_atom_site_type_symbol
_atom_site_label
_atom_site_fract_x
_atom_site_fract_y
_atom_site_fract_z
Si Si1 0.109254 0.059443 0.301822
Si Si2 0.111526 0.117823 0.849068
Si Si3 0.207581 0.132757 0.414184
Si Si4 0.279361 0.277121 0.672678
Si Si5 0.392517 0.259833 0.087818
Si Si6 0.614520 0.440684 0.500000
Si Si7 0.392008 0.806182 0.413860
O O1 0.122843 0.075479 0.215708
O O2 0.181826 0.087154 0.358339
O O3 0.000000 0.070653 0.328496
O O4 0.136127 0.000000 0.307038
O O5 0.177861 0.165484 0.821718
O O6 0.000000 0.135842 0.857794
O O7 0.149161 0.091375 0.926343
O O8 0.188837 0.115395 0.500000
O O9 0.142804 0.182370 0.393524
O O10 0.320166 0.145814 0.400368
O O11 0.250000 0.250000 0.750000
O O12 0.181081 0.280924 0.624243
O O13 0.362480 0.243212 0.634450
O O14 0.500000 0.252524 0.121549
O O15 0.392556 0.249405 0.000000
O O16 0.656158 0.500000 0.500000
O O17 0.500000 0.444621 0.500000
O O18 0.385202 0.787884 0.500000
O O19 0.500000 0.824030 0.392135
#
# Coordination Sequence:
#
# PCOD8289892 Si02
#       7
#    16  16  16  16  16   8  16
#     4  10  20  33  48  67  95 128 162 202 245 289
#     4  10  20  32  49  71  98 132 163 199 251 301
#     4   9  17  30  49  72  96 127 162 196 237 285
#     4  11  21  30  45  72 102 129 161 200 239 291
#     4   9  18  32  48  65  94 131 159 188 227 278
#     4   9  18  32  50  72  97 127 167 211 253 300
#     4   9  18  32  50  70  97 129 160 192 233 286
#
# _framework density 16.359155999999999
#
# number of rings (size 3 to 8) (size 9 to 14) (size 15 to 20)
#    0.000    2.385    0.000    4.615    2.154    5.538 
#    0.000    0.769    0.000    0.462    0.000    2.154 
#    0.000    2.462    0.000    0.000    0.000    0.000 
#
# Total GULP energy -644694.311620 kJ/mol
# GULP energy per Si atom -12397.967531 kJ/mol
# Density = 1.632192 g / cm^3
# Si number density = 16.359156 Si / 1000 Ang^3
#
#
#
# Elastic Constant Matrix: (Units=GPa)
#
#
# Indices 1 2 3 4 5 6 
#
# 1 107.3787 34.6702 30.7442 0.0000 0.0000 0.0000
# 2 34.6702 69.5295 29.6006 -0.0001 0.0000 0.0000
# 3 30.7442 29.6006 62.3766 -0.0001 0.0000 0.0000
# 4 0.0000 -0.0001 -0.0001 28.2291 0.0000 0.0000
# 5 0.0000 0.0000 0.0000 0.0000 20.7339 0.0000
# 6 0.0000 0.0000 0.0000 0.0000 0.0000 20.5559
#
#
#
# Elastic Compliance Matrix: (Units=1/GPa)
#
#
# Indices 1 2 3 4 5 6 
#
# 1 0.011771 -0.004260 -0.003780 0.000000 0.000000 0.000000
# 2 -0.004260 0.019565 -0.007185 0.000000 0.000000 0.000000
# 3 -0.003780 -0.007185 0.021304 0.000000 0.000000 0.000000
# 4 0.000000 0.000000 0.000000 0.035424 0.000000 0.000000
# 5 0.000000 0.000000 0.000000 0.000000 0.048230 0.000000
# 6 0.000000 0.000000 0.000000 0.000000 0.000000 0.048648
#
#
# Mechanical properties :
#
#
# Convention : Reuss Voigt Hill
#
# Bulk Modulus (GPa) = 45.06452 47.70164 46.38308
# Shear Modulus (GPa) = 22.44270 23.52177 22.98224
#
# Velocity S-wave (km/s) = 3.70790 3.79599 3.75221
# Velocity P-wave (km/s) = 6.77777 6.95953 6.86925
#
# Compressibility (1/GPa) = 0.02219040
#
# Stress axis : x y z
#
# Youngs Moduli (GPa) = 84.95782 51.11041 46.93882
#
# Poissons Ratio (x) = 0.21773 0.17742
# Poissons Ratio (y) = 0.36193 0.33726
# Poissons Ratio (z) = 0.32113 0.36723
#
# Static dielectric constant tensor:
#      x y z
#    x 3.271750 0.000000 0.000000 
#    y 0.000000 2.884300 0.000000 
#    z 0.000000 0.000000 3.216670 
# 
# 
# High freq. dielectric constant tensor:
#      x y z
#    x 1.617190 0.000000 0.000000 
#    y 0.000000 1.606440 0.000000 
#    z 0.000000 0.000000 1.642570 
# 
# From -- ./inp_files/40455.got.cif
#   From: 2010.06.25/outbox.cif.g09.slc.cpg/sg71_21_cif.got.tgz:40455.got - 2010.06.28 04:59:45.
