data_PCOD8289620
_publ_section_title
;
Structure prediction by ZEFSAII (Michael W. Deem and Ramdas Pophale) SiO2 
 PCOD8289620
Probable space group: I M M M
;
_chemical_formula_sum "Si O2"
_cell_formula_units_Z 96
_cell_length_a 12.352562
_cell_length_b 22.193593
_cell_length_c 18.587993
_cell_angle_alpha 90.000000
_cell_angle_beta 90.000000
_cell_angle_gamma 90.000000
_cell_volume 5095.856152
_symmetry_space_group_name_H-M "I M M M"
_symmetry_group_IT_number 71
_symmetry_cell_setting 'orthorhombic'
loop_
_space_group_symop_operation_xyz
x,y,z
-x,-y,z
x,-y,-z
-x,y,-z
-x,-y,-z
x,y,-z
-x,y,z
x,-y,z
1/2+x,1/2+y,1/2+z
1/2-x,1/2-y,1/2+z
1/2+x,1/2-y,1/2-z
1/2-x,1/2+y,1/2-z
1/2-x,1/2-y,1/2-z
1/2+x,1/2+y,1/2-z
1/2-x,1/2+y,1/2+z
1/2+x,1/2-y,1/2+z
loop_
_atom_site_type_symbol
_atom_site_label
_atom_site_fract_x
_atom_site_fract_y
_atom_site_fract_z
Si Si1 0.874321 0.254729 0.081853
Si Si2 0.311904 0.127130 0.339975
Si Si3 0.875563 0.069043 0.417693
Si Si4 0.500000 0.568103 0.414653
Si Si5 0.716906 0.627218 0.583720
Si Si6 0.500000 0.930994 0.423077
Si Si7 0.871751 0.429260 0.306202
O O1 0.843403 0.304557 0.140933
O O2 0.794462 0.198751 0.096188
O O3 0.000000 0.235593 0.091806
O O4 0.856617 0.278400 0.000000
O O5 0.190987 0.113391 0.366420
O O6 0.393226 0.082672 0.379453
O O7 0.321164 0.112693 0.255965
O O8 0.838654 0.078251 0.500000
O O9 0.000000 0.087048 0.408414
O O10 0.856480 0.000000 0.394625
O O11 0.500000 0.500000 0.388807
O O12 0.500000 0.576074 0.500000
O O13 0.391897 0.598104 0.383135
O O14 0.729602 0.611703 0.500000
O O15 0.821103 0.597801 0.621194
O O16 0.500000 0.895762 0.500000
O O17 0.500000 0.000000 0.440051
O O18 0.842330 0.500000 0.296180
O O19 0.000000 0.420617 0.309538
#
# Coordination Sequence:
#
# PCOD8289620 Si02
#       7
#    16  16  16   8  16   8  16
#     4  10  19  35  60  90 122 155 193 244 298 349
#     4  12  21  35  56  84 121 160 197 240 288 354
#     4   9  18  33  52  75 109 154 201 248 294 341
#     4   9  16  31  59  89 111 132 175 246 308 351
#     4  10  21  39  62  87 114 149 197 249 304 364
#     4  11  20  29  51  85 116 151 199 248 289 334
#     4  11  24  41  59  83 121 161 196 247 308 356
#
# _framework density 18.838837000000002
#
# number of rings (size 3 to 8) (size 9 to 14) (size 15 to 20)
#    0.000    1.667    2.500    4.000    0.000    3.333 
#    1.500    1.667    0.000    1.000    0.000    0.000 
#    0.000    0.000    0.000    0.000    0.000    0.000 
#
# Total GULP energy -595174.345980 kJ/mol
# GULP energy per Si atom -12399.465541 kJ/mol
# Density = 1.879596 g / cm^3
# Si number density = 18.838837 Si / 1000 Ang^3
#
#
#
# Elastic Constant Matrix: (Units=GPa)
#
#
# Indices 1 2 3 4 5 6 
#
# 1 86.5847 33.8307 39.4806 0.0000 0.0000 0.0000
# 2 33.8307 95.8782 40.3677 0.0000 0.0000 0.0000
# 3 39.4806 40.3677 84.7533 0.0000 0.0000 0.0000
# 4 0.0000 0.0000 0.0000 34.8601 0.0000 0.0000
# 5 0.0000 0.0000 0.0000 0.0000 35.2001 0.0000
# 6 0.0000 0.0000 0.0000 0.0000 0.0000 35.1666
#
#
#
# Elastic Compliance Matrix: (Units=1/GPa)
#
#
# Indices 1 2 3 4 5 6 
#
# 1 0.015326 -0.003004 -0.005708 0.000000 0.000000 0.000000
# 2 -0.003004 0.013635 -0.005095 0.000000 0.000000 0.000000
# 3 -0.005708 -0.005095 0.016885 0.000000 0.000000 0.000000
# 4 0.000000 0.000000 0.000000 0.028686 0.000000 0.000000
# 5 0.000000 0.000000 0.000000 0.000000 0.028409 0.000000
# 6 0.000000 0.000000 0.000000 0.000000 0.000000 0.028436
#
#
# Mechanical properties :
#
#
# Convention : Reuss Voigt Hill
#
# Bulk Modulus (GPa) = 54.85235 54.95267 54.90251
# Shear Modulus (GPa) = 30.29032 31.28118 30.78575
#
# Velocity S-wave (km/s) = 4.01417 4.07930 4.04686
# Velocity P-wave (km/s) = 7.11791 7.17083 7.14442
#
# Compressibility (1/GPa) = 0.01823076
#
# Stress axis : x y z
#
# Youngs Moduli (GPa) = 65.24781 73.34027 59.22518
#
# Poissons Ratio (x) = 0.22035 0.33808
# Poissons Ratio (y) = 0.19603 0.30174
# Poissons Ratio (z) = 0.37246 0.37365
#
# Static dielectric constant tensor:
#      x y z
#    x 3.495970 0.000000 0.000000 
#    y 0.000000 3.372730 0.000000 
#    z 0.000000 0.000000 3.294390 
# 
# 
# High freq. dielectric constant tensor:
#      x y z
#    x 1.731140 0.000000 0.000000 
#    y 0.000000 1.729870 0.000000 
#    z 0.000000 0.000000 1.712790 
# 
# From -- ./inp_files/43582.got.cif
#   From: 2010.06.25/outbox.cif.g09.slc.cpg/sg71_22_cif.got.tgz:43582.got - 2010.06.28 04:59:45.
