data_PCOD8289774
_publ_section_title
;
Structure prediction by ZEFSAII (Michael W. Deem and Ramdas Pophale) SiO2 
 PCOD8289774
Probable space group: I M M M
;
_chemical_formula_sum "Si O2"
_cell_formula_units_Z 88
_cell_length_a 9.752935
_cell_length_b 14.531455
_cell_length_c 34.244891
_cell_angle_alpha 90.000000
_cell_angle_beta 90.000000
_cell_angle_gamma 90.000000
_cell_volume 4853.334441
_symmetry_space_group_name_H-M "I M M M"
_symmetry_group_IT_number 71
_symmetry_cell_setting 'orthorhombic'
loop_
_space_group_symop_operation_xyz
x,y,z
-x,-y,z
x,-y,-z
-x,y,-z
-x,-y,-z
x,y,-z
-x,y,z
x,-y,z
1/2+x,1/2+y,1/2+z
1/2-x,1/2-y,1/2+z
1/2+x,1/2-y,1/2-z
1/2-x,1/2+y,1/2-z
1/2-x,1/2-y,1/2-z
1/2+x,1/2+y,1/2-z
1/2-x,1/2+y,1/2+z
1/2+x,1/2-y,1/2+z
loop_
_atom_site_type_symbol
_atom_site_label
_atom_site_fract_x
_atom_site_fract_y
_atom_site_fract_z
Si Si1 0.341497 0.233554 0.569605
Si Si2 0.162193 0.100651 0.801747
Si Si3 0.846907 0.108154 0.284943
Si Si4 0.158251 0.717715 0.158158
Si Si5 0.343897 0.104071 0.954177
Si Si6 0.162580 0.396380 0.000000
O O1 0.500000 0.257241 0.561222
O O2 0.321060 0.193166 0.612803
O O3 0.258107 0.327910 0.567660
O O4 0.286595 0.158255 0.538532
O O5 0.210863 0.131328 0.758372
O O6 0.208234 0.177578 0.832936
O O7 0.000000 0.090575 0.800337
O O8 0.224631 0.000000 0.813130
O O9 0.746171 0.147318 0.317219
O O10 0.000000 0.149401 0.290706
O O11 0.851865 0.000000 0.290778
O O12 0.000000 0.706518 0.170392
O O13 0.500000 0.129080 0.943146
O O14 0.309981 0.000000 0.940988
O O15 0.320831 0.114601 0.000000
O O16 0.225078 0.500000 0.000000
O O17 0.000000 0.403384 0.000000
#
# Coordination Sequence:
#
# PCOD8289774 Si02
#       6
#    16  16  16  16  16   8
#     4  10  20  33  51  76 102 131 170 212 254 300
#     4   8  15  30  50  71  99 134 167 199 243 303
#     4   9  18  33  52  71  95 133 173 204 244 301
#     4  10  20  31  49  78 104 128 163 211 260 298
#     4   9  18  33  53  75 100 132 165 200 249 302
#     4   9  18  34  52  67  92 132 171 207 250 299
#
# _framework density 18.131864
#
# number of rings (size 3 to 8) (size 9 to 14) (size 15 to 20)
#    0.000    2.818    0.909    2.182    0.000    2.909 
#    0.000    4.545    0.000    2.727    0.000    0.000 
#    0.000    0.000    0.000    0.000    0.000    0.000 
#
# Total GULP energy -545440.503141 kJ/mol
# GULP energy per Si atom -12396.375071 kJ/mol
# Density = 1.809059 g / cm^3
# Si number density = 18.131864 Si / 1000 Ang^3
#
#
#
# Elastic Constant Matrix: (Units=GPa)
#
#
# Indices 1 2 3 4 5 6 
#
# 1 46.9847 31.2101 30.2044 0.0000 0.0000 0.0000
# 2 31.2101 79.1682 48.1658 0.0000 0.0000 0.0000
# 3 30.2044 48.1658 104.9835 0.0000 0.0000 0.0000
# 4 0.0000 0.0000 0.0000 20.9941 0.0000 0.0000
# 5 0.0000 0.0000 0.0000 0.0000 21.5088 0.0000
# 6 0.0000 0.0000 0.0000 0.0000 0.0000 28.8233
#
#
#
# Elastic Compliance Matrix: (Units=1/GPa)
#
#
# Indices 1 2 3 4 5 6 
#
# 1 0.030286 -0.009209 -0.004489 0.000000 0.000000 0.000000
# 2 -0.009209 0.020322 -0.006674 0.000000 0.000000 0.000000
# 3 -0.004489 -0.006674 0.013879 0.000000 0.000000 0.000000
# 4 0.000000 0.000000 0.000000 0.047632 0.000000 0.000000
# 5 0.000000 0.000000 0.000000 0.000000 0.046493 0.000000
# 6 0.000000 0.000000 0.000000 0.000000 0.000000 0.034694
#
#
# Mechanical properties :
#
#
# Convention : Reuss Voigt Hill
#
# Bulk Modulus (GPa) = 42.11604 50.03301 46.07453
# Shear Modulus (GPa) = 20.66422 22.36898 21.51660
#
# Velocity S-wave (km/s) = 3.37955 3.51619 3.44855
# Velocity P-wave (km/s) = 6.20537 6.64370 6.42827
#
# Compressibility (1/GPa) = 0.02374392
#
# Stress axis : x y z
#
# Youngs Moduli (GPa) = 33.01858 49.20706 72.05198
#
# Poissons Ratio (x) = 0.45313 0.32341
# Poissons Ratio (y) = 0.30406 0.48090
# Poissons Ratio (z) = 0.14821 0.32843
#
# Static dielectric constant tensor:
#      x y z
#    x 3.116570 0.000000 0.000000 
#    y 0.000000 3.499100 0.000000 
#    z 0.000000 0.000000 3.341160 
# 
# 
# High freq. dielectric constant tensor:
#      x y z
#    x 1.670540 0.000000 0.000000 
#    y 0.000000 1.703200 0.000000 
#    z 0.000000 0.000000 1.700380 
# 
# From -- ./inp_files/69089.got.cif
#   From: 2010.06.25/outbox.cif.g09.slc.cpg/sg71_35_cif.got.tgz:69089.got - 2010.06.28 04:59:45.
