data_PCOD8289951
_publ_section_title
;
Structure prediction by ZEFSAII (Michael W. Deem and Ramdas Pophale) SiO2 
 PCOD8289951
Probable space group: I M M M
;
_chemical_formula_sum "Si O2"
_cell_formula_units_Z 96
_cell_length_a 26.987233
_cell_length_b 11.014416
_cell_length_c 18.874265
_cell_angle_alpha 90.000000
_cell_angle_beta 90.000000
_cell_angle_gamma 90.000000
_cell_volume 5610.349054
_symmetry_space_group_name_H-M "I M M M"
_symmetry_group_IT_number 71
_symmetry_cell_setting 'orthorhombic'
loop_
_space_group_symop_operation_xyz
x,y,z
-x,-y,z
x,-y,-z
-x,y,-z
-x,-y,-z
x,y,-z
-x,y,z
x,-y,z
1/2+x,1/2+y,1/2+z
1/2-x,1/2-y,1/2+z
1/2+x,1/2-y,1/2-z
1/2-x,1/2+y,1/2-z
1/2-x,1/2-y,1/2-z
1/2+x,1/2+y,1/2-z
1/2-x,1/2+y,1/2+z
1/2+x,1/2-y,1/2+z
loop_
_atom_site_type_symbol
_atom_site_label
_atom_site_fract_x
_atom_site_fract_y
_atom_site_fract_z
Si Si1 0.117776 0.860317 0.791910
Si Si2 0.308809 0.860665 0.079558
Si Si3 0.094974 0.760062 0.643297
Si Si4 0.555413 0.500000 0.082804
Si Si5 0.000000 0.641311 0.579756
Si Si6 0.266316 0.361619 0.701038
Si Si7 0.944424 0.855769 0.922360
O O1 0.100296 0.775601 0.727497
O O2 0.175435 0.850960 0.808185
O O3 0.091093 0.805414 0.861148
O O4 0.102296 0.000000 0.776284
O O5 0.353993 0.790241 0.114006
O O6 0.259082 0.841177 0.124922
O O7 0.324834 0.000000 0.077873
O O8 0.298432 0.812831 0.000000
O O9 0.048482 0.675916 0.624219
O O10 0.087430 0.887608 0.606703
O O11 0.500000 0.500000 0.117250
O O12 0.549447 0.500000 0.000000
O O13 0.000000 0.500000 0.569014
O O14 0.000000 0.701767 0.500000
O O15 0.253105 0.500000 0.729377
O O16 0.250000 0.250000 0.750000
O O17 0.000000 0.810192 0.906766
O O18 0.942678 0.000000 0.922284
O O19 0.927095 0.808277 0.000000
#
# Coordination Sequence:
#
# PCOD8289951 Si02
#       7
#    16  16  16   8   8  16  16
#     4  10  20  32  50  79 110 140 174 216 267 320
#     4  10  21  37  58  80 103 139 185 226 266 315
#     4  12  21  34  53  76 109 141 176 219 265 318
#     4  11  22  34  48  72 107 147 181 213 259 321
#     4  11  24  39  53  71 102 142 184 228 265 304
#     4  10  20  37  56  77 108 142 177 222 272 320
#     4   8  15  28  47  72 105 140 170 206 258 316
#
# _framework density 17.111234
#
# number of rings (size 3 to 8) (size 9 to 14) (size 15 to 20)
#    0.000    1.833    3.333    2.500    1.167    2.000 
#    0.000    3.333    0.000    0.000    0.000    0.000 
#    0.000    3.333    0.000    0.000    0.000    0.000 
#
# Total GULP energy -594968.862022 kJ/mol
# GULP energy per Si atom -12395.184625 kJ/mol
# Density = 1.707229 g / cm^3
# Si number density = 17.111234 Si / 1000 Ang^3
#
#
#
# Elastic Constant Matrix: (Units=GPa)
#
#
# Indices 1 2 3 4 5 6 
#
# 1 107.1747 33.3280 78.1284 0.0000 0.0000 0.0000
# 2 33.3280 62.5591 48.9206 0.0000 0.0000 0.0000
# 3 78.1284 48.9206 160.7217 0.0000 0.0000 0.0000
# 4 0.0000 0.0000 0.0000 21.1314 0.0000 0.0000
# 5 0.0000 0.0000 0.0000 0.0000 31.1356 0.0000
# 6 0.0000 0.0000 0.0000 0.0000 0.0000 26.1786
#
#
#
# Elastic Compliance Matrix: (Units=1/GPa)
#
#
# Indices 1 2 3 4 5 6 
#
# 1 0.014862 -0.002977 -0.006319 0.000000 0.000000 0.000000
# 2 -0.002977 0.021574 -0.005120 0.000000 0.000000 0.000000
# 3 -0.006319 -0.005120 0.010852 0.000000 0.000000 0.000000
# 4 0.000000 0.000000 0.000000 0.047323 0.000000 0.000000
# 5 0.000000 0.000000 0.000000 0.000000 0.032118 0.000000
# 6 0.000000 0.000000 0.000000 0.000000 0.000000 0.038199
#
#
# Mechanical properties :
#
#
# Convention : Reuss Voigt Hill
#
# Bulk Modulus (GPa) = 54.17643 72.35664 63.26653
# Shear Modulus (GPa) = 25.01105 27.02769 26.01937
#
# Velocity S-wave (km/s) = 3.82733 3.97864 3.90372
# Velocity P-wave (km/s) = 7.15970 7.96768 7.57447
#
# Compressibility (1/GPa) = 0.01845821
#
# Stress axis : x y z
#
# Youngs Moduli (GPa) = 67.28357 46.35133 92.14965
#
# Poissons Ratio (x) = 0.13797 0.58227
# Poissons Ratio (y) = 0.20028 0.47179
# Poissons Ratio (z) = 0.42515 0.23731
#
# Static dielectric constant tensor:
#      x y z
#    x 3.273110 0.000000 0.000000 
#    y 0.000000 3.143590 0.000000 
#    z 0.000000 0.000000 3.507820 
# 
# 
# High freq. dielectric constant tensor:
#      x y z
#    x 1.668930 0.000000 0.000000 
#    y 0.000000 1.635190 0.000000 
#    z 0.000000 0.000000 1.667010 
# 
# From -- ./inp_files/48088.got.cif
#   From: 2010.06.25/outbox.cif.g09.slc.cpg/sg71_25_cif.got.tgz:48088.got - 2010.06.28 04:59:45.
