data_PCOD8289285
_publ_section_title
;
Structure prediction by ZEFSAII (Michael W. Deem and Ramdas Pophale) SiO2 
 PCOD8289285
Probable space group: I M M M
;
_chemical_formula_sum "Si O2"
_cell_formula_units_Z 64
_cell_length_a 20.803332
_cell_length_b 8.670774
_cell_length_c 17.983477
_cell_angle_alpha 90.000000
_cell_angle_beta 90.000000
_cell_angle_gamma 90.000000
_cell_volume 3243.877389
_symmetry_space_group_name_H-M "I M M M"
_symmetry_group_IT_number 71
_symmetry_cell_setting 'orthorhombic'
loop_
_space_group_symop_operation_xyz
x,y,z
-x,-y,z
x,-y,-z
-x,y,-z
-x,-y,-z
x,y,-z
-x,y,z
x,-y,z
1/2+x,1/2+y,1/2+z
1/2-x,1/2-y,1/2+z
1/2+x,1/2-y,1/2-z
1/2-x,1/2+y,1/2-z
1/2-x,1/2-y,1/2-z
1/2+x,1/2+y,1/2-z
1/2-x,1/2+y,1/2+z
1/2+x,1/2-y,1/2+z
loop_
_atom_site_type_symbol
_atom_site_label
_atom_site_fract_x
_atom_site_fract_y
_atom_site_fract_z
Si Si1 0.377389 0.817662 0.665440
Si Si2 0.500000 0.682851 0.916851
Si Si3 0.749999 0.816876 0.416561
Si Si4 0.624991 0.683186 0.171904
Si Si5 0.500000 0.317791 0.415277
O O1 0.313133 0.755559 0.625408
O O2 0.375463 0.768046 0.750212
O O3 0.437515 0.743786 0.625165
O O4 0.382959 0.000000 0.659525
O O5 0.500000 0.500000 0.921966
O O6 0.437010 0.739956 0.873659
O O7 0.500000 0.753181 0.000000
O O8 0.751105 0.748564 0.500000
O O9 0.812682 0.759247 0.372826
O O10 0.750003 0.000000 0.419766
O O11 0.624727 0.500000 0.184376
O O12 0.500000 0.500000 0.410447
O O13 0.500000 0.258835 0.500000
#
# Coordination Sequence:
#
# PCOD8289285 Si02
#       5
#    16   8  16  16   8
#     4  11  22  36  56  81 112 148 184 225 275 333
#     4   9  17  30  52  80 104 133 178 227 272 318
#     4   9  18  33  54  80 109 145 190 234 273 318
#     4  10  19  33  55  81 111 145 183 229 273 319
#     4  11  24  41  60  82 108 139 180 231 282 332
#
# _framework density 19.729475000000001
#
# number of rings (size 3 to 8) (size 9 to 14) (size 15 to 20)
#    0.000    2.000    0.000    4.125    0.000    6.000 
#    0.000    1.250    0.000    6.750    0.000    0.000 
#    0.000    0.000    0.000    0.000    0.000    0.000 
#
# Total GULP energy -396891.031614 kJ/mol
# GULP energy per Si atom -12402.844738 kJ/mol
# Density = 1.968457 g / cm^3
# Si number density = 19.729475 Si / 1000 Ang^3
#
#
#
# Elastic Constant Matrix: (Units=GPa)
#
#
# Indices 1 2 3 4 5 6 
#
# 1 210.0170 18.9408 102.4980 0.0000 0.0000 0.0000
# 2 18.9408 24.3491 19.2274 0.0000 0.0000 0.0000
# 3 102.4980 19.2274 194.0067 0.0000 0.0000 0.0000
# 4 0.0000 0.0000 0.0000 -4.4140 0.0000 0.0000
# 5 0.0000 0.0000 0.0000 0.0000 47.4733 0.0000
# 6 0.0000 0.0000 0.0000 0.0000 0.0000 37.5360
#
#
#
# Elastic Compliance Matrix: (Units=1/GPa)
#
#
# Indices 1 2 3 4 5 6 
#
# 1 0.006560 -0.002567 -0.003212 0.000000 0.000000 0.000000
# 2 -0.002567 0.045561 -0.003159 0.000000 0.000000 0.000000
# 3 -0.003212 -0.003159 0.007164 0.000000 0.000000 0.000000
# 4 0.000000 0.000000 0.000000 -0.226553 0.000000 0.000000
# 5 0.000000 0.000000 0.000000 0.000000 0.021064 0.000000
# 6 0.000000 0.000000 0.000000 0.000000 0.000000 0.026641
#
#
# Mechanical properties :
#
#
# Convention : Reuss Voigt Hill
#
# Bulk Modulus (GPa) = 24.14883 78.85613 51.50248
# Shear Modulus (GPa) = -56.89383 35.29950 -10.79717
#
# Velocity S-wave (km/s) = -5.37583 4.23445 -2.34190
# Velocity P-wave (km/s) = 5.12506 7.99768 4.34147
#
# Compressibility (1/GPa) = 0.04140988
#
# Stress axis : x y z
#
# Youngs Moduli (GPa) = 152.42827 21.94863 139.58079
#
# Poissons Ratio (x) = 0.05635 0.44828
# Poissons Ratio (y) = 0.39132 0.44095
# Poissons Ratio (z) = 0.48954 0.06934
#
# Static dielectric constant tensor:
#      x y z
#    x 3.867010 0.000000 0.000000 
#    y 0.000000 3.205470 0.000000 
#    z 0.000000 0.000000 3.877060 
# 
# 
# High freq. dielectric constant tensor:
#      x y z
#    x 1.792110 0.000000 0.000000 
#    y 0.000000 1.729880 0.000000 
#    z 0.000000 0.000000 1.791080 
# 
# From -- ./inp_files/7550.got.cif
#   From: 2010.06.25/outbox.cif.g09.slc.cpg/sg71_4_cif.got.tgz:7550.got - 2010.06.28 04:59:45.
