data_PCOD8289880
_publ_section_title
;
Structure prediction by ZEFSAII (Michael W. Deem and Ramdas Pophale) SiO2 
 PCOD8289880
Probable space group: I M M M
;
_chemical_formula_sum "Si O2"
_cell_formula_units_Z 112
_cell_length_a 16.896681
_cell_length_b 25.809910
_cell_length_c 14.470257
_cell_angle_alpha 90.000000
_cell_angle_beta 90.000000
_cell_angle_gamma 90.000000
_cell_volume 6310.505354
_symmetry_space_group_name_H-M "I M M M"
_symmetry_group_IT_number 71
_symmetry_cell_setting 'orthorhombic'
loop_
_space_group_symop_operation_xyz
x,y,z
-x,-y,z
x,-y,-z
-x,y,-z
-x,-y,-z
x,y,-z
-x,y,z
x,-y,z
1/2+x,1/2+y,1/2+z
1/2-x,1/2-y,1/2+z
1/2+x,1/2-y,1/2-z
1/2-x,1/2+y,1/2-z
1/2-x,1/2-y,1/2-z
1/2+x,1/2+y,1/2-z
1/2-x,1/2+y,1/2+z
1/2+x,1/2-y,1/2+z
loop_
_atom_site_type_symbol
_atom_site_label
_atom_site_fract_x
_atom_site_fract_y
_atom_site_fract_z
Si Si1 0.665680 0.295373 0.895952
Si Si2 0.408140 0.749625 0.727413
Si Si3 0.089014 0.556761 0.890693
Si Si4 0.405635 0.443149 0.711901
Si Si5 0.660391 0.837015 0.607673
Si Si6 0.594192 0.345191 0.397221
Si Si7 0.091719 0.901889 0.599477
O O1 0.642789 0.250575 0.822679
O O2 0.749997 0.320821 0.873674
O O3 0.601249 0.340673 0.883400
O O4 0.663887 0.272147 0.000000
O O5 0.500000 0.743464 0.751904
O O6 0.396356 0.802064 0.670600
O O7 0.375876 0.701997 0.665431
O O8 0.117760 0.500000 0.853049
O O9 0.147341 0.603373 0.859698
O O10 0.000000 0.568081 0.854184
O O11 0.087359 0.554442 0.000000
O O12 0.500000 0.438830 0.715464
O O13 0.378735 0.500000 0.677348
O O14 0.372472 0.399481 0.642918
O O15 0.371177 0.433971 0.815492
O O16 0.636806 0.829711 0.500000
O O17 0.629121 0.338038 0.500000
O O18 0.500000 0.345805 0.400268
O O19 0.132013 0.916986 0.500000
O O20 0.000000 0.914765 0.593153
#
# Coordination Sequence:
#
# PCOD8289880 Si02
#       7
#    16  16  16  16  16  16  16
#     4  10  20  33  48  68  96 130 163 198 246 297
#     4  11  20  32  51  71  94 127 167 209 245 288
#     4   8  14  27  48  72  99 130 160 192 234 288
#     4   9  16  26  40  59  83 111 149 198 245 286
#     4  10  20  32  48  74 105 132 159 196 248 306
#     4   9  17  28  42  62  86 113 148 193 244 289
#     4   9  16  28  45  62  83 116 159 200 238 284
#
# _framework density 17.748182
#
# number of rings (size 3 to 8) (size 9 to 14) (size 15 to 20)
#    0.000    2.571    1.429    2.143    0.000    2.857 
#    0.000    3.571    0.000    2.571    0.000    0.000 
#    0.000    0.571    0.000    3.000    0.000    0.143 
#
# Total GULP energy -693993.667044 kJ/mol
# GULP energy per Si atom -12392.744054 kJ/mol
# Density = 1.770779 g / cm^3
# Si number density = 17.748182 Si / 1000 Ang^3
#
#
#
# Elastic Constant Matrix: (Units=GPa)
#
#
# Indices 1 2 3 4 5 6 
#
# 1 42.6873 23.9393 29.0502 0.0000 0.0000 0.0000
# 2 23.9393 112.9464 45.8615 0.0000 0.0000 0.0000
# 3 29.0502 45.8615 95.5606 -0.0001 -0.0001 0.0000
# 4 0.0000 0.0000 -0.0001 22.1832 0.0000 0.0000
# 5 0.0000 0.0000 -0.0001 0.0000 15.8441 0.0000
# 6 0.0000 0.0000 0.0000 0.0000 0.0000 13.9650
#
#
#
# Elastic Compliance Matrix: (Units=1/GPa)
#
#
# Indices 1 2 3 4 5 6 
#
# 1 0.030528 -0.003356 -0.007670 0.000000 0.000000 0.000000
# 2 -0.003356 0.011366 -0.004434 0.000000 0.000000 0.000000
# 3 -0.007670 -0.004434 0.014924 0.000000 0.000000 0.000000
# 4 0.000000 0.000000 0.000000 0.045079 0.000000 0.000000
# 5 0.000000 0.000000 0.000000 0.000000 0.063115 0.000000
# 6 0.000000 0.000000 0.000000 0.000000 0.000000 0.071608
#
#
# Mechanical properties :
#
#
# Convention : Reuss Voigt Hill
#
# Bulk Modulus (GPa) = 38.61406 49.87737 44.24572
# Shear Modulus (GPa) = 18.10462 20.55467 19.32964
#
# Velocity S-wave (km/s) = 3.19734 3.40682 3.30374
# Velocity P-wave (km/s) = 5.95269 6.60599 6.28783
#
# Compressibility (1/GPa) = 0.02589730
#
# Stress axis : x y z
#
# Youngs Moduli (GPa) = 32.75702 87.98433 67.00502
#
# Poissons Ratio (x) = 0.29529 0.51391
# Poissons Ratio (y) = 0.10994 0.29712
# Poissons Ratio (z) = 0.25124 0.39015
#
# Static dielectric constant tensor:
#      x y z
#    x 2.917120 0.000000 0.000000 
#    y 0.000000 3.438280 0.000000 
#    z 0.000000 0.000000 3.396580 
# 
# 
# High freq. dielectric constant tensor:
#      x y z
#    x 1.644670 0.000000 0.000000 
#    y 0.000000 1.679310 0.000000 
#    z 0.000000 0.000000 1.671370 
# 
# From -- ./inp_files/35132.got.cif
#   From: 2010.06.25/outbox.cif.g09.slc.cpg/sg71_18_cif.got.tgz:35132.got - 2010.06.28 04:59:45.
