data_PCOD8289172
_publ_section_title
;
Structure prediction by ZEFSAII (Michael W. Deem and Ramdas Pophale) SiO2 
 PCOD8289172
Probable space group: I M M M
;
_chemical_formula_sum "Si O2"
_cell_formula_units_Z 96
_cell_length_a 10.764608
_cell_length_b 16.769292
_cell_length_c 28.381446
_cell_angle_alpha 90.000000
_cell_angle_beta 90.000000
_cell_angle_gamma 90.000000
_cell_volume 5123.272604
_symmetry_space_group_name_H-M "I M M M"
_symmetry_group_IT_number 71
_symmetry_cell_setting 'orthorhombic'
loop_
_space_group_symop_operation_xyz
x,y,z
-x,-y,z
x,-y,-z
-x,y,-z
-x,-y,-z
x,y,-z
-x,y,z
x,-y,z
1/2+x,1/2+y,1/2+z
1/2-x,1/2-y,1/2+z
1/2+x,1/2-y,1/2-z
1/2-x,1/2+y,1/2-z
1/2-x,1/2-y,1/2-z
1/2+x,1/2+y,1/2-z
1/2-x,1/2+y,1/2+z
1/2+x,1/2-y,1/2+z
loop_
_atom_site_type_symbol
_atom_site_label
_atom_site_fract_x
_atom_site_fract_y
_atom_site_fract_z
Si Si1 0.647208 0.088938 0.141000
Si Si2 0.853026 0.313363 0.553131
Si Si3 0.144309 0.690041 0.269738
Si Si4 0.252925 0.848518 0.593006
Si Si5 0.359320 0.500000 0.050679
Si Si6 0.859417 0.590131 0.819077
Si Si7 0.500000 0.088820 0.554435
O O1 0.500000 0.084228 0.142804
O O2 0.691755 0.117160 0.088839
O O3 0.689321 0.153922 0.180116
O O4 0.702808 0.000000 0.149979
O O5 0.798889 0.326371 0.500000
O O6 0.810000 0.231297 0.575850
O O7 0.000000 0.311405 0.550181
O O8 0.250000 0.750000 0.250000
O O9 0.143978 0.614967 0.235009
O O10 0.000000 0.724918 0.272059
O O11 0.166566 0.922178 0.580601
O O12 0.273236 0.850869 0.649666
O O13 0.383266 0.858345 0.567784
O O14 0.500000 0.500000 0.037129
O O15 0.285398 0.500000 0.000000
O O16 0.809690 0.500000 0.823030
O O17 0.000000 0.595682 0.839017
O O18 0.500000 0.074356 0.500000
O O19 0.500000 0.000000 0.578803
#
# Coordination Sequence:
#
# PCOD8289172 Si02
#       7
#    16  16  16  16   8  16   8
#     4   9  18  35  59  85 109 141 186 231 276 330
#     4  10  21  35  52  77 110 143 178 227 283 337
#     4  10  20  35  58  86 115 145 179 224 278 334
#     4  12  20  33  49  72 105 140 184 229 272 324
#     4  11  22  33  47  67 101 152 193 223 274 339
#     4  10  19  33  52  77 105 139 180 224 267 316
#     4  11  20  30  46  68  95 135 185 235 271 305
#
# _framework density 18.738022999999998
#
# number of rings (size 3 to 8) (size 9 to 14) (size 15 to 20)
#    0.000    1.667    2.500    3.500    0.000    3.667 
#    0.000    2.500    0.000    1.500    0.000    0.000 
#    0.000    2.000    0.000    0.000    0.000    0.000 
#
# Total GULP energy -594774.622934 kJ/mol
# GULP energy per Si atom -12391.137978 kJ/mol
# Density = 1.869537 g / cm^3
# Si number density = 18.738023 Si / 1000 Ang^3
#
#
#
# Elastic Constant Matrix: (Units=GPa)
#
#
# Indices 1 2 3 4 5 6 
#
# 1 39.8769 20.7858 20.4010 0.0000 0.0000 0.0000
# 2 20.7858 101.7580 44.1425 0.0000 0.0000 0.0000
# 3 20.4010 44.1425 130.3378 0.0000 0.0000 0.0000
# 4 0.0000 0.0000 0.0000 30.2556 0.0000 0.0000
# 5 0.0000 0.0000 0.0000 0.0000 21.7564 0.0000
# 6 0.0000 0.0000 0.0000 0.0000 0.0000 -29.7280
#
#
#
# Elastic Compliance Matrix: (Units=1/GPa)
#
#
# Indices 1 2 3 4 5 6 
#
# 1 0.029015 -0.004638 -0.002971 0.000000 0.000000 0.000000
# 2 -0.004638 0.012261 -0.003427 0.000000 0.000000 0.000000
# 3 -0.002971 -0.003427 0.009298 0.000000 0.000000 0.000000
# 4 0.000000 0.000000 0.000000 0.033052 0.000000 0.000000
# 5 0.000000 0.000000 0.000000 0.000000 0.045963 0.000000
# 6 0.000000 0.000000 0.000000 0.000000 0.000000 -0.033638
#
#
# Mechanical properties :
#
#
# Convention : Reuss Voigt Hill
#
# Bulk Modulus (GPa) = 35.08417 49.18126 42.13272
# Shear Modulus (GPa) = 39.20892 16.89969 28.05431
#
# Velocity S-wave (km/s) = 4.57933 3.00641 3.87355
# Velocity P-wave (km/s) = 6.83553 6.19315 6.52225
#
# Compressibility (1/GPa) = 0.02850288
#
# Stress axis : x y z
#
# Youngs Moduli (GPa) = 34.46546 81.55886 107.55165
#
# Poissons Ratio (x) = 0.37827 0.31950
# Poissons Ratio (y) = 0.15985 0.36853
# Poissons Ratio (z) = 0.10239 0.27947
#
# Static dielectric constant tensor:
#      x y z
#    x 3.235180 0.000000 0.000000 
#    y 0.000000 3.450850 0.000000 
#    z 0.000000 0.000000 3.830700 
# 
# 
# High freq. dielectric constant tensor:
#      x y z
#    x 1.693770 0.000000 0.000000 
#    y 0.000000 1.714780 0.000000 
#    z 0.000000 0.000000 1.752310 
# 
# From -- ./inp_files/69289.got.cif
#   From: 2010.06.25/outbox.cif.g09.slc.cpg/sg71_35_cif.got.tgz:69289.got - 2010.06.28 04:59:45.
