data_PCOD8289258
_publ_section_title
;
Structure prediction by ZEFSAII (Michael W. Deem and Ramdas Pophale) SiO2 
 PCOD8289258
Probable space group: I M M M
;
_chemical_formula_sum "Si O2"
_cell_formula_units_Z 104
_cell_length_a 27.963760
_cell_length_b 22.874932
_cell_length_c 8.794755
_cell_angle_alpha 90.000000
_cell_angle_beta 90.000000
_cell_angle_gamma 90.000000
_cell_volume 5625.733090
_symmetry_space_group_name_H-M "I M M M"
_symmetry_group_IT_number 71
_symmetry_cell_setting 'orthorhombic'
loop_
_space_group_symop_operation_xyz
x,y,z
-x,-y,z
x,-y,-z
-x,y,-z
-x,-y,-z
x,y,-z
-x,y,z
x,-y,z
1/2+x,1/2+y,1/2+z
1/2-x,1/2-y,1/2+z
1/2+x,1/2-y,1/2-z
1/2-x,1/2+y,1/2-z
1/2-x,1/2-y,1/2-z
1/2+x,1/2+y,1/2-z
1/2-x,1/2+y,1/2+z
1/2+x,1/2-y,1/2+z
loop_
_atom_site_type_symbol
_atom_site_label
_atom_site_fract_x
_atom_site_fract_y
_atom_site_fract_z
Si Si1 0.443647 0.435668 0.331504
Si Si2 0.104733 0.833265 0.324514
Si Si3 0.197134 0.325065 0.678249
Si Si4 0.105146 0.385300 0.179924
Si Si5 0.292667 0.690138 0.823130
Si Si6 0.944570 0.280535 0.674474
Si Si7 0.943426 0.500000 0.318668
O O1 0.426593 0.417142 0.500000
O O2 0.500000 0.436427 0.323379
O O3 0.423762 0.500000 0.291474
O O4 0.424575 0.390669 0.210411
O O5 0.099720 0.819755 0.500000
O O6 0.159648 0.845499 0.280791
O O7 0.082951 0.774616 0.249699
O O8 0.190488 0.334722 0.500000
O O9 0.157541 0.365046 0.760735
O O10 0.250741 0.342249 0.730066
O O11 0.194414 0.256746 0.725149
O O12 0.066803 0.335945 0.221777
O O13 0.085567 0.444353 0.255985
O O14 0.108020 0.394578 0.000000
O O15 0.278931 0.688045 0.000000
O O16 0.928568 0.293878 0.500000
O O17 0.000000 0.265831 0.681940
O O18 0.940646 0.500000 0.500000
O O19 0.000000 0.500000 0.268199
#
# Coordination Sequence:
#
# PCOD8289258 Si02
#       7
#    16  16  16  16  16  16   8
#     4   9  19  35  52  72 104 145 185 226 271 322
#     4  10  19  33  54  81 111 143 180 228 279 329
#     4  10  19  35  58  82 112 148 185 224 275 339
#     4  12  24  38  59  86 117 150 190 238 288 340
#     4   9  18  33  54  83 116 144 180 228 279 331
#     4  10  20  35  54  79 114 151 185 225 279 339
#     4  11  25  45  67  87 113 155 201 243 294 355
#
# _framework density 18.48648
#
# number of rings (size 3 to 8) (size 9 to 14) (size 15 to 20)
#    0.000    1.923    1.538    3.462    0.000    5.846 
#    0.000    0.769    1.692    0.000    0.000    0.000 
#    0.000    0.000    0.000    0.000    0.000    0.000 
#
# Total GULP energy -644519.888136 kJ/mol
# GULP energy per Si atom -12394.613233 kJ/mol
# Density = 1.844440 g / cm^3
# Si number density = 18.486480 Si / 1000 Ang^3
#
#
#
# Elastic Constant Matrix: (Units=GPa)
#
#
# Indices 1 2 3 4 5 6 
#
# 1 96.1241 65.2406 50.6895 0.0000 0.0000 0.0000
# 2 65.2406 91.4983 29.7633 0.0000 0.0000 0.0000
# 3 50.6895 29.7633 68.9605 0.0000 0.0000 0.0000
# 4 0.0000 0.0000 0.0000 56.5622 0.0000 0.0000
# 5 0.0000 0.0000 0.0000 0.0000 31.1062 0.0000
# 6 0.0000 0.0000 0.0000 0.0000 0.0000 26.6419
#
#
#
# Elastic Compliance Matrix: (Units=1/GPa)
#
#
# Indices 1 2 3 4 5 6 
#
# 1 0.028606 -0.015771 -0.014220 0.000000 0.000000 0.000000
# 2 -0.015771 0.021409 0.002352 0.000000 0.000000 0.000000
# 3 -0.014220 0.002352 0.023938 0.000000 0.000000 0.000000
# 4 0.000000 0.000000 0.000000 0.017680 0.000000 0.000000
# 5 0.000000 0.000000 0.000000 0.000000 0.032148 0.000000
# 6 0.000000 0.000000 0.000000 0.000000 0.000000 0.037535
#
#
# Mechanical properties :
#
#
# Convention : Reuss Voigt Hill
#
# Bulk Modulus (GPa) = 53.54516 60.88551 57.21534
# Shear Modulus (GPa) = 22.43971 30.25468 26.34719
#
# Velocity S-wave (km/s) = 3.48781 4.04986 3.77930
# Velocity P-wave (km/s) = 6.72660 7.40778 7.07539
#
# Compressibility (1/GPa) = 0.01867582
#
# Stress axis : x y z
#
# Youngs Moduli (GPa) = 34.95752 46.70870 41.77419
#
# Poissons Ratio (x) = 0.73666 0.59403
# Poissons Ratio (y) = 0.55133 -0.09827
# Poissons Ratio (z) = 0.49710 -0.10988
#
# Static dielectric constant tensor:
#      x y z
#    x 3.639950 0.000000 0.000000 
#    y 0.000000 3.463070 0.000000 
#    z 0.000000 0.000000 3.359760 
# 
# 
# High freq. dielectric constant tensor:
#      x y z
#    x 1.727670 0.000000 0.000000 
#    y 0.000000 1.700120 0.000000 
#    z 0.000000 0.000000 1.710890 
# 
# From -- ./inp_files/15285.got.cif
#   From: 2010.06.25/outbox.cif.g09.slc.cpg/sg71_8_cif.got.tgz:15285.got - 2010.06.28 04:59:45.
