data_PCOD8289520
_publ_section_title
;
Structure prediction by ZEFSAII (Michael W. Deem and Ramdas Pophale) SiO2 
 PCOD8289520
Probable space group: I M M M
;
_chemical_formula_sum "Si O2"
_cell_formula_units_Z 104
_cell_length_a 20.101651
_cell_length_b 18.178162
_cell_length_c 14.374091
_cell_angle_alpha 90.000000
_cell_angle_beta 90.000000
_cell_angle_gamma 90.000000
_cell_volume 5252.451949
_symmetry_space_group_name_H-M "I M M M"
_symmetry_group_IT_number 71
_symmetry_cell_setting 'orthorhombic'
loop_
_space_group_symop_operation_xyz
x,y,z
-x,-y,z
x,-y,-z
-x,y,-z
-x,-y,-z
x,y,-z
-x,y,z
x,-y,z
1/2+x,1/2+y,1/2+z
1/2-x,1/2-y,1/2+z
1/2+x,1/2-y,1/2-z
1/2-x,1/2+y,1/2-z
1/2-x,1/2-y,1/2-z
1/2+x,1/2+y,1/2-z
1/2-x,1/2+y,1/2+z
1/2+x,1/2-y,1/2+z
loop_
_atom_site_type_symbol
_atom_site_label
_atom_site_fract_x
_atom_site_fract_y
_atom_site_fract_z
Si Si1 0.757283 0.688581 0.394436
Si Si2 0.322870 0.582629 0.107329
Si Si3 0.609918 0.827150 0.779782
Si Si4 0.813430 0.659769 0.106246
Si Si5 0.426766 0.336661 0.231923
Si Si6 0.000000 0.412642 0.608625
Si Si7 0.139713 0.915509 0.893425
O O1 0.782972 0.695036 0.500000
O O2 0.820271 0.686737 0.329169
O O3 0.710708 0.757777 0.370379
O O4 0.714199 0.615134 0.378199
O O5 0.333679 0.500000 0.143730
O O6 0.246736 0.603877 0.124709
O O7 0.371532 0.636913 0.160254
O O8 0.341305 0.590272 0.000000
O O9 0.626486 0.860003 0.676961
O O10 0.571310 0.751222 0.766301
O O11 0.565702 0.882955 0.839851
O O12 0.839225 0.653350 0.000000
O O13 0.500000 0.363766 0.200756
O O14 0.412717 0.369309 0.333756
O O15 0.000000 0.500000 0.616022
O O16 0.000000 0.387784 0.500000
O O17 0.140021 0.000000 0.861385
O O18 0.117479 0.906755 0.000000
#
# Coordination Sequence:
#
# PCOD8289520 Si02
#       7
#    16  16  16  16  16   8  16
#     4  10  19  34  61  92 120 154 203 263 318 371
#     4  10  22  39  58  86 122 155 193 249 311 362
#     4  12  22  39  65  92 121 161 209 249 305 367
#     4  10  20  36  63  94 123 155 198 257 313 366
#     4  12  24  38  57  86 118 160 212 251 289 356
#     4  11  28  50  67  91 128 163 201 253 307 362
#     4  10  22  39  59  88 125 160 200 257 318 368
#
# _framework density 19.800277000000001
#
# number of rings (size 3 to 8) (size 9 to 14) (size 15 to 20)
#    0.000    1.308    3.846    2.308    0.000    3.692 
#    0.000    3.462    0.000    0.462    0.000    0.000 
#    0.000    0.000    0.000    0.000    0.000    0.000 
#
# Total GULP energy -644914.351590 kJ/mol
# GULP energy per Si atom -12402.199069 kJ/mol
# Density = 1.975521 g / cm^3
# Si number density = 19.800277 Si / 1000 Ang^3
#
#
#
# Elastic Constant Matrix: (Units=GPa)
#
#
# Indices 1 2 3 4 5 6 
#
# 1 81.3832 27.4111 61.4369 0.0000 0.0000 0.0000
# 2 27.4111 87.2287 41.6700 0.0000 0.0000 0.0000
# 3 61.4369 41.6700 129.0226 0.0000 0.0000 0.0000
# 4 0.0000 0.0000 0.0000 28.8327 0.0000 0.0000
# 5 0.0000 0.0000 0.0000 0.0000 22.1470 0.0000
# 6 0.0000 0.0000 0.0000 0.0000 0.0000 21.1060
#
#
#
# Elastic Compliance Matrix: (Units=1/GPa)
#
#
# Indices 1 2 3 4 5 6 
#
# 1 0.019473 -0.001998 -0.008627 0.000000 0.000000 0.000000
# 2 -0.001998 0.013761 -0.003493 0.000000 0.000000 0.000000
# 3 -0.008627 -0.003493 0.012987 0.000000 0.000000 0.000000
# 4 0.000000 0.000000 0.000000 0.034683 0.000000 0.000000
# 5 0.000000 0.000000 0.000000 0.000000 0.045153 0.000000
# 6 0.000000 0.000000 0.000000 0.000000 0.000000 0.047380
#
#
# Mechanical properties :
#
#
# Convention : Reuss Voigt Hill
#
# Bulk Modulus (GPa) = 55.60408 62.07449 58.83928
# Shear Modulus (GPa) = 24.07696 25.55824 24.81760
#
# Velocity S-wave (km/s) = 3.49089 3.59667 3.54417
# Velocity P-wave (km/s) = 6.66272 6.97613 6.82123
#
# Compressibility (1/GPa) = 0.01798429
#
# Stress axis : x y z
#
# Youngs Moduli (GPa) = 51.35205 72.67170 77.00148
#
# Poissons Ratio (x) = 0.14520 0.66432
# Poissons Ratio (y) = 0.10260 0.26895
# Poissons Ratio (z) = 0.44303 0.25383
#
# Static dielectric constant tensor:
#      x y z
#    x 3.394580 0.000000 0.000000 
#    y 0.000000 3.688180 0.000000 
#    z 0.000000 0.000000 3.875640 
# 
# 
# High freq. dielectric constant tensor:
#      x y z
#    x 1.754380 0.000000 0.000000 
#    y 0.000000 1.771520 0.000000 
#    z 0.000000 0.000000 1.789300 
# 
# From -- ./inp_files/38105.got.cif
#   From: 2010.06.25/outbox.cif.g09.slc.cpg/sg71_20_cif.got.tgz:38105.got - 2010.06.28 04:59:45.
