data_PCOD8289036
_publ_section_title
;
Structure prediction by ZEFSAII (Michael W. Deem and Ramdas Pophale) SiO2 
 PCOD8289036
Probable space group: I M M M
;
_chemical_formula_sum "Si O2"
_cell_formula_units_Z 96
_cell_length_a 22.937664
_cell_length_b 9.493206
_cell_length_c 23.401311
_cell_angle_alpha 90.000000
_cell_angle_beta 90.000000
_cell_angle_gamma 90.000000
_cell_volume 5095.681559
_symmetry_space_group_name_H-M "I M M M"
_symmetry_group_IT_number 71
_symmetry_cell_setting 'orthorhombic'
loop_
_space_group_symop_operation_xyz
x,y,z
-x,-y,z
x,-y,-z
-x,y,-z
-x,-y,-z
x,y,-z
-x,y,z
x,-y,z
1/2+x,1/2+y,1/2+z
1/2-x,1/2-y,1/2+z
1/2+x,1/2-y,1/2-z
1/2-x,1/2+y,1/2-z
1/2-x,1/2-y,1/2-z
1/2+x,1/2+y,1/2-z
1/2-x,1/2+y,1/2+z
1/2+x,1/2-y,1/2+z
loop_
_atom_site_type_symbol
_atom_site_label
_atom_site_fract_x
_atom_site_fract_y
_atom_site_fract_z
Si Si1 0.806308 0.162241 0.886549
Si Si2 0.191769 0.657023 0.000000
Si Si3 0.197445 0.658083 0.308510
Si Si4 0.377559 0.847180 0.911562
Si Si5 0.873605 0.838554 0.776724
Si Si6 0.500000 0.840310 0.124546
Si Si7 0.000000 0.167121 0.263122
Si Si8 0.673928 0.650065 0.000000
O O1 0.749232 0.213610 0.850409
O O2 0.861709 0.174707 0.844333
O O3 0.796290 0.000000 0.906096
O O4 0.822284 0.255323 0.942184
O O5 0.160968 0.500000 0.000000
O O6 0.258770 0.625123 0.000000
O O7 0.213178 0.500000 0.286411
O O8 0.138041 0.655212 0.344852
O O9 0.180261 0.757965 0.255363
O O10 0.445677 0.815550 0.917165
O O11 0.341287 0.730797 0.943119
O O12 0.362312 0.000000 0.938146
O O13 0.939647 0.780033 0.767078
O O14 0.869455 0.000000 0.755967
O O15 0.500000 0.725466 0.173540
O O16 0.500000 0.000000 0.149831
O O17 0.000000 0.000000 0.265009
O O18 0.641268 0.500000 0.000000
#
# Coordination Sequence:
#
# PCOD8289036 Si02
#       8
#    16   8  16  16  16   8   8   8
#     4  10  21  37  56  80 109 142 177 214 261 318
#     4  11  23  37  56  81 106 136 173 218 267 316
#     4  10  19  32  54  81 108 140 176 216 263 311
#     4  10  20  34  53  74 101 139 183 222 257 305
#     4  10  21  35  54  81 112 143 175 213 261 314
#     4  10  20  35  53  74 100 139 186 221 253 301
#     4  10  20  34  53  78 109 142 172 211 260 311
#     4  11  23  36  52  75 103 137 178 222 269 312
#
# _framework density 18.839480999999999
#
# number of rings (size 3 to 8) (size 9 to 14) (size 15 to 20)
#    0.000    1.833    3.333    1.000    0.000    3.667 
#    0.000    1.667    0.000    0.500    0.000    3.500 
#    0.000    0.000    0.000    0.000    0.000    0.000 
#
# Total GULP energy -594751.478331 kJ/mol
# GULP energy per Si atom -12390.655799 kJ/mol
# Density = 1.879660 g / cm^3
# Si number density = 18.839481 Si / 1000 Ang^3
#
#
#
# Elastic Constant Matrix: (Units=GPa)
#
#
# Indices 1 2 3 4 5 6 
#
# 1 44.8430 13.3683 16.2298 0.0000 0.0000 0.0000
# 2 13.3683 83.0155 47.1200 0.0000 0.0000 0.0000
# 3 16.2298 47.1200 93.7437 0.0000 0.0000 0.0000
# 4 0.0000 0.0000 0.0000 -32.2231 0.0000 0.0000
# 5 0.0000 0.0000 0.0000 0.0000 6.7988 0.0000
# 6 0.0000 0.0000 0.0000 0.0000 0.0000 19.3458
#
#
#
# Elastic Compliance Matrix: (Units=1/GPa)
#
#
# Indices 1 2 3 4 5 6 
#
# 1 0.024053 -0.002112 -0.003102 0.000000 0.000000 0.000000
# 2 -0.002112 0.017040 -0.008199 0.000000 0.000000 0.000000
# 3 -0.003102 -0.008199 0.015326 0.000000 0.000000 0.000000
# 4 0.000000 0.000000 0.000000 -0.031034 0.000000 0.000000
# 5 0.000000 0.000000 0.000000 0.000000 0.147084 0.000000
# 6 0.000000 0.000000 0.000000 0.000000 0.000000 0.051691
#
#
# Mechanical properties :
#
#
# Convention : Reuss Voigt Hill
#
# Bulk Modulus (GPa) = 33.79499 41.67093 37.73296
# Shear Modulus (GPa) = 19.16798 8.44325 13.80561
#
# Velocity S-wave (km/s) = 3.19319 2.11929 2.70997
# Velocity P-wave (km/s) = 5.61895 5.30618 5.46480
#
# Compressibility (1/GPa) = 0.02959018
#
# Stress axis : x y z
#
# Youngs Moduli (GPa) = 41.57557 58.68490 65.24884
#
# Poissons Ratio (x) = 0.12396 0.20243
# Poissons Ratio (y) = 0.08782 0.53501
# Poissons Ratio (z) = 0.12899 0.48119
#
# Static dielectric constant tensor:
#      x y z
#    x 3.548070 0.000000 0.000000 
#    y 0.000000 3.582960 0.000000 
#    z 0.000000 0.000000 3.326480 
# 
# 
# High freq. dielectric constant tensor:
#      x y z
#    x 1.722420 0.000000 0.000000 
#    y 0.000000 1.729460 0.000000 
#    z 0.000000 0.000000 1.717490 
# 
# From -- ./inp_files/61598.got.cif
#   From: 2010.06.25/outbox.cif.g09.slc.cpg/sg71_31_cif.got.tgz:61598.got - 2010.06.28 04:59:45.
