data_PCOD8289419
_publ_section_title
;
Structure prediction by ZEFSAII (Michael W. Deem and Ramdas Pophale) SiO2 
 PCOD8289419
Probable space group: I M M M
;
_chemical_formula_sum "Si O2"
_cell_formula_units_Z 104
_cell_length_a 27.711747
_cell_length_b 22.346491
_cell_length_c 8.502475
_cell_angle_alpha 90.000000
_cell_angle_beta 90.000000
_cell_angle_gamma 90.000000
_cell_volume 5265.245261
_symmetry_space_group_name_H-M "I M M M"
_symmetry_group_IT_number 71
_symmetry_cell_setting 'orthorhombic'
loop_
_space_group_symop_operation_xyz
x,y,z
-x,-y,z
x,-y,-z
-x,y,-z
-x,-y,-z
x,y,-z
-x,y,z
x,-y,z
1/2+x,1/2+y,1/2+z
1/2-x,1/2-y,1/2+z
1/2+x,1/2-y,1/2-z
1/2-x,1/2+y,1/2-z
1/2-x,1/2-y,1/2-z
1/2+x,1/2+y,1/2-z
1/2-x,1/2+y,1/2+z
1/2+x,1/2-y,1/2+z
loop_
_atom_site_type_symbol
_atom_site_label
_atom_site_fract_x
_atom_site_fract_y
_atom_site_fract_z
Si Si1 0.000000 0.568603 0.686511
Si Si2 0.946711 0.207186 0.313342
Si Si3 0.824804 0.000000 0.688406
Si Si4 0.639498 0.373028 0.814859
Si Si5 0.731223 0.311001 0.318777
Si Si6 0.182329 0.375434 0.817882
Si Si7 0.283221 0.000000 0.320254
Si Si8 0.418342 0.839723 0.813413
O O1 0.046723 0.606297 0.743510
O O2 0.000000 0.500000 0.754546
O O3 0.000000 0.565651 0.500000
O O4 0.943268 0.206541 0.500000
O O5 0.908090 0.159578 0.242771
O O6 0.938073 0.275397 0.257062
O O7 0.000000 0.187417 0.256253
O O8 0.852532 0.059544 0.752235
O O9 0.770107 0.000000 0.761035
O O10 0.824740 0.000000 0.500000
O O11 0.684752 0.331530 0.776886
O O12 0.633946 0.377129 0.000000
O O13 0.716965 0.304817 0.500000
O O14 0.750000 0.250000 0.250000
O O15 0.774753 0.356228 0.295748
O O16 0.181259 0.445646 0.781675
O O17 0.132458 0.345930 0.771413
O O18 0.194014 0.360495 0.000000
O O19 0.267733 0.000000 0.500000
O O20 0.411610 0.841922 0.000000
#
# Coordination Sequence:
#
# PCOD8289419 Si02
#       8
#     8  16   8  16  16  16   8  16
#     4   9  18  32  51  75 107 148 194 246 299 349
#     4   9  17  32  55  82 108 140 184 232 283 337
#     4   9  16  32  55  80 110 151 188 223 283 345
#     4  10  19  34  58  82 111 150 190 232 283 340
#     4  12  24  38  56  82 114 145 183 228 279 336
#     4  11  22  37  56  80 111 147 186 229 279 339
#     4   9  18  34  54  74 109 152 186 222 280 342
#     4  10  19  34  55  79 109 146 191 242 295 344
#
# _framework density 19.752167
#
# number of rings (size 3 to 8) (size 9 to 14) (size 15 to 20)
#    0.000    1.923    2.308    2.769    1.077    1.231 
#    0.000    3.077    0.000    4.154    0.000    0.000 
#    0.000    1.231    0.000    0.000    0.000    0.000 
#
# Total GULP energy -644481.671571 kJ/mol
# GULP energy per Si atom -12393.878299 kJ/mol
# Density = 1.970721 g / cm^3
# Si number density = 19.752167 Si / 1000 Ang^3
#
#
#
# Elastic Constant Matrix: (Units=GPa)
#
#
# Indices 1 2 3 4 5 6 
#
# 1 146.6883 58.5880 -1.5244 0.0000 0.0000 0.0000
# 2 58.5880 123.9642 10.0344 0.0000 0.0000 0.0000
# 3 -1.5244 10.0344 13.9399 0.0000 0.0000 0.0000
# 4 0.0000 0.0000 0.0000 13.5424 0.0000 0.0000
# 5 0.0000 0.0000 0.0000 0.0000 21.1799 0.0000
# 6 0.0000 0.0000 0.0000 0.0000 0.0000 36.6565
#
#
#
# Elastic Compliance Matrix: (Units=1/GPa)
#
#
# Indices 1 2 3 4 5 6 
#
# 1 0.008620 -0.004407 0.004115 0.000000 0.000000 0.000000
# 2 -0.004407 0.010819 -0.008270 0.000000 0.000000 0.000000
# 3 0.004115 -0.008270 0.078139 0.000000 0.000000 0.000000
# 4 0.000000 0.000000 0.000000 0.073842 0.000000 0.000000
# 5 0.000000 0.000000 0.000000 0.000000 0.047215 0.000000
# 6 0.000000 0.000000 0.000000 0.000000 0.000000 0.027280
#
#
# Mechanical properties :
#
#
# Convention : Reuss Voigt Hill
#
# Bulk Modulus (GPa) = 12.42936 46.53204 29.48070
# Shear Modulus (GPa) = 17.24983 28.77539 23.01261
#
# Velocity S-wave (km/s) = 2.95839 3.82097 3.41701
# Velocity P-wave (km/s) = 4.23978 6.56320 5.52500
#
# Compressibility (1/GPa) = 0.08045468
#
# Stress axis : x y z
#
# Youngs Moduli (GPa) = 116.00679 92.42846 12.79765
#
# Poissons Ratio (x) = 0.40735 -0.05266
# Poissons Ratio (y) = 0.51126 0.10584
# Poissons Ratio (z) = -0.47738 0.76438
#
# Static dielectric constant tensor:
#      x y z
#    x 3.717430 0.000000 0.000000 
#    y 0.000000 4.019480 0.000000 
#    z 0.000000 0.000000 3.126670 
# 
# 
# High freq. dielectric constant tensor:
#      x y z
#    x 1.773170 0.000000 0.000000 
#    y 0.000000 1.783680 0.000000 
#    z 0.000000 0.000000 1.724010 
# 
# From -- ./inp_files/17066.got.cif
#   From: 2010.06.25/outbox.cif.g09.slc.cpg/sg71_9_cif.got.tgz:17066.got - 2010.06.28 04:59:45.
