data_PCOD8289286
_publ_section_title
;
Structure prediction by ZEFSAII (Michael W. Deem and Ramdas Pophale) SiO2 
 PCOD8289286
Probable space group: I M M M
;
_chemical_formula_sum "Si O2"
_cell_formula_units_Z 104
_cell_length_a 8.944309
_cell_length_b 22.870725
_cell_length_c 27.762935
_cell_angle_alpha 90.000000
_cell_angle_beta 90.000000
_cell_angle_gamma 90.000000
_cell_volume 5679.264593
_symmetry_space_group_name_H-M "I M M M"
_symmetry_group_IT_number 71
_symmetry_cell_setting 'orthorhombic'
loop_
_space_group_symop_operation_xyz
x,y,z
-x,-y,z
x,-y,-z
-x,y,-z
-x,-y,-z
x,y,-z
-x,y,z
x,-y,z
1/2+x,1/2+y,1/2+z
1/2-x,1/2-y,1/2+z
1/2+x,1/2-y,1/2-z
1/2-x,1/2+y,1/2-z
1/2-x,1/2-y,1/2-z
1/2+x,1/2+y,1/2-z
1/2-x,1/2+y,1/2+z
1/2+x,1/2-y,1/2+z
loop_
_atom_site_type_symbol
_atom_site_label
_atom_site_fract_x
_atom_site_fract_y
_atom_site_fract_z
Si Si1 0.825142 0.141367 0.683220
Si Si2 0.177234 0.756565 0.197435
Si Si3 0.326581 0.565718 0.907557
Si Si4 0.829652 0.566398 0.260932
Si Si5 0.171239 0.364611 0.645788
Si Si6 0.822496 0.565833 0.553961
Si Si7 0.668531 0.069682 0.500000
O O1 0.729779 0.198499 0.669894
O O2 0.784958 0.096997 0.641349
O O3 0.776244 0.111712 0.733171
O O4 0.000000 0.156847 0.686515
O O5 0.250000 0.750000 0.250000
O O6 0.231100 0.811397 0.166092
O O7 0.000000 0.759586 0.203275
O O8 0.500000 0.568045 0.919315
O O9 0.268519 0.500000 0.900806
O O10 0.244525 0.596364 0.952420
O O11 0.773729 0.500000 0.253271
O O12 0.819795 0.581250 0.317324
O O13 0.000000 0.573722 0.242521
O O14 0.236469 0.388517 0.594604
O O15 0.000000 0.342948 0.640320
O O16 0.773715 0.586518 0.500000
O O17 0.760606 0.500000 0.563335
O O18 0.000000 0.563920 0.557704
O O19 0.500000 0.090505 0.500000
O O20 0.689216 0.000000 0.500000
#
# Coordination Sequence:
#
# PCOD8289286 Si02
#       7
#    16  16  16  16  16  16   8
#     4  11  22  36  55  78 105 140 181 225 270 319
#     4  12  24  39  57  77 103 140 184 227 272 323
#     4   9  18  33  53  77 106 138 171 212 265 319
#     4  10  20  32  49  77 112 146 177 216 268 322
#     4  10  19  33  55  81 111 146 186 227 269 321
#     4   8  14  27  52  87 121 149 181 225 274 324
#     4   9  17  29  49  77 105 135 171 209 252 307
#
# _framework density 18.312231000000001
#
# number of rings (size 3 to 8) (size 9 to 14) (size 15 to 20)
#    0.000    2.077    1.538    3.462    0.000    4.923 
#    0.000    1.538    1.692    1.846    0.000    1.077 
#    0.000    0.000    0.000    0.000    0.000    0.000 
#
# Total GULP energy -644647.166381 kJ/mol
# GULP energy per Si atom -12397.060892 kJ/mol
# Density = 1.827055 g / cm^3
# Si number density = 18.312231 Si / 1000 Ang^3
#
#
#
# Elastic Constant Matrix: (Units=GPa)
#
#
# Indices 1 2 3 4 5 6 
#
# 1 75.2238 41.1848 46.6399 0.0000 0.0000 0.0000
# 2 41.1848 102.8309 50.9371 0.0000 0.0000 0.0000
# 3 46.6399 50.9371 134.6824 0.0000 0.0000 0.0000
# 4 0.0000 0.0000 0.0000 19.8246 0.0000 0.0000
# 5 0.0000 0.0000 0.0000 0.0000 21.4218 0.0000
# 6 0.0000 0.0000 0.0000 0.0000 0.0000 26.0576
#
#
#
# Elastic Compliance Matrix: (Units=1/GPa)
#
#
# Indices 1 2 3 4 5 6 
#
# 1 0.019070 -0.005373 -0.004572 0.000000 0.000000 0.000000
# 2 -0.005373 0.013480 -0.003238 0.000000 0.000000 0.000000
# 3 -0.004572 -0.003238 0.010233 0.000000 0.000000 0.000000
# 4 0.000000 0.000000 0.000000 0.050442 0.000000 0.000000
# 5 0.000000 0.000000 0.000000 0.000000 0.046681 0.000000
# 6 0.000000 0.000000 0.000000 0.000000 0.000000 0.038377
#
#
# Mechanical properties :
#
#
# Convention : Reuss Voigt Hill
#
# Bulk Modulus (GPa) = 60.90886 65.58454 63.24670
# Shear Modulus (GPa) = 23.79583 25.05916 24.42749
#
# Velocity S-wave (km/s) = 3.60870 3.70325 3.65628
# Velocity P-wave (km/s) = 7.12019 7.36056 7.24137
#
# Compressibility (1/GPa) = 0.01641797
#
# Stress axis : x y z
#
# Youngs Moduli (GPa) = 52.43849 74.18153 97.72765
#
# Poissons Ratio (x) = 0.39859 0.44678
# Poissons Ratio (y) = 0.28176 0.31641
# Poissons Ratio (z) = 0.23973 0.24017
#
# Static dielectric constant tensor:
#      x y z
#    x 3.207620 0.000000 0.000000 
#    y 0.000000 3.539300 0.000000 
#    z 0.000000 0.000000 3.554680 
# 
# 
# High freq. dielectric constant tensor:
#      x y z
#    x 1.692060 0.000000 0.000000 
#    y 0.000000 1.697150 0.000000 
#    z 0.000000 0.000000 1.713380 
# 
# From -- ./inp_files/63561.got.cif
#   From: 2010.06.25/outbox.cif.g09.slc.cpg/sg71_32_cif.got.tgz:63561.got - 2010.06.28 04:59:45.
