data_PCOD8289443
_publ_section_title
;
Structure prediction by ZEFSAII (Michael W. Deem and Ramdas Pophale) SiO2 
 PCOD8289443
Probable space group: I M M M
;
_chemical_formula_sum "Si O2"
_cell_formula_units_Z 80
_cell_length_a 16.697071
_cell_length_b 12.017918
_cell_length_c 20.045365
_cell_angle_alpha 90.000000
_cell_angle_beta 90.000000
_cell_angle_gamma 90.000000
_cell_volume 4022.383726
_symmetry_space_group_name_H-M "I M M M"
_symmetry_group_IT_number 71
_symmetry_cell_setting 'orthorhombic'
loop_
_space_group_symop_operation_xyz
x,y,z
-x,-y,z
x,-y,-z
-x,y,-z
-x,-y,-z
x,y,-z
-x,y,z
x,-y,z
1/2+x,1/2+y,1/2+z
1/2-x,1/2-y,1/2+z
1/2+x,1/2-y,1/2-z
1/2-x,1/2+y,1/2-z
1/2-x,1/2-y,1/2-z
1/2+x,1/2+y,1/2-z
1/2-x,1/2+y,1/2+z
1/2+x,1/2-y,1/2+z
loop_
_atom_site_type_symbol
_atom_site_label
_atom_site_fract_x
_atom_site_fract_y
_atom_site_fract_z
Si Si1 0.682355 0.705941 0.893575
Si Si2 0.410321 0.745094 0.500000
Si Si3 0.590693 0.500000 0.748873
Si Si4 0.843498 0.231325 0.750110
Si Si5 0.255000 0.130563 0.000000
Si Si6 0.358856 0.872001 0.629811
Si Si7 0.910685 0.000000 0.592603
O O1 0.631304 0.744244 0.827822
O O2 0.702230 0.815193 0.936032
O O3 0.763799 0.643235 0.873928
O O4 0.631792 0.612896 0.934078
O O5 0.500000 0.691909 0.500000
O O6 0.340901 0.651301 0.500000
O O7 0.402007 0.820098 0.565778
O O8 0.500000 0.500000 0.722045
O O9 0.636185 0.608486 0.721638
O O10 0.593304 0.500000 0.828158
O O11 0.750000 0.250000 0.750000
O O12 0.888234 0.316177 0.800330
O O13 0.271815 0.000000 0.000000
O O14 0.382841 0.000000 0.632657
O O15 0.000000 0.000000 0.564257
#
# Coordination Sequence:
#
# PCOD8289443 Si02
#       7
#    16   8   8  16   8  16   8
#     4   9  18  35  54  82 117 144 186 243 279 338
#     4  10  23  41  56  80 113 150 197 245 286 337
#     4   9  18  34  53  79 118 149 179 231 295 345
#     4   9  19  32  55  84 111 147 194 240 286 342
#     4  10  22  39  60  83 112 156 191 227 292 345
#     4  10  19  34  56  80 110 150 192 241 293 336
#     4   9  16  31  60  87 109 140 178 229 289 332
#
# _framework density 19.888703
#
# number of rings (size 3 to 8) (size 9 to 14) (size 15 to 20)
#    0.000    2.600    1.000    0.300    4.200    3.000 
#   14.400    1.000    0.000    1.200    0.000    5.600 
#    0.000    0.000    0.000    0.000    0.000    0.000 
#
# Total GULP energy -495654.735392 kJ/mol
# GULP energy per Si atom -12391.368385 kJ/mol
# Density = 1.984344 g / cm^3
# Si number density = 19.888703 Si / 1000 Ang^3
#
#
#
# Elastic Constant Matrix: (Units=GPa)
#
#
# Indices 1 2 3 4 5 6 
#
# 1 93.0405 49.3854 17.6939 0.0000 0.0000 0.0000
# 2 49.3854 166.2831 52.1892 0.0000 0.0000 0.0000
# 3 17.6939 52.1892 116.6919 0.0000 0.0000 0.0000
# 4 0.0000 0.0000 0.0000 22.1035 0.0000 0.0000
# 5 0.0000 0.0000 0.0000 0.0000 7.8530 0.0000
# 6 0.0000 0.0000 0.0000 0.0000 0.0000 22.4693
#
#
#
# Elastic Compliance Matrix: (Units=1/GPa)
#
#
# Indices 1 2 3 4 5 6 
#
# 1 0.012767 -0.003704 -0.000279 0.000000 0.000000 0.000000
# 2 -0.003704 0.008071 -0.003048 0.000000 0.000000 0.000000
# 3 -0.000279 -0.003048 0.009975 0.000000 0.000000 0.000000
# 4 0.000000 0.000000 0.000000 0.045242 0.000000 0.000000
# 5 0.000000 0.000000 0.000000 0.000000 0.127340 0.000000
# 6 0.000000 0.000000 0.000000 0.000000 0.000000 0.044505
#
#
# Mechanical properties :
#
#
# Convention : Reuss Voigt Hill
#
# Bulk Modulus (GPa) = 59.70014 68.28362 63.99188
# Shear Modulus (GPa) = 18.68840 27.60161 23.14500
#
# Velocity S-wave (km/s) = 3.06869 3.72936 3.41504
# Velocity P-wave (km/s) = 6.52979 7.27679 6.91338
#
# Compressibility (1/GPa) = 0.01675038
#
# Stress axis : x y z
#
# Youngs Moduli (GPa) = 78.32526 123.90740 100.25056
#
# Poissons Ratio (x) = 0.45898 0.02799
# Poissons Ratio (y) = 0.29013 0.30554
# Poissons Ratio (z) = 0.02187 0.37764
#
# Static dielectric constant tensor:
#      x y z
#    x 3.493670 0.000000 0.000000 
#    y 0.000000 3.879420 0.000000 
#    z 0.000000 0.000000 4.048730 
# 
# 
# High freq. dielectric constant tensor:
#      x y z
#    x 1.753480 0.000000 0.000000 
#    y 0.000000 1.763250 0.000000 
#    z 0.000000 0.000000 1.781390 
# 
# From -- ./inp_files/53931.got.cif
#   From: 2010.06.25/outbox.cif.g09.slc.cpg/sg71_27_cif.got.tgz:53931.got - 2010.06.28 04:59:45.
