data_PCOD8289873
_publ_section_title
;
Structure prediction by ZEFSAII (Michael W. Deem and Ramdas Pophale) SiO2 
 PCOD8289873
Probable space group: I M M M
;
_chemical_formula_sum "Si O2"
_cell_formula_units_Z 104
_cell_length_a 15.571804
_cell_length_b 14.064019
_cell_length_c 25.375337
_cell_angle_alpha 90.000000
_cell_angle_beta 90.000000
_cell_angle_gamma 90.000000
_cell_volume 5557.253292
_symmetry_space_group_name_H-M "I M M M"
_symmetry_group_IT_number 71
_symmetry_cell_setting 'orthorhombic'
loop_
_space_group_symop_operation_xyz
x,y,z
-x,-y,z
x,-y,-z
-x,y,-z
-x,-y,-z
x,y,-z
-x,y,z
x,-y,z
1/2+x,1/2+y,1/2+z
1/2-x,1/2-y,1/2+z
1/2+x,1/2-y,1/2-z
1/2-x,1/2+y,1/2-z
1/2-x,1/2-y,1/2-z
1/2+x,1/2+y,1/2-z
1/2-x,1/2+y,1/2+z
1/2+x,1/2-y,1/2+z
loop_
_atom_site_type_symbol
_atom_site_label
_atom_site_fract_x
_atom_site_fract_y
_atom_site_fract_z
Si Si1 0.836994 0.610914 0.940333
Si Si2 0.404472 0.892053 0.757578
Si Si3 0.595603 0.232168 0.653846
Si Si4 0.500000 0.388256 0.058977
Si Si5 0.236710 0.285026 0.308217
Si Si6 0.830397 0.798810 0.596091
Si Si7 0.597153 0.894326 0.062319
O O1 0.840616 0.500000 0.924065
O O2 0.893923 0.673432 0.900368
O O3 0.738980 0.647920 0.939958
O O4 0.872081 0.624037 0.000000
O O5 0.500000 0.872034 0.780699
O O6 0.391530 0.837114 0.703138
O O7 0.334815 0.867993 0.803479
O O8 0.392114 0.000000 0.741734
O O9 0.500000 0.278380 0.653647
O O10 0.671345 0.311791 0.663038
O O11 0.500000 0.500000 0.055565
O O12 0.418518 0.353730 0.090855
O O13 0.500000 0.343567 0.000000
O O14 0.250000 0.250000 0.250000
O O15 0.198365 0.197773 0.342777
O O16 0.837644 0.686363 0.582550
O O17 0.500000 0.870182 0.080908
O O18 0.623585 0.000000 0.083227
O O19 0.600900 0.894525 0.000000
#
# Coordination Sequence:
#
# PCOD8289873 Si02
#       7
#    16  16  16   8  16  16  16
#     4  10  20  32  48  73 104 136 173 217 263 313
#     4   9  17  30  52  79 105 131 165 212 267 325
#     4   9  18  34  53  73  98 136 177 215 265 318
#     4  11  22  34  51  77 109 149 190 218 254 327
#     4   9  20  35  50  74  99 135 174 221 272 313
#     4  11  20  32  51  71 104 142 180 217 264 321
#     4   9  17  29  46  71 103 135 167 206 255 311
#
# _framework density 18.714279999999999
#
# number of rings (size 3 to 8) (size 9 to 14) (size 15 to 20)
#    0.000    2.385    0.769    2.769    1.077    3.077 
#    0.000    3.077    0.000    0.462    0.000    0.000 
#    0.000    0.000    0.000   16.308    0.000    0.154 
#
# Total GULP energy -644227.812785 kJ/mol
# GULP energy per Si atom -12388.996400 kJ/mol
# Density = 1.867169 g / cm^3
# Si number density = 18.714280 Si / 1000 Ang^3
#
#
#
# Elastic Constant Matrix: (Units=GPa)
#
#
# Indices 1 2 3 4 5 6 
#
# 1 137.5369 25.5496 37.8324 0.0000 0.0000 0.0000
# 2 25.5496 51.4211 15.8153 0.0000 0.0000 0.0000
# 3 37.8324 15.8153 82.1068 0.0000 0.0000 0.0000
# 4 0.0000 0.0000 0.0000 20.0399 0.0000 0.0000
# 5 0.0000 0.0000 0.0000 0.0000 34.7011 0.0000
# 6 0.0000 0.0000 0.0000 0.0000 0.0000 21.2578
#
#
#
# Elastic Compliance Matrix: (Units=1/GPa)
#
#
# Indices 1 2 3 4 5 6 
#
# 1 0.008833 -0.003335 -0.003428 0.000000 0.000000 0.000000
# 2 -0.003335 0.021931 -0.002688 0.000000 0.000000 0.000000
# 3 -0.003428 -0.002688 0.014276 0.000000 0.000000 0.000000
# 4 0.000000 0.000000 0.000000 0.049900 0.000000 0.000000
# 5 0.000000 0.000000 0.000000 0.000000 0.028818 0.000000
# 6 0.000000 0.000000 0.000000 0.000000 0.000000 0.047042
#
#
# Mechanical properties :
#
#
# Convention : Reuss Voigt Hill
#
# Bulk Modulus (GPa) = 38.25555 47.71772 42.98664
# Shear Modulus (GPa) = 25.19989 27.99092 26.59540
#
# Velocity S-wave (km/s) = 3.67353 3.87162 3.77388
# Velocity P-wave (km/s) = 6.20317 6.74828 6.48146
#
# Compressibility (1/GPa) = 0.02614000
#
# Stress axis : x y z
#
# Youngs Moduli (GPa) = 113.21044 45.59787 70.04587
#
# Poissons Ratio (x) = 0.15205 0.24010
# Poissons Ratio (y) = 0.37752 0.18827
# Poissons Ratio (z) = 0.38805 0.12256
#
# Static dielectric constant tensor:
#      x y z
#    x 4.871120 0.000000 0.000000 
#    y 0.000000 3.423900 0.000000 
#    z 0.000000 0.000000 3.490410 
# 
# 
# High freq. dielectric constant tensor:
#      x y z
#    x 1.732190 0.000000 0.000000 
#    y 0.000000 1.692250 0.000000 
#    z 0.000000 0.000000 1.734710 
# 
# From -- ./inp_files/59930.got.cif
#   From: 2010.06.25/outbox.cif.g09.slc.cpg/sg71_30_cif.got.tgz:59930.got - 2010.06.28 04:59:45.
