data_PCOD8289002
_publ_section_title
;
Structure prediction by ZEFSAII (Michael W. Deem and Ramdas Pophale) SiO2 
 PCOD8289002
Probable space group: I M M M
;
_chemical_formula_sum "Si O2"
_cell_formula_units_Z 96
_cell_length_a 24.969490
_cell_length_b 24.555193
_cell_length_c 8.545005
_cell_angle_alpha 90.000000
_cell_angle_beta 90.000000
_cell_angle_gamma 90.000000
_cell_volume 5239.204436
_symmetry_space_group_name_H-M "I M M M"
_symmetry_group_IT_number 71
_symmetry_cell_setting 'orthorhombic'
loop_
_space_group_symop_operation_xyz
x,y,z
-x,-y,z
x,-y,-z
-x,y,-z
-x,-y,-z
x,y,-z
-x,y,z
x,-y,z
1/2+x,1/2+y,1/2+z
1/2-x,1/2-y,1/2+z
1/2+x,1/2-y,1/2-z
1/2-x,1/2+y,1/2-z
1/2-x,1/2-y,1/2-z
1/2+x,1/2+y,1/2-z
1/2-x,1/2+y,1/2+z
1/2+x,1/2-y,1/2+z
loop_
_atom_site_type_symbol
_atom_site_label
_atom_site_fract_x
_atom_site_fract_y
_atom_site_fract_z
Si Si1 0.107968 0.102652 0.816649
Si Si2 0.225841 0.500000 0.679141
Si Si3 0.164149 0.000000 0.319717
Si Si4 0.313452 0.301771 0.315974
Si Si5 0.500000 0.562333 0.816444
Si Si6 0.308182 0.185755 0.818327
Si Si7 0.441251 0.000000 0.316562
Si Si8 0.147715 0.417743 0.182785
O O1 0.143225 0.051913 0.770091
O O2 0.140801 0.155972 0.762560
O O3 0.050684 0.097972 0.734774
O O4 0.098261 0.103648 0.000000
O O5 0.246610 0.500000 0.500000
O O6 0.272585 0.500000 0.805841
O O7 0.192359 0.554187 0.710299
O O8 0.145318 0.000000 0.500000
O O9 0.315640 0.289639 0.500000
O O10 0.325563 0.246810 0.222732
O O11 0.254182 0.324173 0.271694
O O12 0.500000 0.500000 0.745710
O O13 0.500000 0.556649 0.000000
O O14 0.347944 0.146149 0.721338
O O15 0.317724 0.175047 0.000000
O O16 0.409132 0.944904 0.268568
O O17 0.500000 0.000000 0.234706
O O18 0.449585 0.000000 0.500000
O O19 0.158563 0.428770 0.000000
#
# Coordination Sequence:
#
# PCOD8289002 Si02
#       8
#    16   8   8  16   8  16   8  16
#     4  11  22  37  58  80 105 141 185 230 274 323
#     4  11  21  33  49  75 111 145 178 216 266 326
#     4  12  23  34  51  78 111 142 176 219 271 328
#     4   9  20  36  54  79 108 140 180 221 262 316
#     4  11  23  39  57  79 108 142 182 231 282 331
#     4  10  19  33  55  81 112 146 176 213 265 323
#     4   8  16  32  54  79 104 135 178 220 263 310
#     4  10  19  32  53  79 108 141 177 221 268 320
#
# _framework density 18.323392999999999
#
# number of rings (size 3 to 8) (size 9 to 14) (size 15 to 20)
#    0.000    1.833    0.833    4.750    0.000    3.667 
#    0.000    0.000    1.833    9.000    0.000    0.000 
#    0.000    0.000    0.000    0.000    0.000    0.000 
#
# Total GULP energy -595143.329281 kJ/mol
# GULP energy per Si atom -12398.819360 kJ/mol
# Density = 1.828169 g / cm^3
# Si number density = 18.323393 Si / 1000 Ang^3
#
#
#
# Elastic Constant Matrix: (Units=GPa)
#
#
# Indices 1 2 3 4 5 6 
#
# 1 133.9188 69.6659 25.2997 0.0000 0.0000 0.0000
# 2 69.6659 119.9853 35.4404 0.0000 0.0000 0.0000
# 3 25.2997 35.4404 49.9934 0.0000 0.0000 0.0000
# 4 0.0000 0.0000 0.0000 29.9122 0.0000 0.0000
# 5 0.0000 0.0000 0.0000 0.0000 23.8398 0.0000
# 6 0.0000 0.0000 0.0000 0.0000 0.0000 33.4294
#
#
#
# Elastic Compliance Matrix: (Units=1/GPa)
#
#
# Indices 1 2 3 4 5 6 
#
# 1 0.010764 -0.005870 -0.001286 0.000000 0.000000 0.000000
# 2 -0.005870 0.013743 -0.006772 0.000000 0.000000 0.000000
# 3 -0.001286 -0.006772 0.025454 0.000000 0.000000 0.000000
# 4 0.000000 0.000000 0.000000 0.033431 0.000000 0.000000
# 5 0.000000 0.000000 0.000000 0.000000 0.041947 0.000000
# 6 0.000000 0.000000 0.000000 0.000000 0.000000 0.029914
#
#
# Mechanical properties :
#
#
# Convention : Reuss Voigt Hill
#
# Bulk Modulus (GPa) = 45.23805 62.74549 53.99177
# Shear Modulus (GPa) = 26.25012 29.00237 27.62624
#
# Velocity S-wave (km/s) = 3.78908 3.98276 3.88713
# Velocity P-wave (km/s) = 6.62458 7.44766 7.04815
#
# Compressibility (1/GPa) = 0.02210529
#
# Stress axis : x y z
#
# Youngs Moduli (GPa) = 92.90518 72.76627 39.28665
#
# Poissons Ratio (x) = 0.42712 0.05052
# Poissons Ratio (y) = 0.54533 0.26604
# Poissons Ratio (z) = 0.11948 0.49275
#
# Static dielectric constant tensor:
#      x y z
#    x 3.520830 0.000000 0.000000 
#    y 0.000000 3.388660 0.000000 
#    z 0.000000 0.000000 3.279500 
# 
# 
# High freq. dielectric constant tensor:
#      x y z
#    x 1.697770 0.000000 0.000000 
#    y 0.000000 1.709250 0.000000 
#    z 0.000000 0.000000 1.711610 
# 
# From -- ./inp_files/12965.got.cif
#   From: 2010.06.25/outbox.cif.g09.slc.cpg/sg71_7_cif.got.tgz:12965.got - 2010.06.28 04:59:45.
