data_PCOD8289260
_publ_section_title
;
Structure prediction by ZEFSAII (Michael W. Deem and Ramdas Pophale) SiO2 
 PCOD8289260
Probable space group: I M M M
;
_chemical_formula_sum "Si O2"
_cell_formula_units_Z 112
_cell_length_a 25.396235
_cell_length_b 14.403113
_cell_length_c 14.996202
_cell_angle_alpha 90.000000
_cell_angle_beta 90.000000
_cell_angle_gamma 90.000000
_cell_volume 5485.383386
_symmetry_space_group_name_H-M "I M M M"
_symmetry_group_IT_number 71
_symmetry_cell_setting 'orthorhombic'
loop_
_space_group_symop_operation_xyz
x,y,z
-x,-y,z
x,-y,-z
-x,y,-z
-x,-y,-z
x,y,-z
-x,y,z
x,-y,z
1/2+x,1/2+y,1/2+z
1/2-x,1/2-y,1/2+z
1/2+x,1/2-y,1/2-z
1/2-x,1/2+y,1/2-z
1/2-x,1/2-y,1/2-z
1/2+x,1/2+y,1/2-z
1/2-x,1/2+y,1/2+z
1/2+x,1/2-y,1/2+z
loop_
_atom_site_type_symbol
_atom_site_label
_atom_site_fract_x
_atom_site_fract_y
_atom_site_fract_z
Si Si1 0.059600 0.294274 0.400927
Si Si2 0.160690 0.602732 0.637042
Si Si3 0.257386 0.725129 0.599098
Si Si4 0.143118 0.107737 0.103879
Si Si5 0.195391 0.601635 0.834394
Si Si6 0.585845 0.105831 0.599605
Si Si7 0.058627 0.221272 0.212632
O O1 0.064658 0.247049 0.500000
O O2 0.101547 0.377644 0.395580
O O3 0.072053 0.224032 0.318910
O O4 0.000000 0.333287 0.388738
O O5 0.176414 0.500000 0.602404
O O6 0.200236 0.679335 0.598549
O O7 0.163470 0.607739 0.742816
O O8 0.270310 0.758857 0.500000
O O9 0.300738 0.650925 0.631629
O O10 0.260167 0.818255 0.659950
O O11 0.098193 0.152821 0.163678
O O12 0.146294 0.000000 0.126839
O O13 0.130059 0.124913 0.000000
O O14 0.222195 0.500000 0.846208
O O15 0.149310 0.619042 0.906100
O O16 0.564233 0.126456 0.500000
O O17 0.560143 0.175714 0.670207
O O18 0.572013 0.000000 0.628299
O O19 0.000000 0.181067 0.199695
#
# Coordination Sequence:
#
# PCOD8289260 Si02
#       7
#    16  16  16  16  16  16  16
#     4  10  22  40  61  84 113 152 196 244 298 350
#     4  11  22  37  58  85 116 152 197 243 289 345
#     4  11  21  35  57  84 117 154 193 240 289 342
#     4  10  21  37  57  85 122 161 197 234 288 353
#     4  10  20  35  57  85 116 153 194 237 288 346
#     4  10  19  33  54  81 114 150 189 231 282 348
#     4  11  22  37  58  84 115 152 198 245 288 342
#
# _framework density 20.417898999999998
#
# number of rings (size 3 to 8) (size 9 to 14) (size 15 to 20)
#    0.000    1.571    2.857    2.143    0.000    4.571 
#    0.000    3.571    0.000    0.429    0.000    2.000 
#    0.000    0.000    0.000    0.000    0.000    0.143 
#
# Total GULP energy -694135.109365 kJ/mol
# GULP energy per Si atom -12395.269810 kJ/mol
# Density = 2.037143 g / cm^3
# Si number density = 20.417899 Si / 1000 Ang^3
#
#
#
# Elastic Constant Matrix: (Units=GPa)
#
#
# Indices 1 2 3 4 5 6 
#
# 1 110.3652 57.7629 30.1140 0.0000 0.0000 0.0000
# 2 57.7629 124.2129 49.6577 0.0000 0.0000 0.0000
# 3 30.1140 49.6577 104.5172 0.0000 0.0000 0.0000
# 4 0.0000 0.0000 0.0000 21.4565 0.0000 0.0000
# 5 0.0000 0.0000 0.0000 0.0000 17.9101 0.0000
# 6 0.0000 0.0000 0.0000 0.0000 0.0000 16.4687
#
#
#
# Elastic Compliance Matrix: (Units=1/GPa)
#
#
# Indices 1 2 3 4 5 6 
#
# 1 0.012060 -0.005208 -0.001000 0.000000 0.000000 0.000000
# 2 -0.005208 0.012188 -0.004290 0.000000 0.000000 0.000000
# 3 -0.001000 -0.004290 0.011894 0.000000 0.000000 0.000000
# 4 0.000000 0.000000 0.000000 0.046606 0.000000 0.000000
# 5 0.000000 0.000000 0.000000 0.000000 0.055835 0.000000
# 6 0.000000 0.000000 0.000000 0.000000 0.000000 0.060721
#
#
# Mechanical properties :
#
#
# Convention : Reuss Voigt Hill
#
# Bulk Modulus (GPa) = 66.02915 68.24049 67.13482
# Shear Modulus (GPa) = 22.18788 24.60443 23.39615
#
# Velocity S-wave (km/s) = 3.30007 3.47514 3.38874
# Velocity P-wave (km/s) = 6.85052 7.04248 6.94717
#
# Compressibility (1/GPa) = 0.01514483
#
# Stress axis : x y z
#
# Youngs Moduli (GPa) = 82.92132 82.04970 84.07464
#
# Poissons Ratio (x) = 0.42734 0.08409
# Poissons Ratio (y) = 0.43188 0.36068
# Poissons Ratio (z) = 0.08293 0.35199
#
# Static dielectric constant tensor:
#      x y z
#    x 3.571440 0.000000 0.000000 
#    y 0.000000 3.546530 0.000000 
#    z 0.000000 0.000000 3.928550 
# 
# 
# High freq. dielectric constant tensor:
#      x y z
#    x 1.790270 0.000000 0.000000 
#    y 0.000000 1.772230 0.000000 
#    z 0.000000 0.000000 1.811340 
# 
# From -- ./inp_files/34846.got.cif
#   From: 2010.06.25/outbox.cif.g09.slc.cpg/sg71_18_cif.got.tgz:34846.got - 2010.06.28 04:59:45.
