data_PCOD8289540
_publ_section_title
;
Structure prediction by ZEFSAII (Michael W. Deem and Ramdas Pophale) SiO2 
 PCOD8289540
Probable space group: I M M M
;
_chemical_formula_sum "Si O2"
_cell_formula_units_Z 104
_cell_length_a 32.758180
_cell_length_b 19.086781
_cell_length_c 9.109229
_cell_angle_alpha 90.000000
_cell_angle_beta 90.000000
_cell_angle_gamma 90.000000
_cell_volume 5695.529105
_symmetry_space_group_name_H-M "I M M M"
_symmetry_group_IT_number 71
_symmetry_cell_setting 'orthorhombic'
loop_
_space_group_symop_operation_xyz
x,y,z
-x,-y,z
x,-y,-z
-x,y,-z
-x,-y,-z
x,y,-z
-x,y,z
x,-y,z
1/2+x,1/2+y,1/2+z
1/2-x,1/2-y,1/2+z
1/2+x,1/2-y,1/2-z
1/2-x,1/2+y,1/2-z
1/2-x,1/2-y,1/2-z
1/2+x,1/2+y,1/2-z
1/2-x,1/2+y,1/2+z
1/2+x,1/2-y,1/2+z
loop_
_atom_site_type_symbol
_atom_site_label
_atom_site_fract_x
_atom_site_fract_y
_atom_site_fract_z
Si Si1 0.079437 0.920041 0.827243
Si Si2 0.118822 0.340806 0.826594
Si Si3 0.799150 0.417848 0.830948
Si Si4 0.736995 0.679222 0.674084
Si Si5 0.854955 0.188958 0.173317
Si Si6 0.000000 0.083299 0.335886
Si Si7 0.046670 0.580104 0.672341
O O1 0.116630 0.873478 0.768891
O O2 0.039552 0.889205 0.748907
O O3 0.088494 0.000000 0.781755
O O4 0.072513 0.913294 0.000000
O O5 0.156435 0.390729 0.782052
O O6 0.129784 0.263625 0.763773
O O7 0.077183 0.367852 0.754800
O O8 0.111904 0.340266 0.000000
O O9 0.797921 0.500000 0.805070
O O10 0.763932 0.384903 0.731271
O O11 0.790979 0.397141 0.000000
O O12 0.741840 0.685796 0.500000
O O13 0.750000 0.750000 0.750000
O O14 0.690316 0.667806 0.723016
O O15 0.856692 0.194875 0.000000
O O16 0.000000 0.113890 0.500000
O O17 0.000000 0.000000 0.335724
O O18 0.053677 0.588519 0.500000
O O19 0.055457 0.500000 0.720440
O O20 0.000000 0.600056 0.713448
#
# Coordination Sequence:
#
# PCOD8289540 Si02
#       7
#    16  16  16  16  16   8  16
#     4   9  17  32  55  79 102 135 179 221 262 310
#     4  10  19  35  56  78 107 143 182 222 268 320
#     4  10  21  37  57  83 114 146 183 229 276 322
#     4  11  21  37  59  80 109 147 185 225 274 330
#     4   9  19  35  55  78 106 140 178 222 268 317
#     4   9  17  31  51  75 105 137 168 211 264 315
#     4   9  19  36  55  76 107 143 176 218 271 321
#
# _framework density 18.259936
#
# number of rings (size 3 to 8) (size 9 to 14) (size 15 to 20)
#    0.000    2.385    1.538    1.615    0.000    3.692 
#    1.385    4.615    0.000    1.846    0.000    0.000 
#    0.000    0.000    0.000    0.000    0.000    0.000 
#
# Total GULP energy -644782.722180 kJ/mol
# GULP energy per Si atom -12399.667734 kJ/mol
# Density = 1.821838 g / cm^3
# Si number density = 18.259936 Si / 1000 Ang^3
#
#
#
# Elastic Constant Matrix: (Units=GPa)
#
#
# Indices 1 2 3 4 5 6 
#
# 1 177.0810 79.2937 57.6798 0.0000 0.0000 0.0000
# 2 79.2937 104.4944 40.5388 0.0000 0.0000 0.0000
# 3 57.6798 40.5388 55.2154 0.0000 0.0000 0.0000
# 4 0.0000 0.0000 0.0000 23.8511 0.0000 0.0000
# 5 0.0000 0.0000 0.0000 0.0000 32.2213 0.0000
# 6 0.0000 0.0000 0.0000 0.0000 0.0000 38.9543
#
#
#
# Elastic Compliance Matrix: (Units=1/GPa)
#
#
# Indices 1 2 3 4 5 6 
#
# 1 0.010146 -0.005016 -0.006916 0.000000 0.000000 0.000000
# 2 -0.005016 0.015861 -0.006405 0.000000 0.000000 0.000000
# 3 -0.006916 -0.006405 0.030038 0.000000 0.000000 0.000000
# 4 0.000000 0.000000 0.000000 0.041927 0.000000 0.000000
# 5 0.000000 0.000000 0.000000 0.000000 0.031035 0.000000
# 6 0.000000 0.000000 0.000000 0.000000 0.000000 0.025671
#
#
# Mechanical properties :
#
#
# Convention : Reuss Voigt Hill
#
# Bulk Modulus (GPa) = 51.62420 76.86838 64.24629
# Shear Modulus (GPa) = 25.27672 29.62389 27.45030
#
# Velocity S-wave (km/s) = 3.72462 4.03220 3.88146
# Velocity P-wave (km/s) = 6.84326 7.99164 7.43964
#
# Compressibility (1/GPa) = 0.01937076
#
# Stress axis : x y z
#
# Youngs Moduli (GPa) = 98.56167 63.04727 33.29067
#
# Poissons Ratio (x) = 0.31624 0.23024
# Poissons Ratio (y) = 0.49438 0.21324
# Poissons Ratio (z) = 0.68166 0.40384
#
# Static dielectric constant tensor:
#      x y z
#    x 3.216400 0.000000 0.000000 
#    y 0.000000 3.448100 0.000000 
#    z 0.000000 0.000000 3.239460 
# 
# 
# High freq. dielectric constant tensor:
#      x y z
#    x 1.720400 0.000000 0.000000 
#    y 0.000000 1.704330 0.000000 
#    z 0.000000 0.000000 1.689240 
# 
# From -- ./inp_files/15038.got.cif
#   From: 2010.06.25/outbox.cif.g09.slc.cpg/sg71_8_cif.got.tgz:15038.got - 2010.06.28 04:59:45.
