data_PCOD8289155
_publ_section_title
;
Structure prediction by ZEFSAII (Michael W. Deem and Ramdas Pophale) SiO2 
 PCOD8289155
Probable space group: I M M M
;
_chemical_formula_sum "Si O2"
_cell_formula_units_Z 120
_cell_length_a 26.923052
_cell_length_b 28.060375
_cell_length_c 9.056722
_cell_angle_alpha 90.000000
_cell_angle_beta 90.000000
_cell_angle_gamma 90.000000
_cell_volume 6842.090240
_symmetry_space_group_name_H-M "I M M M"
_symmetry_group_IT_number 71
_symmetry_cell_setting 'orthorhombic'
loop_
_space_group_symop_operation_xyz
x,y,z
-x,-y,z
x,-y,-z
-x,y,-z
-x,-y,-z
x,y,-z
-x,y,z
x,-y,z
1/2+x,1/2+y,1/2+z
1/2-x,1/2-y,1/2+z
1/2+x,1/2-y,1/2-z
1/2-x,1/2+y,1/2-z
1/2-x,1/2-y,1/2-z
1/2+x,1/2+y,1/2-z
1/2-x,1/2+y,1/2+z
1/2+x,1/2-y,1/2+z
loop_
_atom_site_type_symbol
_atom_site_label
_atom_site_fract_x
_atom_site_fract_y
_atom_site_fract_z
Si Si1 0.799214 0.398380 0.828874
Si Si2 0.500000 0.556494 0.333290
Si Si3 0.640477 0.195985 0.671719
Si Si4 0.384399 0.947701 0.171793
Si Si5 0.057137 0.643408 0.327941
Si Si6 0.099999 0.944797 0.325566
Si Si7 0.190580 0.879918 0.675009
Si Si8 0.298804 0.728326 0.175637
O O1 0.819220 0.345201 0.797844
O O2 0.831715 0.437363 0.746261
O O3 0.742749 0.402383 0.770702
O O4 0.802771 0.410432 0.000000
O O5 0.500000 0.500000 0.332434
O O6 0.500000 0.576622 0.500000
O O7 0.549534 0.574293 0.250033
O O8 0.638351 0.209697 0.500000
O O9 0.586273 0.180529 0.726606
O O10 0.654415 0.241346 0.769878
O O11 0.426479 0.909977 0.217882
O O12 0.403192 0.000000 0.220306
O O13 0.374024 0.945245 0.000000
O O14 0.068368 0.653080 0.500000
O O15 0.000000 0.649467 0.289566
O O16 0.093254 0.939059 0.500000
O O17 0.145009 0.911853 0.264003
O O18 0.111061 0.000000 0.284471
O O19 0.188926 0.880700 0.500000
O O20 0.189195 0.825295 0.729638
O O21 0.250000 0.750000 0.250000
O O22 0.291969 0.730792 0.000000
#
# Coordination Sequence:
#
# PCOD8289155 Si02
#       8
#    16   8  16  16  16  16  16  16
#     4   9  17  31  48  68  97 132 167 203 248 303
#     4   9  17  31  51  73  99 129 159 197 245 291
#     4  10  19  33  52  75 101 130 168 212 260 309
#     4   9  18  31  46  69 101 134 170 213 259 305
#     4   9  18  33  53  75  98 131 176 219 262 314
#     4   9  17  31  53  77  99 129 169 205 238 286
#     4   9  18  32  50  76 105 130 164 208 247 288
#     4  11  20  33  53  77 105 135 170 209 251 300
#
# _framework density 17.538501
#
# number of rings (size 3 to 8) (size 9 to 14) (size 15 to 20)
#    0.000    2.600    1.333    1.000    0.000    2.667 
#    0.000    4.667    1.467    1.600    0.000    3.733 
#    0.000    0.000    0.000    0.000    0.000    0.000 
#
# Total GULP energy -743870.832021 kJ/mol
# GULP energy per Si atom -12397.847200 kJ/mol
# Density = 1.749858 g / cm^3
# Si number density = 17.538501 Si / 1000 Ang^3
#
#
#
# Elastic Constant Matrix: (Units=GPa)
#
#
# Indices 1 2 3 4 5 6 
#
# 1 128.0273 46.9867 32.0781 0.0000 0.0000 0.0000
# 2 46.9867 80.7936 30.0662 0.0000 0.0000 0.0000
# 3 32.0781 30.0662 43.8772 0.0000 0.0000 0.0000
# 4 0.0000 0.0000 0.0000 20.3427 0.0000 0.0000
# 5 0.0000 0.0000 0.0000 0.0000 27.8867 0.0000
# 6 0.0000 0.0000 0.0000 0.0000 0.0000 19.9002
#
#
#
# Elastic Compliance Matrix: (Units=1/GPa)
#
#
# Indices 1 2 3 4 5 6 
#
# 1 0.010617 -0.004411 -0.004740 0.000000 0.000000 0.000000
# 2 -0.004411 0.018446 -0.009415 0.000000 0.000000 0.000000
# 3 -0.004740 -0.009415 0.032708 0.000000 0.000000 0.000000
# 4 0.000000 0.000000 0.000000 0.049158 0.000000 0.000000
# 5 0.000000 0.000000 0.000000 0.000000 0.035859 0.000000
# 6 0.000000 0.000000 0.000000 0.000000 0.000000 0.050251
#
#
# Mechanical properties :
#
#
# Convention : Reuss Voigt Hill
#
# Bulk Modulus (GPa) = 40.58518 52.32888 46.45703
# Shear Modulus (GPa) = 20.62849 23.19707 21.91278
#
# Velocity S-wave (km/s) = 3.43327 3.64075 3.53853
# Velocity P-wave (km/s) = 6.23758 6.89745 6.57579
#
# Compressibility (1/GPa) = 0.02463954
#
# Stress axis : x y z
#
# Youngs Moduli (GPa) = 94.18712 54.21199 30.57394
#
# Poissons Ratio (x) = 0.23912 0.14491
# Poissons Ratio (y) = 0.41544 0.28786
# Poissons Ratio (z) = 0.44641 0.51042
#
# Static dielectric constant tensor:
#      x y z
#    x 3.368260 0.000000 0.000000 
#    y 0.000000 3.371030 0.000000 
#    z 0.000000 0.000000 3.173050 
# 
# 
# High freq. dielectric constant tensor:
#      x y z
#    x 1.677830 0.000000 0.000000 
#    y 0.000000 1.664500 0.000000 
#    z 0.000000 0.000000 1.665570 
# 
# From -- ./inp_files/15636.got.cif
#   From: 2010.06.25/outbox.cif.g09.slc.cpg/sg71_8_cif.got.tgz:15636.got - 2010.06.28 04:59:45.
