data_PCOD8289570
_publ_section_title
;
Structure prediction by ZEFSAII (Michael W. Deem and Ramdas Pophale) SiO2 
 PCOD8289570
Probable space group: I M M M
;
_chemical_formula_sum "Si O2"
_cell_formula_units_Z 88
_cell_length_a 11.674470
_cell_length_b 13.931449
_cell_length_c 30.605378
_cell_angle_alpha 90.000000
_cell_angle_beta 90.000000
_cell_angle_gamma 90.000000
_cell_volume 4977.728562
_symmetry_space_group_name_H-M "I M M M"
_symmetry_group_IT_number 71
_symmetry_cell_setting 'orthorhombic'
loop_
_space_group_symop_operation_xyz
x,y,z
-x,-y,z
x,-y,-z
-x,y,-z
-x,-y,-z
x,y,-z
-x,y,z
x,-y,z
1/2+x,1/2+y,1/2+z
1/2-x,1/2-y,1/2+z
1/2+x,1/2-y,1/2-z
1/2-x,1/2+y,1/2-z
1/2-x,1/2-y,1/2-z
1/2+x,1/2+y,1/2-z
1/2-x,1/2+y,1/2+z
1/2+x,1/2-y,1/2+z
loop_
_atom_site_type_symbol
_atom_site_label
_atom_site_fract_x
_atom_site_fract_y
_atom_site_fract_z
Si Si1 0.726758 0.109416 0.836280
Si Si2 0.869813 0.608036 0.756634
Si Si3 0.500000 0.286576 0.947624
Si Si4 0.271876 0.386820 0.081055
Si Si5 0.000000 0.390080 0.609089
Si Si6 0.126364 0.614030 0.000000
Si Si7 0.133835 0.710386 0.844937
O O1 0.709802 0.127973 0.784858
O O2 0.610773 0.133438 0.861936
O O3 0.827668 0.179601 0.852476
O O4 0.765338 0.000000 0.845127
O O5 0.850646 0.500000 0.774265
O O6 0.840125 0.681590 0.795095
O O7 0.000000 0.621165 0.740843
O O8 0.607105 0.336551 0.924785
O O9 0.500000 0.174469 0.934614
O O10 0.500000 0.298957 0.000000
O O11 0.291321 0.500000 0.078779
O O12 0.210421 0.360144 0.126019
O O13 0.191025 0.348161 0.042524
O O14 0.000000 0.500000 0.593365
O O15 0.120094 0.500000 0.000000
O O16 0.000000 0.659373 0.000000
O O17 0.000000 0.698582 0.856672
#
# Coordination Sequence:
#
# PCOD8289570 Si02
#       7
#    16  16   8  16   8   8  16
#     4  10  19  35  58  79 105 143 189 235 278 330
#     4   9  17  31  53  80 108 144 187 229 276 332
#     4  12  23  39  62  87 113 142 181 239 299 340
#     4  11  22  36  55  81 112 145 183 225 274 337
#     4  10  20  38  63  86 106 141 189 234 281 334
#     4   9  18  33  53  75 103 143 182 212 253 321
#     4  11  22  34  52  81 114 150 187 230 278 330
#
# _framework density 17.678747000000001
#
# number of rings (size 3 to 8) (size 9 to 14) (size 15 to 20)
#    0.000    1.727    3.636    1.909    0.000    2.727 
#    0.000    0.000    0.000    0.000    0.000    0.000 
#    0.000    5.818    0.000    0.000    0.000    0.000 
#
# Total GULP energy -545618.330241 kJ/mol
# GULP energy per Si atom -12400.416596 kJ/mol
# Density = 1.763851 g / cm^3
# Si number density = 17.678747 Si / 1000 Ang^3
#
#
#
# Elastic Constant Matrix: (Units=GPa)
#
#
# Indices 1 2 3 4 5 6 
#
# 1 101.2842 37.1540 28.9922 0.0000 0.0000 0.0000
# 2 37.1540 90.3791 24.8795 0.0000 0.0000 0.0000
# 3 28.9922 24.8795 61.3190 0.0000 0.0000 0.0000
# 4 0.0000 0.0000 0.0000 25.2878 0.0000 0.0000
# 5 0.0000 0.0000 0.0000 0.0000 27.2396 0.0000
# 6 0.0000 0.0000 0.0000 0.0000 0.0000 23.2969
#
#
#
# Elastic Compliance Matrix: (Units=1/GPa)
#
#
# Indices 1 2 3 4 5 6 
#
# 1 0.012571 -0.003976 -0.004331 0.000000 0.000000 0.000000
# 2 -0.003976 0.013713 -0.003684 0.000000 0.000000 0.000000
# 3 -0.004331 -0.003684 0.019851 0.000000 0.000000 0.000000
# 4 0.000000 0.000000 0.000000 0.039545 0.000000 0.000000
# 5 0.000000 0.000000 0.000000 0.000000 0.036711 0.000000
# 6 0.000000 0.000000 0.000000 0.000000 0.000000 0.042924
#
#
# Mechanical properties :
#
#
# Convention : Reuss Voigt Hill
#
# Bulk Modulus (GPa) = 45.13922 48.33708 46.73815
# Shear Modulus (GPa) = 25.42190 25.96198 25.69194
#
# Velocity S-wave (km/s) = 3.79620 3.83631 3.81631
# Velocity P-wave (km/s) = 6.69353 6.85743 6.77597
#
# Compressibility (1/GPa) = 0.02215369
#
# Stress axis : x y z
#
# Youngs Moduli (GPa) = 79.54632 72.92311 50.37644
#
# Poissons Ratio (x) = 0.28993 0.21816
# Poissons Ratio (y) = 0.31626 0.18559
# Poissons Ratio (z) = 0.34449 0.26866
#
# Static dielectric constant tensor:
#      x y z
#    x 3.249990 0.000000 0.000000 
#    y 0.000000 3.208440 0.000000 
#    z 0.000000 0.000000 3.237090 
# 
# 
# High freq. dielectric constant tensor:
#      x y z
#    x 1.681330 0.000000 0.000000 
#    y 0.000000 1.677510 0.000000 
#    z 0.000000 0.000000 1.681800 
# 
# From -- ./inp_files/40848.got.cif
#   From: 2010.06.25/outbox.cif.g09.slc.cpg/sg71_21_cif.got.tgz:40848.got - 2010.06.28 04:59:45.
