data_PCOD8289828
_publ_section_title
;
Structure prediction by ZEFSAII (Michael W. Deem and Ramdas Pophale) SiO2 
 PCOD8289828
Probable space group: I M M M
;
_chemical_formula_sum "Si O2"
_cell_formula_units_Z 104
_cell_length_a 9.081356
_cell_length_b 23.945088
_cell_length_c 26.889400
_cell_angle_alpha 90.000000
_cell_angle_beta 90.000000
_cell_angle_gamma 90.000000
_cell_volume 5847.204054
_symmetry_space_group_name_H-M "I M M M"
_symmetry_group_IT_number 71
_symmetry_cell_setting 'orthorhombic'
loop_
_space_group_symop_operation_xyz
x,y,z
-x,-y,z
x,-y,-z
-x,y,-z
-x,-y,-z
x,y,-z
-x,y,z
x,-y,z
1/2+x,1/2+y,1/2+z
1/2-x,1/2-y,1/2+z
1/2+x,1/2-y,1/2-z
1/2-x,1/2+y,1/2-z
1/2-x,1/2-y,1/2-z
1/2+x,1/2+y,1/2-z
1/2-x,1/2+y,1/2+z
1/2+x,1/2-y,1/2+z
loop_
_atom_site_type_symbol
_atom_site_label
_atom_site_fract_x
_atom_site_fract_y
_atom_site_fract_z
Si Si1 0.165504 0.757993 0.942183
Si Si2 0.328108 0.064778 0.442890
Si Si3 0.173041 0.936314 0.899980
Si Si4 0.335358 0.737699 0.200203
Si Si5 0.675899 0.662324 0.889752
Si Si6 0.336172 0.065619 0.000000
Si Si7 0.666736 0.837599 0.126271
O O1 0.257027 0.701958 0.931833
O O2 0.246930 0.811047 0.919702
O O3 0.000000 0.752247 0.920192
O O4 0.158807 0.768283 0.000000
O O5 0.281390 0.078610 0.500000
O O6 0.500000 0.078129 0.436042
O O7 0.236910 0.100521 0.402072
O O8 0.295328 0.000000 0.431499
O O9 0.243750 0.916687 0.951904
O O10 0.249129 0.895489 0.859344
O O11 0.000000 0.926592 0.902542
O O12 0.210793 0.000000 0.886029
O O13 0.500000 0.721590 0.215403
O O14 0.250000 0.750000 0.250000
O O15 0.274342 0.687283 0.164579
O O16 0.328898 0.796278 0.172264
O O17 0.500000 0.663129 0.893332
O O18 0.500000 0.092982 0.000000
O O19 0.353763 0.000000 0.000000
O O20 0.500000 0.850859 0.110387
#
# Coordination Sequence:
#
# PCOD8289828 Si02
#       7
#    16  16  16  16  16   8  16
#     4  10  20  32  47  69  99 135 171 206 247 296
#     4   9  18  32  50  75 109 148 186 217 246 292
#     4  10  20  33  49  70  98 132 170 208 244 290
#     4   9  20  37  56  78 100 125 161 209 263 317
#     4  10  20  33  50  76 106 133 168 212 258 308
#     4   9  17  29  45  65  91 129 171 205 240 277
#     4  10  21  35  51  74 101 128 164 207 256 307
#
# _framework density 17.786277999999999
#
# number of rings (size 3 to 8) (size 9 to 14) (size 15 to 20)
#    0.000    2.385    0.000    3.923    1.077    9.231 
#    0.000    0.769    0.000    0.923    0.000    0.000 
#    0.000    0.000    0.000    0.000    0.000    0.000 
#
# Total GULP energy -644478.492723 kJ/mol
# GULP energy per Si atom -12393.817168 kJ/mol
# Density = 1.774580 g / cm^3
# Si number density = 17.786278 Si / 1000 Ang^3
#
#
#
# Elastic Constant Matrix: (Units=GPa)
#
#
# Indices 1 2 3 4 5 6 
#
# 1 114.2198 59.0548 46.0460 0.0000 0.0000 0.0000
# 2 59.0548 110.1877 39.4833 0.0000 0.0000 0.0000
# 3 46.0460 39.4833 78.4349 0.0000 0.0000 0.0000
# 4 0.0000 0.0000 0.0000 17.4157 0.0000 0.0000
# 5 0.0000 0.0000 0.0000 0.0000 27.3147 0.0000
# 6 0.0000 0.0000 0.0000 0.0000 0.0000 35.9930
#
#
#
# Elastic Compliance Matrix: (Units=1/GPa)
#
#
# Indices 1 2 3 4 5 6 
#
# 1 0.013711 -0.005446 -0.005307 0.000000 0.000000 0.000000
# 2 -0.005446 0.013236 -0.003466 0.000000 0.000000 0.000000
# 3 -0.005307 -0.003466 0.017610 0.000000 0.000000 0.000000
# 4 0.000000 0.000000 0.000000 0.057420 0.000000 0.000000
# 5 0.000000 0.000000 0.000000 0.000000 0.036610 0.000000
# 6 0.000000 0.000000 0.000000 0.000000 0.000000 0.027783
#
#
# Mechanical properties :
#
#
# Convention : Reuss Voigt Hill
#
# Bulk Modulus (GPa) = 62.04283 65.77896 63.91090
# Shear Modulus (GPa) = 24.97745 26.69522 25.83633
#
# Velocity S-wave (km/s) = 3.75148 3.87833 3.81543
# Velocity P-wave (km/s) = 7.32959 7.55768 7.44451
#
# Compressibility (1/GPa) = 0.01611790
#
# Stress axis : x y z
#
# Youngs Moduli (GPa) = 72.93669 75.55032 56.78704
#
# Poissons Ratio (x) = 0.41148 0.30138
# Poissons Ratio (y) = 0.39724 0.19680
# Poissons Ratio (z) = 0.38709 0.26183
#
# Static dielectric constant tensor:
#      x y z
#    x 3.484010 0.000000 0.000000 
#    y 0.000000 3.482130 0.000000 
#    z 0.000000 0.000000 3.026500 
# 
# 
# High freq. dielectric constant tensor:
#      x y z
#    x 1.701800 0.000000 0.000000 
#    y 0.000000 1.694440 0.000000 
#    z 0.000000 0.000000 1.648540 
# 
# From -- ./inp_files/63541.got.cif
#   From: 2010.06.25/outbox.cif.g09.slc.cpg/sg71_32_cif.got.tgz:63541.got - 2010.06.28 04:59:45.
