data_PCOD8289139
_publ_section_title
;
Structure prediction by ZEFSAII (Michael W. Deem and Ramdas Pophale) SiO2 
 PCOD8289139
Probable space group: I M M M
;
_chemical_formula_sum "Si O2"
_cell_formula_units_Z 120
_cell_length_a 27.773481
_cell_length_b 26.691396
_cell_length_c 9.262405
_cell_angle_alpha 90.000000
_cell_angle_beta 90.000000
_cell_angle_gamma 90.000000
_cell_volume 6866.341049
_symmetry_space_group_name_H-M "I M M M"
_symmetry_group_IT_number 71
_symmetry_cell_setting 'orthorhombic'
loop_
_space_group_symop_operation_xyz
x,y,z
-x,-y,z
x,-y,-z
-x,y,-z
-x,-y,-z
x,y,-z
-x,y,z
x,-y,z
1/2+x,1/2+y,1/2+z
1/2-x,1/2-y,1/2+z
1/2+x,1/2-y,1/2-z
1/2-x,1/2+y,1/2-z
1/2-x,1/2-y,1/2-z
1/2+x,1/2+y,1/2-z
1/2-x,1/2+y,1/2+z
1/2+x,1/2-y,1/2+z
loop_
_atom_site_type_symbol
_atom_site_label
_atom_site_fract_x
_atom_site_fract_y
_atom_site_fract_z
Si Si1 0.305700 0.944066 0.834376
Si Si2 0.355243 0.845187 0.833188
Si Si3 0.619911 0.409059 0.332514
Si Si4 0.607144 0.704496 0.664523
Si Si5 0.289514 0.558306 0.166106
Si Si6 0.053981 0.000000 0.171249
Si Si7 0.053322 0.713916 0.331251
Si Si8 0.701278 0.763564 0.330393
O O1 0.348845 0.904718 0.807320
O O2 0.261041 0.927421 0.737126
O O3 0.323934 0.000000 0.793134
O O4 0.288400 0.942521 0.000000
O O5 0.409859 0.830731 0.789583
O O6 0.317841 0.815918 0.732679
O O7 0.344892 0.830952 0.000000
O O8 0.632197 0.418713 0.500000
O O9 0.598113 0.354124 0.307688
O O10 0.668878 0.410915 0.243392
O O11 0.581896 0.450282 0.275039
O O12 0.596241 0.718855 0.500000
O O13 0.569052 0.733974 0.760662
O O14 0.662062 0.720146 0.701746
O O15 0.300735 0.500000 0.186737
O O16 0.287434 0.574205 0.000000
O O17 0.000000 0.000000 0.237286
O O18 0.050702 0.000000 0.000000
O O19 0.053329 0.723814 0.500000
O O20 0.000000 0.698656 0.276930
O O21 0.711417 0.769683 0.500000
O O22 0.750000 0.750000 0.250000
#
# Coordination Sequence:
#
# PCOD8289139 Si02
#       8
#    16  16  16  16  16   8  16  16
#     4   9  18  32  51  74 101 135 172 206 243 292
#     4   9  18  33  52  74 101 133 169 207 247 299
#     4  10  19  33  52  71  95 128 166 208 251 299
#     4   9  20  34  49  72  98 128 167 211 250 293
#     4  10  20  32  47  70 100 132 167 204 244 293
#     4   9  18  32  51  73  93 119 161 209 252 295
#     4   9  18  34  55  76  99 129 165 205 252 304
#     4  10  20  33  47  69 102 135 169 206 251 301
#
# _framework density 17.476557
#
# number of rings (size 3 to 8) (size 9 to 14) (size 15 to 20)
#    0.000    2.600    0.667    0.800    1.867    2.933 
#    0.000    1.333    0.000    1.200    0.000    2.800 
#    0.000    0.000    0.000   10.000    0.000   10.400 
#
# Total GULP energy -743966.771563 kJ/mol
# GULP energy per Si atom -12399.446193 kJ/mol
# Density = 1.743678 g / cm^3
# Si number density = 17.476557 Si / 1000 Ang^3
#
#
#
# Elastic Constant Matrix: (Units=GPa)
#
#
# Indices 1 2 3 4 5 6 
#
# 1 131.9068 69.6218 49.7671 0.0000 0.0000 0.0000
# 2 69.6218 112.8478 36.8523 0.0000 0.0000 0.0000
# 3 49.7671 36.8523 62.4082 0.0000 0.0000 0.0000
# 4 0.0000 0.0000 0.0000 23.0777 0.0000 0.0000
# 5 0.0000 0.0000 0.0000 0.0000 17.7876 0.0000
# 6 0.0000 0.0000 0.0000 0.0000 0.0000 18.7913
#
#
#
# Elastic Compliance Matrix: (Units=1/GPa)
#
#
# Indices 1 2 3 4 5 6 
#
# 1 0.013432 -0.005933 -0.007208 0.000000 0.000000 0.000000
# 2 -0.005933 0.013599 -0.003299 0.000000 0.000000 0.000000
# 3 -0.007208 -0.003299 0.023720 0.000000 0.000000 0.000000
# 4 0.000000 0.000000 0.000000 0.043332 0.000000 0.000000
# 5 0.000000 0.000000 0.000000 0.000000 0.056219 0.000000
# 6 0.000000 0.000000 0.000000 0.000000 0.000000 0.053216
#
#
# Mechanical properties :
#
#
# Convention : Reuss Voigt Hill
#
# Bulk Modulus (GPa) = 55.95716 68.84946 62.40331
# Shear Modulus (GPa) = 20.63090 21.99277 21.31183
#
# Velocity S-wave (km/s) = 3.43955 3.55126 3.49585
# Velocity P-wave (km/s) = 6.91823 7.50308 7.21658
#
# Compressibility (1/GPa) = 0.01787081
#
# Stress axis : x y z
#
# Youngs Moduli (GPa) = 74.44828 73.53289 42.15938
#
# Poissons Ratio (x) = 0.43628 0.30388
# Poissons Ratio (y) = 0.44171 0.13909
# Poissons Ratio (z) = 0.53661 0.24259
#
# Static dielectric constant tensor:
#      x y z
#    x 3.299570 0.000000 0.000000 
#    y 0.000000 3.293740 0.000000 
#    z 0.000000 0.000000 3.225340 
# 
# 
# High freq. dielectric constant tensor:
#      x y z
#    x 1.662880 0.000000 0.000000 
#    y 0.000000 1.671940 0.000000 
#    z 0.000000 0.000000 1.669600 
# 
# From -- ./inp_files/15667.got.cif
#   From: 2010.06.25/outbox.cif.g09.slc.cpg/sg71_8_cif.got.tgz:15667.got - 2010.06.28 04:59:45.
