data_PCOD8289715
_publ_section_title
;
Structure prediction by ZEFSAII (Michael W. Deem and Ramdas Pophale) SiO2 
 PCOD8289715
Probable space group: I M M M
;
_chemical_formula_sum "Si O2"
_cell_formula_units_Z 72
_cell_length_a 9.233622
_cell_length_b 27.673906
_cell_length_c 17.680586
_cell_angle_alpha 90.000000
_cell_angle_beta 90.000000
_cell_angle_gamma 90.000000
_cell_volume 4517.926988
_symmetry_space_group_name_H-M "I M M M"
_symmetry_group_IT_number 71
_symmetry_cell_setting 'orthorhombic'
loop_
_space_group_symop_operation_xyz
x,y,z
-x,-y,z
x,-y,-z
-x,y,-z
-x,-y,-z
x,y,-z
-x,y,z
x,-y,z
1/2+x,1/2+y,1/2+z
1/2-x,1/2-y,1/2+z
1/2+x,1/2-y,1/2-z
1/2-x,1/2+y,1/2-z
1/2-x,1/2-y,1/2-z
1/2+x,1/2+y,1/2-z
1/2-x,1/2+y,1/2+z
1/2+x,1/2-y,1/2+z
loop_
_atom_site_type_symbol
_atom_site_label
_atom_site_fract_x
_atom_site_fract_y
_atom_site_fract_z
Si Si1 0.332565 0.778424 0.814414
Si Si2 0.665245 0.863010 0.712571
Si Si3 0.832428 0.714360 0.085956
Si Si4 0.661442 0.056992 0.500000
Si Si5 0.830533 0.944366 0.351207
O O1 0.500000 0.763184 0.815267
O O2 0.250000 0.750000 0.750000
O O3 0.316778 0.835192 0.792964
O O4 0.258925 0.763049 0.893750
O O5 0.500000 0.880140 0.701784
O O6 0.711958 0.828955 0.642066
O O7 0.768787 0.910080 0.715160
O O8 0.000000 0.727554 0.096745
O O9 0.797344 0.698826 0.000000
O O10 0.500000 0.080660 0.500000
O O11 0.749108 0.073499 0.573433
O O12 0.647056 0.000000 0.500000
O O13 0.000000 0.936398 0.362805
O O14 0.796036 0.000000 0.331239
#
# Coordination Sequence:
#
# PCOD8289715 Si02
#       5
#    16  16  16   8  16
#     4   9  17  30  46  64  86 113 144 179 218 260
#     4   9  18  30  45  63  85 117 151 180 214 257
#     4   9  18  31  46  66  91 116 144 181 217 255
#     4   9  17  29  43  55  73 107 143 175 215 255
#     4  10  20  31  42  60  85 110 143 186 222 253
#
# _framework density 15.936512
#
# number of rings (size 3 to 8) (size 9 to 14) (size 15 to 20)
#    0.000    2.778    0.000    3.000    1.556    7.556 
#    0.000    0.000    0.000    0.000    0.000    0.000 
#    0.000    0.889    0.000    9.778    0.000    7.111 
#
# Total GULP energy -446177.130094 kJ/mol
# GULP energy per Si atom -12393.809169 kJ/mol
# Density = 1.590024 g / cm^3
# Si number density = 15.936512 Si / 1000 Ang^3
#
#
#
# Elastic Constant Matrix: (Units=GPa)
#
#
# Indices 1 2 3 4 5 6 
#
# 1 89.4863 47.5997 17.5941 -0.0001 0.0000 0.0000
# 2 47.5997 74.2866 21.8584 -0.0001 0.0000 0.0000
# 3 17.5941 21.8584 31.1379 -0.0004 0.0000 0.0000
# 4 -0.0001 -0.0001 -0.0004 22.0251 0.0000 0.0000
# 5 0.0000 0.0000 0.0000 0.0000 24.2443 0.0000
# 6 0.0000 0.0000 0.0000 0.0000 0.0000 28.7055
#
#
#
# Elastic Compliance Matrix: (Units=1/GPa)
#
#
# Indices 1 2 3 4 5 6 
#
# 1 0.017104 -0.010229 -0.002484 0.000000 0.000000 0.000000
# 2 -0.010229 0.023083 -0.010424 0.000000 0.000000 0.000000
# 3 -0.002484 -0.010424 0.040836 0.000001 0.000000 0.000000
# 4 0.000000 0.000000 0.000001 0.045403 0.000000 0.000000
# 5 0.000000 0.000000 0.000000 0.000000 0.041247 0.000000
# 6 0.000000 0.000000 0.000000 0.000000 0.000000 0.034837
#
#
# Mechanical properties :
#
#
# Convention : Reuss Voigt Hill
#
# Bulk Modulus (GPa) = 28.77750 41.00172 34.88961
# Shear Modulus (GPa) = 19.20369 22.18554 20.69462
#
# Velocity S-wave (km/s) = 3.47509 3.73516 3.60747
# Velocity P-wave (km/s) = 5.84795 6.66228 6.26835
#
# Compressibility (1/GPa) = 0.03474937
#
# Stress axis : x y z
#
# Youngs Moduli (GPa) = 58.46528 43.32237 24.48796
#
# Poissons Ratio (x) = 0.44313 0.06083
# Poissons Ratio (y) = 0.59802 0.25527
# Poissons Ratio (z) = 0.14523 0.45160
#
# Static dielectric constant tensor:
#      x y z
#    x 3.216850 0.000000 0.000000 
#    y 0.000000 3.107530 0.000000 
#    z 0.000000 0.000000 3.129390 
# 
# 
# High freq. dielectric constant tensor:
#      x y z
#    x 1.625890 0.000000 0.000000 
#    y 0.000000 1.596140 0.000000 
#    z 0.000000 0.000000 1.569010 
# 
# From -- ./inp_files/8165.got.cif
#   From: 2010.06.25/outbox.cif.g09.slc.cpg/sg71_5_cif.got.tgz:8165.got - 2010.06.28 04:59:45.
