data_PCOD8289975
_publ_section_title
;
Structure prediction by ZEFSAII (Michael W. Deem and Ramdas Pophale) SiO2 
 PCOD8289975
Probable space group: I M M M
;
_chemical_formula_sum "Si O2"
_cell_formula_units_Z 96
_cell_length_a 29.509670
_cell_length_b 27.611374
_cell_length_c 9.318054
_cell_angle_alpha 90.000000
_cell_angle_beta 90.000000
_cell_angle_gamma 90.000000
_cell_volume 7592.374020
_symmetry_space_group_name_H-M "I M M M"
_symmetry_group_IT_number 71
_symmetry_cell_setting 'orthorhombic'
loop_
_space_group_symop_operation_xyz
x,y,z
-x,-y,z
x,-y,-z
-x,y,-z
-x,-y,-z
x,y,-z
-x,y,z
x,-y,z
1/2+x,1/2+y,1/2+z
1/2-x,1/2-y,1/2+z
1/2+x,1/2-y,1/2-z
1/2-x,1/2+y,1/2-z
1/2-x,1/2-y,1/2-z
1/2+x,1/2+y,1/2-z
1/2-x,1/2+y,1/2+z
1/2+x,1/2-y,1/2+z
loop_
_atom_site_type_symbol
_atom_site_label
_atom_site_fract_x
_atom_site_fract_y
_atom_site_fract_z
Si Si1 0.819387 0.267368 0.335579
Si Si2 0.259593 0.314929 0.836609
Si Si3 0.129427 0.338499 0.164882
Si Si4 0.448037 0.091289 0.334642
Si Si5 0.088071 0.500000 0.670040
Si Si6 0.306884 0.000000 0.831188
Si Si7 0.786431 0.407853 0.162410
O O1 0.827266 0.280958 0.500000
O O2 0.774047 0.293018 0.280243
O O3 0.809759 0.209188 0.315418
O O4 0.862881 0.288050 0.250495
O O5 0.258149 0.373395 0.817930
O O6 0.242543 0.302965 0.000000
O O7 0.081875 0.362373 0.211104
O O8 0.169015 0.376676 0.200887
O O9 0.129357 0.323898 0.000000
O O10 0.437768 0.076836 0.500000
O O11 0.500000 0.106178 0.313059
O O12 0.436386 0.046600 0.233797
O O13 0.081913 0.500000 0.500000
O O14 0.140613 0.500000 0.715041
O O15 0.282201 0.047226 0.768969
O O16 0.300600 0.000000 0.000000
O O17 0.789879 0.427576 0.000000
#
# Coordination Sequence:
#
# PCOD8289975 Si02
#       7
#    16  16  16  16   8   8  16
#     4   9  15  23  38  56  73  89 107 132 168 210
#     4   8  15  26  37  53  72  90 111 136 164 201
#     4   9  17  28  40  54  70  87 111 143 178 216
#     4  10  20  33  46  55  65  88 122 154 184 224
#     4  11  22  32  41  54  72  88 110 152 200 233
#     4  11  21  28  36  53  72  90 116 148 181 219
#     4   9  16  27  41  51  65  91 117 142 173 206
#
# _framework density 12.644266
#
# number of rings (size 3 to 8) (size 9 to 14) (size 15 to 20)
#    0.000    2.667    1.667    2.250    0.000    6.000 
#    0.000    0.000    0.000    0.000    0.000    0.000 
#    0.000    0.000    0.000    0.000    0.000    0.000 
#
# Total GULP energy -594763.151128 kJ/mol
# GULP energy per Si atom -12390.898982 kJ/mol
# Density = 1.261549 g / cm^3
# Si number density = 12.644266 Si / 1000 Ang^3
#
#
#
# Elastic Constant Matrix: (Units=GPa)
#
#
# Indices 1 2 3 4 5 6 
#
# 1 52.9367 50.9165 30.7239 0.0000 0.0000 0.0000
# 2 50.9165 79.7253 41.0975 0.0000 0.0000 0.0000
# 3 30.7239 41.0975 57.3745 0.0000 0.0000 0.0000
# 4 0.0000 0.0000 0.0000 19.7892 0.0000 0.0000
# 5 0.0000 0.0000 0.0000 0.0000 13.7290 0.0000
# 6 0.0000 0.0000 0.0000 0.0000 0.0000 5.8365
#
#
#
# Elastic Compliance Matrix: (Units=1/GPa)
#
#
# Indices 1 2 3 4 5 6 
#
# 1 0.050340 -0.028939 -0.006228 0.000000 0.000000 0.000000
# 2 -0.028939 0.036522 -0.010664 0.000000 0.000000 0.000000
# 3 -0.006228 -0.010664 0.028403 0.000000 0.000000 0.000000
# 4 0.000000 0.000000 0.000000 0.050533 0.000000 0.000000
# 5 0.000000 0.000000 0.000000 0.000000 0.072839 0.000000
# 6 0.000000 0.000000 0.000000 0.000000 0.000000 0.171336
#
#
# Mechanical properties :
#
#
# Convention : Reuss Voigt Hill
#
# Bulk Modulus (GPa) = 42.36725 48.39026 45.37876
# Shear Modulus (GPa) = 9.81350 12.35749 11.08550
#
# Velocity S-wave (km/s) = 2.78892 3.12960 2.96416
# Velocity P-wave (km/s) = 6.62952 7.17027 6.90519
#
# Compressibility (1/GPa) = 0.02360314
#
# Stress axis : x y z
#
# Youngs Moduli (GPa) = 19.86505 27.38051 35.20756
#
# Poissons Ratio (x) = 0.79237 0.21926
# Poissons Ratio (y) = 0.57488 0.37546
# Poissons Ratio (z) = 0.12371 0.29199
#
# Static dielectric constant tensor:
#      x y z
#    x 2.471930 0.000000 0.000000 
#    y 0.000000 2.713370 0.000000 
#    z 0.000000 0.000000 2.649750 
# 
# 
# High freq. dielectric constant tensor:
#      x y z
#    x 1.434070 0.000000 0.000000 
#    y 0.000000 1.465990 0.000000 
#    z 0.000000 0.000000 1.491850 
# 
# From -- ./inp_files/17582.got.cif
#   From: 2010.06.25/outbox.cif.g09.slc.cpg/sg71_9_cif.got.tgz:17582.got - 2010.06.28 04:59:45.
