data_PCOD8289498
_publ_section_title
;
Structure prediction by ZEFSAII (Michael W. Deem and Ramdas Pophale) SiO2 
 PCOD8289498
Probable space group: I M M M
;
_chemical_formula_sum "Si O2"
_cell_formula_units_Z 64
_cell_length_a 8.783596
_cell_length_b 23.865968
_cell_length_c 15.525610
_cell_angle_alpha 90.000000
_cell_angle_beta 90.000000
_cell_angle_gamma 90.000000
_cell_volume 3254.618426
_symmetry_space_group_name_H-M "I M M M"
_symmetry_group_IT_number 71
_symmetry_cell_setting 'orthorhombic'
loop_
_space_group_symop_operation_xyz
x,y,z
-x,-y,z
x,-y,-z
-x,y,-z
-x,-y,-z
x,y,-z
-x,y,z
x,-y,z
1/2+x,1/2+y,1/2+z
1/2-x,1/2-y,1/2+z
1/2+x,1/2-y,1/2-z
1/2-x,1/2+y,1/2-z
1/2-x,1/2-y,1/2-z
1/2+x,1/2+y,1/2-z
1/2-x,1/2+y,1/2+z
1/2+x,1/2-y,1/2+z
loop_
_atom_site_type_symbol
_atom_site_label
_atom_site_fract_x
_atom_site_fract_y
_atom_site_fract_z
Si Si1 0.319217 0.867394 0.835953
Si Si2 0.824551 0.433953 0.000000
Si Si3 0.319361 0.250574 0.903636
Si Si4 0.180422 0.129492 0.657751
Si Si5 0.180976 0.563022 0.500000
O O1 0.500000 0.870880 0.826516
O O2 0.262359 0.803683 0.851422
O O3 0.242561 0.891042 0.749652
O O4 0.260232 0.905207 0.915009
O O5 0.745198 0.410543 0.084838
O O6 0.803969 0.500000 0.000000
O O7 0.000000 0.415892 0.000000
O O8 0.500000 0.249712 0.909548
O O9 0.261671 0.306888 0.857379
O O10 0.251098 0.248839 0.000000
O O11 0.000000 0.125547 0.655330
O O12 0.246078 0.500000 0.500000
O O13 0.000000 0.563116 0.500000
#
# Coordination Sequence:
#
# PCOD8289498 Si02
#       5
#    16   8  16  16   8
#     4  10  19  34  58  84 114 152 194 236 280 333
#     4  11  25  44  63  83 109 145 194 243 282 336
#     4   9  16  31  56  83 112 150 191 233 281 334
#     4  11  22  37  59  86 118 149 183 232 292 351
#     4   9  18  33  55  81 107 143 192 239 276 316
#
# _framework density 19.664363999999999
#
# number of rings (size 3 to 8) (size 9 to 14) (size 15 to 20)
#    0.000    2.000    2.500    1.875    0.000    2.000 
#    0.000    4.375    0.000    0.750    0.000    0.000 
#    0.000    0.000    0.000    0.000    0.000    0.000 
#
# Total GULP energy -396846.039493 kJ/mol
# GULP energy per Si atom -12401.438734 kJ/mol
# Density = 1.961961 g / cm^3
# Si number density = 19.664364 Si / 1000 Ang^3
#
#
#
# Elastic Constant Matrix: (Units=GPa)
#
#
# Indices 1 2 3 4 5 6 
#
# 1 54.4908 36.1924 46.5317 -0.0001 -0.0001 0.0000
# 2 36.1924 114.0477 63.3350 -0.0003 0.0000 0.0000
# 3 46.5317 63.3350 191.6360 -0.0011 -0.0002 -0.0001
# 4 -0.0001 -0.0003 -0.0011 2.4649 -0.0001 0.0000
# 5 -0.0001 0.0000 -0.0002 -0.0001 18.5794 -0.0001
# 6 0.0000 0.0000 -0.0001 0.0000 -0.0001 19.8392
#
#
#
# Elastic Compliance Matrix: (Units=1/GPa)
#
#
# Indices 1 2 3 4 5 6 
#
# 1 0.025947 -0.005800 -0.004383 -0.000002 0.000000 0.000000
# 2 -0.005800 0.012036 -0.002569 0.000000 0.000000 0.000000
# 3 -0.004383 -0.002569 0.007132 0.000003 0.000000 0.000000
# 4 -0.000002 0.000000 0.000003 0.405691 0.000001 0.000000
# 5 0.000000 0.000000 0.000000 0.000001 0.053823 0.000000
# 6 0.000000 0.000000 0.000000 0.000000 0.000000 0.050405
#
#
# Mechanical properties :
#
#
# Convention : Reuss Voigt Hill
#
# Bulk Modulus (GPa) = 50.99691 72.47698 61.73694
# Shear Modulus (GPa) = 8.51678 22.45105 15.48392
#
# Velocity S-wave (km/s) = 2.08338 3.38259 2.80913
# Velocity P-wave (km/s) = 5.63713 7.22447 6.47959
#
# Compressibility (1/GPa) = 0.01960903
#
# Stress axis : x y z
#
# Youngs Moduli (GPa) = 38.53984 83.08574 140.21713
#
# Poissons Ratio (x) = 0.48189 0.61464
# Poissons Ratio (y) = 0.22353 0.36029
# Poissons Ratio (z) = 0.16894 0.21349
#
# Static dielectric constant tensor:
#      x y z
#    x 3.159090 0.000000 0.000000 
#    y 0.000000 3.757520 0.000000 
#    z 0.000000 0.000000 3.697470 
# 
# 
# High freq. dielectric constant tensor:
#      x y z
#    x 1.727560 0.000000 0.000000 
#    y 0.000000 1.767720 0.000000 
#    z 0.000000 0.000000 1.783680 
# 
# From -- ./inp_files/5513.got.cif
#   From: 2010.06.25/outbox.cif.g09.slc.cpg/sg71_3_cif.got.tgz:5513.got - 2010.06.28 04:59:45.
