data_PCOD8289745
_publ_section_title
;
Structure prediction by ZEFSAII (Michael W. Deem and Ramdas Pophale) SiO2 
 PCOD8289745
Probable space group: I M M M
;
_chemical_formula_sum "Si O2"
_cell_formula_units_Z 80
_cell_length_a 26.619463
_cell_length_b 9.171901
_cell_length_c 18.913737
_cell_angle_alpha 90.000000
_cell_angle_beta 90.000000
_cell_angle_gamma 90.000000
_cell_volume 4617.809302
_symmetry_space_group_name_H-M "I M M M"
_symmetry_group_IT_number 71
_symmetry_cell_setting 'orthorhombic'
loop_
_space_group_symop_operation_xyz
x,y,z
-x,-y,z
x,-y,-z
-x,y,-z
-x,-y,-z
x,y,-z
-x,y,z
x,-y,z
1/2+x,1/2+y,1/2+z
1/2-x,1/2-y,1/2+z
1/2+x,1/2-y,1/2-z
1/2-x,1/2+y,1/2-z
1/2-x,1/2-y,1/2-z
1/2+x,1/2+y,1/2-z
1/2-x,1/2+y,1/2+z
1/2+x,1/2-y,1/2+z
loop_
_atom_site_type_symbol
_atom_site_label
_atom_site_fract_x
_atom_site_fract_y
_atom_site_fract_z
Si Si1 0.943471 0.173057 0.576368
Si Si2 0.442518 0.170050 0.649310
Si Si3 0.599091 0.331773 0.220171
Si Si4 0.204975 0.834300 0.214252
Si Si5 0.853743 0.829566 0.920049
O O1 0.923089 0.230591 0.500000
O O2 0.909566 0.230069 0.641035
O O3 0.000000 0.230037 0.587969
O O4 0.942978 0.000000 0.575418
O O5 0.500000 0.195934 0.625463
O O6 0.434348 0.238245 0.726451
O O7 0.405890 0.245269 0.592376
O O8 0.429487 0.000000 0.652662
O O9 0.582091 0.500000 0.227549
O O10 0.657723 0.314254 0.234686
O O11 0.250000 0.750000 0.250000
O O12 0.189185 0.776712 0.135562
O O13 0.222614 0.000000 0.208446
O O14 0.864708 0.000000 0.906100
O O15 0.834958 0.800445 0.000000
#
# Coordination Sequence:
#
# PCOD8289745 Si02
#       5
#    16  16  16  16  16
#     4   8  13  22  40  67  94 118 147 187 232 271
#     4  10  20  31  45  70 102 131 158 191 234 284
#     4   9  17  30  48  68  91 123 164 202 233 276
#     4   9  18  32  50  71  92 117 152 193 235 276
#     4   9  19  36  55  73  94 123 161 200 234 275
#
# _framework density 17.324231999999999
#
# number of rings (size 3 to 8) (size 9 to 14) (size 15 to 20)
#    0.000    3.000    0.000    3.000    0.000    6.400 
#    0.000    3.000    0.000    1.800    0.000    2.800 
#    0.000    0.000    0.000    0.000    0.000    0.000 
#
# Total GULP energy -495745.505261 kJ/mol
# GULP energy per Si atom -12393.637632 kJ/mol
# Density = 1.728480 g / cm^3
# Si number density = 17.324232 Si / 1000 Ang^3
#
#
#
# Elastic Constant Matrix: (Units=GPa)
#
#
# Indices 1 2 3 4 5 6 
#
# 1 85.9729 40.4920 58.9742 0.0000 0.0000 0.0000
# 2 40.4920 56.6750 32.1536 0.0000 0.0000 0.0000
# 3 58.9742 32.1536 161.2791 0.0000 0.0000 0.0000
# 4 0.0000 0.0000 0.0000 14.0608 0.0000 0.0000
# 5 0.0000 0.0000 0.0000 0.0000 20.2690 0.0000
# 6 0.0000 0.0000 0.0000 0.0000 0.0000 26.7460
#
#
#
# Elastic Compliance Matrix: (Units=1/GPa)
#
#
# Indices 1 2 3 4 5 6 
#
# 1 0.020841 -0.011914 -0.005246 0.000000 0.000000 0.000000
# 2 -0.011914 0.026706 -0.000968 0.000000 0.000000 0.000000
# 3 -0.005246 -0.000968 0.008311 0.000000 0.000000 0.000000
# 4 0.000000 0.000000 0.000000 0.071120 0.000000 0.000000
# 5 0.000000 0.000000 0.000000 0.000000 0.049337 0.000000
# 6 0.000000 0.000000 0.000000 0.000000 0.000000 0.037389
#
#
# Mechanical properties :
#
#
# Convention : Reuss Voigt Hill
#
# Bulk Modulus (GPa) = 51.01125 63.01849 57.01487
# Shear Modulus (GPa) = 19.49372 23.70230 21.59801
#
# Velocity S-wave (km/s) = 3.35808 3.70288 3.53469
# Velocity P-wave (km/s) = 6.67417 7.39842 7.04561
#
# Compressibility (1/GPa) = 0.01960352
#
# Stress axis : x y z
#
# Youngs Moduli (GPa) = 47.98152 37.44525 120.31535
#
# Poissons Ratio (x) = 0.44613 0.63113
# Poissons Ratio (y) = 0.57166 0.11641
# Poissons Ratio (z) = 0.25170 0.03623
#
# Static dielectric constant tensor:
#      x y z
#    x 3.045830 0.000000 0.000000 
#    y 0.000000 3.026740 0.000000 
#    z 0.000000 0.000000 3.706980 
# 
# 
# High freq. dielectric constant tensor:
#      x y z
#    x 1.648340 0.000000 0.000000 
#    y 0.000000 1.644670 0.000000 
#    z 0.000000 0.000000 1.680770 
# 
# From -- ./inp_files/11247.got.cif
#   From: 2010.06.25/outbox.cif.g09.slc.cpg/sg71_6_cif.got.tgz:11247.got - 2010.06.28 04:59:45.
