data_PCOD8289399
_publ_section_title
;
Structure prediction by ZEFSAII (Michael W. Deem and Ramdas Pophale) SiO2 
 PCOD8289399
Probable space group: I M M M
;
_chemical_formula_sum "Si O2"
_cell_formula_units_Z 104
_cell_length_a 22.068531
_cell_length_b 27.989849
_cell_length_c 8.810199
_cell_angle_alpha 90.000000
_cell_angle_beta 90.000000
_cell_angle_gamma 90.000000
_cell_volume 5442.014553
_symmetry_space_group_name_H-M "I M M M"
_symmetry_group_IT_number 71
_symmetry_cell_setting 'orthorhombic'
loop_
_space_group_symop_operation_xyz
x,y,z
-x,-y,z
x,-y,-z
-x,y,-z
-x,-y,-z
x,y,-z
-x,y,z
x,-y,z
1/2+x,1/2+y,1/2+z
1/2-x,1/2-y,1/2+z
1/2+x,1/2-y,1/2-z
1/2-x,1/2+y,1/2-z
1/2-x,1/2-y,1/2-z
1/2+x,1/2+y,1/2-z
1/2-x,1/2+y,1/2+z
1/2+x,1/2-y,1/2+z
loop_
_atom_site_type_symbol
_atom_site_label
_atom_site_fract_x
_atom_site_fract_y
_atom_site_fract_z
Si Si1 0.699009 0.361645 0.320316
Si Si2 0.567905 0.102465 0.182180
Si Si3 0.670792 0.828098 0.819521
Si Si4 0.369301 0.274172 0.820954
Si Si5 0.127421 0.945428 0.678822
Si Si6 0.500000 0.700747 0.822550
Si Si7 0.928538 0.500000 0.664759
Si Si8 0.500000 0.405716 0.819302
O O1 0.697928 0.363461 0.500000
O O2 0.766589 0.350308 0.259582
O O3 0.655307 0.320062 0.264469
O O4 0.677984 0.412537 0.256796
O O5 0.500000 0.116024 0.237221
O O6 0.614936 0.141181 0.246794
O O7 0.588258 0.050018 0.248317
O O8 0.569139 0.100181 0.000000
O O9 0.664345 0.773488 0.762243
O O10 0.667770 0.828492 0.000000
O O11 0.440340 0.269460 0.776862
O O12 0.360337 0.281836 0.000000
O O13 0.130957 0.936711 0.500000
O O14 0.060211 0.932559 0.739855
O O15 0.141951 0.000000 0.722010
O O16 0.500000 0.647734 0.749497
O O17 0.500000 0.691669 0.000000
O O18 0.896222 0.500000 0.500000
O O19 0.000000 0.500000 0.640157
O O20 0.500000 0.406162 0.000000
#
# Coordination Sequence:
#
# PCOD8289399 Si02
#       8
#    16  16  16  16  16   8   8   8
#     4  11  22  36  50  72 109 145 174 205 251 313
#     4   8  13  23  40  64  92 123 162 207 254 302
#     4   9  19  31  46  71 101 134 172 212 258 307
#     4  10  19  34  55  76 100 132 174 219 261 306
#     4  10  20  36  59  82 104 135 177 222 263 306
#     4   9  16  27  52  82 101 124 169 226 272 301
#     4   7  10  18  34  56  86 120 149 182 235 302
#     4   9  15  30  55  84 106 124 165 224 271 301
#
# _framework density 19.110569999999999
#
# number of rings (size 3 to 8) (size 9 to 14) (size 15 to 20)
#    0.000    2.692    1.538    2.077    1.077    1.231 
#    1.385    2.308    0.000    0.923    0.000    0.000 
#    0.000    0.000    0.000    1.692    0.000    1.231 
#
# Total GULP energy -644459.628935 kJ/mol
# GULP energy per Si atom -12393.454403 kJ/mol
# Density = 1.906707 g / cm^3
# Si number density = 19.110570 Si / 1000 Ang^3
#
#
#
# Elastic Constant Matrix: (Units=GPa)
#
#
# Indices 1 2 3 4 5 6 
#
# 1 137.0528 70.7368 23.2810 0.0000 0.0000 0.0000
# 2 70.7368 144.2230 25.6064 0.0000 0.0000 0.0000
# 3 23.2810 25.6064 22.3603 0.0000 0.0000 0.0000
# 4 0.0000 0.0000 0.0000 15.7082 0.0000 0.0000
# 5 0.0000 0.0000 0.0000 0.0000 17.3200 0.0000
# 6 0.0000 0.0000 0.0000 0.0000 0.0000 32.0433
#
#
#
# Elastic Compliance Matrix: (Units=1/GPa)
#
#
# Indices 1 2 3 4 5 6 
#
# 1 0.010427 -0.004000 -0.006276 0.000000 0.000000 0.000000
# 2 -0.004000 0.010238 -0.007559 0.000000 0.000000 0.000000
# 3 -0.006276 -0.007559 0.059913 0.000000 0.000000 0.000000
# 4 0.000000 0.000000 0.000000 0.063661 0.000000 0.000000
# 5 0.000000 0.000000 0.000000 0.000000 0.057737 0.000000
# 6 0.000000 0.000000 0.000000 0.000000 0.000000 0.031208
#
#
# Mechanical properties :
#
#
# Convention : Reuss Voigt Hill
#
# Bulk Modulus (GPa) = 22.26787 60.32051 41.29419
# Shear Modulus (GPa) = 17.61664 25.28175 21.44919
#
# Velocity S-wave (km/s) = 3.03945 3.64114 3.35382
# Velocity P-wave (km/s) = 4.89848 7.02209 6.05412
#
# Compressibility (1/GPa) = 0.04490776
#
# Stress axis : x y z
#
# Youngs Moduli (GPa) = 95.90533 97.67879 16.69084
#
# Poissons Ratio (x) = 0.39070 0.10475
# Poissons Ratio (y) = 0.38361 0.12617
# Poissons Ratio (z) = 0.60188 0.73839
#
# Static dielectric constant tensor:
#      x y z
#    x 3.691840 0.000000 0.000000 
#    y 0.000000 3.791310 0.000000 
#    z 0.000000 0.000000 2.885970 
# 
# 
# High freq. dielectric constant tensor:
#      x y z
#    x 1.743690 0.000000 0.000000 
#    y 0.000000 1.758340 0.000000 
#    z 0.000000 0.000000 1.675020 
# 
# From -- ./inp_files/13392.got.cif
#   From: 2010.06.25/outbox.cif.g09.slc.cpg/sg71_7_cif.got.tgz:13392.got - 2010.06.28 04:59:45.
