data_PCOD8289942
_publ_section_title
;
Structure prediction by ZEFSAII (Michael W. Deem and Ramdas Pophale) SiO2 
 PCOD8289942
Probable space group: I M M M
;
_chemical_formula_sum "Si O2"
_cell_formula_units_Z 88
_cell_length_a 9.509132
_cell_length_b 36.724285
_cell_length_c 13.360282
_cell_angle_alpha 90.000000
_cell_angle_beta 90.000000
_cell_angle_gamma 90.000000
_cell_volume 4665.625223
_symmetry_space_group_name_H-M "I M M M"
_symmetry_group_IT_number 71
_symmetry_cell_setting 'orthorhombic'
loop_
_space_group_symop_operation_xyz
x,y,z
-x,-y,z
x,-y,-z
-x,y,-z
-x,-y,-z
x,y,-z
-x,y,z
x,-y,z
1/2+x,1/2+y,1/2+z
1/2-x,1/2-y,1/2+z
1/2+x,1/2-y,1/2-z
1/2-x,1/2+y,1/2-z
1/2-x,1/2-y,1/2-z
1/2+x,1/2+y,1/2-z
1/2-x,1/2+y,1/2+z
1/2+x,1/2-y,1/2+z
loop_
_atom_site_type_symbol
_atom_site_label
_atom_site_fract_x
_atom_site_fract_y
_atom_site_fract_z
Si Si1 0.838696 0.656228 0.207538
Si Si2 0.667358 0.584505 0.804887
Si Si3 0.339387 0.202055 0.110558
Si Si4 0.166902 0.041030 0.888600
Si Si5 0.842020 0.731872 0.881842
Si Si6 0.666598 0.459377 0.000000
O O1 0.737080 0.623536 0.179402
O O2 0.822233 0.665394 0.325129
O O3 0.787039 0.691924 0.147678
O O4 0.000000 0.646155 0.180512
O O5 0.500000 0.589204 0.803162
O O6 0.723885 0.566664 0.700923
O O7 0.717935 0.560492 0.899057
O O8 0.500000 0.214971 0.107881
O O9 0.254513 0.235513 0.161299
O O10 0.282744 0.192608 0.000000
O O11 0.000000 0.040475 0.883312
O O12 0.223610 0.000000 0.871196
O O13 0.214821 0.054748 0.000000
O O14 0.000000 0.736760 0.839069
O O15 0.838610 0.734941 0.000000
O O16 0.730490 0.500000 0.000000
O O17 0.500000 0.461174 0.000000
#
# Coordination Sequence:
#
# PCOD8289942 Si02
#       6
#    16  16  16  16  16   8
#     4  10  21  34  48  69 101 136 162 196 248 301
#     4  10  20  32  50  77 102 128 166 206 246 293
#     4   9  18  33  51  71  95 127 167 206 247 295
#     4   8  14  27  49  75 100 125 157 200 246 290
#     4   9  18  32  50  70  92 124 167 209 248 291
#     4   9  18  34  55  77 103 133 167 211 257 299
#
# _framework density 18.861352
#
# number of rings (size 3 to 8) (size 9 to 14) (size 15 to 20)
#    0.000    2.818    0.000    1.636    1.273    4.364 
#    0.000    0.000    0.000    2.727    0.000    1.273 
#    0.000    0.000    0.000    0.000    0.000    0.000 
#
# Total GULP energy -545367.544436 kJ/mol
# GULP energy per Si atom -12394.716919 kJ/mol
# Density = 1.881842 g / cm^3
# Si number density = 18.861352 Si / 1000 Ang^3
#
#
#
# Elastic Constant Matrix: (Units=GPa)
#
#
# Indices 1 2 3 4 5 6 
#
# 1 37.7899 42.0533 17.7624 0.0013 -0.0001 -0.0003
# 2 42.0533 124.8729 43.0447 0.0048 0.0007 0.0004
# 3 17.7624 43.0447 91.9488 0.0101 0.0018 0.0005
# 4 0.0013 0.0048 0.0101 25.4651 0.0007 0.0008
# 5 -0.0001 0.0007 0.0018 0.0007 13.5441 0.0011
# 6 -0.0003 0.0004 0.0005 0.0008 0.0011 19.4382
#
#
#
# Elastic Compliance Matrix: (Units=1/GPa)
#
#
# Indices 1 2 3 4 5 6 
#
# 1 0.042572 -0.013715 -0.001803 0.000001 0.000001 0.000001
# 2 -0.013715 0.013968 -0.003889 0.000000 0.000000 0.000000
# 3 -0.001803 -0.003889 0.013045 -0.000004 -0.000002 0.000000
# 4 0.000001 0.000000 -0.000004 0.039269 -0.000002 -0.000002
# 5 0.000001 0.000000 -0.000002 -0.000002 0.073833 -0.000004
# 6 0.000001 0.000000 0.000000 -0.000002 -0.000004 0.051445
#
#
# Mechanical properties :
#
#
# Convention : Reuss Voigt Hill
#
# Bulk Modulus (GPa) = 32.50048 51.14803 41.82426
# Shear Modulus (GPa) = 17.65506 21.80623 19.73064
#
# Velocity S-wave (km/s) = 3.06280 3.40388 3.23784
# Velocity P-wave (km/s) = 5.45677 6.52881 6.01671
#
# Compressibility (1/GPa) = 0.03076877
#
# Stress axis : x y z
#
# Youngs Moduli (GPa) = 23.48935 71.59350 76.65939
#
# Poissons Ratio (x) = 0.98194 0.13824
# Poissons Ratio (y) = 0.32217 0.29815
# Poissons Ratio (z) = 0.04236 0.27845
#
# Static dielectric constant tensor:
#      x y z
#    x 3.171280 0.000000 0.000000 
#    y 0.000000 3.361540 -0.000010 
#    z 0.000000 -0.000010 3.881760 
# 
# 
# High freq. dielectric constant tensor:
#      x y z
#    x 1.689540 0.000000 0.000000 
#    y 0.000000 1.723350 0.000000 
#    z 0.000000 0.000000 1.755390 
# 
# From -- ./inp_files/33110.got.cif
#   From: 2010.06.25/outbox.cif.g09.slc.cpg/sg71_17_cif.got.tgz:33110.got - 2010.06.28 04:59:45.
