data_PCOD8289875
_publ_section_title
;
Structure prediction by ZEFSAII (Michael W. Deem and Ramdas Pophale) SiO2 
 PCOD8289875
Probable space group: I M M M
;
_chemical_formula_sum "Si O2"
_cell_formula_units_Z 96
_cell_length_a 9.043480
_cell_length_b 32.177064
_cell_length_c 18.219200
_cell_angle_alpha 90.000000
_cell_angle_beta 90.000000
_cell_angle_gamma 90.000000
_cell_volume 5301.653011
_symmetry_space_group_name_H-M "I M M M"
_symmetry_group_IT_number 71
_symmetry_cell_setting 'orthorhombic'
loop_
_space_group_symop_operation_xyz
x,y,z
-x,-y,z
x,-y,-z
-x,y,-z
-x,-y,-z
x,y,-z
-x,y,z
x,-y,z
1/2+x,1/2+y,1/2+z
1/2-x,1/2-y,1/2+z
1/2+x,1/2-y,1/2-z
1/2-x,1/2+y,1/2-z
1/2-x,1/2-y,1/2-z
1/2+x,1/2+y,1/2-z
1/2-x,1/2+y,1/2+z
1/2+x,1/2-y,1/2+z
loop_
_atom_site_type_symbol
_atom_site_label
_atom_site_fract_x
_atom_site_fract_y
_atom_site_fract_z
Si Si1 0.828464 0.880637 0.701309
Si Si2 0.328737 0.581338 0.583568
Si Si3 0.831683 0.832424 0.848275
Si Si4 0.828140 0.327706 0.085373
Si Si5 0.327611 0.243176 0.915634
Si Si6 0.330087 0.047564 0.781813
O O1 0.804605 0.846758 0.765073
O O2 0.746377 0.865512 0.628529
O O3 0.761927 0.924790 0.725006
O O4 0.000000 0.887247 0.683947
O O5 0.290947 0.569935 0.500000
O O6 0.500000 0.572807 0.602463
O O7 0.293257 0.629755 0.597204
O O8 0.230055 0.552520 0.635413
O O9 0.722893 0.794679 0.864916
O O10 0.000000 0.817618 0.860337
O O11 0.756083 0.284415 0.110361
O O12 0.000000 0.325826 0.104489
O O13 0.798867 0.336084 0.000000
O O14 0.500000 0.250998 0.903849
O O15 0.289203 0.232743 0.000000
O O16 0.500000 0.061846 0.780437
O O17 0.312633 0.000000 0.757282
#
# Coordination Sequence:
#
# PCOD8289875 Si02
#       6
#    16  16  16  16  16  16
#     4  10  21  37  57  79 103 133 169 210 256 307
#     4   9  18  32  50  73 103 141 183 223 260 300
#     4   9  18  32  49  71 101 138 178 216 255 297
#     4  10  21  37  57  79 103 133 167 205 254 309
#     4  10  20  32  48  73 104 139 179 218 254 294
#     4  10  21  36  54  77 105 136 170 210 257 309
#
# _framework density 18.107559999999999
#
# number of rings (size 3 to 8) (size 9 to 14) (size 15 to 20)
#    0.000    2.333    0.000    3.500    0.000    8.667 
#    0.000    1.667    0.000    0.500    0.000    3.500 
#    0.000    0.000    0.000    0.000    0.000    0.000 
#
# Total GULP energy -595399.427801 kJ/mol
# GULP energy per Si atom -12404.154746 kJ/mol
# Density = 1.806635 g / cm^3
# Si number density = 18.107560 Si / 1000 Ang^3
#
#
#
# Elastic Constant Matrix: (Units=GPa)
#
#
# Indices 1 2 3 4 5 6 
#
# 1 119.0358 61.3947 47.2321 0.0001 0.0000 0.0000
# 2 61.3947 94.1097 45.9205 0.0002 0.0000 0.0000
# 3 47.2321 45.9205 57.1334 0.0010 0.0000 0.0000
# 4 0.0001 0.0002 0.0010 17.4170 0.0000 0.0000
# 5 0.0000 0.0000 0.0000 0.0000 31.7559 0.0001
# 6 0.0000 0.0000 0.0000 0.0000 0.0001 33.0863
#
#
#
# Elastic Compliance Matrix: (Units=1/GPa)
#
#
# Indices 1 2 3 4 5 6 
#
# 1 0.014207 -0.005820 -0.007067 0.000000 0.000000 0.000000
# 2 -0.005820 0.019866 -0.011156 0.000000 0.000000 0.000000
# 3 -0.007067 -0.011156 0.032312 -0.000002 0.000000 0.000000
# 4 0.000000 0.000000 -0.000002 0.057415 0.000000 0.000000
# 5 0.000000 0.000000 0.000000 0.000000 0.031490 0.000000
# 6 0.000000 0.000000 0.000000 0.000000 0.000000 0.030224
#
#
# Mechanical properties :
#
#
# Convention : Reuss Voigt Hill
#
# Bulk Modulus (GPa) = 54.64814 64.37481 59.51148
# Shear Modulus (GPa) = 20.85950 24.16728 22.51339
#
# Velocity S-wave (km/s) = 3.39776 3.65725 3.52989
# Velocity P-wave (km/s) = 6.75561 7.31181 7.03920
#
# Compressibility (1/GPa) = 0.01829888
#
# Stress axis : x y z
#
# Youngs Moduli (GPa) = 70.39022 50.33717 30.94847
#
# Poissons Ratio (x) = 0.29294 0.21871
# Poissons Ratio (y) = 0.40965 0.34526
# Poissons Ratio (z) = 0.49745 0.56157
#
# Static dielectric constant tensor:
#      x y z
#    x 3.412490 0.000000 0.000000 
#    y 0.000000 3.168000 0.000000 
#    z 0.000000 0.000000 3.290460 
# 
# 
# High freq. dielectric constant tensor:
#      x y z
#    x 1.712730 0.000000 0.000000 
#    y 0.000000 1.691140 0.000000 
#    z 0.000000 0.000000 1.688330 
# 
# From -- ./inp_files/14832.got.cif
#   From: 2010.06.25/outbox.cif.g09.slc.cpg/sg71_8_cif.got.tgz:14832.got - 2010.06.28 04:59:45.
