data_PCOD8289491
_publ_section_title
;
Structure prediction by ZEFSAII (Michael W. Deem and Ramdas Pophale) SiO2 
 PCOD8289491
Probable space group: I M M M
;
_chemical_formula_sum "Si O2"
_cell_formula_units_Z 64
_cell_length_a 13.344015
_cell_length_b 7.655406
_cell_length_c 31.760808
_cell_angle_alpha 90.000000
_cell_angle_beta 90.000000
_cell_angle_gamma 90.000000
_cell_volume 3244.488896
_symmetry_space_group_name_H-M "I M M M"
_symmetry_group_IT_number 71
_symmetry_cell_setting 'orthorhombic'
loop_
_space_group_symop_operation_xyz
x,y,z
-x,-y,z
x,-y,-z
-x,y,-z
-x,-y,-z
x,y,-z
-x,y,z
x,-y,z
1/2+x,1/2+y,1/2+z
1/2-x,1/2-y,1/2+z
1/2+x,1/2-y,1/2-z
1/2-x,1/2+y,1/2-z
1/2-x,1/2-y,1/2-z
1/2+x,1/2+y,1/2-z
1/2-x,1/2+y,1/2+z
1/2+x,1/2-y,1/2+z
loop_
_atom_site_type_symbol
_atom_site_label
_atom_site_fract_x
_atom_site_fract_y
_atom_site_fract_z
Si Si1 0.245353 0.195781 0.122352
Si Si2 0.886346 0.296093 0.048031
Si Si3 0.381464 0.500000 0.238696
Si Si4 0.881151 0.000000 0.643272
Si Si5 0.382425 0.196837 0.298716
O O1 0.189368 0.191986 0.077683
O O2 0.340352 0.325531 0.120737
O O3 0.167468 0.260827 0.157047
O O4 0.283666 0.000000 0.132268
O O5 0.877625 0.500000 0.058364
O O6 0.000000 0.232558 0.056024
O O7 0.855467 0.257519 0.000000
O O8 0.500000 0.500000 0.236423
O O9 0.339609 0.500000 0.191307
O O10 0.342687 0.326707 0.262441
O O11 0.000000 0.000000 0.640022
O O12 0.500000 0.222512 0.306058
O O13 0.357133 0.000000 0.283816
#
# Coordination Sequence:
#
# PCOD8289491 Si02
#       5
#    16  16   8   8  16
#     4  12  23  37  60  90 116 156 199 237 287 351
#     4   9  18  35  62  96 133 163 184 218 278 355
#     4   9  20  38  58  82 113 151 195 246 299 348
#     4  11  26  46  60  76 111 153 205 265 306 333
#     4  10  19  34  57  87 121 153 186 231 288 355
#
# _framework density 19.725757000000002
#
# number of rings (size 3 to 8) (size 9 to 14) (size 15 to 20)
#    0.000    1.750    3.750    1.500    0.000    6.500 
#    0.000    3.750    0.000    1.500    0.000    1.750 
#    0.000    0.000    0.000    0.000    0.000    0.000 
#
# Total GULP energy -396884.345332 kJ/mol
# GULP energy per Si atom -12402.635792 kJ/mol
# Density = 1.968086 g / cm^3
# Si number density = 19.725757 Si / 1000 Ang^3
#
#
#
# Elastic Constant Matrix: (Units=GPa)
#
#
# Indices 1 2 3 4 5 6 
#
# 1 80.5762 51.4679 38.7217 0.0000 0.0000 0.0000
# 2 51.4679 158.9198 39.7144 0.0000 0.0000 0.0000
# 3 38.7217 39.7144 93.3814 0.0000 0.0000 0.0000
# 4 0.0000 0.0000 0.0000 24.3763 0.0000 0.0000
# 5 0.0000 0.0000 0.0000 0.0000 25.6902 0.0000
# 6 0.0000 0.0000 0.0000 0.0000 0.0000 7.7129
#
#
#
# Elastic Compliance Matrix: (Units=1/GPa)
#
#
# Indices 1 2 3 4 5 6 
#
# 1 0.017891 -0.004409 -0.005544 0.000000 0.000000 0.000000
# 2 -0.004409 0.008127 -0.001628 0.000000 0.000000 0.000000
# 3 -0.005544 -0.001628 0.013700 0.000000 0.000000 0.000000
# 4 0.000000 0.000000 0.000000 0.041023 0.000000 0.000000
# 5 0.000000 0.000000 0.000000 0.000000 0.038925 0.000000
# 6 0.000000 0.000000 0.000000 0.000000 0.000000 0.129652
#
#
# Mechanical properties :
#
#
# Convention : Reuss Voigt Hill
#
# Bulk Modulus (GPa) = 60.39871 65.85394 63.12632
# Shear Modulus (GPa) = 17.98566 25.08744 21.53655
#
# Velocity S-wave (km/s) = 3.02285 3.57012 3.30782
# Velocity P-wave (km/s) = 6.54746 7.10292 6.83084
#
# Compressibility (1/GPa) = 0.01655665
#
# Stress axis : x y z
#
# Youngs Moduli (GPa) = 55.89490 123.04323 72.99274
#
# Poissons Ratio (x) = 0.54247 0.40464
# Poissons Ratio (y) = 0.24643 0.11885
# Poissons Ratio (z) = 0.30986 0.20035
#
# Static dielectric constant tensor:
#      x y z
#    x 3.353260 0.000000 0.000000 
#    y 0.000000 3.862640 0.000000 
#    z 0.000000 0.000000 3.583440 
# 
# 
# High freq. dielectric constant tensor:
#      x y z
#    x 1.751450 0.000000 0.000000 
#    y 0.000000 1.780390 0.000000 
#    z 0.000000 0.000000 1.760310 
# 
# From -- ./inp_files/69683.got.cif
#   From: 2010.06.25/outbox.cif.g09.slc.cpg/sg71_35_cif.got.tgz:69683.got - 2010.06.28 04:59:45.
