data_PCOD8289896
_publ_section_title
;
Structure prediction by ZEFSAII (Michael W. Deem and Ramdas Pophale) SiO2 
 PCOD8289896
Probable space group: I M M M
;
_chemical_formula_sum "Si O2"
_cell_formula_units_Z 104
_cell_length_a 9.122149
_cell_length_b 19.804345
_cell_length_c 32.164492
_cell_angle_alpha 90.000000
_cell_angle_beta 90.000000
_cell_angle_gamma 90.000000
_cell_volume 5810.778776
_symmetry_space_group_name_H-M "I M M M"
_symmetry_group_IT_number 71
_symmetry_cell_setting 'orthorhombic'
loop_
_space_group_symop_operation_xyz
x,y,z
-x,-y,z
x,-y,-z
-x,y,-z
-x,-y,-z
x,y,-z
-x,y,z
x,-y,z
1/2+x,1/2+y,1/2+z
1/2-x,1/2-y,1/2+z
1/2+x,1/2-y,1/2-z
1/2-x,1/2+y,1/2-z
1/2-x,1/2-y,1/2-z
1/2+x,1/2+y,1/2-z
1/2-x,1/2+y,1/2+z
1/2+x,1/2-y,1/2+z
loop_
_atom_site_type_symbol
_atom_site_label
_atom_site_fract_x
_atom_site_fract_y
_atom_site_fract_z
Si Si1 0.667580 0.754627 0.454382
Si Si2 0.335513 0.814854 0.835823
Si Si3 0.670061 0.421946 0.182706
Si Si4 0.827914 0.311984 0.866869
Si Si5 0.672201 0.500000 0.452419
Si Si6 0.336124 0.129413 0.927053
Si Si7 0.327889 0.076943 0.232036
O O1 0.687807 0.790021 0.500000
O O2 0.500000 0.730819 0.448379
O O3 0.710218 0.803226 0.415978
O O4 0.768789 0.688960 0.454588
O O5 0.500000 0.790502 0.824069
O O6 0.229802 0.750103 0.838630
O O7 0.338218 0.852402 0.879167
O O8 0.276195 0.869294 0.802533
O O9 0.500000 0.402855 0.184740
O O10 0.694599 0.500000 0.171791
O O11 0.747559 0.380240 0.146238
O O12 0.742001 0.403180 0.226527
O O13 0.000000 0.318788 0.859116
O O14 0.500000 0.500000 0.446898
O O15 0.721393 0.500000 0.500000
O O16 0.735881 0.564646 0.430018
O O17 0.500000 0.114691 0.943408
O O18 0.500000 0.083219 0.240871
O O19 0.289140 0.000000 0.218037
#
# Coordination Sequence:
#
# PCOD8289896 Si02
#       7
#    16  16  16  16   8  16  16
#     4   9  18  34  54  75 102 133 165 205 253 304
#     4   9  19  34  52  75 105 137 170 213 262 304
#     4  10  21  37  56  78 105 134 166 207 257 307
#     4  10  20  34  55  80 105 134 172 210 250 305
#     4  11  23  35  45  61  91 133 177 219 265 311
#     4  10  20  32  49  72  98 129 170 217 261 306
#     4   9  18  33  54  76 101 137 179 215 253 303
#
# _framework density 17.897773000000001
#
# number of rings (size 3 to 8) (size 9 to 14) (size 15 to 20)
#    0.000    2.385    0.000    2.077    1.077    6.154 
#    0.000    0.000    0.000    0.462    0.000    3.231 
#    0.000    0.000    0.000    0.000    0.000    0.000 
#
# Total GULP energy -644758.625506 kJ/mol
# GULP energy per Si atom -12399.204337 kJ/mol
# Density = 1.785704 g / cm^3
# Si number density = 17.897773 Si / 1000 Ang^3
#
#
#
# Elastic Constant Matrix: (Units=GPa)
#
#
# Indices 1 2 3 4 5 6 
#
# 1 75.2558 42.6640 43.1421 0.0000 0.0000 0.0000
# 2 42.6640 84.6142 57.6689 0.0000 0.0000 0.0000
# 3 43.1421 57.6689 101.1741 0.0000 0.0000 0.0000
# 4 0.0000 0.0000 0.0000 43.2035 0.0000 0.0000
# 5 0.0000 0.0000 0.0000 0.0000 25.3915 0.0000
# 6 0.0000 0.0000 0.0000 0.0000 0.0000 32.0018
#
#
#
# Elastic Compliance Matrix: (Units=1/GPa)
#
#
# Indices 1 2 3 4 5 6 
#
# 1 0.019784 -0.006910 -0.004497 0.000000 0.000000 0.000000
# 2 -0.006910 0.021740 -0.009445 0.000000 0.000000 0.000000
# 3 -0.004497 -0.009445 0.017185 0.000000 0.000000 0.000000
# 4 0.000000 0.000000 0.000000 0.023146 0.000000 0.000000
# 5 0.000000 0.000000 0.000000 0.000000 0.039383 0.000000
# 6 0.000000 0.000000 0.000000 0.000000 0.000000 0.031248
#
#
# Mechanical properties :
#
#
# Convention : Reuss Voigt Hill
#
# Bulk Modulus (GPa) = 58.81019 60.88823 59.84921
# Shear Modulus (GPa) = 25.01756 27.95729 26.48743
#
# Velocity S-wave (km/s) = 3.74278 3.95657 3.85116
# Velocity P-wave (km/s) = 7.18388 7.41394 7.29981
#
# Compressibility (1/GPa) = 0.01700386
#
# Stress axis : x y z
#
# Youngs Moduli (GPa) = 50.54670 45.99848 58.18929
#
# Poissons Ratio (x) = 0.31786 0.26169
# Poissons Ratio (y) = 0.34929 0.54960
# Poissons Ratio (z) = 0.22732 0.43446
#
# Static dielectric constant tensor:
#      x y z
#    x 3.479010 0.000000 0.000000 
#    y 0.000000 3.210130 0.000000 
#    z 0.000000 0.000000 3.345490 
# 
# 
# High freq. dielectric constant tensor:
#      x y z
#    x 1.702240 0.000000 0.000000 
#    y 0.000000 1.676670 0.000000 
#    z 0.000000 0.000000 1.692730 
# 
# From -- ./inp_files/16964.got.cif
#   From: 2010.06.25/outbox.cif.g09.slc.cpg/sg71_9_cif.got.tgz:16964.got - 2010.06.28 04:59:45.
