data_PCOD8289905
_publ_section_title
;
Structure prediction by ZEFSAII (Michael W. Deem and Ramdas Pophale) SiO2 
 PCOD8289905
Probable space group: I M M M
;
_chemical_formula_sum "Si O2"
_cell_formula_units_Z 104
_cell_length_a 20.076528
_cell_length_b 8.930862
_cell_length_c 32.279994
_cell_angle_alpha 90.000000
_cell_angle_beta 90.000000
_cell_angle_gamma 90.000000
_cell_volume 5787.825553
_symmetry_space_group_name_H-M "I M M M"
_symmetry_group_IT_number 71
_symmetry_cell_setting 'orthorhombic'
loop_
_space_group_symop_operation_xyz
x,y,z
-x,-y,z
x,-y,-z
-x,y,-z
-x,-y,-z
x,y,-z
-x,y,z
x,-y,z
1/2+x,1/2+y,1/2+z
1/2-x,1/2-y,1/2+z
1/2+x,1/2-y,1/2-z
1/2-x,1/2+y,1/2-z
1/2-x,1/2-y,1/2-z
1/2+x,1/2+y,1/2-z
1/2-x,1/2+y,1/2+z
1/2+x,1/2-y,1/2+z
loop_
_atom_site_type_symbol
_atom_site_label
_atom_site_fract_x
_atom_site_fract_y
_atom_site_fract_z
Si Si1 0.425809 0.178259 0.227511
Si Si2 0.632314 0.830357 0.928634
Si Si3 0.422806 0.828158 0.321483
Si Si4 0.264379 0.825340 0.546678
Si Si5 0.686804 0.677749 0.626547
Si Si6 0.677879 0.168399 0.837259
Si Si7 0.000000 0.835265 0.451798
O O1 0.500000 0.239457 0.215811
O O2 0.408608 0.223720 0.274520
O O3 0.368159 0.249036 0.197816
O O4 0.427623 0.000000 0.223104
O O5 0.689685 0.735951 0.950628
O O6 0.636857 0.827118 0.879334
O O7 0.562854 0.759347 0.939007
O O8 0.636303 0.000000 0.945299
O O9 0.500000 0.807262 0.332489
O O10 0.381804 0.722969 0.352192
O O11 0.401108 0.000000 0.327841
O O12 0.291561 0.796598 0.500000
O O13 0.311576 0.743700 0.580059
O O14 0.263365 0.000000 0.557138
O O15 0.693223 0.500000 0.622316
O O16 0.749145 0.741681 0.654171
O O17 0.690329 0.000000 0.821868
O O18 0.000000 0.859474 0.500000
O O19 0.000000 0.000000 0.430412
#
# Coordination Sequence:
#
# PCOD8289905 Si02
#       7
#    16  16  16  16  16  16   8
#     4   8  14  26  47  72  99 134 175 215 251 295
#     4  10  20  32  49  73  99 130 170 219 267 309
#     4   9  18  33  53  77 101 131 172 211 249 301
#     4  10  20  35  55  76 100 132 167 205 252 306
#     4  10  20  33  51  77 107 136 166 207 257 306
#     4   8  16  29  45  72 103 129 167 213 256 302
#     4  11  23  35  45  61  91 133 179 223 267 315
#
# _framework density 17.968751000000001
#
# number of rings (size 3 to 8) (size 9 to 14) (size 15 to 20)
#    0.000    2.692    0.000    3.923    1.077    4.615 
#    0.000    0.000    0.000    5.077    0.000    3.231 
#    0.000    0.000    0.000    0.000    0.000    0.000 
#
# Total GULP energy -644521.415691 kJ/mol
# GULP energy per Si atom -12394.642609 kJ/mol
# Density = 1.792785 g / cm^3
# Si number density = 17.968751 Si / 1000 Ang^3
#
#
#
# Elastic Constant Matrix: (Units=GPa)
#
#
# Indices 1 2 3 4 5 6 
#
# 1 84.0429 34.1866 60.6417 0.0000 0.0000 0.0000
# 2 34.1866 70.6898 43.6469 0.0000 0.0000 0.0000
# 3 60.6417 43.6469 99.2854 0.0000 0.0000 0.0000
# 4 0.0000 0.0000 0.0000 19.5106 0.0000 0.0000
# 5 0.0000 0.0000 0.0000 0.0000 22.0980 0.0000
# 6 0.0000 0.0000 0.0000 0.0000 0.0000 29.1999
#
#
#
# Elastic Compliance Matrix: (Units=1/GPa)
#
#
# Indices 1 2 3 4 5 6 
#
# 1 0.021785 -0.003184 -0.011906 0.000000 0.000000 0.000000
# 2 -0.003184 0.019882 -0.006796 0.000000 0.000000 0.000000
# 3 -0.011906 -0.006796 0.020331 0.000000 0.000000 0.000000
# 4 0.000000 0.000000 0.000000 0.051254 0.000000 0.000000
# 5 0.000000 0.000000 0.000000 0.000000 0.045253 0.000000
# 6 0.000000 0.000000 0.000000 0.000000 0.000000 0.034247
#
#
# Mechanical properties :
#
#
# Convention : Reuss Voigt Hill
#
# Bulk Modulus (GPa) = 54.86417 58.99648 56.93032
# Shear Modulus (GPa) = 20.61019 21.86458 21.23738
#
# Velocity S-wave (km/s) = 3.39042 3.49207 3.44162
# Velocity P-wave (km/s) = 6.77687 7.01167 6.89527
#
# Compressibility (1/GPa) = 0.01822683
#
# Stress axis : x y z
#
# Youngs Moduli (GPa) = 45.90375 50.29656 49.18542
#
# Poissons Ratio (x) = 0.16015 0.58560
# Poissons Ratio (y) = 0.14617 0.33424
# Poissons Ratio (z) = 0.54652 0.34179
#
# Static dielectric constant tensor:
#      x y z
#    x 3.249010 0.000000 0.000000 
#    y 0.000000 3.172130 0.000000 
#    z 0.000000 0.000000 3.382820 
# 
# 
# High freq. dielectric constant tensor:
#      x y z
#    x 1.685820 0.000000 0.000000 
#    y 0.000000 1.674440 0.000000 
#    z 0.000000 0.000000 1.695220 
# 
# From -- ./inp_files/70720.got.cif
#   From: 2010.06.25/outbox.cif.g09.slc.cpg/sg71_36_cif.got.tgz:70720.got - 2010.06.28 04:59:45.
