data_PCOD8289878
_publ_section_title
;
Structure prediction by ZEFSAII (Michael W. Deem and Ramdas Pophale) SiO2 
 PCOD8289878
Probable space group: I M M M
;
_chemical_formula_sum "Si O2"
_cell_formula_units_Z 128
_cell_length_a 23.502207
_cell_length_b 19.367107
_cell_length_c 15.109468
_cell_angle_alpha 90.000000
_cell_angle_beta 90.000000
_cell_angle_gamma 90.000000
_cell_volume 6877.372889
_symmetry_space_group_name_H-M "I M M M"
_symmetry_group_IT_number 71
_symmetry_cell_setting 'orthorhombic'
loop_
_space_group_symop_operation_xyz
x,y,z
-x,-y,z
x,-y,-z
-x,y,-z
-x,-y,-z
x,y,-z
-x,y,z
x,-y,z
1/2+x,1/2+y,1/2+z
1/2-x,1/2-y,1/2+z
1/2+x,1/2-y,1/2-z
1/2-x,1/2+y,1/2-z
1/2-x,1/2-y,1/2-z
1/2+x,1/2+y,1/2-z
1/2-x,1/2+y,1/2+z
1/2+x,1/2-y,1/2+z
loop_
_atom_site_type_symbol
_atom_site_label
_atom_site_fract_x
_atom_site_fract_y
_atom_site_fract_z
Si Si1 0.822237 0.685155 0.894583
Si Si2 0.562274 0.762541 0.398759
Si Si3 0.228341 0.922247 0.845132
Si Si4 0.262237 0.576674 0.857013
Si Si5 0.065466 0.075585 0.716533
Si Si6 0.605148 0.391809 0.402344
Si Si7 0.223947 0.714946 0.395465
Si Si8 0.859013 0.829381 0.597827
O O1 0.886507 0.692679 0.855501
O O2 0.800202 0.610797 0.862202
O O3 0.779577 0.744744 0.857044
O O4 0.824581 0.690876 0.000000
O O5 0.554595 0.784051 0.500000
O O6 0.500000 0.772388 0.351671
O O7 0.583344 0.684961 0.390909
O O8 0.212913 0.924113 0.742028
O O9 0.173452 0.897363 0.899461
O O10 0.277380 0.864526 0.861534
O O11 0.247581 0.000000 0.875085
O O12 0.257160 0.500000 0.895572
O O13 0.305116 0.620403 0.916762
O O14 0.078502 0.066575 0.820965
O O15 0.098146 0.138096 0.668891
O O16 0.000000 0.093053 0.702815
O O17 0.080303 0.000000 0.674420
O O18 0.586268 0.419838 0.500000
O O19 0.226620 0.715626 0.500000
O O20 0.165903 0.755674 0.366758
O O21 0.887613 0.821745 0.500000
#
# Coordination Sequence:
#
# PCOD8289878 Si02
#       8
#    16  16  16  16  16  16  16  16
#     4   9  17  30  48  71  97 129 170 215 262 307
#     4   9  17  30  49  72  99 133 176 220 255 299
#     4  11  21  32  50  77 108 139 169 209 263 316
#     4  10  20  32  48  74 103 132 172 216 262 318
#     4  11  24  39  53  75 107 140 182 227 261 306
#     4  11  21  35  53  73 104 143 181 217 256 307
#     4   9  18  33  51  76 103 131 173 214 255 315
#     4  10  21  37  57  76 101 136 176 223 269 311
#
# _framework density 18.611757999999998
#
# number of rings (size 3 to 8) (size 9 to 14) (size 15 to 20)
#    0.000    2.000    2.500    2.625    0.000    7.500 
#    0.000    1.250    0.000    0.375    0.000    1.750 
#    0.000    1.500    0.000    2.750    0.000    0.000 
#
# Total GULP energy -792933.597600 kJ/mol
# GULP energy per Si atom -12389.587462 kJ/mol
# Density = 1.856940 g / cm^3
# Si number density = 18.611758 Si / 1000 Ang^3
#
#
#
# Elastic Constant Matrix: (Units=GPa)
#
#
# Indices 1 2 3 4 5 6 
#
# 1 91.3931 45.0836 27.4785 0.0000 0.0000 0.0000
# 2 45.0836 101.0110 13.2693 0.0000 0.0000 0.0000
# 3 27.4785 13.2693 52.5735 0.0000 0.0000 0.0000
# 4 0.0000 0.0000 0.0000 14.6544 0.0000 0.0000
# 5 0.0000 0.0000 0.0000 0.0000 16.8477 0.0000
# 6 0.0000 0.0000 0.0000 0.0000 0.0000 21.0484
#
#
#
# Elastic Compliance Matrix: (Units=1/GPa)
#
#
# Indices 1 2 3 4 5 6 
#
# 1 0.016095 -0.006287 -0.006826 0.000000 0.000000 0.000000
# 2 -0.006287 0.012695 0.000082 0.000000 0.000000 0.000000
# 3 -0.006826 0.000082 0.022568 0.000000 0.000000 0.000000
# 4 0.000000 0.000000 0.000000 0.068239 0.000000 0.000000
# 5 0.000000 0.000000 0.000000 0.000000 0.059355 0.000000
# 6 0.000000 0.000000 0.000000 0.000000 0.000000 0.047509
#
#
# Mechanical properties :
#
#
# Convention : Reuss Voigt Hill
#
# Bulk Modulus (GPa) = 39.53099 46.29340 42.91220
# Shear Modulus (GPa) = 19.16029 21.11985 20.14007
#
# Velocity S-wave (km/s) = 3.21202 3.37227 3.29312
# Velocity P-wave (km/s) = 5.91963 6.33168 6.12912
#
# Compressibility (1/GPa) = 0.02529661
#
# Stress axis : x y z
#
# Youngs Moduli (GPa) = 62.12968 78.76971 44.31072
#
# Poissons Ratio (x) = 0.49523 0.30245
# Poissons Ratio (y) = 0.39061 -0.00363
# Poissons Ratio (z) = 0.42408 -0.00645
#
# Static dielectric constant tensor:
#      x y z
#    x 3.504230 0.000000 0.000000 
#    y 0.000000 3.555270 0.000000 
#    z 0.000000 0.000000 3.279210 
# 
# 
# High freq. dielectric constant tensor:
#      x y z
#    x 1.693970 0.000000 0.000000 
#    y 0.000000 1.709790 0.000000 
#    z 0.000000 0.000000 1.710460 
# 
# From -- ./inp_files/47751.got.cif
#   From: 2010.06.25/outbox.cif.g09.slc.cpg/sg71_24_cif.got.tgz:47751.got - 2010.06.28 04:59:45.
