data_PCOD8289153
_publ_section_title
;
Structure prediction by ZEFSAII (Michael W. Deem and Ramdas Pophale) SiO2 
 PCOD8289153
Probable space group: I M M M
;
_chemical_formula_sum "Si O2"
_cell_formula_units_Z 112
_cell_length_a 18.633583
_cell_length_b 18.646696
_cell_length_c 18.644888
_cell_angle_alpha 90.000000
_cell_angle_beta 90.000000
_cell_angle_gamma 90.000000
_cell_volume 6478.255040
_symmetry_space_group_name_H-M "I M M M"
_symmetry_group_IT_number 71
_symmetry_cell_setting 'orthorhombic'
loop_
_space_group_symop_operation_xyz
x,y,z
-x,-y,z
x,-y,-z
-x,y,-z
-x,-y,-z
x,y,-z
-x,y,z
x,-y,z
1/2+x,1/2+y,1/2+z
1/2-x,1/2-y,1/2+z
1/2+x,1/2-y,1/2-z
1/2-x,1/2+y,1/2-z
1/2-x,1/2-y,1/2-z
1/2+x,1/2+y,1/2-z
1/2-x,1/2+y,1/2+z
1/2+x,1/2-y,1/2+z
loop_
_atom_site_type_symbol
_atom_site_label
_atom_site_fract_x
_atom_site_fract_y
_atom_site_fract_z
Si Si1 0.622681 0.584488 0.422716
Si Si2 0.171155 0.323479 0.301103
Si Si3 0.298796 0.661688 0.807319
Si Si4 0.299332 0.085063 0.414698
Si Si5 0.083558 0.675122 0.170984
Si Si6 0.215994 0.581078 0.581074
Si Si7 0.921191 0.166602 0.205114
O O1 0.594213 0.612723 0.500000
O O2 0.623723 0.500000 0.424183
O O3 0.703760 0.612487 0.410911
O O4 0.571934 0.610593 0.359483
O O5 0.237377 0.345287 0.251480
O O6 0.182420 0.242827 0.329567
O O7 0.099826 0.341150 0.254720
O O8 0.163206 0.372456 0.370539
O O9 0.273650 0.615138 0.876526
O O10 0.371040 0.633844 0.767875
O O11 0.293821 0.099001 0.500000
O O12 0.368596 0.127902 0.383780
O O13 0.307448 0.000000 0.398741
O O14 0.106512 0.759407 0.167543
O O15 0.000000 0.661331 0.152805
O O16 0.188586 0.586449 0.500000
O O17 0.213305 0.500000 0.608925
O O18 0.000000 0.178684 0.238634
#
# Coordination Sequence:
#
# PCOD8289153 Si02
#       7
#    16  16  16  16  16  16  16
#     4   9  18  30  43  66 103 138 163 193 234 282
#     4   9  16  30  51  73  97 127 164 203 247 289
#     4   9  18  32  49  73  97 124 165 213 252 295
#     4  10  22  37  53  74  99 130 169 216 264 303
#     4   9  20  36  53  75 102 130 163 203 251 308
#     4   9  17  28  45  71 100 129 160 195 235 281
#     4  10  19  33  52  74 103 136 167 204 246 294
#
# _framework density 17.288605
#
# number of rings (size 3 to 8) (size 9 to 14) (size 15 to 20)
#    0.000    2.714    1.429    1.714    0.000    5.143 
#    0.000    2.857    0.000    0.857    0.000    6.000 
#    0.000    0.000    0.000    0.000    0.000    0.000 
#
# Total GULP energy -693802.514878 kJ/mol
# GULP energy per Si atom -12389.330623 kJ/mol
# Density = 1.724926 g / cm^3
# Si number density = 17.288605 Si / 1000 Ang^3
#
#
#
# Elastic Constant Matrix: (Units=GPa)
#
#
# Indices 1 2 3 4 5 6 
#
# 1 73.6489 31.3420 49.8313 0.0000 0.0000 0.0000
# 2 31.3420 52.3928 51.3533 0.0000 0.0000 0.0000
# 3 49.8313 51.3533 98.2851 0.0000 0.0000 0.0000
# 4 0.0000 0.0000 0.0000 32.9212 0.0000 0.0000
# 5 0.0000 0.0000 0.0000 0.0000 -18.7868 0.0000
# 6 0.0000 0.0000 0.0000 0.0000 0.0000 15.2384
#
#
#
# Elastic Compliance Matrix: (Units=1/GPa)
#
#
# Indices 1 2 3 4 5 6 
#
# 1 0.021149 -0.004390 -0.008429 0.000000 0.000000 0.000000
# 2 -0.004390 0.040033 -0.018691 0.000000 0.000000 0.000000
# 3 -0.008429 -0.018691 0.024214 0.000000 0.000000 0.000000
# 4 0.000000 0.000000 0.000000 0.030376 0.000000 0.000000
# 5 0.000000 0.000000 0.000000 0.000000 -0.053229 0.000000
# 6 0.000000 0.000000 0.000000 0.000000 0.000000 0.065624
#
#
# Mechanical properties :
#
#
# Convention : Reuss Voigt Hill
#
# Bulk Modulus (GPa) = 44.69086 54.37557 49.53322
# Shear Modulus (GPa) = 25.17030 11.99457 18.58244
#
# Velocity S-wave (km/s) = 3.81975 2.63684 3.28203
# Velocity P-wave (km/s) = 6.73498 6.38674 6.56317
#
# Compressibility (1/GPa) = 0.02237594
#
# Stress axis : x y z
#
# Youngs Moduli (GPa) = 47.28288 24.97926 41.29790
#
# Poissons Ratio (x) = 0.10965 0.34811
# Poissons Ratio (y) = 0.20756 0.77192
# Poissons Ratio (z) = 0.39856 0.46690
#
# Static dielectric constant tensor:
#      x y z
#    x 3.163240 0.000000 0.000000 
#    y 0.000000 3.188040 0.000000 
#    z 0.000000 0.000000 3.240430 
# 
# 
# High freq. dielectric constant tensor:
#      x y z
#    x 1.646360 0.000000 0.000000 
#    y 0.000000 1.662770 0.000000 
#    z 0.000000 0.000000 1.657990 
# 
# From -- ./inp_files/46387.got.cif
#   From: 2010.06.25/outbox.cif.g09.slc.cpg/sg71_24_cif.got.tgz:46387.got - 2010.06.28 04:59:45.
