data_PCOD8289149
_publ_section_title
;
Structure prediction by ZEFSAII (Michael W. Deem and Ramdas Pophale) SiO2 
 PCOD8289149
Probable space group: I M M M
;
_chemical_formula_sum "Si O2"
_cell_formula_units_Z 68
_cell_length_a 7.653890
_cell_length_b 21.398291
_cell_length_c 23.322421
_cell_angle_alpha 90.000000
_cell_angle_beta 90.000000
_cell_angle_gamma 90.000000
_cell_volume 3819.749971
_symmetry_space_group_name_H-M "I M M M"
_symmetry_group_IT_number 71
_symmetry_cell_setting 'orthorhombic'
loop_
_space_group_symop_operation_xyz
x,y,z
-x,-y,z
x,-y,-z
-x,y,-z
-x,-y,-z
x,y,-z
-x,y,z
x,-y,z
1/2+x,1/2+y,1/2+z
1/2-x,1/2-y,1/2+z
1/2+x,1/2-y,1/2-z
1/2-x,1/2+y,1/2-z
1/2-x,1/2-y,1/2-z
1/2+x,1/2+y,1/2-z
1/2-x,1/2+y,1/2+z
1/2+x,1/2-y,1/2+z
loop_
_atom_site_type_symbol
_atom_site_label
_atom_site_fract_x
_atom_site_fract_y
_atom_site_fract_z
Si Si1 0.803249 0.658109 0.792581
Si Si2 0.793108 0.289834 0.670194
Si Si3 0.500000 0.430598 0.195103
Si Si4 0.000000 0.000000 0.196340
Si Si5 0.794600 0.633733 0.437584
Si Si6 0.797230 0.500000 0.393685
O O1 0.743996 0.671213 0.727091
O O2 0.796361 0.722264 0.828411
O O3 0.674030 0.607828 0.821811
O O4 0.000000 0.631285 0.795005
O O5 0.715038 0.325832 0.614591
O O6 0.000000 0.280774 0.667009
O O7 0.500000 0.500000 0.165280
O O8 0.500000 0.438450 0.263925
O O9 0.179863 0.000000 0.162318
O O10 0.719947 0.654919 0.500000
O O11 0.750094 0.560707 0.430734
O O12 0.000000 0.643596 0.436490
O O13 0.000000 0.500000 0.374047
#
# Coordination Sequence:
#
# PCOD8289149 Si02
#       6
#    16  16   8   4  16   8
#     4  10  19  33  52  73  97 132 170 210 261 309
#     4   9  17  30  50  72  99 131 175 216 252 306
#     4  10  22  34  48  75 105 127 162 217 252 310
#     4  10  22  32  49  74 100 134 171 214 250 292
#     4   9  17  30  50  73 100 139 180 219 257 292
#     4  10  19  34  50  68  98 142 184 217 249 292
#
# _framework density 17.802212000000001
#
# number of rings (size 3 to 8) (size 9 to 14) (size 15 to 20)
#    0.353    2.118    1.176    1.765    1.647    4.706 
#    2.118    1.176    0.000    0.000    0.000    0.000 
#    0.000    1.882    0.000    2.118    0.000    0.000 
#
# Total GULP energy -421387.216710 kJ/mol
# GULP energy per Si atom -12393.741668 kJ/mol
# Density = 1.776169 g / cm^3
# Si number density = 17.802212 Si / 1000 Ang^3
#
#
#
# Elastic Constant Matrix: (Units=GPa)
#
#
# Indices 1 2 3 4 5 6 
#
# 1 68.0510 37.3687 -0.4932 0.0000 0.0000 0.0000
# 2 37.3687 111.5012 41.1768 -0.0001 0.0000 0.0000
# 3 -0.4932 41.1768 87.1690 0.0000 0.0000 0.0000
# 4 0.0000 -0.0001 0.0000 -320.8652 0.0000 0.0000
# 5 0.0000 0.0000 0.0000 0.0000 11.9038 0.0000
# 6 0.0000 0.0000 0.0000 0.0000 0.0000 15.3924
#
#
#
# Elastic Compliance Matrix: (Units=1/GPa)
#
#
# Indices 1 2 3 4 5 6 
#
# 1 0.018980 -0.007753 0.003770 0.000000 0.000000 0.000000
# 2 -0.007753 0.014031 -0.006672 0.000000 0.000000 0.000000
# 3 0.003770 -0.006672 0.014645 0.000000 0.000000 0.000000
# 4 0.000000 0.000000 0.000000 -0.003117 0.000000 0.000000
# 5 0.000000 0.000000 0.000000 0.000000 0.084006 0.000000
# 6 0.000000 0.000000 0.000000 0.000000 0.000000 0.064967
#
#
# Mechanical properties :
#
#
# Convention : Reuss Voigt Hill
#
# Bulk Modulus (GPa) = 37.95748 46.98064 42.46906
# Shear Modulus (GPa) = 22.36098 -46.13588 -11.88745
#
# Velocity S-wave (km/s) = 3.54797 -5.09628 -2.58689
# Velocity P-wave (km/s) = 6.17674 2.86039 3.87107
#
# Compressibility (1/GPa) = 0.02634527
#
# Stress axis : x y z
#
# Youngs Moduli (GPa) = 52.68824 71.27243 68.28337
#
# Poissons Ratio (x) = 0.55257 -0.25741
# Poissons Ratio (y) = 0.40849 0.45556
# Poissons Ratio (z) = -0.19862 0.47551
#
# Static dielectric constant tensor:
#      x y z
#    x 3.151220 0.000000 0.000000 
#    y 0.000000 3.324980 0.000000 
#    z 0.000000 0.000000 3.213560 
# 
# 
# High freq. dielectric constant tensor:
#      x y z
#    x 1.688010 0.000000 0.000000 
#    y 0.000000 1.679980 0.000000 
#    z 0.000000 0.000000 1.643620 
# 
# From -- ./inp_files/63016.got.cif
#   From: 2010.06.25/outbox.cif.g09.slc.cpg/sg71_32_cif.got.tgz:63016.got - 2010.06.28 04:59:45.
