data_PCOD8289264
_publ_section_title
;
Structure prediction by ZEFSAII (Michael W. Deem and Ramdas Pophale) SiO2 
 PCOD8289264
Probable space group: I M M M
;
_chemical_formula_sum "Si O2"
_cell_formula_units_Z 104
_cell_length_a 17.221820
_cell_length_b 25.196098
_cell_length_c 13.876192
_cell_angle_alpha 90.000000
_cell_angle_beta 90.000000
_cell_angle_gamma 90.000000
_cell_volume 6021.194205
_symmetry_space_group_name_H-M "I M M M"
_symmetry_group_IT_number 71
_symmetry_cell_setting 'orthorhombic'
loop_
_space_group_symop_operation_xyz
x,y,z
-x,-y,z
x,-y,-z
-x,y,-z
-x,-y,-z
x,y,-z
-x,y,z
x,-y,z
1/2+x,1/2+y,1/2+z
1/2-x,1/2-y,1/2+z
1/2+x,1/2-y,1/2-z
1/2-x,1/2+y,1/2-z
1/2-x,1/2-y,1/2-z
1/2+x,1/2+y,1/2-z
1/2-x,1/2+y,1/2+z
1/2+x,1/2-y,1/2+z
loop_
_atom_site_type_symbol
_atom_site_label
_atom_site_fract_x
_atom_site_fract_y
_atom_site_fract_z
Si Si1 0.411995 0.062196 0.890244
Si Si2 0.086932 0.729429 0.790342
Si Si3 0.781398 0.212380 0.890168
Si Si4 0.587086 0.500000 0.114296
Si Si5 0.136975 0.783284 0.607521
Si Si6 0.185626 0.100224 0.388731
Si Si7 0.808697 0.366198 0.742671
O O1 0.500000 0.077504 0.861463
O O2 0.352154 0.091235 0.821871
O O3 0.398810 0.000000 0.878589
O O4 0.396156 0.079908 0.000000
O O5 0.132725 0.770034 0.859130
O O6 0.081654 0.753457 0.682344
O O7 0.128205 0.672581 0.790026
O O8 0.000000 0.722774 0.830543
O O9 0.725351 0.263253 0.876141
O O10 0.753554 0.164709 0.822777
O O11 0.782677 0.192505 0.000000
O O12 0.500000 0.500000 0.158375
O O13 0.632562 0.447788 0.150062
O O14 0.581513 0.500000 0.000000
O O15 0.108106 0.768550 0.500000
O O16 0.135341 0.846255 0.623287
O O17 0.209804 0.091800 0.500000
O O18 0.264223 0.102558 0.326937
#
# Coordination Sequence:
#
# PCOD8289264 Si02
#       7
#    16  16  16   8  16  16  16
#     4   9  19  35  54  78 106 134 169 216 268 312
#     4  11  21  32  47  74 106 135 168 207 254 306
#     4  10  19  34  51  71 101 135 171 210 247 297
#     4   9  20  36  52  76 104 129 160 206 262 307
#     4   9  17  33  53  72  97 132 169 206 249 298
#     4  10  19  33  55  77 103 135 169 209 253 305
#     4  11  19  34  53  79 101 135 173 215 254 303
#
# _framework density 17.272321000000002
#
# number of rings (size 3 to 8) (size 9 to 14) (size 15 to 20)
#    0.000    2.077    3.077    2.308    1.077    1.846 
#    0.000    1.538    0.000    1.385    0.000    1.077 
#    0.000    1.231    0.000    0.000    0.000    0.000 
#
# Total GULP energy -644862.126259 kJ/mol
# GULP energy per Si atom -12401.194736 kJ/mol
# Density = 1.723301 g / cm^3
# Si number density = 17.272321 Si / 1000 Ang^3
#
#
#
# Elastic Constant Matrix: (Units=GPa)
#
#
# Indices 1 2 3 4 5 6 
#
# 1 121.8616 49.5552 44.6050 0.0000 0.0000 0.0000
# 2 49.5552 85.6860 34.1761 0.0000 0.0000 0.0000
# 3 44.6050 34.1761 67.7828 0.0000 0.0000 0.0000
# 4 0.0000 0.0000 0.0000 25.6764 0.0000 0.0000
# 5 0.0000 0.0000 0.0000 0.0000 21.5816 0.0000
# 6 0.0000 0.0000 0.0000 0.0000 0.0000 21.4012
#
#
#
# Elastic Compliance Matrix: (Units=1/GPa)
#
#
# Indices 1 2 3 4 5 6 
#
# 1 0.012224 -0.004833 -0.005607 0.000000 0.000000 0.000000
# 2 -0.004833 0.016519 -0.005149 0.000000 0.000000 0.000000
# 3 -0.005607 -0.005149 0.021039 0.000000 0.000000 0.000000
# 4 0.000000 0.000000 0.000000 0.038946 0.000000 0.000000
# 5 0.000000 0.000000 0.000000 0.000000 0.046336 0.000000
# 6 0.000000 0.000000 0.000000 0.000000 0.000000 0.046726
#
#
# Mechanical properties :
#
#
# Convention : Reuss Voigt Hill
#
# Bulk Modulus (GPa) = 53.75124 59.11146 56.43135
# Shear Modulus (GPa) = 22.81346 23.53145 23.17246
#
# Velocity S-wave (km/s) = 3.63824 3.69505 3.66675
# Velocity P-wave (km/s) = 6.98831 7.24583 7.11823
#
# Compressibility (1/GPa) = 0.01860422
#
# Stress axis : x y z
#
# Youngs Moduli (GPa) = 81.80793 60.53586 47.53137
#
# Poissons Ratio (x) = 0.29257 0.26651
# Poissons Ratio (y) = 0.39538 0.24472
# Poissons Ratio (z) = 0.45871 0.31167
#
# Static dielectric constant tensor:
#      x y z
#    x 3.097710 0.000000 0.000000 
#    y 0.000000 3.173560 0.000000 
#    z 0.000000 0.000000 3.232040 
# 
# 
# High freq. dielectric constant tensor:
#      x y z
#    x 1.655280 0.000000 0.000000 
#    y 0.000000 1.662180 0.000000 
#    z 0.000000 0.000000 1.658890 
# 
# From -- ./inp_files/36909.got.cif
#   From: 2010.06.25/outbox.cif.g09.slc.cpg/sg71_19_cif.got.tgz:36909.got - 2010.06.28 04:59:45.
