data_PCOD8289746
_publ_section_title
;
Structure prediction by ZEFSAII (Michael W. Deem and Ramdas Pophale) SiO2 
 PCOD8289746
Probable space group: I M M M
;
_chemical_formula_sum "Si O2"
_cell_formula_units_Z 112
_cell_length_a 17.551176
_cell_length_b 23.507976
_cell_length_c 14.479617
_cell_angle_alpha 90.000000
_cell_angle_beta 90.000000
_cell_angle_gamma 90.000000
_cell_volume 5974.183175
_symmetry_space_group_name_H-M "I M M M"
_symmetry_group_IT_number 71
_symmetry_cell_setting 'orthorhombic'
loop_
_space_group_symop_operation_xyz
x,y,z
-x,-y,z
x,-y,-z
-x,y,-z
-x,-y,-z
x,y,-z
-x,y,z
x,-y,z
1/2+x,1/2+y,1/2+z
1/2-x,1/2-y,1/2+z
1/2+x,1/2-y,1/2-z
1/2-x,1/2+y,1/2-z
1/2-x,1/2-y,1/2-z
1/2+x,1/2+y,1/2-z
1/2-x,1/2+y,1/2+z
1/2+x,1/2-y,1/2+z
loop_
_atom_site_type_symbol
_atom_site_label
_atom_site_fract_x
_atom_site_fract_y
_atom_site_fract_z
Si Si1 0.211553 0.728591 0.892868
Si Si2 0.855772 0.564811 0.107319
Si Si3 0.587896 0.169583 0.719741
Si Si4 0.198353 0.882036 0.394888
Si Si5 0.586185 0.565801 0.241414
Si Si6 0.687581 0.835902 0.107324
Si Si7 0.796360 0.064181 0.104351
O O1 0.134871 0.718246 0.834489
O O2 0.272535 0.680260 0.866234
O O3 0.249002 0.788681 0.868101
O O4 0.188957 0.724166 0.000000
O O5 0.878313 0.500000 0.132037
O O6 0.902851 0.607922 0.171415
O O7 0.765562 0.572672 0.124999
O O8 0.874254 0.578464 0.000000
O O9 0.500000 0.187240 0.718574
O O10 0.614645 0.168711 0.826619
O O11 0.172125 0.883386 0.500000
O O12 0.123660 0.896731 0.338005
O O13 0.500000 0.586366 0.254537
O O14 0.590399 0.500000 0.212642
O O15 0.629109 0.577730 0.336801
O O16 0.725636 0.896236 0.131093
O O17 0.661788 0.830940 0.000000
O O18 0.767352 0.000000 0.119896
O O19 0.822091 0.075742 0.000000
#
# Coordination Sequence:
#
# PCOD8289746 Si02
#       7
#    16  16  16  16  16  16  16
#     4   9  19  37  58  77 100 134 175 216 257 303
#     4   9  18  33  54  79 106 139 178 216 256 308
#     4  11  22  34  53  81 111 140 168 209 264 313
#     4   9  17  31  51  72  97 133 174 210 245 295
#     4  10  20  31  45  70 104 136 164 205 261 310
#     4  10  21  38  58  77 101 137 179 217 253 302
#     4   9  18  34  56  76  93 123 170 217 256 298
#
# _framework density 18.747333000000001
#
# number of rings (size 3 to 8) (size 9 to 14) (size 15 to 20)
#    0.000    2.429    0.000    3.857    0.000    4.857 
#    0.000    5.714    0.000    5.143    0.000    3.000 
#    0.000    0.000    0.000    0.000    0.000    0.000 
#
# Total GULP energy -694460.007478 kJ/mol
# GULP energy per Si atom -12401.071562 kJ/mol
# Density = 1.870466 g / cm^3
# Si number density = 18.747333 Si / 1000 Ang^3
#
#
#
# Elastic Constant Matrix: (Units=GPa)
#
#
# Indices 1 2 3 4 5 6 
#
# 1 87.8917 22.1501 58.5850 0.0000 0.0000 0.0000
# 2 22.1501 74.0993 40.3258 0.0000 0.0000 0.0000
# 3 58.5850 40.3258 90.8525 -0.0001 0.0000 0.0000
# 4 0.0000 0.0000 -0.0001 23.5125 0.0000 0.0000
# 5 0.0000 0.0000 0.0000 0.0000 16.0743 0.0000
# 6 0.0000 0.0000 0.0000 0.0000 0.0000 11.9581
#
#
#
# Elastic Compliance Matrix: (Units=1/GPa)
#
#
# Indices 1 2 3 4 5 6 
#
# 1 0.020060 0.001375 -0.013546 0.000000 0.000000 0.000000
# 2 0.001375 0.017888 -0.008827 0.000000 0.000000 0.000000
# 3 -0.013546 -0.008827 0.023660 0.000000 0.000000 0.000000
# 4 0.000000 0.000000 0.000000 0.042531 0.000000 0.000000
# 5 0.000000 0.000000 0.000000 0.000000 0.062211 0.000000
# 6 0.000000 0.000000 0.000000 0.000000 0.000000 0.083625
#
#
# Mechanical properties :
#
#
# Convention : Reuss Voigt Hill
#
# Bulk Modulus (GPa) = 50.98610 54.99616 52.99113
# Shear Modulus (GPa) = 16.75000 19.09447 17.92223
#
# Velocity S-wave (km/s) = 2.99232 3.19488 3.09526
# Velocity P-wave (km/s) = 6.26052 6.55811 6.41105
#
# Compressibility (1/GPa) = 0.01961319
#
# Stress axis : x y z
#
# Youngs Moduli (GPa) = 49.84975 55.90396 42.26604
#
# Poissons Ratio (x) = -0.07689 0.57254
# Poissons Ratio (y) = -0.06857 0.37307
# Poissons Ratio (z) = 0.67527 0.49344
#
# Static dielectric constant tensor:
#      x y z
#    x 3.133120 0.000000 0.000000 
#    y 0.000000 3.562630 0.000000 
#    z 0.000000 0.000000 3.554460 
# 
# 
# High freq. dielectric constant tensor:
#      x y z
#    x 1.697200 0.000000 0.000000 
#    y 0.000000 1.728540 0.000000 
#    z 0.000000 0.000000 1.739850 
# 
# From -- ./inp_files/35107.got.cif
#   From: 2010.06.25/outbox.cif.g09.slc.cpg/sg71_18_cif.got.tgz:35107.got - 2010.06.28 04:59:45.
