data_PCOD8289087
_publ_section_title
;
Structure prediction by ZEFSAII (Michael W. Deem and Ramdas Pophale) SiO2 
 PCOD8289087
Probable space group: I M M M
;
_chemical_formula_sum "Si O2"
_cell_formula_units_Z 80
_cell_length_a 15.498543
_cell_length_b 28.698413
_cell_length_c 9.003530
_cell_angle_alpha 90.000000
_cell_angle_beta 90.000000
_cell_angle_gamma 90.000000
_cell_volume 4004.622377
_symmetry_space_group_name_H-M "I M M M"
_symmetry_group_IT_number 71
_symmetry_cell_setting 'orthorhombic'
loop_
_space_group_symop_operation_xyz
x,y,z
-x,-y,z
x,-y,-z
-x,y,-z
-x,-y,-z
x,y,-z
-x,y,z
x,-y,z
1/2+x,1/2+y,1/2+z
1/2-x,1/2-y,1/2+z
1/2+x,1/2-y,1/2-z
1/2-x,1/2+y,1/2-z
1/2-x,1/2-y,1/2-z
1/2+x,1/2+y,1/2-z
1/2-x,1/2+y,1/2+z
1/2+x,1/2-y,1/2+z
loop_
_atom_site_type_symbol
_atom_site_label
_atom_site_fract_x
_atom_site_fract_y
_atom_site_fract_z
Si Si1 0.170340 0.300910 0.331031
Si Si2 0.254181 0.553365 0.174988
Si Si3 0.846903 0.802182 0.328603
Si Si4 0.903430 0.110670 0.829633
Si Si5 0.903356 0.601677 0.670469
O O1 0.206920 0.300524 0.500000
O O2 0.124098 0.251294 0.298757
O O3 0.247604 0.309073 0.216761
O O4 0.102831 0.342524 0.308224
O O5 0.257933 0.500000 0.226272
O O6 0.336625 0.579069 0.241643
O O7 0.164418 0.574921 0.228422
O O8 0.258810 0.558714 0.000000
O O9 0.857312 0.815943 0.500000
O O10 0.905401 0.836701 0.232431
O O11 0.000000 0.089981 0.813155
O O12 0.873830 0.111820 0.000000
O O13 0.884992 0.588205 0.500000
O O14 0.000000 0.586685 0.717142
#
# Coordination Sequence:
#
# PCOD8289087 Si02
#       5
#    16  16  16  16  16
#     4   9  18  33  55  85 123 163 201 241 286 342
#     4  11  25  44  65  89 117 150 193 249 309 363
#     4  10  19  32  56  88 122 160 201 243 289 343
#     4  11  24  41  62  89 121 157 199 245 295 357
#     4  10  21  38  62  91 122 159 202 243 288 348
#
# _framework density 19.976914000000001
#
# number of rings (size 3 to 8) (size 9 to 14) (size 15 to 20)
#    0.000    1.800    2.000    1.800    0.000    6.000 
#    0.000    6.000    0.000    0.000    0.000    0.000 
#    0.000    0.000    0.000    0.000    0.000    0.000 
#
# Total GULP energy -496016.549306 kJ/mol
# GULP energy per Si atom -12400.413733 kJ/mol
# Density = 1.993145 g / cm^3
# Si number density = 19.976914 Si / 1000 Ang^3
#
#
#
# Elastic Constant Matrix: (Units=GPa)
#
#
# Indices 1 2 3 4 5 6 
#
# 1 107.6611 57.7139 41.1903 0.0006 0.0002 0.0001
# 2 57.7139 127.0085 53.8586 0.0037 0.0006 0.0002
# 3 41.1903 53.8586 79.9808 0.0097 0.0010 0.0000
# 4 0.0006 0.0037 0.0097 30.2600 0.0006 0.0001
# 5 0.0002 0.0006 0.0010 0.0006 19.3892 -0.0003
# 6 0.0001 0.0002 0.0000 0.0001 -0.0003 6.8989
#
#
#
# Elastic Compliance Matrix: (Units=1/GPa)
#
#
# Indices 1 2 3 4 5 6 
#
# 1 0.013064 -0.004316 -0.003822 0.000001 0.000000 0.000000
# 2 -0.004316 0.012446 -0.006159 0.000001 0.000000 0.000000
# 3 -0.003822 -0.006159 0.018618 -0.000005 -0.000001 0.000000
# 4 0.000001 0.000001 -0.000005 0.033047 -0.000001 -0.000001
# 5 0.000000 0.000000 -0.000001 -0.000001 0.051575 0.000002
# 6 0.000000 0.000000 0.000000 -0.000001 0.000002 0.144950
#
#
# Mechanical properties :
#
#
# Convention : Reuss Voigt Hill
#
# Bulk Modulus (GPa) = 64.36511 68.90844 66.63678
# Shear Modulus (GPa) = 16.26165 22.10215 19.18190
#
# Velocity S-wave (km/s) = 2.85620 3.32984 3.10208
# Velocity P-wave (km/s) = 6.57015 7.02515 6.80146
#
# Compressibility (1/GPa) = 0.01553637
#
# Stress axis : x y z
#
# Youngs Moduli (GPa) = 76.54511 80.34590 53.71045
#
# Poissons Ratio (x) = 0.34676 0.20527
# Poissons Ratio (y) = 0.33036 0.33078
# Poissons Ratio (z) = 0.29254 0.49481
#
# Static dielectric constant tensor:
#      x y z
#    x 3.423530 0.000000 0.000000 
#    y 0.000000 3.843750 -0.000010 
#    z 0.000000 -0.000010 3.687790 
# 
# 
# High freq. dielectric constant tensor:
#      x y z
#    x 1.768740 0.000000 0.000000 
#    y 0.000000 1.784160 0.000000 
#    z 0.000000 0.000000 1.783090 
# 
# From -- ./inp_files/8645.got.cif
#   From: 2010.06.25/outbox.cif.g09.slc.cpg/sg71_5_cif.got.tgz:8645.got - 2010.06.28 04:59:45.
