data_PCOD8289407
_publ_section_title
;
Structure prediction by ZEFSAII (Michael W. Deem and Ramdas Pophale) SiO2 
 PCOD8289407
Probable space group: I M M M
;
_chemical_formula_sum "Si O2"
_cell_formula_units_Z 64
_cell_length_a 23.187881
_cell_length_b 13.401589
_cell_length_c 10.424584
_cell_angle_alpha 90.000000
_cell_angle_beta 90.000000
_cell_angle_gamma 90.000000
_cell_volume 3239.485877
_symmetry_space_group_name_H-M "I M M M"
_symmetry_group_IT_number 71
_symmetry_cell_setting 'orthorhombic'
loop_
_space_group_symop_operation_xyz
x,y,z
-x,-y,z
x,-y,-z
-x,y,-z
-x,-y,-z
x,y,-z
-x,y,z
x,-y,z
1/2+x,1/2+y,1/2+z
1/2-x,1/2-y,1/2+z
1/2+x,1/2-y,1/2-z
1/2-x,1/2+y,1/2-z
1/2-x,1/2-y,1/2-z
1/2+x,1/2+y,1/2-z
1/2-x,1/2+y,1/2+z
1/2+x,1/2-y,1/2+z
loop_
_atom_site_type_symbol
_atom_site_label
_atom_site_fract_x
_atom_site_fract_y
_atom_site_fract_z
Si Si1 0.132732 0.386801 0.500000
Si Si2 0.654260 0.388325 0.228175
Si Si3 0.566265 0.790881 0.777638
Si Si4 0.176444 0.832126 0.000000
Si Si5 0.563630 0.777181 0.500000
Si Si6 0.717963 0.707082 0.000000
O O1 0.155005 0.500000 0.500000
O O2 0.093759 0.369218 0.374735
O O3 0.187900 0.315633 0.500000
O O4 0.632866 0.500000 0.196341
O O5 0.599577 0.314922 0.217033
O O6 0.686651 0.390494 0.366743
O O7 0.702408 0.355393 0.125898
O O8 0.500000 0.770992 0.815888
O O9 0.571261 0.838704 0.633448
O O10 0.213729 0.729806 0.000000
O O11 0.108448 0.812061 0.000000
O O12 0.500000 0.727814 0.500000
#
# Coordination Sequence:
#
# PCOD8289407 Si02
#       6
#     8  16  16   8   8   8
#     4  10  21  35  52  75 102 137 182 224 256 295
#     4  10  20  34  54  80 108 137 172 213 258 312
#     4   9  18  33  53  77 106 138 171 212 262 311
#     4  10  19  34  55  77 104 140 175 211 253 305
#     4   8  16  33  54  75 102 133 165 207 260 313
#     4  10  21  37  53  75 109 141 172 214 262 306
#
# _framework density 19.756221
#
# number of rings (size 3 to 8) (size 9 to 14) (size 15 to 20)
#    0.000    2.500    0.000    1.875    0.000    2.500 
#    0.000    0.625    0.000   20.250    0.000    0.000 
#    0.000    0.000    0.000    0.000    0.000    0.000 
#
# Total GULP energy -396493.060264 kJ/mol
# GULP energy per Si atom -12390.408133 kJ/mol
# Density = 1.971126 g / cm^3
# Si number density = 19.756221 Si / 1000 Ang^3
#
#
#
# Elastic Constant Matrix: (Units=GPa)
#
#
# Indices 1 2 3 4 5 6 
#
# 1 68.3296 14.8730 27.5356 0.0000 0.0000 0.0000
# 2 14.8730 90.1271 46.6670 0.0000 0.0000 0.0000
# 3 27.5356 46.6670 145.7350 0.0000 0.0000 0.0000
# 4 0.0000 0.0000 0.0000 9.5345 0.0000 0.0000
# 5 0.0000 0.0000 0.0000 0.0000 20.2957 0.0000
# 6 0.0000 0.0000 0.0000 0.0000 0.0000 13.3608
#
#
#
# Elastic Compliance Matrix: (Units=1/GPa)
#
#
# Indices 1 2 3 4 5 6 
#
# 1 0.015964 -0.001286 -0.002605 0.000000 0.000000 0.000000
# 2 -0.001286 0.013404 -0.004049 0.000000 0.000000 0.000000
# 3 -0.002605 -0.004049 0.008651 0.000000 0.000000 0.000000
# 4 0.000000 0.000000 0.000000 0.104882 0.000000 0.000000
# 5 0.000000 0.000000 0.000000 0.000000 0.049271 0.000000
# 6 0.000000 0.000000 0.000000 0.000000 0.000000 0.074846
#
#
# Mechanical properties :
#
#
# Convention : Reuss Voigt Hill
#
# Bulk Modulus (GPa) = 45.16768 53.59364 49.38066
# Shear Modulus (GPa) = 17.22486 22.97929 20.10207
#
# Velocity S-wave (km/s) = 2.95595 3.41419 3.19330
# Velocity P-wave (km/s) = 5.87897 6.53671 6.21655
#
# Compressibility (1/GPa) = 0.02213972
#
# Stress axis : x y z
#
# Youngs Moduli (GPa) = 62.63916 74.60260 115.59927
#
# Poissons Ratio (x) = 0.09593 0.30109
# Poissons Ratio (y) = 0.08054 0.46810
# Poissons Ratio (z) = 0.16315 0.30209
#
# Static dielectric constant tensor:
#      x y z
#    x 3.553100 0.000000 0.000000 
#    y 0.000000 3.104230 0.000000 
#    z 0.000000 0.000000 4.262300 
# 
# 
# High freq. dielectric constant tensor:
#      x y z
#    x 1.766180 0.000000 0.000000 
#    y 0.000000 1.723600 0.000000 
#    z 0.000000 0.000000 1.803790 
# 
# From -- ./inp_files/26920.got.cif
#   From: 2010.06.25/outbox.cif.g09.slc.cpg/sg71_14_cif.got.tgz:26920.got - 2010.06.28 04:59:45.
