data_PCOD8289573
_publ_section_title
;
Structure prediction by ZEFSAII (Michael W. Deem and Ramdas Pophale) SiO2 
 PCOD8289573
Probable space group: I M M M
;
_chemical_formula_sum "Si O2"
_cell_formula_units_Z 104
_cell_length_a 9.401641
_cell_length_b 26.176306
_cell_length_c 22.219930
_cell_angle_alpha 90.000000
_cell_angle_beta 90.000000
_cell_angle_gamma 90.000000
_cell_volume 5468.329922
_symmetry_space_group_name_H-M "I M M M"
_symmetry_group_IT_number 71
_symmetry_cell_setting 'orthorhombic'
loop_
_space_group_symop_operation_xyz
x,y,z
-x,-y,z
x,-y,-z
-x,y,-z
-x,-y,-z
x,y,-z
-x,y,z
x,-y,z
1/2+x,1/2+y,1/2+z
1/2-x,1/2-y,1/2+z
1/2+x,1/2-y,1/2-z
1/2-x,1/2+y,1/2-z
1/2-x,1/2-y,1/2-z
1/2+x,1/2+y,1/2-z
1/2-x,1/2+y,1/2+z
1/2+x,1/2-y,1/2+z
loop_
_atom_site_type_symbol
_atom_site_label
_atom_site_fract_x
_atom_site_fract_y
_atom_site_fract_z
Si Si1 0.165023 0.291220 0.172113
Si Si2 0.345718 0.941857 0.277760
Si Si3 0.832935 0.000000 0.928800
Si Si4 0.833535 0.418761 0.353499
Si Si5 0.838032 0.159661 0.566281
Si Si6 0.336963 0.190753 0.806560
Si Si7 0.839334 0.943665 0.384675
O O1 0.232304 0.319783 0.115979
O O2 0.232313 0.235147 0.173950
O O3 0.190450 0.321774 0.235320
O O4 0.000000 0.284112 0.158756
O O5 0.500000 0.913237 0.279155
O O6 0.282555 0.939792 0.210923
O O7 0.243009 0.918576 0.327860
O O8 0.366643 0.000000 0.296516
O O9 0.760243 0.051866 0.903170
O O10 0.000000 0.000000 0.912482
O O11 0.809071 0.000000 0.000000
O O12 0.806229 0.357742 0.350007
O O13 0.000000 0.430774 0.365664
O O14 0.797728 0.180762 0.500000
O O15 0.824444 0.097759 0.562445
O O16 0.000000 0.175259 0.582691
O O17 0.500000 0.208856 0.814541
O O18 0.000000 0.948864 0.362379
O O19 0.784415 0.000000 0.405776
#
# Coordination Sequence:
#
# PCOD8289573 Si02
#       7
#    16  16   8  16  16  16  16
#     4  10  20  36  58  84 113 143 178 225 280 331
#     4   9  16  28  48  75 107 137 166 207 258 307
#     4  11  25  41  55  77 113 151 186 231 282 329
#     4  10  19  35  58  82 107 142 184 220 263 327
#     4  10  21  36  53  73 103 146 188 224 264 314
#     4   9  19  35  59  88 115 140 174 223 280 337
#     4   9  18  31  48  74 106 138 178 222 264 311
#
# _framework density 19.018604
#
# number of rings (size 3 to 8) (size 9 to 14) (size 15 to 20)
#    0.000    2.385    0.769    1.615    0.000    4.923 
#    0.000    2.308    0.000    0.923    0.000    3.231 
#    0.000    0.000    0.000    0.000    0.000    0.000 
#
# Total GULP energy -644335.809393 kJ/mol
# GULP energy per Si atom -12391.073258 kJ/mol
# Density = 1.897532 g / cm^3
# Si number density = 19.018604 Si / 1000 Ang^3
#
#
#
# Elastic Constant Matrix: (Units=GPa)
#
#
# Indices 1 2 3 4 5 6 
#
# 1 96.7675 50.1040 56.2476 0.0000 0.0000 0.0000
# 2 50.1040 82.3761 50.1504 0.0000 0.0000 0.0000
# 3 56.2476 50.1504 94.7104 0.0000 0.0000 0.0000
# 4 0.0000 0.0000 0.0000 22.9802 0.0000 0.0000
# 5 0.0000 0.0000 0.0000 0.0000 26.3205 0.0000
# 6 0.0000 0.0000 0.0000 0.0000 0.0000 26.1481
#
#
#
# Elastic Compliance Matrix: (Units=1/GPa)
#
#
# Indices 1 2 3 4 5 6 
#
# 1 0.017868 -0.006504 -0.007168 0.000000 0.000000 0.000000
# 2 -0.006504 0.020282 -0.006877 0.000000 0.000000 0.000000
# 3 -0.007168 -0.006877 0.018457 0.000000 0.000000 0.000000
# 4 0.000000 0.000000 0.000000 0.043516 0.000000 0.000000
# 5 0.000000 0.000000 0.000000 0.000000 0.037993 0.000000
# 6 0.000000 0.000000 0.000000 0.000000 0.000000 0.038244
#
#
# Mechanical properties :
#
#
# Convention : Reuss Voigt Hill
#
# Bulk Modulus (GPa) = 64.47684 65.20644 64.84164
# Shear Modulus (GPa) = 22.45910 22.91323 22.68616
#
# Velocity S-wave (km/s) = 3.44015 3.47476 3.45750
# Velocity P-wave (km/s) = 7.05373 7.10342 7.07862
#
# Compressibility (1/GPa) = 0.01550944
#
# Stress axis : x y z
#
# Youngs Moduli (GPa) = 55.96559 49.30424 54.18116
#
# Poissons Ratio (x) = 0.32070 0.38835
# Poissons Ratio (y) = 0.36402 0.37259
# Poissons Ratio (z) = 0.40114 0.33906
#
# Static dielectric constant tensor:
#      x y z
#    x 3.612490 0.000000 0.000000 
#    y 0.000000 3.521600 0.000000 
#    z 0.000000 0.000000 3.283050 
# 
# 
# High freq. dielectric constant tensor:
#      x y z
#    x 1.734380 0.000000 0.000000 
#    y 0.000000 1.743030 0.000000 
#    z 0.000000 0.000000 1.718120 
# 
# From -- ./inp_files/51155.got.cif
#   From: 2010.06.25/outbox.cif.g09.slc.cpg/sg71_26_cif.got.tgz:51155.got - 2010.06.28 04:59:45.
