data_PCOD8289428
_publ_section_title
;
Structure prediction by ZEFSAII (Michael W. Deem and Ramdas Pophale) SiO2 
 PCOD8289428
Probable space group: I M M M
;
_chemical_formula_sum "Si O2"
_cell_formula_units_Z 72
_cell_length_a 16.845251
_cell_length_b 9.133904
_cell_length_c 24.655511
_cell_angle_alpha 90.000000
_cell_angle_beta 90.000000
_cell_angle_gamma 90.000000
_cell_volume 3793.568559
_symmetry_space_group_name_H-M "I M M M"
_symmetry_group_IT_number 71
_symmetry_cell_setting 'orthorhombic'
loop_
_space_group_symop_operation_xyz
x,y,z
-x,-y,z
x,-y,-z
-x,y,-z
-x,-y,-z
x,y,-z
-x,y,z
x,-y,z
1/2+x,1/2+y,1/2+z
1/2-x,1/2-y,1/2+z
1/2+x,1/2-y,1/2-z
1/2-x,1/2+y,1/2-z
1/2-x,1/2-y,1/2-z
1/2+x,1/2+y,1/2-z
1/2-x,1/2+y,1/2+z
1/2+x,1/2-y,1/2+z
loop_
_atom_site_type_symbol
_atom_site_label
_atom_site_fract_x
_atom_site_fract_y
_atom_site_fract_z
Si Si1 0.591995 0.335181 0.438232
Si Si2 0.810778 0.672890 0.148208
Si Si3 0.500000 0.325138 0.938427
Si Si4 0.589513 0.329574 0.737551
Si Si5 0.631835 0.673416 0.143315
O O1 0.620486 0.322946 0.500000
O O2 0.500000 0.296113 0.433256
O O3 0.607276 0.500000 0.416328
O O4 0.639888 0.217464 0.404275
O O5 0.812441 0.500000 0.155240
O O6 0.847601 0.741529 0.202161
O O7 0.721612 0.732329 0.139071
O O8 0.500000 0.500000 0.939587
O O9 0.578022 0.266247 0.906336
O O10 0.500000 0.262978 0.000000
O O11 0.500000 0.300742 0.716337
O O12 0.611323 0.500000 0.733215
O O13 0.595289 0.274924 0.799475
O O14 0.630742 0.500000 0.140486
#
# Coordination Sequence:
#
# PCOD8289428 Si02
#       5
#    16  16   8  16  16
#     4   9  19  37  57  74  98 138 184 218 249 306
#     4  11  22  32  49  81 115 137 166 217 276 328
#     4   9  16  30  54  78 101 135 180 225 268 313
#     4  10  19  34  56  75 101 143 187 221 254 311
#     4   9  18  33  50  74 106 139 175 218 267 317
#
# _framework density 18.979489999999998
#
# number of rings (size 3 to 8) (size 9 to 14) (size 15 to 20)
#    0.000    2.333    1.111    2.667    0.000    4.889 
#    0.000    4.444    0.000    0.000    0.000    0.000 
#    0.000    6.222    0.000    0.000    0.000    0.000 
#
# Total GULP energy -446357.171421 kJ/mol
# GULP energy per Si atom -12398.810317 kJ/mol
# Density = 1.893629 g / cm^3
# Si number density = 18.979490 Si / 1000 Ang^3
#
#
#
# Elastic Constant Matrix: (Units=GPa)
#
#
# Indices 1 2 3 4 5 6 
#
# 1 131.5561 38.2590 78.1771 0.0000 0.0000 0.0000
# 2 38.2590 44.0547 31.3289 0.0000 0.0000 0.0000
# 3 78.1771 31.3289 139.1474 0.0000 0.0000 0.0000
# 4 0.0000 0.0000 0.0000 23.8501 0.0000 0.0000
# 5 0.0000 0.0000 0.0000 0.0000 16.4138 0.0000
# 6 0.0000 0.0000 0.0000 0.0000 0.0000 19.7289
#
#
#
# Elastic Compliance Matrix: (Units=1/GPa)
#
#
# Indices 1 2 3 4 5 6 
#
# 1 0.013140 -0.007336 -0.005731 0.000000 0.000000 0.000000
# 2 -0.007336 0.031122 -0.002885 0.000000 0.000000 0.000000
# 3 -0.005731 -0.002885 0.011056 0.000000 0.000000 0.000000
# 4 0.000000 0.000000 0.000000 0.041929 0.000000 0.000000
# 5 0.000000 0.000000 0.000000 0.000000 0.060924 0.000000
# 6 0.000000 0.000000 0.000000 0.000000 0.000000 0.050687
#
#
# Mechanical properties :
#
#
# Convention : Reuss Voigt Hill
#
# Bulk Modulus (GPa) = 42.71048 67.80977 55.26013
# Shear Modulus (GPa) = 20.11521 23.13145 21.62333
#
# Velocity S-wave (km/s) = 3.25905 3.49486 3.37901
# Velocity P-wave (km/s) = 6.05923 7.21740 6.66352
#
# Compressibility (1/GPa) = 0.02341346
#
# Stress axis : x y z
#
# Youngs Moduli (GPa) = 76.10100 32.13153 90.44803
#
# Poissons Ratio (x) = 0.23572 0.51835
# Poissons Ratio (y) = 0.55829 0.26098
# Poissons Ratio (z) = 0.43613 0.09271
#
# Static dielectric constant tensor:
#      x y z
#    x 3.693850 0.000000 0.000000 
#    y 0.000000 3.061730 0.000000 
#    z 0.000000 0.000000 3.605330 
# 
# 
# High freq. dielectric constant tensor:
#      x y z
#    x 1.747240 0.000000 0.000000 
#    y 0.000000 1.693970 0.000000 
#    z 0.000000 0.000000 1.748300 
# 
# From -- ./inp_files/6048.got.cif
#   From: 2010.06.25/outbox.cif.g09.slc.cpg/sg71_4_cif.got.tgz:6048.got - 2010.06.28 04:59:45.
