data_PCOD8289454
_publ_section_title
;
Structure prediction by ZEFSAII (Michael W. Deem and Ramdas Pophale) SiO2 
 PCOD8289454
Probable space group: I M M M
;
_chemical_formula_sum "Si O2"
_cell_formula_units_Z 112
_cell_length_a 17.610701
_cell_length_b 14.117418
_cell_length_c 21.983324
_cell_angle_alpha 90.000000
_cell_angle_beta 90.000000
_cell_angle_gamma 90.000000
_cell_volume 5465.441853
_symmetry_space_group_name_H-M "I M M M"
_symmetry_group_IT_number 71
_symmetry_cell_setting 'orthorhombic'
loop_
_space_group_symop_operation_xyz
x,y,z
-x,-y,z
x,-y,-z
-x,y,-z
-x,-y,-z
x,y,-z
-x,y,z
x,-y,z
1/2+x,1/2+y,1/2+z
1/2-x,1/2-y,1/2+z
1/2+x,1/2-y,1/2-z
1/2-x,1/2+y,1/2-z
1/2-x,1/2-y,1/2-z
1/2+x,1/2+y,1/2-z
1/2-x,1/2+y,1/2+z
1/2+x,1/2-y,1/2+z
loop_
_atom_site_type_symbol
_atom_site_label
_atom_site_fract_x
_atom_site_fract_y
_atom_site_fract_z
Si Si1 0.319112 0.892975 0.429655
Si Si2 0.842212 0.106961 0.629970
Si Si3 0.589798 0.710831 0.237518
Si Si4 0.785696 0.103455 0.070656
Si Si5 0.411624 0.724799 0.378547
Si Si6 0.085129 0.602086 0.321787
Si Si7 0.864517 0.705787 0.429933
O O1 0.299061 0.862628 0.500000
O O2 0.246535 0.885965 0.385732
O O3 0.384188 0.827544 0.401096
O O4 0.350629 0.000000 0.429595
O O5 0.862096 0.131681 0.700434
O O6 0.883817 0.185236 0.587639
O O7 0.871270 0.000000 0.615873
O O8 0.500000 0.700001 0.222455
O O9 0.606100 0.703338 0.308374
O O10 0.622752 0.813828 0.217364
O O11 0.868695 0.142715 0.085476
O O12 0.722164 0.180162 0.090342
O O13 0.773671 0.000000 0.101988
O O14 0.778790 0.088105 0.000000
O O15 0.500000 0.717154 0.393258
O O16 0.127113 0.500000 0.313374
O O17 0.083234 0.633190 0.392614
O O18 0.000000 0.589224 0.298573
O O19 0.881870 0.689015 0.500000
#
# Coordination Sequence:
#
# PCOD8289454 Si02
#       7
#    16  16  16  16  16  16  16
#     4  10  21  38  60  88 121 154 191 239 296 352
#     4  10  20  36  60  86 114 152 194 236 287 343
#     4   9  21  39  58  83 116 153 194 240 285 335
#     4  10  21  37  56  80 112 148 186 232 287 344
#     4  11  23  39  60  84 113 152 195 240 291 346
#     4   9  18  34  55  80 112 149 187 231 283 336
#     4  10  19  34  56  82 114 149 187 232 284 339
#
# _framework density 20.492395999999999
#
# number of rings (size 3 to 8) (size 9 to 14) (size 15 to 20)
#    0.000    2.143    1.429    1.286    0.000    5.714 
#    0.000    5.000    0.000    1.286    0.000    8.000 
#    0.000    0.000    0.000    0.000    0.000    0.000 
#
# Total GULP energy -693952.495032 kJ/mol
# GULP energy per Si atom -12392.008840 kJ/mol
# Density = 2.044575 g / cm^3
# Si number density = 20.492396 Si / 1000 Ang^3
#
#
#
# Elastic Constant Matrix: (Units=GPa)
#
#
# Indices 1 2 3 4 5 6 
#
# 1 57.1188 22.8338 28.1784 0.0000 0.0000 0.0000
# 2 22.8338 139.9463 16.7847 0.0000 0.0000 0.0000
# 3 28.1784 16.7847 43.3960 0.0000 0.0000 0.0000
# 4 0.0000 0.0000 0.0000 20.6036 0.0000 0.0000
# 5 0.0000 0.0000 0.0000 0.0000 28.4353 0.0000
# 6 0.0000 0.0000 0.0000 0.0000 0.0000 19.9457
#
#
#
# Elastic Compliance Matrix: (Units=1/GPa)
#
#
# Indices 1 2 3 4 5 6 
#
# 1 0.026487 -0.002369 -0.016283 0.000000 0.000000 0.000000
# 2 -0.002369 0.007705 -0.001442 0.000000 0.000000 0.000000
# 3 -0.016283 -0.001442 0.034174 0.000000 0.000000 0.000000
# 4 0.000000 0.000000 0.000000 0.048535 0.000000 0.000000
# 5 0.000000 0.000000 0.000000 0.000000 0.035168 0.000000
# 6 0.000000 0.000000 0.000000 0.000000 0.000000 0.050136
#
#
# Mechanical properties :
#
#
# Convention : Reuss Voigt Hill
#
# Bulk Modulus (GPa) = 35.48705 41.78389 38.63547
# Shear Modulus (GPa) = 19.85818 25.30785 22.58301
#
# Velocity S-wave (km/s) = 3.11634 3.51805 3.32327
# Velocity P-wave (km/s) = 5.50486 6.07754 5.79827
#
# Compressibility (1/GPa) = 0.02817930
#
# Stress axis : x y z
#
# Youngs Moduli (GPa) = 37.75434 129.78515 29.26183
#
# Poissons Ratio (x) = 0.30743 0.47646
# Poissons Ratio (y) = 0.08943 0.04220
# Poissons Ratio (z) = 0.61474 0.18716
#
# Static dielectric constant tensor:
#      x y z
#    x 3.469710 0.000000 0.000000 
#    y 0.000000 4.210630 0.000000 
#    z 0.000000 0.000000 3.631390 
# 
# 
# High freq. dielectric constant tensor:
#      x y z
#    x 1.774250 0.000000 0.000000 
#    y 0.000000 1.818620 0.000000 
#    z 0.000000 0.000000 1.791770 
# 
# From -- ./inp_files/59914.got.cif
#   From: 2010.06.25/outbox.cif.g09.slc.cpg/sg71_30_cif.got.tgz:59914.got - 2010.06.28 04:59:45.
