data_PCOD8289476
_publ_section_title
;
Structure prediction by ZEFSAII (Michael W. Deem and Ramdas Pophale) SiO2 
 PCOD8289476
Probable space group: I M M M
;
_chemical_formula_sum "Si O2"
_cell_formula_units_Z 88
_cell_length_a 30.790705
_cell_length_b 16.794948
_cell_length_c 8.451457
_cell_angle_alpha 90.000000
_cell_angle_beta 90.000000
_cell_angle_gamma 90.000000
_cell_volume 4370.487501
_symmetry_space_group_name_H-M "I M M M"
_symmetry_group_IT_number 71
_symmetry_cell_setting 'orthorhombic'
loop_
_space_group_symop_operation_xyz
x,y,z
-x,-y,z
x,-y,-z
-x,y,-z
-x,-y,-z
x,y,-z
-x,y,z
x,-y,z
1/2+x,1/2+y,1/2+z
1/2-x,1/2-y,1/2+z
1/2+x,1/2-y,1/2-z
1/2-x,1/2+y,1/2-z
1/2-x,1/2-y,1/2-z
1/2+x,1/2+y,1/2-z
1/2-x,1/2+y,1/2+z
1/2+x,1/2-y,1/2+z
loop_
_atom_site_type_symbol
_atom_site_label
_atom_site_fract_x
_atom_site_fract_y
_atom_site_fract_z
Si Si1 0.500000 0.910809 0.814689
Si Si2 0.758438 0.500000 0.188477
Si Si3 0.224286 0.829145 0.811545
Si Si4 0.873622 0.191493 0.812335
Si Si5 0.911631 0.643991 0.812829
Si Si6 0.047430 0.910418 0.811788
Si Si7 0.855843 0.500000 0.188099
O O1 0.459030 0.860286 0.760087
O O2 0.500000 0.000000 0.738501
O O3 0.500000 0.919130 0.000000
O O4 0.739486 0.416234 0.252124
O O5 0.807348 0.500000 0.252463
O O6 0.754342 0.500000 0.000000
O O7 0.250000 0.750000 0.750000
O O8 0.174673 0.825299 0.748559
O O9 0.227052 0.826719 0.000000
O O10 0.887321 0.278002 0.754951
O O11 0.910815 0.134286 0.738704
O O12 0.873284 0.183932 0.000000
O O13 0.881391 0.575044 0.744150
O O14 0.916567 0.639812 0.000000
O O15 0.000000 0.874839 0.759055
O O16 0.050612 0.000000 0.749892
O O17 0.049974 0.906791 0.000000
O O18 0.855121 0.500000 0.000000
#
# Coordination Sequence:
#
# PCOD8289476 Si02
#       7
#     8   8  16  16  16  16   8
#     4  11  23  37  51  77 118 155 186 232 292 352
#     4  11  23  41  66  94 124 159 204 257 314 376
#     4  11  23  41  63  91 127 164 206 257 316 372
#     4   9  19  32  53  83 113 146 191 245 291 340
#     4  10  19  34  57  82 106 143 194 242 285 335
#     4   8  14  25  43  72 109 141 171 220 282 331
#     4   9  18  34  56  79 108 145 189 242 293 337
#
# _framework density 20.135052999999999
#
# number of rings (size 3 to 8) (size 9 to 14) (size 15 to 20)
#    0.000    2.273    0.909    2.727    2.545    3.273 
#    0.000    5.455    0.000    0.000    0.000    0.000 
#    0.000    1.455    0.000    0.000    0.000    0.000 
#
# Total GULP energy -545160.601700 kJ/mol
# GULP energy per Si atom -12390.013675 kJ/mol
# Density = 2.008922 g / cm^3
# Si number density = 20.135053 Si / 1000 Ang^3
#
#
#
# Elastic Constant Matrix: (Units=GPa)
#
#
# Indices 1 2 3 4 5 6 
#
# 1 228.3389 107.9272 26.3818 0.0000 0.0000 0.0000
# 2 107.9272 165.6053 27.8573 0.0000 0.0000 0.0000
# 3 26.3818 27.8573 40.9642 0.0000 0.0000 0.0000
# 4 0.0000 0.0000 0.0000 8.7733 0.0000 0.0000
# 5 0.0000 0.0000 0.0000 0.0000 22.9011 0.0000
# 6 0.0000 0.0000 0.0000 0.0000 0.0000 71.6532
#
#
#
# Elastic Compliance Matrix: (Units=1/GPa)
#
#
# Indices 1 2 3 4 5 6 
#
# 1 0.006405 -0.003930 -0.001452 0.000000 0.000000 0.000000
# 2 -0.003930 0.009230 -0.003746 0.000000 0.000000 0.000000
# 3 -0.001452 -0.003746 0.027894 0.000000 0.000000 0.000000
# 4 0.000000 0.000000 0.000000 0.113983 0.000000 0.000000
# 5 0.000000 0.000000 0.000000 0.000000 0.043666 0.000000
# 6 0.000000 0.000000 0.000000 0.000000 0.000000 0.013956
#
#
# Mechanical properties :
#
#
# Convention : Reuss Voigt Hill
#
# Bulk Modulus (GPa) = 39.56815 84.36011 61.96413
# Shear Modulus (GPa) = 20.67713 38.84831 29.76272
#
# Velocity S-wave (km/s) = 3.20804 4.39724 3.84885
# Velocity P-wave (km/s) = 5.78066 8.23220 7.11285
#
# Compressibility (1/GPa) = 0.02527285
#
# Stress axis : x y z
#
# Youngs Moduli (GPa) = 156.13574 108.34737 35.84984
#
# Poissons Ratio (x) = 0.42577 0.05207
# Poissons Ratio (y) = 0.61357 0.13428
# Poissons Ratio (z) = 0.22677 0.40583
#
# Static dielectric constant tensor:
#      x y z
#    x 4.115280 0.000000 0.000000 
#    y 0.000000 3.935660 0.000000 
#    z 0.000000 0.000000 3.167510 
# 
# 
# High freq. dielectric constant tensor:
#      x y z
#    x 1.809220 0.000000 0.000000 
#    y 0.000000 1.798720 0.000000 
#    z 0.000000 0.000000 1.737720 
# 
# From -- ./inp_files/16722.got.cif
#   From: 2010.06.25/outbox.cif.g09.slc.cpg/sg71_9_cif.got.tgz:16722.got - 2010.06.28 04:59:45.
