data_PCOD8289964
_publ_section_title
;
Structure prediction by ZEFSAII (Michael W. Deem and Ramdas Pophale) SiO2 
 PCOD8289964
Probable space group: I M M M
;
_chemical_formula_sum "Si O2"
_cell_formula_units_Z 72
_cell_length_a 14.535962
_cell_length_b 9.980878
_cell_length_c 25.542365
_cell_angle_alpha 90.000000
_cell_angle_beta 90.000000
_cell_angle_gamma 90.000000
_cell_volume 3705.728800
_symmetry_space_group_name_H-M "I M M M"
_symmetry_group_IT_number 71
_symmetry_cell_setting 'orthorhombic'
loop_
_space_group_symop_operation_xyz
x,y,z
-x,-y,z
x,-y,-z
-x,y,-z
-x,-y,-z
x,y,-z
-x,y,z
x,-y,z
1/2+x,1/2+y,1/2+z
1/2-x,1/2-y,1/2+z
1/2+x,1/2-y,1/2-z
1/2-x,1/2+y,1/2-z
1/2-x,1/2-y,1/2-z
1/2+x,1/2+y,1/2-z
1/2-x,1/2+y,1/2+z
1/2+x,1/2-y,1/2+z
loop_
_atom_site_type_symbol
_atom_site_label
_atom_site_fract_x
_atom_site_fract_y
_atom_site_fract_z
Si Si1 0.104233 0.500000 0.790289
Si Si2 0.704936 0.000000 0.942201
Si Si3 0.893185 0.000000 0.635760
Si Si4 0.601347 0.500000 0.593991
Si Si5 0.106640 0.756772 0.439744
Si Si6 0.602641 0.295412 0.316351
Si Si7 0.203408 0.000000 0.253256
O O1 0.119560 0.636016 0.824049
O O2 0.185274 0.500000 0.747179
O O3 0.000000 0.500000 0.765966
O O4 0.815816 0.000000 0.946938
O O5 0.665656 0.866131 0.915597
O O6 0.662302 0.000000 0.000000
O O7 0.869019 0.124563 0.599230
O O8 0.828115 0.000000 0.686394
O O9 0.000000 0.000000 0.653244
O O10 0.500000 0.500000 0.566996
O O11 0.614196 0.634130 0.627943
O O12 0.133998 0.793481 0.500000
O O13 0.000000 0.718665 0.437159
O O14 0.500000 0.321268 0.294792
O O15 0.669601 0.363813 0.274254
#
# Coordination Sequence:
#
# PCOD8289964 Si02
#       7
#     8   8   8   8  16  16   8
#     4  10  21  35  53  77 101 135 182 215 249 298
#     4  10  20  33  54  78 103 131 170 219 262 304
#     4  10  20  32  52  80 106 137 174 212 253 300
#     4   9  19  35  56  74 101 139 175 211 257 311
#     4   9  18  34  53  75 105 139 171 206 255 314
#     4   9  19  37  56  75 103 140 174 208 254 310
#     4  11  20  33  55  77 108 140 170 214 255 297
#
# _framework density 19.429376000000001
#
# number of rings (size 3 to 8) (size 9 to 14) (size 15 to 20)
#    0.000    2.444    0.000    3.000    3.111    2.889 
#    0.000    0.000    0.000    0.000    0.000    0.000 
#    0.000    8.889    0.000    0.000    0.000    0.000 
#
# Total GULP energy -446090.260727 kJ/mol
# GULP energy per Si atom -12391.396131 kJ/mol
# Density = 1.938515 g / cm^3
# Si number density = 19.429376 Si / 1000 Ang^3
#
#
#
# Elastic Constant Matrix: (Units=GPa)
#
#
# Indices 1 2 3 4 5 6 
#
# 1 98.9596 42.5596 16.2833 0.0000 0.0000 0.0000
# 2 42.5596 151.4006 23.6384 0.0000 0.0000 0.0000
# 3 16.2833 23.6384 45.8040 0.0000 0.0000 0.0000
# 4 0.0000 0.0000 0.0000 3.0253 0.0000 0.0000
# 5 0.0000 0.0000 0.0000 0.0000 22.7525 0.0000
# 6 0.0000 0.0000 0.0000 0.0000 0.0000 13.5111
#
#
#
# Elastic Compliance Matrix: (Units=1/GPa)
#
#
# Indices 1 2 3 4 5 6 
#
# 1 0.011794 -0.002894 -0.002699 0.000000 0.000000 0.000000
# 2 -0.002894 0.007894 -0.003045 0.000000 0.000000 0.000000
# 3 -0.002699 -0.003045 0.024363 0.000000 0.000000 0.000000
# 4 0.000000 0.000000 0.000000 0.330542 0.000000 0.000000
# 5 0.000000 0.000000 0.000000 0.000000 0.043951 0.000000
# 6 0.000000 0.000000 0.000000 0.000000 0.000000 0.074013
#
#
# Mechanical properties :
#
#
# Convention : Reuss Voigt Hill
#
# Bulk Modulus (GPa) = 37.34889 51.23632 44.29260
# Shear Modulus (GPa) = 9.63839 22.10331 15.87085
#
# Velocity S-wave (km/s) = 2.22969 3.37653 2.86116
# Velocity P-wave (km/s) = 5.08855 6.45206 5.81044
#
# Compressibility (1/GPa) = 0.02677456
#
# Stress axis : x y z
#
# Youngs Moduli (GPa) = 84.78987 126.67979 41.04543
#
# Poissons Ratio (x) = 0.36660 0.11079
# Poissons Ratio (y) = 0.24537 0.12499
# Poissons Ratio (z) = 0.22887 0.38575
#
# Static dielectric constant tensor:
#      x y z
#    x 3.687320 0.000000 0.000000 
#    y 0.000000 3.811920 0.000000 
#    z 0.000000 0.000000 3.109460 
# 
# 
# High freq. dielectric constant tensor:
#      x y z
#    x 1.764400 0.000000 0.000000 
#    y 0.000000 1.771630 0.000000 
#    z 0.000000 0.000000 1.713780 
# 
# From -- ./inp_files/62943.got.cif
#   From: 2010.06.25/outbox.cif.g09.slc.cpg/sg71_32_cif.got.tgz:62943.got - 2010.06.28 04:59:45.
