data_PCOD8289115
_publ_section_title
;
Structure prediction by ZEFSAII (Michael W. Deem and Ramdas Pophale) SiO2 
 PCOD8289115
Probable space group: I M M M
;
_chemical_formula_sum "Si O2"
_cell_formula_units_Z 104
_cell_length_a 9.427098
_cell_length_b 27.742392
_cell_length_c 23.874655
_cell_angle_alpha 90.000000
_cell_angle_beta 90.000000
_cell_angle_gamma 90.000000
_cell_volume 6243.944446
_symmetry_space_group_name_H-M "I M M M"
_symmetry_group_IT_number 71
_symmetry_cell_setting 'orthorhombic'
loop_
_space_group_symop_operation_xyz
x,y,z
-x,-y,z
x,-y,-z
-x,y,-z
-x,-y,-z
x,y,-z
-x,y,z
x,-y,z
1/2+x,1/2+y,1/2+z
1/2-x,1/2-y,1/2+z
1/2+x,1/2-y,1/2-z
1/2-x,1/2+y,1/2-z
1/2-x,1/2-y,1/2-z
1/2+x,1/2+y,1/2-z
1/2-x,1/2+y,1/2+z
1/2+x,1/2-y,1/2+z
loop_
_atom_site_type_symbol
_atom_site_label
_atom_site_fract_x
_atom_site_fract_y
_atom_site_fract_z
Si Si1 0.838757 0.944296 0.243554
Si Si2 0.664884 0.684545 0.435675
Si Si3 0.342840 0.726533 0.066596
Si Si4 0.165380 0.880755 0.434770
Si Si5 0.835335 0.500000 0.433838
Si Si6 0.663980 0.943267 0.650059
Si Si7 0.665180 0.414142 0.378815
O O1 0.735592 0.925502 0.292235
O O2 0.806841 0.914324 0.187553
O O3 0.000000 0.936535 0.263905
O O4 0.810098 0.000000 0.229031
O O5 0.709112 0.675509 0.500000
O O6 0.500000 0.694747 0.430000
O O7 0.740792 0.731742 0.410066
O O8 0.711640 0.638182 0.400464
O O9 0.500000 0.737179 0.089715
O O10 0.293583 0.673262 0.085851
O O11 0.343792 0.726827 0.000000
O O12 0.199391 0.887412 0.500000
O O13 0.261768 0.918410 0.402267
O O14 0.000000 0.890828 0.422891
O O15 0.816736 0.500000 0.500000
O O16 0.761405 0.452791 0.409716
O O17 0.000000 0.500000 0.416131
O O18 0.500000 0.928662 0.651789
O O19 0.685963 0.000000 0.642709
O O20 0.500000 0.425216 0.392278
#
# Coordination Sequence:
#
# PCOD8289115 Si02
#       7
#    16  16  16  16   8  16  16
#     4   9  17  32  52  70  89 122 169 208 240 284
#     4   9  17  28  45  71  99 126 158 198 245 294
#     4   8  15  29  48  69  95 126 159 195 235 283
#     4   9  18  33  53  76 100 129 163 195 232 281
#     4  11  23  33  43  67 101 133 164 203 254 303
#     4  10  21  34  49  73 103 131 157 193 242 289
#     4  10  19  33  51  70  93 127 169 209 247 292
#
# _framework density 16.656137999999999
#
# number of rings (size 3 to 8) (size 9 to 14) (size 15 to 20)
#    0.000    2.692    0.769    2.077    0.000    4.615 
#    0.000    4.615    0.000    0.923    0.000    0.000 
#    0.000    0.000    0.000    0.000    0.000    0.000 
#
# Total GULP energy -644763.941714 kJ/mol
# GULP energy per Si atom -12399.306571 kJ/mol
# Density = 1.661823 g / cm^3
# Si number density = 16.656138 Si / 1000 Ang^3
#
#
#
# Elastic Constant Matrix: (Units=GPa)
#
#
# Indices 1 2 3 4 5 6 
#
# 1 94.7393 59.3110 57.3322 0.0000 0.0000 0.0000
# 2 59.3110 85.6984 51.4915 0.0000 0.0000 0.0000
# 3 57.3322 51.4915 81.9022 -0.0001 0.0000 0.0000
# 4 0.0000 0.0000 -0.0001 0.0915 0.0000 0.0000
# 5 0.0000 0.0000 0.0000 0.0000 23.3112 0.0000
# 6 0.0000 0.0000 0.0000 0.0000 0.0000 31.4819
#
#
#
# Elastic Compliance Matrix: (Units=1/GPa)
#
#
# Indices 1 2 3 4 5 6 
#
# 1 0.022495 -0.009815 -0.009576 -0.000003 0.000000 0.000000
# 2 -0.009815 0.023035 -0.007612 -0.000014 0.000000 0.000000
# 3 -0.009576 -0.007612 0.023698 0.000022 0.000000 0.000000
# 4 -0.000003 -0.000014 0.000022 10.926145 -0.000006 -0.000002
# 5 0.000000 0.000000 0.000000 -0.000006 0.042898 0.000000
# 6 0.000000 0.000000 0.000000 -0.000002 0.000000 0.031764
#
#
# Mechanical properties :
#
#
# Convention : Reuss Voigt Hill
#
# Bulk Modulus (GPa) = 65.68843 66.51211 66.10027
# Shear Modulus (GPa) = 0.44927 17.25727 8.85327
#
# Velocity S-wave (km/s) = 0.51992 3.22233 2.30800
# Velocity P-wave (km/s) = 6.31538 7.33919 6.84645
#
# Compressibility (1/GPa) = 0.01522338
#
# Stress axis : x y z
#
# Youngs Moduli (GPa) = 44.45495 43.41258 42.19701
#
# Poissons Ratio (x) = 0.42608 0.40408
# Poissons Ratio (y) = 0.43631 0.32119
# Poissons Ratio (z) = 0.42570 0.33044
#
# Static dielectric constant tensor:
#      x y z
#    x 3.219490 0.000000 0.000000 
#    y 0.000000 3.308150 0.000000 
#    z 0.000000 0.000000 2.964610 
# 
# 
# High freq. dielectric constant tensor:
#      x y z
#    x 1.643260 0.000000 0.000000 
#    y 0.000000 1.637040 0.000000 
#    z 0.000000 0.000000 1.621580 
# 
# From -- ./inp_files/63703.got.cif
#   From: 2010.06.25/outbox.cif.g09.slc.cpg/sg71_32_cif.got.tgz:63703.got - 2010.06.28 04:59:45.
