data_PCOD8289826
_publ_section_title
;
Structure prediction by ZEFSAII (Michael W. Deem and Ramdas Pophale) SiO2 
 PCOD8289826
Probable space group: I M M M
;
_chemical_formula_sum "Si O2"
_cell_formula_units_Z 88
_cell_length_a 24.555536
_cell_length_b 22.287530
_cell_length_c 9.284112
_cell_angle_alpha 90.000000
_cell_angle_beta 90.000000
_cell_angle_gamma 90.000000
_cell_volume 5081.029661
_symmetry_space_group_name_H-M "I M M M"
_symmetry_group_IT_number 71
_symmetry_cell_setting 'orthorhombic'
loop_
_space_group_symop_operation_xyz
x,y,z
-x,-y,z
x,-y,-z
-x,y,-z
-x,-y,-z
x,y,-z
-x,y,z
x,-y,z
1/2+x,1/2+y,1/2+z
1/2-x,1/2-y,1/2+z
1/2+x,1/2-y,1/2-z
1/2-x,1/2+y,1/2-z
1/2-x,1/2-y,1/2-z
1/2+x,1/2+y,1/2-z
1/2-x,1/2+y,1/2+z
1/2+x,1/2-y,1/2+z
loop_
_atom_site_type_symbol
_atom_site_label
_atom_site_fract_x
_atom_site_fract_y
_atom_site_fract_z
Si Si1 0.750763 0.311558 0.665522
Si Si2 0.435544 0.885832 0.662846
Si Si3 0.439326 0.567378 0.170993
Si Si4 0.064863 0.500000 0.662301
Si Si5 0.870694 0.703734 0.661902
Si Si6 0.152314 0.841859 0.331284
O O1 0.732933 0.301938 0.500000
O O2 0.750000 0.250000 0.750000
O O3 0.813540 0.332962 0.673438
O O4 0.708240 0.356526 0.744099
O O5 0.414806 0.893775 0.500000
O O6 0.500000 0.882787 0.668608
O O7 0.413185 0.824043 0.727162
O O8 0.413002 0.941413 0.755912
O O9 0.500000 0.584450 0.227912
O O10 0.424103 0.500000 0.222429
O O11 0.394736 0.614312 0.229843
O O12 0.439740 0.570153 0.000000
O O13 0.087862 0.500000 0.500000
O O14 0.000000 0.500000 0.662509
O O15 0.893862 0.697643 0.500000
O O16 0.864918 0.773693 0.701042
O O17 0.163501 0.852257 0.500000
#
# Coordination Sequence:
#
# PCOD8289826 Si02
#       6
#    16  16  16   8  16  16
#     4   9  17  30  48  69  93 122 158 195 237 287
#     4  10  20  32  47  69  96 124 156 195 237 281
#     4   8  14  26  46  72 100 130 166 207 247 288
#     4   9  17  31  51  69  87 119 157 187 222 273
#     4   9  18  30  45  68  95 124 160 198 240 293
#     4   9  17  29  48  73  97 125 162 202 246 292
#
# _framework density 17.319324000000002
#
# number of rings (size 3 to 8) (size 9 to 14) (size 15 to 20)
#    0.000    3.000    0.000    3.000    0.000    6.545 
#    0.000    1.818    2.000    1.091    0.000    1.273 
#    0.000    0.000    0.000    0.000    0.000    0.000 
#
# Total GULP energy -545322.573004 kJ/mol
# GULP energy per Si atom -12393.694841 kJ/mol
# Density = 1.727990 g / cm^3
# Si number density = 17.319324 Si / 1000 Ang^3
#
#
#
# Elastic Constant Matrix: (Units=GPa)
#
#
# Indices 1 2 3 4 5 6 
#
# 1 66.4587 48.7462 30.4786 0.0000 0.0000 0.0000
# 2 48.7462 81.3601 37.8730 0.0000 0.0000 0.0000
# 3 30.4786 37.8730 94.6077 0.0000 0.0000 0.0000
# 4 0.0000 0.0000 0.0000 18.8030 0.0000 0.0000
# 5 0.0000 0.0000 0.0000 0.0000 29.7762 0.0000
# 6 0.0000 0.0000 0.0000 0.0000 0.0000 23.0914
#
#
#
# Elastic Compliance Matrix: (Units=1/GPa)
#
#
# Indices 1 2 3 4 5 6 
#
# 1 0.027424 -0.015139 -0.002774 0.000000 0.000000 0.000000
# 2 -0.015139 0.023464 -0.004516 0.000000 0.000000 0.000000
# 3 -0.002774 -0.004516 0.013271 0.000000 0.000000 0.000000
# 4 0.000000 0.000000 0.000000 0.053183 0.000000 0.000000
# 5 0.000000 0.000000 0.000000 0.000000 0.033584 0.000000
# 6 0.000000 0.000000 0.000000 0.000000 0.000000 0.043306
#
#
# Mechanical properties :
#
#
# Convention : Reuss Voigt Hill
#
# Bulk Modulus (GPa) = 51.81246 52.95800 52.38523
# Shear Modulus (GPa) = 20.36466 22.68937 21.52702
#
# Velocity S-wave (km/s) = 3.43276 3.62340 3.52937
# Velocity P-wave (km/s) = 6.75964 6.93896 6.84989
#
# Compressibility (1/GPa) = 0.01930038
#
# Stress axis : x y z
#
# Youngs Moduli (GPa) = 36.46495 42.61919 75.35006
#
# Poissons Ratio (x) = 0.64522 0.20904
# Poissons Ratio (y) = 0.55205 0.34025
# Poissons Ratio (z) = 0.10116 0.19245
#
# Static dielectric constant tensor:
#      x y z
#    x 3.518030 0.000000 0.000000 
#    y 0.000000 3.126490 0.000000 
#    z 0.000000 0.000000 3.236330 
# 
# 
# High freq. dielectric constant tensor:
#      x y z
#    x 1.660120 0.000000 0.000000 
#    y 0.000000 1.645730 0.000000 
#    z 0.000000 0.000000 1.659020 
# 
# From -- ./inp_files/10963.got.cif
#   From: 2010.06.25/outbox.cif.g09.slc.cpg/sg71_6_cif.got.tgz:10963.got - 2010.06.28 04:59:45.
