data_PCOD8289732
_publ_section_title
;
Structure prediction by ZEFSAII (Michael W. Deem and Ramdas Pophale) SiO2 
 PCOD8289732
Probable space group: I M M M
;
_chemical_formula_sum "Si O2"
_cell_formula_units_Z 104
_cell_length_a 20.561158
_cell_length_b 32.282143
_cell_length_c 9.081848
_cell_angle_alpha 90.000000
_cell_angle_beta 90.000000
_cell_angle_gamma 90.000000
_cell_volume 6028.151470
_symmetry_space_group_name_H-M "I M M M"
_symmetry_group_IT_number 71
_symmetry_cell_setting 'orthorhombic'
loop_
_space_group_symop_operation_xyz
x,y,z
-x,-y,z
x,-y,-z
-x,y,-z
-x,-y,-z
x,y,-z
-x,y,z
x,-y,z
1/2+x,1/2+y,1/2+z
1/2-x,1/2-y,1/2+z
1/2+x,1/2-y,1/2-z
1/2-x,1/2+y,1/2-z
1/2-x,1/2-y,1/2-z
1/2+x,1/2+y,1/2-z
1/2-x,1/2+y,1/2+z
1/2+x,1/2-y,1/2+z
loop_
_atom_site_type_symbol
_atom_site_label
_atom_site_fract_x
_atom_site_fract_y
_atom_site_fract_z
Si Si1 0.571548 0.689899 0.825338
Si Si2 0.425816 0.216008 0.173818
Si Si3 0.683140 0.369981 0.825361
Si Si4 0.326852 0.154918 0.326794
Si Si5 0.929035 0.500000 0.675587
Si Si6 0.201079 0.046770 0.832735
Si Si7 0.346988 0.925633 0.167339
O O1 0.500000 0.675718 0.769702
O O2 0.584966 0.736776 0.774227
O O3 0.626021 0.659098 0.761030
O O4 0.573689 0.688455 0.000000
O O5 0.500000 0.201977 0.217054
O O6 0.367894 0.191288 0.252023
O O7 0.416757 0.211151 0.000000
O O8 0.751029 0.348277 0.775026
O O9 0.670105 0.416269 0.763503
O O10 0.681731 0.373875 0.000000
O O11 0.331941 0.160973 0.500000
O O12 0.358539 0.112223 0.276473
O O13 0.925738 0.500000 0.500000
O O14 0.896103 0.458700 0.734025
O O15 0.000000 0.500000 0.742048
O O16 0.277773 0.052505 0.825510
O O17 0.183860 0.000000 0.774569
O O18 0.176025 0.051256 0.000000
O O19 0.362721 0.911530 0.000000
#
# Coordination Sequence:
#
# PCOD8289732 Si02
#       7
#    16  16  16  16   8  16  16
#     4   8  15  31  54  74  93 121 158 199 238 278
#     4   9  18  33  52  70  88 121 168 204 232 275
#     4   9  18  31  48  74 101 123 154 195 240 287
#     4  10  20  31  44  69 102 128 150 189 242 289
#     4   9  16  26  43  65  83 105 148 201 238 262
#     4   9  16  28  47  68  92 124 159 193 230 276
#     4   9  16  29  46  63  86 119 157 196 232 270
#
# _framework density 17.252386999999999
#
# number of rings (size 3 to 8) (size 9 to 14) (size 15 to 20)
#    0.000    3.000    0.769    1.385    0.000    2.462 
#    0.000    2.692    0.000    2.308    0.000    3.231 
#    0.000    0.000    0.000    0.000    0.000    0.000 
#
# Total GULP energy -644306.371126 kJ/mol
# GULP energy per Si atom -12390.507137 kJ/mol
# Density = 1.721312 g / cm^3
# Si number density = 17.252387 Si / 1000 Ang^3
#
#
#
# Elastic Constant Matrix: (Units=GPa)
#
#
# Indices 1 2 3 4 5 6 
#
# 1 106.3422 85.4018 29.7402 0.0000 0.0001 0.0000
# 2 85.4018 138.6196 34.8504 0.0000 0.0000 0.0001
# 3 29.7402 34.8504 34.6675 0.0009 0.0009 0.0009
# 4 0.0000 0.0000 0.0009 23.1899 0.0002 0.0001
# 5 0.0001 0.0000 0.0009 0.0002 17.1709 0.0001
# 6 0.0000 0.0001 0.0009 0.0001 0.0001 43.9024
#
#
#
# Elastic Compliance Matrix: (Units=1/GPa)
#
#
# Indices 1 2 3 4 5 6 
#
# 1 0.019574 -0.010489 -0.006248 0.000000 0.000000 0.000000
# 2 -0.010489 0.015274 -0.006357 0.000000 0.000000 0.000000
# 3 -0.006248 -0.006357 0.040596 -0.000002 -0.000002 -0.000001
# 4 0.000000 0.000000 -0.000002 0.043122 0.000000 0.000000
# 5 0.000000 0.000000 -0.000002 0.000000 0.058238 0.000000
# 6 0.000000 0.000000 -0.000001 0.000000 0.000000 0.022778
#
#
# Mechanical properties :
#
#
# Convention : Reuss Voigt Hill
#
# Bulk Modulus (GPa) = 34.17977 64.40155 49.29066
# Shear Modulus (GPa) = 19.56780 25.49510 22.53145
#
# Velocity S-wave (km/s) = 3.37145 3.84835 3.61777
# Velocity P-wave (km/s) = 5.91694 7.56019 6.78847
#
# Compressibility (1/GPa) = 0.02925707
#
# Stress axis : x y z
#
# Youngs Moduli (GPa) = 51.08764 65.47065 24.63295
#
# Poissons Ratio (x) = 0.68669 0.15391
# Poissons Ratio (y) = 0.53584 0.15659
# Poissons Ratio (z) = 0.31921 0.41618
#
# Static dielectric constant tensor:
#      x y z
#    x 3.360780 0.000000 0.000000 
#    y 0.000000 3.347000 0.000000 
#    z 0.000000 0.000000 2.952470 
# 
# 
# High freq. dielectric constant tensor:
#      x y z
#    x 1.653190 0.000000 0.000000 
#    y 0.000000 1.672470 0.000000 
#    z 0.000000 0.000000 1.636800 
# 
# From -- ./inp_files/13632.got.cif
#   From: 2010.06.25/outbox.cif.g09.slc.cpg/sg71_7_cif.got.tgz:13632.got - 2010.06.28 04:59:45.
