data_PCOD8289600
_publ_section_title
;
Structure prediction by ZEFSAII (Michael W. Deem and Ramdas Pophale) SiO2 
 PCOD8289600
Probable space group: I M M M
;
_chemical_formula_sum "Si O2"
_cell_formula_units_Z 72
_cell_length_a 11.475908
_cell_length_b 15.928691
_cell_length_c 21.863640
_cell_angle_alpha 90.000000
_cell_angle_beta 90.000000
_cell_angle_gamma 90.000000
_cell_volume 3996.590146
_symmetry_space_group_name_H-M "I M M M"
_symmetry_group_IT_number 71
_symmetry_cell_setting 'orthorhombic'
loop_
_space_group_symop_operation_xyz
x,y,z
-x,-y,z
x,-y,-z
-x,y,-z
-x,-y,-z
x,y,-z
-x,y,z
x,-y,z
1/2+x,1/2+y,1/2+z
1/2-x,1/2-y,1/2+z
1/2+x,1/2-y,1/2-z
1/2-x,1/2+y,1/2-z
1/2-x,1/2-y,1/2-z
1/2+x,1/2+y,1/2-z
1/2-x,1/2+y,1/2+z
1/2+x,1/2-y,1/2+z
loop_
_atom_site_type_symbol
_atom_site_label
_atom_site_fract_x
_atom_site_fract_y
_atom_site_fract_z
Si Si1 0.867924 0.903995 0.727686
Si Si2 0.868520 0.597058 0.000000
Si Si3 0.637953 0.500000 0.568730
Si Si4 0.135219 0.835393 0.859916
Si Si5 0.000000 0.904301 0.429329
Si Si6 0.265563 0.331787 0.112694
O O1 0.852775 0.848011 0.787609
O O2 0.768702 0.878019 0.678800
O O3 0.000000 0.890790 0.700638
O O4 0.849627 0.000000 0.747109
O O5 0.820243 0.628581 0.063987
O O6 0.845601 0.500000 0.000000
O O7 0.000000 0.625692 0.000000
O O8 0.500000 0.500000 0.567374
O O9 0.689460 0.500000 0.500000
O O10 0.680160 0.582802 0.604061
O O11 0.225248 0.763556 0.879187
O O12 0.000000 0.813660 0.876303
O O13 0.106563 0.843768 0.413768
O O14 0.000000 0.923750 0.500000
O O15 0.000000 0.000000 0.398242
#
# Coordination Sequence:
#
# PCOD8289600 Si02
#       6
#    16   8   8  16   8  16
#     4  10  19  35  59  85 114 151 195 246 295 339
#     4  11  24  39  55  82 122 156 184 231 300 362
#     4   9  18  34  58  83 115 154 191 235 291 342
#     4  10  21  37  57  88 120 149 192 245 295 348
#     4  11  22  38  58  85 115 151 199 244 283 344
#     4  12  22  35  58  87 115 152 194 243 288 345
#
# _framework density 18.015357999999999
#
# number of rings (size 3 to 8) (size 9 to 14) (size 15 to 20)
#    0.000    1.444    3.333    3.333    1.556    0.000 
#    0.000    0.000    0.000    0.667    0.000    1.556 
#    0.000    0.000    0.000    0.000    0.000    0.000 
#
# Total GULP energy -446145.578235 kJ/mol
# GULP energy per Si atom -12392.932729 kJ/mol
# Density = 1.797435 g / cm^3
# Si number density = 18.015358 Si / 1000 Ang^3
#
#
#
# Elastic Constant Matrix: (Units=GPa)
#
#
# Indices 1 2 3 4 5 6 
#
# 1 110.2812 61.8278 49.5080 0.0000 0.0000 0.0000
# 2 61.8278 150.6222 58.1900 0.0000 0.0000 0.0000
# 3 49.5080 58.1900 117.9676 0.0000 0.0000 0.0000
# 4 0.0000 0.0000 0.0000 29.0083 0.0000 0.0000
# 5 0.0000 0.0000 0.0000 0.0000 24.2985 0.0000
# 6 0.0000 0.0000 0.0000 0.0000 0.0000 29.2345
#
#
#
# Elastic Compliance Matrix: (Units=1/GPa)
#
#
# Indices 1 2 3 4 5 6 
#
# 1 0.012816 -0.003932 -0.003439 0.000000 0.000000 0.000000
# 2 -0.003932 0.009409 -0.002991 0.000000 0.000000 0.000000
# 3 -0.003439 -0.002991 0.011395 0.000000 0.000000 0.000000
# 4 0.000000 0.000000 0.000000 0.034473 0.000000 0.000000
# 5 0.000000 0.000000 0.000000 0.000000 0.041155 0.000000
# 6 0.000000 0.000000 0.000000 0.000000 0.000000 0.034206
#
#
# Mechanical properties :
#
#
# Convention : Reuss Voigt Hill
#
# Bulk Modulus (GPa) = 77.54158 79.76918 78.65538
# Shear Modulus (GPa) = 29.67769 30.46459 30.07114
#
# Velocity S-wave (km/s) = 4.06317 4.11668 4.09001
# Velocity P-wave (km/s) = 8.07142 8.18356 8.12768
#
# Compressibility (1/GPa) = 0.01289631
#
# Stress axis : x y z
#
# Youngs Moduli (GPa) = 78.02675 106.28496 87.75471
#
# Poissons Ratio (x) = 0.41794 0.30178
# Poissons Ratio (y) = 0.30682 0.26245
# Poissons Ratio (z) = 0.26833 0.31787
#
# Static dielectric constant tensor:
#      x y z
#    x 3.144190 0.000000 0.000000 
#    y 0.000000 3.314430 0.000000 
#    z 0.000000 0.000000 3.595610 
# 
# 
# High freq. dielectric constant tensor:
#      x y z
#    x 1.667830 0.000000 0.000000 
#    y 0.000000 1.695880 0.000000 
#    z 0.000000 0.000000 1.725300 
# 
# From -- ./inp_files/58630.got.cif
#   From: 2010.06.25/outbox.cif.g09.slc.cpg/sg71_30_cif.got.tgz:58630.got - 2010.06.28 04:59:45.
