data_PCOD8289492
_publ_section_title
;
Structure prediction by ZEFSAII (Michael W. Deem and Ramdas Pophale) SiO2 
 PCOD8289492
Probable space group: I M M M
;
_chemical_formula_sum "Si O2"
_cell_formula_units_Z 104
_cell_length_a 15.249782
_cell_length_b 15.170207
_cell_length_c 22.153964
_cell_angle_alpha 90.000000
_cell_angle_beta 90.000000
_cell_angle_gamma 90.000000
_cell_volume 5125.150086
_symmetry_space_group_name_H-M "I M M M"
_symmetry_group_IT_number 71
_symmetry_cell_setting 'orthorhombic'
loop_
_space_group_symop_operation_xyz
x,y,z
-x,-y,z
x,-y,-z
-x,y,-z
-x,-y,-z
x,y,-z
-x,y,z
x,-y,z
1/2+x,1/2+y,1/2+z
1/2-x,1/2-y,1/2+z
1/2+x,1/2-y,1/2-z
1/2-x,1/2+y,1/2-z
1/2-x,1/2-y,1/2-z
1/2+x,1/2+y,1/2-z
1/2-x,1/2+y,1/2+z
1/2+x,1/2-y,1/2+z
loop_
_atom_site_type_symbol
_atom_site_label
_atom_site_fract_x
_atom_site_fract_y
_atom_site_fract_z
Si Si1 0.212950 0.904578 0.680407
Si Si2 0.755267 0.601019 0.404816
Si Si3 0.600389 0.103812 0.000000
Si Si4 0.151073 0.594589 0.717372
Si Si5 0.094506 0.227076 0.250528
Si Si6 0.677671 0.900449 0.431282
Si Si7 0.399064 0.272513 0.387642
O O1 0.301648 0.908122 0.718376
O O2 0.154351 0.826923 0.704818
O O3 0.237467 0.884547 0.610939
O O4 0.164932 0.000000 0.685112
O O5 0.731878 0.500000 0.422333
O O6 0.841836 0.633066 0.441731
O O7 0.776275 0.609413 0.334221
O O8 0.669527 0.660754 0.420081
O O9 0.500000 0.144711 0.000000
O O10 0.588306 0.000000 0.000000
O O11 0.102730 0.500000 0.706278
O O12 0.083931 0.675190 0.720953
O O13 0.130080 0.230838 0.182427
O O14 0.000000 0.181597 0.250416
O O15 0.709224 0.889983 0.500000
O O16 0.605962 0.825583 0.415979
O O17 0.639428 0.000000 0.420420
O O18 0.500000 0.304881 0.395629
#
# Coordination Sequence:
#
# PCOD8289492 Si02
#       7
#    16  16   8  16  16  16  16
#     4  10  19  36  60  84 114 153 201 249 302 363
#     4  10  21  38  60  86 120 159 197 242 295 356
#     4   9  20  40  63  85 112 149 195 243 293 350
#     4  10  19  34  58  82 108 151 196 239 298 358
#     4  11  22  35  55  86 123 154 188 244 304 362
#     4  10  22  40  62  85 110 154 211 261 305 353
#     4  11  23  37  57  88 124 162 201 241 291 361
#
# _framework density 20.292089000000001
#
# number of rings (size 3 to 8) (size 9 to 14) (size 15 to 20)
#    0.000    1.769    3.077    1.385    1.077    2.154 
#    0.000    5.385    0.000    1.846    0.000    2.154 
#    0.000    0.000    0.000    0.000    0.000    0.000 
#
# Total GULP energy -644329.821373 kJ/mol
# GULP energy per Si atom -12390.958103 kJ/mol
# Density = 2.024590 g / cm^3
# Si number density = 20.292089 Si / 1000 Ang^3
#
#
#
# Elastic Constant Matrix: (Units=GPa)
#
#
# Indices 1 2 3 4 5 6 
#
# 1 106.6134 60.0673 42.3061 0.0000 0.0000 0.0000
# 2 60.0673 108.0932 36.3629 0.0000 0.0000 0.0000
# 3 42.3061 36.3629 112.5216 0.0000 0.0000 0.0000
# 4 0.0000 0.0000 0.0000 24.0748 0.0000 0.0000
# 5 0.0000 0.0000 0.0000 0.0000 22.0815 0.0000
# 6 0.0000 0.0000 0.0000 0.0000 0.0000 -1.5858
#
#
#
# Elastic Compliance Matrix: (Units=1/GPa)
#
#
# Indices 1 2 3 4 5 6 
#
# 1 0.014628 -0.007044 -0.003223 0.000000 0.000000 0.000000
# 2 -0.007044 0.013772 -0.001802 0.000000 0.000000 0.000000
# 3 -0.003223 -0.001802 0.010681 0.000000 0.000000 0.000000
# 4 0.000000 0.000000 0.000000 0.041537 0.000000 0.000000
# 5 0.000000 0.000000 0.000000 0.000000 0.045287 0.000000
# 6 0.000000 0.000000 0.000000 0.000000 0.000000 -0.630608
#
#
# Mechanical properties :
#
#
# Convention : Reuss Voigt Hill
#
# Bulk Modulus (GPa) = 66.92630 67.18900 67.05765
# Shear Modulus (GPa) = -10.51341 21.48022 5.48341
#
# Velocity S-wave (km/s) = -2.27866 3.25707 1.64563
# Velocity P-wave (km/s) = 5.11175 6.87950 6.06042
#
# Compressibility (1/GPa) = 0.01494181
#
# Stress axis : x y z
#
# Youngs Moduli (GPa) = 68.36436 72.61138 93.62026
#
# Poissons Ratio (x) = 0.51149 0.30176
# Poissons Ratio (y) = 0.48157 0.16871
# Poissons Ratio (z) = 0.22036 0.13085
#
# Static dielectric constant tensor:
#      x y z
#    x 3.327270 0.000000 0.000000 
#    y 0.000000 3.919210 0.000000 
#    z 0.000000 0.000000 3.755540 
# 
# 
# High freq. dielectric constant tensor:
#      x y z
#    x 1.756280 0.000000 0.000000 
#    y 0.000000 1.797370 0.000000 
#    z 0.000000 0.000000 1.796670 
# 
# From -- ./inp_files/59917.got.cif
#   From: 2010.06.25/outbox.cif.g09.slc.cpg/sg71_30_cif.got.tgz:59917.got - 2010.06.28 04:59:45.
