data_PCOD8289439
_publ_section_title
;
Structure prediction by ZEFSAII (Michael W. Deem and Ramdas Pophale) SiO2 
 PCOD8289439
Probable space group: I M M M
;
_chemical_formula_sum "Si O2"
_cell_formula_units_Z 96
_cell_length_a 9.807593
_cell_length_b 21.739088
_cell_length_c 25.207407
_cell_angle_alpha 90.000000
_cell_angle_beta 90.000000
_cell_angle_gamma 90.000000
_cell_volume 5374.424040
_symmetry_space_group_name_H-M "I M M M"
_symmetry_group_IT_number 71
_symmetry_cell_setting 'orthorhombic'
loop_
_space_group_symop_operation_xyz
x,y,z
-x,-y,z
x,-y,-z
-x,y,-z
-x,-y,-z
x,y,-z
-x,y,z
x,-y,z
1/2+x,1/2+y,1/2+z
1/2-x,1/2-y,1/2+z
1/2+x,1/2-y,1/2-z
1/2-x,1/2+y,1/2-z
1/2-x,1/2-y,1/2-z
1/2+x,1/2+y,1/2-z
1/2-x,1/2+y,1/2+z
1/2+x,1/2-y,1/2+z
loop_
_atom_site_type_symbol
_atom_site_label
_atom_site_fract_x
_atom_site_fract_y
_atom_site_fract_z
Si Si1 0.657446 0.841865 0.651534
Si Si2 0.661758 0.930840 0.440941
Si Si3 0.157119 0.130491 0.248820
Si Si4 0.654686 0.000000 0.099740
Si Si5 0.155420 0.801388 0.857546
Si Si6 0.154182 0.000000 0.799945
Si Si7 0.344477 0.131756 0.940133
O O1 0.500000 0.858482 0.663824
O O2 0.716190 0.882636 0.602757
O O3 0.746447 0.854262 0.702739
O O4 0.672873 0.771065 0.636595
O O5 0.716719 0.913365 0.500000
O O6 0.500000 0.928311 0.442005
O O7 0.710555 0.000000 0.426011
O O8 0.201574 0.174290 0.200092
O O9 0.182446 0.059504 0.235428
O O10 0.000000 0.142948 0.264355
O O11 0.748794 0.000000 0.150447
O O12 0.684863 0.940784 0.063963
O O13 0.500000 0.000000 0.120713
O O14 0.246910 0.831073 0.902173
O O15 0.000000 0.822072 0.867428
O O16 0.000000 0.000000 0.821632
O O17 0.500000 0.146547 0.924211
O O18 0.314327 0.152592 0.000000
#
# Coordination Sequence:
#
# PCOD8289439 Si02
#       7
#    16  16  16   8  16   8  16
#     4  10  21  34  55  84 106 132 178 226 261 311
#     4   8  15  30  51  75 104 133 161 205 265 315
#     4  10  21  36  53  75 108 145 175 212 267 324
#     4  10  19  34  56  80 106 139 181 229 274 312
#     4  10  21  37  54  76 108 145 181 219 268 319
#     4  10  20  35  55  77 107 143 178 218 264 321
#     4  10  21  36  55  80 109 142 182 227 273 319
#
# _framework density 17.862379000000001
#
# number of rings (size 3 to 8) (size 9 to 14) (size 15 to 20)
#    0.000    2.333    1.667    1.250    1.167    4.000 
#    0.000    1.667    0.000    2.000    0.000    1.167 
#    0.000    0.000    0.000    0.000    0.000    0.000 
#
# Total GULP energy -595185.624181 kJ/mol
# GULP energy per Si atom -12399.700504 kJ/mol
# Density = 1.782172 g / cm^3
# Si number density = 17.862379 Si / 1000 Ang^3
#
#
#
# Elastic Constant Matrix: (Units=GPa)
#
#
# Indices 1 2 3 4 5 6 
#
# 1 72.7439 43.8648 73.5000 0.0000 0.0000 0.0000
# 2 43.8648 107.2754 70.1322 0.0000 0.0000 0.0000
# 3 73.5000 70.1322 148.1135 0.0000 0.0000 0.0000
# 4 0.0000 0.0000 0.0000 139.7235 0.0000 0.0000
# 5 0.0000 0.0000 0.0000 0.0000 22.2430 0.0000
# 6 0.0000 0.0000 0.0000 0.0000 0.0000 38.6585
#
#
#
# Elastic Compliance Matrix: (Units=1/GPa)
#
#
# Indices 1 2 3 4 5 6 
#
# 1 0.028440 -0.003480 -0.012466 0.000000 0.000000 0.000000
# 2 -0.003480 0.013927 -0.004868 0.000000 0.000000 0.000000
# 3 -0.012466 -0.004868 0.015242 0.000000 0.000000 0.000000
# 4 0.000000 0.000000 0.000000 0.007157 0.000000 0.000000
# 5 0.000000 0.000000 0.000000 0.000000 0.044958 0.000000
# 6 0.000000 0.000000 0.000000 0.000000 0.000000 0.025868
#
#
# Mechanical properties :
#
#
# Convention : Reuss Voigt Hill
#
# Bulk Modulus (GPa) = 62.56395 78.12522 70.34458
# Shear Modulus (GPa) = 27.39037 49.50070 38.44554
#
# Velocity S-wave (km/s) = 3.92013 5.26996 4.64434
# Velocity P-wave (km/s) = 7.45597 8.99234 8.25995
#
# Compressibility (1/GPa) = 0.01598365
#
# Stress axis : x y z
#
# Youngs Moduli (GPa) = 35.16141 71.80333 65.60667
#
# Poissons Ratio (x) = 0.24986 0.81782
# Poissons Ratio (y) = 0.12235 0.31935
# Poissons Ratio (z) = 0.43831 0.34951
#
# Static dielectric constant tensor:
#      x y z
#    x 3.189640 0.000000 0.000000 
#    y 0.000000 3.655000 0.000000 
#    z 0.000000 0.000000 3.373530 
# 
# 
# High freq. dielectric constant tensor:
#      x y z
#    x 1.672920 0.000000 0.000000 
#    y 0.000000 1.702430 0.000000 
#    z 0.000000 0.000000 1.692420 
# 
# From -- ./inp_files/52043.got.cif
#   From: 2010.06.25/outbox.cif.g09.slc.cpg/sg71_27_cif.got.tgz:52043.got - 2010.06.28 04:59:45.
