data_PCOD8289843
_publ_section_title
;
Structure prediction by ZEFSAII (Michael W. Deem and Ramdas Pophale) SiO2 
 PCOD8289843
Probable space group: I M M M
;
_chemical_formula_sum "Si O2"
_cell_formula_units_Z 96
_cell_length_a 30.846536
_cell_length_b 19.300210
_cell_length_c 9.320793
_cell_angle_alpha 90.000000
_cell_angle_beta 90.000000
_cell_angle_gamma 90.000000
_cell_volume 5549.083991
_symmetry_space_group_name_H-M "I M M M"
_symmetry_group_IT_number 71
_symmetry_cell_setting 'orthorhombic'
loop_
_space_group_symop_operation_xyz
x,y,z
-x,-y,z
x,-y,-z
-x,y,-z
-x,-y,-z
x,y,-z
-x,y,z
x,-y,z
1/2+x,1/2+y,1/2+z
1/2-x,1/2-y,1/2+z
1/2+x,1/2-y,1/2-z
1/2-x,1/2+y,1/2-z
1/2-x,1/2-y,1/2-z
1/2+x,1/2+y,1/2-z
1/2-x,1/2+y,1/2+z
1/2+x,1/2-y,1/2+z
loop_
_atom_site_type_symbol
_atom_site_label
_atom_site_fract_x
_atom_site_fract_y
_atom_site_fract_z
Si Si1 0.300236 0.824144 0.835547
Si Si2 0.618433 0.834006 0.333817
Si Si3 0.707216 0.687133 0.663133
Si Si4 0.113597 0.170785 0.839089
Si Si5 0.449789 0.920328 0.835765
Si Si6 0.451256 0.577734 0.169323
O O1 0.337228 0.861710 0.741422
O O2 0.294035 0.745502 0.784509
O O3 0.251686 0.858047 0.818574
O O4 0.315729 0.825843 0.000000
O O5 0.621624 0.852380 0.500000
O O6 0.613124 0.752491 0.305219
O O7 0.577218 0.872146 0.269177
O O8 0.706532 0.719413 0.500000
O O9 0.663065 0.642265 0.681185
O O10 0.081965 0.132325 0.732415
O O11 0.097096 0.156771 0.000000
O O12 0.500000 0.906759 0.802431
O O13 0.437864 0.000000 0.806029
O O14 0.439230 0.901138 0.000000
O O15 0.500000 0.596963 0.218548
O O16 0.439860 0.500000 0.221820
O O17 0.447693 0.581953 0.000000
#
# Coordination Sequence:
#
# PCOD8289843 Si02
#       6
#    16  16  16  16  16  16
#     4   9  15  25  44  67  93 127 162 193 231 279
#     4  10  20  32  47  72 104 130 156 195 239 281
#     4   8  15  27  42  65  97 126 154 193 238 282
#     4   9  18  31  47  71 100 125 153 192 235 278
#     4   9  19  36  55  73  94 123 161 201 239 285
#     4   9  19  35  51  67  90 121 157 196 237 281
#
# _framework density 17.300152000000001
#
# number of rings (size 3 to 8) (size 9 to 14) (size 15 to 20)
#    0.000    3.000    0.000    3.000    0.000    6.000 
#    0.000    5.000    0.000    1.000    0.000    2.333 
#    0.000    0.000    0.000    0.000    0.000    0.000 
#
# Total GULP energy -594750.495295 kJ/mol
# GULP energy per Si atom -12390.635319 kJ/mol
# Density = 1.726078 g / cm^3
# Si number density = 17.300152 Si / 1000 Ang^3
#
#
#
# Elastic Constant Matrix: (Units=GPa)
#
#
# Indices 1 2 3 4 5 6 
#
# 1 137.1104 47.7429 67.6329 0.0000 0.0000 0.0000
# 2 47.7429 39.3294 34.0889 0.0000 0.0000 0.0000
# 3 67.6329 34.0889 93.1661 0.0000 0.0000 0.0000
# 4 0.0000 0.0000 0.0000 21.4580 0.0000 0.0000
# 5 0.0000 0.0000 0.0000 0.0000 33.5803 0.0000
# 6 0.0000 0.0000 0.0000 0.0000 0.0000 -4.2449
#
#
#
# Elastic Compliance Matrix: (Units=1/GPa)
#
#
# Indices 1 2 3 4 5 6 
#
# 1 0.014637 -0.012533 -0.006040 0.000000 0.000000 0.000000
# 2 -0.012533 0.047967 -0.008453 0.000000 0.000000 0.000000
# 3 -0.006040 -0.008453 0.018211 0.000000 0.000000 0.000000
# 4 0.000000 0.000000 0.000000 0.046603 0.000000 0.000000
# 5 0.000000 0.000000 0.000000 0.000000 0.029779 0.000000
# 6 0.000000 0.000000 0.000000 0.000000 0.000000 -0.235579
#
#
# Mechanical properties :
#
#
# Convention : Reuss Voigt Hill
#
# Bulk Modulus (GPa) = 37.36401 63.17059 50.26730
# Shear Modulus (GPa) = -324.43112 18.16809 -153.13152
#
# Velocity S-wave (km/s) = -13.70904 3.24415 -9.41842
# Velocity P-wave (km/s) = 15.13075 7.11522 9.44227
#
# Compressibility (1/GPa) = 0.02676372
#
# Stress axis : x y z
#
# Youngs Moduli (GPa) = 68.32190 20.84786 54.91304
#
# Poissons Ratio (x) = 0.26128 0.33165
# Poissons Ratio (y) = 0.85627 0.46416
# Poissons Ratio (z) = 0.41263 0.17622
#
# Static dielectric constant tensor:
#      x y z
#    x 3.633000 0.000000 0.000000 
#    y 0.000000 2.766320 0.000000 
#    z 0.000000 0.000000 3.235690 
# 
# 
# High freq. dielectric constant tensor:
#      x y z
#    x 1.691400 0.000000 0.000000 
#    y 0.000000 1.609820 0.000000 
#    z 0.000000 0.000000 1.675660 
# 
# From -- ./inp_files/14843.got.cif
#   From: 2010.06.25/outbox.cif.g09.slc.cpg/sg71_8_cif.got.tgz:14843.got - 2010.06.28 04:59:45.
