data_PCOD8289947
_publ_section_title
;
Structure prediction by ZEFSAII (Michael W. Deem and Ramdas Pophale) SiO2 
 PCOD8289947
Probable space group: I M M M
;
_chemical_formula_sum "Si O2"
_cell_formula_units_Z 64
_cell_length_a 37.251119
_cell_length_b 9.526333
_cell_length_c 10.062269
_cell_angle_alpha 90.000000
_cell_angle_beta 90.000000
_cell_angle_gamma 90.000000
_cell_volume 3570.762828
_symmetry_space_group_name_H-M "I M M M"
_symmetry_group_IT_number 71
_symmetry_cell_setting 'orthorhombic'
loop_
_space_group_symop_operation_xyz
x,y,z
-x,-y,z
x,-y,-z
-x,y,-z
-x,-y,-z
x,y,-z
-x,y,z
x,-y,z
1/2+x,1/2+y,1/2+z
1/2-x,1/2-y,1/2+z
1/2+x,1/2-y,1/2-z
1/2-x,1/2+y,1/2-z
1/2-x,1/2-y,1/2-z
1/2+x,1/2+y,1/2-z
1/2-x,1/2+y,1/2+z
1/2+x,1/2-y,1/2+z
loop_
_atom_site_type_symbol
_atom_site_label
_atom_site_fract_x
_atom_site_fract_y
_atom_site_fract_z
Si Si1 0.099688 0.837315 0.151508
Si Si2 0.460110 0.666668 0.148818
Si Si3 0.669004 0.162628 0.277412
Si Si4 0.702617 0.162848 0.000000
Si Si5 0.774486 0.338281 0.000000
O O1 0.068518 0.773697 0.245742
O O2 0.135932 0.754557 0.176337
O O3 0.106999 0.000000 0.184230
O O4 0.086996 0.817595 0.000000
O O5 0.500000 0.724432 0.183011
O O6 0.460851 0.500000 0.157076
O O7 0.449031 0.714782 0.000000
O O8 0.678840 0.202492 0.127177
O O9 0.702885 0.199191 0.369173
O O10 0.658349 0.000000 0.292819
O O11 0.739172 0.246896 0.000000
O O12 0.713204 0.000000 0.000000
O O13 0.762848 0.500000 0.000000
#
# Coordination Sequence:
#
# PCOD8289947 Si02
#       5
#    16  16  16   8   8
#     4  10  20  32  50  78 105 133 173 215 251 293
#     4   8  15  29  49  74 105 137 167 205 254 301
#     4  10  21  37  53  74 105 138 169 205 256 310
#     4  10  22  36  54  78 101 130 171 215 256 301
#     4  10  20  36  56  74  99 136 171 205 254 311
#
# _framework density 17.923341000000001
#
# number of rings (size 3 to 8) (size 9 to 14) (size 15 to 20)
#    0.000    2.500    1.250    1.500    1.750    2.500 
#    0.000    2.500    0.000    0.750    0.000    3.500 
#    0.000    0.000    0.000    0.000    0.000    0.000 
#
# Total GULP energy -396806.362823 kJ/mol
# GULP energy per Si atom -12400.198838 kJ/mol
# Density = 1.788255 g / cm^3
# Si number density = 17.923341 Si / 1000 Ang^3
#
#
#
# Elastic Constant Matrix: (Units=GPa)
#
#
# Indices 1 2 3 4 5 6 
#
# 1 90.8302 38.3103 42.3940 0.0000 0.0000 0.0000
# 2 38.3103 37.9689 29.1999 0.0000 0.0000 0.0000
# 3 42.3940 29.1999 119.7010 0.0000 0.0000 0.0000
# 4 0.0000 0.0000 0.0000 15.7518 0.0000 0.0000
# 5 0.0000 0.0000 0.0000 0.0000 52.8198 0.0000
# 6 0.0000 0.0000 0.0000 0.0000 0.0000 10.8141
#
#
#
# Elastic Compliance Matrix: (Units=1/GPa)
#
#
# Indices 1 2 3 4 5 6 
#
# 1 0.019819 -0.017971 -0.002636 0.000000 0.000000 0.000000
# 2 -0.017971 0.048714 -0.005519 0.000000 0.000000 0.000000
# 3 -0.002636 -0.005519 0.010634 0.000000 0.000000 0.000000
# 4 0.000000 0.000000 0.000000 0.063485 0.000000 0.000000
# 5 0.000000 0.000000 0.000000 0.000000 0.018932 0.000000
# 6 0.000000 0.000000 0.000000 0.000000 0.000000 0.092472
#
#
# Mechanical properties :
#
#
# Convention : Reuss Voigt Hill
#
# Bulk Modulus (GPa) = 37.15115 52.03428 44.59271
# Shear Modulus (GPa) = 15.85904 25.11687 20.48795
#
# Velocity S-wave (km/s) = 2.97783 3.74752 3.38463
# Velocity P-wave (km/s) = 5.70930 6.91519 6.34097
#
# Compressibility (1/GPa) = 0.02691707
#
# Stress axis : x y z
#
# Youngs Moduli (GPa) = 50.45590 20.52816 94.03983
#
# Poissons Ratio (x) = 0.36890 0.24785
# Poissons Ratio (y) = 0.90672 0.51897
# Poissons Ratio (z) = 0.13298 0.11329
#
# Static dielectric constant tensor:
#      x y z
#    x 3.349810 0.000000 0.000000 
#    y 0.000000 3.031060 0.000000 
#    z 0.000000 0.000000 3.802060 
# 
# 
# High freq. dielectric constant tensor:
#      x y z
#    x 1.694620 0.000000 0.000000 
#    y 0.000000 1.660420 0.000000 
#    z 0.000000 0.000000 1.713510 
# 
# From -- ./inp_files/3737.got.cif
#   From: 2010.06.25/outbox.cif.g09.slc.cpg/sg71_2_cif.got.tgz:3737.got - 2010.06.28 04:59:45.
