data_PCOD8289511
_publ_section_title
;
Structure prediction by ZEFSAII (Michael W. Deem and Ramdas Pophale) SiO2 
 PCOD8289511
Probable space group: I M M M
;
_chemical_formula_sum "Si O2"
_cell_formula_units_Z 72
_cell_length_a 7.749061
_cell_length_b 32.545904
_cell_length_c 13.646161
_cell_angle_alpha 90.000000
_cell_angle_beta 90.000000
_cell_angle_gamma 90.000000
_cell_volume 3441.564471
_symmetry_space_group_name_H-M "I M M M"
_symmetry_group_IT_number 71
_symmetry_cell_setting 'orthorhombic'
loop_
_space_group_symop_operation_xyz
x,y,z
-x,-y,z
x,-y,-z
-x,y,-z
-x,-y,-z
x,y,-z
-x,y,z
x,-y,z
1/2+x,1/2+y,1/2+z
1/2-x,1/2-y,1/2+z
1/2+x,1/2-y,1/2-z
1/2-x,1/2+y,1/2-z
1/2-x,1/2-y,1/2-z
1/2+x,1/2+y,1/2-z
1/2-x,1/2+y,1/2+z
1/2+x,1/2-y,1/2+z
loop_
_atom_site_type_symbol
_atom_site_label
_atom_site_fract_x
_atom_site_fract_y
_atom_site_fract_z
Si Si1 0.308409 0.334840 0.616174
Si Si2 0.806395 0.628976 0.888633
Si Si3 0.793839 0.000000 0.889328
Si Si4 0.500000 0.221141 0.116977
Si Si5 0.000000 0.186755 0.383290
Si Si6 0.797798 0.081062 0.784134
O O1 0.313681 0.333900 0.500000
O O2 0.500000 0.323999 0.658482
O O3 0.251283 0.380427 0.647059
O O4 0.170506 0.302015 0.656651
O O5 0.672229 0.662997 0.846705
O O6 0.789016 0.588184 0.822342
O O7 0.000000 0.647125 0.882286
O O8 0.759955 0.616827 0.000000
O O9 0.721177 0.040111 0.833511
O O10 0.000000 0.000000 0.891479
O O11 0.721967 0.000000 0.000000
O O12 0.500000 0.267285 0.159626
O O13 0.500000 0.221347 0.000000
O O14 0.000000 0.188642 0.500000
O O15 0.000000 0.075861 0.769066
#
# Coordination Sequence:
#
# PCOD8289511 Si02
#       6
#    16  16   8   8   8  16
#     4   9  18  32  52  79 112 150 187 226 280 343
#     4  10  21  37  59  82 108 149 194 237 289 336
#     4   9  18  34  60  95 124 153 190 226 273 338
#     4   9  18  32  54  81 110 147 188 237 288 331
#     4   9  18  36  58  81 109 143 193 245 283 335
#     4  10  19  34  59  84 116 151 190 232 282 334
#
# _framework density 20.920717
#
# number of rings (size 3 to 8) (size 9 to 14) (size 15 to 20)
#    0.000    2.556    1.111    0.667    1.556    3.556 
#    0.000    6.667    0.000    4.000    0.000    0.000 
#    0.000    0.000    0.000    0.000    0.000    0.000 
#
# Total GULP energy -446370.241263 kJ/mol
# GULP energy per Si atom -12399.173368 kJ/mol
# Density = 2.087310 g / cm^3
# Si number density = 20.920717 Si / 1000 Ang^3
#
#
#
# Elastic Constant Matrix: (Units=GPa)
#
#
# Indices 1 2 3 4 5 6 
#
# 1 103.4444 71.9682 51.1336 -0.0001 0.0000 0.0000
# 2 71.9682 177.6234 62.4285 -0.0004 0.0000 0.0000
# 3 51.1336 62.4285 57.8956 -0.0012 0.0000 0.0000
# 4 -0.0001 -0.0004 -0.0012 29.7288 0.0000 0.0000
# 5 0.0000 0.0000 0.0000 0.0000 21.9686 -0.0001
# 6 0.0000 0.0000 0.0000 0.0000 -0.0001 17.3387
#
#
#
# Elastic Compliance Matrix: (Units=1/GPa)
#
#
# Indices 1 2 3 4 5 6 
#
# 1 0.017949 -0.002739 -0.012899 0.000000 0.000000 0.000000
# 2 -0.002739 0.009483 -0.007807 0.000000 0.000000 0.000000
# 3 -0.012899 -0.007807 0.037083 0.000001 0.000000 0.000000
# 4 0.000000 0.000000 0.000001 0.033637 0.000000 0.000000
# 5 0.000000 0.000000 0.000000 0.000000 0.045519 0.000000
# 6 0.000000 0.000000 0.000000 0.000000 0.000000 0.057674
#
#
# Mechanical properties :
#
#
# Convention : Reuss Voigt Hill
#
# Bulk Modulus (GPa) = 56.73588 78.89155 67.81372
# Shear Modulus (GPa) = 19.67639 24.03610 21.85625
#
# Velocity S-wave (km/s) = 3.07012 3.39324 3.23572
# Velocity P-wave (km/s) = 6.30443 7.28998 6.81504
#
# Compressibility (1/GPa) = 0.01762553
#
# Stress axis : x y z
#
# Youngs Moduli (GPa) = 55.71488 105.44662 26.96627
#
# Poissons Ratio (x) = 0.28878 0.34784
# Poissons Ratio (y) = 0.15259 0.21053
# Poissons Ratio (z) = 0.71867 0.82324
#
# Static dielectric constant tensor:
#      x y z
#    x 3.875740 0.000000 0.000000 
#    y 0.000000 3.812850 0.000000 
#    z 0.000000 0.000000 3.753350 
# 
# 
# High freq. dielectric constant tensor:
#      x y z
#    x 1.817670 0.000000 0.000000 
#    y 0.000000 1.796130 0.000000 
#    z 0.000000 0.000000 1.823670 
# 
# From -- ./inp_files/31714.got.cif
#   From: 2010.06.25/outbox.cif.g09.slc.cpg/sg71_16_cif.got.tgz:31714.got - 2010.06.28 04:59:45.
