data_PCOD8289984
_publ_section_title
;
Structure prediction by ZEFSAII (Michael W. Deem and Ramdas Pophale) SiO2 
 PCOD8289984
Probable space group: I M M M
;
_chemical_formula_sum "Si O2"
_cell_formula_units_Z 112
_cell_length_a 14.254569
_cell_length_b 31.632482
_cell_length_c 15.164954
_cell_angle_alpha 90.000000
_cell_angle_beta 90.000000
_cell_angle_gamma 90.000000
_cell_volume 6837.989938
_symmetry_space_group_name_H-M "I M M M"
_symmetry_group_IT_number 71
_symmetry_cell_setting 'orthorhombic'
loop_
_space_group_symop_operation_xyz
x,y,z
-x,-y,z
x,-y,-z
-x,y,-z
-x,-y,-z
x,y,-z
-x,y,z
x,-y,z
1/2+x,1/2+y,1/2+z
1/2-x,1/2-y,1/2+z
1/2+x,1/2-y,1/2-z
1/2-x,1/2+y,1/2-z
1/2-x,1/2-y,1/2-z
1/2+x,1/2+y,1/2-z
1/2-x,1/2+y,1/2+z
1/2+x,1/2-y,1/2+z
loop_
_atom_site_type_symbol
_atom_site_label
_atom_site_fract_x
_atom_site_fract_y
_atom_site_fract_z
Si Si1 0.248608 0.548101 0.398620
Si Si2 0.898416 0.180592 0.851845
Si Si3 0.395099 0.118918 0.895375
Si Si4 0.200512 0.297174 0.597614
Si Si5 0.895141 0.783755 0.660713
Si Si6 0.107048 0.911437 0.223074
Si Si7 0.388651 0.372925 0.097916
O O1 0.278901 0.558723 0.500000
O O2 0.213383 0.500000 0.392367
O O3 0.163808 0.577947 0.366331
O O4 0.334382 0.553749 0.330507
O O5 0.812696 0.196951 0.910514
O O6 0.899243 0.207056 0.763118
O O7 0.884524 0.131391 0.831969
O O8 0.000000 0.187030 0.899485
O O9 0.500000 0.115006 0.856262
O O10 0.346311 0.161424 0.857336
O O11 0.397827 0.121568 0.000000
O O12 0.159709 0.291158 0.500000
O O13 0.174402 0.255562 0.651266
O O14 0.852479 0.824726 0.610208
O O15 0.000000 0.772667 0.625467
O O16 0.147403 0.903792 0.323371
O O17 0.000000 0.927530 0.227970
O O18 0.500000 0.370623 0.108651
O O19 0.358853 0.389441 0.000000
#
# Coordination Sequence:
#
# PCOD8289984 Si02
#       7
#    16  16  16  16  16  16  16
#     4  10  20  33  48  66  89 119 153 187 225 271
#     4   9  18  31  44  60  87 122 154 183 218 262
#     4   9  18  31  45  64  89 116 147 183 225 267
#     4  11  19  27  43  65  90 120 151 186 223 258
#     4   9  17  28  43  65  90 117 152 189 222 258
#     4   9  17  30  47  66  91 121 151 187 225 262
#     4   8  14  26  45  68  92 119 152 185 220 266
#
# _framework density 16.379083000000001
#
# number of rings (size 3 to 8) (size 9 to 14) (size 15 to 20)
#    0.000    2.714    1.429    3.000    0.000    2.571 
#    0.000    3.571    0.000    0.429    0.000    2.000 
#    0.000    0.571    0.000    1.286    0.000    0.143 
#
# Total GULP energy -693984.103739 kJ/mol
# GULP energy per Si atom -12392.573281 kJ/mol
# Density = 1.634180 g / cm^3
# Si number density = 16.379083 Si / 1000 Ang^3
#
#
#
# Elastic Constant Matrix: (Units=GPa)
#
#
# Indices 1 2 3 4 5 6 
#
# 1 77.7738 24.9779 15.9434 -0.0001 -0.0008 0.0000
# 2 24.9779 68.1860 23.0384 -0.0003 -0.0024 0.0000
# 3 15.9434 23.0384 55.6923 -0.0022 0.0087 0.0007
# 4 -0.0001 -0.0003 -0.0022 18.5565 0.0020 0.0001
# 5 -0.0008 -0.0024 0.0087 0.0020 37.6884 0.0007
# 6 0.0000 0.0000 0.0007 0.0001 0.0007 19.7532
#
#
#
# Elastic Compliance Matrix: (Units=1/GPa)
#
#
# Indices 1 2 3 4 5 6 
#
# 1 0.014826 -0.004646 -0.002322 0.000000 0.000001 0.000000
# 2 -0.004646 0.018505 -0.006325 0.000000 0.000003 0.000000
# 3 -0.002322 -0.006325 0.021237 0.000002 -0.000005 -0.000001
# 4 0.000000 0.000000 0.000002 0.053889 -0.000003 0.000000
# 5 0.000001 0.000003 -0.000005 -0.000003 0.026533 -0.000001
# 6 0.000000 0.000000 -0.000001 0.000000 -0.000001 0.050625
#
#
# Mechanical properties :
#
#
# Convention : Reuss Voigt Hill
#
# Bulk Modulus (GPa) = 35.73858 36.61905 36.17882
# Shear Modulus (GPa) = 22.57036 24.37912 23.47474
#
# Velocity S-wave (km/s) = 3.71617 3.86220 3.78989
# Velocity P-wave (km/s) = 6.34667 6.50343 6.42553
#
# Compressibility (1/GPa) = 0.02798097
#
# Stress axis : x y z
#
# Youngs Moduli (GPa) = 67.44850 54.03985 47.08761
#
# Poissons Ratio (x) = 0.25109 0.10935
# Poissons Ratio (y) = 0.31340 0.29782
# Poissons Ratio (z) = 0.15663 0.34179
#
# Static dielectric constant tensor:
#      x y z
#    x 3.099060 0.000000 0.000000 
#    y 0.000000 2.936140 0.000000 
#    z 0.000000 0.000000 2.948480 
# 
# 
# High freq. dielectric constant tensor:
#      x y z
#    x 1.612810 0.000000 0.000000 
#    y 0.000000 1.616350 0.000000 
#    z 0.000000 0.000000 1.607880 
# 
# From -- ./inp_files/35340.got.cif
#   From: 2010.06.25/outbox.cif.g09.slc.cpg/sg71_18_cif.got.tgz:35340.got - 2010.06.28 04:59:45.
