data_PCOD8289831
_publ_section_title
;
Structure prediction by ZEFSAII (Michael W. Deem and Ramdas Pophale) SiO2 
 PCOD8289831
Probable space group: I M M M
;
_chemical_formula_sum "Si O2"
_cell_formula_units_Z 120
_cell_length_a 8.926318
_cell_length_b 26.769862
_cell_length_c 28.089411
_cell_angle_alpha 90.000000
_cell_angle_beta 90.000000
_cell_angle_gamma 90.000000
_cell_volume 6712.141751
_symmetry_space_group_name_H-M "I M M M"
_symmetry_group_IT_number 71
_symmetry_cell_setting 'orthorhombic'
loop_
_space_group_symop_operation_xyz
x,y,z
-x,-y,z
x,-y,-z
-x,y,-z
-x,-y,-z
x,y,-z
-x,y,z
x,-y,z
1/2+x,1/2+y,1/2+z
1/2-x,1/2-y,1/2+z
1/2+x,1/2-y,1/2-z
1/2-x,1/2+y,1/2-z
1/2-x,1/2-y,1/2-z
1/2+x,1/2+y,1/2-z
1/2-x,1/2+y,1/2+z
1/2+x,1/2-y,1/2+z
loop_
_atom_site_type_symbol
_atom_site_label
_atom_site_fract_x
_atom_site_fract_y
_atom_site_fract_z
Si Si1 0.327873 0.409932 0.118698
Si Si2 0.177000 0.214780 0.946114
Si Si3 0.322143 0.500000 0.053326
Si Si4 0.675967 0.650178 0.361268
Si Si5 0.178028 0.055687 0.808780
Si Si6 0.327175 0.703212 0.113221
Si Si7 0.828207 0.557812 0.789264
Si Si8 0.822876 0.245176 0.801261
O O1 0.500000 0.422320 0.131101
O O2 0.265650 0.450282 0.080738
O O3 0.310240 0.354450 0.097651
O O4 0.233740 0.410779 0.166952
O O5 0.233972 0.168827 0.912916
O O6 0.256863 0.265491 0.929989
O O7 0.000000 0.223034 0.939997
O O8 0.221766 0.201921 0.000000
O O9 0.500000 0.500000 0.050052
O O10 0.253545 0.500000 0.000000
O O11 0.500000 0.644727 0.363714
O O12 0.741672 0.595658 0.347327
O O13 0.720239 0.690671 0.321426
O O14 0.237383 0.072618 0.757632
O O15 0.000000 0.056579 0.806415
O O16 0.236110 0.000000 0.822374
O O17 0.500000 0.718024 0.120036
O O18 0.242513 0.713261 0.162970
O O19 0.805618 0.500000 0.801681
O O20 0.000000 0.571678 0.780416
O O21 0.750000 0.250000 0.750000
O O22 0.000000 0.252879 0.797487
#
# Coordination Sequence:
#
# PCOD8289831 Si02
#       8
#    16  16   8  16  16  16  16  16
#     4  10  20  34  53  72  96 131 169 210 255 310
#     4   9  18  35  57  76  98 133 172 209 257 313
#     4   9  18  34  55  75  93 121 167 217 260 305
#     4   8  16  31  50  73 100 131 168 208 246 296
#     4   9  17  30  50  74 101 135 171 205 244 297
#     4  10  21  34  50  76 103 131 170 217 263 305
#     4  10  20  32  47  70 100 133 168 208 250 294
#     4  10  20  34  50  71 103 140 174 211 255 308
#
# _framework density 17.878049000000001
#
# number of rings (size 3 to 8) (size 9 to 14) (size 15 to 20)
#    0.000    2.600    0.667    2.000    1.867    2.400 
#    0.000    4.000    0.000    1.200    0.000    2.800 
#    0.000    0.000    0.000    8.133    0.000    8.800 
#
# Total GULP energy -743849.104175 kJ/mol
# GULP energy per Si atom -12397.485070 kJ/mol
# Density = 1.783736 g / cm^3
# Si number density = 17.878049 Si / 1000 Ang^3
#
#
#
# Elastic Constant Matrix: (Units=GPa)
#
#
# Indices 1 2 3 4 5 6 
#
# 1 40.8541 27.8313 34.8641 0.0000 0.0000 0.0000
# 2 27.8313 122.1847 76.7578 0.0000 0.0000 0.0000
# 3 34.8641 76.7578 145.9618 0.0000 0.0000 0.0000
# 4 0.0000 0.0000 0.0000 21.0100 0.0000 0.0000
# 5 0.0000 0.0000 0.0000 0.0000 19.1368 0.0000
# 6 0.0000 0.0000 0.0000 0.0000 0.0000 20.7124
#
#
#
# Elastic Compliance Matrix: (Units=1/GPa)
#
#
# Indices 1 2 3 4 5 6 
#
# 1 0.031823 -0.003694 -0.005659 0.000000 0.000000 0.000000
# 2 -0.003694 0.012651 -0.005770 0.000000 0.000000 0.000000
# 3 -0.005659 -0.005770 0.011237 0.000000 0.000000 0.000000
# 4 0.000000 0.000000 0.000000 0.047596 0.000000 0.000000
# 5 0.000000 0.000000 0.000000 0.000000 0.052255 0.000000
# 6 0.000000 0.000000 0.000000 0.000000 0.000000 0.048280
#
#
# Mechanical properties :
#
#
# Convention : Reuss Voigt Hill
#
# Bulk Modulus (GPa) = 39.26965 65.32299 52.29632
# Shear Modulus (GPa) = 20.61204 23.47499 22.04351
#
# Velocity S-wave (km/s) = 3.39916 3.62755 3.51521
# Velocity P-wave (km/s) = 6.11708 7.35955 6.76689
#
# Compressibility (1/GPa) = 0.02546496
#
# Stress axis : x y z
#
# Youngs Moduli (GPa) = 31.42423 79.04672 88.98986
#
# Poissons Ratio (x) = 0.29198 0.50356
# Poissons Ratio (y) = 0.11607 0.51351
# Poissons Ratio (z) = 0.17782 0.45613
#
# Static dielectric constant tensor:
#      x y z
#    x 3.166540 0.000000 0.000000 
#    y 0.000000 3.577930 0.000000 
#    z 0.000000 0.000000 3.374070 
# 
# 
# High freq. dielectric constant tensor:
#      x y z
#    x 1.675300 0.000000 0.000000 
#    y 0.000000 1.691590 0.000000 
#    z 0.000000 0.000000 1.681540 
# 
# From -- ./inp_files/63789.got.cif
#   From: 2010.06.25/outbox.cif.g09.slc.cpg/sg71_32_cif.got.tgz:63789.got - 2010.06.28 04:59:45.
