data_PCOD8289943
_publ_section_title
;
Structure prediction by ZEFSAII (Michael W. Deem and Ramdas Pophale) SiO2 
 PCOD8289943
Probable space group: I M M M
;
_chemical_formula_sum "Si O2"
_cell_formula_units_Z 80
_cell_length_a 15.039859
_cell_length_b 30.662191
_cell_length_c 9.720554
_cell_angle_alpha 90.000000
_cell_angle_beta 90.000000
_cell_angle_gamma 90.000000
_cell_volume 4482.682364
_symmetry_space_group_name_H-M "I M M M"
_symmetry_group_IT_number 71
_symmetry_cell_setting 'orthorhombic'
loop_
_space_group_symop_operation_xyz
x,y,z
-x,-y,z
x,-y,-z
-x,y,-z
-x,-y,-z
x,y,-z
-x,y,z
x,-y,z
1/2+x,1/2+y,1/2+z
1/2-x,1/2-y,1/2+z
1/2+x,1/2-y,1/2-z
1/2-x,1/2+y,1/2-z
1/2-x,1/2-y,1/2-z
1/2+x,1/2+y,1/2-z
1/2-x,1/2+y,1/2+z
1/2+x,1/2-y,1/2+z
loop_
_atom_site_type_symbol
_atom_site_label
_atom_site_fract_x
_atom_site_fract_y
_atom_site_fract_z
Si Si1 0.215687 0.048461 0.840396
Si Si2 0.169341 0.871405 0.340769
Si Si3 0.636944 0.156658 0.657362
Si Si4 0.000000 0.729992 0.842160
Si Si5 0.000000 0.184732 0.338796
Si Si6 0.404589 0.078653 0.844587
O O1 0.166840 0.084179 0.747426
O O2 0.321587 0.047880 0.807165
O O3 0.179774 0.000000 0.804781
O O4 0.197577 0.059491 0.000000
O O5 0.162977 0.885181 0.500000
O O6 0.257292 0.842384 0.311502
O O7 0.086233 0.842585 0.295097
O O8 0.619165 0.143495 0.500000
O O9 0.590030 0.202716 0.689138
O O10 0.590767 0.120665 0.749392
O O11 0.000000 0.770592 0.742330
O O12 0.000000 0.745909 0.000000
O O13 0.000000 0.195528 0.500000
O O14 0.500000 0.053800 0.827824
O O15 0.393012 0.095650 0.000000
#
# Coordination Sequence:
#
# PCOD8289943 Si02
#       6
#    16  16  16   8   8  16
#     4   9  18  32  50  74 102 130 163 204 247 293
#     4   9  19  36  55  72  97 132 167 204 248 292
#     4   9  17  31  50  72 100 134 165 196 239 289
#     4  10  20  32  50  77 104 129 162 200 240 296
#     4  10  22  38  53  73  98 126 165 214 256 289
#     4   9  16  26  44  71 102 135 167 196 234 285
#
# _framework density 17.846457999999998
#
# number of rings (size 3 to 8) (size 9 to 14) (size 15 to 20)
#    0.000    2.800    1.000    0.000    0.000    3.200 
#    0.000    2.500    0.000    3.000    0.000    5.600 
#    0.000    0.000    0.000    0.000    0.000    0.000 
#
# Total GULP energy -495769.004411 kJ/mol
# GULP energy per Si atom -12394.225110 kJ/mol
# Density = 1.780584 g / cm^3
# Si number density = 17.846458 Si / 1000 Ang^3
#
#
#
# Elastic Constant Matrix: (Units=GPa)
#
#
# Indices 1 2 3 4 5 6 
#
# 1 96.0801 50.6642 31.4098 0.0000 0.0000 0.0010
# 2 50.6642 123.3888 62.4114 -0.0001 -0.0005 0.0000
# 3 31.4098 62.4114 64.8877 -0.0060 0.0005 0.0038
# 4 0.0000 -0.0001 -0.0060 32.6923 -0.0003 -0.0003
# 5 0.0000 -0.0005 0.0005 -0.0003 20.1082 -0.0018
# 6 0.0010 0.0000 0.0038 -0.0003 -0.0018 25.7501
#
#
#
# Elastic Compliance Matrix: (Units=1/GPa)
#
#
# Indices 1 2 3 4 5 6 
#
# 1 0.013464 -0.004346 -0.002337 0.000000 0.000000 0.000000
# 2 -0.004346 0.017186 -0.014426 -0.000003 0.000001 0.000002
# 3 -0.002337 -0.014426 0.030418 0.000006 -0.000001 -0.000004
# 4 0.000000 -0.000003 0.000006 0.030588 0.000000 0.000000
# 5 0.000000 0.000001 -0.000001 0.000000 0.049731 0.000003
# 6 0.000000 0.000002 -0.000004 0.000000 0.000003 0.038835
#
#
# Mechanical properties :
#
#
# Convention : Reuss Voigt Hill
#
# Bulk Modulus (GPa) = 53.05305 63.70303 58.37804
# Shear Modulus (GPa) = 21.86039 25.03486 23.44762
#
# Velocity S-wave (km/s) = 3.50367 3.74945 3.62864
# Velocity P-wave (km/s) = 6.79409 7.38357 7.09495
#
# Compressibility (1/GPa) = 0.01884906
#
# Stress axis : x y z
#
# Youngs Moduli (GPa) = 74.27320 58.18669 32.87502
#
# Poissons Ratio (x) = 0.25290 0.07683
# Poissons Ratio (y) = 0.32281 0.47427
# Poissons Ratio (z) = 0.17357 0.83942
#
# Static dielectric constant tensor:
#      x y z
#    x 3.481130 0.000000 0.000000 
#    y 0.000000 3.062120 -0.000010 
#    z 0.000000 -0.000010 3.310020 
# 
# 
# High freq. dielectric constant tensor:
#      x y z
#    x 1.693790 0.000000 0.000000 
#    y 0.000000 1.667620 0.000000 
#    z 0.000000 0.000000 1.690450 
# 
# From -- ./inp_files/8421.got.cif
#   From: 2010.06.25/outbox.cif.g09.slc.cpg/sg71_5_cif.got.tgz:8421.got - 2010.06.28 04:59:45.
