data_PCOD8289718
_publ_section_title
;
Structure prediction by ZEFSAII (Michael W. Deem and Ramdas Pophale) SiO2 
 PCOD8289718
Probable space group: I M M M
;
_chemical_formula_sum "Si O2"
_cell_formula_units_Z 112
_cell_length_a 32.747943
_cell_length_b 13.955282
_cell_length_c 14.806594
_cell_angle_alpha 90.000000
_cell_angle_beta 90.000000
_cell_angle_gamma 90.000000
_cell_volume 6766.713839
_symmetry_space_group_name_H-M "I M M M"
_symmetry_group_IT_number 71
_symmetry_cell_setting 'orthorhombic'
loop_
_space_group_symop_operation_xyz
x,y,z
-x,-y,z
x,-y,-z
-x,y,-z
-x,-y,-z
x,y,-z
-x,y,z
x,-y,z
1/2+x,1/2+y,1/2+z
1/2-x,1/2-y,1/2+z
1/2+x,1/2-y,1/2-z
1/2-x,1/2+y,1/2-z
1/2-x,1/2-y,1/2-z
1/2+x,1/2+y,1/2-z
1/2-x,1/2+y,1/2+z
1/2+x,1/2-y,1/2+z
loop_
_atom_site_type_symbol
_atom_site_label
_atom_site_fract_x
_atom_site_fract_y
_atom_site_fract_z
Si Si1 0.453308 0.611700 0.250253
Si Si2 0.109547 0.113777 0.899670
Si Si3 0.904589 0.789807 0.394559
Si Si4 0.821932 0.104945 0.606577
Si Si5 0.357713 0.105843 0.892893
Si Si6 0.778103 0.287951 0.392019
Si Si7 0.800731 0.107054 0.892497
O O1 0.500000 0.629433 0.277870
O O2 0.445036 0.500000 0.230249
O O3 0.425326 0.650724 0.332168
O O4 0.443530 0.673514 0.161126
O O5 0.154452 0.145307 0.862636
O O6 0.108916 0.000000 0.906422
O O7 0.101379 0.156654 0.000000
O O8 0.915561 0.795820 0.500000
O O9 0.867024 0.858862 0.368869
O O10 0.893166 0.680947 0.365532
O O11 0.817955 0.097749 0.500000
O O12 0.788056 0.180111 0.643304
O O13 0.814864 0.000000 0.650940
O O14 0.313625 0.140922 0.856706
O O15 0.367496 0.000000 0.853188
O O16 0.355381 0.102114 0.000000
O O17 0.778175 0.288398 0.500000
O O18 0.734286 0.322210 0.353914
O O19 0.792731 0.000000 0.854875
O O20 0.799358 0.104045 0.000000
#
# Coordination Sequence:
#
# PCOD8289718 Si02
#       7
#    16  16  16  16  16  16  16
#     4  10  20  31  44  63  84 108 139 172 208 252
#     4   8  15  28  44  62  84 109 136 168 210 256
#     4   9  17  28  42  61  86 115 144 173 204 241
#     4   8  13  21  33  50  77 116 154 177 193 222
#     4   8  13  22  38  60  85 113 143 173 205 239
#     4   8  12  17  30  56  83 106 138 174 202 233
#     4   8  12  19  34  56  81 105 128 161 207 252
#
# _framework density 16.551608999999999
#
# number of rings (size 3 to 8) (size 9 to 14) (size 15 to 20)
#    0.000    3.571    0.000    3.429    0.000    3.143 
#    0.000    2.143    0.000    3.857    0.000    5.000 
#    0.000    1.714    0.000    1.286    0.000    0.143 
#
# Total GULP energy -693884.701606 kJ/mol
# GULP energy per Si atom -12390.798243 kJ/mol
# Density = 1.651394 g / cm^3
# Si number density = 16.551609 Si / 1000 Ang^3
#
#
#
# Elastic Constant Matrix: (Units=GPa)
#
#
# Indices 1 2 3 4 5 6 
#
# 1 83.8731 42.3787 15.0249 0.0000 0.0000 0.0000
# 2 42.3787 108.3661 13.3692 0.0000 0.0000 0.0000
# 3 15.0249 13.3692 24.5874 0.0000 0.0000 0.0000
# 4 0.0000 0.0000 0.0000 5.4794 0.0000 0.0000
# 5 0.0000 0.0000 0.0000 0.0000 12.7361 0.0000
# 6 0.0000 0.0000 0.0000 0.0000 0.0000 17.6026
#
#
#
# Elastic Compliance Matrix: (Units=1/GPa)
#
#
# Indices 1 2 3 4 5 6 
#
# 1 0.015844 -0.005361 -0.006767 0.000000 0.000000 0.000000
# 2 -0.005361 0.011706 -0.003089 0.000000 0.000000 0.000000
# 3 -0.006767 -0.003089 0.046486 0.000000 0.000000 0.000000
# 4 0.000000 0.000000 0.000000 0.182500 0.000000 0.000000
# 5 0.000000 0.000000 0.000000 0.000000 0.078517 0.000000
# 6 0.000000 0.000000 0.000000 0.000000 0.000000 0.056810
#
#
# Mechanical properties :
#
#
# Convention : Reuss Voigt Hill
#
# Bulk Modulus (GPa) = 22.93483 39.81915 31.37699
# Shear Modulus (GPa) = 11.44611 16.90054 14.17332
#
# Velocity S-wave (km/s) = 2.63257 3.19890 2.92945
# Velocity P-wave (km/s) = 4.80907 6.14441 5.51729
#
# Compressibility (1/GPa) = 0.04360180
#
# Stress axis : x y z
#
# Youngs Moduli (GPa) = 63.11598 85.42880 21.51200
#
# Poissons Ratio (x) = 0.45800 0.14557
# Poissons Ratio (y) = 0.33838 0.06644
# Poissons Ratio (z) = 0.42709 0.26386
#
# Static dielectric constant tensor:
#      x y z
#    x 3.128370 0.000000 0.000000 
#    y 0.000000 3.442950 0.000000 
#    z 0.000000 0.000000 2.806190 
# 
# 
# High freq. dielectric constant tensor:
#      x y z
#    x 1.623240 0.000000 0.000000 
#    y 0.000000 1.613680 0.000000 
#    z 0.000000 0.000000 1.604740 
# 
# From -- ./inp_files/41109.got.cif
#   From: 2010.06.25/outbox.cif.g09.slc.cpg/sg71_21_cif.got.tgz:41109.got - 2010.06.28 04:59:45.
