data_PCOD8289190
_publ_section_title
;
Structure prediction by ZEFSAII (Michael W. Deem and Ramdas Pophale) SiO2 
 PCOD8289190
Probable space group: I M M M
;
_chemical_formula_sum "Si O2"
_cell_formula_units_Z 88
_cell_length_a 20.776646
_cell_length_b 12.508972
_cell_length_c 18.970534
_cell_angle_alpha 90.000000
_cell_angle_beta 90.000000
_cell_angle_gamma 90.000000
_cell_volume 4930.337127
_symmetry_space_group_name_H-M "I M M M"
_symmetry_group_IT_number 71
_symmetry_cell_setting 'orthorhombic'
loop_
_space_group_symop_operation_xyz
x,y,z
-x,-y,z
x,-y,-z
-x,y,-z
-x,-y,-z
x,y,-z
-x,y,z
x,-y,z
1/2+x,1/2+y,1/2+z
1/2-x,1/2-y,1/2+z
1/2+x,1/2-y,1/2-z
1/2-x,1/2+y,1/2-z
1/2-x,1/2-y,1/2-z
1/2+x,1/2+y,1/2-z
1/2-x,1/2+y,1/2+z
1/2+x,1/2-y,1/2+z
loop_
_atom_site_type_symbol
_atom_site_label
_atom_site_fract_x
_atom_site_fract_y
_atom_site_fract_z
Si Si1 0.624589 0.251667 0.080624
Si Si2 0.678309 0.726802 0.674533
Si Si3 0.687404 0.876113 0.197020
Si Si4 0.500000 0.378206 0.083794
Si Si5 0.250048 0.116132 0.579917
Si Si6 0.927193 0.873664 0.078971
O O1 0.646219 0.149152 0.126532
O O2 0.561017 0.309802 0.110119
O O3 0.678288 0.341708 0.087185
O O4 0.615867 0.212091 0.000000
O O5 0.660872 0.792657 0.744936
O O6 0.735925 0.642077 0.687333
O O7 0.698340 0.811410 0.616749
O O8 0.616059 0.669551 0.642883
O O9 0.675943 0.000000 0.217282
O O10 0.500000 0.500000 0.114846
O O11 0.500000 0.386981 0.000000
O O12 0.272061 0.108700 0.500000
O O13 0.251076 0.000000 0.616189
O O14 0.000000 0.832644 0.091242
O O15 0.924766 0.000000 0.083201
O O16 0.903880 0.838181 0.000000
#
# Coordination Sequence:
#
# PCOD8289190 Si02
#       6
#    16  16  16   8  16  16
#     4   9  18  32  50  73 100 131 172 218 263 309
#     4  10  19  33  53  75 103 136 173 212 257 311
#     4  10  21  35  51  73 103 139 176 217 264 310
#     4   9  16  30  53  75  97 125 159 206 260 307
#     4   9  16  27  47  75 102 128 162 206 256 307
#     4   9  18  34  57  83 109 136 167 210 264 316
#
# _framework density 17.848678
#
# number of rings (size 3 to 8) (size 9 to 14) (size 15 to 20)
#    0.000    2.636    0.000    2.727    0.000    3.273 
#    1.636    3.182    0.000    3.273    0.000    6.364 
#    0.000    0.000    0.000    0.000    0.000    0.000 
#
# Total GULP energy -545356.722876 kJ/mol
# GULP energy per Si atom -12394.470974 kJ/mol
# Density = 1.780805 g / cm^3
# Si number density = 17.848678 Si / 1000 Ang^3
#
#
#
# Elastic Constant Matrix: (Units=GPa)
#
#
# Indices 1 2 3 4 5 6 
#
# 1 83.9338 27.6821 46.2639 0.0000 0.0000 0.0000
# 2 27.6821 79.0029 36.4449 0.0000 0.0000 0.0000
# 3 46.2639 36.4449 78.7210 0.0000 0.0000 0.0000
# 4 0.0000 0.0000 0.0000 14.6943 0.0000 0.0000
# 5 0.0000 0.0000 0.0000 0.0000 25.9884 0.0000
# 6 0.0000 0.0000 0.0000 0.0000 0.0000 11.1763
#
#
#
# Elastic Compliance Matrix: (Units=1/GPa)
#
#
# Indices 1 2 3 4 5 6 
#
# 1 0.017821 -0.001797 -0.009642 0.000000 0.000000 0.000000
# 2 -0.001797 0.016276 -0.006479 0.000000 0.000000 0.000000
# 3 -0.009642 -0.006479 0.021369 0.000000 0.000000 0.000000
# 4 0.000000 0.000000 0.000000 0.068054 0.000000 0.000000
# 5 0.000000 0.000000 0.000000 0.000000 0.038479 0.000000
# 6 0.000000 0.000000 0.000000 0.000000 0.000000 0.089475
#
#
# Mechanical properties :
#
#
# Convention : Reuss Voigt Hill
#
# Bulk Modulus (GPa) = 50.93929 51.38216 51.16073
# Shear Modulus (GPa) = 17.01531 19.12293 18.06912
#
# Velocity S-wave (km/s) = 3.09092 3.27676 3.18520
# Velocity P-wave (km/s) = 6.42961 6.57011 6.50024
#
# Compressibility (1/GPa) = 0.01963121
#
# Stress axis : x y z
#
# Youngs Moduli (GPa) = 56.11330 61.43893 46.79639
#
# Poissons Ratio (x) = 0.11038 0.45119
# Poissons Ratio (y) = 0.10081 0.30322
# Poissons Ratio (z) = 0.54102 0.39809
#
# Static dielectric constant tensor:
#      x y z
#    x 3.257580 0.000000 0.000000 
#    y 0.000000 3.216970 0.000000 
#    z 0.000000 0.000000 3.640010 
# 
# 
# High freq. dielectric constant tensor:
#      x y z
#    x 1.676740 0.000000 0.000000 
#    y 0.000000 1.682790 0.000000 
#    z 0.000000 0.000000 1.688830 
# 
# From -- ./inp_files/23936.got.cif
#   From: 2010.06.25/outbox.cif.g09.slc.cpg/sg71_12_cif.got.tgz:23936.got - 2010.06.28 04:59:45.
