data_PCOD8289921
_publ_section_title
;
Structure prediction by ZEFSAII (Michael W. Deem and Ramdas Pophale) SiO2 
 PCOD8289921
Probable space group: I M M M
;
_chemical_formula_sum "Si O2"
_cell_formula_units_Z 80
_cell_length_a 11.902807
_cell_length_b 28.390391
_cell_length_c 13.470813
_cell_angle_alpha 90.000000
_cell_angle_beta 90.000000
_cell_angle_gamma 90.000000
_cell_volume 4552.129127
_symmetry_space_group_name_H-M "I M M M"
_symmetry_group_IT_number 71
_symmetry_cell_setting 'orthorhombic'
loop_
_space_group_symop_operation_xyz
x,y,z
-x,-y,z
x,-y,-z
-x,y,-z
-x,-y,-z
x,y,-z
-x,y,z
x,-y,z
1/2+x,1/2+y,1/2+z
1/2-x,1/2-y,1/2+z
1/2+x,1/2-y,1/2-z
1/2-x,1/2+y,1/2-z
1/2-x,1/2-y,1/2-z
1/2+x,1/2+y,1/2-z
1/2-x,1/2+y,1/2+z
1/2+x,1/2-y,1/2+z
loop_
_atom_site_type_symbol
_atom_site_label
_atom_site_fract_x
_atom_site_fract_y
_atom_site_fract_z
Si Si1 0.767552 0.808755 0.615524
Si Si2 0.767869 0.634348 0.294868
Si Si3 0.500000 0.156557 0.118279
Si Si4 0.629702 0.554266 0.614013
Si Si5 0.624604 0.718071 0.616219
Si Si6 0.500000 0.735837 0.881884
O O1 0.771440 0.822200 0.500000
O O2 0.731943 0.855302 0.676572
O O3 0.677228 0.768646 0.639564
O O4 0.888446 0.790750 0.655993
O O5 0.892427 0.629782 0.338085
O O6 0.705168 0.585334 0.313378
O O7 0.705037 0.677363 0.346698
O O8 0.500000 0.210482 0.155677
O O9 0.500000 0.152796 0.000000
O O10 0.660054 0.565619 0.500000
O O11 0.500000 0.566428 0.633734
O O12 0.654325 0.500000 0.638324
O O13 0.613214 0.710594 0.500000
O O14 0.500000 0.715988 0.665774
O O15 0.500000 0.736387 0.000000
#
# Coordination Sequence:
#
# PCOD8289921 Si02
#       6
#    16  16   8  16  16   8
#     4  10  22  35  48  72 107 145 181 215 249 294
#     4  12  22  32  55  75 102 139 178 211 259 313
#     4  11  22  34  50  77 108 137 172 213 261 314
#     4   9  19  37  59  81 104 128 160 210 269 322
#     4  10  20  32  49  75 105 136 177 223 256 297
#     4   9  18  34  48  66 106 147 174 210 256 295
#
# _framework density 17.574193999999999
#
# number of rings (size 3 to 8) (size 9 to 14) (size 15 to 20)
#    0.000    1.800    2.000    3.600    4.200    1.600 
#    0.000    0.500    0.000    2.400    0.000    1.400 
#    0.000    1.600    0.000    0.000    0.000    0.000 
#
# Total GULP energy -496118.444706 kJ/mol
# GULP energy per Si atom -12402.961118 kJ/mol
# Density = 1.753419 g / cm^3
# Si number density = 17.574194 Si / 1000 Ang^3
#
#
#
# Elastic Constant Matrix: (Units=GPa)
#
#
# Indices 1 2 3 4 5 6 
#
# 1 120.0480 39.3043 51.6921 -0.0001 0.0001 0.0001
# 2 39.3043 82.3461 48.8329 -0.0001 0.0002 0.0001
# 3 51.6921 48.8329 51.8043 -0.0028 0.0020 -0.0001
# 4 -0.0001 -0.0001 -0.0028 22.9572 0.0006 0.0001
# 5 0.0001 0.0002 0.0020 0.0006 26.2811 -0.0001
# 6 0.0001 0.0001 -0.0001 0.0001 -0.0001 25.0860
#
#
#
# Elastic Compliance Matrix: (Units=1/GPa)
#
#
# Indices 1 2 3 4 5 6 
#
# 1 0.015146 0.003930 -0.018818 -0.000002 0.000001 0.000000
# 2 0.003930 0.028557 -0.030841 -0.000004 0.000002 0.000000
# 3 -0.018818 -0.030841 0.067153 0.000008 -0.000005 0.000000
# 4 -0.000002 -0.000004 0.000008 0.043559 -0.000001 0.000000
# 5 0.000001 0.000002 -0.000005 -0.000001 0.038050 0.000000
# 6 0.000000 0.000000 0.000000 0.000000 0.000000 0.039863
#
#
# Mechanical properties :
#
#
# Convention : Reuss Voigt Hill
#
# Bulk Modulus (GPa) = 51.55061 59.31742 55.43402
# Shear Modulus (GPa) = 15.13995 22.48948 18.81471
#
# Velocity S-wave (km/s) = 2.93830 3.58115 3.27553
# Velocity P-wave (km/s) = 6.39596 7.13620 6.77619
#
# Compressibility (1/GPa) = 0.01939841
#
# Stress axis : x y z
#
# Youngs Moduli (GPa) = 66.02287 35.01746 14.89147
#
# Poissons Ratio (x) = -0.13762 0.28023
# Poissons Ratio (y) = -0.25948 0.45926
# Poissons Ratio (z) = 1.24243 1.07997
#
# Static dielectric constant tensor:
#      x y z
#    x 3.509230 0.000000 0.000000 
#    y 0.000000 3.006730 0.000000 
#    z 0.000000 0.000000 3.384720 
# 
# 
# High freq. dielectric constant tensor:
#      x y z
#    x 1.694430 0.000000 0.000000 
#    y 0.000000 1.636270 0.000000 
#    z 0.000000 0.000000 1.682250 
# 
# From -- ./inp_files/22198.got.cif
#   From: 2010.06.25/outbox.cif.g09.slc.cpg/sg71_12_cif.got.tgz:22198.got - 2010.06.28 04:59:45.
