data_PCOD8289513
_publ_section_title
;
Structure prediction by ZEFSAII (Michael W. Deem and Ramdas Pophale) SiO2 
 PCOD8289513
Probable space group: I M M M
;
_chemical_formula_sum "Si O2"
_cell_formula_units_Z 88
_cell_length_a 17.757637
_cell_length_b 19.222851
_cell_length_c 14.126463
_cell_angle_alpha 90.000000
_cell_angle_beta 90.000000
_cell_angle_gamma 90.000000
_cell_volume 4822.102192
_symmetry_space_group_name_H-M "I M M M"
_symmetry_group_IT_number 71
_symmetry_cell_setting 'orthorhombic'
loop_
_space_group_symop_operation_xyz
x,y,z
-x,-y,z
x,-y,-z
-x,y,-z
-x,-y,-z
x,y,-z
-x,y,z
x,-y,z
1/2+x,1/2+y,1/2+z
1/2-x,1/2-y,1/2+z
1/2+x,1/2-y,1/2-z
1/2-x,1/2+y,1/2-z
1/2-x,1/2-y,1/2-z
1/2+x,1/2+y,1/2-z
1/2-x,1/2+y,1/2+z
1/2+x,1/2-y,1/2+z
loop_
_atom_site_type_symbol
_atom_site_label
_atom_site_fract_x
_atom_site_fract_y
_atom_site_fract_z
Si Si1 0.631100 0.160423 0.707704
Si Si2 0.219313 0.193902 0.608402
Si Si3 0.084703 0.188123 0.253185
Si Si4 0.203565 0.353542 0.394950
Si Si5 0.500000 0.917904 0.392728
Si Si6 0.139924 0.920368 0.108195
O O1 0.712124 0.153616 0.657518
O O2 0.600667 0.238727 0.701944
O O3 0.638823 0.134976 0.816917
O O4 0.574612 0.108818 0.657493
O O5 0.212257 0.169839 0.500000
O O6 0.141658 0.174318 0.660455
O O7 0.236623 0.275818 0.617360
O O8 0.090385 0.127898 0.175321
O O9 0.000000 0.188148 0.294305
O O10 0.168248 0.363134 0.500000
O O11 0.271361 0.406642 0.377941
O O12 0.500000 0.890555 0.500000
O O13 0.500000 0.000000 0.387691
O O14 0.123544 0.000000 0.135075
O O15 0.116668 0.904728 0.000000
#
# Coordination Sequence:
#
# PCOD8289513 Si02
#       6
#    16  16  16  16   8  16
#     4  11  19  38  61  84 111 147 194 230 276 338
#     4  10  19  34  59  87 111 144 192 238 276 326
#     4  11  21  36  56  83 115 147 189 231 278 332
#     4   9  17  32  57  86 115 144 182 231 274 327
#     4  11  26  42  57  85 118 146 185 242 295 335
#     4  10  20  34  53  81 115 147 181 224 278 335
#
# _framework density 18.249303000000001
#
# number of rings (size 3 to 8) (size 9 to 14) (size 15 to 20)
#    0.000    1.727    4.545    1.636    0.000    2.545 
#    0.000    1.364    0.000    1.091    0.000    1.273 
#    0.000    0.000    0.000    0.000    0.000    0.000 
#
# Total GULP energy -545693.175636 kJ/mol
# GULP energy per Si atom -12402.117628 kJ/mol
# Density = 1.820777 g / cm^3
# Si number density = 18.249303 Si / 1000 Ang^3
#
#
#
# Elastic Constant Matrix: (Units=GPa)
#
#
# Indices 1 2 3 4 5 6 
#
# 1 133.4967 32.0624 64.6319 0.0000 0.0000 0.0000
# 2 32.0624 53.6132 37.9924 0.0000 0.0000 0.0000
# 3 64.6319 37.9924 130.3768 0.0000 0.0000 0.0000
# 4 0.0000 0.0000 0.0000 23.6500 0.0000 0.0000
# 5 0.0000 0.0000 0.0000 0.0000 22.5999 0.0000
# 6 0.0000 0.0000 0.0000 0.0000 0.0000 18.9133
#
#
#
# Elastic Compliance Matrix: (Units=1/GPa)
#
#
# Indices 1 2 3 4 5 6 
#
# 1 0.010273 -0.003194 -0.004162 0.000000 0.000000 0.000000
# 2 -0.003194 0.024499 -0.005556 0.000000 0.000000 0.000000
# 3 -0.004162 -0.005556 0.011352 0.000000 0.000000 0.000000
# 4 0.000000 0.000000 0.000000 0.042283 0.000000 0.000000
# 5 0.000000 0.000000 0.000000 0.000000 0.044248 0.000000
# 6 0.000000 0.000000 0.000000 0.000000 0.000000 0.052873
#
#
# Mechanical properties :
#
#
# Convention : Reuss Voigt Hill
#
# Bulk Modulus (GPa) = 49.25898 65.20669 57.23283
# Shear Modulus (GPa) = 22.92324 25.21931 24.07127
#
# Velocity S-wave (km/s) = 3.54802 3.72147 3.63578
# Velocity P-wave (km/s) = 6.62083 7.36712 7.00392
#
# Compressibility (1/GPa) = 0.02030087
#
# Stress axis : x y z
#
# Youngs Moduli (GPa) = 97.34336 40.81727 88.08898
#
# Poissons Ratio (x) = 0.13038 0.36661
# Poissons Ratio (y) = 0.31095 0.48940
# Poissons Ratio (z) = 0.40512 0.22677
#
# Static dielectric constant tensor:
#      x y z
#    x 3.211700 0.000000 0.000000 
#    y 0.000000 3.185110 0.000000 
#    z 0.000000 0.000000 3.610600 
# 
# 
# High freq. dielectric constant tensor:
#      x y z
#    x 1.698270 0.000000 0.000000 
#    y 0.000000 1.686120 0.000000 
#    z 0.000000 0.000000 1.715630 
# 
# From -- ./inp_files/36380.got.cif
#   From: 2010.06.25/outbox.cif.g09.slc.cpg/sg71_19_cif.got.tgz:36380.got - 2010.06.28 04:59:45.
