data_PCOD8289692
_publ_section_title
;
Structure prediction by ZEFSAII (Michael W. Deem and Ramdas Pophale) SiO2 
 PCOD8289692
Probable space group: I M M M
;
_chemical_formula_sum "Si O2"
_cell_formula_units_Z 104
_cell_length_a 24.358597
_cell_length_b 9.242331
_cell_length_c 33.191075
_cell_angle_alpha 90.000000
_cell_angle_beta 90.000000
_cell_angle_gamma 90.000000
_cell_volume 7472.313890
_symmetry_space_group_name_H-M "I M M M"
_symmetry_group_IT_number 71
_symmetry_cell_setting 'orthorhombic'
loop_
_space_group_symop_operation_xyz
x,y,z
-x,-y,z
x,-y,-z
-x,y,-z
-x,-y,-z
x,y,-z
-x,y,z
x,-y,z
1/2+x,1/2+y,1/2+z
1/2-x,1/2-y,1/2+z
1/2+x,1/2-y,1/2-z
1/2-x,1/2+y,1/2-z
1/2-x,1/2-y,1/2-z
1/2+x,1/2+y,1/2-z
1/2-x,1/2+y,1/2+z
1/2+x,1/2-y,1/2+z
loop_
_atom_site_type_symbol
_atom_site_label
_atom_site_fract_x
_atom_site_fract_y
_atom_site_fract_z
Si Si1 0.674914 0.166052 0.771674
Si Si2 0.000000 0.830957 0.953766
Si Si3 0.060119 0.664545 0.244257
Si Si4 0.844320 0.671363 0.118733
Si Si5 0.938036 0.165912 0.836928
Si Si6 0.119829 0.828745 0.953263
Si Si7 0.766339 0.331488 0.189731
O O1 0.609525 0.197558 0.775568
O O2 0.707390 0.254930 0.805608
O O3 0.693761 0.212763 0.726655
O O4 0.689013 0.000000 0.779515
O O5 0.059000 0.775210 0.937336
O O6 0.000000 0.000000 0.947388
O O7 0.000000 0.789432 0.000000
O O8 0.068306 0.500000 0.227498
O O9 0.063469 0.778679 0.208600
O O10 0.000000 0.678169 0.265465
O O11 0.848416 0.500000 0.114770
O O12 0.900529 0.732574 0.136352
O O13 0.836166 0.743450 0.074507
O O14 0.794187 0.717367 0.147863
O O15 0.000000 0.175710 0.854328
O O16 0.917276 0.000000 0.837955
O O17 0.126595 0.000000 0.947106
O O18 0.129543 0.788144 0.000000
O O19 0.754780 0.500000 0.189610
#
# Coordination Sequence:
#
# PCOD8289692 Si02
#       7
#    16   8  16  16  16  16  16
#     4   9  16  28  43  59  79 104 133 162 197 236
#     4   7  12  26  45  59  73  95 121 153 195 241
#     4   9  16  28  44  60  81 105 129 162 204 244
#     4  11  21  32  44  59  80 101 130 167 206 247
#     4  10  20  30  40  56  77 102 133 166 202 243
#     4   9  18  32  47  61  78 100 127 161 201 245
#     4   9  18  30  41  57  78 104 134 165 199 233
#
# _framework density 13.918044999999999
#
# number of rings (size 3 to 8) (size 9 to 14) (size 15 to 20)
#    0.000    2.692    1.538    1.846    1.077    3.077 
#    0.000    0.000    0.000    1.385    0.000    0.000 
#    0.000    0.000    0.000    0.000    0.000    0.769 
#
# Total GULP energy -644298.367518 kJ/mol
# GULP energy per Si atom -12390.353222 kJ/mol
# Density = 1.388637 g / cm^3
# Si number density = 13.918045 Si / 1000 Ang^3
#
#
#
# Elastic Constant Matrix: (Units=GPa)
#
#
# Indices 1 2 3 4 5 6 
#
# 1 85.5758 33.0927 46.8317 0.0000 0.0000 0.0000
# 2 33.0927 45.0161 35.6005 0.0000 0.0000 0.0000
# 3 46.8317 35.6005 72.4769 0.0000 0.0000 0.0000
# 4 0.0000 0.0000 0.0000 21.1836 0.0000 0.0000
# 5 0.0000 0.0000 0.0000 0.0000 22.6184 0.0000
# 6 0.0000 0.0000 0.0000 0.0000 0.0000 19.6547
#
#
#
# Elastic Compliance Matrix: (Units=1/GPa)
#
#
# Indices 1 2 3 4 5 6 
#
# 1 0.019373 -0.007100 -0.009031 0.000000 0.000000 0.000000
# 2 -0.007100 0.038927 -0.014533 0.000000 0.000000 0.000000
# 3 -0.009031 -0.014533 0.026771 0.000000 0.000000 0.000000
# 4 0.000000 0.000000 0.000000 0.047206 0.000000 0.000000
# 5 0.000000 0.000000 0.000000 0.000000 0.044212 0.000000
# 6 0.000000 0.000000 0.000000 0.000000 0.000000 0.050878
#
#
# Mechanical properties :
#
#
# Convention : Reuss Voigt Hill
#
# Bulk Modulus (GPa) = 42.11586 48.23542 45.17564
# Shear Modulus (GPa) = 16.85709 18.52760 17.69234
#
# Velocity S-wave (km/s) = 3.48396 3.65251 3.56923
# Velocity P-wave (km/s) = 6.81979 7.24705 7.03666
#
# Compressibility (1/GPa) = 0.02374402
#
# Stress axis : x y z
#
# Youngs Moduli (GPa) = 51.61743 25.68898 37.35319
#
# Poissons Ratio (x) = 0.18239 0.33733
# Poissons Ratio (y) = 0.36649 0.54286
# Poissons Ratio (z) = 0.46614 0.37334
#
# Static dielectric constant tensor:
#      x y z
#    x 2.799390 0.000000 0.000000 
#    y 0.000000 2.747920 0.000000 
#    z 0.000000 0.000000 2.608830 
# 
# 
# High freq. dielectric constant tensor:
#      x y z
#    x 1.510070 0.000000 0.000000 
#    y 0.000000 1.532370 0.000000 
#    z 0.000000 0.000000 1.494980 
# 
# From -- ./inp_files/62294.got.cif
#   From: 2010.06.25/outbox.cif.g09.slc.cpg/sg71_32_cif.got.tgz:62294.got - 2010.06.28 04:59:45.
