data_PCOD8289366
_publ_section_title
;
Structure prediction by ZEFSAII (Michael W. Deem and Ramdas Pophale) SiO2 
 PCOD8289366
Probable space group: I M M M
;
_chemical_formula_sum "Si O2"
_cell_formula_units_Z 104
_cell_length_a 19.528193
_cell_length_b 8.848685
_cell_length_c 33.366648
_cell_angle_alpha 90.000000
_cell_angle_beta 90.000000
_cell_angle_gamma 90.000000
_cell_volume 5765.717685
_symmetry_space_group_name_H-M "I M M M"
_symmetry_group_IT_number 71
_symmetry_cell_setting 'orthorhombic'
loop_
_space_group_symop_operation_xyz
x,y,z
-x,-y,z
x,-y,-z
-x,y,-z
-x,-y,-z
x,y,-z
-x,y,z
x,-y,z
1/2+x,1/2+y,1/2+z
1/2-x,1/2-y,1/2+z
1/2+x,1/2-y,1/2-z
1/2-x,1/2+y,1/2-z
1/2-x,1/2-y,1/2-z
1/2+x,1/2+y,1/2-z
1/2-x,1/2+y,1/2+z
1/2+x,1/2-y,1/2+z
loop_
_atom_site_type_symbol
_atom_site_label
_atom_site_fract_x
_atom_site_fract_y
_atom_site_fract_z
Si Si1 0.869941 0.822161 0.419162
Si Si2 0.923137 0.179670 0.810174
Si Si3 0.500000 0.832876 0.953577
Si Si4 0.321742 0.822343 0.842283
Si Si5 0.677173 0.320668 0.759497
Si Si6 0.724930 0.177458 0.544807
Si Si7 0.823649 0.177185 0.121722
O O1 0.871406 0.733093 0.377332
O O2 0.802700 0.778354 0.444497
O O3 0.934507 0.766457 0.443441
O O4 0.873817 0.000000 0.411011
O O5 0.878901 0.238106 0.772486
O O6 0.888090 0.232991 0.851854
O O7 0.000000 0.247065 0.807954
O O8 0.925291 0.000000 0.809168
O O9 0.500000 0.000000 0.932733
O O10 0.500000 0.860947 0.000000
O O11 0.346509 0.734392 0.802957
O O12 0.244119 0.776391 0.853568
O O13 0.329036 0.000000 0.835138
O O14 0.683940 0.500000 0.757817
O O15 0.750000 0.250000 0.750000
O O16 0.708438 0.239377 0.500000
O O17 0.673729 0.247623 0.577765
O O18 0.714480 0.000000 0.545998
O O19 0.824982 0.000000 0.114519
#
# Coordination Sequence:
#
# PCOD8289366 Si02
#       7
#    16  16   8  16  16  16  16
#     4  10  20  35  54  76 101 138 181 222 269 324
#     4   9  18  34  54  77 105 137 176 221 266 313
#     4  11  23  37  53  75 105 143 183 227 279 327
#     4  10  19  34  53  77 106 135 173 222 272 319
#     4  11  20  33  55  81 107 141 181 222 269 320
#     4   9  18  32  51  77 105 131 165 213 264 312
#     4   9  17  31  52  77 101 131 169 210 261 311
#
# _framework density 18.037651
#
# number of rings (size 3 to 8) (size 9 to 14) (size 15 to 20)
#    0.000    2.231    1.538    2.077    0.000    2.769 
#    1.385    0.000    0.000    4.154    0.000    3.231 
#    0.000    0.000    0.000    0.000    0.000    0.000 
#
# Total GULP energy -644765.194209 kJ/mol
# GULP energy per Si atom -12399.330658 kJ/mol
# Density = 1.799660 g / cm^3
# Si number density = 18.037651 Si / 1000 Ang^3
#
#
#
# Elastic Constant Matrix: (Units=GPa)
#
#
# Indices 1 2 3 4 5 6 
#
# 1 103.2142 25.1539 62.5052 0.0000 0.0000 0.0000
# 2 25.1539 44.5029 34.7366 0.0000 0.0000 0.0000
# 3 62.5052 34.7366 163.5527 0.0000 0.0000 0.0000
# 4 0.0000 0.0000 0.0000 33.3823 0.0000 0.0000
# 5 0.0000 0.0000 0.0000 0.0000 20.8348 0.0000
# 6 0.0000 0.0000 0.0000 0.0000 0.0000 23.8528
#
#
#
# Elastic Compliance Matrix: (Units=1/GPa)
#
#
# Indices 1 2 3 4 5 6 
#
# 1 0.013241 -0.004236 -0.004160 0.000000 0.000000 0.000000
# 2 -0.004236 0.028291 -0.004390 0.000000 0.000000 0.000000
# 3 -0.004160 -0.004390 0.008637 0.000000 0.000000 0.000000
# 4 0.000000 0.000000 0.000000 0.029956 0.000000 0.000000
# 5 0.000000 0.000000 0.000000 0.000000 0.047997 0.000000
# 6 0.000000 0.000000 0.000000 0.000000 0.000000 0.041924
#
#
# Mechanical properties :
#
#
# Convention : Reuss Voigt Hill
#
# Bulk Modulus (GPa) = 40.65806 61.78457 51.22131
# Shear Modulus (GPa) = 24.53191 28.20559 26.36875
#
# Velocity S-wave (km/s) = 3.69187 3.95866 3.82759
# Velocity P-wave (km/s) = 6.38458 7.43116 6.92766
#
# Compressibility (1/GPa) = 0.02459537
#
# Stress axis : x y z
#
# Youngs Moduli (GPa) = 75.52576 35.34654 115.78725
#
# Poissons Ratio (x) = 0.14974 0.48172
# Poissons Ratio (y) = 0.31996 0.50827
# Poissons Ratio (z) = 0.31422 0.15516
#
# Static dielectric constant tensor:
#      x y z
#    x 3.271140 0.000000 0.000000 
#    y 0.000000 3.258590 0.000000 
#    z 0.000000 0.000000 3.679830 
# 
# 
# High freq. dielectric constant tensor:
#      x y z
#    x 1.672930 0.000000 0.000000 
#    y 0.000000 1.690030 0.000000 
#    z 0.000000 0.000000 1.710320 
# 
# From -- ./inp_files/70728.got.cif
#   From: 2010.06.25/outbox.cif.g09.slc.cpg/sg71_36_cif.got.tgz:70728.got - 2010.06.28 04:59:45.
