data_PCOD8289997
_publ_section_title
;
Structure prediction by ZEFSAII (Michael W. Deem and Ramdas Pophale) SiO2 
 PCOD8289997
Probable space group: I M M M
;
_chemical_formula_sum "Si O2"
_cell_formula_units_Z 104
_cell_length_a 23.910780
_cell_length_b 8.948385
_cell_length_c 27.618072
_cell_angle_alpha 90.000000
_cell_angle_beta 90.000000
_cell_angle_gamma 90.000000
_cell_volume 5909.241813
_symmetry_space_group_name_H-M "I M M M"
_symmetry_group_IT_number 71
_symmetry_cell_setting 'orthorhombic'
loop_
_space_group_symop_operation_xyz
x,y,z
-x,-y,z
x,-y,-z
-x,y,-z
-x,-y,-z
x,y,-z
-x,y,z
x,-y,z
1/2+x,1/2+y,1/2+z
1/2-x,1/2-y,1/2+z
1/2+x,1/2-y,1/2-z
1/2-x,1/2+y,1/2-z
1/2-x,1/2-y,1/2-z
1/2+x,1/2+y,1/2-z
1/2-x,1/2+y,1/2+z
1/2+x,1/2-y,1/2+z
loop_
_atom_site_type_symbol
_atom_site_label
_atom_site_fract_x
_atom_site_fract_y
_atom_site_fract_z
Si Si1 0.065778 0.666266 0.000000
Si Si2 0.259471 0.167321 0.445751
Si Si3 0.660993 0.169812 0.360232
Si Si4 0.245153 0.323397 0.698134
Si Si5 0.062665 0.322199 0.554859
Si Si6 0.668112 0.176056 0.112847
Si Si7 0.935295 0.826390 0.097724
O O1 0.083783 0.760050 0.046525
O O2 0.093793 0.500000 0.000000
O O3 0.000000 0.645182 0.000000
O O4 0.276844 0.210772 0.500000
O O5 0.315611 0.177086 0.414629
O O6 0.212571 0.281346 0.427949
O O7 0.234181 0.000000 0.442514
O O8 0.697963 0.276249 0.327335
O O9 0.598715 0.238323 0.360698
O O10 0.660056 0.000000 0.340114
O O11 0.242588 0.500000 0.704059
O O12 0.250000 0.250000 0.750000
O O13 0.191290 0.266398 0.665645
O O14 0.077336 0.266768 0.500000
O O15 0.064262 0.500000 0.555108
O O16 0.107481 0.260164 0.594908
O O17 0.000000 0.266693 0.569067
O O18 0.664487 0.000000 0.115559
O O19 0.000000 0.798869 0.108849
O O20 0.919827 0.000000 0.098390
#
# Coordination Sequence:
#
# PCOD8289997 Si02
#       7
#     8  16  16  16  16  16  16
#     4   9  17  29  45  65  91 129 173 207 236 275
#     4   9  18  30  43  64  96 130 159 193 238 285
#     4  10  20  33  51  73  97 126 164 204 247 301
#     4  10  20  35  54  74  96 122 159 207 260 310
#     4   8  13  22  40  69 103 134 160 187 223 270
#     4   9  17  29  47  71  95 122 160 201 237 283
#     4  10  20  33  48  69  99 132 166 205 247 291
#
# _framework density 17.599550000000001
#
# number of rings (size 3 to 8) (size 9 to 14) (size 15 to 20)
#    0.000    2.692    0.000    2.538    1.077    4.000 
#    0.000    0.000    0.000    1.385    0.000    4.308 
#    0.000    0.000    0.000    0.000    0.000    0.000 
#
# Total GULP energy -644324.695892 kJ/mol
# GULP energy per Si atom -12390.859536 kJ/mol
# Density = 1.755949 g / cm^3
# Si number density = 17.599550 Si / 1000 Ang^3
#
#
#
# Elastic Constant Matrix: (Units=GPa)
#
#
# Indices 1 2 3 4 5 6 
#
# 1 102.2412 30.9902 48.8570 0.0000 0.0000 0.0000
# 2 30.9902 46.3505 27.7245 0.0000 0.0000 0.0000
# 3 48.8570 27.7245 110.7858 0.0000 0.0000 0.0000
# 4 0.0000 0.0000 0.0000 25.5654 0.0000 0.0000
# 5 0.0000 0.0000 0.0000 0.0000 16.8869 0.0000
# 6 0.0000 0.0000 0.0000 0.0000 0.0000 21.2515
#
#
#
# Elastic Compliance Matrix: (Units=1/GPa)
#
#
# Indices 1 2 3 4 5 6 
#
# 1 0.013935 -0.006634 -0.004485 0.000000 0.000000 0.000000
# 2 -0.006634 0.028531 -0.004214 0.000000 0.000000 0.000000
# 3 -0.004485 -0.004214 0.012059 0.000000 0.000000 0.000000
# 4 0.000000 0.000000 0.000000 0.039115 0.000000 0.000000
# 5 0.000000 0.000000 0.000000 0.000000 0.059218 0.000000
# 6 0.000000 0.000000 0.000000 0.000000 0.000000 0.047056
#
#
# Mechanical properties :
#
#
# Convention : Reuss Voigt Hill
#
# Bulk Modulus (GPa) = 41.91486 52.72455 47.31971
# Shear Modulus (GPa) = 20.96140 22.86113 21.91126
#
# Velocity S-wave (km/s) = 3.45486 3.60802 3.53227
# Velocity P-wave (km/s) = 6.30732 6.88331 6.60160
#
# Compressibility (1/GPa) = 0.02385788
#
# Stress axis : x y z
#
# Youngs Moduli (GPa) = 71.76200 35.04934 82.92538
#
# Poissons Ratio (x) = 0.23252 0.37193
# Poissons Ratio (y) = 0.47608 0.34947
# Poissons Ratio (z) = 0.32186 0.14771
#
# Static dielectric constant tensor:
#      x y z
#    x 3.586670 0.000000 0.000000 
#    y 0.000000 3.209770 0.000000 
#    z 0.000000 0.000000 2.912770 
# 
# 
# High freq. dielectric constant tensor:
#      x y z
#    x 1.678220 0.000000 0.000000 
#    y 0.000000 1.671440 0.000000 
#    z 0.000000 0.000000 1.653680 
# 
# From -- ./inp_files/58227.got.cif
#   From: 2010.06.25/outbox.cif.g09.slc.cpg/sg71_30_cif.got.tgz:58227.got - 2010.06.28 04:59:45.
