data_PCOD8289436
_publ_section_title
;
Structure prediction by ZEFSAII (Michael W. Deem and Ramdas Pophale) SiO2 
 PCOD8289436
Probable space group: I M M M
;
_chemical_formula_sum "Si O2"
_cell_formula_units_Z 72
_cell_length_a 9.189828
_cell_length_b 14.106536
_cell_length_c 29.257829
_cell_angle_alpha 90.000000
_cell_angle_beta 90.000000
_cell_angle_gamma 90.000000
_cell_volume 3792.886631
_symmetry_space_group_name_H-M "I M M M"
_symmetry_group_IT_number 71
_symmetry_cell_setting 'orthorhombic'
loop_
_space_group_symop_operation_xyz
x,y,z
-x,-y,z
x,-y,-z
-x,y,-z
-x,-y,-z
x,y,-z
-x,y,z
x,-y,z
1/2+x,1/2+y,1/2+z
1/2-x,1/2-y,1/2+z
1/2+x,1/2-y,1/2-z
1/2-x,1/2+y,1/2-z
1/2-x,1/2-y,1/2-z
1/2+x,1/2+y,1/2-z
1/2-x,1/2+y,1/2+z
1/2+x,1/2-y,1/2+z
loop_
_atom_site_type_symbol
_atom_site_label
_atom_site_fract_x
_atom_site_fract_y
_atom_site_fract_z
Si Si1 0.828635 0.298106 0.916136
Si Si2 0.829817 0.702160 0.813418
Si Si3 0.663749 0.388450 0.000000
Si Si4 0.327551 0.601491 0.551184
Si Si5 0.829562 0.106497 0.767053
O O1 0.789542 0.329862 0.864867
O O2 0.745034 0.357980 0.953892
O O3 0.775891 0.188575 0.917993
O O4 0.000000 0.307941 0.926312
O O5 0.785367 0.812734 0.804107
O O6 0.746734 0.629908 0.780820
O O7 0.000000 0.690108 0.804420
O O8 0.660047 0.500000 0.000000
O O9 0.500000 0.346856 0.000000
O O10 0.268194 0.618356 0.500000
O O11 0.500000 0.597845 0.550166
O O12 0.268613 0.500000 0.570191
O O13 0.000000 0.109364 0.757813
O O14 0.783318 0.000000 0.783439
#
# Coordination Sequence:
#
# PCOD8289436 Si02
#       5
#    16  16   8  16  16
#     4  10  19  34  56  79 104 134 172 218 261 301
#     4   9  19  33  52  80 107 133 171 217 260 304
#     4  11  25  41  54  71 100 140 181 217 256 303
#     4   8  13  23  44  74 101 124 155 197 247 300
#     4   9  18  34  54  76 106 141 172 207 256 313
#
# _framework density 18.982901999999999
#
# number of rings (size 3 to 8) (size 9 to 14) (size 15 to 20)
#    0.000    2.778    1.111    1.000    0.000    4.000 
#    0.000    8.889    0.000    1.333    0.000    3.111 
#    0.000    0.000    0.000    0.000    0.000    0.000 
#
# Total GULP energy -446061.570890 kJ/mol
# GULP energy per Si atom -12390.599191 kJ/mol
# Density = 1.893970 g / cm^3
# Si number density = 18.982902 Si / 1000 Ang^3
#
#
#
# Elastic Constant Matrix: (Units=GPa)
#
#
# Indices 1 2 3 4 5 6 
#
# 1 44.0166 24.9934 39.5154 0.0000 0.0000 0.0000
# 2 24.9934 73.8984 26.6955 0.0000 0.0000 0.0000
# 3 39.5154 26.6955 103.5100 0.0000 0.0000 0.0000
# 4 0.0000 0.0000 0.0000 17.6066 0.0000 0.0000
# 5 0.0000 0.0000 0.0000 0.0000 22.4618 0.0000
# 6 0.0000 0.0000 0.0000 0.0000 0.0000 20.4505
#
#
#
# Elastic Compliance Matrix: (Units=1/GPa)
#
#
# Indices 1 2 3 4 5 6 
#
# 1 0.038968 -0.008608 -0.012656 0.000000 0.000000 0.000000
# 2 -0.008608 0.016824 -0.001053 0.000000 0.000000 0.000000
# 3 -0.012656 -0.001053 0.014764 0.000000 0.000000 0.000000
# 4 0.000000 0.000000 0.000000 0.056797 0.000000 0.000000
# 5 0.000000 0.000000 0.000000 0.000000 0.044520 0.000000
# 6 0.000000 0.000000 0.000000 0.000000 0.000000 0.048899
#
#
# Mechanical properties :
#
#
# Convention : Reuss Voigt Hill
#
# Bulk Modulus (GPa) = 38.57671 44.87041 41.72356
# Shear Modulus (GPa) = 18.24509 20.78516 19.51512
#
# Velocity S-wave (km/s) = 3.10358 3.31258 3.20978
# Velocity P-wave (km/s) = 5.76271 6.19027 5.98032
#
# Compressibility (1/GPa) = 0.02592237
#
# Stress axis : x y z
#
# Youngs Moduli (GPa) = 25.66175 59.44017 67.73180
#
# Poissons Ratio (x) = 0.51164 0.85725
# Poissons Ratio (y) = 0.22089 0.07131
# Poissons Ratio (z) = 0.32479 0.06258
#
# Static dielectric constant tensor:
#      x y z
#    x 3.218040 0.000000 0.000000 
#    y 0.000000 3.875380 0.000000 
#    z 0.000000 0.000000 3.442140 
# 
# 
# High freq. dielectric constant tensor:
#      x y z
#    x 1.700370 0.000000 0.000000 
#    y 0.000000 1.747530 0.000000 
#    z 0.000000 0.000000 1.730230 
# 
# From -- ./inp_files/6418.got.cif
#   From: 2010.06.25/outbox.cif.g09.slc.cpg/sg71_4_cif.got.tgz:6418.got - 2010.06.28 04:59:45.
