data_PCOD8289178
_publ_section_title
;
Structure prediction by ZEFSAII (Michael W. Deem and Ramdas Pophale) SiO2 
 PCOD8289178
Probable space group: I M M M
;
_chemical_formula_sum "Si O2"
_cell_formula_units_Z 96
_cell_length_a 13.345192
_cell_length_b 24.762740
_cell_length_c 16.078227
_cell_angle_alpha 90.000000
_cell_angle_beta 90.000000
_cell_angle_gamma 90.000000
_cell_volume 5313.267486
_symmetry_space_group_name_H-M "I M M M"
_symmetry_group_IT_number 71
_symmetry_cell_setting 'orthorhombic'
loop_
_space_group_symop_operation_xyz
x,y,z
-x,-y,z
x,-y,-z
-x,y,-z
-x,-y,-z
x,y,-z
-x,y,z
x,-y,z
1/2+x,1/2+y,1/2+z
1/2-x,1/2-y,1/2+z
1/2+x,1/2-y,1/2-z
1/2-x,1/2+y,1/2-z
1/2-x,1/2-y,1/2-z
1/2+x,1/2+y,1/2-z
1/2-x,1/2+y,1/2+z
1/2+x,1/2-y,1/2+z
loop_
_atom_site_type_symbol
_atom_site_label
_atom_site_fract_x
_atom_site_fract_y
_atom_site_fract_z
Si Si1 0.386185 0.253773 0.838098
Si Si2 0.693213 0.625798 0.837946
Si Si3 0.810274 0.783416 0.909420
Si Si4 0.117069 0.885948 0.167212
Si Si5 0.881649 0.063676 0.500000
Si Si6 0.387620 0.813506 0.672221
Si Si7 0.882071 0.938109 0.000000
O O1 0.500000 0.243475 0.867807
O O2 0.367269 0.317899 0.836944
O O3 0.309243 0.225246 0.900937
O O4 0.365229 0.225258 0.750269
O O5 0.663730 0.592754 0.754065
O O6 0.666589 0.590580 0.918369
O O7 0.812701 0.635822 0.833145
O O8 0.857248 0.822557 0.840081
O O9 0.866414 0.725719 0.905559
O O10 0.831655 0.808660 0.000000
O O11 0.000000 0.896917 0.171683
O O12 0.164764 0.914527 0.085618
O O13 0.000000 0.074465 0.500000
O O14 0.857397 0.000000 0.500000
O O15 0.500000 0.836765 0.671515
O O16 0.000000 0.926174 0.000000
O O17 0.854703 0.000000 0.000000
#
# Coordination Sequence:
#
# PCOD8289178 Si02
#       7
#    16  16  16  16   8  16   8
#     4  10  19  33  52  78 113 147 180 219 262 323
#     4  11  21  38  57  80 107 145 185 225 275 319
#     4  11  20  30  45  76 115 146 178 208 252 328
#     4  11  19  31  53  76 105 142 173 211 265 324
#     4  11  26  44  60  81 107 143 196 246 282 321
#     4  10  20  34  53  80 114 145 179 218 263 328
#     4   9  20  34  49  76 105 129 165 213 265 320
#
# _framework density 18.067978
#
# number of rings (size 3 to 8) (size 9 to 14) (size 15 to 20)
#    0.000    1.500    4.167    3.000    4.667    2.000 
#    0.000    1.667    0.000    1.000    0.000    0.000 
#    0.000    3.333    0.000    0.000    0.000    0.000 
#
# Total GULP energy -594966.736927 kJ/mol
# GULP energy per Si atom -12395.140353 kJ/mol
# Density = 1.802685 g / cm^3
# Si number density = 18.067978 Si / 1000 Ang^3
#
#
#
# Elastic Constant Matrix: (Units=GPa)
#
#
# Indices 1 2 3 4 5 6 
#
# 1 107.4064 32.0378 42.6010 0.0000 0.0000 0.0000
# 2 32.0378 65.3244 50.2735 -0.0004 0.0000 0.0000
# 3 42.6010 50.2735 148.1137 0.0001 0.0000 0.0000
# 4 0.0000 -0.0004 0.0001 22.9889 0.0000 0.0000
# 5 0.0000 0.0000 0.0000 0.0000 17.7289 0.0000
# 6 0.0000 0.0000 0.0000 0.0000 0.0000 18.1897
#
#
#
# Elastic Compliance Matrix: (Units=1/GPa)
#
#
# Indices 1 2 3 4 5 6 
#
# 1 0.011267 -0.004104 -0.001848 0.000000 0.000000 0.000000
# 2 -0.004104 0.022216 -0.006360 0.000000 0.000000 0.000000
# 3 -0.001848 -0.006360 0.009442 0.000000 0.000000 0.000000
# 4 0.000000 0.000000 0.000000 0.043499 0.000000 0.000000
# 5 0.000000 0.000000 0.000000 0.000000 0.056405 0.000000
# 6 0.000000 0.000000 0.000000 0.000000 0.000000 0.054976
#
#
# Mechanical properties :
#
#
# Convention : Reuss Voigt Hill
#
# Bulk Modulus (GPa) = 54.64132 63.40768 59.02450
# Shear Modulus (GPa) = 21.87899 24.84366 23.36132
#
# Velocity S-wave (km/s) = 3.48361 3.71214 3.59969
# Velocity P-wave (km/s) = 6.81825 7.31734 7.07219
#
# Compressibility (1/GPa) = 0.01830117
#
# Stress axis : x y z
#
# Youngs Moduli (GPa) = 88.75087 45.01305 105.91148
#
# Poissons Ratio (x) = 0.18473 0.19570
# Poissons Ratio (y) = 0.36423 0.67362
# Poissons Ratio (z) = 0.16399 0.28629
#
# Static dielectric constant tensor:
#      x y z
#    x 3.301790 0.000000 0.000000 
#    y 0.000000 3.003850 0.000000 
#    z 0.000000 0.000000 3.496260 
# 
# 
# High freq. dielectric constant tensor:
#      x y z
#    x 1.687870 0.000000 0.000000 
#    y 0.000000 1.658940 0.000000 
#    z 0.000000 0.000000 1.714790 
# 
# From -- ./inp_files/34779.got.cif
#   From: 2010.06.25/outbox.cif.g09.slc.cpg/sg71_18_cif.got.tgz:34779.got - 2010.06.28 04:59:45.
