data_PCOD8289425
_publ_section_title
;
Structure prediction by ZEFSAII (Michael W. Deem and Ramdas Pophale) SiO2 
 PCOD8289425
Probable space group: I M M M
;
_chemical_formula_sum "Si O2"
_cell_formula_units_Z 96
_cell_length_a 17.073857
_cell_length_b 10.335140
_cell_length_c 28.605004
_cell_angle_alpha 90.000000
_cell_angle_beta 90.000000
_cell_angle_gamma 90.000000
_cell_volume 5047.659099
_symmetry_space_group_name_H-M "I M M M"
_symmetry_group_IT_number 71
_symmetry_cell_setting 'orthorhombic'
loop_
_space_group_symop_operation_xyz
x,y,z
-x,-y,z
x,-y,-z
-x,y,-z
-x,-y,-z
x,y,-z
-x,y,z
x,-y,z
1/2+x,1/2+y,1/2+z
1/2-x,1/2-y,1/2+z
1/2+x,1/2-y,1/2-z
1/2-x,1/2+y,1/2-z
1/2-x,1/2-y,1/2-z
1/2+x,1/2+y,1/2-z
1/2-x,1/2+y,1/2+z
1/2+x,1/2-y,1/2+z
loop_
_atom_site_type_symbol
_atom_site_label
_atom_site_fract_x
_atom_site_fract_y
_atom_site_fract_z
Si Si1 0.589233 0.000000 0.944907
Si Si2 0.162956 0.652175 0.094985
Si Si3 0.651350 0.645234 0.227365
Si Si4 0.500000 0.846751 0.552337
Si Si5 0.829943 0.643209 0.796572
Si Si6 0.584305 0.353755 0.868006
Si Si7 0.817249 0.753526 0.445492
O O1 0.641445 0.878925 0.928572
O O2 0.500000 0.000000 0.923860
O O3 0.581660 0.000000 0.000000
O O4 0.175989 0.500000 0.083854
O O5 0.077301 0.700780 0.079395
O O6 0.173225 0.682855 0.149320
O O7 0.224951 0.738531 0.065649
O O8 0.618170 0.500000 0.237804
O O9 0.744250 0.634616 0.224940
O O10 0.623764 0.744951 0.268120
O O11 0.621934 0.708763 0.178475
O O12 0.500000 0.788933 0.500000
O O13 0.500000 0.000000 0.550399
O O14 0.869817 0.500000 0.791680
O O15 0.500000 0.288048 0.879513
O O16 0.571155 0.500000 0.853385
O O17 0.639711 0.358146 0.913351
O O18 0.832069 0.781335 0.500000
#
# Coordination Sequence:
#
# PCOD8289425 Si02
#       7
#     8  16  16   8  16  16  16
#     4   9  20  38  54  73 107 149 187 226 272 316
#     4  10  19  34  55  83 114 142 178 231 285 333
#     4   9  17  33  52  73 104 141 178 222 278 333
#     4   9  18  32  52  81 115 147 175 216 286 349
#     4   9  17  32  54  78 107 138 178 230 281 327
#     4  10  20  34  52  77 110 143 176 223 280 329
#     4  11  21  35  56  79 106 145 189 226 266 327
#
# _framework density 19.018716000000001
#
# number of rings (size 3 to 8) (size 9 to 14) (size 15 to 20)
#    0.000    2.333    1.667    1.500    0.000    3.000 
#    4.500    0.833    0.000    0.500    0.000    2.333 
#    0.000    0.000    0.000    0.000    0.000    0.000 
#
# Total GULP energy -594765.106715 kJ/mol
# GULP energy per Si atom -12390.939723 kJ/mol
# Density = 1.897543 g / cm^3
# Si number density = 19.018716 Si / 1000 Ang^3
#
#
#
# Elastic Constant Matrix: (Units=GPa)
#
#
# Indices 1 2 3 4 5 6 
#
# 1 107.0284 35.8349 24.2158 0.0000 0.0000 0.0000
# 2 35.8349 68.7805 46.2086 0.0000 0.0000 0.0000
# 3 24.2158 46.2086 110.7493 0.0000 0.0000 0.0000
# 4 0.0000 0.0000 0.0000 24.2132 0.0000 0.0000
# 5 0.0000 0.0000 0.0000 0.0000 18.9514 0.0000
# 6 0.0000 0.0000 0.0000 0.0000 0.0000 18.2437
#
#
#
# Elastic Compliance Matrix: (Units=1/GPa)
#
#
# Indices 1 2 3 4 5 6 
#
# 1 0.011318 -0.005883 -0.000020 0.000000 0.000000 0.000000
# 2 -0.005883 0.023260 -0.008419 0.000000 0.000000 0.000000
# 3 -0.000020 -0.008419 0.012546 0.000000 0.000000 0.000000
# 4 0.000000 0.000000 0.000000 0.041300 0.000000 0.000000
# 5 0.000000 0.000000 0.000000 0.000000 0.052767 0.000000
# 6 0.000000 0.000000 0.000000 0.000000 0.000000 0.054813
#
#
# Mechanical properties :
#
#
# Convention : Reuss Voigt Hill
#
# Bulk Modulus (GPa) = 54.11083 55.45300 54.78191
# Shear Modulus (GPa) = 21.66314 24.30159 22.98237
#
# Velocity S-wave (km/s) = 3.37863 3.57847 3.47999
# Velocity P-wave (km/s) = 6.61312 6.80399 6.70923
#
# Compressibility (1/GPa) = 0.01848059
#
# Stress axis : x y z
#
# Youngs Moduli (GPa) = 88.35809 42.99252 79.70486
#
# Poissons Ratio (x) = 0.25293 0.00160
# Poissons Ratio (y) = 0.51981 0.67100
# Poissons Ratio (z) = 0.00177 0.36193
#
# Static dielectric constant tensor:
#      x y z
#    x 3.623930 0.000000 0.000000 
#    y 0.000000 3.548340 0.000000 
#    z 0.000000 0.000000 3.430260 
# 
# 
# High freq. dielectric constant tensor:
#      x y z
#    x 1.731270 0.000000 0.000000 
#    y 0.000000 1.708850 0.000000 
#    z 0.000000 0.000000 1.740510 
# 
# From -- ./inp_files/60556.got.cif
#   From: 2010.06.25/outbox.cif.g09.slc.cpg/sg71_31_cif.got.tgz:60556.got - 2010.06.28 04:59:45.
