data_PCOD8289976
_publ_section_title
;
Structure prediction by ZEFSAII (Michael W. Deem and Ramdas Pophale) SiO2 
 PCOD8289976
Probable space group: I M M M
;
_chemical_formula_sum "Si O2"
_cell_formula_units_Z 88
_cell_length_a 31.883232
_cell_length_b 20.943509
_cell_length_c 8.973341
_cell_angle_alpha 90.000000
_cell_angle_beta 90.000000
_cell_angle_gamma 90.000000
_cell_volume 5991.919346
_symmetry_space_group_name_H-M "I M M M"
_symmetry_group_IT_number 71
_symmetry_cell_setting 'orthorhombic'
loop_
_space_group_symop_operation_xyz
x,y,z
-x,-y,z
x,-y,-z
-x,y,-z
-x,-y,-z
x,y,-z
-x,y,z
x,-y,z
1/2+x,1/2+y,1/2+z
1/2-x,1/2-y,1/2+z
1/2+x,1/2-y,1/2-z
1/2-x,1/2+y,1/2-z
1/2-x,1/2-y,1/2-z
1/2+x,1/2+y,1/2-z
1/2-x,1/2+y,1/2+z
1/2+x,1/2-y,1/2+z
loop_
_atom_site_type_symbol
_atom_site_label
_atom_site_fract_x
_atom_site_fract_y
_atom_site_fract_z
Si Si1 0.677970 0.426688 0.824533
Si Si2 0.451606 0.629194 0.824467
Si Si3 0.376077 0.318960 0.676591
Si Si4 0.246871 0.653668 0.164705
Si Si5 0.186502 0.266904 0.334308
Si Si6 0.450513 0.500000 0.666834
O O1 0.670335 0.500000 0.781156
O O2 0.646245 0.383656 0.731110
O O3 0.726189 0.407983 0.783245
O O4 0.670416 0.413669 0.000000
O O5 0.500000 0.643636 0.785628
O O6 0.422874 0.683045 0.746789
O O7 0.436028 0.561721 0.758418
O O8 0.443942 0.627944 0.000000
O O9 0.378645 0.318378 0.500000
O O10 0.351908 0.255645 0.731003
O O11 0.207515 0.667980 0.271996
O O12 0.278669 0.712608 0.163393
O O13 0.228320 0.642778 0.000000
O O14 0.169515 0.280689 0.500000
O O15 0.500000 0.500000 0.653822
O O16 0.430805 0.500000 0.500000
#
# Coordination Sequence:
#
# PCOD8289976 Si02
#       6
#    16  16  16  16  16   8
#     4   9  18  31  44  58  79 106 133 161 196 239
#     4  10  20  33  46  57  72  98 129 160 199 245
#     4  11  21  30  42  59  79 100 128 168 205 236
#     4   8  14  25  41  59  77  98 125 157 192 229
#     4   9  16  27  42  58  76  98 126 157 193 235
#     4   9  17  29  43  57  71  89 119 157 193 231
#
# _framework density 14.686445000000001
#
# number of rings (size 3 to 8) (size 9 to 14) (size 15 to 20)
#    0.000    2.636    0.000    4.091    1.273    6.909 
#    0.000    0.000    0.000    0.000    0.000    0.000 
#    0.000    0.000    0.000    0.000    0.000    0.909 
#
# Total GULP energy -545403.628904 kJ/mol
# GULP energy per Si atom -12395.537021 kJ/mol
# Density = 1.465302 g / cm^3
# Si number density = 14.686445 Si / 1000 Ang^3
#
#
#
# Elastic Constant Matrix: (Units=GPa)
#
#
# Indices 1 2 3 4 5 6 
#
# 1 75.5369 22.4329 47.5404 0.0000 0.0000 0.0000
# 2 22.4329 15.3709 17.5854 0.0000 0.0000 0.0000
# 3 47.5404 17.5854 108.0451 0.0000 0.0000 0.0000
# 4 0.0000 0.0000 0.0000 16.7854 0.0000 0.0000
# 5 0.0000 0.0000 0.0000 0.0000 24.7807 0.0000
# 6 0.0000 0.0000 0.0000 0.0000 0.0000 20.7290
#
#
#
# Elastic Compliance Matrix: (Units=1/GPa)
#
#
# Indices 1 2 3 4 5 6 
#
# 1 0.026770 -0.031449 -0.006660 0.000000 0.000000 0.000000
# 2 -0.031449 0.116891 -0.005187 0.000000 0.000000 0.000000
# 3 -0.006660 -0.005187 0.013030 0.000000 0.000000 0.000000
# 4 0.000000 0.000000 0.000000 0.059576 0.000000 0.000000
# 5 0.000000 0.000000 0.000000 0.000000 0.040354 0.000000
# 6 0.000000 0.000000 0.000000 0.000000 0.000000 0.048242
#
#
# Mechanical properties :
#
#
# Convention : Reuss Voigt Hill
#
# Bulk Modulus (GPa) = 14.26588 41.56336 27.91462
# Shear Modulus (GPa) = 12.05336 19.88530 15.96933
#
# Velocity S-wave (km/s) = 2.86792 3.68365 3.30108
# Velocity P-wave (km/s) = 4.54987 6.81574 5.79464
#
# Compressibility (1/GPa) = 0.07009731
#
# Stress axis : x y z
#
# Youngs Moduli (GPa) = 37.35509 8.55499 76.74463
#
# Poissons Ratio (x) = 0.26905 0.51114
# Poissons Ratio (y) = 1.17480 0.39809
# Poissons Ratio (z) = 0.24880 0.04438
#
# Static dielectric constant tensor:
#      x y z
#    x 2.852980 0.000000 0.000000 
#    y 0.000000 2.660800 0.000000 
#    z 0.000000 0.000000 3.008600 
# 
# 
# High freq. dielectric constant tensor:
#      x y z
#    x 1.545790 0.000000 0.000000 
#    y 0.000000 1.507090 0.000000 
#    z 0.000000 0.000000 1.575690 
# 
# From -- ./inp_files/13550.got.cif
#   From: 2010.06.25/outbox.cif.g09.slc.cpg/sg71_7_cif.got.tgz:13550.got - 2010.06.28 04:59:45.
