data_PCOD8289575
_publ_section_title
;
Structure prediction by ZEFSAII (Michael W. Deem and Ramdas Pophale) SiO2 
 PCOD8289575
Probable space group: I M M M
;
_chemical_formula_sum "Si O2"
_cell_formula_units_Z 80
_cell_length_a 23.972072
_cell_length_b 11.260156
_cell_length_c 16.725373
_cell_angle_alpha 90.000000
_cell_angle_beta 90.000000
_cell_angle_gamma 90.000000
_cell_volume 4514.667730
_symmetry_space_group_name_H-M "I M M M"
_symmetry_group_IT_number 71
_symmetry_cell_setting 'orthorhombic'
loop_
_space_group_symop_operation_xyz
x,y,z
-x,-y,z
x,-y,-z
-x,y,-z
-x,-y,-z
x,y,-z
-x,y,z
x,-y,z
1/2+x,1/2+y,1/2+z
1/2-x,1/2-y,1/2+z
1/2+x,1/2-y,1/2-z
1/2-x,1/2+y,1/2-z
1/2-x,1/2-y,1/2-z
1/2+x,1/2+y,1/2-z
1/2-x,1/2+y,1/2+z
1/2+x,1/2-y,1/2+z
loop_
_atom_site_type_symbol
_atom_site_label
_atom_site_fract_x
_atom_site_fract_y
_atom_site_fract_z
Si Si1 0.131321 0.231657 0.870140
Si Si2 0.561595 0.859451 0.088045
Si Si3 0.252964 0.636340 0.411778
Si Si4 0.937477 0.638953 0.000000
Si Si5 0.934036 0.000000 0.095318
Si Si6 0.844541 0.358500 0.705199
O O1 0.189814 0.208596 0.913270
O O2 0.095471 0.324512 0.920787
O O3 0.094171 0.113361 0.862665
O O4 0.148383 0.287197 0.786070
O O5 0.500000 0.822298 0.117225
O O6 0.605256 0.809985 0.150997
O O7 0.567117 0.000000 0.082919
O O8 0.573427 0.805940 0.000000
O O9 0.224872 0.651488 0.500000
O O10 0.268223 0.500000 0.396017
O O11 0.211700 0.679535 0.341542
O O12 0.943631 0.500000 0.000000
O O13 0.000000 0.696702 0.000000
O O14 0.000000 0.000000 0.112269
O O15 0.921582 0.000000 0.000000
O O16 0.846541 0.500000 0.720280
#
# Coordination Sequence:
#
# PCOD8289575 Si02
#       6
#    16  16  16   8   8  16
#     4  12  21  37  56  80 111 145 185 235 280 331
#     4   8  14  27  47  72 104 140 175 213 262 325
#     4  10  19  35  58  82 108 146 189 231 275 324
#     4  11  24  39  57  81 113 150 184 223 284 354
#     4  11  22  38  60  82 103 145 200 242 274 321
#     4  10  21  33  52  83 116 145 178 226 284 340
#
# _framework density 17.720020000000002
#
# number of rings (size 3 to 8) (size 9 to 14) (size 15 to 20)
#    0.000    1.800    3.000    3.000    0.000    4.000 
#    0.000    2.000    0.000    0.000    0.000    2.100 
#    0.000    4.800    0.000    0.000    0.000    0.000 
#
# Total GULP energy -495811.016617 kJ/mol
# GULP energy per Si atom -12395.275415 kJ/mol
# Density = 1.767969 g / cm^3
# Si number density = 17.720020 Si / 1000 Ang^3
#
#
#
# Elastic Constant Matrix: (Units=GPa)
#
#
# Indices 1 2 3 4 5 6 
#
# 1 129.7034 36.8070 65.1017 0.0000 0.0000 0.0000
# 2 36.8070 56.5771 37.1408 0.0000 0.0000 0.0000
# 3 65.1017 37.1408 121.0415 0.0000 0.0000 0.0000
# 4 0.0000 0.0000 0.0000 23.0657 0.0000 0.0000
# 5 0.0000 0.0000 0.0000 0.0000 21.1889 0.0000
# 6 0.0000 0.0000 0.0000 0.0000 0.0000 21.1248
#
#
#
# Elastic Compliance Matrix: (Units=1/GPa)
#
#
# Indices 1 2 3 4 5 6 
#
# 1 0.011310 -0.004213 -0.004790 0.000000 0.000000 0.000000
# 2 -0.004213 0.023703 -0.005007 0.000000 0.000000 0.000000
# 3 -0.004790 -0.005007 0.012374 0.000000 0.000000 0.000000
# 4 0.000000 0.000000 0.000000 0.043354 0.000000 0.000000
# 5 0.000000 0.000000 0.000000 0.000000 0.047195 0.000000
# 6 0.000000 0.000000 0.000000 0.000000 0.000000 0.047338
#
#
# Mechanical properties :
#
#
# Convention : Reuss Voigt Hill
#
# Bulk Modulus (GPa) = 51.63602 65.04678 58.34140
# Shear Modulus (GPa) = 22.75314 24.29404 23.52359
#
# Velocity S-wave (km/s) = 3.58723 3.70671 3.64746
# Velocity P-wave (km/s) = 6.80888 7.42343 7.12279
#
# Compressibility (1/GPa) = 0.01936633
#
# Stress axis : x y z
#
# Youngs Moduli (GPa) = 88.41865 42.18893 80.81224
#
# Poissons Ratio (x) = 0.17775 0.38710
# Poissons Ratio (y) = 0.37253 0.40463
# Poissons Ratio (z) = 0.42354 0.21124
#
# Static dielectric constant tensor:
#      x y z
#    x 3.579370 0.000000 0.000000 
#    y 0.000000 2.953280 0.000000 
#    z 0.000000 0.000000 3.412440 
# 
# 
# High freq. dielectric constant tensor:
#      x y z
#    x 1.706130 0.000000 0.000000 
#    y 0.000000 1.646350 0.000000 
#    z 0.000000 0.000000 1.687220 
# 
# From -- ./inp_files/27356.got.cif
#   From: 2010.06.25/outbox.cif.g09.slc.cpg/sg71_14_cif.got.tgz:27356.got - 2010.06.28 04:59:45.
