data_PCOD8289446
_publ_section_title
;
Structure prediction by ZEFSAII (Michael W. Deem and Ramdas Pophale) SiO2 
 PCOD8289446
Probable space group: I M M M
;
_chemical_formula_sum "Si O2"
_cell_formula_units_Z 96
_cell_length_a 14.271290
_cell_length_b 12.001048
_cell_length_c 31.657965
_cell_angle_alpha 90.000000
_cell_angle_beta 90.000000
_cell_angle_gamma 90.000000
_cell_volume 5422.073478
_symmetry_space_group_name_H-M "I M M M"
_symmetry_group_IT_number 71
_symmetry_cell_setting 'orthorhombic'
loop_
_space_group_symop_operation_xyz
x,y,z
-x,-y,z
x,-y,-z
-x,y,-z
-x,-y,-z
x,y,-z
-x,y,z
x,-y,z
1/2+x,1/2+y,1/2+z
1/2-x,1/2-y,1/2+z
1/2+x,1/2-y,1/2-z
1/2-x,1/2+y,1/2-z
1/2-x,1/2-y,1/2-z
1/2+x,1/2+y,1/2-z
1/2-x,1/2+y,1/2+z
1/2+x,1/2-y,1/2+z
loop_
_atom_site_type_symbol
_atom_site_label
_atom_site_fract_x
_atom_site_fract_y
_atom_site_fract_z
Si Si1 0.606849 0.130038 0.682906
Si Si2 0.720977 0.238053 0.843519
Si Si3 0.215485 0.000000 0.135153
Si Si4 0.888890 0.122342 0.500000
Si Si5 0.206680 0.500000 0.549169
Si Si6 0.107135 0.000000 0.212610
Si Si7 0.607375 0.717581 0.759882
Si Si8 0.610756 0.226467 0.924645
O O1 0.500000 0.150448 0.666710
O O2 0.678356 0.199468 0.653208
O O3 0.615655 0.172875 0.730981
O O4 0.632919 0.000000 0.681802
O O5 0.672397 0.270429 0.800081
O O6 0.655578 0.274989 0.882051
O O7 0.727538 0.105662 0.848058
O O8 0.206392 0.000000 0.083580
O O9 0.118413 0.000000 0.161428
O O10 0.853595 0.185973 0.458927
O O11 0.000000 0.116370 0.500000
O O12 0.843652 0.000000 0.500000
O O13 0.241357 0.500000 0.500000
O O14 0.143636 0.393946 0.559426
O O15 0.148996 0.112401 0.233398
O O16 0.000000 0.000000 0.223289
O O17 0.500000 0.698776 0.774123
O O18 0.500000 0.221953 0.918997
#
# Coordination Sequence:
#
# PCOD8289446 Si02
#       8
#    16  16   8   8   8   8  16  16
#     4  10  22  37  54  75  99 137 183 218 263 317
#     4  11  22  34  53  76 109 139 175 224 268 307
#     4  10  22  33  52  83 103 140 185 226 265 319
#     4   9  18  33  51  71 100 137 171 204 249 312
#     4  10  19  34  56  81 108 143 180 219 267 317
#     4  10  20  36  55  76 102 139 186 224 272 328
#     4  10  21  35  52  75 106 143 179 219 263 316
#     4  10  20  34  53  79 107 139 177 214 260 315
#
# _framework density 17.705404000000001
#
# number of rings (size 3 to 8) (size 9 to 14) (size 15 to 20)
#    0.000    1.917    2.500    1.250    2.333    1.000 
#    0.000    0.833    0.000    0.250    0.000    0.583 
#    0.000    2.000    0.000    0.000    0.000    0.000 
#
# Total GULP energy -594891.943223 kJ/mol
# GULP energy per Si atom -12393.582150 kJ/mol
# Density = 1.766511 g / cm^3
# Si number density = 17.705404 Si / 1000 Ang^3
#
#
#
# Elastic Constant Matrix: (Units=GPa)
#
#
# Indices 1 2 3 4 5 6 
#
# 1 58.7741 43.3125 43.2083 0.0000 0.0000 0.0000
# 2 43.3125 130.0784 53.8062 0.0000 0.0000 0.0000
# 3 43.2083 53.8062 131.6163 0.0000 0.0000 0.0000
# 4 0.0000 0.0000 0.0000 31.5318 0.0000 0.0000
# 5 0.0000 0.0000 0.0000 0.0000 27.6513 0.0000
# 6 0.0000 0.0000 0.0000 0.0000 0.0000 16.2846
#
#
#
# Elastic Compliance Matrix: (Units=1/GPa)
#
#
# Indices 1 2 3 4 5 6 
#
# 1 0.025972 -0.006163 -0.006007 0.000000 0.000000 0.000000
# 2 -0.006163 0.010715 -0.002357 0.000000 0.000000 0.000000
# 3 -0.006007 -0.002357 0.010533 0.000000 0.000000 0.000000
# 4 0.000000 0.000000 0.000000 0.031714 0.000000 0.000000
# 5 0.000000 0.000000 0.000000 0.000000 0.036165 0.000000
# 6 0.000000 0.000000 0.000000 0.000000 0.000000 0.061408
#
#
# Mechanical properties :
#
#
# Convention : Reuss Voigt Hill
#
# Bulk Modulus (GPa) = 55.04726 66.79143 60.91934
# Shear Modulus (GPa) = 23.62766 27.10301 25.36533
#
# Velocity S-wave (km/s) = 3.65703 3.91676 3.78912
# Velocity P-wave (km/s) = 6.99928 7.63284 7.32292
#
# Compressibility (1/GPa) = 0.01816621
#
# Stress axis : x y z
#
# Youngs Moduli (GPa) = 38.50275 93.32843 94.93652
#
# Poissons Ratio (x) = 0.57522 0.57026
# Poissons Ratio (y) = 0.23731 0.22376
# Poissons Ratio (z) = 0.23128 0.21997
#
# Static dielectric constant tensor:
#      x y z
#    x 3.268250 0.000000 0.000000 
#    y 0.000000 3.651710 0.000000 
#    z 0.000000 0.000000 3.373330 
# 
# 
# High freq. dielectric constant tensor:
#      x y z
#    x 1.666640 0.000000 0.000000 
#    y 0.000000 1.700450 0.000000 
#    z 0.000000 0.000000 1.674760 
# 
# From -- ./inp_files/69930.got.cif
#   From: 2010.06.25/outbox.cif.g09.slc.cpg/sg71_35_cif.got.tgz:69930.got - 2010.06.28 04:59:45.
