data_PCOD8289228
_publ_section_title
;
Structure prediction by ZEFSAII (Michael W. Deem and Ramdas Pophale) SiO2 
 PCOD8289228
Probable space group: I M M M
;
_chemical_formula_sum "Si O2"
_cell_formula_units_Z 88
_cell_length_a 28.977642
_cell_length_b 9.255201
_cell_length_c 17.378745
_cell_angle_alpha 90.000000
_cell_angle_beta 90.000000
_cell_angle_gamma 90.000000
_cell_volume 4660.873420
_symmetry_space_group_name_H-M "I M M M"
_symmetry_group_IT_number 71
_symmetry_cell_setting 'orthorhombic'
loop_
_space_group_symop_operation_xyz
x,y,z
-x,-y,z
x,-y,-z
-x,y,-z
-x,-y,-z
x,y,-z
-x,y,z
x,-y,z
1/2+x,1/2+y,1/2+z
1/2-x,1/2-y,1/2+z
1/2+x,1/2-y,1/2-z
1/2-x,1/2+y,1/2-z
1/2-x,1/2-y,1/2-z
1/2+x,1/2+y,1/2-z
1/2-x,1/2+y,1/2+z
1/2+x,1/2-y,1/2+z
loop_
_atom_site_type_symbol
_atom_site_label
_atom_site_fract_x
_atom_site_fract_y
_atom_site_fract_z
Si Si1 0.947035 0.160183 0.648119
Si Si2 0.685098 0.837772 0.000000
Si Si3 0.076598 0.660915 0.500000
Si Si4 0.415611 0.670905 0.690721
Si Si5 0.500000 0.327608 0.587558
Si Si6 0.188324 0.833865 0.192118
Si Si7 0.774263 0.166583 0.359778
O O1 0.941484 0.260146 0.575065
O O2 0.923045 0.232011 0.722973
O O3 0.000000 0.144906 0.670262
O O4 0.926480 0.000000 0.629975
O O5 0.699985 0.753736 0.075205
O O6 0.630855 0.843654 0.000000
O O7 0.705881 0.000000 0.000000
O O8 0.055862 0.500000 0.500000
O O9 0.421707 0.500000 0.695778
O O10 0.453681 0.731604 0.630438
O O11 0.363400 0.711492 0.666325
O O12 0.500000 0.500000 0.587081
O O13 0.500000 0.268437 0.500000
O O14 0.195522 0.812807 0.283171
O O15 0.222773 0.729167 0.147387
O O16 0.198486 0.000000 0.169493
O O17 0.770072 0.000000 0.383318
#
# Coordination Sequence:
#
# PCOD8289228 Si02
#       7
#    16   8   8  16   8  16  16
#     4  10  19  33  54  77 106 147 191 229 263 308
#     4  11  23  38  54  75 106 141 177 222 274 329
#     4  11  24  36  49  76 112 144 177 225 276 325
#     4   9  16  30  51  77 108 142 182 225 267 315
#     4   9  16  28  48  77 111 138 168 223 278 312
#     4   9  18  33  54  79 108 142 179 220 267 320
#     4  10  20  35  55  78 106 140 179 223 269 320
#
# _framework density 18.880580999999999
#
# number of rings (size 3 to 8) (size 9 to 14) (size 15 to 20)
#    0.000    2.273    0.909    2.455    0.000    5.091 
#    1.636    0.909    0.000    0.000    0.000    0.000 
#    0.000    2.909    0.000    0.000    0.000    0.000 
#
# Total GULP energy -545514.327671 kJ/mol
# GULP energy per Si atom -12398.052902 kJ/mol
# Density = 1.883761 g / cm^3
# Si number density = 18.880581 Si / 1000 Ang^3
#
#
#
# Elastic Constant Matrix: (Units=GPa)
#
#
# Indices 1 2 3 4 5 6 
#
# 1 109.0489 24.7953 23.9961 0.0000 0.0000 0.0000
# 2 24.7953 77.4769 20.5779 0.0000 0.0000 0.0000
# 3 23.9961 20.5779 67.2849 0.0000 0.0000 0.0000
# 4 0.0000 0.0000 0.0000 13.8093 0.0000 0.0000
# 5 0.0000 0.0000 0.0000 0.0000 21.8955 0.0000
# 6 0.0000 0.0000 0.0000 0.0000 0.0000 21.5739
#
#
#
# Elastic Compliance Matrix: (Units=1/GPa)
#
#
# Indices 1 2 3 4 5 6 
#
# 1 0.010394 -0.002549 -0.002927 0.000000 0.000000 0.000000
# 2 -0.002549 0.014673 -0.003579 0.000000 0.000000 0.000000
# 3 -0.002927 -0.003579 0.017001 0.000000 0.000000 0.000000
# 4 0.000000 0.000000 0.000000 0.072415 0.000000 0.000000
# 5 0.000000 0.000000 0.000000 0.000000 0.045671 0.000000
# 6 0.000000 0.000000 0.000000 0.000000 0.000000 0.046352
#
#
# Mechanical properties :
#
#
# Convention : Reuss Voigt Hill
#
# Bulk Modulus (GPa) = 41.73921 43.61660 42.67791
# Shear Modulus (GPa) = 21.49594 23.75184 22.62389
#
# Velocity S-wave (km/s) = 3.37786 3.55068 3.46535
# Velocity P-wave (km/s) = 6.11295 6.32149 6.21810
#
# Compressibility (1/GPa) = 0.02395829
#
# Stress axis : x y z
#
# Youngs Moduli (GPa) = 96.21016 68.15106 58.82155
#
# Poissons Ratio (x) = 0.17371 0.17219
# Poissons Ratio (y) = 0.24523 0.21049
# Poissons Ratio (z) = 0.28163 0.24388
#
# Static dielectric constant tensor:
#      x y z
#    x 3.615590 0.000000 0.000000 
#    y 0.000000 3.357800 0.000000 
#    z 0.000000 0.000000 3.417970 
# 
# 
# High freq. dielectric constant tensor:
#      x y z
#    x 1.745020 0.000000 0.000000 
#    y 0.000000 1.702400 0.000000 
#    z 0.000000 0.000000 1.728610 
# 
# From -- ./inp_files/42546.got.cif
#   From: 2010.06.25/outbox.cif.g09.slc.cpg/sg71_22_cif.got.tgz:42546.got - 2010.06.28 04:59:45.
