data_PCOD8289441
_publ_section_title
;
Structure prediction by ZEFSAII (Michael W. Deem and Ramdas Pophale) SiO2 
 PCOD8289441
Probable space group: I M M M
;
_chemical_formula_sum "Si O2"
_cell_formula_units_Z 88
_cell_length_a 18.252391
_cell_length_b 8.739826
_cell_length_c 28.713998
_cell_angle_alpha 90.000000
_cell_angle_beta 90.000000
_cell_angle_gamma 90.000000
_cell_volume 4580.535104
_symmetry_space_group_name_H-M "I M M M"
_symmetry_group_IT_number 71
_symmetry_cell_setting 'orthorhombic'
loop_
_space_group_symop_operation_xyz
x,y,z
-x,-y,z
x,-y,-z
-x,y,-z
-x,-y,-z
x,y,-z
-x,y,z
x,-y,z
1/2+x,1/2+y,1/2+z
1/2-x,1/2-y,1/2+z
1/2+x,1/2-y,1/2-z
1/2-x,1/2+y,1/2-z
1/2-x,1/2-y,1/2-z
1/2+x,1/2+y,1/2-z
1/2-x,1/2+y,1/2+z
1/2+x,1/2-y,1/2+z
loop_
_atom_site_type_symbol
_atom_site_label
_atom_site_fract_x
_atom_site_fract_y
_atom_site_fract_z
Si Si1 0.000000 0.817896 0.946731
Si Si2 0.708199 0.681629 0.118349
Si Si3 0.812814 0.320510 0.281205
Si Si4 0.639136 0.319680 0.388232
Si Si5 0.080956 0.181730 0.447973
Si Si6 0.084607 0.824029 0.213126
O O1 0.072754 0.756670 0.920394
O O2 0.000000 0.000000 0.944653
O O3 0.000000 0.758428 0.000000
O O4 0.709085 0.500000 0.120692
O O5 0.690333 0.747086 0.168545
O O6 0.785426 0.738474 0.097317
O O7 0.643939 0.747050 0.085386
O O8 0.801523 0.500000 0.286066
O O9 0.750000 0.250000 0.250000
O O10 0.889277 0.281305 0.255851
O O11 0.647261 0.500000 0.395169
O O12 0.625537 0.278352 0.334335
O O13 0.094959 0.244542 0.500000
O O14 0.000000 0.234690 0.430660
O O15 0.084408 0.000000 0.448287
O O16 0.000000 0.793462 0.204416
O O17 0.100281 0.000000 0.225984
#
# Coordination Sequence:
#
# PCOD8289441 Si02
#       6
#     8  16  16  16  16  16
#     4   9  18  34  57  85 115 151 199 245 286 343
#     4  11  22  35  57  89 118 148 188 238 291 347
#     4  12  24  38  56  81 114 151 191 237 286 338
#     4  10  19  34  56  80 109 151 193 235 284 337
#     4   8  16  34  59  84 112 148 189 231 276 334
#     4  10  20  36  58  81 108 149 197 236 277 337
#
# _framework density 19.211729999999999
#
# number of rings (size 3 to 8) (size 9 to 14) (size 15 to 20)
#    0.000    1.909    2.727    2.727    0.000    1.818 
#    0.000    2.273    0.000    3.818    0.000    5.091 
#    0.000    0.000    0.000    0.000    0.000    0.000 
#
# Total GULP energy -545594.385335 kJ/mol
# GULP energy per Si atom -12399.872394 kJ/mol
# Density = 1.916800 g / cm^3
# Si number density = 19.211730 Si / 1000 Ang^3
#
#
#
# Elastic Constant Matrix: (Units=GPa)
#
#
# Indices 1 2 3 4 5 6 
#
# 1 167.0866 40.9169 87.1817 0.0000 0.0000 0.0000
# 2 40.9169 49.5012 37.0556 0.0000 0.0000 0.0000
# 3 87.1817 37.0556 127.2559 0.0000 0.0000 0.0000
# 4 0.0000 0.0000 0.0000 17.7304 0.0000 0.0000
# 5 0.0000 0.0000 0.0000 0.0000 40.7449 0.0000
# 6 0.0000 0.0000 0.0000 0.0000 0.0000 30.6560
#
#
#
# Elastic Compliance Matrix: (Units=1/GPa)
#
#
# Indices 1 2 3 4 5 6 
#
# 1 0.009888 -0.003967 -0.005619 0.000000 0.000000 0.000000
# 2 -0.003967 0.027424 -0.005268 0.000000 0.000000 0.000000
# 3 -0.005619 -0.005268 0.013242 0.000000 0.000000 0.000000
# 4 0.000000 0.000000 0.000000 0.056400 0.000000 0.000000
# 5 0.000000 0.000000 0.000000 0.000000 0.024543 0.000000
# 6 0.000000 0.000000 0.000000 0.000000 0.000000 0.032620
#
#
# Mechanical properties :
#
#
# Convention : Reuss Voigt Hill
#
# Bulk Modulus (GPa) = 47.97097 74.90579 61.43838
# Shear Modulus (GPa) = 24.90359 29.73891 27.32125
#
# Velocity S-wave (km/s) = 3.60428 3.93868 3.77518
# Velocity P-wave (km/s) = 6.50730 7.73036 7.14505
#
# Compressibility (1/GPa) = 0.02084594
#
# Stress axis : x y z
#
# Youngs Moduli (GPa) = 101.12868 36.46441 75.51857
#
# Poissons Ratio (x) = 0.14466 0.42436
# Poissons Ratio (y) = 0.40119 0.39781
# Poissons Ratio (z) = 0.56827 0.19208
#
# Static dielectric constant tensor:
#      x y z
#    x 3.850570 0.000000 0.000000 
#    y 0.000000 3.403020 0.000000 
#    z 0.000000 0.000000 4.578090 
# 
# 
# High freq. dielectric constant tensor:
#      x y z
#    x 1.764120 0.000000 0.000000 
#    y 0.000000 1.716580 0.000000 
#    z 0.000000 0.000000 1.747250 
# 
# From -- ./inp_files/70372.got.cif
#   From: 2010.06.25/outbox.cif.g09.slc.cpg/sg71_36_cif.got.tgz:70372.got - 2010.06.28 04:59:45.
