data_PCOD8289469
_publ_section_title
;
Structure prediction by ZEFSAII (Michael W. Deem and Ramdas Pophale) SiO2 
 PCOD8289469
Probable space group: I M M M
;
_chemical_formula_sum "Si O2"
_cell_formula_units_Z 72
_cell_length_a 32.678929
_cell_length_b 13.234472
_cell_length_c 7.877851
_cell_angle_alpha 90.000000
_cell_angle_beta 90.000000
_cell_angle_gamma 90.000000
_cell_volume 3407.078945
_symmetry_space_group_name_H-M "I M M M"
_symmetry_group_IT_number 71
_symmetry_cell_setting 'orthorhombic'
loop_
_space_group_symop_operation_xyz
x,y,z
-x,-y,z
x,-y,-z
-x,y,-z
-x,-y,-z
x,y,-z
-x,y,z
x,-y,z
1/2+x,1/2+y,1/2+z
1/2-x,1/2-y,1/2+z
1/2+x,1/2-y,1/2-z
1/2-x,1/2+y,1/2-z
1/2-x,1/2-y,1/2-z
1/2+x,1/2+y,1/2-z
1/2-x,1/2+y,1/2+z
1/2+x,1/2-y,1/2+z
loop_
_atom_site_type_symbol
_atom_site_label
_atom_site_fract_x
_atom_site_fract_y
_atom_site_fract_z
Si Si1 0.832391 0.617985 0.183592
Si Si2 0.782212 0.378969 0.500000
Si Si3 0.915341 0.696602 0.305838
Si Si4 0.690036 0.620453 0.500000
Si Si5 0.000000 0.615106 0.298178
Si Si6 0.134015 0.885258 0.691855
O O1 0.823510 0.500000 0.175776
O O2 0.805562 0.665897 0.335123
O O3 0.880555 0.634202 0.209833
O O4 0.819603 0.666483 0.000000
O O5 0.783909 0.500000 0.500000
O O6 0.736080 0.337338 0.500000
O O7 0.914301 0.660140 0.500000
O O8 0.906563 0.816788 0.290740
O O9 0.959655 0.671530 0.225748
O O10 0.691290 0.500000 0.500000
O O11 0.667145 0.656927 0.672494
O O12 0.000000 0.500000 0.233989
O O13 0.000000 0.621353 0.500000
O O14 0.152172 0.877076 0.500000
O O15 0.121294 0.000000 0.734240
#
# Coordination Sequence:
#
# PCOD8289469 Si02
#       6
#    16   8  16   8   8  16
#     4  10  20  33  53  79 109 147 184 225 278 333
#     4   9  18  34  54  79 110 143 186 233 278 331
#     4  10  19  34  57  80 113 148 186 227 278 330
#     4   9  18  34  58  81 105 145 189 233 281 327
#     4   9  18  32  56  90 117 147 187 224 268 331
#     4   9  19  35  56  81 108 143 189 233 277 327
#
# _framework density 21.132472
#
# number of rings (size 3 to 8) (size 9 to 14) (size 15 to 20)
#    0.000    2.556    1.111    0.667    1.556    1.778 
#    0.000    6.667    0.000    5.333    0.000    2.333 
#    0.000    0.000    0.000    0.000    0.000    0.000 
#
# Total GULP energy -446290.159864 kJ/mol
# GULP energy per Si atom -12396.948885 kJ/mol
# Density = 2.108437 g / cm^3
# Si number density = 21.132472 Si / 1000 Ang^3
#
#
#
# Elastic Constant Matrix: (Units=GPa)
#
#
# Indices 1 2 3 4 5 6 
#
# 1 182.3097 44.2997 79.4721 0.0000 0.0000 0.0000
# 2 44.2997 46.1321 44.5395 0.0000 0.0000 0.0000
# 3 79.4721 44.5395 143.3664 -0.0002 -0.0002 0.0000
# 4 0.0000 0.0000 -0.0002 26.1573 0.0000 0.0000
# 5 0.0000 0.0000 -0.0002 0.0000 11.0836 0.0000
# 6 0.0000 0.0000 0.0000 0.0000 0.0000 29.2082
#
#
#
# Elastic Compliance Matrix: (Units=1/GPa)
#
#
# Indices 1 2 3 4 5 6 
#
# 1 0.007915 -0.004806 -0.002894 0.000000 0.000000 0.000000
# 2 -0.004806 0.033883 -0.007862 0.000000 0.000000 0.000000
# 3 -0.002894 -0.007862 0.011022 0.000000 0.000000 0.000000
# 4 0.000000 0.000000 0.000000 0.038230 0.000000 0.000000
# 5 0.000000 0.000000 0.000000 0.000000 0.090223 0.000000
# 6 0.000000 0.000000 0.000000 0.000000 0.000000 0.034237
#
#
# Mechanical properties :
#
#
# Convention : Reuss Voigt Hill
#
# Bulk Modulus (GPa) = 46.09447 78.71454 62.40450
# Shear Modulus (GPa) = 19.69542 26.85630 23.27586
#
# Velocity S-wave (km/s) = 3.05618 3.56877 3.32237
# Velocity P-wave (km/s) = 5.85774 7.36957 6.65671
#
# Compressibility (1/GPa) = 0.02169458
#
# Stress axis : x y z
#
# Youngs Moduli (GPa) = 126.34837 29.51351 90.72706
#
# Poissons Ratio (x) = 0.14184 0.26259
# Poissons Ratio (y) = 0.60722 0.71332
# Poissons Ratio (z) = 0.36568 0.23204
#
# Static dielectric constant tensor:
#      x y z
#    x 3.802520 0.000000 0.000000 
#    y 0.000000 3.761090 0.000000 
#    z 0.000000 0.000000 4.109400 
# 
# 
# High freq. dielectric constant tensor:
#      x y z
#    x 1.802500 0.000000 0.000000 
#    y 0.000000 1.831860 0.000000 
#    z 0.000000 0.000000 1.832450 
# 
# From -- ./inp_files/14373.got.cif
#   From: 2010.06.25/outbox.cif.g09.slc.cpg/sg71_8_cif.got.tgz:14373.got - 2010.06.28 04:59:45.
