data_PCOD8289535
_publ_section_title
;
Structure prediction by ZEFSAII (Michael W. Deem and Ramdas Pophale) SiO2 
 PCOD8289535
Probable space group: I M M M
;
_chemical_formula_sum "Si O2"
_cell_formula_units_Z 96
_cell_length_a 13.339677
_cell_length_b 24.048896
_cell_length_c 16.992702
_cell_angle_alpha 90.000000
_cell_angle_beta 90.000000
_cell_angle_gamma 90.000000
_cell_volume 5451.335351
_symmetry_space_group_name_H-M "I M M M"
_symmetry_group_IT_number 71
_symmetry_cell_setting 'orthorhombic'
loop_
_space_group_symop_operation_xyz
x,y,z
-x,-y,z
x,-y,-z
-x,y,-z
-x,-y,-z
x,y,-z
-x,y,z
x,-y,z
1/2+x,1/2+y,1/2+z
1/2-x,1/2-y,1/2+z
1/2+x,1/2-y,1/2-z
1/2-x,1/2+y,1/2-z
1/2-x,1/2-y,1/2-z
1/2+x,1/2+y,1/2-z
1/2-x,1/2+y,1/2+z
1/2+x,1/2-y,1/2+z
loop_
_atom_site_type_symbol
_atom_site_label
_atom_site_fract_x
_atom_site_fract_y
_atom_site_fract_z
Si Si1 0.385901 0.246048 0.834358
Si Si2 0.694827 0.630943 0.848985
Si Si3 0.802817 0.797711 0.911402
Si Si4 0.117945 0.897388 0.187541
Si Si5 0.881288 0.065504 0.500000
Si Si6 0.386297 0.804322 0.663980
Si Si7 0.880556 0.000000 0.912433
O O1 0.500000 0.232759 0.857851
O O2 0.366482 0.311413 0.845700
O O3 0.314429 0.210617 0.891413
O O4 0.363055 0.227733 0.745251
O O5 0.668021 0.595022 0.772443
O O6 0.666607 0.594755 0.924319
O O7 0.814133 0.642680 0.847183
O O8 0.854530 0.839308 0.851332
O O9 0.861858 0.739433 0.904952
O O10 0.812853 0.820278 0.000000
O O11 0.000000 0.901504 0.198797
O O12 0.160122 0.946017 0.132333
O O13 0.000000 0.074990 0.500000
O O14 0.854957 0.000000 0.500000
O O15 0.500000 0.825752 0.658640
O O16 0.000000 0.000000 0.915610
O O17 0.835188 0.000000 0.000000
#
# Coordination Sequence:
#
# PCOD8289535 Si02
#       7
#    16  16  16  16   8  16   8
#     4  10  19  35  55  78 112 147 183 223 270 334
#     4  11  21  38  56  81 108 145 185 225 280 329
#     4  11  21  32  49  81 115 144 180 217 264 328
#     4  11  20  34  55  76 105 144 178 217 270 326
#     4  11  26  42  59  85 113 145 194 249 285 324
#     4  10  20  36  56  80 111 145 183 224 271 334
#     4   9  20  34  50  77 106 136 175 215 264 322
#
# _framework density 17.610365000000002
#
# number of rings (size 3 to 8) (size 9 to 14) (size 15 to 20)
#    0.000    1.500    3.333    3.500    5.833    2.333 
#    0.000    0.000    0.000    1.000    0.000    1.750 
#    0.000    4.000    0.000    0.000    0.000    0.000 
#
# Total GULP energy -595275.377681 kJ/mol
# GULP energy per Si atom -12401.570368 kJ/mol
# Density = 1.757028 g / cm^3
# Si number density = 17.610365 Si / 1000 Ang^3
#
#
#
# Elastic Constant Matrix: (Units=GPa)
#
#
# Indices 1 2 3 4 5 6 
#
# 1 115.6672 41.2306 42.3378 0.0000 0.0000 0.0000
# 2 41.2306 86.2301 49.7337 0.0000 0.0000 0.0000
# 3 42.3378 49.7337 141.0425 0.0001 0.0000 -0.0001
# 4 0.0000 0.0000 0.0001 27.4385 0.0000 0.0000
# 5 0.0000 0.0000 0.0000 0.0000 20.7764 0.0000
# 6 0.0000 0.0000 -0.0001 0.0000 0.0000 21.9601
#
#
#
# Elastic Compliance Matrix: (Units=1/GPa)
#
#
# Indices 1 2 3 4 5 6 
#
# 1 0.010766 -0.004122 -0.001778 0.000000 0.000000 0.000000
# 2 -0.004122 0.016136 -0.004452 0.000000 0.000000 0.000000
# 3 -0.001778 -0.004452 0.009194 0.000000 0.000000 0.000000
# 4 0.000000 0.000000 0.000000 0.036445 0.000000 0.000000
# 5 0.000000 0.000000 0.000000 0.000000 0.048132 0.000000
# 6 0.000000 0.000000 0.000000 0.000000 0.000000 0.045537
#
#
# Mechanical properties :
#
#
# Convention : Reuss Voigt Hill
#
# Bulk Modulus (GPa) = 64.97655 67.72711 66.35183
# Shear Modulus (GPa) = 26.03570 28.01086 27.02328
#
# Velocity S-wave (km/s) = 3.84921 3.99255 3.92153
# Velocity P-wave (km/s) = 7.53207 7.73279 7.63309
#
# Compressibility (1/GPa) = 0.01539017
#
# Stress axis : x y z
#
# Youngs Moduli (GPa) = 92.88781 61.97424 108.76910
#
# Poissons Ratio (x) = 0.25546 0.19340
# Poissons Ratio (y) = 0.38289 0.48428
# Poissons Ratio (z) = 0.16517 0.27593
#
# Static dielectric constant tensor:
#      x y z
#    x 3.288760 0.000000 0.000000 
#    y 0.000000 3.159850 0.000000 
#    z 0.000000 0.000000 3.448240 
# 
# 
# High freq. dielectric constant tensor:
#      x y z
#    x 1.672690 0.000000 0.000000 
#    y 0.000000 1.657770 0.000000 
#    z 0.000000 0.000000 1.692060 
# 
# From -- ./inp_files/34778.got.cif
#   From: 2010.06.25/outbox.cif.g09.slc.cpg/sg71_18_cif.got.tgz:34778.got - 2010.06.28 04:59:45.
