data_PCOD8289729
_publ_section_title
;
Structure prediction by ZEFSAII (Michael W. Deem and Ramdas Pophale) SiO2 
 PCOD8289729
Probable space group: I M M M
;
_chemical_formula_sum "Si O2"
_cell_formula_units_Z 96
_cell_length_a 13.799922
_cell_length_b 15.561891
_cell_length_c 24.236075
_cell_angle_alpha 90.000000
_cell_angle_beta 90.000000
_cell_angle_gamma 90.000000
_cell_volume 5204.766954
_symmetry_space_group_name_H-M "I M M M"
_symmetry_group_IT_number 71
_symmetry_cell_setting 'orthorhombic'
loop_
_space_group_symop_operation_xyz
x,y,z
-x,-y,z
x,-y,-z
-x,y,-z
-x,-y,-z
x,y,-z
-x,y,z
x,-y,z
1/2+x,1/2+y,1/2+z
1/2-x,1/2-y,1/2+z
1/2+x,1/2-y,1/2-z
1/2-x,1/2+y,1/2-z
1/2-x,1/2-y,1/2-z
1/2+x,1/2+y,1/2-z
1/2-x,1/2+y,1/2+z
1/2+x,1/2-y,1/2+z
loop_
_atom_site_type_symbol
_atom_site_label
_atom_site_fract_x
_atom_site_fract_y
_atom_site_fract_z
Si Si1 0.605261 0.500000 0.254585
Si Si2 0.607557 0.500000 0.385359
Si Si3 0.296494 0.676609 0.380963
Si Si4 0.113750 0.500000 0.252537
Si Si5 0.114532 0.818462 0.236961
Si Si6 0.388507 0.833892 0.436183
Si Si7 0.115483 0.500000 0.129218
Si Si8 0.612834 0.833586 0.819925
O O1 0.500000 0.500000 0.226135
O O2 0.597045 0.500000 0.320302
O O3 0.657575 0.590128 0.239064
O O4 0.500000 0.500000 0.412362
O O5 0.664456 0.414222 0.404210
O O6 0.339329 0.703920 0.321640
O O7 0.324128 0.750151 0.424154
O O8 0.179159 0.672076 0.374602
O O9 0.159164 0.500000 0.191214
O O10 0.147065 0.417382 0.286660
O O11 0.000000 0.500000 0.244864
O O12 0.138220 0.745681 0.280563
O O13 0.000000 0.828569 0.227037
O O14 0.378927 0.858120 0.500000
O O15 0.500000 0.814004 0.420248
O O16 0.347312 0.914599 0.401695
O O17 0.000000 0.500000 0.128487
O O18 0.500000 0.836278 0.837195
#
# Coordination Sequence:
#
# PCOD8289729 Si02
#       8
#     8   8  16   8  16  16   8  16
#     4   7  12  23  39  58  84 120 157 190 228 279
#     4   9  17  29  47  69  90 118 156 194 237 294
#     4  11  19  31  49  69  97 134 169 206 255 306
#     4   9  17  30  47  69  98 134 173 206 242 295
#     4   9  16  27  43  65  93 125 162 202 247 303
#     4  10  20  34  53  77 103 132 169 213 261 312
#     4   9  17  31  52  76 106 139 165 199 251 311
#     4  10  20  31  44  67 100 135 172 211 248 296
#
# _framework density 18.44463
#
# number of rings (size 3 to 8) (size 9 to 14) (size 15 to 20)
#    0.000    2.500    0.000    4.750    0.000    3.667 
#    0.000    1.250    0.000    2.000    0.000    0.000 
#    0.000    4.667    0.000    0.000    0.000    0.000 
#
# Total GULP energy -594931.846722 kJ/mol
# GULP energy per Si atom -12394.413473 kJ/mol
# Density = 1.840265 g / cm^3
# Si number density = 18.444630 Si / 1000 Ang^3
#
#
#
# Elastic Constant Matrix: (Units=GPa)
#
#
# Indices 1 2 3 4 5 6 
#
# 1 63.6586 15.8303 18.0728 0.0000 0.0000 0.0000
# 2 15.8303 138.3739 22.3483 0.0000 0.0000 0.0000
# 3 18.0728 22.3483 37.1331 0.0000 0.0000 0.0000
# 4 0.0000 0.0000 0.0000 28.6949 0.0000 0.0000
# 5 0.0000 0.0000 0.0000 0.0000 18.6873 0.0000
# 6 0.0000 0.0000 0.0000 0.0000 0.0000 -4.6030
#
#
#
# Elastic Compliance Matrix: (Units=1/GPa)
#
#
# Indices 1 2 3 4 5 6 
#
# 1 0.018293 -0.000725 -0.008467 0.000000 0.000000 0.000000
# 2 -0.000725 0.008034 -0.004482 0.000000 0.000000 0.000000
# 3 -0.008467 -0.004482 0.033748 0.000000 0.000000 0.000000
# 4 0.000000 0.000000 0.000000 0.034849 0.000000 0.000000
# 5 0.000000 0.000000 0.000000 0.000000 0.053512 0.000000
# 6 0.000000 0.000000 0.000000 0.000000 0.000000 -0.217252
#
#
# Mechanical properties :
#
#
# Convention : Reuss Voigt Hill
#
# Bulk Modulus (GPa) = 30.55588 39.07427 34.81507
# Shear Modulus (GPa) = -163.62138 20.75013 -71.43562
#
# Velocity S-wave (km/s) = -9.42879 3.35773 -6.23008
# Velocity P-wave (km/s) = 10.09623 6.02189 5.73022
#
# Compressibility (1/GPa) = 0.03272693
#
# Stress axis : x y z
#
# Youngs Moduli (GPa) = 54.66616 124.47651 29.63114
#
# Poissons Ratio (x) = 0.09029 0.25088
# Poissons Ratio (y) = 0.03965 0.13281
# Poissons Ratio (z) = 0.46284 0.55790
#
# Static dielectric constant tensor:
#      x y z
#    x 3.360460 0.000000 0.000000 
#    y 0.000000 4.153700 0.000000 
#    z 0.000000 0.000000 2.881910 
# 
# 
# High freq. dielectric constant tensor:
#      x y z
#    x 1.701980 0.000000 0.000000 
#    y 0.000000 1.742230 0.000000 
#    z 0.000000 0.000000 1.654350 
# 
# From -- ./inp_files/59899.got.cif
#   From: 2010.06.25/outbox.cif.g09.slc.cpg/sg71_30_cif.got.tgz:59899.got - 2010.06.28 04:59:45.
