data_PCOD8289763
_publ_section_title
;
Structure prediction by ZEFSAII (Michael W. Deem and Ramdas Pophale) SiO2 
 PCOD8289763
Probable space group: I M M M
;
_chemical_formula_sum "Si O2"
_cell_formula_units_Z 72
_cell_length_a 28.576553
_cell_length_b 9.627248
_cell_length_c 15.196758
_cell_angle_alpha 90.000000
_cell_angle_beta 90.000000
_cell_angle_gamma 90.000000
_cell_volume 4180.834235
_symmetry_space_group_name_H-M "I M M M"
_symmetry_group_IT_number 71
_symmetry_cell_setting 'orthorhombic'
loop_
_space_group_symop_operation_xyz
x,y,z
-x,-y,z
x,-y,-z
-x,y,-z
-x,-y,-z
x,y,-z
-x,y,z
x,-y,z
1/2+x,1/2+y,1/2+z
1/2-x,1/2-y,1/2+z
1/2+x,1/2-y,1/2-z
1/2-x,1/2+y,1/2-z
1/2-x,1/2-y,1/2-z
1/2+x,1/2+y,1/2-z
1/2-x,1/2+y,1/2+z
1/2+x,1/2-y,1/2+z
loop_
_atom_site_type_symbol
_atom_site_label
_atom_site_fract_x
_atom_site_fract_y
_atom_site_fract_z
Si Si1 0.946278 0.837755 0.000000
Si Si2 0.554628 0.336044 0.309362
Si Si3 0.703109 0.839460 0.399964
Si Si4 0.792455 0.340049 0.399458
Si Si5 0.633581 0.838931 0.245675
O O1 0.927131 0.782056 0.906368
O O2 0.000000 0.799648 0.000000
O O3 0.938512 0.000000 0.000000
O O4 0.500000 0.300962 0.294346
O O5 0.562882 0.500000 0.298110
O O6 0.586170 0.251740 0.240226
O O7 0.687248 0.804624 0.500000
O O8 0.748015 0.750703 0.372282
O O9 0.661379 0.800696 0.334552
O O10 0.717236 0.000000 0.390084
O O11 0.807271 0.312171 0.500000
O O12 0.778652 0.500000 0.383501
O O13 0.835954 0.297280 0.338947
O O14 0.619572 0.000000 0.243638
#
# Coordination Sequence:
#
# PCOD8289763 Si02
#       5
#     8  16  16  16  16
#     4   7  12  26  45  63  87 119 151 183 219 261
#     4   9  18  32  49  69  94 124 158 194 229 271
#     4   9  18  31  46  68  99 127 151 186 233 283
#     4   9  18  33  50  68  92 123 161 200 233 270
#     4  10  20  31  47  71  97 125 156 193 236 280
#
# _framework density 17.221444000000002
#
# number of rings (size 3 to 8) (size 9 to 14) (size 15 to 20)
#    0.000    3.000    0.000    2.000    1.556    2.222 
#    0.000    0.000    0.000    2.667    0.000    4.667 
#    0.000    0.000    0.000    0.000    0.000    0.000 
#
# Total GULP energy -446141.189090 kJ/mol
# GULP energy per Si atom -12392.810808 kJ/mol
# Density = 1.718225 g / cm^3
# Si number density = 17.221444 Si / 1000 Ang^3
#
#
#
# Elastic Constant Matrix: (Units=GPa)
#
#
# Indices 1 2 3 4 5 6 
#
# 1 100.9705 55.2640 45.5396 0.0000 0.0000 0.0000
# 2 55.2640 54.8785 31.4675 0.0000 0.0000 0.0000
# 3 45.5396 31.4675 62.7737 0.0000 0.0000 0.0000
# 4 0.0000 0.0000 0.0000 19.3357 0.0000 0.0000
# 5 0.0000 0.0000 0.0000 0.0000 26.1483 0.0000
# 6 0.0000 0.0000 0.0000 0.0000 0.0000 34.1512
#
#
#
# Elastic Compliance Matrix: (Units=1/GPa)
#
#
# Indices 1 2 3 4 5 6 
#
# 1 0.024373 -0.020217 -0.007547 0.000000 0.000000 0.000000
# 2 -0.020217 0.042341 -0.006559 0.000000 0.000000 0.000000
# 3 -0.007547 -0.006559 0.024693 0.000000 0.000000 0.000000
# 4 0.000000 0.000000 0.000000 0.051718 0.000000 0.000000
# 5 0.000000 0.000000 0.000000 0.000000 0.038243 0.000000
# 6 0.000000 0.000000 0.000000 0.000000 0.000000 0.029282
#
#
# Mechanical properties :
#
#
# Convention : Reuss Voigt Hill
#
# Bulk Modulus (GPa) = 43.93222 53.68498 48.80860
# Shear Modulus (GPa) = 17.42869 21.68382 19.55626
#
# Velocity S-wave (km/s) = 3.18470 3.55225 3.37349
# Velocity P-wave (km/s) = 6.25209 6.93294 6.60130
#
# Compressibility (1/GPa) = 0.02276234
#
# Stress axis : x y z
#
# Youngs Moduli (GPa) = 41.02914 23.61750 40.49672
#
# Poissons Ratio (x) = 0.47746 0.30564
# Poissons Ratio (y) = 0.82947 0.26562
# Poissons Ratio (z) = 0.30966 0.15491
#
# Static dielectric constant tensor:
#      x y z
#    x 2.978760 0.000000 0.000000 
#    y 0.000000 3.056830 0.000000 
#    z 0.000000 0.000000 3.333360 
# 
# 
# High freq. dielectric constant tensor:
#      x y z
#    x 1.649970 0.000000 0.000000 
#    y 0.000000 1.654060 0.000000 
#    z 0.000000 0.000000 1.658790 
# 
# From -- ./inp_files/6045.got.cif
#   From: 2010.06.25/outbox.cif.g09.slc.cpg/sg71_4_cif.got.tgz:6045.got - 2010.06.28 04:59:45.
