data_PCOD8289996
_publ_section_title
;
Structure prediction by ZEFSAII (Michael W. Deem and Ramdas Pophale) SiO2 
 PCOD8289996
Probable space group: I M M M
;
_chemical_formula_sum "Si O2"
_cell_formula_units_Z 104
_cell_length_a 22.459059
_cell_length_b 7.732557
_cell_length_c 28.397694
_cell_angle_alpha 90.000000
_cell_angle_beta 90.000000
_cell_angle_gamma 90.000000
_cell_volume 4931.712617
_symmetry_space_group_name_H-M "I M M M"
_symmetry_group_IT_number 71
_symmetry_cell_setting 'orthorhombic'
loop_
_space_group_symop_operation_xyz
x,y,z
-x,-y,z
x,-y,-z
-x,y,-z
-x,-y,-z
x,y,-z
-x,y,z
x,-y,z
1/2+x,1/2+y,1/2+z
1/2-x,1/2-y,1/2+z
1/2+x,1/2-y,1/2-z
1/2-x,1/2+y,1/2-z
1/2-x,1/2-y,1/2-z
1/2+x,1/2+y,1/2-z
1/2-x,1/2+y,1/2+z
1/2+x,1/2-y,1/2+z
loop_
_atom_site_type_symbol
_atom_site_label
_atom_site_fract_x
_atom_site_fract_y
_atom_site_fract_z
Si Si1 0.619857 0.707793 0.378903
Si Si2 0.744657 0.204413 0.135129
Si Si3 0.570418 0.000000 0.444598
Si Si4 0.855139 0.307048 0.299387
Si Si5 0.664258 0.794744 0.051951
Si Si6 0.935447 0.802313 0.216740
Si Si7 0.066815 0.198522 0.382292
O O1 0.614171 0.500000 0.390014
O O2 0.687168 0.759451 0.365013
O O3 0.582957 0.774584 0.333784
O O4 0.598219 0.823113 0.422902
O O5 0.707232 0.276081 0.180843
O O6 0.715029 0.276589 0.087194
O O7 0.736942 0.000000 0.136660
O O8 0.500000 0.000000 0.435724
O O9 0.585408 0.000000 0.500000
O O10 0.844005 0.500000 0.281459
O O11 0.883277 0.209336 0.255132
O O12 0.901704 0.311363 0.342239
O O13 0.600204 0.723625 0.068190
O O14 0.662962 0.000000 0.051601
O O15 0.678076 0.721860 0.000000
O O16 0.000000 0.720933 0.232511
O O17 0.945588 0.000000 0.206547
O O18 0.000000 0.266118 0.388808
O O19 0.067980 0.000000 0.365857
#
# Coordination Sequence:
#
# PCOD8289996 Si02
#       7
#    16  16   8  16  16  16  16
#     4  10  22  43  68  93 127 169 202 249 313 367
#     4   8  17  36  58  82 116 153 197 246 298 365
#     4  11  26  46  68 100 134 160 205 263 306 370
#     4  10  20  34  55  83 114 154 199 246 301 355
#     4   9  18  33  53  76 103 139 185 243 303 356
#     4  10  21  36  56  86 121 159 205 249 297 365
#     4  10  20  33  48  69 104 147 191 242 294 350
#
# _framework density 21.088010000000001
#
# number of rings (size 3 to 8) (size 9 to 14) (size 15 to 20)
#    0.000    2.385    0.000    2.769    1.077    6.462 
#    6.923    3.846    0.000    0.000    0.000    0.000 
#    0.000    0.000    0.000    0.000    0.000    0.000 
#
# Total GULP energy -644351.295780 kJ/mol
# GULP energy per Si atom -12391.371073 kJ/mol
# Density = 2.104001 g / cm^3
# Si number density = 21.088010 Si / 1000 Ang^3
#
#
#
# Elastic Constant Matrix: (Units=GPa)
#
#
# Indices 1 2 3 4 5 6 
#
# 1 147.5838 30.3667 60.2015 0.0000 0.0000 0.0000
# 2 30.3667 48.4075 28.6324 0.0000 0.0000 0.0000
# 3 60.2015 28.6324 136.8596 0.0000 0.0000 0.0000
# 4 0.0000 0.0000 0.0000 25.5813 0.0000 0.0000
# 5 0.0000 0.0000 0.0000 0.0000 28.1110 0.0000
# 6 0.0000 0.0000 0.0000 0.0000 0.0000 22.4402
#
#
#
# Elastic Compliance Matrix: (Units=1/GPa)
#
#
# Indices 1 2 3 4 5 6 
#
# 1 0.008798 -0.003686 -0.003099 0.000000 0.000000 0.000000
# 2 -0.003686 0.025120 -0.003634 0.000000 0.000000 0.000000
# 3 -0.003099 -0.003634 0.009430 0.000000 0.000000 0.000000
# 4 0.000000 0.000000 0.000000 0.039091 0.000000 0.000000
# 5 0.000000 0.000000 0.000000 0.000000 0.035573 0.000000
# 6 0.000000 0.000000 0.000000 0.000000 0.000000 0.044563
#
#
# Mechanical properties :
#
#
# Convention : Reuss Voigt Hill
#
# Bulk Modulus (GPa) = 44.42447 63.47245 53.94846
# Shear Modulus (GPa) = 26.18936 29.46985 27.82960
#
# Velocity S-wave (km/s) = 3.52789 3.74233 3.63669
# Velocity P-wave (km/s) = 6.14058 6.98839 6.57815
#
# Compressibility (1/GPa) = 0.02251012
#
# Stress axis : x y z
#
# Youngs Moduli (GPa) = 113.65643 39.80927 106.04261
#
# Poissons Ratio (x) = 0.14675 0.32863
# Poissons Ratio (y) = 0.41898 0.38533
# Poissons Ratio (z) = 0.35222 0.14466
#
# Static dielectric constant tensor:
#      x y z
#    x 4.242950 0.000000 0.000000 
#    y 0.000000 3.557980 0.000000 
#    z 0.000000 0.000000 3.846530 
# 
# 
# High freq. dielectric constant tensor:
#      x y z
#    x 1.832490 0.000000 0.000000 
#    y 0.000000 1.809270 0.000000 
#    z 0.000000 0.000000 1.818810 
# 
# From -- ./inp_files/66832.got.cif
#   From: 2010.06.25/outbox.cif.g09.slc.cpg/sg71_34_cif.got.tgz:66832.got - 2010.06.28 04:59:45.
