data_PCOD8289150
_publ_section_title
;
Structure prediction by ZEFSAII (Michael W. Deem and Ramdas Pophale) SiO2 
 PCOD8289150
Probable space group: I M M M
;
_chemical_formula_sum "Si O2"
_cell_formula_units_Z 88
_cell_length_a 9.379633
_cell_length_b 28.982521
_cell_length_c 18.215297
_cell_angle_alpha 90.000000
_cell_angle_beta 90.000000
_cell_angle_gamma 90.000000
_cell_volume 4951.744888
_symmetry_space_group_name_H-M "I M M M"
_symmetry_group_IT_number 71
_symmetry_cell_setting 'orthorhombic'
loop_
_space_group_symop_operation_xyz
x,y,z
-x,-y,z
x,-y,-z
-x,y,-z
-x,-y,-z
x,y,-z
-x,y,z
x,-y,z
1/2+x,1/2+y,1/2+z
1/2-x,1/2-y,1/2+z
1/2+x,1/2-y,1/2-z
1/2-x,1/2+y,1/2-z
1/2-x,1/2-y,1/2-z
1/2+x,1/2+y,1/2-z
1/2-x,1/2+y,1/2+z
1/2+x,1/2-y,1/2+z
loop_
_atom_site_type_symbol
_atom_site_label
_atom_site_fract_x
_atom_site_fract_y
_atom_site_fract_z
Si Si1 0.837848 0.303886 0.310003
Si Si2 0.167867 0.053655 0.714946
Si Si3 0.830995 0.884002 0.419139
Si Si4 0.169444 0.448180 0.500000
Si Si5 0.665849 0.703725 0.164389
Si Si6 0.665443 0.095972 0.148694
O O1 0.738859 0.309231 0.240202
O O2 0.800624 0.257267 0.356403
O O3 0.815221 0.348912 0.359606
O O4 0.000000 0.300632 0.281558
O O5 0.223200 0.079096 0.641009
O O6 0.247801 0.075122 0.784035
O O7 0.000000 0.061416 0.726280
O O8 0.206330 0.000000 0.707249
O O9 0.766987 0.895396 0.500000
O O10 0.780558 0.831958 0.397698
O O11 0.000000 0.886474 0.423374
O O12 0.226746 0.500000 0.500000
O O13 0.228767 0.424066 0.426795
O O14 0.000000 0.445547 0.500000
O O15 0.500000 0.695482 0.177574
O O16 0.500000 0.082527 0.159987
#
# Coordination Sequence:
#
# PCOD8289150 Si02
#       6
#    16  16  16   8  16  16
#     4   9  17  28  47  74  97 121 156 196 237 281
#     4  10  20  33  51  74  97 124 162 204 243 286
#     4   9  17  30  48  71  99 130 163 199 240 285
#     4   9  18  32  49  69  95 129 163 195 238 290
#     4   9  16  29  48  70  96 126 157 192 235 283
#     4  10  19  33  52  73  98 127 161 199 240 290
#
# _framework density 17.771512999999999
#
# number of rings (size 3 to 8) (size 9 to 14) (size 15 to 20)
#    0.000    2.636    1.818    0.545    0.000    1.455 
#    1.636    2.273    0.000    3.818    0.000    1.273 
#    0.000    0.000    0.000    0.000    0.000    0.000 
#
# Total GULP energy -545325.514239 kJ/mol
# GULP energy per Si atom -12393.761687 kJ/mol
# Density = 1.773106 g / cm^3
# Si number density = 17.771513 Si / 1000 Ang^3
#
#
#
# Elastic Constant Matrix: (Units=GPa)
#
#
# Indices 1 2 3 4 5 6 
#
# 1 23.0239 25.9702 23.5660 0.0000 0.0000 0.0000
# 2 25.9702 152.3966 84.4479 -0.0001 0.0000 0.0000
# 3 23.5660 84.4479 143.8751 -0.0005 0.0000 0.0000
# 4 0.0000 -0.0001 -0.0005 27.7591 0.0000 0.0000
# 5 0.0000 0.0000 0.0000 0.0000 18.5224 0.0000
# 6 0.0000 0.0000 0.0000 0.0000 0.0000 19.2297
#
#
#
# Elastic Compliance Matrix: (Units=1/GPa)
#
#
# Indices 1 2 3 4 5 6 
#
# 1 0.056398 -0.006657 -0.005330 0.000000 0.000000 0.000000
# 2 -0.006657 0.010511 -0.005079 0.000000 0.000000 0.000000
# 3 -0.005330 -0.005079 0.010805 0.000000 0.000000 0.000000
# 4 0.000000 0.000000 0.000000 0.036024 0.000000 0.000000
# 5 0.000000 0.000000 0.000000 0.000000 0.053989 0.000000
# 6 0.000000 0.000000 0.000000 0.000000 0.000000 0.052003
#
#
# Mechanical properties :
#
#
# Convention : Reuss Voigt Hill
#
# Bulk Modulus (GPa) = 22.94598 65.25153 44.09875
# Shear Modulus (GPa) = 18.62972 25.45635 22.04304
#
# Velocity S-wave (km/s) = 3.24125 3.78884 3.52569
# Velocity P-wave (km/s) = 5.19107 7.47911 6.43756
#
# Compressibility (1/GPa) = 0.04358062
#
# Stress axis : x y z
#
# Youngs Moduli (GPa) = 17.73114 95.14159 92.55353
#
# Poissons Ratio (x) = 0.63338 0.49333
# Poissons Ratio (y) = 0.11804 0.47006
# Poissons Ratio (z) = 0.09451 0.48321
#
# Static dielectric constant tensor:
#      x y z
#    x 3.029380 0.000000 0.000000 
#    y 0.000000 3.721710 0.000000 
#    z 0.000000 0.000000 3.393460 
# 
# 
# High freq. dielectric constant tensor:
#      x y z
#    x 1.651980 0.000000 0.000000 
#    y 0.000000 1.710250 0.000000 
#    z 0.000000 0.000000 1.672750 
# 
# From -- ./inp_files/8736.got.cif
#   From: 2010.06.25/outbox.cif.g09.slc.cpg/sg71_5_cif.got.tgz:8736.got - 2010.06.28 04:59:45.
