data_PCOD8289589
_publ_section_title
;
Structure prediction by ZEFSAII (Michael W. Deem and Ramdas Pophale) SiO2 
 PCOD8289589
Probable space group: I M M M
;
_chemical_formula_sum "Si O2"
_cell_formula_units_Z 104
_cell_length_a 26.628881
_cell_length_b 21.441901
_cell_length_c 9.421931
_cell_angle_alpha 90.000000
_cell_angle_beta 90.000000
_cell_angle_gamma 90.000000
_cell_volume 5379.676030
_symmetry_space_group_name_H-M "I M M M"
_symmetry_group_IT_number 71
_symmetry_cell_setting 'orthorhombic'
loop_
_space_group_symop_operation_xyz
x,y,z
-x,-y,z
x,-y,-z
-x,y,-z
-x,-y,-z
x,y,-z
-x,y,z
x,-y,z
1/2+x,1/2+y,1/2+z
1/2-x,1/2-y,1/2+z
1/2+x,1/2-y,1/2-z
1/2-x,1/2+y,1/2-z
1/2-x,1/2-y,1/2-z
1/2+x,1/2+y,1/2-z
1/2-x,1/2+y,1/2+z
1/2+x,1/2-y,1/2+z
loop_
_atom_site_type_symbol
_atom_site_label
_atom_site_fract_x
_atom_site_fract_y
_atom_site_fract_z
Si Si1 0.723015 0.306021 0.832938
Si Si2 0.941419 0.500000 0.656207
Si Si3 0.056695 0.275197 0.840281
Si Si4 0.391918 0.673387 0.165817
Si Si5 0.442886 0.572430 0.663141
Si Si6 0.111110 0.400914 0.162815
Si Si7 0.276690 0.069551 0.332107
O O1 0.750000 0.250000 0.750000
O O2 0.664042 0.302945 0.800829
O O3 0.741394 0.374209 0.776729
O O4 0.734988 0.298314 0.000000
O O5 0.916202 0.500000 0.500000
O O6 0.926551 0.438744 0.740553
O O7 0.000000 0.500000 0.638895
O O8 0.068122 0.221582 0.728521
O O9 0.097417 0.329041 0.817319
O O10 0.000000 0.300017 0.814944
O O11 0.061815 0.248336 0.000000
O O12 0.402665 0.607062 0.238073
O O13 0.401119 0.666171 0.000000
O O14 0.430942 0.587884 0.500000
O O15 0.500000 0.592986 0.698969
O O16 0.435952 0.500000 0.694419
O O17 0.167192 0.413627 0.216996
O O18 0.104660 0.422221 0.000000
O O19 0.273269 0.067184 0.500000
O O20 0.261941 0.000000 0.272417
#
# Coordination Sequence:
#
# PCOD8289589 Si02
#       7
#    16   8  16  16  16  16  16
#     4  10  22  39  59  83 112 147 188 235 287 343
#     4  11  23  35  49  75 113 149 175 211 272 331
#     4  10  21  36  56  82 111 148 192 234 276 326
#     4  11  23  36  54  84 117 149 184 230 290 345
#     4   9  19  37  60  84 112 150 193 233 276 333
#     4  10  19  35  59  82 102 135 188 235 268 313
#     4   9  17  33  59  85 106 136 181 230 280 328
#
# _framework density 19.33202
#
# number of rings (size 3 to 8) (size 9 to 14) (size 15 to 20)
#    0.000    2.077    0.769    3.000    0.000    7.692 
#    0.000    3.077    0.000    0.000    0.000    0.000 
#    0.000    0.000    0.000    0.000    0.000    0.000 
#
# Total GULP energy -644743.644541 kJ/mol
# GULP energy per Si atom -12398.916241 kJ/mol
# Density = 1.928802 g / cm^3
# Si number density = 19.332020 Si / 1000 Ang^3
#
#
#
# Elastic Constant Matrix: (Units=GPa)
#
#
# Indices 1 2 3 4 5 6 
#
# 1 70.7248 45.4521 41.4488 0.0000 0.0000 0.0000
# 2 45.4521 123.2188 49.6555 0.0000 0.0000 0.0000
# 3 41.4488 49.6555 87.3204 0.0000 0.0000 0.0000
# 4 0.0000 0.0000 0.0000 15.3814 0.0000 0.0000
# 5 0.0000 0.0000 0.0000 0.0000 22.7447 0.0000
# 6 0.0000 0.0000 0.0000 0.0000 0.0000 38.8522
#
#
#
# Elastic Compliance Matrix: (Units=1/GPa)
#
#
# Indices 1 2 3 4 5 6 
#
# 1 0.021735 -0.005007 -0.007470 0.000000 0.000000 0.000000
# 2 -0.005007 0.011682 -0.004266 0.000000 0.000000 0.000000
# 3 -0.007470 -0.004266 0.017424 0.000000 0.000000 0.000000
# 4 0.000000 0.000000 0.000000 0.065014 0.000000 0.000000
# 5 0.000000 0.000000 0.000000 0.000000 0.043966 0.000000
# 6 0.000000 0.000000 0.000000 0.000000 0.000000 0.025739
#
#
# Mechanical properties :
#
#
# Convention : Reuss Voigt Hill
#
# Bulk Modulus (GPa) = 57.62221 61.59743 59.60982
# Shear Modulus (GPa) = 22.23903 25.04283 23.64093
#
# Velocity S-wave (km/s) = 3.39539 3.60308 3.50078
# Velocity P-wave (km/s) = 6.72629 7.01724 6.87330
#
# Compressibility (1/GPa) = 0.01735442
#
# Stress axis : x y z
#
# Youngs Moduli (GPa) = 46.00891 85.60242 57.39301
#
# Poissons Ratio (x) = 0.42864 0.42870
# Poissons Ratio (y) = 0.23038 0.24485
# Poissons Ratio (z) = 0.34367 0.36520
#
# Static dielectric constant tensor:
#      x y z
#    x 3.607020 0.000000 0.000000 
#    y 0.000000 3.736560 0.000000 
#    z 0.000000 0.000000 3.374440 
# 
# 
# High freq. dielectric constant tensor:
#      x y z
#    x 1.752490 0.000000 0.000000 
#    y 0.000000 1.763890 0.000000 
#    z 0.000000 0.000000 1.731160 
# 
# From -- ./inp_files/15051.got.cif
#   From: 2010.06.25/outbox.cif.g09.slc.cpg/sg71_8_cif.got.tgz:15051.got - 2010.06.28 04:59:45.
