data_PCOD8289016
_publ_section_title
;
Structure prediction by ZEFSAII (Michael W. Deem and Ramdas Pophale) SiO2 
 PCOD8289016
Probable space group: I M M M
;
_chemical_formula_sum "Si O2"
_cell_formula_units_Z 104
_cell_length_a 8.659851
_cell_length_b 23.103614
_cell_length_c 27.980103
_cell_angle_alpha 90.000000
_cell_angle_beta 90.000000
_cell_angle_gamma 90.000000
_cell_volume 5598.087065
_symmetry_space_group_name_H-M "I M M M"
_symmetry_group_IT_number 71
_symmetry_cell_setting 'orthorhombic'
loop_
_space_group_symop_operation_xyz
x,y,z
-x,-y,z
x,-y,-z
-x,y,-z
-x,-y,-z
x,y,-z
-x,y,z
x,-y,z
1/2+x,1/2+y,1/2+z
1/2-x,1/2-y,1/2+z
1/2+x,1/2-y,1/2-z
1/2-x,1/2+y,1/2-z
1/2-x,1/2-y,1/2-z
1/2+x,1/2+y,1/2-z
1/2-x,1/2+y,1/2+z
1/2+x,1/2-y,1/2+z
loop_
_atom_site_type_symbol
_atom_site_label
_atom_site_fract_x
_atom_site_fract_y
_atom_site_fract_z
Si Si1 0.825571 0.307843 0.301585
Si Si2 0.680661 0.885744 0.397672
Si Si3 0.322259 0.184604 0.304994
Si Si4 0.679003 0.721734 0.054386
Si Si5 0.179115 0.171335 0.893169
Si Si6 0.182627 0.000000 0.555562
Si Si7 0.816430 0.937915 0.053412
O O1 0.788538 0.239747 0.305519
O O2 0.807167 0.337761 0.249571
O O3 0.707596 0.339645 0.337118
O O4 0.000000 0.315674 0.319547
O O5 0.500000 0.898191 0.399768
O O6 0.728784 0.864299 0.343729
O O7 0.724448 0.835778 0.434903
O O8 0.764398 0.944194 0.414179
O O9 0.500000 0.203463 0.315808
O O10 0.500000 0.707915 0.062885
O O11 0.731726 0.772004 0.089729
O O12 0.711967 0.740834 0.000000
O O13 0.254308 0.115286 0.917770
O O14 0.000000 0.179304 0.905003
O O15 0.245193 0.000000 0.500000
O O16 0.000000 0.000000 0.553736
O O17 0.000000 0.933783 0.053849
O O18 0.764748 0.000000 0.075443
O O19 0.752529 0.933180 0.000000
#
# Coordination Sequence:
#
# PCOD8289016 Si02
#       7
#    16  16  16  16  16   8  16
#     4  10  19  32  53  80 112 144 175 215 271 328
#     4  11  22  38  61  85 109 142 188 236 280 331
#     4   9  19  35  55  81 108 139 178 222 270 323
#     4  11  23  36  51  77 113 147 178 219 275 333
#     4  11  20  31  51  80 109 140 179 224 272 322
#     4  11  25  43  61  83 115 153 191 233 286 349
#     4   8  15  29  49  72  99 135 178 220 261 306
#
# _framework density 18.577773000000001
#
# number of rings (size 3 to 8) (size 9 to 14) (size 15 to 20)
#    0.000    1.923    1.538    3.462    0.000    5.538 
#    0.000    0.000    1.692    1.846    0.000    5.385 
#    0.000    0.000    0.000    0.000    0.000    0.000 
#
# Total GULP energy -644450.964960 kJ/mol
# GULP energy per Si atom -12393.287788 kJ/mol
# Density = 1.853549 g / cm^3
# Si number density = 18.577773 Si / 1000 Ang^3
#
#
#
# Elastic Constant Matrix: (Units=GPa)
#
#
# Indices 1 2 3 4 5 6 
#
# 1 41.4176 20.8325 28.6845 0.0000 0.0000 0.0000
# 2 20.8325 113.9120 49.4552 0.0000 0.0000 0.0000
# 3 28.6845 49.4552 115.0748 0.0000 0.0000 0.0000
# 4 0.0000 0.0000 0.0000 28.5733 0.0000 0.0000
# 5 0.0000 0.0000 0.0000 0.0000 27.3425 0.0000
# 6 0.0000 0.0000 0.0000 0.0000 0.0000 9.2691
#
#
#
# Elastic Compliance Matrix: (Units=1/GPa)
#
#
# Indices 1 2 3 4 5 6 
#
# 1 0.029862 -0.002741 -0.006266 0.000000 0.000000 0.000000
# 2 -0.002741 0.011044 -0.004063 0.000000 0.000000 0.000000
# 3 -0.006266 -0.004063 0.011998 0.000000 0.000000 0.000000
# 4 0.000000 0.000000 0.000000 0.034998 0.000000 0.000000
# 5 0.000000 0.000000 0.000000 0.000000 0.036573 0.000000
# 6 0.000000 0.000000 0.000000 0.000000 0.000000 0.107886
#
#
# Mechanical properties :
#
#
# Convention : Reuss Voigt Hill
#
# Bulk Modulus (GPa) = 37.36255 52.03875 44.70065
# Shear Modulus (GPa) = 18.69703 24.46580 21.58142
#
# Velocity S-wave (km/s) = 3.17585 3.63290 3.41204
# Velocity P-wave (km/s) = 5.79682 6.75792 6.29574
#
# Compressibility (1/GPa) = 0.02676477
#
# Stress axis : x y z
#
# Youngs Moduli (GPa) = 33.48684 90.54704 83.34707
#
# Poissons Ratio (x) = 0.24819 0.52223
# Poissons Ratio (y) = 0.09179 0.33865
# Poissons Ratio (z) = 0.20982 0.36790
#
# Static dielectric constant tensor:
#      x y z
#    x 3.314090 0.000000 0.000000 
#    y 0.000000 3.465980 0.000000 
#    z 0.000000 0.000000 3.788920 
# 
# 
# High freq. dielectric constant tensor:
#      x y z
#    x 1.714100 0.000000 0.000000 
#    y 0.000000 1.700270 0.000000 
#    z 0.000000 0.000000 1.730780 
# 
# From -- ./inp_files/68262.got.cif
#   From: 2010.06.25/outbox.cif.g09.slc.cpg/sg71_35_cif.got.tgz:68262.got - 2010.06.28 04:59:45.
