data_PCOD8289884
_publ_section_title
;
Structure prediction by ZEFSAII (Michael W. Deem and Ramdas Pophale) SiO2 
 PCOD8289884
Probable space group: I M M M
;
_chemical_formula_sum "Si O2"
_cell_formula_units_Z 104
_cell_length_a 29.469771
_cell_length_b 9.133854
_cell_length_c 22.693712
_cell_angle_alpha 90.000000
_cell_angle_beta 90.000000
_cell_angle_gamma 90.000000
_cell_volume 6108.525139
_symmetry_space_group_name_H-M "I M M M"
_symmetry_group_IT_number 71
_symmetry_cell_setting 'orthorhombic'
loop_
_space_group_symop_operation_xyz
x,y,z
-x,-y,z
x,-y,-z
-x,y,-z
-x,-y,-z
x,y,-z
-x,y,z
x,-y,z
1/2+x,1/2+y,1/2+z
1/2-x,1/2-y,1/2+z
1/2+x,1/2-y,1/2-z
1/2-x,1/2+y,1/2-z
1/2-x,1/2-y,1/2-z
1/2+x,1/2+y,1/2-z
1/2-x,1/2+y,1/2+z
1/2+x,1/2-y,1/2+z
loop_
_atom_site_type_symbol
_atom_site_label
_atom_site_fract_x
_atom_site_fract_y
_atom_site_fract_z
Si Si1 0.791234 0.162338 0.929997
Si Si2 0.446407 0.171017 0.000000
Si Si3 0.604138 0.674055 0.106112
Si Si4 0.121471 0.671164 0.931905
Si Si5 0.190661 0.670641 0.431186
Si Si6 0.553239 0.668082 0.650162
Si Si7 0.949981 0.826655 0.719129
O O1 0.830721 0.268317 0.906574
O O2 0.741246 0.215179 0.909419
O O3 0.801125 0.000000 0.905241
O O4 0.790327 0.158052 0.000000
O O5 0.426000 0.247052 0.057279
O O6 0.500000 0.194498 0.000000
O O7 0.433045 0.000000 0.000000
O O8 0.601567 0.500000 0.096766
O O9 0.655875 0.728171 0.104424
O O10 0.585273 0.724458 0.169621
O O11 0.122193 0.500000 0.922725
O O12 0.079296 0.735627 0.897117
O O13 0.115531 0.715634 0.000000
O O14 0.183841 0.703783 0.500000
O O15 0.181566 0.500000 0.418280
O O16 0.500000 0.687680 0.638814
O O17 0.567816 0.500000 0.641754
O O18 0.565936 0.725036 0.715915
O O19 0.000000 0.761774 0.704650
O O20 0.953929 0.000000 0.720599
#
# Coordination Sequence:
#
# PCOD8289884 Si02
#       7
#    16   8  16  16  16  16  16
#     4   8  15  29  49  70  93 129 168 197 231 284
#     4  11  23  35  45  63  97 135 167 205 252 297
#     4  11  20  30  49  74  97 125 162 206 253 300
#     4  10  20  32  48  75 108 133 152 190 246 291
#     4   9  17  30  47  68  99 132 161 200 247 292
#     4   9  18  34  55  74  94 127 168 203 234 281
#     4   8  16  32  51  70  93 123 163 208 247 284
#
# _framework density 17.025386000000001
#
# number of rings (size 3 to 8) (size 9 to 14) (size 15 to 20)
#    0.000    2.692    0.769    3.462    0.000    3.385 
#    0.000    4.615    0.000    2.769    0.000    0.000 
#    0.000    0.000    0.000    0.000    0.000    0.000 
#
# Total GULP energy -644620.155875 kJ/mol
# GULP energy per Si atom -12396.541459 kJ/mol
# Density = 1.698664 g / cm^3
# Si number density = 17.025386 Si / 1000 Ang^3
#
#
#
# Elastic Constant Matrix: (Units=GPa)
#
#
# Indices 1 2 3 4 5 6 
#
# 1 115.5740 54.8673 64.8242 0.0000 0.0000 0.0000
# 2 54.8673 70.2527 49.9903 0.0000 0.0000 0.0000
# 3 64.8242 49.9903 83.0123 0.0000 0.0000 0.0000
# 4 0.0000 0.0000 0.0000 12.7348 0.0000 0.0000
# 5 0.0000 0.0000 0.0000 0.0000 18.4482 0.0000
# 6 0.0000 0.0000 0.0000 0.0000 0.0000 30.9845
#
#
#
# Elastic Compliance Matrix: (Units=1/GPa)
#
#
# Indices 1 2 3 4 5 6 
#
# 1 0.017033 -0.006716 -0.009256 0.000000 0.000000 0.000000
# 2 -0.006716 0.027555 -0.011350 0.000000 0.000000 0.000000
# 3 -0.009256 -0.011350 0.026110 0.000000 0.000000 0.000000
# 4 0.000000 0.000000 0.000000 0.078525 0.000000 0.000000
# 5 0.000000 0.000000 0.000000 0.000000 0.054206 0.000000
# 6 0.000000 0.000000 0.000000 0.000000 0.000000 0.032274
#
#
# Mechanical properties :
#
#
# Convention : Reuss Voigt Hill
#
# Bulk Modulus (GPa) = 62.29034 67.57806 64.93420
# Shear Modulus (GPa) = 16.90915 19.04398 17.97657
#
# Velocity S-wave (km/s) = 3.15488 3.34812 3.25294
# Velocity P-wave (km/s) = 7.06663 7.39765 7.23403
#
# Compressibility (1/GPa) = 0.01605385
#
# Stress axis : x y z
#
# Youngs Moduli (GPa) = 58.71125 36.29048 38.30002
#
# Poissons Ratio (x) = 0.24371 0.35452
# Poissons Ratio (y) = 0.39428 0.43469
# Poissons Ratio (z) = 0.54346 0.41189
#
# Static dielectric constant tensor:
#      x y z
#    x 3.390950 0.000000 0.000000 
#    y 0.000000 3.083080 0.000000 
#    z 0.000000 0.000000 3.108700 
# 
# 
# High freq. dielectric constant tensor:
#      x y z
#    x 1.666830 0.000000 0.000000 
#    y 0.000000 1.646150 0.000000 
#    z 0.000000 0.000000 1.628630 
# 
# From -- ./inp_files/61984.got.cif
#   From: 2010.06.25/outbox.cif.g09.slc.cpg/sg71_31_cif.got.tgz:61984.got - 2010.06.28 04:59:45.
