data_PCOD8289213
_publ_section_title
;
Structure prediction by ZEFSAII (Michael W. Deem and Ramdas Pophale) SiO2 
 PCOD8289213
Probable space group: I M M M
;
_chemical_formula_sum "Si O2"
_cell_formula_units_Z 104
_cell_length_a 21.141924
_cell_length_b 18.580160
_cell_length_c 14.845495
_cell_angle_alpha 90.000000
_cell_angle_beta 90.000000
_cell_angle_gamma 90.000000
_cell_volume 5831.612254
_symmetry_space_group_name_H-M "I M M M"
_symmetry_group_IT_number 71
_symmetry_cell_setting 'orthorhombic'
loop_
_space_group_symop_operation_xyz
x,y,z
-x,-y,z
x,-y,-z
-x,y,-z
-x,-y,-z
x,y,-z
-x,y,z
x,-y,z
1/2+x,1/2+y,1/2+z
1/2-x,1/2-y,1/2+z
1/2+x,1/2-y,1/2-z
1/2-x,1/2+y,1/2-z
1/2-x,1/2-y,1/2-z
1/2+x,1/2+y,1/2-z
1/2-x,1/2+y,1/2+z
1/2+x,1/2-y,1/2+z
loop_
_atom_site_type_symbol
_atom_site_label
_atom_site_fract_x
_atom_site_fract_y
_atom_site_fract_z
Si Si1 0.073416 0.708185 0.244672
Si Si2 0.831408 0.582050 0.755536
Si Si3 0.500000 0.420351 0.106298
Si Si4 0.234608 0.918476 0.102981
Si Si5 0.250888 0.842721 0.396923
Si Si6 0.154597 0.784583 0.897305
Si Si7 0.107991 0.812963 0.605862
O O1 0.107098 0.631371 0.235847
O O2 0.097607 0.763217 0.168094
O O3 0.086878 0.740982 0.342838
O O4 0.000000 0.694558 0.229039
O O5 0.854540 0.500000 0.759671
O O6 0.795836 0.599417 0.662413
O O7 0.783117 0.595683 0.837538
O O8 0.500000 0.500000 0.150514
O O9 0.562641 0.377973 0.137134
O O10 0.500000 0.427885 0.000000
O O11 0.176686 0.865436 0.126496
O O12 0.210942 0.000000 0.120380
O O13 0.256030 0.906526 0.000000
O O14 0.255054 0.868138 0.500000
O O15 0.284984 0.766562 0.381248
O O16 0.178688 0.834082 0.365911
O O17 0.130297 0.778608 0.000000
O O18 0.102067 0.796468 0.500000
#
# Coordination Sequence:
#
# PCOD8289213 Si02
#       7
#    16  16   8  16  16  16  16
#     4  11  22  35  53  73 100 140 181 215 253 301
#     4  10  21  35  51  76 106 133 169 217 262 308
#     4   9  18  32  48  70 104 140 168 197 238 296
#     4   9  17  31  53  79 106 134 162 202 260 312
#     4   9  18  32  54  79 101 129 165 211 265 313
#     4   9  18  34  54  76 100 127 169 221 263 303
#     4  10  19  33  53  78 106 137 173 207 247 305
#
# _framework density 17.833832999999998
#
# number of rings (size 3 to 8) (size 9 to 14) (size 15 to 20)
#    0.000    2.385    0.769    1.846    0.000    5.846 
#    0.000    2.308    0.000    0.000    0.000    9.692 
#    0.000    0.000    0.000    0.000    0.000    0.000 
#
# Total GULP energy -644926.152872 kJ/mol
# GULP energy per Si atom -12402.426017 kJ/mol
# Density = 1.779324 g / cm^3
# Si number density = 17.833833 Si / 1000 Ang^3
#
#
#
# Elastic Constant Matrix: (Units=GPa)
#
#
# Indices 1 2 3 4 5 6 
#
# 1 138.8737 58.6218 51.1876 0.0000 0.0000 0.0000
# 2 58.6218 101.7895 47.7366 0.0000 0.0000 0.0000
# 3 51.1876 47.7366 74.6020 0.0000 0.0000 0.0000
# 4 0.0000 0.0000 0.0000 25.8087 0.0000 0.0000
# 5 0.0000 0.0000 0.0000 0.0000 20.1670 0.0000
# 6 0.0000 0.0000 0.0000 0.0000 0.0000 17.3072
#
#
#
# Elastic Compliance Matrix: (Units=1/GPa)
#
#
# Indices 1 2 3 4 5 6 
#
# 1 0.010598 -0.003848 -0.004809 0.000000 0.000000 0.000000
# 2 -0.003848 0.015433 -0.007235 0.000000 0.000000 0.000000
# 3 -0.004809 -0.007235 0.021334 0.000000 0.000000 0.000000
# 4 0.000000 0.000000 0.000000 0.038747 0.000000 0.000000
# 5 0.000000 0.000000 0.000000 0.000000 0.049586 0.000000
# 6 0.000000 0.000000 0.000000 0.000000 0.000000 0.057779
#
#
# Mechanical properties :
#
#
# Convention : Reuss Voigt Hill
#
# Bulk Modulus (GPa) = 64.18462 70.03970 67.11216
# Shear Modulus (GPa) = 21.69610 23.17119 22.43364
#
# Velocity S-wave (km/s) = 3.49172 3.60847 3.55057
# Velocity P-wave (km/s) = 7.23358 7.53128 7.38393
#
# Compressibility (1/GPa) = 0.01558006
#
# Stress axis : x y z
#
# Youngs Moduli (GPa) = 94.35952 64.79422 46.87315
#
# Poissons Ratio (x) = 0.24932 0.22543
# Poissons Ratio (y) = 0.36309 0.33915
# Poissons Ratio (z) = 0.45381 0.46881
#
# Static dielectric constant tensor:
#      x y z
#    x 3.168990 0.000000 0.000000 
#    y 0.000000 3.346100 0.000000 
#    z 0.000000 0.000000 3.394580 
# 
# 
# High freq. dielectric constant tensor:
#      x y z
#    x 1.673800 0.000000 0.000000 
#    y 0.000000 1.688810 0.000000 
#    z 0.000000 0.000000 1.694790 
# 
# From -- ./inp_files/36677.got.cif
#   From: 2010.06.25/outbox.cif.g09.slc.cpg/sg71_19_cif.got.tgz:36677.got - 2010.06.28 04:59:45.
