data_PCOD8289802
_publ_section_title
;
Structure prediction by ZEFSAII (Michael W. Deem and Ramdas Pophale) SiO2 
 PCOD8289802
Probable space group: I M M M
;
_chemical_formula_sum "Si O2"
_cell_formula_units_Z 104
_cell_length_a 22.079262
_cell_length_b 9.055652
_cell_length_c 29.638809
_cell_angle_alpha 90.000000
_cell_angle_beta 90.000000
_cell_angle_gamma 90.000000
_cell_volume 5926.046101
_symmetry_space_group_name_H-M "I M M M"
_symmetry_group_IT_number 71
_symmetry_cell_setting 'orthorhombic'
loop_
_space_group_symop_operation_xyz
x,y,z
-x,-y,z
x,-y,-z
-x,y,-z
-x,-y,-z
x,y,-z
-x,y,z
x,-y,z
1/2+x,1/2+y,1/2+z
1/2-x,1/2-y,1/2+z
1/2+x,1/2-y,1/2-z
1/2-x,1/2+y,1/2-z
1/2-x,1/2-y,1/2-z
1/2+x,1/2+y,1/2-z
1/2-x,1/2+y,1/2+z
1/2+x,1/2-y,1/2+z
loop_
_atom_site_type_symbol
_atom_site_label
_atom_site_fract_x
_atom_site_fract_y
_atom_site_fract_z
Si Si1 0.207514 0.327355 0.388301
Si Si2 0.187957 0.166517 0.700423
Si Si3 0.117951 0.833846 0.446641
Si Si4 0.652933 0.327342 0.623565
Si Si5 0.500000 0.833419 0.053802
Si Si6 0.070332 0.329856 0.051866
Si Si7 0.331136 0.833483 0.286911
O O1 0.194763 0.500000 0.388246
O O2 0.174810 0.258772 0.344572
O O3 0.178072 0.252823 0.431982
O O4 0.278485 0.291479 0.390563
O O5 0.259270 0.165903 0.708712
O O6 0.152275 0.243072 0.741767
O O7 0.163511 0.000000 0.695133
O O8 0.116904 0.835764 0.500000
O O9 0.058897 0.750759 0.427459
O O10 0.118751 0.000000 0.427352
O O11 0.643141 0.500000 0.631799
O O12 0.609482 0.274070 0.583839
O O13 0.637457 0.243992 0.670150
O O14 0.500000 0.000000 0.072642
O O15 0.500000 0.833588 0.000000
O O16 0.086656 0.500000 0.061535
O O17 0.000000 0.300330 0.061910
O O18 0.085240 0.290290 0.000000
O O19 0.356288 0.000000 0.283136
#
# Coordination Sequence:
#
# PCOD8289802 Si02
#       7
#    16  16  16  16   8  16  16
#     4  10  20  32  46  69 102 135 166 201 246 299
#     4   9  16  27  44  67  96 127 160 198 239 284
#     4  10  20  33  49  70  96 127 165 206 245 286
#     4  10  20  32  48  73 102 130 163 204 249 296
#     4   9  17  31  51  71  91 119 157 199 239 279
#     4   9  19  36  55  73  95 127 168 211 255 306
#     4   9  16  27  45  68  95 127 160 195 237 286
#
# _framework density 17.549643
#
# number of rings (size 3 to 8) (size 9 to 14) (size 15 to 20)
#    0.000    2.538    0.000    3.000    0.000    8.615 
#    0.000    3.846    0.000    0.000    2.000    0.000 
#    0.000    0.000    0.000    0.000    0.000    0.000 
#
# Total GULP energy -644819.073464 kJ/mol
# GULP energy per Si atom -12400.366797 kJ/mol
# Density = 1.750970 g / cm^3
# Si number density = 17.549643 Si / 1000 Ang^3
#
#
#
# Elastic Constant Matrix: (Units=GPa)
#
#
# Indices 1 2 3 4 5 6 
#
# 1 53.5250 45.5214 35.9643 0.0000 0.0000 0.0000
# 2 45.5214 136.0461 46.3446 0.0000 0.0000 0.0000
# 3 35.9643 46.3446 70.9158 0.0000 0.0000 0.0000
# 4 0.0000 0.0000 0.0000 36.4209 0.0000 0.0000
# 5 0.0000 0.0000 0.0000 0.0000 10.8433 0.0000
# 6 0.0000 0.0000 0.0000 0.0000 0.0000 26.4994
#
#
#
# Elastic Compliance Matrix: (Units=1/GPa)
#
#
# Indices 1 2 3 4 5 6 
#
# 1 0.032571 -0.006781 -0.012087 0.000000 0.000000 0.000000
# 2 -0.006781 0.010867 -0.003663 0.000000 0.000000 0.000000
# 3 -0.012087 -0.003663 0.022625 0.000000 0.000000 0.000000
# 4 0.000000 0.000000 0.000000 0.027457 0.000000 0.000000
# 5 0.000000 0.000000 0.000000 0.000000 0.092222 0.000000
# 6 0.000000 0.000000 0.000000 0.000000 0.000000 0.037737
#
#
# Mechanical properties :
#
#
# Convention : Reuss Voigt Hill
#
# Bulk Modulus (GPa) = 47.61507 57.34970 52.48238
# Shear Modulus (GPa) = 18.14614 23.59649 20.87132
#
# Velocity S-wave (km/s) = 3.21906 3.67080 3.45232
# Velocity P-wave (km/s) = 6.40367 7.12151 6.77211
#
# Compressibility (1/GPa) = 0.02100175
#
# Stress axis : x y z
#
# Youngs Moduli (GPa) = 30.70205 92.02000 44.19963
#
# Poissons Ratio (x) = 0.62399 0.53422
# Poissons Ratio (y) = 0.20819 0.16190
# Poissons Ratio (z) = 0.37108 0.33706
#
# Static dielectric constant tensor:
#      x y z
#    x 2.936190 0.000000 0.000000 
#    y 0.000000 3.470950 0.000000 
#    z 0.000000 0.000000 3.222210 
# 
# 
# High freq. dielectric constant tensor:
#      x y z
#    x 1.636580 0.000000 0.000000 
#    y 0.000000 1.697730 0.000000 
#    z 0.000000 0.000000 1.673250 
# 
# From -- ./inp_files/56705.got.cif
#   From: 2010.06.25/outbox.cif.g09.slc.cpg/sg71_29_cif.got.tgz:56705.got - 2010.06.28 04:59:45.
