data_PCOD8289530
_publ_section_title
;
Structure prediction by ZEFSAII (Michael W. Deem and Ramdas Pophale) SiO2 
 PCOD8289530
Probable space group: I M M M
;
_chemical_formula_sum "Si O2"
_cell_formula_units_Z 104
_cell_length_a 9.158585
_cell_length_b 20.808175
_cell_length_c 29.886973
_cell_angle_alpha 90.000000
_cell_angle_beta 90.000000
_cell_angle_gamma 90.000000
_cell_volume 5695.663239
_symmetry_space_group_name_H-M "I M M M"
_symmetry_group_IT_number 71
_symmetry_cell_setting 'orthorhombic'
loop_
_space_group_symop_operation_xyz
x,y,z
-x,-y,z
x,-y,-z
-x,y,-z
-x,-y,-z
x,y,-z
-x,y,z
x,-y,z
1/2+x,1/2+y,1/2+z
1/2-x,1/2-y,1/2+z
1/2+x,1/2-y,1/2-z
1/2-x,1/2+y,1/2-z
1/2-x,1/2-y,1/2-z
1/2+x,1/2+y,1/2-z
1/2-x,1/2+y,1/2+z
1/2+x,1/2-y,1/2+z
loop_
_atom_site_type_symbol
_atom_site_label
_atom_site_fract_x
_atom_site_fract_y
_atom_site_fract_z
Si Si1 0.829777 0.572633 0.289274
Si Si2 0.335119 0.075022 0.050690
Si Si3 0.324633 0.138327 0.550295
Si Si4 0.171942 0.277456 0.869011
Si Si5 0.171366 0.310502 0.228213
Si Si6 0.157880 0.500000 0.052535
Si Si7 0.827664 0.866834 0.870565
O O1 0.794547 0.500000 0.273060
O O2 0.778716 0.622896 0.251218
O O3 0.744665 0.585848 0.334903
O O4 0.000000 0.580769 0.299583
O O5 0.500000 0.090006 0.066944
O O6 0.217258 0.112346 0.079921
O O7 0.303246 0.000000 0.054482
O O8 0.314069 0.098629 0.000000
O O9 0.272862 0.157960 0.500000
O O10 0.500000 0.135103 0.551367
O O11 0.261040 0.188314 0.586830
O O12 0.261073 0.067365 0.564294
O O13 0.213985 0.316348 0.824118
O O14 0.232437 0.205343 0.863569
O O15 0.000000 0.274211 0.875749
O O16 0.250000 0.250000 0.250000
O O17 0.000000 0.298404 0.233871
O O18 0.000000 0.500000 0.077026
O O19 0.131101 0.500000 0.000000
O O20 0.000000 0.871236 0.864933
#
# Coordination Sequence:
#
# PCOD8289530 Si02
#       7
#    16  16  16  16  16   8  16
#     4  10  21  36  54  75  99 132 174 215 258 310
#     4   9  19  36  54  71  97 134 171 207 250 300
#     4   8  13  23  39  60  90 126 159 193 237 290
#     4   9  18  30  44  67  97 128 162 199 244 298
#     4  10  19  35  55  73 100 134 170 211 255 305
#     4   7  10  18  34  56  82 118 161 191 221 279
#     4  11  21  32  50  76 103 131 168 211 256 306
#
# _framework density 18.259506999999999
#
# number of rings (size 3 to 8) (size 9 to 14) (size 15 to 20)
#    0.000    2.692    1.538    2.308    0.000    3.385 
#    1.385    2.308    0.000    0.000    0.000    0.000 
#    0.000    0.000    0.000    0.000    0.000   29.231 
#
# Total GULP energy -644467.531712 kJ/mol
# GULP energy per Si atom -12393.606379 kJ/mol
# Density = 1.821795 g / cm^3
# Si number density = 18.259507 Si / 1000 Ang^3
#
#
#
# Elastic Constant Matrix: (Units=GPa)
#
#
# Indices 1 2 3 4 5 6 
#
# 1 26.8094 30.4042 24.5339 0.0000 0.0000 0.0000
# 2 30.4042 128.1608 64.8354 0.0000 0.0000 0.0000
# 3 24.5339 64.8354 119.1024 0.0000 0.0000 0.0000
# 4 0.0000 0.0000 0.0000 37.1766 0.0000 0.0000
# 5 0.0000 0.0000 0.0000 0.0000 19.2091 0.0000
# 6 0.0000 0.0000 0.0000 0.0000 0.0000 16.6215
#
#
#
# Elastic Compliance Matrix: (Units=1/GPa)
#
#
# Indices 1 2 3 4 5 6 
#
# 1 0.053689 -0.009856 -0.005694 0.000000 0.000000 0.000000
# 2 -0.009856 0.012578 -0.004817 0.000000 0.000000 0.000000
# 3 -0.005694 -0.004817 0.012191 0.000000 0.000000 0.000000
# 4 0.000000 0.000000 0.000000 0.026899 0.000000 0.000000
# 5 0.000000 0.000000 0.000000 0.000000 0.052059 0.000000
# 6 0.000000 0.000000 0.000000 0.000000 0.000000 0.060163
#
#
# Mechanical properties :
#
#
# Convention : Reuss Voigt Hill
#
# Bulk Modulus (GPa) = 26.50838 57.06884 41.78861
# Shear Modulus (GPa) = 18.45797 24.88808 21.67302
#
# Velocity S-wave (km/s) = 3.18287 3.69592 3.44894
# Velocity P-wave (km/s) = 5.29685 7.03813 6.22864
#
# Compressibility (1/GPa) = 0.03772392
#
# Stress axis : x y z
#
# Youngs Moduli (GPa) = 18.62582 79.50636 82.02800
#
# Poissons Ratio (x) = 0.78365 0.46706
# Poissons Ratio (y) = 0.18358 0.39509
# Poissons Ratio (z) = 0.10605 0.38294
#
# Static dielectric constant tensor:
#      x y z
#    x 2.929830 0.000000 0.000000 
#    y 0.000000 3.686730 0.000000 
#    z 0.000000 0.000000 3.487480 
# 
# 
# High freq. dielectric constant tensor:
#      x y z
#    x 1.658650 0.000000 0.000000 
#    y 0.000000 1.714980 0.000000 
#    z 0.000000 0.000000 1.708010 
# 
# From -- ./inp_files/68294.got.cif
#   From: 2010.06.25/outbox.cif.g09.slc.cpg/sg71_35_cif.got.tgz:68294.got - 2010.06.28 04:59:45.
