data_PCOD8289236
_publ_section_title
;
Structure prediction by ZEFSAII (Michael W. Deem and Ramdas Pophale) SiO2 
 PCOD8289236
Probable space group: I M M M
;
_chemical_formula_sum "Si O2"
_cell_formula_units_Z 88
_cell_length_a 17.929247
_cell_length_b 28.375938
_cell_length_c 9.688295
_cell_angle_alpha 90.000000
_cell_angle_beta 90.000000
_cell_angle_gamma 90.000000
_cell_volume 4929.009226
_symmetry_space_group_name_H-M "I M M M"
_symmetry_group_IT_number 71
_symmetry_cell_setting 'orthorhombic'
loop_
_space_group_symop_operation_xyz
x,y,z
-x,-y,z
x,-y,-z
-x,y,-z
-x,-y,-z
x,y,-z
-x,y,z
x,-y,z
1/2+x,1/2+y,1/2+z
1/2-x,1/2-y,1/2+z
1/2+x,1/2-y,1/2-z
1/2-x,1/2+y,1/2-z
1/2-x,1/2-y,1/2-z
1/2+x,1/2+y,1/2-z
1/2-x,1/2+y,1/2+z
1/2+x,1/2-y,1/2+z
loop_
_atom_site_type_symbol
_atom_site_label
_atom_site_fract_x
_atom_site_fract_y
_atom_site_fract_z
Si Si1 0.500000 0.947258 0.163655
Si Si2 0.584490 0.555000 0.841509
Si Si3 0.805943 0.778804 0.843025
Si Si4 0.695772 0.614300 0.658865
Si Si5 0.915626 0.699362 0.156963
Si Si6 0.864410 0.382811 0.659576
O O1 0.425614 0.920181 0.215023
O O2 0.500000 0.000000 0.227188
O O3 0.500000 0.950592 0.000000
O O4 0.500000 0.570060 0.804022
O O5 0.595159 0.500000 0.814100
O O6 0.642321 0.582015 0.747151
O O7 0.601519 0.567314 0.000000
O O8 0.750000 0.750000 0.750000
O O9 0.813984 0.832027 0.789127
O O10 0.885501 0.752701 0.833638
O O11 0.775280 0.779493 0.000000
O O12 0.671535 0.609820 0.500000
O O13 0.781167 0.596724 0.678762
O O14 0.868293 0.665254 0.254590
O O15 0.000000 0.699879 0.210022
O O16 0.909666 0.680693 0.000000
O O17 0.879999 0.370513 0.500000
#
# Coordination Sequence:
#
# PCOD8289236 Si02
#       6
#     8  16  16  16  16  16
#     4   9  18  32  51  75 105 141 179 225 276 315
#     4   9  20  40  62  82 108 144 184 225 275 336
#     4  10  20  34  52  77 109 144 179 219 266 317
#     4  10  21  34  54  86 115 141 181 230 276 326
#     4  10  20  33  51  75 104 142 182 217 263 319
#     4  10  19  33  54  78 104 140 185 226 266 319
#
# _framework density 17.853486
#
# number of rings (size 3 to 8) (size 9 to 14) (size 15 to 20)
#    0.000    2.273    2.727    0.545    0.000    3.636 
#    0.000    4.545    0.000    1.091    0.000    0.000 
#    0.000    0.000    0.000    0.000    0.000    0.000 
#
# Total GULP energy -545590.104557 kJ/mol
# GULP energy per Si atom -12399.775104 kJ/mol
# Density = 1.781285 g / cm^3
# Si number density = 17.853486 Si / 1000 Ang^3
#
#
#
# Elastic Constant Matrix: (Units=GPa)
#
#
# Indices 1 2 3 4 5 6 
#
# 1 120.8284 59.8246 55.1962 0.0001 0.0000 0.0000
# 2 59.8246 94.7646 41.6274 -0.0003 -0.0001 0.0000
# 3 55.1962 41.6274 64.2352 0.0008 0.0009 0.0004
# 4 0.0001 -0.0003 0.0008 31.0036 0.0003 0.0001
# 5 0.0000 -0.0001 0.0009 0.0003 30.6181 0.0001
# 6 0.0000 0.0000 0.0004 0.0001 0.0001 34.7637
#
#
#
# Elastic Compliance Matrix: (Units=1/GPa)
#
#
# Indices 1 2 3 4 5 6 
#
# 1 0.015417 -0.005471 -0.009702 0.000000 0.000000 0.000000
# 2 -0.005471 0.016693 -0.006117 0.000000 0.000000 0.000000
# 3 -0.009702 -0.006117 0.027869 -0.000001 -0.000001 0.000000
# 4 0.000000 0.000000 -0.000001 0.032254 0.000000 0.000000
# 5 0.000000 0.000000 -0.000001 0.000000 0.032660 0.000000
# 6 0.000000 0.000000 0.000000 0.000000 0.000000 0.028766
#
#
# Mechanical properties :
#
#
# Convention : Reuss Voigt Hill
#
# Bulk Modulus (GPa) = 57.47464 65.90273 61.68868
# Shear Modulus (GPa) = 24.74767 27.48908 26.11837
#
# Velocity S-wave (km/s) = 3.72715 3.92816 3.82897
# Velocity P-wave (km/s) = 7.12632 7.58730 7.36042
#
# Compressibility (1/GPa) = 0.01739898
#
# Stress axis : x y z
#
# Youngs Moduli (GPa) = 64.86332 59.90465 35.88237
#
# Poissons Ratio (x) = 0.32773 0.34814
# Poissons Ratio (y) = 0.35485 0.21949
# Poissons Ratio (z) = 0.62932 0.36644
#
# Static dielectric constant tensor:
#      x y z
#    x 3.422310 0.000000 0.000000 
#    y 0.000000 3.388380 0.000000 
#    z 0.000000 0.000000 3.196190 
# 
# 
# High freq. dielectric constant tensor:
#      x y z
#    x 1.699180 0.000000 0.000000 
#    y 0.000000 1.684990 0.000000 
#    z 0.000000 0.000000 1.679290 
# 
# From -- ./inp_files/8744.got.cif
#   From: 2010.06.25/outbox.cif.g09.slc.cpg/sg71_5_cif.got.tgz:8744.got - 2010.06.28 04:59:45.
