data_PCOD8289271
_publ_section_title
;
Structure prediction by ZEFSAII (Michael W. Deem and Ramdas Pophale) SiO2 
 PCOD8289271
Probable space group: I M M M
;
_chemical_formula_sum "Si O2"
_cell_formula_units_Z 112
_cell_length_a 27.583774
_cell_length_b 13.105813
_cell_length_c 15.522401
_cell_angle_alpha 90.000000
_cell_angle_beta 90.000000
_cell_angle_gamma 90.000000
_cell_volume 5611.468786
_symmetry_space_group_name_H-M "I M M M"
_symmetry_group_IT_number 71
_symmetry_cell_setting 'orthorhombic'
loop_
_space_group_symop_operation_xyz
x,y,z
-x,-y,z
x,-y,-z
-x,y,-z
-x,-y,-z
x,y,-z
-x,y,z
x,-y,z
1/2+x,1/2+y,1/2+z
1/2-x,1/2-y,1/2+z
1/2+x,1/2-y,1/2-z
1/2-x,1/2+y,1/2-z
1/2-x,1/2-y,1/2-z
1/2+x,1/2+y,1/2-z
1/2-x,1/2+y,1/2+z
1/2+x,1/2-y,1/2+z
loop_
_atom_site_type_symbol
_atom_site_label
_atom_site_fract_x
_atom_site_fract_y
_atom_site_fract_z
Si Si1 0.123636 0.889376 0.099737
Si Si2 0.889377 0.888612 0.400690
Si Si3 0.885223 0.386405 0.751016
Si Si4 0.308458 0.262137 0.182512
Si Si5 0.444034 0.196474 0.098876
Si Si6 0.272452 0.380457 0.334870
Si Si7 0.057285 0.707823 0.101036
O O1 0.178268 0.850538 0.115740
O O2 0.082509 0.812678 0.133345
O O3 0.116568 0.000000 0.145661
O O4 0.115497 0.902860 0.000000
O O5 0.891908 0.911988 0.500000
O O6 0.839955 0.827852 0.382979
O O7 0.933736 0.814551 0.373569
O O8 0.891998 0.000000 0.353000
O O9 0.863057 0.500000 0.754369
O O10 0.841818 0.304412 0.748121
O O11 0.916209 0.378375 0.663140
O O12 0.919198 0.375942 0.836152
O O13 0.277683 0.345481 0.235735
O O14 0.272904 0.185972 0.128803
O O15 0.500000 0.173132 0.108954
O O16 0.426728 0.177530 0.000000
O O17 0.260533 0.500000 0.343082
O O18 0.000000 0.715451 0.116720
O O19 0.068478 0.683444 0.000000
#
# Coordination Sequence:
#
# PCOD8289271 Si02
#       7
#    16  16  16  16  16  16  16
#     4   9  18  34  56  81 109 141 177 222 278 335
#     4   9  18  33  53  76 105 141 176 214 264 319
#     4  11  22  37  56  79 109 146 188 230 275 330
#     4  10  20  34  53  79 107 141 174 222 266 324
#     4   9  19  35  54  79 110 142 181 229 277 325
#     4  10  19  33  55  80 104 137 176 217 269 325
#     4  10  21  37  56  80 111 145 185 233 279 326
#
# _framework density 19.959123000000002
#
# number of rings (size 3 to 8) (size 9 to 14) (size 15 to 20)
#    0.000    2.286    1.429    1.286    0.000    2.857 
#    0.000    4.286    0.000    4.286    0.000    0.000 
#    0.000    0.000    0.000    0.000    0.000    0.000 
#
# Total GULP energy -693899.890269 kJ/mol
# GULP energy per Si atom -12391.069469 kJ/mol
# Density = 1.991369 g / cm^3
# Si number density = 19.959123 Si / 1000 Ang^3
#
#
#
# Elastic Constant Matrix: (Units=GPa)
#
#
# Indices 1 2 3 4 5 6 
#
# 1 63.6025 10.2359 7.4487 0.0000 0.0000 0.0000
# 2 10.2359 81.2998 14.7045 0.0000 0.0000 0.0000
# 3 7.4487 14.7045 44.4943 0.0000 0.0000 0.0000
# 4 0.0000 0.0000 0.0000 18.3270 0.0000 0.0000
# 5 0.0000 0.0000 0.0000 0.0000 30.3316 0.0000
# 6 0.0000 0.0000 0.0000 0.0000 0.0000 22.5830
#
#
#
# Elastic Compliance Matrix: (Units=1/GPa)
#
#
# Indices 1 2 3 4 5 6 
#
# 1 0.016243 -0.001652 -0.002173 0.000000 0.000000 0.000000
# 2 -0.001652 0.013250 -0.004102 0.000000 0.000000 0.000000
# 3 -0.002173 -0.004102 0.024194 0.000000 0.000000 0.000000
# 4 0.000000 0.000000 0.000000 0.054564 0.000000 0.000000
# 5 0.000000 0.000000 0.000000 0.000000 0.032969 0.000000
# 6 0.000000 0.000000 0.000000 0.000000 0.000000 0.044281
#
#
# Mechanical properties :
#
#
# Convention : Reuss Voigt Hill
#
# Bulk Modulus (GPa) = 26.43240 28.24163 27.33702
# Shear Modulus (GPa) = 23.36801 24.71550 24.04175
#
# Velocity S-wave (km/s) = 3.42540 3.52277 3.47443
# Velocity P-wave (km/s) = 5.37741 5.54320 5.46093
#
# Compressibility (1/GPa) = 0.03783235
#
# Stress axis : x y z
#
# Youngs Moduli (GPa) = 61.56482 75.47096 41.33191
#
# Poissons Ratio (x) = 0.12468 0.08983
# Poissons Ratio (y) = 0.10170 0.16956
# Poissons Ratio (z) = 0.13380 0.30961
#
# Static dielectric constant tensor:
#      x y z
#    x 3.679210 0.000000 0.000000 
#    y 0.000000 3.965040 0.000000 
#    z 0.000000 0.000000 3.463130 
# 
# 
# High freq. dielectric constant tensor:
#      x y z
#    x 1.776190 0.000000 0.000000 
#    y 0.000000 1.782560 0.000000 
#    z 0.000000 0.000000 1.760690 
# 
# From -- ./inp_files/30024.got.cif
#   From: 2010.06.25/outbox.cif.g09.slc.cpg/sg71_16_cif.got.tgz:30024.got - 2010.06.28 04:59:45.
