data_PCOD8289654
_publ_section_title
;
Structure prediction by ZEFSAII (Michael W. Deem and Ramdas Pophale) SiO2 
 PCOD8289654
Probable space group: I M M M
;
_chemical_formula_sum "Si O2"
_cell_formula_units_Z 104
_cell_length_a 18.611255
_cell_length_b 14.483999
_cell_length_c 20.356019
_cell_angle_alpha 90.000000
_cell_angle_beta 90.000000
_cell_angle_gamma 90.000000
_cell_volume 5487.278380
_symmetry_space_group_name_H-M "I M M M"
_symmetry_group_IT_number 71
_symmetry_cell_setting 'orthorhombic'
loop_
_space_group_symop_operation_xyz
x,y,z
-x,-y,z
x,-y,-z
-x,y,-z
-x,-y,-z
x,y,-z
-x,y,z
x,-y,z
1/2+x,1/2+y,1/2+z
1/2-x,1/2-y,1/2+z
1/2+x,1/2-y,1/2-z
1/2-x,1/2+y,1/2-z
1/2-x,1/2-y,1/2-z
1/2+x,1/2+y,1/2-z
1/2-x,1/2+y,1/2+z
1/2+x,1/2-y,1/2+z
loop_
_atom_site_type_symbol
_atom_site_label
_atom_site_fract_x
_atom_site_fract_y
_atom_site_fract_z
Si Si1 0.579890 0.190062 0.627067
Si Si2 0.198161 0.796817 0.074602
Si Si3 0.284905 0.892416 0.185958
Si Si4 0.731031 0.601219 0.072733
Si Si5 0.919781 0.720679 0.277142
Si Si6 0.164784 0.102842 0.289909
Si Si7 0.084662 0.500000 0.075463
O O1 0.500000 0.195779 0.597677
O O2 0.617090 0.284824 0.601251
O O3 0.579439 0.181399 0.704699
O O4 0.618314 0.094539 0.604399
O O5 0.242211 0.866731 0.119762
O O6 0.220950 0.690631 0.081285
O O7 0.201747 0.833886 0.000000
O O8 0.359326 0.835617 0.182927
O O9 0.237638 0.866724 0.250619
O O10 0.303867 0.000000 0.184612
O O11 0.771773 0.500000 0.078097
O O12 0.673742 0.605065 0.131497
O O13 0.693873 0.605947 0.000000
O O14 0.900056 0.828780 0.273677
O O15 0.000000 0.709394 0.308474
O O16 0.143381 0.000000 0.266116
O O17 0.000000 0.500000 0.091297
O O18 0.103456 0.500000 0.000000
#
# Coordination Sequence:
#
# PCOD8289654 Si02
#       7
#    16  16  16  16  16  16   8
#     4  10  21  34  52  82 120 156 192 235 288 358
#     4  11  21  35  58  81 110 153 199 246 296 345
#     4  11  23  39  59  83 113 151 200 251 293 338
#     4   9  18  31  52  84 114 140 179 232 289 348
#     4  11  22  37  59  87 119 152 191 239 293 357
#     4  10  19  36  62  85 113 151 186 235 292 345
#     4   9  18  32  48  74 118 162 192 224 280 351
#
# _framework density 18.952929999999999
#
# number of rings (size 3 to 8) (size 9 to 14) (size 15 to 20)
#    0.000    1.769    3.077    1.846    2.154    1.846 
#    0.000    0.000    0.000    2.308    0.000    4.308 
#    0.000    0.000    0.000    0.000    0.000    0.000 
#
# Total GULP energy -644386.862587 kJ/mol
# GULP energy per Si atom -12392.055050 kJ/mol
# Density = 1.890979 g / cm^3
# Si number density = 18.952930 Si / 1000 Ang^3
#
#
#
# Elastic Constant Matrix: (Units=GPa)
#
#
# Indices 1 2 3 4 5 6 
#
# 1 84.8769 42.5842 21.8878 0.0000 0.0000 0.0000
# 2 42.5842 84.6310 22.8455 0.0000 0.0000 0.0000
# 3 21.8878 22.8455 86.2027 0.0000 0.0000 0.0000
# 4 0.0000 0.0000 0.0000 30.3123 0.0000 0.0000
# 5 0.0000 0.0000 0.0000 0.0000 20.5040 0.0000
# 6 0.0000 0.0000 0.0000 0.0000 0.0000 17.2789
#
#
#
# Elastic Compliance Matrix: (Units=1/GPa)
#
#
# Indices 1 2 3 4 5 6 
#
# 1 0.016103 -0.007538 -0.002091 0.000000 0.000000 0.000000
# 2 -0.007538 0.016255 -0.002394 0.000000 0.000000 0.000000
# 3 -0.002091 -0.002394 0.012766 0.000000 0.000000 0.000000
# 4 0.000000 0.000000 0.000000 0.032990 0.000000 0.000000
# 5 0.000000 0.000000 0.000000 0.000000 0.048771 0.000000
# 6 0.000000 0.000000 0.000000 0.000000 0.000000 0.057874
#
#
# Mechanical properties :
#
#
# Convention : Reuss Voigt Hill
#
# Bulk Modulus (GPa) = 47.44283 47.81618 47.62951
# Shear Modulus (GPa) = 23.16621 24.84523 24.00572
#
# Velocity S-wave (km/s) = 3.49994 3.62455 3.56279
# Velocity P-wave (km/s) = 6.43576 6.54218 6.48919
#
# Compressibility (1/GPa) = 0.02107800
#
# Stress axis : x y z
#
# Youngs Moduli (GPa) = 62.10021 61.51861 78.33347
#
# Poissons Ratio (x) = 0.46374 0.16379
# Poissons Ratio (y) = 0.46812 0.18753
# Poissons Ratio (z) = 0.12985 0.14727
#
# Static dielectric constant tensor:
#      x y z
#    x 3.387940 0.000000 0.000000 
#    y 0.000000 3.560170 0.000000 
#    z 0.000000 0.000000 3.511030 
# 
# 
# High freq. dielectric constant tensor:
#      x y z
#    x 1.711410 0.000000 0.000000 
#    y 0.000000 1.739610 0.000000 
#    z 0.000000 0.000000 1.731480 
# 
# From -- ./inp_files/53202.got.cif
#   From: 2010.06.25/outbox.cif.g09.slc.cpg/sg71_27_cif.got.tgz:53202.got - 2010.06.28 04:59:45.
