data_PCOD8289386
_publ_section_title
;
Structure prediction by ZEFSAII (Michael W. Deem and Ramdas Pophale) SiO2 
 PCOD8289386
Probable space group: I M M M
;
_chemical_formula_sum "Si O2"
_cell_formula_units_Z 88
_cell_length_a 21.826615
_cell_length_b 20.532028
_cell_length_c 10.285014
_cell_angle_alpha 90.000000
_cell_angle_beta 90.000000
_cell_angle_gamma 90.000000
_cell_volume 4609.174208
_symmetry_space_group_name_H-M "I M M M"
_symmetry_group_IT_number 71
_symmetry_cell_setting 'orthorhombic'
loop_
_space_group_symop_operation_xyz
x,y,z
-x,-y,z
x,-y,-z
-x,y,-z
-x,-y,-z
x,y,-z
-x,y,z
x,-y,z
1/2+x,1/2+y,1/2+z
1/2-x,1/2-y,1/2+z
1/2+x,1/2-y,1/2-z
1/2-x,1/2+y,1/2-z
1/2-x,1/2-y,1/2-z
1/2+x,1/2+y,1/2-z
1/2-x,1/2+y,1/2+z
1/2+x,1/2-y,1/2+z
loop_
_atom_site_type_symbol
_atom_site_label
_atom_site_fract_x
_atom_site_fract_y
_atom_site_fract_z
Si Si1 0.901671 0.000000 0.859175
Si Si2 0.433528 0.640897 0.354992
Si Si3 0.728436 0.868856 0.355115
Si Si4 0.151448 0.797626 0.353619
Si Si5 0.875200 0.352639 0.649755
Si Si6 0.197066 0.000000 0.640361
Si Si7 0.500000 0.074791 0.846842
O O1 0.943594 0.936486 0.846948
O O2 0.850798 0.000000 0.752193
O O3 0.868201 0.000000 0.000000
O O4 0.411329 0.661989 0.500000
O O5 0.500000 0.672837 0.325704
O O6 0.384086 0.659521 0.249372
O O7 0.699984 0.858130 0.500000
O O8 0.775899 0.808926 0.326058
O O9 0.676629 0.876913 0.246937
O O10 0.762345 0.936549 0.347765
O O11 0.137446 0.822488 0.500000
O O12 0.126208 0.725042 0.337425
O O13 0.861015 0.373009 0.500000
O O14 0.939724 0.384286 0.696628
O O15 0.163635 0.000000 0.500000
O O16 0.500000 0.000000 0.789966
O O17 0.500000 0.069780 0.000000
#
# Coordination Sequence:
#
# PCOD8289386 Si02
#       7
#     8  16  16  16  16   8   8
#     4  10  19  34  54  78 109 149 193 236 274 321
#     4  10  21  35  53  79 113 152 192 233 278 329
#     4  10  21  37  57  83 117 151 184 230 287 341
#     4  10  21  37  58  85 115 150 189 233 285 344
#     4  10  22  38  61  88 112 145 191 236 285 344
#     4  10  20  35  55  80 113 148 186 230 281 338
#     4   9  20  40  61  85 117 148 185 242 296 339
#
# _framework density 19.092357
#
# number of rings (size 3 to 8) (size 9 to 14) (size 15 to 20)
#    0.000    2.091    1.818    0.818    2.545    3.636 
#    0.000    0.455    0.000    2.182    0.000    0.000 
#    0.000    0.000    0.000    0.000    0.000    0.000 
#
# Total GULP energy -545135.122481 kJ/mol
# GULP energy per Si atom -12389.434602 kJ/mol
# Density = 1.904890 g / cm^3
# Si number density = 19.092357 Si / 1000 Ang^3
#
#
#
# Elastic Constant Matrix: (Units=GPa)
#
#
# Indices 1 2 3 4 5 6 
#
# 1 120.8174 38.7980 74.5524 0.0000 0.0000 0.0000
# 2 38.7980 86.4847 25.9687 0.0000 0.0000 0.0000
# 3 74.5524 25.9687 118.0984 0.0000 0.0000 0.0000
# 4 0.0000 0.0000 0.0000 25.6023 0.0000 0.0000
# 5 0.0000 0.0000 0.0000 0.0000 49.5247 0.0000
# 6 0.0000 0.0000 0.0000 0.0000 0.0000 16.1088
#
#
#
# Elastic Compliance Matrix: (Units=1/GPa)
#
#
# Indices 1 2 3 4 5 6 
#
# 1 0.014806 -0.004107 -0.008444 0.000000 0.000000 0.000000
# 2 -0.004107 0.013519 -0.000380 0.000000 0.000000 0.000000
# 3 -0.008444 -0.000380 0.013881 0.000000 0.000000 0.000000
# 4 0.000000 0.000000 0.000000 0.039059 0.000000 0.000000
# 5 0.000000 0.000000 0.000000 0.000000 0.020192 0.000000
# 6 0.000000 0.000000 0.000000 0.000000 0.000000 0.062078
#
#
# Mechanical properties :
#
#
# Convention : Reuss Voigt Hill
#
# Bulk Modulus (GPa) = 61.17946 67.11540 64.14743
# Shear Modulus (GPa) = 25.66137 30.65257 28.15697
#
# Velocity S-wave (km/s) = 3.67013 4.01120 3.84445
# Velocity P-wave (km/s) = 7.07625 7.52877 7.30601
#
# Compressibility (1/GPa) = 0.01634535
#
# Stress axis : x y z
#
# Youngs Moduli (GPa) = 67.53995 73.96849 72.03900
#
# Poissons Ratio (x) = 0.30377 0.60827
# Poissons Ratio (y) = 0.27737 0.02739
# Poissons Ratio (z) = 0.57028 0.02813
#
# Static dielectric constant tensor:
#      x y z
#    x 3.411640 0.000000 0.000000 
#    y 0.000000 3.615990 0.000000 
#    z 0.000000 0.000000 3.727210 
# 
# 
# High freq. dielectric constant tensor:
#      x y z
#    x 1.728980 0.000000 0.000000 
#    y 0.000000 1.745600 0.000000 
#    z 0.000000 0.000000 1.745860 
# 
# From -- ./inp_files/12638.got.cif
#   From: 2010.06.25/outbox.cif.g09.slc.cpg/sg71_7_cif.got.tgz:12638.got - 2010.06.28 04:59:45.
