data_PCOD8289334
_publ_section_title
;
Structure prediction by ZEFSAII (Michael W. Deem and Ramdas Pophale) SiO2 
 PCOD8289334
Probable space group: I M M M
;
_chemical_formula_sum "Si O2"
_cell_formula_units_Z 72
_cell_length_a 23.704450
_cell_length_b 18.715489
_cell_length_c 7.978917
_cell_angle_alpha 90.000000
_cell_angle_beta 90.000000
_cell_angle_gamma 90.000000
_cell_volume 3539.769716
_symmetry_space_group_name_H-M "I M M M"
_symmetry_group_IT_number 71
_symmetry_cell_setting 'orthorhombic'
loop_
_space_group_symop_operation_xyz
x,y,z
-x,-y,z
x,-y,-z
-x,y,-z
-x,-y,-z
x,y,-z
-x,y,z
x,-y,z
1/2+x,1/2+y,1/2+z
1/2-x,1/2-y,1/2+z
1/2+x,1/2-y,1/2-z
1/2-x,1/2+y,1/2-z
1/2-x,1/2-y,1/2-z
1/2+x,1/2+y,1/2-z
1/2-x,1/2+y,1/2+z
1/2+x,1/2-y,1/2+z
loop_
_atom_site_type_symbol
_atom_site_label
_atom_site_fract_x
_atom_site_fract_y
_atom_site_fract_z
Si Si1 0.150312 0.579854 0.301521
Si Si2 0.061713 0.083746 0.500000
Si Si3 0.746691 0.330234 0.692536
Si Si4 0.065059 0.299504 0.302779
Si Si5 0.618437 0.655590 0.309535
O O1 0.155895 0.573750 0.500000
O O2 0.144737 0.500000 0.224442
O O3 0.206101 0.618443 0.222627
O O4 0.094606 0.625573 0.254630
O O5 0.089180 0.106693 0.673363
O O6 0.000000 0.118942 0.500000
O O7 0.059186 0.000000 0.500000
O O8 0.761919 0.330312 0.500000
O O9 0.750000 0.250000 0.750000
O O10 0.684110 0.357527 0.728625
O O11 0.069332 0.283833 0.500000
O O12 0.099285 0.237557 0.208506
O O13 0.000000 0.302251 0.243469
O O14 0.604168 0.631101 0.500000
#
# Coordination Sequence:
#
# PCOD8289334 Si02
#       5
#    16   8  16  16  16
#     4   9  18  33  54  83 120 159 200 251 309 365
#     4  11  26  46  66  92 125 161 206 260 317 378
#     4  10  20  34  59  87 117 157 203 256 308 364
#     4  10  19  33  57  87 119 157 204 252 297 357
#     4  11  23  39  64  94 124 161 206 258 313 372
#
# _framework density 20.340306999999999
#
# number of rings (size 3 to 8) (size 9 to 14) (size 15 to 20)
#    0.000    1.889    3.333    0.667    1.556    3.556 
#    0.000    5.556    0.000    2.000    0.000    1.556 
#    0.000    0.000    0.000    0.000    0.000    0.000 
#
# Total GULP energy -446230.148216 kJ/mol
# GULP energy per Si atom -12395.281895 kJ/mol
# Density = 2.029401 g / cm^3
# Si number density = 20.340307 Si / 1000 Ang^3
#
#
#
# Elastic Constant Matrix: (Units=GPa)
#
#
# Indices 1 2 3 4 5 6 
#
# 1 126.9629 44.8139 45.3729 0.0000 0.0000 0.0000
# 2 44.8139 92.8488 18.9070 0.0000 0.0000 0.0000
# 3 45.3729 18.9070 71.7218 0.0000 0.0000 0.0000
# 4 0.0000 0.0000 0.0000 15.6981 0.0000 0.0000
# 5 0.0000 0.0000 0.0000 0.0000 24.1543 0.0000
# 6 0.0000 0.0000 0.0000 0.0000 0.0000 32.4205
#
#
#
# Elastic Compliance Matrix: (Units=1/GPa)
#
#
# Indices 1 2 3 4 5 6 
#
# 1 0.011631 -0.004349 -0.006212 0.000000 0.000000 0.000000
# 2 -0.004349 0.013007 -0.000678 0.000000 0.000000 0.000000
# 3 -0.006212 -0.000678 0.018051 0.000000 0.000000 0.000000
# 4 0.000000 0.000000 0.000000 0.063702 0.000000 0.000000
# 5 0.000000 0.000000 0.000000 0.000000 0.041400 0.000000
# 6 0.000000 0.000000 0.000000 0.000000 0.000000 0.030845
#
#
# Mechanical properties :
#
#
# Convention : Reuss Voigt Hill
#
# Bulk Modulus (GPa) = 49.47346 56.63566 53.05456
# Shear Modulus (GPa) = 24.05567 26.61723 25.33645
#
# Velocity S-wave (km/s) = 3.44271 3.62138 3.53317
# Velocity P-wave (km/s) = 6.33867 6.73723 6.54099
#
# Compressibility (1/GPa) = 0.02021286
#
# Stress axis : x y z
#
# Youngs Moduli (GPa) = 85.97519 76.88023 55.39833
#
# Poissons Ratio (x) = 0.33435 0.34412
# Poissons Ratio (y) = 0.37390 0.03754
# Poissons Ratio (z) = 0.53406 0.05210
#
# Static dielectric constant tensor:
#      x y z
#    x 4.134070 0.000000 0.000000 
#    y 0.000000 3.822720 0.000000 
#    z 0.000000 0.000000 3.495650 
# 
# 
# High freq. dielectric constant tensor:
#      x y z
#    x 1.810280 0.000000 0.000000 
#    y 0.000000 1.790270 0.000000 
#    z 0.000000 0.000000 1.773400 
# 
# From -- ./inp_files/12309.got.cif
#   From: 2010.06.25/outbox.cif.g09.slc.cpg/sg71_7_cif.got.tgz:12309.got - 2010.06.28 04:59:45.
