data_PCOD8289811
_publ_section_title
;
Structure prediction by ZEFSAII (Michael W. Deem and Ramdas Pophale) SiO2 
 PCOD8289811
Probable space group: I M M M
;
_chemical_formula_sum "Si O2"
_cell_formula_units_Z 56
_cell_length_a 36.381275
_cell_length_b 8.328569
_cell_length_c 9.447062
_cell_angle_alpha 90.000000
_cell_angle_beta 90.000000
_cell_angle_gamma 90.000000
_cell_volume 2862.497188
_symmetry_space_group_name_H-M "I M M M"
_symmetry_group_IT_number 71
_symmetry_cell_setting 'orthorhombic'
loop_
_space_group_symop_operation_xyz
x,y,z
-x,-y,z
x,-y,-z
-x,y,-z
-x,-y,-z
x,y,-z
-x,y,z
x,-y,z
1/2+x,1/2+y,1/2+z
1/2-x,1/2-y,1/2+z
1/2+x,1/2-y,1/2-z
1/2-x,1/2+y,1/2-z
1/2-x,1/2-y,1/2-z
1/2+x,1/2+y,1/2-z
1/2-x,1/2+y,1/2+z
1/2+x,1/2-y,1/2+z
loop_
_atom_site_type_symbol
_atom_site_label
_atom_site_fract_x
_atom_site_fract_y
_atom_site_fract_z
Si Si1 0.215915 0.309341 0.840025
Si Si2 0.932846 0.309082 0.658701
Si Si3 0.851444 0.309054 0.658820
Si Si4 0.000000 0.308019 0.159040
O O1 0.215449 0.500000 0.841011
O O2 0.250000 0.250000 0.750000
O O3 0.178758 0.240557 0.767661
O O4 0.218349 0.241797 0.000000
O O5 0.941295 0.247881 0.500000
O O6 0.934140 0.500000 0.661107
O O7 0.892150 0.250243 0.706073
O O8 0.963665 0.239054 0.763742
O O9 0.842669 0.246412 0.500000
O O10 0.850352 0.500000 0.658648
O O11 0.000000 0.500000 0.161802
O O12 0.000000 0.241713 0.000000
#
# Coordination Sequence:
#
# PCOD8289811 Si02
#       4
#    16  16  16   8
#     4  10  20  32  47  67  89 115 147 182 221 264
#     4   8  13  21  32  45  64  94 130 164 200 245
#     4   8  14  25  40  56  75 102 136 173 212 254
#     4   9  15  19  25  41  65  93 126 165 204 239
#
# _framework density 19.563337000000001
#
# number of rings (size 3 to 8) (size 9 to 14) (size 15 to 20)
#    0.000    3.286    0.000    3.000    0.000    4.571 
#    0.000    5.714    0.000    0.000    0.000    0.000 
#    0.000    0.000    0.000    1.286    0.000   26.286 
#
# Total GULP energy -347001.798656 kJ/mol
# GULP energy per Si atom -12392.921381 kJ/mol
# Density = 1.951881 g / cm^3
# Si number density = 19.563337 Si / 1000 Ang^3
#
#
#
# Elastic Constant Matrix: (Units=GPa)
#
#
# Indices 1 2 3 4 5 6 
#
# 1 210.9938 4.2073 134.2943 0.0000 0.0000 0.0000
# 2 4.2073 3.1777 5.2231 0.0000 0.0000 0.0000
# 3 134.2943 5.2231 184.3108 0.0000 0.0000 0.0000
# 4 0.0000 0.0000 0.0000 9.5713 0.0000 0.0000
# 5 0.0000 0.0000 0.0000 0.0000 45.2078 0.0000
# 6 0.0000 0.0000 0.0000 0.0000 0.0000 13.4366
#
#
#
# Elastic Compliance Matrix: (Units=1/GPa)
#
#
# Indices 1 2 3 4 5 6 
#
# 1 0.008843 -0.001172 -0.006410 0.000000 0.000000 0.000000
# 2 -0.001172 0.330219 -0.008504 0.000000 0.000000 0.000000
# 3 -0.006410 -0.008504 0.010337 0.000000 0.000000 0.000000
# 4 0.000000 0.000000 0.000000 0.104480 0.000000 0.000000
# 5 0.000000 0.000000 0.000000 0.000000 0.022120 0.000000
# 6 0.000000 0.000000 0.000000 0.000000 0.000000 0.074424
#
#
# Mechanical properties :
#
#
# Convention : Reuss Voigt Hill
#
# Bulk Modulus (GPa) = 3.15232 76.21463 39.68348
# Shear Modulus (GPa) = 7.26390 30.62697 18.94544
#
# Velocity S-wave (km/s) = 1.92901 3.96097 3.11531
# Velocity P-wave (km/s) = 2.56442 7.74348 5.76792
#
# Compressibility (1/GPa) = 0.31722684
#
# Stress axis : x y z
#
# Youngs Moduli (GPa) = 113.08984 3.02829 96.74067
#
# Poissons Ratio (x) = 0.00355 0.62008
# Poissons Ratio (y) = 0.13254 0.82268
# Poissons Ratio (z) = 0.72487 0.02575
#
# Static dielectric constant tensor:
#      x y z
#    x 4.044710 0.000000 0.000000 
#    y 0.000000 2.782590 0.000000 
#    z 0.000000 0.000000 4.106490 
# 
# 
# High freq. dielectric constant tensor:
#      x y z
#    x 1.781480 0.000000 0.000000 
#    y 0.000000 1.681220 0.000000 
#    z 0.000000 0.000000 1.762960 
# 
# From -- ./inp_files/16072.got.cif
#   From: 2010.06.25/outbox.cif.g09.slc.cpg/sg71_9_cif.got.tgz:16072.got - 2010.06.28 04:59:45.
