data_PCOD8289363
_publ_section_title
;
Structure prediction by ZEFSAII (Michael W. Deem and Ramdas Pophale) SiO2 
 PCOD8289363
Probable space group: I M M M
;
_chemical_formula_sum "Si O2"
_cell_formula_units_Z 120
_cell_length_a 12.649998
_cell_length_b 22.012548
_cell_length_c 23.238277
_cell_angle_alpha 90.000000
_cell_angle_beta 90.000000
_cell_angle_gamma 90.000000
_cell_volume 6470.900129
_symmetry_space_group_name_H-M "I M M M"
_symmetry_group_IT_number 71
_symmetry_cell_setting 'orthorhombic'
loop_
_space_group_symop_operation_xyz
x,y,z
-x,-y,z
x,-y,-z
-x,y,-z
-x,-y,-z
x,y,-z
-x,y,z
x,-y,z
1/2+x,1/2+y,1/2+z
1/2-x,1/2-y,1/2+z
1/2+x,1/2-y,1/2-z
1/2-x,1/2+y,1/2-z
1/2-x,1/2-y,1/2-z
1/2+x,1/2+y,1/2-z
1/2-x,1/2+y,1/2+z
1/2+x,1/2-y,1/2+z
loop_
_atom_site_type_symbol
_atom_site_label
_atom_site_fract_x
_atom_site_fract_y
_atom_site_fract_z
Si Si1 0.877957 0.363950 0.704269
Si Si2 0.382762 0.661049 0.065036
Si Si3 0.378273 0.338405 0.432728
Si Si4 0.271583 0.754614 0.858967
Si Si5 0.000000 0.432724 0.566646
Si Si6 0.198562 0.428443 0.933634
Si Si7 0.281792 0.929686 0.890345
Si Si8 0.616219 0.152085 0.333226
O O1 0.831770 0.297494 0.686616
O O2 0.797564 0.413635 0.676812
O O3 0.874314 0.380397 0.771515
O O4 0.000000 0.369799 0.682261
O O5 0.500000 0.639000 0.079640
O O6 0.357401 0.719674 0.103085
O O7 0.312964 0.601191 0.075849
O O8 0.370470 0.683887 0.000000
O O9 0.373645 0.324140 0.500000
O O10 0.500000 0.339781 0.411473
O O11 0.311551 0.288083 0.399929
O O12 0.323670 0.402756 0.418640
O O13 0.203276 0.703904 0.827179
O O14 0.110141 0.399363 0.583214
O O15 0.000000 0.500000 0.596322
O O16 0.000000 0.441042 0.500000
O O17 0.203138 0.500000 0.920331
O O18 0.125103 0.395008 0.886656
O O19 0.158966 0.417586 0.000000
O O20 0.273758 0.000000 0.903156
O O21 0.500000 0.181851 0.339163
#
# Coordination Sequence:
#
# PCOD8289363 Si02
#       8
#    16  16  16  16   8  16  16  16
#     4  10  20  34  53  77 103 133 173 218 265 315
#     4   9  17  30  51  79 108 137 169 208 257 312
#     4  10  21  35  52  76 106 142 183 222 261 310
#     4  10  19  34  53  75 104 138 173 214 263 309
#     4   9  16  28  48  72  98 128 163 205 254 306
#     4   9  19  35  53  76 106 136 169 210 258 314
#     4  10  20  34  52  74 104 138 174 218 266 312
#     4  10  21  35  53  77 103 135 174 215 260 311
#
# _framework density 18.544560000000001
#
# number of rings (size 3 to 8) (size 9 to 14) (size 15 to 20)
#    0.000    2.333    0.667    2.000    0.000    2.933 
#    0.000    4.000    0.000    7.200    0.000    7.467 
#    0.000    0.000    0.000    0.000    0.000    0.000 
#
# Total GULP energy -743405.660749 kJ/mol
# GULP energy per Si atom -12390.094346 kJ/mol
# Density = 1.850235 g / cm^3
# Si number density = 18.544560 Si / 1000 Ang^3
#
#
#
# Elastic Constant Matrix: (Units=GPa)
#
#
# Indices 1 2 3 4 5 6 
#
# 1 88.7406 7.6977 27.9677 0.0000 0.0000 0.0000
# 2 7.6977 51.8521 12.7380 0.0000 0.0000 0.0000
# 3 27.9677 12.7380 79.1543 0.0000 0.0000 0.0000
# 4 0.0000 0.0000 0.0000 19.1722 0.0000 0.0000
# 5 0.0000 0.0000 0.0000 0.0000 26.0317 0.0000
# 6 0.0000 0.0000 0.0000 0.0000 0.0000 20.5247
#
#
#
# Elastic Compliance Matrix: (Units=1/GPa)
#
#
# Indices 1 2 3 4 5 6 
#
# 1 0.012714 -0.000816 -0.004361 0.000000 0.000000 0.000000
# 2 -0.000816 0.020132 -0.002951 0.000000 0.000000 0.000000
# 3 -0.004361 -0.002951 0.014649 0.000000 0.000000 0.000000
# 4 0.000000 0.000000 0.000000 0.052159 0.000000 0.000000
# 5 0.000000 0.000000 0.000000 0.000000 0.038415 0.000000
# 6 0.000000 0.000000 0.000000 0.000000 0.000000 0.048722
#
#
# Mechanical properties :
#
#
# Convention : Reuss Voigt Hill
#
# Bulk Modulus (GPa) = 32.01198 35.17265 33.59231
# Shear Modulus (GPa) = 23.42356 24.56862 23.99609
#
# Velocity S-wave (km/s) = 3.55786 3.64379 3.60108
# Velocity P-wave (km/s) = 5.84615 6.05893 5.95349
#
# Compressibility (1/GPa) = 0.03123830
#
# Stress axis : x y z
#
# Youngs Moduli (GPa) = 78.65351 49.67261 68.26241
#
# Poissons Ratio (x) = 0.04054 0.29769
# Poissons Ratio (y) = 0.06419 0.20147
# Poissons Ratio (z) = 0.34300 0.14660
#
# Static dielectric constant tensor:
#      x y z
#    x 3.638130 0.000000 0.000000 
#    y 0.000000 3.384340 0.000000 
#    z 0.000000 0.000000 3.400200 
# 
# 
# High freq. dielectric constant tensor:
#      x y z
#    x 1.725750 0.000000 0.000000 
#    y 0.000000 1.705650 0.000000 
#    z 0.000000 0.000000 1.720660 
# 
# From -- ./inp_files/59083.got.cif
#   From: 2010.06.25/outbox.cif.g09.slc.cpg/sg71_30_cif.got.tgz:59083.got - 2010.06.28 04:59:45.
