data_PCOD8289500
_publ_section_title
;
Structure prediction by ZEFSAII (Michael W. Deem and Ramdas Pophale) SiO2 
 PCOD8289500
Probable space group: I M M M
;
_chemical_formula_sum "Si O2"
_cell_formula_units_Z 96
_cell_length_a 24.411142
_cell_length_b 8.942080
_cell_length_c 22.545960
_cell_angle_alpha 90.000000
_cell_angle_beta 90.000000
_cell_angle_gamma 90.000000
_cell_volume 4921.476097
_symmetry_space_group_name_H-M "I M M M"
_symmetry_group_IT_number 71
_symmetry_cell_setting 'orthorhombic'
loop_
_space_group_symop_operation_xyz
x,y,z
-x,-y,z
x,-y,-z
-x,y,-z
-x,-y,-z
x,y,-z
-x,y,z
x,-y,z
1/2+x,1/2+y,1/2+z
1/2-x,1/2-y,1/2+z
1/2+x,1/2-y,1/2-z
1/2-x,1/2+y,1/2-z
1/2-x,1/2-y,1/2-z
1/2+x,1/2+y,1/2-z
1/2-x,1/2+y,1/2+z
1/2+x,1/2-y,1/2+z
loop_
_atom_site_type_symbol
_atom_site_label
_atom_site_fract_x
_atom_site_fract_y
_atom_site_fract_z
Si Si1 0.500000 0.322082 0.157207
Si Si2 0.000000 0.675934 0.213984
Si Si3 0.189545 0.824839 0.068637
Si Si4 0.885747 0.673942 0.160321
Si Si5 0.800026 0.173077 0.613673
Si Si6 0.805985 0.674754 0.732516
Si Si7 0.413935 0.673598 0.063788
O O1 0.500000 0.500000 0.165684
O O2 0.500000 0.252437 0.222127
O O3 0.552590 0.260713 0.119774
O O4 0.052416 0.724115 0.174987
O O5 0.000000 0.500000 0.226271
O O6 0.136816 0.766951 0.104621
O O7 0.244383 0.746187 0.091181
O O8 0.196476 0.000000 0.079252
O O9 0.179808 0.785789 0.000000
O O10 0.882290 0.500000 0.143675
O O11 0.850752 0.711389 0.218324
O O12 0.824829 0.251180 0.671659
O O13 0.848461 0.196003 0.566777
O O14 0.787246 0.000000 0.626892
O O15 0.797033 0.500000 0.723587
O O16 0.750000 0.750000 0.750000
O O17 0.428572 0.500000 0.063158
O O18 0.432144 0.743577 0.000000
#
# Coordination Sequence:
#
# PCOD8289500 Si02
#       7
#     8   8  16  16  16  16  16
#     4  10  19  34  58  85 111 148 195 239 285 332
#     4  10  22  41  62  86 116 147 183 232 285 342
#     4  11  24  40  59  84 114 148 187 236 290 343
#     4  10  22  40  62  86 114 151 191 230 282 342
#     4  11  21  34  55  84 117 155 194 235 288 343
#     4  11  21  34  55  85 117 151 190 235 285 336
#     4   9  18  32  52  80 114 153 198 242 278 325
#
# _framework density 19.506342
#
# number of rings (size 3 to 8) (size 9 to 14) (size 15 to 20)
#    0.000    1.667    1.667    3.250    0.000    4.333 
#    0.000    1.250    0.000    5.500    0.000    0.000 
#    0.000    0.000    0.000    0.000    0.000    0.000 
#
# Total GULP energy -595112.348548 kJ/mol
# GULP energy per Si atom -12398.173928 kJ/mol
# Density = 1.946195 g / cm^3
# Si number density = 19.506342 Si / 1000 Ang^3
#
#
#
# Elastic Constant Matrix: (Units=GPa)
#
#
# Indices 1 2 3 4 5 6 
#
# 1 146.0701 47.6177 62.1649 0.0000 0.0000 0.0000
# 2 47.6177 78.2162 60.9034 0.0000 0.0000 0.0000
# 3 62.1649 60.9034 138.8047 0.0000 0.0000 0.0000
# 4 0.0000 0.0000 0.0000 29.3858 0.0000 0.0000
# 5 0.0000 0.0000 0.0000 0.0000 14.3325 0.0000
# 6 0.0000 0.0000 0.0000 0.0000 0.0000 19.5873
#
#
#
# Elastic Compliance Matrix: (Units=1/GPa)
#
#
# Indices 1 2 3 4 5 6 
#
# 1 0.009075 -0.003585 -0.002491 0.000000 0.000000 0.000000
# 2 -0.003585 0.020836 -0.007537 0.000000 0.000000 0.000000
# 3 -0.002491 -0.007537 0.011627 0.000000 0.000000 0.000000
# 4 0.000000 0.000000 0.000000 0.034030 0.000000 0.000000
# 5 0.000000 0.000000 0.000000 0.000000 0.069772 0.000000
# 6 0.000000 0.000000 0.000000 0.000000 0.000000 0.051054
#
#
# Mechanical properties :
#
#
# Convention : Reuss Voigt Hill
#
# Bulk Modulus (GPa) = 69.87090 78.27365 74.07227
# Shear Modulus (GPa) = 21.89240 25.48812 23.69026
#
# Velocity S-wave (km/s) = 3.35374 3.61869 3.48873
# Velocity P-wave (km/s) = 7.13401 7.59436 7.36778
#
# Compressibility (1/GPa) = 0.01431211
#
# Stress axis : x y z
#
# Youngs Moduli (GPa) = 110.19339 47.99375 86.00657
#
# Poissons Ratio (x) = 0.17205 0.21427
# Poissons Ratio (y) = 0.39503 0.64821
# Poissons Ratio (z) = 0.27453 0.36171
#
# Static dielectric constant tensor:
#      x y z
#    x 3.635490 0.000000 0.000000 
#    y 0.000000 4.869950 0.000000 
#    z 0.000000 0.000000 3.656070 
# 
# 
# High freq. dielectric constant tensor:
#      x y z
#    x 1.766240 0.000000 0.000000 
#    y 0.000000 1.743680 0.000000 
#    z 0.000000 0.000000 1.768000 
# 
# From -- ./inp_files/61575.got.cif
#   From: 2010.06.25/outbox.cif.g09.slc.cpg/sg71_31_cif.got.tgz:61575.got - 2010.06.28 04:59:45.
