data_PCOD8289167
_publ_section_title
;
Structure prediction by ZEFSAII (Michael W. Deem and Ramdas Pophale) SiO2 
 PCOD8289167
Probable space group: I M M M
;
_chemical_formula_sum "Si O2"
_cell_formula_units_Z 104
_cell_length_a 23.035834
_cell_length_b 9.210826
_cell_length_c 27.506961
_cell_angle_alpha 90.000000
_cell_angle_beta 90.000000
_cell_angle_gamma 90.000000
_cell_volume 5836.401094
_symmetry_space_group_name_H-M "I M M M"
_symmetry_group_IT_number 71
_symmetry_cell_setting 'orthorhombic'
loop_
_space_group_symop_operation_xyz
x,y,z
-x,-y,z
x,-y,-z
-x,y,-z
-x,-y,-z
x,y,-z
-x,y,z
x,-y,z
1/2+x,1/2+y,1/2+z
1/2-x,1/2-y,1/2+z
1/2+x,1/2-y,1/2-z
1/2-x,1/2+y,1/2-z
1/2-x,1/2-y,1/2-z
1/2+x,1/2+y,1/2-z
1/2-x,1/2+y,1/2+z
1/2+x,1/2-y,1/2+z
loop_
_atom_site_type_symbol
_atom_site_label
_atom_site_fract_x
_atom_site_fract_y
_atom_site_fract_z
Si Si1 0.936581 0.829797 0.734222
Si Si2 0.245438 0.827276 0.697689
Si Si3 0.930667 0.662596 0.000000
Si Si4 0.355490 0.667891 0.681594
Si Si5 0.434448 0.664641 0.590014
Si Si6 0.566293 0.829199 0.055848
Si Si7 0.629981 0.331198 0.140022
O O1 0.886569 0.769640 0.769786
O O2 0.920778 0.798212 0.678550
O O3 0.000000 0.759681 0.744545
O O4 0.939973 0.000000 0.744691
O O5 0.250000 0.750000 0.750000
O O6 0.301289 0.770130 0.668456
O O7 0.190105 0.779656 0.665246
O O8 0.245421 0.000000 0.705434
O O9 0.905471 0.739132 0.952104
O O10 0.907771 0.500000 0.000000
O O11 0.000000 0.675639 0.000000
O O12 0.335798 0.500000 0.687973
O O13 0.400784 0.687772 0.639154
O O14 0.500000 0.714289 0.600641
O O15 0.432153 0.500000 0.571695
O O16 0.500000 0.779423 0.067580
O O17 0.613553 0.753023 0.090752
O O18 0.571952 0.000000 0.063798
O O19 0.581226 0.788420 0.000000
O O20 0.633924 0.500000 0.126696
#
# Coordination Sequence:
#
# PCOD8289167 Si02
#       7
#    16  16   8  16  16  16  16
#     4   9  16  28  48  75 107 137 166 205 254 307
#     4  11  22  37  55  76 103 139 181 219 257 303
#     4   9  17  29  47  71 101 135 167 205 256 307
#     4  10  19  33  52  76 104 136 173 214 262 311
#     4   9  17  30  51  77 103 133 171 213 257 311
#     4   9  19  36  57  83 115 145 173 214 272 330
#     4  10  20  34  54  79 106 140 182 221 257 308
#
# _framework density 17.819199999999999
#
# number of rings (size 3 to 8) (size 9 to 14) (size 15 to 20)
#    0.000    2.385    1.538    2.077    0.000    5.846 
#    0.000    0.769    1.692    1.385    0.000    0.000 
#    0.000    0.000    0.000    0.000    0.000    0.000 
#
# Total GULP energy -644558.149063 kJ/mol
# GULP energy per Si atom -12395.349020 kJ/mol
# Density = 1.777864 g / cm^3
# Si number density = 17.819200 Si / 1000 Ang^3
#
#
#
# Elastic Constant Matrix: (Units=GPa)
#
#
# Indices 1 2 3 4 5 6 
#
# 1 110.6789 39.3608 49.4560 0.0000 0.0000 0.0000
# 2 39.3608 61.3957 49.1791 0.0000 0.0000 0.0000
# 3 49.4560 49.1791 113.4651 0.0000 0.0000 0.0000
# 4 0.0000 0.0000 0.0000 25.8163 0.0000 0.0000
# 5 0.0000 0.0000 0.0000 0.0000 19.3557 0.0000
# 6 0.0000 0.0000 0.0000 0.0000 0.0000 26.4465
#
#
#
# Elastic Compliance Matrix: (Units=1/GPa)
#
#
# Indices 1 2 3 4 5 6 
#
# 1 0.012330 -0.005514 -0.002984 0.000000 0.000000 0.000000
# 2 -0.005514 0.027416 -0.009480 0.000000 0.000000 0.000000
# 3 -0.002984 -0.009480 0.014223 0.000000 0.000000 0.000000
# 4 0.000000 0.000000 0.000000 0.038735 0.000000 0.000000
# 5 0.000000 0.000000 0.000000 0.000000 0.051664 0.000000
# 6 0.000000 0.000000 0.000000 0.000000 0.000000 0.037812
#
#
# Mechanical properties :
#
#
# Convention : Reuss Voigt Hill
#
# Bulk Modulus (GPa) = 55.51591 62.39239 58.95415
# Shear Modulus (GPa) = 22.30750 24.15998 23.23374
#
# Velocity S-wave (km/s) = 3.54203 3.68617 3.61482
# Velocity P-wave (km/s) = 6.92465 7.29433 7.11189
#
# Compressibility (1/GPa) = 0.01801285
#
# Stress axis : x y z
#
# Youngs Moduli (GPa) = 81.10590 36.47479 70.31035
#
# Poissons Ratio (x) = 0.20113 0.20981
# Poissons Ratio (y) = 0.44723 0.66651
# Poissons Ratio (z) = 0.24203 0.34576
#
# Static dielectric constant tensor:
#      x y z
#    x 3.439150 0.000000 0.000000 
#    y 0.000000 3.214540 0.000000 
#    z 0.000000 0.000000 3.297470 
# 
# 
# High freq. dielectric constant tensor:
#      x y z
#    x 1.681050 0.000000 0.000000 
#    y 0.000000 1.668080 0.000000 
#    z 0.000000 0.000000 1.691640 
# 
# From -- ./inp_files/58182.got.cif
#   From: 2010.06.25/outbox.cif.g09.slc.cpg/sg71_30_cif.got.tgz:58182.got - 2010.06.28 04:59:45.
