data_PCOD8289077
_publ_section_title
;
Structure prediction by ZEFSAII (Michael W. Deem and Ramdas Pophale) SiO2 
 PCOD8289077
Probable space group: I M M M
;
_chemical_formula_sum "Si O2"
_cell_formula_units_Z 80
_cell_length_a 21.341420
_cell_length_b 7.987552
_cell_length_c 22.819552
_cell_angle_alpha 90.000000
_cell_angle_beta 90.000000
_cell_angle_gamma 90.000000
_cell_volume 3889.950951
_symmetry_space_group_name_H-M "I M M M"
_symmetry_group_IT_number 71
_symmetry_cell_setting 'orthorhombic'
loop_
_space_group_symop_operation_xyz
x,y,z
-x,-y,z
x,-y,-z
-x,y,-z
-x,-y,-z
x,y,-z
-x,y,z
x,-y,z
1/2+x,1/2+y,1/2+z
1/2-x,1/2-y,1/2+z
1/2+x,1/2-y,1/2-z
1/2-x,1/2+y,1/2-z
1/2-x,1/2-y,1/2-z
1/2+x,1/2+y,1/2-z
1/2-x,1/2+y,1/2+z
1/2+x,1/2-y,1/2+z
loop_
_atom_site_type_symbol
_atom_site_label
_atom_site_fract_x
_atom_site_fract_y
_atom_site_fract_z
Si Si1 0.071708 0.192349 0.748265
Si Si2 0.500000 0.200147 0.934367
Si Si3 0.379266 0.805932 0.870923
Si Si4 0.743250 0.197231 0.933376
Si Si5 0.428434 0.000000 0.562324
Si Si6 0.627051 0.307213 0.625791
O O1 0.112353 0.283100 0.698455
O O2 0.114082 0.217103 0.805631
O O3 0.000000 0.264813 0.754975
O O4 0.066109 0.000000 0.731418
O O5 0.560789 0.275914 0.902552
O O6 0.500000 0.000000 0.931039
O O7 0.500000 0.266716 0.000000
O O8 0.316345 0.724374 0.898597
O O9 0.376291 0.000000 0.885710
O O10 0.802601 0.242089 0.892808
O O11 0.736608 0.000000 0.938617
O O12 0.748528 0.271060 0.000000
O O13 0.416714 0.173343 0.595177
O O14 0.500000 0.000000 0.548328
O O15 0.391553 0.000000 0.500000
O O16 0.611266 0.500000 0.607067
#
# Coordination Sequence:
#
# PCOD8289077 Si02
#       6
#    16   8  16  16   8  16
#     4  10  21  37  56  80 116 156 198 246 299 363
#     4   9  16  28  49  81 117 149 193 250 303 354
#     4  10  19  32  55  86 112 150 200 247 302 357
#     4   9  18  35  59  85 116 153 198 249 302 365
#     4  11  24  40  62  96 126 153 201 259 301 357
#     4  10  22  41  63  88 120 166 202 245 306 363
#
# _framework density 20.565812000000001
#
# number of rings (size 3 to 8) (size 9 to 14) (size 15 to 20)
#    0.000    2.200    1.000    1.800    1.400    5.600 
#    1.800    1.000    0.000    2.400    0.000    0.000 
#    0.000    0.000    0.000    0.000    0.000    0.000 
#
# Total GULP energy -495669.231628 kJ/mol
# GULP energy per Si atom -12391.730791 kJ/mol
# Density = 2.051900 g / cm^3
# Si number density = 20.565812 Si / 1000 Ang^3
#
#
#
# Elastic Constant Matrix: (Units=GPa)
#
#
# Indices 1 2 3 4 5 6 
#
# 1 148.5612 20.5736 79.9323 0.0000 0.0000 0.0000
# 2 20.5736 45.8317 26.1903 0.0000 0.0000 0.0000
# 3 79.9323 26.1903 155.3750 0.0000 0.0000 0.0000
# 4 0.0000 0.0000 0.0000 14.6995 0.0000 0.0000
# 5 0.0000 0.0000 0.0000 0.0000 44.4398 0.0000
# 6 0.0000 0.0000 0.0000 0.0000 0.0000 14.7138
#
#
#
# Elastic Compliance Matrix: (Units=1/GPa)
#
#
# Indices 1 2 3 4 5 6 
#
# 1 0.009414 -0.001614 -0.004571 0.000000 0.000000 0.000000
# 2 -0.001614 0.024421 -0.003286 0.000000 0.000000 0.000000
# 3 -0.004571 -0.003286 0.009342 0.000000 0.000000 0.000000
# 4 0.000000 0.000000 0.000000 0.068030 0.000000 0.000000
# 5 0.000000 0.000000 0.000000 0.000000 0.022502 0.000000
# 6 0.000000 0.000000 0.000000 0.000000 0.000000 0.067964
#
#
# Mechanical properties :
#
#
# Convention : Reuss Voigt Hill
#
# Bulk Modulus (GPa) = 41.26318 67.01782 54.14050
# Shear Modulus (GPa) = 21.86336 29.64205 25.75270
#
# Velocity S-wave (km/s) = 3.26405 3.80060 3.54250
# Velocity P-wave (km/s) = 5.85772 7.20536 6.56620
#
# Compressibility (1/GPa) = 0.02423468
#
# Stress axis : x y z
#
# Youngs Moduli (GPa) = 106.22305 40.94785 107.04868
#
# Poissons Ratio (x) = 0.06608 0.48933
# Poissons Ratio (y) = 0.17143 0.35179
# Poissons Ratio (z) = 0.48555 0.13456
#
# Static dielectric constant tensor:
#      x y z
#    x 3.979540 0.000000 0.000000 
#    y 0.000000 3.394540 0.000000 
#    z 0.000000 0.000000 3.809280 
# 
# 
# High freq. dielectric constant tensor:
#      x y z
#    x 1.808730 0.000000 0.000000 
#    y 0.000000 1.774760 0.000000 
#    z 0.000000 0.000000 1.814410 
# 
# From -- ./inp_files/61049.got.cif
#   From: 2010.06.25/outbox.cif.g09.slc.cpg/sg71_31_cif.got.tgz:61049.got - 2010.06.28 04:59:45.
