data_PCOD8289853
_publ_section_title
;
Structure prediction by ZEFSAII (Michael W. Deem and Ramdas Pophale) SiO2 
 PCOD8289853
Probable space group: I M M M
;
_chemical_formula_sum "Si O2"
_cell_formula_units_Z 112
_cell_length_a 17.551325
_cell_length_b 19.204583
_cell_length_c 18.021734
_cell_angle_alpha 90.000000
_cell_angle_beta 90.000000
_cell_angle_gamma 90.000000
_cell_volume 6074.511589
_symmetry_space_group_name_H-M "I M M M"
_symmetry_group_IT_number 71
_symmetry_cell_setting 'orthorhombic'
loop_
_space_group_symop_operation_xyz
x,y,z
-x,-y,z
x,-y,-z
-x,y,-z
-x,-y,-z
x,y,-z
-x,y,z
x,-y,z
1/2+x,1/2+y,1/2+z
1/2-x,1/2-y,1/2+z
1/2+x,1/2-y,1/2-z
1/2-x,1/2+y,1/2-z
1/2-x,1/2-y,1/2-z
1/2+x,1/2+y,1/2-z
1/2-x,1/2+y,1/2+z
1/2+x,1/2-y,1/2+z
loop_
_atom_site_type_symbol
_atom_site_label
_atom_site_fract_x
_atom_site_fract_y
_atom_site_fract_z
Si Si1 0.815677 0.580368 0.723267
Si Si2 0.144746 0.076944 0.811768
Si Si3 0.090129 0.301976 0.205660
Si Si4 0.414144 0.426015 0.157480
Si Si5 0.910363 0.777329 0.353271
Si Si6 0.350183 0.298745 0.586051
Si Si7 0.679637 0.162467 0.081367
O O1 0.837096 0.500000 0.737167
O O2 0.725371 0.594439 0.728945
O O3 0.862564 0.626530 0.782699
O O4 0.839814 0.601834 0.639522
O O5 0.082376 0.079149 0.747029
O O6 0.119800 0.129929 0.876360
O O7 0.150009 0.000000 0.848399
O O8 0.114074 0.248496 0.271112
O O9 0.114140 0.268041 0.127394
O O10 0.000000 0.318542 0.206562
O O11 0.500000 0.429772 0.127928
O O12 0.372996 0.500000 0.134030
O O13 0.375006 0.354461 0.128662
O O14 0.882611 0.723497 0.414729
O O15 0.000000 0.783539 0.357523
O O16 0.375403 0.296431 0.500000
O O17 0.259460 0.298858 0.595863
O O18 0.677480 0.128031 0.000000
#
# Coordination Sequence:
#
# PCOD8289853 Si02
#       7
#    16  16  16  16  16  16  16
#     4   9  19  33  52  76  98 125 163 208 257 304
#     4   9  17  29  48  74 102 132 162 197 243 295
#     4  10  20  33  50  71  95 126 170 219 257 294
#     4   9  16  26  43  69  99 128 158 193 233 279
#     4   9  17  29  48  71  95 127 164 201 241 287
#     4  10  20  32  48  70 100 137 169 203 246 293
#     4   9  19  32  49  74 103 133 161 195 244 303
#
# _framework density 18.437695000000001
#
# number of rings (size 3 to 8) (size 9 to 14) (size 15 to 20)
#    0.000    2.714    1.429    0.000    2.000    3.143 
#    0.000    2.857    0.000    0.857    0.000   12.000 
#    0.000    0.000    0.000    0.000    0.000    0.000 
#
# Total GULP energy -693838.567917 kJ/mol
# GULP energy per Si atom -12389.974427 kJ/mol
# Density = 1.839573 g / cm^3
# Si number density = 18.437695 Si / 1000 Ang^3
#
#
#
# Elastic Constant Matrix: (Units=GPa)
#
#
# Indices 1 2 3 4 5 6 
#
# 1 23.2777 24.3978 12.1345 0.0000 0.0000 0.0000
# 2 24.3978 106.8287 12.0865 0.0000 0.0000 0.0000
# 3 12.1345 12.0865 50.7988 0.0000 0.0000 0.0000
# 4 0.0000 0.0000 0.0000 21.4488 0.0000 0.0000
# 5 0.0000 0.0000 0.0000 0.0000 17.7728 0.0000
# 6 0.0000 0.0000 0.0000 0.0000 0.0000 20.5010
#
#
#
# Elastic Compliance Matrix: (Units=1/GPa)
#
#
# Indices 1 2 3 4 5 6 
#
# 1 0.062783 -0.012991 -0.011906 0.000000 0.000000 0.000000
# 2 -0.012991 0.012308 0.000175 0.000000 0.000000 0.000000
# 3 -0.011906 0.000175 0.022488 0.000000 0.000000 0.000000
# 4 0.000000 0.000000 0.000000 0.046623 0.000000 0.000000
# 5 0.000000 0.000000 0.000000 0.000000 0.056266 0.000000
# 6 0.000000 0.000000 0.000000 0.000000 0.000000 0.048778
#
#
# Mechanical properties :
#
#
# Convention : Reuss Voigt Hill
#
# Bulk Modulus (GPa) = 20.77563 30.90477 25.84020
# Shear Modulus (GPa) = 15.88637 20.76359 18.32498
#
# Velocity S-wave (km/s) = 2.93853 3.35945 3.15602
# Velocity P-wave (km/s) = 4.77554 5.64323 5.22742
#
# Compressibility (1/GPa) = 0.04813331
#
# Stress axis : x y z
#
# Youngs Moduli (GPa) = 15.92797 81.24793 44.46821
#
# Poissons Ratio (x) = 1.05553 0.52944
# Poissons Ratio (y) = 0.20693 -0.00778
# Poissons Ratio (z) = 0.18964 -0.01421
#
# Static dielectric constant tensor:
#      x y z
#    x 3.252170 0.000000 0.000000 
#    y 0.000000 3.667040 0.000000 
#    z 0.000000 0.000000 3.102220 
# 
# 
# High freq. dielectric constant tensor:
#      x y z
#    x 1.696400 0.000000 0.000000 
#    y 0.000000 1.721660 0.000000 
#    z 0.000000 0.000000 1.679740 
# 
# From -- ./inp_files/47505.got.cif
#   From: 2010.06.25/outbox.cif.g09.slc.cpg/sg71_24_cif.got.tgz:47505.got - 2010.06.28 04:59:45.
