data_PCOD8289330
_publ_section_title
;
Structure prediction by ZEFSAII (Michael W. Deem and Ramdas Pophale) SiO2 
 PCOD8289330
Probable space group: I M M M
;
_chemical_formula_sum "Si O2"
_cell_formula_units_Z 80
_cell_length_a 15.389681
_cell_length_b 14.166170
_cell_length_c 18.637900
_cell_angle_alpha 90.000000
_cell_angle_beta 90.000000
_cell_angle_gamma 90.000000
_cell_volume 4063.301460
_symmetry_space_group_name_H-M "I M M M"
_symmetry_group_IT_number 71
_symmetry_cell_setting 'orthorhombic'
loop_
_space_group_symop_operation_xyz
x,y,z
-x,-y,z
x,-y,-z
-x,y,-z
-x,-y,-z
x,y,-z
-x,y,z
x,-y,z
1/2+x,1/2+y,1/2+z
1/2-x,1/2-y,1/2+z
1/2+x,1/2-y,1/2-z
1/2-x,1/2+y,1/2-z
1/2-x,1/2-y,1/2-z
1/2+x,1/2+y,1/2-z
1/2-x,1/2+y,1/2+z
1/2+x,1/2-y,1/2+z
loop_
_atom_site_type_symbol
_atom_site_label
_atom_site_fract_x
_atom_site_fract_y
_atom_site_fract_z
Si Si1 0.904334 0.791215 0.829493
Si Si2 0.376993 0.103226 0.261617
Si Si3 0.257982 0.250226 0.079721
Si Si4 0.405155 0.893034 0.100565
Si Si5 0.186104 0.892031 0.702323
O O1 0.913143 0.679290 0.816821
O O2 0.827269 0.802904 0.887548
O O3 0.885021 0.843676 0.753817
O O4 0.000000 0.826374 0.857017
O O5 0.417261 0.122264 0.184893
O O6 0.273543 0.110958 0.251298
O O7 0.403002 0.000000 0.291623
O O8 0.332920 0.173895 0.067682
O O9 0.296407 0.334471 0.128892
O O10 0.234589 0.289605 0.000000
O O11 0.500000 0.870954 0.066519
O O12 0.377074 0.000000 0.083146
O O13 0.158584 0.000000 0.683587
#
# Coordination Sequence:
#
# PCOD8289330 Si02
#       5
#    16  16  16  16  16
#     4  11  21  36  59  86 116 153 198 240 283 338
#     4   9  16  31  57  85 111 136 173 236 297 333
#     4  11  23  39  57  84 122 156 189 235 293 358
#     4  10  19  33  57  86 112 138 174 230 299 353
#     4  10  20  37  59  82 111 151 201 245 281 326
#
# _framework density 19.688424000000001
#
# number of rings (size 3 to 8) (size 9 to 14) (size 15 to 20)
#    0.000    1.800    4.000    1.800    0.000    3.200 
#    0.000    1.000    0.000    0.000    0.000   11.200 
#    0.000    0.000    0.000    0.000    0.000    0.000 
#
# Total GULP energy -495612.109256 kJ/mol
# GULP energy per Si atom -12390.302731 kJ/mol
# Density = 1.964361 g / cm^3
# Si number density = 19.688424 Si / 1000 Ang^3
#
#
#
# Elastic Constant Matrix: (Units=GPa)
#
#
# Indices 1 2 3 4 5 6 
#
# 1 118.8130 42.3260 40.3720 0.0000 0.0000 0.0000
# 2 42.3260 97.4540 36.5507 0.0000 0.0000 0.0000
# 3 40.3720 36.5507 109.7775 0.0000 0.0000 0.0000
# 4 0.0000 0.0000 0.0000 6.7734 0.0000 0.0000
# 5 0.0000 0.0000 0.0000 0.0000 -10.8461 0.0000
# 6 0.0000 0.0000 0.0000 0.0000 0.0000 17.2512
#
#
#
# Elastic Compliance Matrix: (Units=1/GPa)
#
#
# Indices 1 2 3 4 5 6 
#
# 1 0.010618 -0.003596 -0.002707 0.000000 0.000000 0.000000
# 2 -0.003596 0.012943 -0.002987 0.000000 0.000000 0.000000
# 3 -0.002707 -0.002987 0.011100 0.000000 0.000000 0.000000
# 4 0.000000 0.000000 0.000000 0.147635 0.000000 0.000000
# 5 0.000000 0.000000 0.000000 0.000000 -0.092199 0.000000
# 6 0.000000 0.000000 0.000000 0.000000 0.000000 0.057967
#
#
# Mechanical properties :
#
#
# Convention : Reuss Voigt Hill
#
# Bulk Modulus (GPa) = 62.19074 62.72686 62.45880
# Shear Modulus (GPa) = 29.06894 16.42210 22.74552
#
# Velocity S-wave (km/s) = 3.84663 2.89121 3.40262
# Velocity P-wave (km/s) = 7.16832 6.56311 6.87238
#
# Compressibility (1/GPa) = 0.01607956
#
# Stress axis : x y z
#
# Youngs Moduli (GPa) = 94.18325 77.25966 90.09349
#
# Poissons Ratio (x) = 0.27782 0.24392
# Poissons Ratio (y) = 0.33868 0.26911
# Poissons Ratio (z) = 0.25500 0.23078
#
# Static dielectric constant tensor:
#      x y z
#    x 4.454120 0.000000 0.000000 
#    y 0.000000 3.683900 0.000000 
#    z 0.000000 0.000000 3.339350 
# 
# 
# High freq. dielectric constant tensor:
#      x y z
#    x 1.774320 0.000000 0.000000 
#    y 0.000000 1.760030 0.000000 
#    z 0.000000 0.000000 1.741250 
# 
# From -- ./inp_files/34279.got.cif
#   From: 2010.06.25/outbox.cif.g09.slc.cpg/sg71_18_cif.got.tgz:34279.got - 2010.06.28 04:59:45.
