data_PCOD8289412
_publ_section_title
;
Structure prediction by ZEFSAII (Michael W. Deem and Ramdas Pophale) SiO2 
 PCOD8289412
Probable space group: I M M M
;
_chemical_formula_sum "Si O2"
_cell_formula_units_Z 88
_cell_length_a 9.172087
_cell_length_b 22.530400
_cell_length_c 23.955410
_cell_angle_alpha 90.000000
_cell_angle_beta 90.000000
_cell_angle_gamma 90.000000
_cell_volume 4950.404376
_symmetry_space_group_name_H-M "I M M M"
_symmetry_group_IT_number 71
_symmetry_cell_setting 'orthorhombic'
loop_
_space_group_symop_operation_xyz
x,y,z
-x,-y,z
x,-y,-z
-x,y,-z
-x,-y,-z
x,y,-z
-x,y,z
x,-y,z
1/2+x,1/2+y,1/2+z
1/2-x,1/2-y,1/2+z
1/2+x,1/2-y,1/2-z
1/2-x,1/2+y,1/2-z
1/2-x,1/2-y,1/2-z
1/2+x,1/2+y,1/2-z
1/2-x,1/2+y,1/2+z
1/2+x,1/2-y,1/2+z
loop_
_atom_site_type_symbol
_atom_site_label
_atom_site_fract_x
_atom_site_fract_y
_atom_site_fract_z
Si Si1 0.666518 0.568512 0.744496
Si Si2 0.828913 0.500000 0.435186
Si Si3 0.831566 0.227388 0.064299
Si Si4 0.169588 0.893027 0.123449
Si Si5 0.169195 0.154765 0.434749
Si Si6 0.168737 0.430341 0.146186
O O1 0.500000 0.577692 0.763526
O O2 0.697386 0.500000 0.729870
O O3 0.702994 0.606263 0.689415
O O4 0.769100 0.591309 0.794282
O O5 0.788963 0.500000 0.500000
O O6 0.763689 0.558596 0.408116
O O7 0.000000 0.500000 0.424373
O O8 0.784912 0.171360 0.101219
O O9 0.736086 0.282729 0.084894
O O10 0.000000 0.243971 0.073249
O O11 0.799035 0.211738 0.000000
O O12 0.000000 0.906826 0.111740
O O13 0.197036 0.144941 0.500000
O O14 0.247675 0.101092 0.403833
O O15 0.000000 0.154610 0.419362
O O16 0.195866 0.500000 0.138824
O O17 0.000000 0.413331 0.143555
#
# Coordination Sequence:
#
# PCOD8289412 Si02
#       6
#    16   8  16  16  16  16
#     4   9  17  32  53  77 106 139 176 219 266 314
#     4  11  23  33  45  73 111 145 180 229 278 315
#     4   9  18  33  54  78 105 139 178 221 267 317
#     4  10  19  34  55  78 103 140 186 225 268 318
#     4  10  21  37  57  80 107 139 173 212 261 318
#     4  10  21  36  56  82 109 137 171 213 262 315
#
# _framework density 17.776326999999998
#
# number of rings (size 3 to 8) (size 9 to 14) (size 15 to 20)
#    0.000    2.273    0.909    1.909    0.000    5.455 
#    0.000    4.545    0.000    0.000    0.000    0.000 
#    0.000    0.000    0.000    0.000    0.000    0.000 
#
# Total GULP energy -545773.117571 kJ/mol
# GULP energy per Si atom -12403.934490 kJ/mol
# Density = 1.773587 g / cm^3
# Si number density = 17.776327 Si / 1000 Ang^3
#
#
#
# Elastic Constant Matrix: (Units=GPa)
#
#
# Indices 1 2 3 4 5 6 
#
# 1 105.1622 61.8446 64.4234 0.0000 0.0000 0.0000
# 2 61.8446 90.5216 65.0375 0.0001 0.0000 0.0000
# 3 64.4234 65.0375 96.1660 0.0001 0.0000 0.0000
# 4 0.0000 0.0001 0.0001 -179.2159 0.0000 0.0000
# 5 0.0000 0.0000 0.0000 0.0000 29.9712 0.0000
# 6 0.0000 0.0000 0.0000 0.0000 0.0000 25.6795
#
#
#
# Elastic Compliance Matrix: (Units=1/GPa)
#
#
# Indices 1 2 3 4 5 6 
#
# 1 0.018239 -0.007162 -0.007375 0.000000 0.000000 0.000000
# 2 -0.007162 0.024301 -0.011637 0.000000 0.000000 0.000000
# 3 -0.007375 -0.011637 0.023209 0.000000 0.000000 0.000000
# 4 0.000000 0.000000 0.000000 -0.005580 0.000000 0.000000
# 5 0.000000 0.000000 0.000000 0.000000 0.033365 0.000000
# 6 0.000000 0.000000 0.000000 0.000000 0.000000 0.038942
#
#
# Mechanical properties :
#
#
# Convention : Reuss Voigt Hill
#
# Bulk Modulus (GPa) = 74.61799 74.94010 74.77905
# Shear Modulus (GPa) = 26.41430 -18.01008 4.20211
#
# Velocity S-wave (km/s) = 3.85895 -3.18645 1.53916
# Velocity P-wave (km/s) = 7.86909 5.35824 6.73176
#
# Compressibility (1/GPa) = 0.01340159
#
# Stress axis : x y z
#
# Youngs Moduli (GPa) = 54.82735 41.15022 43.08653
#
# Poissons Ratio (x) = 0.29474 0.31775
# Poissons Ratio (y) = 0.39270 0.50139
# Poissons Ratio (z) = 0.40433 0.47885
#
# Static dielectric constant tensor:
#      x y z
#    x 3.357700 0.000000 0.000000 
#    y 0.000000 3.082500 0.000000 
#    z 0.000000 0.000000 3.317060 
# 
# 
# High freq. dielectric constant tensor:
#      x y z
#    x 1.692410 0.000000 0.000000 
#    y 0.000000 1.678580 0.000000 
#    z 0.000000 0.000000 1.689460 
# 
# From -- ./inp_files/10404.got.cif
#   From: 2010.06.25/outbox.cif.g09.slc.cpg/sg71_6_cif.got.tgz:10404.got - 2010.06.28 04:59:45.
