data_PCOD8289214
_publ_section_title
;
Structure prediction by ZEFSAII (Michael W. Deem and Ramdas Pophale) SiO2 
 PCOD8289214
Probable space group: I M M M
;
_chemical_formula_sum "Si O2"
_cell_formula_units_Z 120
_cell_length_a 12.304840
_cell_length_b 26.747153
_cell_length_c 21.207955
_cell_angle_alpha 90.000000
_cell_angle_beta 90.000000
_cell_angle_gamma 90.000000
_cell_volume 6979.950233
_symmetry_space_group_name_H-M "I M M M"
_symmetry_group_IT_number 71
_symmetry_cell_setting 'orthorhombic'
loop_
_space_group_symop_operation_xyz
x,y,z
-x,-y,z
x,-y,-z
-x,y,-z
-x,-y,-z
x,y,-z
-x,y,z
x,-y,z
1/2+x,1/2+y,1/2+z
1/2-x,1/2-y,1/2+z
1/2+x,1/2-y,1/2-z
1/2-x,1/2+y,1/2-z
1/2-x,1/2-y,1/2-z
1/2+x,1/2+y,1/2-z
1/2-x,1/2+y,1/2+z
1/2+x,1/2-y,1/2+z
loop_
_atom_site_type_symbol
_atom_site_label
_atom_site_fract_x
_atom_site_fract_y
_atom_site_fract_z
Si Si1 0.727954 0.875845 0.653125
Si Si2 0.871248 0.443703 0.500000
Si Si3 0.878174 0.944337 0.425713
Si Si4 0.129178 0.383443 0.622665
Si Si5 0.754786 0.282114 0.651709
Si Si6 0.871943 0.444212 0.255714
Si Si7 0.873397 0.200266 0.726812
Si Si8 0.875442 0.707401 0.072422
O O1 0.799637 0.903233 0.601725
O O2 0.660863 0.916078 0.692363
O O3 0.805043 0.845452 0.699663
O O4 0.643833 0.840567 0.616564
O O5 0.822284 0.500000 0.500000
O O6 0.831425 0.414137 0.438334
O O7 0.000000 0.447430 0.500000
O O8 0.875032 0.938932 0.500000
O O9 0.000000 0.934531 0.400787
O O10 0.840745 0.000000 0.405478
O O11 0.189211 0.330564 0.622431
O O12 0.169374 0.414303 0.683290
O O13 0.000000 0.374616 0.622593
O O14 0.847219 0.250807 0.688443
O O15 0.657307 0.294043 0.699957
O O16 0.704101 0.251928 0.593357
O O17 0.820925 0.500000 0.256188
O O18 0.000000 0.448259 0.258272
O O19 0.000000 0.188328 0.720943
O O20 0.000000 0.724275 0.080450
O O21 0.849135 0.693959 0.000000
#
# Coordination Sequence:
#
# PCOD8289214 Si02
#       8
#    16   8  16  16  16  16  16  16
#     4  11  19  33  52  76 102 135 171 210 259 308
#     4   9  18  32  52  78 107 139 171 207 253 304
#     4   9  18  32  50  72  99 134 175 215 255 302
#     4  10  19  33  53  78 107 137 170 208 255 310
#     4  10  20  34  52  76  99 136 168 209 255 305
#     4  10  20  33  51  77 107 135 167 209 257 312
#     4  10  20  33  50  74 102 130 166 207 255 308
#     4  10  22  37  53  73 101 137 178 220 256 301
#
# _framework density 17.1921
#
# number of rings (size 3 to 8) (size 9 to 14) (size 15 to 20)
#    0.000    2.067    1.333    3.200    0.933    1.600 
#    0.000    0.000    0.000    2.400    0.000    5.600 
#    0.000    2.133    0.000    0.000    0.000    0.000 
#
# Total GULP energy -744087.632225 kJ/mol
# GULP energy per Si atom -12401.460537 kJ/mol
# Density = 1.715297 g / cm^3
# Si number density = 17.192100 Si / 1000 Ang^3
#
#
#
# Elastic Constant Matrix: (Units=GPa)
#
#
# Indices 1 2 3 4 5 6 
#
# 1 41.3598 24.1889 26.8220 0.0000 0.0000 0.0000
# 2 24.1889 120.5609 42.4226 0.0000 0.0000 0.0000
# 3 26.8220 42.4226 87.5938 0.0000 0.0000 0.0000
# 4 0.0000 0.0000 0.0000 29.5743 0.0000 0.0000
# 5 0.0000 0.0000 0.0000 0.0000 25.1147 0.0000
# 6 0.0000 0.0000 0.0000 0.0000 0.0000 31.4069
#
#
#
# Elastic Compliance Matrix: (Units=1/GPa)
#
#
# Indices 1 2 3 4 5 6 
#
# 1 0.031355 -0.003511 -0.007901 0.000000 0.000000 0.000000
# 2 -0.003511 0.010392 -0.003958 0.000000 0.000000 0.000000
# 3 -0.007901 -0.003958 0.015752 0.000000 0.000000 0.000000
# 4 0.000000 0.000000 0.000000 0.033813 0.000000 0.000000
# 5 0.000000 0.000000 0.000000 0.000000 0.039817 0.000000
# 6 0.000000 0.000000 0.000000 0.000000 0.000000 0.031840
#
#
# Mechanical properties :
#
#
# Convention : Reuss Voigt Hill
#
# Bulk Modulus (GPa) = 37.36884 48.48683 42.92783
# Shear Modulus (GPa) = 24.67567 27.62457 26.15012
#
# Velocity S-wave (km/s) = 3.79263 4.01286 3.90430
# Velocity P-wave (km/s) = 6.40016 7.05230 6.73413
#
# Compressibility (1/GPa) = 0.02676027
#
# Stress axis : x y z
#
# Youngs Moduli (GPa) = 31.89272 96.23172 63.48232
#
# Poissons Ratio (x) = 0.33785 0.50157
# Poissons Ratio (y) = 0.11197 0.25124
# Poissons Ratio (z) = 0.25198 0.38086
#
# Static dielectric constant tensor:
#      x y z
#    x 2.995800 0.000000 0.000000 
#    y 0.000000 3.395330 0.000000 
#    z 0.000000 0.000000 3.243950 
# 
# 
# High freq. dielectric constant tensor:
#      x y z
#    x 1.643300 0.000000 0.000000 
#    y 0.000000 1.673710 0.000000 
#    z 0.000000 0.000000 1.670350 
# 
# From -- ./inp_files/26534.got.cif
#   From: 2010.06.25/outbox.cif.g09.slc.cpg/sg71_14_cif.got.tgz:26534.got - 2010.06.28 04:59:45.
