data_PCOD8289270
_publ_section_title
;
Structure prediction by ZEFSAII (Michael W. Deem and Ramdas Pophale) SiO2 
 PCOD8289270
Probable space group: I M M M
;
_chemical_formula_sum "Si O2"
_cell_formula_units_Z 72
_cell_length_a 24.821849
_cell_length_b 16.889253
_cell_length_c 8.662073
_cell_angle_alpha 90.000000
_cell_angle_beta 90.000000
_cell_angle_gamma 90.000000
_cell_volume 3631.335792
_symmetry_space_group_name_H-M "I M M M"
_symmetry_group_IT_number 71
_symmetry_cell_setting 'orthorhombic'
loop_
_space_group_symop_operation_xyz
x,y,z
-x,-y,z
x,-y,-z
-x,y,-z
-x,-y,-z
x,y,-z
-x,y,z
x,-y,z
1/2+x,1/2+y,1/2+z
1/2-x,1/2-y,1/2+z
1/2+x,1/2-y,1/2-z
1/2-x,1/2+y,1/2-z
1/2-x,1/2-y,1/2-z
1/2+x,1/2+y,1/2-z
1/2-x,1/2+y,1/2+z
1/2+x,1/2-y,1/2+z
loop_
_atom_site_type_symbol
_atom_site_label
_atom_site_fract_x
_atom_site_fract_y
_atom_site_fract_z
Si Si1 0.358035 0.624770 0.681545
Si Si2 0.748330 0.087502 0.323471
Si Si3 0.059396 0.411926 0.816378
Si Si4 0.562340 0.500000 0.182497
Si Si5 0.152781 0.303255 0.184096
O O1 0.367675 0.623374 0.500000
O O2 0.301938 0.583334 0.721539
O O3 0.408219 0.579063 0.756798
O O4 0.353299 0.714282 0.746518
O O5 0.764110 0.106966 0.500000
O O6 0.707614 0.154244 0.257515
O O7 0.721104 0.000000 0.313972
O O8 0.071148 0.500000 0.753246
O O9 0.102628 0.351671 0.745841
O O10 0.000000 0.383974 0.763881
O O11 0.063173 0.412591 0.000000
O O12 0.500000 0.500000 0.238341
O O13 0.565878 0.500000 0.000000
O O14 0.152422 0.305269 0.000000
#
# Coordination Sequence:
#
# PCOD8289270 Si02
#       5
#    16  16  16   8  16
#     4  11  22  36  56  82 113 142 177 232 286 331
#     4  10  19  33  55  79 111 153 190 222 266 328
#     4   8  13  23  41  66 100 140 178 217 262 315
#     4  11  25  45  65  81 103 143 192 235 282 345
#     4   9  18  30  47  77 111 145 184 226 274 327
#
# _framework density 19.827414000000001
#
# number of rings (size 3 to 8) (size 9 to 14) (size 15 to 20)
#    0.000    2.333    1.111    3.000    0.000    4.444 
#    0.000    3.333    0.000    0.000    0.000    0.000 
#    0.000    0.000    0.000   19.111    0.000   16.889 
#
# Total GULP energy -446268.883763 kJ/mol
# GULP energy per Si atom -12396.357882 kJ/mol
# Density = 1.978229 g / cm^3
# Si number density = 19.827414 Si / 1000 Ang^3
#
#
#
# Elastic Constant Matrix: (Units=GPa)
#
#
# Indices 1 2 3 4 5 6 
#
# 1 153.7745 79.3886 26.9641 0.0000 0.0000 0.0000
# 2 79.3886 151.2926 24.0648 0.0000 0.0000 0.0000
# 3 26.9641 24.0648 35.4420 0.0000 0.0000 0.0000
# 4 0.0000 0.0000 0.0000 16.2128 0.0000 0.0000
# 5 0.0000 0.0000 0.0000 0.0000 16.6346 0.0000
# 6 0.0000 0.0000 0.0000 0.0000 0.0000 27.1567
#
#
#
# Elastic Compliance Matrix: (Units=1/GPa)
#
#
# Indices 1 2 3 4 5 6 
#
# 1 0.009468 -0.004285 -0.004294 0.000000 0.000000 0.000000
# 2 -0.004285 0.009350 -0.003088 0.000000 0.000000 0.000000
# 3 -0.004294 -0.003088 0.033578 0.000000 0.000000 0.000000
# 4 0.000000 0.000000 0.000000 0.061680 0.000000 0.000000
# 5 0.000000 0.000000 0.000000 0.000000 0.060116 0.000000
# 6 0.000000 0.000000 0.000000 0.000000 0.000000 0.036823
#
#
# Mechanical properties :
#
#
# Convention : Reuss Voigt Hill
#
# Bulk Modulus (GPa) = 34.40899 66.81601 50.61250
# Shear Modulus (GPa) = 20.48873 26.00692 23.24783
#
# Velocity S-wave (km/s) = 3.21807 3.62562 3.42791
# Velocity P-wave (km/s) = 5.58569 7.16232 6.42256
#
# Compressibility (1/GPa) = 0.02906217
#
# Stress axis : x y z
#
# Youngs Moduli (GPa) = 105.61512 106.95651 29.78106
#
# Poissons Ratio (x) = 0.45835 0.12787
# Poissons Ratio (y) = 0.45260 0.09196
# Poissons Ratio (z) = 0.45348 0.33028
#
# Static dielectric constant tensor:
#      x y z
#    x 3.751650 0.000000 0.000000 
#    y 0.000000 3.963760 0.000000 
#    z 0.000000 0.000000 3.068430 
# 
# 
# High freq. dielectric constant tensor:
#      x y z
#    x 1.777560 0.000000 0.000000 
#    y 0.000000 1.786860 0.000000 
#    z 0.000000 0.000000 1.722210 
# 
# From -- ./inp_files/7884.got.cif
#   From: 2010.06.25/outbox.cif.g09.slc.cpg/sg71_4_cif.got.tgz:7884.got - 2010.06.28 04:59:45.
