data_PCOD8289965
_publ_section_title
;
Structure prediction by ZEFSAII (Michael W. Deem and Ramdas Pophale) SiO2 
 PCOD8289965
Probable space group: I M M M
;
_chemical_formula_sum "Si O2"
_cell_formula_units_Z 104
_cell_length_a 17.735803
_cell_length_b 9.646158
_cell_length_c 32.136404
_cell_angle_alpha 90.000000
_cell_angle_beta 90.000000
_cell_angle_gamma 90.000000
_cell_volume 5497.971774
_symmetry_space_group_name_H-M "I M M M"
_symmetry_group_IT_number 71
_symmetry_cell_setting 'orthorhombic'
loop_
_space_group_symop_operation_xyz
x,y,z
-x,-y,z
x,-y,-z
-x,y,-z
-x,-y,-z
x,y,-z
-x,y,z
x,-y,z
1/2+x,1/2+y,1/2+z
1/2-x,1/2-y,1/2+z
1/2+x,1/2-y,1/2-z
1/2-x,1/2+y,1/2-z
1/2-x,1/2-y,1/2-z
1/2+x,1/2+y,1/2-z
1/2-x,1/2+y,1/2+z
1/2+x,1/2-y,1/2+z
loop_
_atom_site_type_symbol
_atom_site_label
_atom_site_fract_x
_atom_site_fract_y
_atom_site_fract_z
Si Si1 0.914802 0.164076 0.000000
Si Si2 0.916352 0.846231 0.549061
Si Si3 0.914723 0.342251 0.159801
Si Si4 0.675861 0.163086 0.740981
Si Si5 0.181707 0.337425 0.396976
Si Si6 0.646542 0.336944 0.411452
Si Si7 0.916138 0.336329 0.679653
O O1 0.870475 0.214085 0.958614
O O2 0.000000 0.224752 0.000000
O O3 0.918372 0.000000 0.000000
O O4 0.914964 0.844858 0.500000
O O5 0.856725 0.734493 0.563985
O O6 0.000000 0.806060 0.565115
O O7 0.895068 0.000000 0.565411
O O8 0.896748 0.500000 0.146452
O O9 0.858019 0.295355 0.196314
O O10 0.907672 0.243802 0.119921
O O11 0.000000 0.330740 0.176790
O O12 0.750000 0.250000 0.750000
O O13 0.614032 0.205946 0.775183
O O14 0.694937 0.000000 0.743677
O O15 0.170343 0.500000 0.402381
O O16 0.269152 0.297751 0.397802
O O17 0.142274 0.279783 0.355032
O O18 0.630469 0.500000 0.407027
O O19 0.920945 0.500000 0.675437
O O20 0.000000 0.272308 0.673406
#
# Coordination Sequence:
#
# PCOD8289965 Si02
#       7
#     8  16  16  16  16  16  16
#     4   9  18  34  55  77 104 141 180 218 267 327
#     4   9  19  35  52  71 100 140 181 218 263 323
#     4  10  21  37  57  82 111 144 183 226 272 325
#     4  10  20  35  56  80 108 142 178 219 266 317
#     4  10  20  32  52  80 107 134 174 227 273 312
#     4  10  21  36  56  82 110 142 181 226 277 332
#     4   9  17  31  51  75 104 139 177 213 257 315
#
# _framework density 18.916066000000001
#
# number of rings (size 3 to 8) (size 9 to 14) (size 15 to 20)
#    0.000    2.385    0.000    2.769    1.077    6.462 
#    0.000    1.923    0.000    3.692    0.000    0.000 
#    0.000    0.000    0.000    0.000    0.000    0.000 
#
# Total GULP energy -644754.367989 kJ/mol
# GULP energy per Si atom -12399.122461 kJ/mol
# Density = 1.887301 g / cm^3
# Si number density = 18.916066 Si / 1000 Ang^3
#
#
#
# Elastic Constant Matrix: (Units=GPa)
#
#
# Indices 1 2 3 4 5 6 
#
# 1 121.1764 36.0555 61.5738 0.0000 0.0000 0.0000
# 2 36.0555 37.8451 35.1117 0.0000 0.0000 0.0000
# 3 61.5738 35.1117 123.5671 0.0000 0.0000 0.0000
# 4 0.0000 0.0000 0.0000 24.9529 0.0000 0.0000
# 5 0.0000 0.0000 0.0000 0.0000 36.1739 0.0000
# 6 0.0000 0.0000 0.0000 0.0000 0.0000 25.5229
#
#
#
# Elastic Compliance Matrix: (Units=1/GPa)
#
#
# Indices 1 2 3 4 5 6 
#
# 1 0.012799 -0.008523 -0.003956 0.000000 0.000000 0.000000
# 2 -0.008523 0.041560 -0.007562 0.000000 0.000000 0.000000
# 3 -0.003956 -0.007562 0.012213 0.000000 0.000000 0.000000
# 4 0.000000 0.000000 0.000000 0.040076 0.000000 0.000000
# 5 0.000000 0.000000 0.000000 0.000000 0.027644 0.000000
# 6 0.000000 0.000000 0.000000 0.000000 0.000000 0.039181
#
#
# Mechanical properties :
#
#
# Convention : Reuss Voigt Hill
#
# Bulk Modulus (GPa) = 37.75176 60.89671 49.32424
# Shear Modulus (GPa) = 22.48375 27.31976 24.90176
#
# Velocity S-wave (km/s) = 3.45136 3.80447 3.63221
# Velocity P-wave (km/s) = 5.99027 7.18064 6.61230
#
# Compressibility (1/GPa) = 0.02648883
#
# Stress axis : x y z
#
# Youngs Moduli (GPa) = 78.13409 24.06175 81.88268
#
# Poissons Ratio (x) = 0.20509 0.32389
# Poissons Ratio (y) = 0.66597 0.61920
# Poissons Ratio (z) = 0.30907 0.18195
#
# Static dielectric constant tensor:
#      x y z
#    x 3.621580 0.000000 0.000000 
#    y 0.000000 3.221230 0.000000 
#    z 0.000000 0.000000 3.512640 
# 
# 
# High freq. dielectric constant tensor:
#      x y z
#    x 1.745800 0.000000 0.000000 
#    y 0.000000 1.703510 0.000000 
#    z 0.000000 0.000000 1.741750 
# 
# From -- ./inp_files/69944.got.cif
#   From: 2010.06.25/outbox.cif.g09.slc.cpg/sg71_35_cif.got.tgz:69944.got - 2010.06.28 04:59:45.
