data_PCOD8289583
_publ_section_title
;
Structure prediction by ZEFSAII (Michael W. Deem and Ramdas Pophale) SiO2 
 PCOD8289583
Probable space group: I M M M
;
_chemical_formula_sum "Si O2"
_cell_formula_units_Z 104
_cell_length_a 27.284963
_cell_length_b 19.935824
_cell_length_c 9.175594
_cell_angle_alpha 90.000000
_cell_angle_beta 90.000000
_cell_angle_gamma 90.000000
_cell_volume 4991.048026
_symmetry_space_group_name_H-M "I M M M"
_symmetry_group_IT_number 71
_symmetry_cell_setting 'orthorhombic'
loop_
_space_group_symop_operation_xyz
x,y,z
-x,-y,z
x,-y,-z
-x,y,-z
-x,-y,-z
x,y,-z
-x,y,z
x,-y,z
1/2+x,1/2+y,1/2+z
1/2-x,1/2-y,1/2+z
1/2+x,1/2-y,1/2-z
1/2-x,1/2+y,1/2-z
1/2-x,1/2-y,1/2-z
1/2+x,1/2+y,1/2-z
1/2-x,1/2+y,1/2+z
1/2+x,1/2-y,1/2+z
loop_
_atom_site_type_symbol
_atom_site_label
_atom_site_fract_x
_atom_site_fract_y
_atom_site_fract_z
Si Si1 0.222629 0.137890 0.172022
Si Si2 0.932739 0.000000 0.164479
Si Si3 0.500000 0.922111 0.827111
Si Si4 0.682102 0.500000 0.662746
Si Si5 0.304133 0.074990 0.669174
Si Si6 0.946315 0.132470 0.665389
Si Si7 0.405432 0.869011 0.667226
Si Si8 0.868626 0.778637 0.830180
O O1 0.276198 0.135980 0.247208
O O2 0.187100 0.199951 0.217260
O O3 0.199067 0.069153 0.237177
O O4 0.230087 0.137778 0.000000
O O5 0.952389 0.936065 0.248436
O O6 0.875254 0.000000 0.162959
O O7 0.953408 0.000000 0.000000
O O8 0.451861 0.884668 0.767703
O O9 0.500000 0.000000 0.777348
O O10 0.500000 0.915779 0.000000
O O11 0.703569 0.500000 0.500000
O O12 0.293694 0.086822 0.500000
O O13 0.362446 0.077824 0.698938
O O14 0.287090 0.000000 0.719255
O O15 0.929429 0.118253 0.500000
O O16 0.907339 0.179748 0.740143
O O17 0.000000 0.167686 0.667793
O O18 0.423377 0.871567 0.500000
O O19 0.379728 0.798268 0.703456
O O20 0.875377 0.796692 0.000000
#
# Coordination Sequence:
#
# PCOD8289583 Si02
#       8
#    16   8   8   8  16  16  16  16
#     4  10  19  35  58  85 118 157 202 251 299 355
#     4  11  20  36  59  82 110 152 207 261 305 362
#     4  11  25  45  71 101 129 158 201 256 315 377
#     4   9  16  30  52  79 110 147 195 248 297 342
#     4  10  21  37  59  90 124 158 202 256 311 369
#     4  11  24  38  53  79 117 156 197 255 320 372
#     4  10  23  43  66  93 126 165 207 253 308 374
#     4  10  22  40  61  86 117 161 212 253 299 370
#
# _framework density 20.837306000000002
#
# number of rings (size 3 to 8) (size 9 to 14) (size 15 to 20)
#    0.000    1.769    2.308    1.615    1.077    5.846 
#    0.000    0.000    0.000    0.000    0.000    0.000 
#    0.000    0.000    0.000    0.000    0.000    0.000 
#
# Total GULP energy -644497.847450 kJ/mol
# GULP energy per Si atom -12394.189374 kJ/mol
# Density = 2.078988 g / cm^3
# Si number density = 20.837306 Si / 1000 Ang^3
#
#
#
# Elastic Constant Matrix: (Units=GPa)
#
#
# Indices 1 2 3 4 5 6 
#
# 1 116.7199 42.8813 50.6152 0.0000 0.0000 0.0000
# 2 42.8813 86.0333 46.8284 0.0000 0.0000 0.0000
# 3 50.6152 46.8284 83.8462 0.0000 0.0000 0.0000
# 4 0.0000 0.0000 0.0000 38.9337 0.0000 0.0000
# 5 0.0000 0.0000 0.0000 0.0000 23.5664 0.0000
# 6 0.0000 0.0000 0.0000 0.0000 0.0000 33.6102
#
#
#
# Elastic Compliance Matrix: (Units=1/GPa)
#
#
# Indices 1 2 3 4 5 6 
#
# 1 0.012107 -0.002954 -0.005658 0.000000 0.000000 0.000000
# 2 -0.002954 0.017421 -0.007946 0.000000 0.000000 0.000000
# 3 -0.005658 -0.007946 0.019780 0.000000 0.000000 0.000000
# 4 0.000000 0.000000 0.000000 0.025685 0.000000 0.000000
# 5 0.000000 0.000000 0.000000 0.000000 0.042433 0.000000
# 6 0.000000 0.000000 0.000000 0.000000 0.000000 0.029753
#
#
# Mechanical properties :
#
#
# Convention : Reuss Voigt Hill
#
# Bulk Modulus (GPa) = 61.76611 63.02768 62.39690
# Shear Modulus (GPa) = 26.92604 28.97370 27.94987
#
# Velocity S-wave (km/s) = 3.59862 3.73295 3.66640
# Velocity P-wave (km/s) = 6.85370 6.99236 6.92338
#
# Compressibility (1/GPa) = 0.01619011
#
# Stress axis : x y z
#
# Youngs Moduli (GPa) = 82.59926 57.40138 50.55509
#
# Poissons Ratio (x) = 0.16959 0.28606
# Poissons Ratio (y) = 0.24403 0.40173
# Poissons Ratio (z) = 0.46737 0.45613
#
# Static dielectric constant tensor:
#      x y z
#    x 3.886420 0.000000 0.000000 
#    y 0.000000 -42.777770 0.000000 
#    z 0.000000 0.000000 3.682230 
# 
# 
# High freq. dielectric constant tensor:
#      x y z
#    x 1.830800 0.000000 0.000000 
#    y 0.000000 1.812560 0.000000 
#    z 0.000000 0.000000 1.800020 
# 
# From -- ./inp_files/15085.got.cif
#   From: 2010.06.25/outbox.cif.g09.slc.cpg/sg71_8_cif.got.tgz:15085.got - 2010.06.28 04:59:45.
