data_PCOD8289796
_publ_section_title
;
Structure prediction by ZEFSAII (Michael W. Deem and Ramdas Pophale) SiO2 
 PCOD8289796
Probable space group: I M M M
;
_chemical_formula_sum "Si O2"
_cell_formula_units_Z 88
_cell_length_a 18.940345
_cell_length_b 27.615932
_cell_length_c 9.622043
_cell_angle_alpha 90.000000
_cell_angle_beta 90.000000
_cell_angle_gamma 90.000000
_cell_volume 5032.860391
_symmetry_space_group_name_H-M "I M M M"
_symmetry_group_IT_number 71
_symmetry_cell_setting 'orthorhombic'
loop_
_space_group_symop_operation_xyz
x,y,z
-x,-y,z
x,-y,-z
-x,y,-z
-x,-y,-z
x,y,-z
-x,y,z
x,-y,z
1/2+x,1/2+y,1/2+z
1/2-x,1/2-y,1/2+z
1/2+x,1/2-y,1/2-z
1/2-x,1/2+y,1/2-z
1/2-x,1/2-y,1/2-z
1/2+x,1/2+y,1/2-z
1/2-x,1/2+y,1/2+z
1/2+x,1/2-y,1/2+z
loop_
_atom_site_type_symbol
_atom_site_label
_atom_site_fract_x
_atom_site_fract_y
_atom_site_fract_z
Si Si1 0.822676 0.683394 0.659645
Si Si2 0.849808 0.573934 0.654118
Si Si3 0.417930 0.000000 0.652220
Si Si4 0.169704 0.155946 0.163087
Si Si5 0.687116 0.447953 0.659649
Si Si6 0.919019 0.246082 0.837379
O O1 0.823854 0.701689 0.500000
O O2 0.858203 0.631125 0.673417
O O3 0.742281 0.680493 0.719098
O O4 0.868151 0.719246 0.752656
O O5 0.875423 0.559111 0.500000
O O6 0.898025 0.548560 0.767111
O O7 0.770579 0.556243 0.675520
O O8 0.500000 0.000000 0.631558
O O9 0.381315 0.000000 0.500000
O O10 0.154646 0.101768 0.227057
O O11 0.103613 0.190548 0.194056
O O12 0.183711 0.147780 0.000000
O O13 0.664054 0.450583 0.500000
O O14 0.663531 0.500000 0.729325
O O15 0.000000 0.252377 0.789813
O O16 0.909952 0.257604 0.000000
#
# Coordination Sequence:
#
# PCOD8289796 Si02
#       6
#    16  16   8  16  16  16
#     4   9  18  32  52  73  90 115 159 209 240 266
#     4   9  17  31  49  67  85 109 150 197 233 266
#     4  11  23  33  41  59  91 127 154 179 220 276
#     4   8  15  28  46  70  96 122 155 194 236 279
#     4   8  12  22  46  73  90 107 142 191 233 267
#     4  10  20  32  46  66  97 133 159 185 233 293
#
# _framework density 17.485087
#
# number of rings (size 3 to 8) (size 9 to 14) (size 15 to 20)
#    0.000    3.000    0.909    3.000    0.000    2.545 
#    0.000    3.636    0.000    1.636    0.000    3.818 
#    0.000    0.000    0.000    1.636    0.000    1.818 
#
# Total GULP energy -545101.208526 kJ/mol
# GULP energy per Si atom -12388.663830 kJ/mol
# Density = 1.744529 g / cm^3
# Si number density = 17.485087 Si / 1000 Ang^3
#
#
#
# Elastic Constant Matrix: (Units=GPa)
#
#
# Indices 1 2 3 4 5 6 
#
# 1 43.9397 29.0402 14.3409 0.0000 0.0000 0.0000
# 2 29.0402 118.7434 24.4586 0.0000 0.0000 0.0000
# 3 14.3409 24.4586 50.8734 0.0001 0.0001 0.0000
# 4 0.0000 0.0000 0.0001 12.7656 0.0000 0.0000
# 5 0.0000 0.0000 0.0001 0.0000 15.2781 0.0000
# 6 0.0000 0.0000 0.0000 0.0000 0.0000 34.6439
#
#
#
# Elastic Compliance Matrix: (Units=1/GPa)
#
#
# Indices 1 2 3 4 5 6 
#
# 1 0.028318 -0.005862 -0.005165 0.000000 0.000000 0.000000
# 2 -0.005862 0.010561 -0.003425 0.000000 0.000000 0.000000
# 3 -0.005165 -0.003425 0.022759 0.000000 0.000000 0.000000
# 4 0.000000 0.000000 0.000000 0.078336 0.000000 0.000000
# 5 0.000000 0.000000 0.000000 0.000000 0.065453 0.000000
# 6 0.000000 0.000000 0.000000 0.000000 0.000000 0.028865
#
#
# Mechanical properties :
#
#
# Convention : Reuss Voigt Hill
#
# Bulk Modulus (GPa) = 30.54789 38.80399 34.67594
# Shear Modulus (GPa) = 18.24113 22.25197 20.24655
#
# Velocity S-wave (km/s) = 3.23343 3.57126 3.40653
# Velocity P-wave (km/s) = 5.60792 6.26466 5.94537
#
# Compressibility (1/GPa) = 0.03273548
#
# Stress axis : x y z
#
# Youngs Moduli (GPa) = 35.31302 94.69215 43.93862
#
# Poissons Ratio (x) = 0.55507 0.22692
# Poissons Ratio (y) = 0.20700 0.15048
# Poissons Ratio (z) = 0.18237 0.32430
#
# Static dielectric constant tensor:
#      x y z
#    x 2.980320 0.000000 0.000000 
#    y 0.000000 3.593420 0.000000 
#    z 0.000000 0.000000 2.952080 
# 
# 
# High freq. dielectric constant tensor:
#      x y z
#    x 1.644200 0.000000 0.000000 
#    y 0.000000 1.697980 0.000000 
#    z 0.000000 0.000000 1.631460 
# 
# From -- ./inp_files/8832.got.cif
#   From: 2010.06.25/outbox.cif.g09.slc.cpg/sg71_5_cif.got.tgz:8832.got - 2010.06.28 04:59:45.
