data_PCOD8289390
_publ_section_title
;
Structure prediction by ZEFSAII (Michael W. Deem and Ramdas Pophale) SiO2 
 PCOD8289390
Probable space group: I M M M
;
_chemical_formula_sum "Si O2"
_cell_formula_units_Z 72
_cell_length_a 12.582998
_cell_length_b 18.639654
_cell_length_c 16.872480
_cell_angle_alpha 90.000000
_cell_angle_beta 90.000000
_cell_angle_gamma 90.000000
_cell_volume 3957.317504
_symmetry_space_group_name_H-M "I M M M"
_symmetry_group_IT_number 71
_symmetry_cell_setting 'orthorhombic'
loop_
_space_group_symop_operation_xyz
x,y,z
-x,-y,z
x,-y,-z
-x,y,-z
-x,-y,-z
x,y,-z
-x,y,z
x,-y,z
1/2+x,1/2+y,1/2+z
1/2-x,1/2-y,1/2+z
1/2+x,1/2-y,1/2-z
1/2-x,1/2+y,1/2-z
1/2-x,1/2-y,1/2-z
1/2+x,1/2+y,1/2-z
1/2-x,1/2+y,1/2+z
1/2+x,1/2-y,1/2+z
loop_
_atom_site_type_symbol
_atom_site_label
_atom_site_fract_x
_atom_site_fract_y
_atom_site_fract_z
Si Si1 0.164287 0.662420 0.700564
Si Si2 0.836465 0.916891 0.413679
Si Si3 0.500000 0.084370 0.906474
Si Si4 0.114316 0.580635 0.145284
Si Si5 0.383765 0.323135 0.767737
O O1 0.114878 0.634944 0.781877
O O2 0.293389 0.652022 0.704393
O O3 0.140961 0.746332 0.693789
O O4 0.107925 0.620303 0.628465
O O5 0.878704 0.891377 0.500000
O O6 0.709280 0.902580 0.414775
O O7 0.891819 0.875713 0.342638
O O8 0.862883 0.000000 0.401412
O O9 0.500000 0.000000 0.886059
O O10 0.500000 0.097844 0.000000
O O11 0.127096 0.500000 0.179524
O O12 0.000000 0.589267 0.101669
O O13 0.500000 0.323919 0.725843
#
# Coordination Sequence:
#
# PCOD8289390 Si02
#       5
#    16  16   8  16  16
#     4  10  19  34  54  79 109 134 176 226 268 325
#     4   9  19  32  44  67 103 139 176 213 251 303
#     4  11  22  36  58  86 114 144 180 231 290 332
#     4   9  15  26  49  73  97 133 169 210 261 305
#     4  10  20  34  54  78 104 143 179 220 270 322
#
# _framework density 18.194143
#
# number of rings (size 3 to 8) (size 9 to 14) (size 15 to 20)
#    0.000    2.333    2.222    0.667    0.000    3.111 
#    0.000    3.333    0.000    0.667    0.000    1.556 
#    0.000    0.000    0.000    0.000    0.000    0.000 
#
# Total GULP energy -446045.721804 kJ/mol
# GULP energy per Si atom -12390.158939 kJ/mol
# Density = 1.815273 g / cm^3
# Si number density = 18.194143 Si / 1000 Ang^3
#
#
#
# Elastic Constant Matrix: (Units=GPa)
#
#
# Indices 1 2 3 4 5 6 
#
# 1 161.6345 23.9118 31.8238 0.0000 0.0000 0.0000
# 2 23.9118 76.8076 38.9663 0.0000 0.0000 0.0000
# 3 31.8238 38.9663 78.0582 0.0001 0.0000 0.0000
# 4 0.0000 0.0000 0.0001 9.9378 0.0000 0.0000
# 5 0.0000 0.0000 0.0000 0.0000 11.9671 0.0000
# 6 0.0000 0.0000 0.0000 0.0000 0.0000 21.0607
#
#
#
# Elastic Compliance Matrix: (Units=1/GPa)
#
#
# Indices 1 2 3 4 5 6 
#
# 1 0.006778 -0.000948 -0.002290 0.000000 0.000000 0.000000
# 2 -0.000948 0.017568 -0.008383 0.000000 0.000000 0.000000
# 3 -0.002290 -0.008383 0.017929 0.000000 0.000000 0.000000
# 4 0.000000 0.000000 0.000000 0.100626 0.000000 0.000000
# 5 0.000000 0.000000 0.000000 0.000000 0.083563 0.000000
# 6 0.000000 0.000000 0.000000 0.000000 0.000000 0.047482
#
#
# Mechanical properties :
#
#
# Convention : Reuss Voigt Hill
#
# Bulk Modulus (GPa) = 52.54231 56.21155 54.37693
# Shear Modulus (GPa) = 16.47270 23.37967 19.92619
#
# Velocity S-wave (km/s) = 3.01223 3.58859 3.31297
# Velocity P-wave (km/s) = 6.40620 6.93781 6.67730
#
# Compressibility (1/GPa) = 0.01903228
#
# Stress axis : x y z
#
# Youngs Moduli (GPa) = 147.53717 56.92254 55.77460
#
# Poissons Ratio (x) = 0.05399 0.12772
# Poissons Ratio (y) = 0.13993 0.46756
# Poissons Ratio (z) = 0.33784 0.47719
#
# Static dielectric constant tensor:
#      x y z
#    x 3.758330 0.000000 0.000000 
#    y 0.000000 3.428280 0.000000 
#    z 0.000000 0.000000 3.052520 
# 
# 
# High freq. dielectric constant tensor:
#      x y z
#    x 1.725060 0.000000 0.000000 
#    y 0.000000 1.707360 0.000000 
#    z 0.000000 0.000000 1.661360 
# 
# From -- ./inp_files/43193.got.cif
#   From: 2010.06.25/outbox.cif.g09.slc.cpg/sg71_22_cif.got.tgz:43193.got - 2010.06.28 04:59:45.
