data_PCOD8289916
_publ_section_title
;
Structure prediction by ZEFSAII (Michael W. Deem and Ramdas Pophale) SiO2 
 PCOD8289916
Probable space group: I M M M
;
_chemical_formula_sum "Si O2"
_cell_formula_units_Z 104
_cell_length_a 9.520933
_cell_length_b 17.130727
_cell_length_c 32.842477
_cell_angle_alpha 90.000000
_cell_angle_beta 90.000000
_cell_angle_gamma 90.000000
_cell_volume 5356.624552
_symmetry_space_group_name_H-M "I M M M"
_symmetry_group_IT_number 71
_symmetry_cell_setting 'orthorhombic'
loop_
_space_group_symop_operation_xyz
x,y,z
-x,-y,z
x,-y,-z
-x,y,-z
-x,-y,-z
x,y,-z
-x,y,z
x,-y,z
1/2+x,1/2+y,1/2+z
1/2-x,1/2-y,1/2+z
1/2+x,1/2-y,1/2-z
1/2-x,1/2+y,1/2-z
1/2-x,1/2-y,1/2-z
1/2+x,1/2+y,1/2-z
1/2-x,1/2+y,1/2+z
1/2+x,1/2-y,1/2+z
loop_
_atom_site_type_symbol
_atom_site_label
_atom_site_fract_x
_atom_site_fract_y
_atom_site_fract_z
Si Si1 0.340607 0.411395 0.767729
Si Si2 0.836621 0.658760 0.836776
Si Si3 0.843124 0.092912 0.045095
Si Si4 0.337721 0.091088 0.423070
Si Si5 0.840073 0.907205 0.500000
Si Si6 0.663598 0.334848 0.684499
Si Si7 0.156045 0.408243 0.382925
O O1 0.500000 0.395379 0.781285
O O2 0.321603 0.500000 0.752221
O O3 0.244126 0.398592 0.806702
O O4 0.298364 0.352898 0.731291
O O5 0.794228 0.639621 0.883077
O O6 0.794331 0.746900 0.826246
O O7 0.000000 0.643186 0.829738
O O8 0.736125 0.128812 0.078047
O O9 0.000000 0.124357 0.054595
O O10 0.844396 0.000000 0.047410
O O11 0.795754 0.120120 0.000000
O O12 0.500000 0.105524 0.434812
O O13 0.241298 0.122762 0.459855
O O14 0.310675 0.000000 0.414255
O O15 0.000000 0.875544 0.500000
O O16 0.837508 0.000000 0.500000
O O17 0.500000 0.351952 0.675762
O O18 0.756773 0.391913 0.657498
O O19 0.144305 0.500000 0.388649
O O20 0.000000 0.371423 0.380185
#
# Coordination Sequence:
#
# PCOD8289916 Si02
#       7
#    16  16  16  16   8  16  16
#     4  10  21  36  55  80 108 140 178 221 271 322
#     4  10  21  36  56  81 108 141 181 222 266 318
#     4   8  14  26  46  71  97 127 165 210 261 315
#     4   9  17  31  52  78 108 140 174 216 265 312
#     4   9  17  29  49  79 109 137 174 217 260 309
#     4  10  21  37  55  75 105 143 182 219 262 319
#     4  10  20  32  49  75 103 133 173 221 271 319
#
# _framework density 19.415210999999999
#
# number of rings (size 3 to 8) (size 9 to 14) (size 15 to 20)
#    0.000    2.538    0.000    2.538    0.000    5.538 
#    0.000    3.077    1.692    0.000    0.000    0.000 
#    0.000    0.000    0.000    0.000    0.000    0.000 
#
# Total GULP energy -644827.882431 kJ/mol
# GULP energy per Si atom -12400.536201 kJ/mol
# Density = 1.937102 g / cm^3
# Si number density = 19.415211 Si / 1000 Ang^3
#
#
#
# Elastic Constant Matrix: (Units=GPa)
#
#
# Indices 1 2 3 4 5 6 
#
# 1 101.3568 24.9037 78.7417 0.0000 0.0000 0.0000
# 2 24.9037 47.9924 40.2192 0.0000 0.0000 0.0000
# 3 78.7417 40.2192 153.6448 0.0000 0.0000 0.0000
# 4 0.0000 0.0000 0.0000 14.8770 0.0000 0.0000
# 5 0.0000 0.0000 0.0000 0.0000 32.3271 0.0000
# 6 0.0000 0.0000 0.0000 0.0000 0.0000 19.1250
#
#
#
# Elastic Compliance Matrix: (Units=1/GPa)
#
#
# Indices 1 2 3 4 5 6 
#
# 1 0.016526 -0.001893 -0.007974 0.000000 0.000000 0.000000
# 2 -0.001893 0.026909 -0.006074 0.000000 0.000000 0.000000
# 3 -0.007974 -0.006074 0.012185 0.000000 0.000000 0.000000
# 4 0.000000 0.000000 0.000000 0.067218 0.000000 0.000000
# 5 0.000000 0.000000 0.000000 0.000000 0.030934 0.000000
# 6 0.000000 0.000000 0.000000 0.000000 0.000000 0.052288
#
#
# Mechanical properties :
#
#
# Convention : Reuss Voigt Hill
#
# Bulk Modulus (GPa) = 42.12563 65.63590 53.88076
# Shear Modulus (GPa) = 20.33734 23.87445 22.10589
#
# Velocity S-wave (km/s) = 3.24001 3.51048 3.37796
# Velocity P-wave (km/s) = 5.97840 7.09303 6.55943
#
# Compressibility (1/GPa) = 0.02373852
#
# Stress axis : x y z
#
# Youngs Moduli (GPa) = 60.51065 37.16242 82.06845
#
# Poissons Ratio (x) = 0.07035 0.65440
# Poissons Ratio (y) = 0.11456 0.49845
# Poissons Ratio (z) = 0.48250 0.22571
#
# Static dielectric constant tensor:
#      x y z
#    x 3.675470 0.000000 0.000000 
#    y 0.000000 3.227250 0.000000 
#    z 0.000000 0.000000 3.625530 
# 
# 
# High freq. dielectric constant tensor:
#      x y z
#    x 1.754020 0.000000 0.000000 
#    y 0.000000 1.724000 0.000000 
#    z 0.000000 0.000000 1.765040 
# 
# From -- ./inp_files/63338.got.cif
#   From: 2010.06.25/outbox.cif.g09.slc.cpg/sg71_32_cif.got.tgz:63338.got - 2010.06.28 04:59:45.
