data_PCOD8289219
_publ_section_title
;
Structure prediction by ZEFSAII (Michael W. Deem and Ramdas Pophale) SiO2 
 PCOD8289219
Probable space group: I M M M
;
_chemical_formula_sum "Si O2"
_cell_formula_units_Z 96
_cell_length_a 22.801405
_cell_length_b 13.350630
_cell_length_c 15.854545
_cell_angle_alpha 90.000000
_cell_angle_beta 90.000000
_cell_angle_gamma 90.000000
_cell_volume 4826.331536
_symmetry_space_group_name_H-M "I M M M"
_symmetry_group_IT_number 71
_symmetry_cell_setting 'orthorhombic'
loop_
_space_group_symop_operation_xyz
x,y,z
-x,-y,z
x,-y,-z
-x,y,-z
-x,-y,-z
x,y,-z
-x,y,z
x,-y,z
1/2+x,1/2+y,1/2+z
1/2-x,1/2-y,1/2+z
1/2+x,1/2-y,1/2-z
1/2-x,1/2+y,1/2-z
1/2-x,1/2-y,1/2-z
1/2+x,1/2+y,1/2-z
1/2-x,1/2+y,1/2+z
1/2+x,1/2-y,1/2+z
loop_
_atom_site_type_symbol
_atom_site_label
_atom_site_fract_x
_atom_site_fract_y
_atom_site_fract_z
Si Si1 0.868084 0.187165 0.823801
Si Si2 0.739808 0.886619 0.169360
Si Si3 0.174739 0.386533 0.845285
Si Si4 0.887482 0.194360 0.500000
Si Si5 0.933075 0.115952 0.671429
Si Si6 0.239707 0.112663 0.500000
Si Si7 0.565782 0.500000 0.598534
Si Si8 0.831075 0.385002 0.500000
O O1 0.798063 0.178744 0.824801
O O2 0.876879 0.302230 0.857459
O O3 0.891063 0.182884 0.728644
O O4 0.900744 0.101874 0.877232
O O5 0.700275 0.870084 0.251666
O O6 0.705772 0.859151 0.083910
O O7 0.761989 0.000000 0.165054
O O8 0.149435 0.500000 0.855005
O O9 0.223682 0.366551 0.915746
O O10 0.920633 0.143628 0.576341
O O11 0.817610 0.180103 0.500000
O O12 0.890244 0.316059 0.500000
O O13 0.000000 0.139909 0.693476
O O14 0.918354 0.000000 0.688951
O O15 0.216122 0.000000 0.500000
O O16 0.500000 0.500000 0.639068
O O17 0.560177 0.500000 0.500000
O O18 0.851869 0.500000 0.500000
#
# Coordination Sequence:
#
# PCOD8289219 Si02
#       8
#    16  16  16   8  16   8   8   8
#     4  12  21  37  63  81 115 156 192 235 298 340
#     4  10  19  33  53  86 121 156 195 229 280 350
#     4  10  22  36  55  87 125 157 191 232 276 353
#     4  12  21  35  59  84 113 159 193 226 288 344
#     4  11  23  39  58  84 112 143 191 248 297 338
#     4  10  20  35  55  85 126 154 188 227 274 342
#     4  11  26  42  60  87 111 141 197 256 302 341
#     4  10  22  35  54  83 125 154 186 234 274 345
#
# _framework density 19.890884
#
# number of rings (size 3 to 8) (size 9 to 14) (size 15 to 20)
#    0.000    1.250    1.667    5.000    2.333    2.000 
#    0.000    0.000    0.000    4.000    0.000    1.167 
#    0.000    0.000    0.000    0.000    0.000    0.000 
#
# Total GULP energy -595027.831567 kJ/mol
# GULP energy per Si atom -12396.413158 kJ/mol
# Density = 1.984561 g / cm^3
# Si number density = 19.890884 Si / 1000 Ang^3
#
#
#
# Elastic Constant Matrix: (Units=GPa)
#
#
# Indices 1 2 3 4 5 6 
#
# 1 49.0302 49.5968 11.9073 0.0000 0.0000 0.0000
# 2 49.5968 137.2530 14.2034 0.0000 0.0000 0.0000
# 3 11.9073 14.2034 103.7673 0.0000 0.0000 0.0000
# 4 0.0000 0.0000 0.0000 18.5970 0.0000 0.0000
# 5 0.0000 0.0000 0.0000 0.0000 391.8940 0.0000
# 6 0.0000 0.0000 0.0000 0.0000 0.0000 23.4259
#
#
#
# Elastic Compliance Matrix: (Units=1/GPa)
#
#
# Indices 1 2 3 4 5 6 
#
# 1 0.032616 -0.011562 -0.002160 0.000000 0.000000 0.000000
# 2 -0.011562 0.011489 -0.000246 0.000000 0.000000 0.000000
# 3 -0.002160 -0.000246 0.009918 0.000000 0.000000 0.000000
# 4 0.000000 0.000000 0.000000 0.053772 0.000000 0.000000
# 5 0.000000 0.000000 0.000000 0.000000 0.002552 0.000000
# 6 0.000000 0.000000 0.000000 0.000000 0.000000 0.042688
#
#
# Mechanical properties :
#
#
# Convention : Reuss Voigt Hill
#
# Bulk Modulus (GPa) = 38.33279 49.05175 43.69227
# Shear Modulus (GPa) = 26.36186 101.07294 63.71740
#
# Velocity S-wave (km/s) = 3.64445 7.13611 5.66595
# Velocity P-wave (km/s) = 6.08463 9.62355 8.05094
#
# Compressibility (1/GPa) = 0.02608733
#
# Stress axis : x y z
#
# Youngs Moduli (GPa) = 30.65961 87.03696 100.82207
#
# Poissons Ratio (x) = 1.00636 0.21778
# Poissons Ratio (y) = 0.35450 0.02479
# Poissons Ratio (z) = 0.06623 0.02140
#
# Static dielectric constant tensor:
#      x y z
#    x 3.290520 0.000000 0.000000 
#    y 0.000000 4.028940 0.000000 
#    z 0.000000 0.000000 3.763730 
# 
# 
# High freq. dielectric constant tensor:
#      x y z
#    x 1.734110 0.000000 0.000000 
#    y 0.000000 1.796510 0.000000 
#    z 0.000000 0.000000 1.796110 
# 
# From -- ./inp_files/37884.got.cif
#   From: 2010.06.25/outbox.cif.g09.slc.cpg/sg71_19_cif.got.tgz:37884.got - 2010.06.28 04:59:45.
