data_PCOD8289904
_publ_section_title
;
Structure prediction by ZEFSAII (Michael W. Deem and Ramdas Pophale) SiO2 
 PCOD8289904
Probable space group: I M M M
;
_chemical_formula_sum "Si O2"
_cell_formula_units_Z 104
_cell_length_a 9.162089
_cell_length_b 23.672145
_cell_length_c 27.493627
_cell_angle_alpha 90.000000
_cell_angle_beta 90.000000
_cell_angle_gamma 90.000000
_cell_volume 5962.991015
_symmetry_space_group_name_H-M "I M M M"
_symmetry_group_IT_number 71
_symmetry_cell_setting 'orthorhombic'
loop_
_space_group_symop_operation_xyz
x,y,z
-x,-y,z
x,-y,-z
-x,y,-z
-x,-y,-z
x,y,-z
-x,y,z
x,-y,z
1/2+x,1/2+y,1/2+z
1/2-x,1/2-y,1/2+z
1/2+x,1/2-y,1/2-z
1/2-x,1/2+y,1/2-z
1/2-x,1/2-y,1/2-z
1/2+x,1/2+y,1/2-z
1/2-x,1/2+y,1/2+z
1/2+x,1/2-y,1/2+z
loop_
_atom_site_type_symbol
_atom_site_label
_atom_site_fract_x
_atom_site_fract_y
_atom_site_fract_z
Si Si1 0.660582 0.066867 0.500000
Si Si2 0.827842 0.757863 0.800940
Si Si3 0.835480 0.731778 0.056468
Si Si4 0.833561 0.157987 0.884891
Si Si5 0.666264 0.325393 0.864841
Si Si6 0.834063 0.937575 0.592656
Si Si7 0.171834 0.565073 0.444687
O O1 0.500000 0.094322 0.500000
O O2 0.740464 0.087374 0.451653
O O3 0.654728 0.000000 0.500000
O O4 0.750000 0.750000 0.750000
O O5 0.779766 0.812882 0.833418
O O6 0.782630 0.700963 0.828488
O O7 0.000000 0.758949 0.793034
O O8 0.817191 0.796512 0.072508
O O9 0.710806 0.694124 0.081199
O O10 0.000000 0.711767 0.070454
O O11 0.806248 0.726988 0.000000
O O12 0.742866 0.103510 0.902281
O O13 0.000000 0.138391 0.878142
O O14 0.500000 0.306456 0.853066
O O15 0.680161 0.393730 0.862590
O O16 0.000000 0.940565 0.574240
O O17 0.780968 0.000000 0.609547
O O18 0.223840 0.580573 0.500000
O O19 0.213520 0.500000 0.433747
O O20 0.000000 0.573914 0.441114
#
# Coordination Sequence:
#
# PCOD8289904 Si02
#       7
#     8  16  16  16  16  16  16
#     4   9  17  27  41  63  89 123 167 205 236 273
#     4  10  21  38  58  78 100 124 156 203 258 309
#     4   9  18  31  45  65  98 135 165 203 252 294
#     4   9  18  32  50  73  99 128 165 205 247 297
#     4  10  20  32  49  73  97 125 166 205 244 299
#     4   9  18  32  47  64  93 131 166 202 241 282
#     4   9  18  31  47  72 108 146 179 209 242 284
#
# _framework density 17.440912999999998
#
# number of rings (size 3 to 8) (size 9 to 14) (size 15 to 20)
#    0.000    2.692    0.000    3.000    1.077    6.769 
#    0.000    0.769    0.000    0.923    0.000    2.154 
#    0.000    0.000    0.000    0.000    0.000    0.000 
#
# Total GULP energy -644281.766472 kJ/mol
# GULP energy per Si atom -12390.033971 kJ/mol
# Density = 1.740122 g / cm^3
# Si number density = 17.440913 Si / 1000 Ang^3
#
#
#
# Elastic Constant Matrix: (Units=GPa)
#
#
# Indices 1 2 3 4 5 6 
#
# 1 69.2034 40.5604 40.9429 0.0000 0.0000 0.0000
# 2 40.5604 94.9833 50.4212 0.0000 0.0000 0.0000
# 3 40.9429 50.4212 98.5373 0.0000 0.0000 0.0000
# 4 0.0000 0.0000 0.0000 19.1643 0.0000 0.0000
# 5 0.0000 0.0000 0.0000 0.0000 29.9438 0.0000
# 6 0.0000 0.0000 0.0000 0.0000 0.0000 24.5483
#
#
#
# Elastic Compliance Matrix: (Units=1/GPa)
#
#
# Indices 1 2 3 4 5 6 
#
# 1 0.021444 -0.006078 -0.005800 0.000000 0.000000 0.000000
# 2 -0.006078 0.016177 -0.005752 0.000000 0.000000 0.000000
# 3 -0.005800 -0.005752 0.015502 0.000000 0.000000 0.000000
# 4 0.000000 0.000000 0.000000 0.052180 0.000000 0.000000
# 5 0.000000 0.000000 0.000000 0.000000 0.033396 0.000000
# 6 0.000000 0.000000 0.000000 0.000000 0.000000 0.040736
#
#
# Mechanical properties :
#
#
# Convention : Reuss Voigt Hill
#
# Bulk Modulus (GPa) = 55.98438 58.50810 57.24624
# Shear Modulus (GPa) = 22.66025 23.45125 23.05575
#
# Velocity S-wave (km/s) = 3.60843 3.67087 3.63979
# Velocity P-wave (km/s) = 7.03777 7.18236 7.11043
#
# Compressibility (1/GPa) = 0.01786213
#
# Stress axis : x y z
#
# Youngs Moduli (GPa) = 46.63285 61.81480 64.50876
#
# Poissons Ratio (x) = 0.37573 0.37414
# Poissons Ratio (y) = 0.28345 0.37107
# Poissons Ratio (z) = 0.27047 0.35558
#
# Static dielectric constant tensor:
#      x y z
#    x 3.362350 0.000000 0.000000 
#    y 0.000000 3.276820 0.000000 
#    z 0.000000 0.000000 3.217520 
# 
# 
# High freq. dielectric constant tensor:
#      x y z
#    x 1.676950 0.000000 0.000000 
#    y 0.000000 1.672700 0.000000 
#    z 0.000000 0.000000 1.644510 
# 
# From -- ./inp_files/58212.got.cif
#   From: 2010.06.25/outbox.cif.g09.slc.cpg/sg71_30_cif.got.tgz:58212.got - 2010.06.28 04:59:45.
