data_PCOD8289512
_publ_section_title
;
Structure prediction by ZEFSAII (Michael W. Deem and Ramdas Pophale) SiO2 
 PCOD8289512
Probable space group: I M M M
;
_chemical_formula_sum "Si O2"
_cell_formula_units_Z 88
_cell_length_a 22.359802
_cell_length_b 11.902649
_cell_length_c 18.188180
_cell_angle_alpha 90.000000
_cell_angle_beta 90.000000
_cell_angle_gamma 90.000000
_cell_volume 4840.618138
_symmetry_space_group_name_H-M "I M M M"
_symmetry_group_IT_number 71
_symmetry_cell_setting 'orthorhombic'
loop_
_space_group_symop_operation_xyz
x,y,z
-x,-y,z
x,-y,-z
-x,y,-z
-x,-y,-z
x,y,-z
-x,y,z
x,-y,z
1/2+x,1/2+y,1/2+z
1/2-x,1/2-y,1/2+z
1/2+x,1/2-y,1/2-z
1/2-x,1/2+y,1/2-z
1/2-x,1/2-y,1/2-z
1/2+x,1/2+y,1/2-z
1/2-x,1/2+y,1/2+z
1/2+x,1/2-y,1/2+z
loop_
_atom_site_type_symbol
_atom_site_label
_atom_site_fract_x
_atom_site_fract_y
_atom_site_fract_z
Si Si1 0.328633 0.132304 0.081276
Si Si2 0.235667 0.271184 0.835243
Si Si3 0.762255 0.500000 0.914791
Si Si4 0.403886 0.000000 0.418282
Si Si5 0.095573 0.723458 0.160229
Si Si6 0.000000 0.132355 0.084236
Si Si7 0.567873 0.128728 0.812303
O O1 0.269330 0.174944 0.120722
O O2 0.389035 0.169049 0.122581
O O3 0.323139 0.000000 0.078186
O O4 0.332295 0.184441 0.000000
O O5 0.250000 0.250000 0.750000
O O6 0.258548 0.391487 0.867102
O O7 0.165663 0.256042 0.850952
O O8 0.832911 0.500000 0.919011
O O9 0.737236 0.500000 0.000000
O O10 0.428026 0.890140 0.377659
O O11 0.430291 0.000000 0.500000
O O12 0.079995 0.713283 0.245786
O O13 0.059847 0.825896 0.124696
O O14 0.000000 0.000000 0.089479
O O15 0.000000 0.173643 0.000000
O O16 0.500000 0.139194 0.840363
O O17 0.582783 0.000000 0.788752
#
# Coordination Sequence:
#
# PCOD8289512 Si02
#       7
#    16  16   8   8  16   8  16
#     4  10  22  38  58  86 120 153 190 235 289 351
#     4  11  22  35  61  88 116 152 194 240 291 349
#     4   9  20  36  53  80 120 153 183 235 299 349
#     4   9  18  31  54  85 108 133 180 239 290 337
#     4  11  20  36  58  83 111 148 191 236 286 338
#     4  11  26  43  55  75 116 162 198 232 275 334
#     4  10  19  34  59  86 114 143 182 237 295 341
#
# _framework density 18.179496
#
# number of rings (size 3 to 8) (size 9 to 14) (size 15 to 20)
#    0.000    1.727    3.636    1.091    1.273    3.636 
#    0.000    4.545    0.000    0.000    0.000    0.000 
#    0.000    2.909    0.000    0.000    0.000    0.000 
#
# Total GULP energy -545592.707870 kJ/mol
# GULP energy per Si atom -12399.834270 kJ/mol
# Density = 1.813812 g / cm^3
# Si number density = 18.179496 Si / 1000 Ang^3
#
#
#
# Elastic Constant Matrix: (Units=GPa)
#
#
# Indices 1 2 3 4 5 6 
#
# 1 114.0115 29.6118 51.5883 0.0000 0.0000 0.0000
# 2 29.6118 52.0715 49.6094 0.0000 0.0000 0.0000
# 3 51.5883 49.6094 164.6834 0.0000 0.0000 0.0000
# 4 0.0000 0.0000 0.0000 30.3722 0.0000 0.0000
# 5 0.0000 0.0000 0.0000 0.0000 25.4803 0.0000
# 6 0.0000 0.0000 0.0000 0.0000 0.0000 29.1363
#
#
#
# Elastic Compliance Matrix: (Units=1/GPa)
#
#
# Indices 1 2 3 4 5 6 
#
# 1 0.010809 -0.004097 -0.002152 0.000000 0.000000 0.000000
# 2 -0.004097 0.028487 -0.007298 0.000000 0.000000 0.000000
# 3 -0.002152 -0.007298 0.008945 0.000000 0.000000 0.000000
# 4 0.000000 0.000000 0.000000 0.032925 0.000000 0.000000
# 5 0.000000 0.000000 0.000000 0.000000 0.039246 0.000000
# 6 0.000000 0.000000 0.000000 0.000000 0.000000 0.034321
#
#
# Mechanical properties :
#
#
# Convention : Reuss Voigt Hill
#
# Bulk Modulus (GPa) = 47.28703 65.82062 56.55382
# Shear Modulus (GPa) = 26.47248 30.32822 28.40035
#
# Velocity S-wave (km/s) = 3.82012 4.08887 3.95678
# Velocity P-wave (km/s) = 6.74725 7.65352 7.21463
#
# Compressibility (1/GPa) = 0.02114745
#
# Stress axis : x y z
#
# Youngs Moduli (GPa) = 92.51799 35.10356 111.79594
#
# Poissons Ratio (x) = 0.14380 0.24057
# Poissons Ratio (y) = 0.37900 0.81591
# Poissons Ratio (z) = 0.19909 0.25619
#
# Static dielectric constant tensor:
#      x y z
#    x 3.304370 0.000000 0.000000 
#    y 0.000000 3.262600 0.000000 
#    z 0.000000 0.000000 3.645880 
# 
# 
# High freq. dielectric constant tensor:
#      x y z
#    x 1.701480 0.000000 0.000000 
#    y 0.000000 1.685540 0.000000 
#    z 0.000000 0.000000 1.717690 
# 
# From -- ./inp_files/23994.got.cif
#   From: 2010.06.25/outbox.cif.g09.slc.cpg/sg71_12_cif.got.tgz:23994.got - 2010.06.28 04:59:45.
