data_PCOD8289543
_publ_section_title
;
Structure prediction by ZEFSAII (Michael W. Deem and Ramdas Pophale) SiO2 
 PCOD8289543
Probable space group: I M M M
;
_chemical_formula_sum "Si O2"
_cell_formula_units_Z 88
_cell_length_a 12.886676
_cell_length_b 21.931811
_cell_length_c 16.782192
_cell_angle_alpha 90.000000
_cell_angle_beta 90.000000
_cell_angle_gamma 90.000000
_cell_volume 4743.119751
_symmetry_space_group_name_H-M "I M M M"
_symmetry_group_IT_number 71
_symmetry_cell_setting 'orthorhombic'
loop_
_space_group_symop_operation_xyz
x,y,z
-x,-y,z
x,-y,-z
-x,y,-z
-x,-y,-z
x,y,-z
-x,y,z
x,-y,z
1/2+x,1/2+y,1/2+z
1/2-x,1/2-y,1/2+z
1/2+x,1/2-y,1/2-z
1/2-x,1/2+y,1/2-z
1/2-x,1/2-y,1/2-z
1/2+x,1/2+y,1/2-z
1/2-x,1/2+y,1/2+z
1/2+x,1/2-y,1/2+z
loop_
_atom_site_type_symbol
_atom_site_label
_atom_site_fract_x
_atom_site_fract_y
_atom_site_fract_z
Si Si1 0.500000 0.929460 0.592175
Si Si2 0.380518 0.069662 0.831659
Si Si3 0.726850 0.071892 0.592318
Si Si4 0.380528 0.327913 0.500000
Si Si5 0.243147 0.154632 0.277458
Si Si6 0.119626 0.765641 0.833781
Si Si7 0.212309 0.569143 0.500000
O O1 0.500000 0.915109 0.500000
O O2 0.388911 0.905660 0.623926
O O3 0.500000 0.000000 0.609349
O O4 0.500000 0.083342 0.811778
O O5 0.310471 0.115314 0.782801
O O6 0.352630 0.000000 0.808539
O O7 0.360679 0.081768 0.924587
O O8 0.745143 0.088848 0.500000
O O9 0.800610 0.111076 0.650577
O O10 0.743395 0.000000 0.604277
O O11 0.500000 0.348942 0.500000
O O12 0.354928 0.287451 0.577108
O O13 0.313064 0.388701 0.500000
O O14 0.144919 0.180864 0.229611
O O15 0.309138 0.208245 0.316551
O O16 0.000000 0.747033 0.824611
O O17 0.254398 0.500000 0.500000
#
# Coordination Sequence:
#
# PCOD8289543 Si02
#       7
#     8  16  16   8  16  16   8
#     4   7  12  24  40  66 106 139 161 197 245 301
#     4  10  20  33  53  82 114 144 175 218 271 328
#     4   9  18  31  49  78 112 141 170 209 262 321
#     4  10  20  40  59  76 107 141 181 230 270 313
#     4  11  21  35  57  80 107 142 179 221 264 321
#     4  10  23  39  56  79 106 141 182 225 266 311
#     4  10  19  35  56  79 109 143 182 222 273 328
#
# _framework density 18.553190000000001
#
# number of rings (size 3 to 8) (size 9 to 14) (size 15 to 20)
#    0.000    2.273    1.818    2.455    3.818    1.273 
#    0.000    0.000    0.000    2.727    0.000    1.273 
#    0.000    0.000    0.000    0.000    0.000    0.000 
#
# Total GULP energy -545295.946285 kJ/mol
# GULP energy per Si atom -12393.089688 kJ/mol
# Density = 1.851096 g / cm^3
# Si number density = 18.553190 Si / 1000 Ang^3
#
#
#
# Elastic Constant Matrix: (Units=GPa)
#
#
# Indices 1 2 3 4 5 6 
#
# 1 31.2088 12.1538 8.9832 -0.0002 0.0000 0.0000
# 2 12.1538 62.4585 39.2067 0.0014 0.0001 0.0000
# 3 8.9832 39.2067 101.6742 0.0025 0.0002 0.0000
# 4 -0.0002 0.0014 0.0025 -301.7038 -0.0004 0.0001
# 5 0.0000 0.0001 0.0002 -0.0004 18.4123 0.0000
# 6 0.0000 0.0000 0.0000 0.0001 0.0000 26.1748
#
#
#
# Elastic Compliance Matrix: (Units=1/GPa)
#
#
# Indices 1 2 3 4 5 6 
#
# 1 0.034698 -0.006369 -0.000610 0.000000 0.000000 0.000000
# 2 -0.006369 0.022293 -0.008034 0.000000 0.000000 0.000000
# 3 -0.000610 -0.008034 0.012987 0.000000 0.000000 0.000000
# 4 0.000000 0.000000 0.000000 -0.003315 0.000000 0.000000
# 5 0.000000 0.000000 0.000000 0.000000 0.054311 0.000000
# 6 0.000000 0.000000 0.000000 0.000000 0.000000 0.038205
#
#
# Mechanical properties :
#
#
# Convention : Reuss Voigt Hill
#
# Bulk Modulus (GPa) = 25.02936 35.11431 30.07183
# Shear Modulus (GPa) = 24.68861 -42.42348 -8.86743
#
# Velocity S-wave (km/s) = 3.65182 -4.78701 -2.18857
# Velocity P-wave (km/s) = 5.59473 3.40391 3.13961
#
# Compressibility (1/GPa) = 0.03995308
#
# Stress axis : x y z
#
# Youngs Moduli (GPa) = 28.81998 44.85721 76.99965
#
# Poissons Ratio (x) = 0.28571 0.04694
# Poissons Ratio (y) = 0.18356 0.61859
# Poissons Ratio (z) = 0.01757 0.36037
#
# Static dielectric constant tensor:
#      x y z
#    x 3.281470 0.000000 0.000000 
#    y 0.000000 3.449720 0.000000 
#    z 0.000000 0.000000 3.729670 
# 
# 
# High freq. dielectric constant tensor:
#      x y z
#    x 1.681410 0.000000 0.000000 
#    y 0.000000 1.721860 0.000000 
#    z 0.000000 0.000000 1.742860 
# 
# From -- ./inp_files/44736.got.cif
#   From: 2010.06.25/outbox.cif.g09.slc.cpg/sg71_23_cif.got.tgz:44736.got - 2010.06.28 04:59:45.
