data_PCOD8289336
_publ_section_title
;
Structure prediction by ZEFSAII (Michael W. Deem and Ramdas Pophale) SiO2 
 PCOD8289336
Probable space group: I M M M
;
_chemical_formula_sum "Si O2"
_cell_formula_units_Z 104
_cell_length_a 17.981241
_cell_length_b 17.664845
_cell_length_c 17.252290
_cell_angle_alpha 90.000000
_cell_angle_beta 90.000000
_cell_angle_gamma 90.000000
_cell_volume 5479.945543
_symmetry_space_group_name_H-M "I M M M"
_symmetry_group_IT_number 71
_symmetry_cell_setting 'orthorhombic'
loop_
_space_group_symop_operation_xyz
x,y,z
-x,-y,z
x,-y,-z
-x,y,-z
-x,-y,-z
x,y,-z
-x,y,z
x,-y,z
1/2+x,1/2+y,1/2+z
1/2-x,1/2-y,1/2+z
1/2+x,1/2-y,1/2-z
1/2-x,1/2+y,1/2-z
1/2-x,1/2-y,1/2-z
1/2+x,1/2+y,1/2-z
1/2-x,1/2+y,1/2+z
1/2+x,1/2-y,1/2+z
loop_
_atom_site_type_symbol
_atom_site_label
_atom_site_fract_x
_atom_site_fract_y
_atom_site_fract_z
Si Si1 0.801213 0.413164 0.589285
Si Si2 0.701195 0.694011 0.694012
Si Si3 0.586910 0.916769 0.500000
Si Si4 0.916895 0.586613 0.286949
Si Si5 0.690698 0.586454 0.913388
Si Si6 0.337699 0.156843 0.356602
Si Si7 0.085883 0.087094 0.281140
O O1 0.804636 0.386238 0.500000
O O2 0.772894 0.500000 0.594720
O O3 0.748425 0.360195 0.639412
O O4 0.883412 0.406370 0.626557
O O5 0.750000 0.750000 0.750000
O O6 0.657698 0.752325 0.638211
O O7 0.638754 0.643067 0.734222
O O8 0.500000 0.923570 0.500000
O O9 0.610820 0.874110 0.423572
O O10 0.623680 0.000000 0.500000
O O11 0.918658 0.500000 0.259156
O O12 0.865348 0.631252 0.227435
O O13 0.000000 0.620804 0.288079
O O14 0.717056 0.500000 0.917113
O O15 0.752315 0.631024 0.864387
O O16 0.611148 0.593648 0.871026
O O17 0.683868 0.620423 0.000000
O O18 0.000000 0.112346 0.274145
O O19 0.095885 0.000000 0.252555
#
# Coordination Sequence:
#
# PCOD8289336 Si02
#       7
#    16  16   8  16  16  16  16
#     4  10  22  41  65  89 118 159 211 261 306 368
#     4  12  23  40  61  92 120 157 198 260 314 369
#     4  11  24  40  58  88 128 166 202 243 306 380
#     4  10  20  35  57  87 123 161 202 247 301 368
#     4  10  19  33  57  87 121 158 201 248 299 363
#     4  12  22  35  58  87 121 166 204 251 303 369
#     4  10  22  41  64  88 119 162 211 257 305 370
#
# _framework density 18.978290000000001
#
# number of rings (size 3 to 8) (size 9 to 14) (size 15 to 20)
#    0.000    1.308    3.846    2.308    1.077    5.538 
#    0.000    3.077    0.000    0.000    0.000    2.154 
#    0.000    0.000    0.000    0.000    0.000    0.000 
#
# Total GULP energy -644563.227201 kJ/mol
# GULP energy per Si atom -12395.446677 kJ/mol
# Density = 1.893509 g / cm^3
# Si number density = 18.978290 Si / 1000 Ang^3
#
#
#
# Elastic Constant Matrix: (Units=GPa)
#
#
# Indices 1 2 3 4 5 6 
#
# 1 120.3821 59.6724 65.4482 0.0000 0.0000 0.0000
# 2 59.6724 108.3228 59.4218 0.0000 0.0000 0.0000
# 3 65.4482 59.4218 127.5325 0.0000 0.0000 0.0000
# 4 0.0000 0.0000 0.0000 30.3067 0.0000 0.0000
# 5 0.0000 0.0000 0.0000 0.0000 0.6645 0.0000
# 6 0.0000 0.0000 0.0000 0.0000 0.0000 9.5108
#
#
#
# Elastic Compliance Matrix: (Units=1/GPa)
#
#
# Indices 1 2 3 4 5 6 
#
# 1 0.013117 -0.004746 -0.004520 0.000000 0.000000 0.000000
# 2 -0.004746 0.014119 -0.004143 0.000000 0.000000 0.000000
# 3 -0.004520 -0.004143 0.012091 0.000000 0.000000 0.000000
# 4 0.000000 0.000000 0.000000 0.032996 0.000000 0.000000
# 5 0.000000 0.000000 0.000000 0.000000 1.504832 0.000000
# 6 0.000000 0.000000 0.000000 0.000000 0.000000 0.105143
#
#
# Mechanical properties :
#
#
# Convention : Reuss Voigt Hill
#
# Bulk Modulus (GPa) = 79.94408 80.59136 80.26772
# Shear Modulus (GPa) = 2.91837 19.54275 11.23056
#
# Velocity S-wave (km/s) = 1.24140 3.21244 2.43525
# Velocity P-wave (km/s) = 6.65358 7.50446 7.09179
#
# Compressibility (1/GPa) = 0.01250874
#
# Stress axis : x y z
#
# Youngs Moduli (GPa) = 76.23702 70.82740 82.70631
#
# Poissons Ratio (x) = 0.33617 0.37383
# Poissons Ratio (y) = 0.36185 0.34263
# Poissons Ratio (z) = 0.34459 0.29342
#
# Static dielectric constant tensor:
#      x y z
#    x 3.472620 0.000000 0.000000 
#    y 0.000000 3.737680 0.000000 
#    z 0.000000 0.000000 3.586230 
# 
# 
# High freq. dielectric constant tensor:
#      x y z
#    x 1.735040 0.000000 0.000000 
#    y 0.000000 1.740100 0.000000 
#    z 0.000000 0.000000 1.737890 
# 
# From -- ./inp_files/46163.got.cif
#   From: 2010.06.25/outbox.cif.g09.slc.cpg/sg71_24_cif.got.tgz:46163.got - 2010.06.28 04:59:45.
