data_PCOD8289510
_publ_section_title
;
Structure prediction by ZEFSAII (Michael W. Deem and Ramdas Pophale) SiO2 
 PCOD8289510
Probable space group: I M M M
;
_chemical_formula_sum "Si O2"
_cell_formula_units_Z 72
_cell_length_a 7.806312
_cell_length_b 16.166513
_cell_length_c 26.908104
_cell_angle_alpha 90.000000
_cell_angle_beta 90.000000
_cell_angle_gamma 90.000000
_cell_volume 3395.825447
_symmetry_space_group_name_H-M "I M M M"
_symmetry_group_IT_number 71
_symmetry_cell_setting 'orthorhombic'
loop_
_space_group_symop_operation_xyz
x,y,z
-x,-y,z
x,-y,-z
-x,y,-z
-x,-y,-z
x,y,-z
-x,y,z
x,-y,z
1/2+x,1/2+y,1/2+z
1/2-x,1/2-y,1/2+z
1/2+x,1/2-y,1/2-z
1/2-x,1/2+y,1/2-z
1/2-x,1/2-y,1/2-z
1/2+x,1/2+y,1/2-z
1/2-x,1/2+y,1/2+z
1/2+x,1/2-y,1/2+z
loop_
_atom_site_type_symbol
_atom_site_label
_atom_site_fract_x
_atom_site_fract_y
_atom_site_fract_z
Si Si1 0.799731 0.834231 0.276693
Si Si2 0.702528 0.335363 0.557594
Si Si3 0.000000 0.404389 0.053895
Si Si4 0.194915 0.825639 0.610429
Si Si5 0.702696 0.500000 0.388292
Si Si6 0.794992 0.000000 0.224236
O O1 0.750000 0.750000 0.250000
O O2 0.737280 0.826356 0.333184
O O3 0.721173 0.917076 0.251138
O O4 0.000000 0.844374 0.274385
O O5 0.755594 0.333856 0.500000
O O6 0.500000 0.321484 0.564239
O O7 0.801924 0.265754 0.587958
O O8 0.767028 0.420677 0.581416
O O9 0.824567 0.383370 0.081174
O O10 0.000000 0.500000 0.045105
O O11 0.000000 0.358657 0.000000
O O12 0.000000 0.859892 0.606565
O O13 0.500000 0.500000 0.386395
O O14 0.775588 0.500000 0.332226
O O15 0.000000 0.000000 0.224940
#
# Coordination Sequence:
#
# PCOD8289510 Si02
#       6
#    16  16   8  16   8   8
#     4  10  22  38  60  91 125 166 212 260 315 379
#     4  10  19  34  58  89 125 165 210 257 309 370
#     4  11  26  46  68  95 125 161 215 272 326 391
#     4  11  24  41  65  94 130 167 210 263 324 383
#     4   9  17  30  56  90 124 165 208 258 309 365
#     4   9  18  35  57  82 120 161 201 248 312 375
#
# _framework density 21.202504000000001
#
# number of rings (size 3 to 8) (size 9 to 14) (size 15 to 20)
#    0.000    1.889    1.111    2.333    3.111    5.333 
#    0.000    2.222    0.000    5.333    0.000    0.000 
#    0.000    0.000    0.000    0.000    0.000    0.000 
#
# Total GULP energy -446362.406155 kJ/mol
# GULP energy per Si atom -12398.955727 kJ/mol
# Density = 2.115425 g / cm^3
# Si number density = 21.202504 Si / 1000 Ang^3
#
#
#
# Elastic Constant Matrix: (Units=GPa)
#
#
# Indices 1 2 3 4 5 6 
#
# 1 60.1677 14.2113 32.9004 0.0000 0.0000 0.0000
# 2 14.2113 141.9038 76.6090 0.0000 0.0000 0.0000
# 3 32.9004 76.6090 199.9049 0.0000 0.0000 0.0000
# 4 0.0000 0.0000 0.0000 47.8410 0.0000 0.0000
# 5 0.0000 0.0000 0.0000 0.0000 24.1703 0.0000
# 6 0.0000 0.0000 0.0000 0.0000 0.0000 18.5310
#
#
#
# Elastic Compliance Matrix: (Units=1/GPa)
#
#
# Indices 1 2 3 4 5 6 
#
# 1 0.018271 -0.000260 -0.002907 0.000000 0.000000 0.000000
# 2 -0.000260 0.008889 -0.003364 0.000000 0.000000 0.000000
# 3 -0.002907 -0.003364 0.006770 0.000000 0.000000 0.000000
# 4 0.000000 0.000000 0.000000 0.020903 0.000000 0.000000
# 5 0.000000 0.000000 0.000000 0.000000 0.041373 0.000000
# 6 0.000000 0.000000 0.000000 0.000000 0.000000 0.053964
#
#
# Mechanical properties :
#
#
# Convention : Reuss Voigt Hill
#
# Bulk Modulus (GPa) = 47.92074 72.15756 60.03915
# Shear Modulus (GPa) = 29.37920 36.65884 33.01902
#
# Velocity S-wave (km/s) = 3.72647 4.16262 3.95057
# Velocity P-wave (km/s) = 6.41607 7.56371 7.01340
#
# Compressibility (1/GPa) = 0.02086779
#
# Stress axis : x y z
#
# Youngs Moduli (GPa) = 54.73012 112.49821 147.71184
#
# Poissons Ratio (x) = 0.02928 0.42946
# Poissons Ratio (y) = 0.01424 0.49686
# Poissons Ratio (z) = 0.15912 0.37841
#
# Static dielectric constant tensor:
#      x y z
#    x 3.664250 0.000000 0.000000 
#    y 0.000000 3.980750 0.000000 
#    z 0.000000 0.000000 4.527460 
# 
# 
# High freq. dielectric constant tensor:
#      x y z
#    x 1.808540 0.000000 0.000000 
#    y 0.000000 1.840070 0.000000 
#    z 0.000000 0.000000 1.849980 
# 
# From -- ./inp_files/62889.got.cif
#   From: 2010.06.25/outbox.cif.g09.slc.cpg/sg71_32_cif.got.tgz:62889.got - 2010.06.28 04:59:45.
