data_PCOD8289618
_publ_section_title
;
Structure prediction by ZEFSAII (Michael W. Deem and Ramdas Pophale) SiO2 
 PCOD8289618
Probable space group: I M M M
;
_chemical_formula_sum "Si O2"
_cell_formula_units_Z 96
_cell_length_a 15.427201
_cell_length_b 14.587241
_cell_length_c 20.412606
_cell_angle_alpha 90.000000
_cell_angle_beta 90.000000
_cell_angle_gamma 90.000000
_cell_volume 4593.658956
_symmetry_space_group_name_H-M "I M M M"
_symmetry_group_IT_number 71
_symmetry_cell_setting 'orthorhombic'
loop_
_space_group_symop_operation_xyz
x,y,z
-x,-y,z
x,-y,-z
-x,y,-z
-x,-y,-z
x,y,-z
-x,y,z
x,-y,z
1/2+x,1/2+y,1/2+z
1/2-x,1/2-y,1/2+z
1/2+x,1/2-y,1/2-z
1/2-x,1/2+y,1/2-z
1/2-x,1/2-y,1/2-z
1/2+x,1/2+y,1/2-z
1/2-x,1/2+y,1/2+z
1/2+x,1/2-y,1/2+z
loop_
_atom_site_type_symbol
_atom_site_label
_atom_site_fract_x
_atom_site_fract_y
_atom_site_fract_z
Si Si1 0.400624 0.894661 0.370240
Si Si2 0.152956 0.397217 0.277851
Si Si3 0.094278 0.782547 0.667900
Si Si4 0.674969 0.603315 0.571754
Si Si5 0.242795 0.210505 0.427605
Si Si6 0.356792 0.397195 0.287360
O O1 0.500000 0.867643 0.385934
O O2 0.381313 0.878587 0.294539
O O3 0.337000 0.830864 0.412010
O O4 0.383102 0.000000 0.389583
O O5 0.129710 0.500000 0.300558
O O6 0.105534 0.326551 0.325765
O O7 0.254915 0.378703 0.280970
O O8 0.169069 0.825527 0.622087
O O9 0.095171 0.827056 0.740154
O O10 0.000000 0.801837 0.636422
O O11 0.627076 0.612272 0.500000
O O12 0.714870 0.500000 0.578184
O O13 0.751308 0.678583 0.574891
O O14 0.614153 0.618836 0.636173
O O15 0.215242 0.178449 0.500000
O O16 0.380761 0.500000 0.265084
#
# Coordination Sequence:
#
# PCOD8289618 Si02
#       6
#    16  16  16  16  16  16
#     4  10  21  38  62  92 121 147 184 241 308 368
#     4  10  19  35  60  89 119 150 187 240 300 353
#     4  12  24  37  58  87 120 159 203 246 287 341
#     4   9  18  34  59  88 116 151 191 233 288 352
#     4  11  23  39  59  83 117 160 202 245 294 347
#     4  10  19  35  61  85 113 154 197 242 291 347
#
# _framework density 20.898374
#
# number of rings (size 3 to 8) (size 9 to 14) (size 15 to 20)
#    0.000    1.667    3.333    2.000    0.000    2.333 
#    0.000    0.833    0.000    3.000    0.000   12.833 
#    0.000    0.000    0.000    0.000    0.000    0.000 
#
# Total GULP energy -594850.767582 kJ/mol
# GULP energy per Si atom -12392.724325 kJ/mol
# Density = 2.085081 g / cm^3
# Si number density = 20.898374 Si / 1000 Ang^3
#
#
#
# Elastic Constant Matrix: (Units=GPa)
#
#
# Indices 1 2 3 4 5 6 
#
# 1 107.2692 39.4862 55.5087 0.0000 0.0000 0.0000
# 2 39.4862 78.8566 41.1726 0.0000 0.0000 0.0000
# 3 55.5087 41.1726 126.1255 0.0000 0.0000 0.0000
# 4 0.0000 0.0000 0.0000 23.0667 0.0000 0.0000
# 5 0.0000 0.0000 0.0000 0.0000 3.9023 0.0000
# 6 0.0000 0.0000 0.0000 0.0000 0.0000 12.3697
#
#
#
# Elastic Compliance Matrix: (Units=1/GPa)
#
#
# Indices 1 2 3 4 5 6 
#
# 1 0.013182 -0.004305 -0.004396 0.000000 0.000000 0.000000
# 2 -0.004305 0.016693 -0.003554 0.000000 0.000000 0.000000
# 3 -0.004396 -0.003554 0.011024 0.000000 0.000000 0.000000
# 4 0.000000 0.000000 0.000000 0.043352 0.000000 0.000000
# 5 0.000000 0.000000 0.000000 0.000000 0.256261 0.000000
# 6 0.000000 0.000000 0.000000 0.000000 0.000000 0.080843
#
#
# Mechanical properties :
#
#
# Convention : Reuss Voigt Hill
#
# Bulk Modulus (GPa) = 61.02451 64.95401 62.98926
# Shear Modulus (GPa) = 11.07839 19.60665 15.34252
#
# Velocity S-wave (km/s) = 2.30490 3.06631 2.71246
# Velocity P-wave (km/s) = 6.02888 6.60944 6.32583
#
# Compressibility (1/GPa) = 0.01638686
#
# Stress axis : x y z
#
# Youngs Moduli (GPa) = 75.86106 59.90546 90.71408
#
# Poissons Ratio (x) = 0.25792 0.39878
# Poissons Ratio (y) = 0.32661 0.32244
# Poissons Ratio (z) = 0.33349 0.21293
#
# Static dielectric constant tensor:
#      x y z
#    x 3.515660 0.000000 0.000000 
#    y 0.000000 3.929370 0.000000 
#    z 0.000000 0.000000 3.973310 
# 
# 
# High freq. dielectric constant tensor:
#      x y z
#    x 1.781010 0.000000 0.000000 
#    y 0.000000 1.826910 0.000000 
#    z 0.000000 0.000000 1.815270 
# 
# From -- ./inp_files/34496.got.cif
#   From: 2010.06.25/outbox.cif.g09.slc.cpg/sg71_18_cif.got.tgz:34496.got - 2010.06.28 04:59:45.
