data_PCOD8289727
_publ_section_title
;
Structure prediction by ZEFSAII (Michael W. Deem and Ramdas Pophale) SiO2 
 PCOD8289727
Probable space group: I M M M
;
_chemical_formula_sum "Si O2"
_cell_formula_units_Z 104
_cell_length_a 23.913954
_cell_length_b 27.552504
_cell_length_c 9.137226
_cell_angle_alpha 90.000000
_cell_angle_beta 90.000000
_cell_angle_gamma 90.000000
_cell_volume 6020.420564
_symmetry_space_group_name_H-M "I M M M"
_symmetry_group_IT_number 71
_symmetry_cell_setting 'orthorhombic'
loop_
_space_group_symop_operation_xyz
x,y,z
-x,-y,z
x,-y,-z
-x,y,-z
-x,-y,-z
x,y,-z
-x,y,z
x,-y,z
1/2+x,1/2+y,1/2+z
1/2-x,1/2-y,1/2+z
1/2+x,1/2-y,1/2-z
1/2-x,1/2+y,1/2-z
1/2-x,1/2-y,1/2-z
1/2+x,1/2+y,1/2-z
1/2-x,1/2+y,1/2+z
1/2+x,1/2-y,1/2+z
loop_
_atom_site_type_symbol
_atom_site_label
_atom_site_fract_x
_atom_site_fract_y
_atom_site_fract_z
Si Si1 0.433463 0.446719 0.336379
Si Si2 0.065485 0.857047 0.339019
Si Si3 0.260922 0.300249 0.828780
Si Si4 0.140815 0.325564 0.168263
Si Si5 0.367179 0.712361 0.670724
Si Si6 0.934903 0.402771 0.672396
Si Si7 0.933754 0.500000 0.165581
O O1 0.410679 0.437134 0.500000
O O2 0.500000 0.443875 0.338578
O O3 0.414134 0.500000 0.281635
O O4 0.408076 0.406172 0.228976
O O5 0.091780 0.848806 0.500000
O O6 0.076468 0.811323 0.232915
O O7 0.000000 0.863185 0.352198
O O8 0.250000 0.250000 0.750000
O O9 0.207270 0.335757 0.804783
O O10 0.318095 0.318392 0.754034
O O11 0.269555 0.290669 0.000000
O O12 0.130166 0.269296 0.207021
O O13 0.102503 0.358162 0.272057
O O14 0.124635 0.336370 0.000000
O O15 0.360058 0.703407 0.500000
O O16 0.926394 0.409086 0.500000
O O17 0.913094 0.451841 0.750352
O O18 0.000000 0.392437 0.709934
O O19 0.000000 0.500000 0.163688
O O20 0.909762 0.500000 0.000000
#
# Coordination Sequence:
#
# PCOD8289727 Si02
#       7
#    16  16  16  16  16  16   8
#     4   8  14  26  44  64  86 114 150 191 231 273
#     4  10  20  31  44  66  96 128 160 195 239 290
#     4   9  17  31  50  71  94 120 157 202 241 281
#     4   9  19  33  49  71  96 125 161 198 238 286
#     4  10  20  33  49  69  95 129 166 203 244 289
#     4  10  20  32  48  73 103 132 163 201 243 287
#     4   9  17  31  51  71  95 129 165 201 240 285
#
# _framework density 17.274540999999999
#
# number of rings (size 3 to 8) (size 9 to 14) (size 15 to 20)
#    0.000    2.692    0.000    3.462    0.000    7.385 
#    0.000    4.615    0.000    0.000    2.000    0.000 
#    0.000    0.000    0.000    0.000    0.000    0.000 
#
# Total GULP energy -644401.932502 kJ/mol
# GULP energy per Si atom -12392.344856 kJ/mol
# Density = 1.723522 g / cm^3
# Si number density = 17.274541 Si / 1000 Ang^3
#
#
#
# Elastic Constant Matrix: (Units=GPa)
#
#
# Indices 1 2 3 4 5 6 
#
# 1 42.9856 36.7363 40.9148 0.0000 0.0000 0.0000
# 2 36.7363 96.8294 66.1055 0.0000 0.0000 0.0000
# 3 40.9148 66.1055 127.2815 0.0000 0.0000 0.0000
# 4 0.0000 0.0000 0.0000 31.7623 0.0000 0.0000
# 5 0.0000 0.0000 0.0000 0.0000 27.5267 0.0000
# 6 0.0000 0.0000 0.0000 0.0000 0.0000 8.5923
#
#
#
# Elastic Compliance Matrix: (Units=1/GPa)
#
#
# Indices 1 2 3 4 5 6 
#
# 1 0.038468 -0.009532 -0.007415 0.000000 0.000000 0.000000
# 2 -0.009532 0.018363 -0.006473 0.000000 0.000000 0.000000
# 3 -0.007415 -0.006473 0.013602 0.000000 0.000000 0.000000
# 4 0.000000 0.000000 0.000000 0.031484 0.000000 0.000000
# 5 0.000000 0.000000 0.000000 0.000000 0.036328 0.000000
# 6 0.000000 0.000000 0.000000 0.000000 0.000000 0.116384
#
#
# Mechanical properties :
#
#
# Convention : Reuss Voigt Hill
#
# Bulk Modulus (GPa) = 42.38614 61.62329 52.00471
# Shear Modulus (GPa) = 16.16384 21.79892 18.98138
#
# Velocity S-wave (km/s) = 3.06224 3.55619 3.31842
# Velocity P-wave (km/s) = 6.09042 7.25344 6.69722
#
# Compressibility (1/GPa) = 0.02359262
#
# Stress axis : x y z
#
# Youngs Moduli (GPa) = 25.99593 54.45748 73.51926
#
# Poissons Ratio (x) = 0.51910 0.54513
# Poissons Ratio (y) = 0.24780 0.47588
# Poissons Ratio (z) = 0.19275 0.35250
#
# Static dielectric constant tensor:
#      x y z
#    x 2.913370 0.000000 0.000000 
#    y 0.000000 3.180700 0.000000 
#    z 0.000000 0.000000 3.534340 
# 
# 
# High freq. dielectric constant tensor:
#      x y z
#    x 1.635980 0.000000 0.000000 
#    y 0.000000 1.652350 0.000000 
#    z 0.000000 0.000000 1.682840 
# 
# From -- ./inp_files/15284.got.cif
#   From: 2010.06.25/outbox.cif.g09.slc.cpg/sg71_8_cif.got.tgz:15284.got - 2010.06.28 04:59:45.
