data_PCOD8289980
_publ_section_title
;
Structure prediction by ZEFSAII (Michael W. Deem and Ramdas Pophale) SiO2 
 PCOD8289980
Probable space group: I M M M
;
_chemical_formula_sum "Si O2"
_cell_formula_units_Z 80
_cell_length_a 13.321039
_cell_length_b 18.886673
_cell_length_c 18.027028
_cell_angle_alpha 90.000000
_cell_angle_beta 90.000000
_cell_angle_gamma 90.000000
_cell_volume 4535.421914
_symmetry_space_group_name_H-M "I M M M"
_symmetry_group_IT_number 71
_symmetry_cell_setting 'orthorhombic'
loop_
_space_group_symop_operation_xyz
x,y,z
-x,-y,z
x,-y,-z
-x,y,-z
-x,-y,-z
x,y,-z
-x,y,z
x,-y,z
1/2+x,1/2+y,1/2+z
1/2-x,1/2-y,1/2+z
1/2+x,1/2-y,1/2-z
1/2-x,1/2+y,1/2-z
1/2-x,1/2-y,1/2-z
1/2+x,1/2+y,1/2-z
1/2-x,1/2+y,1/2+z
1/2+x,1/2-y,1/2+z
loop_
_atom_site_type_symbol
_atom_site_label
_atom_site_fract_x
_atom_site_fract_y
_atom_site_fract_z
Si Si1 0.801270 0.841383 0.415631
Si Si2 0.888994 0.917443 0.280801
Si Si3 0.113533 0.581038 0.860537
Si Si4 0.305792 0.081133 0.799414
Si Si5 0.384710 0.808675 0.084782
O O1 0.834376 0.857227 0.500000
O O2 0.874896 0.883116 0.361214
O O3 0.686088 0.865162 0.403747
O O4 0.813374 0.758197 0.398321
O O5 0.806503 0.891182 0.221445
O O6 0.000000 0.899587 0.250226
O O7 0.872472 0.000000 0.293822
O O8 0.140481 0.500000 0.882345
O O9 0.124079 0.590538 0.772307
O O10 0.000000 0.599432 0.883675
O O11 0.349238 0.126241 0.865982
O O12 0.303659 0.000000 0.826212
O O13 0.500000 0.788595 0.102866
O O14 0.373570 0.833114 0.000000
#
# Coordination Sequence:
#
# PCOD8289980 Si02
#       5
#    16  16  16  16  16
#     4  10  20  33  47  68 102 136 165 200 241 286
#     4   9  18  32  51  75  99 126 162 200 240 288
#     4   9  18  32  51  76 103 132 167 204 242 285
#     4   9  18  34  54  74  98 126 160 206 253 297
#     4  10  21  35  51  73 100 129 161 201 250 297
#
# _framework density 17.638932
#
# number of rings (size 3 to 8) (size 9 to 14) (size 15 to 20)
#    0.000    2.600    0.000    3.000    0.000    8.000 
#    0.000    6.000    0.000    1.800    0.000    2.800 
#    0.000    0.000    0.000    0.000    0.000    0.000 
#
# Total GULP energy -495932.949478 kJ/mol
# GULP energy per Si atom -12398.323737 kJ/mol
# Density = 1.759878 g / cm^3
# Si number density = 17.638932 Si / 1000 Ang^3
#
#
#
# Elastic Constant Matrix: (Units=GPa)
#
#
# Indices 1 2 3 4 5 6 
#
# 1 109.5384 50.3050 32.7464 0.0000 0.0000 0.0000
# 2 50.3050 81.2615 48.4400 0.0000 0.0000 0.0000
# 3 32.7464 48.4400 71.4736 0.0000 0.0000 0.0000
# 4 0.0000 0.0000 0.0000 30.7731 0.0000 0.0000
# 5 0.0000 0.0000 0.0000 0.0000 19.5083 0.0000
# 6 0.0000 0.0000 0.0000 0.0000 0.0000 27.0921
#
#
#
# Elastic Compliance Matrix: (Units=1/GPa)
#
#
# Indices 1 2 3 4 5 6 
#
# 1 0.012785 -0.007421 -0.000828 0.000000 0.000000 0.000000
# 2 -0.007421 0.024955 -0.013513 0.000000 0.000000 0.000000
# 3 -0.000828 -0.013513 0.023529 0.000000 0.000000 0.000000
# 4 0.000000 0.000000 0.000000 0.032496 0.000000 0.000000
# 5 0.000000 0.000000 0.000000 0.000000 0.051260 0.000000
# 6 0.000000 0.000000 0.000000 0.000000 0.000000 0.036911
#
#
# Mechanical properties :
#
#
# Convention : Reuss Voigt Hill
#
# Bulk Modulus (GPa) = 56.35462 58.36183 57.35823
# Shear Modulus (GPa) = 21.61009 24.19352 22.90181
#
# Velocity S-wave (km/s) = 3.50399 3.70753 3.60719
# Velocity P-wave (km/s) = 6.95622 7.17541 7.06666
#
# Compressibility (1/GPa) = 0.01774477
#
# Stress axis : x y z
#
# Youngs Moduli (GPa) = 78.21831 40.07267 42.50141
#
# Poissons Ratio (x) = 0.29737 0.03520
# Poissons Ratio (y) = 0.58043 0.57431
# Poissons Ratio (z) = 0.06478 0.54149
#
# Static dielectric constant tensor:
#      x y z
#    x 3.580250 0.000000 0.000000 
#    y 0.000000 3.146020 0.000000 
#    z 0.000000 0.000000 3.071280 
# 
# 
# High freq. dielectric constant tensor:
#      x y z
#    x 1.690440 0.000000 0.000000 
#    y 0.000000 1.672410 0.000000 
#    z 0.000000 0.000000 1.665600 
# 
# From -- ./inp_files/34263.got.cif
#   From: 2010.06.25/outbox.cif.g09.slc.cpg/sg71_18_cif.got.tgz:34263.got - 2010.06.28 04:59:45.
