data_PCOD8289561
_publ_section_title
;
Structure prediction by ZEFSAII (Michael W. Deem and Ramdas Pophale) SiO2 
 PCOD8289561
Probable space group: I M M M
;
_chemical_formula_sum "Si O2"
_cell_formula_units_Z 120
_cell_length_a 8.842381
_cell_length_b 26.189157
_cell_length_c 27.438262
_cell_angle_alpha 90.000000
_cell_angle_beta 90.000000
_cell_angle_gamma 90.000000
_cell_volume 6354.001920
_symmetry_space_group_name_H-M "I M M M"
_symmetry_group_IT_number 71
_symmetry_cell_setting 'orthorhombic'
loop_
_space_group_symop_operation_xyz
x,y,z
-x,-y,z
x,-y,-z
-x,y,-z
-x,-y,-z
x,y,-z
-x,y,z
x,-y,z
1/2+x,1/2+y,1/2+z
1/2-x,1/2-y,1/2+z
1/2+x,1/2-y,1/2-z
1/2-x,1/2+y,1/2-z
1/2-x,1/2-y,1/2-z
1/2+x,1/2+y,1/2-z
1/2-x,1/2+y,1/2+z
1/2+x,1/2-y,1/2+z
loop_
_atom_site_type_symbol
_atom_site_label
_atom_site_fract_x
_atom_site_fract_y
_atom_site_fract_z
Si Si1 0.177091 0.258118 0.945867
Si Si2 0.822622 0.940278 0.156373
Si Si3 0.178330 0.158428 0.676797
Si Si4 0.170143 0.939376 0.948751
Si Si5 0.321034 0.871895 0.581085
Si Si6 0.678061 0.140459 0.220421
Si Si7 0.822447 0.940209 0.500000
Si Si8 0.322746 0.771698 0.851651
O O1 0.228588 0.316897 0.940067
O O2 0.254437 0.221643 0.905842
O O3 0.000000 0.253883 0.937785
O O4 0.224127 0.239531 0.000000
O O5 0.759272 0.921490 0.102849
O O6 0.719551 0.913143 0.196164
O O7 0.000000 0.926509 0.162004
O O8 0.797408 0.000000 0.163789
O O9 0.258544 0.123304 0.636101
O O10 0.234470 0.141408 0.729147
O O11 0.226782 0.217192 0.669731
O O12 0.000000 0.150817 0.672518
O O13 0.000000 0.918294 0.950581
O O14 0.165921 0.000000 0.947133
O O15 0.252068 0.921559 0.000000
O O16 0.500000 0.878992 0.580712
O O17 0.248512 0.915924 0.548449
O O18 0.500000 0.145117 0.229779
O O19 0.739538 0.185532 0.185265
O O20 0.000000 0.929715 0.500000
O O21 0.784317 0.000000 0.500000
O O22 0.500000 0.777124 0.856934
#
# Coordination Sequence:
#
# PCOD8289561 Si02
#       8
#    16  16  16  16  16  16   8  16
#     4   9  17  31  52  80 110 141 179 222 267 321
#     4   9  18  33  53  76 101 133 175 218 261 311
#     4  10  20  36  58  82 106 136 179 224 271 325
#     4   7  10  20  42  70  94 116 151 202 251 292
#     4  10  19  35  57  82 111 142 180 224 274 326
#     4  11  22  36  53  76 108 142 178 221 271 325
#     4  11  23  37  55  83 119 155 191 231 272 319
#     4   9  20  35  52  78 108 141 179 219 268 325
#
# _framework density 18.885736999999999
#
# number of rings (size 3 to 8) (size 9 to 14) (size 15 to 20)
#    0.000    2.600    0.667    3.000    0.000    3.200 
#    0.000    1.333    0.000    6.800    0.000    1.867 
#    0.000    0.000    0.000    0.000    0.000    0.000 
#
# Total GULP energy -743649.274204 kJ/mol
# GULP energy per Si atom -12394.154570 kJ/mol
# Density = 1.884275 g / cm^3
# Si number density = 18.885737 Si / 1000 Ang^3
#
#
#
# Elastic Constant Matrix: (Units=GPa)
#
#
# Indices 1 2 3 4 5 6 
#
# 1 49.2955 28.4084 36.7447 0.0000 0.0000 0.0000
# 2 28.4084 59.9268 48.7784 0.0000 0.0000 0.0000
# 3 36.7447 48.7784 164.3521 0.0000 0.0000 0.0000
# 4 0.0000 0.0000 0.0000 24.4231 0.0000 0.0000
# 5 0.0000 0.0000 0.0000 0.0000 29.4441 0.0000
# 6 0.0000 0.0000 0.0000 0.0000 0.0000 23.1313
#
#
#
# Elastic Compliance Matrix: (Units=1/GPa)
#
#
# Indices 1 2 3 4 5 6 
#
# 1 0.029121 -0.011214 -0.003182 0.000000 0.000000 0.000000
# 2 -0.011214 0.026321 -0.005305 0.000000 0.000000 0.000000
# 3 -0.003182 -0.005305 0.008370 0.000000 0.000000 0.000000
# 4 0.000000 0.000000 0.000000 0.040945 0.000000 0.000000
# 5 0.000000 0.000000 0.000000 0.000000 0.033963 0.000000
# 6 0.000000 0.000000 0.000000 0.000000 0.000000 0.043231
#
#
# Mechanical properties :
#
#
# Convention : Reuss Voigt Hill
#
# Bulk Modulus (GPa) = 40.96784 55.71526 48.34155
# Shear Modulus (GPa) = 21.78746 26.04257 23.91501
#
# Velocity S-wave (km/s) = 3.40022 3.71746 3.56237
# Velocity P-wave (km/s) = 6.09548 6.92757 6.52481
#
# Compressibility (1/GPa) = 0.02440939
#
# Stress axis : x y z
#
# Youngs Moduli (GPa) = 34.33999 37.99245 119.46952
#
# Poissons Ratio (x) = 0.42606 0.38018
# Poissons Ratio (y) = 0.38510 0.63374
# Poissons Ratio (z) = 0.10928 0.20154
#
# Static dielectric constant tensor:
#      x y z
#    x 3.255850 0.000000 0.000000 
#    y 0.000000 3.221580 0.000000 
#    z 0.000000 0.000000 3.812760 
# 
# 
# High freq. dielectric constant tensor:
#      x y z
#    x 1.715760 0.000000 0.000000 
#    y 0.000000 1.704180 0.000000 
#    z 0.000000 0.000000 1.753800 
# 
# From -- ./inp_files/63805.got.cif
#   From: 2010.06.25/outbox.cif.g09.slc.cpg/sg71_32_cif.got.tgz:63805.got - 2010.06.28 04:59:45.
