data_PCOD8289310
_publ_section_title
;
Structure prediction by ZEFSAII (Michael W. Deem and Ramdas Pophale) SiO2 
 PCOD8289310
Probable space group: I M M M
;
_chemical_formula_sum "Si O2"
_cell_formula_units_Z 104
_cell_length_a 27.749489
_cell_length_b 9.043430
_cell_length_c 22.666277
_cell_angle_alpha 90.000000
_cell_angle_beta 90.000000
_cell_angle_gamma 90.000000
_cell_volume 5688.114936
_symmetry_space_group_name_H-M "I M M M"
_symmetry_group_IT_number 71
_symmetry_cell_setting 'orthorhombic'
loop_
_space_group_symop_operation_xyz
x,y,z
-x,-y,z
x,-y,-z
-x,y,-z
-x,-y,-z
x,y,-z
-x,y,z
x,-y,z
1/2+x,1/2+y,1/2+z
1/2-x,1/2-y,1/2+z
1/2+x,1/2-y,1/2-z
1/2-x,1/2+y,1/2-z
1/2-x,1/2-y,1/2-z
1/2+x,1/2+y,1/2-z
1/2-x,1/2+y,1/2+z
1/2+x,1/2-y,1/2+z
loop_
_atom_site_type_symbol
_atom_site_label
_atom_site_fract_x
_atom_site_fract_y
_atom_site_fract_z
Si Si1 0.944680 0.324061 0.000000
Si Si2 0.389043 0.170782 0.616448
Si Si3 0.802716 0.328640 0.693776
Si Si4 0.944545 0.669438 0.765019
Si Si5 0.890942 0.827893 0.662302
Si Si6 0.943187 0.663826 0.565411
Si Si7 0.694051 0.327631 0.681819
O O1 0.914994 0.267978 0.057368
O O2 0.947504 0.500000 0.000000
O O3 0.000000 0.262095 0.000000
O O4 0.427473 0.192731 0.668316
O O5 0.339771 0.259149 0.630907
O O6 0.374577 0.000000 0.608573
O O7 0.812733 0.500000 0.704487
O O8 0.841000 0.257950 0.648968
O O9 0.750165 0.301631 0.665698
O O10 0.813689 0.249716 0.755714
O O11 0.937218 0.500000 0.744781
O O12 0.914242 0.775795 0.723406
O O13 0.000000 0.715922 0.761138
O O14 0.925536 0.792143 0.608146
O O15 0.880727 0.000000 0.665932
O O16 0.922421 0.692641 0.500000
O O17 0.927128 0.500000 0.587457
O O18 0.000000 0.671959 0.563963
O O19 0.681941 0.500000 0.688408
#
# Coordination Sequence:
#
# PCOD8289310 Si02
#       7
#     8  16  16  16  16  16  16
#     4   9  18  34  57  85 113 147 197 241 272 323
#     4  10  19  33  56  81 109 147 187 230 278 326
#     4  10  20  35  55  79 108 142 180 218 269 330
#     4  10  20  33  50  75 108 146 184 220 266 326
#     4  12  23  33  51  81 113 143 176 222 276 319
#     4   9  19  37  59  79 103 142 186 220 257 317
#     4  10  20  34  55  82 109 137 174 223 276 331
#
# _framework density 18.283736999999999
#
# number of rings (size 3 to 8) (size 9 to 14) (size 15 to 20)
#    0.000    1.923    1.538    3.692    0.000    6.462 
#    0.000    1.154    1.692    1.846    0.000    0.000 
#    0.000    0.000    0.000    0.000    0.000    0.000 
#
# Total GULP energy -644748.920848 kJ/mol
# GULP energy per Si atom -12399.017709 kJ/mol
# Density = 1.824212 g / cm^3
# Si number density = 18.283737 Si / 1000 Ang^3
#
#
#
# Elastic Constant Matrix: (Units=GPa)
#
#
# Indices 1 2 3 4 5 6 
#
# 1 115.5902 60.2436 45.5919 0.0000 0.0000 0.0000
# 2 60.2436 96.7528 41.5850 0.0000 0.0000 0.0000
# 3 45.5919 41.5850 89.7750 0.0000 0.0000 0.0000
# 4 0.0000 0.0000 0.0000 7.3531 0.0000 0.0000
# 5 0.0000 0.0000 0.0000 0.0000 24.1384 0.0000
# 6 0.0000 0.0000 0.0000 0.0000 0.0000 29.4436
#
#
#
# Elastic Compliance Matrix: (Units=1/GPa)
#
#
# Indices 1 2 3 4 5 6 
#
# 1 0.013759 -0.006947 -0.003769 0.000000 0.000000 0.000000
# 2 -0.006947 0.016412 -0.004075 0.000000 0.000000 0.000000
# 3 -0.003769 -0.004075 0.014941 0.000000 0.000000 0.000000
# 4 0.000000 0.000000 0.000000 0.135997 0.000000 0.000000
# 5 0.000000 0.000000 0.000000 0.000000 0.041428 0.000000
# 6 0.000000 0.000000 0.000000 0.000000 0.000000 0.033963
#
#
# Mechanical properties :
#
#
# Convention : Reuss Voigt Hill
#
# Bulk Modulus (GPa) = 64.39094 66.32876 65.35985
# Shear Modulus (GPa) = 17.16696 22.50019 19.83357
#
# Velocity S-wave (km/s) = 3.06750 3.51181 3.29715
# Velocity P-wave (km/s) = 6.91666 7.26636 7.09366
#
# Compressibility (1/GPa) = 0.01553014
#
# Stress axis : x y z
#
# Youngs Moduli (GPa) = 72.68229 60.92996 66.93170
#
# Poissons Ratio (x) = 0.42326 0.25229
# Poissons Ratio (y) = 0.50490 0.27272
# Poissons Ratio (z) = 0.27397 0.24826
#
# Static dielectric constant tensor:
#      x y z
#    x 3.612940 0.000000 0.000000 
#    y 0.000000 3.317390 0.000000 
#    z 0.000000 0.000000 3.296920 
# 
# 
# High freq. dielectric constant tensor:
#      x y z
#    x 1.719000 0.000000 0.000000 
#    y 0.000000 1.700160 0.000000 
#    z 0.000000 0.000000 1.688660 
# 
# From -- ./inp_files/56240.got.cif
#   From: 2010.06.25/outbox.cif.g09.slc.cpg/sg71_29_cif.got.tgz:56240.got - 2010.06.28 04:59:45.
