data_PCOD8289508
_publ_section_title
;
Structure prediction by ZEFSAII (Michael W. Deem and Ramdas Pophale) SiO2 
 PCOD8289508
Probable space group: I M M M
;
_chemical_formula_sum "Si O2"
_cell_formula_units_Z 72
_cell_length_a 9.069718
_cell_length_b 17.618027
_cell_length_c 23.026676
_cell_angle_alpha 90.000000
_cell_angle_beta 90.000000
_cell_angle_gamma 90.000000
_cell_volume 3679.444914
_symmetry_space_group_name_H-M "I M M M"
_symmetry_group_IT_number 71
_symmetry_cell_setting 'orthorhombic'
loop_
_space_group_symop_operation_xyz
x,y,z
-x,-y,z
x,-y,-z
-x,y,-z
-x,-y,-z
x,y,-z
-x,y,z
x,-y,z
1/2+x,1/2+y,1/2+z
1/2-x,1/2-y,1/2+z
1/2+x,1/2-y,1/2-z
1/2-x,1/2+y,1/2-z
1/2-x,1/2-y,1/2-z
1/2+x,1/2+y,1/2-z
1/2-x,1/2+y,1/2+z
1/2+x,1/2-y,1/2+z
loop_
_atom_site_type_symbol
_atom_site_label
_atom_site_fract_x
_atom_site_fract_y
_atom_site_fract_z
Si Si1 0.172813 0.851310 0.130585
Si Si2 0.675324 0.500000 0.434436
Si Si3 0.171782 0.412052 0.870300
Si Si4 0.327316 0.283712 0.933532
Si Si5 0.668121 0.587266 0.754156
O O1 0.235492 0.924937 0.097152
O O2 0.259043 0.778351 0.108906
O O3 0.204364 0.860566 0.198897
O O4 0.000000 0.840370 0.118043
O O5 0.500000 0.500000 0.431461
O O6 0.734749 0.500000 0.500000
O O7 0.207307 0.500000 0.881747
O O8 0.256304 0.365094 0.919449
O O9 0.226273 0.387589 0.806393
O O10 0.000000 0.393983 0.874360
O O11 0.500000 0.288634 0.922174
O O12 0.291181 0.262654 0.000000
O O13 0.500000 0.598859 0.774574
O O14 0.694859 0.500000 0.735946
#
# Coordination Sequence:
#
# PCOD8289508 Si02
#       5
#    16   8  16  16  16
#     4  10  19  34  58  87 117 154 195 236 281 330
#     4   9  16  28  51  83 115 151 196 237 274 321
#     4  10  22  40  63  89 113 143 187 237 292 349
#     4  11  25  42  58  81 115 153 193 237 288 344
#     4   9  17  33  58  88 121 152 188 233 282 338
#
# _framework density 19.568169999999999
#
# number of rings (size 3 to 8) (size 9 to 14) (size 15 to 20)
#    0.000    2.111    1.111    2.000    0.000    6.222 
#    0.000    2.778    0.000    2.000    0.000    0.000 
#    0.000    0.000    0.000    0.000    0.000    0.000 
#
# Total GULP energy -446540.691400 kJ/mol
# GULP energy per Si atom -12403.908094 kJ/mol
# Density = 1.952363 g / cm^3
# Si number density = 19.568170 Si / 1000 Ang^3
#
#
#
# Elastic Constant Matrix: (Units=GPa)
#
#
# Indices 1 2 3 4 5 6 
#
# 1 82.2650 45.3706 41.2131 0.0000 0.0000 0.0000
# 2 45.3706 93.3186 37.4663 0.0000 0.0000 0.0000
# 3 41.2131 37.4663 65.0555 0.0000 0.0000 0.0000
# 4 0.0000 0.0000 0.0000 35.5572 0.0000 0.0000
# 5 0.0000 0.0000 0.0000 0.0000 29.9828 0.0000
# 6 0.0000 0.0000 0.0000 0.0000 0.0000 27.5791
#
#
#
# Elastic Compliance Matrix: (Units=1/GPa)
#
#
# Indices 1 2 3 4 5 6 
#
# 1 0.020149 -0.006076 -0.009265 0.000000 0.000000 0.000000
# 2 -0.006076 0.015771 -0.005234 0.000000 0.000000 0.000000
# 3 -0.009265 -0.005234 0.024255 0.000000 0.000000 0.000000
# 4 0.000000 0.000000 0.000000 0.028124 0.000000 0.000000
# 5 0.000000 0.000000 0.000000 0.000000 0.033352 0.000000
# 6 0.000000 0.000000 0.000000 0.000000 0.000000 0.036259
#
#
# Mechanical properties :
#
#
# Convention : Reuss Voigt Hill
#
# Bulk Modulus (GPa) = 52.56116 54.30435 53.43275
# Shear Modulus (GPa) = 24.34255 26.39642 25.36949
#
# Velocity S-wave (km/s) = 3.53085 3.67679 3.60455
# Velocity P-wave (km/s) = 6.59859 6.77027 6.68498
#
# Compressibility (1/GPa) = 0.01902546
#
# Stress axis : x y z
#
# Youngs Moduli (GPa) = 49.63145 63.40576 41.22876
#
# Poissons Ratio (x) = 0.38527 0.38198
# Poissons Ratio (y) = 0.30158 0.21577
# Poissons Ratio (z) = 0.45983 0.33184
#
# Static dielectric constant tensor:
#      x y z
#    x 3.396830 0.000000 0.000000 
#    y 0.000000 3.548340 0.000000 
#    z 0.000000 0.000000 3.593260 
# 
# 
# High freq. dielectric constant tensor:
#      x y z
#    x 1.747640 0.000000 0.000000 
#    y 0.000000 1.763180 0.000000 
#    z 0.000000 0.000000 1.768000 
# 
# From -- ./inp_files/12175.got.cif
#   From: 2010.06.25/outbox.cif.g09.slc.cpg/sg71_7_cif.got.tgz:12175.got - 2010.06.28 04:59:45.
