data_PCOD8289724
_publ_section_title
;
Structure prediction by ZEFSAII (Michael W. Deem and Ramdas Pophale) SiO2 
 PCOD8289724
Probable space group: I M M M
;
_chemical_formula_sum "Si O2"
_cell_formula_units_Z 96
_cell_length_a 25.032412
_cell_length_b 24.814111
_cell_length_c 9.514690
_cell_angle_alpha 90.000000
_cell_angle_beta 90.000000
_cell_angle_gamma 90.000000
_cell_volume 5910.116772
_symmetry_space_group_name_H-M "I M M M"
_symmetry_group_IT_number 71
_symmetry_cell_setting 'orthorhombic'
loop_
_space_group_symop_operation_xyz
x,y,z
-x,-y,z
x,-y,-z
-x,y,-z
-x,-y,-z
x,y,-z
-x,y,z
x,-y,z
1/2+x,1/2+y,1/2+z
1/2-x,1/2-y,1/2+z
1/2+x,1/2-y,1/2-z
1/2-x,1/2+y,1/2-z
1/2-x,1/2-y,1/2-z
1/2+x,1/2+y,1/2-z
1/2-x,1/2+y,1/2+z
1/2+x,1/2-y,1/2+z
loop_
_atom_site_type_symbol
_atom_site_label
_atom_site_fract_x
_atom_site_fract_y
_atom_site_fract_z
Si Si1 0.644524 0.935992 0.339480
Si Si2 0.062239 0.628529 0.336629
Si Si3 0.242413 0.436027 0.343639
Si Si4 0.938321 0.151888 0.835193
Si Si5 0.563415 0.751235 0.844688
Si Si6 0.639522 0.559811 0.332943
O O1 0.645381 0.915950 0.500000
O O2 0.592990 0.913146 0.261185
O O3 0.698017 0.913768 0.263597
O O4 0.641434 0.000000 0.330817
O O5 0.073418 0.615669 0.500000
O O6 0.082440 0.689057 0.299629
O O7 0.000000 0.621790 0.302294
O O8 0.231571 0.412213 0.500000
O O9 0.240072 0.500000 0.352067
O O10 0.301426 0.419477 0.288370
O O11 0.915923 0.206222 0.763514
O O12 0.904781 0.101307 0.775786
O O13 0.000000 0.141148 0.796891
O O14 0.929990 0.159521 0.000000
O O15 0.500000 0.751977 0.848332
O O16 0.585449 0.737210 0.000000
O O17 0.637104 0.556514 0.500000
O O18 0.627739 0.500000 0.270774
#
# Coordination Sequence:
#
# PCOD8289724 Si02
#       6
#    16  16  16  16  16  16
#     4  10  20  31  44  66  94 117 137 171 221 266
#     4   9  18  32  49  67  86 113 149 181 209 250
#     4   8  14  27  46  62  79 112 155 187 209 244
#     4   9  16  25  41  67  94 118 145 178 218 262
#     4   8  15  29  46  62  83 113 148 182 213 248
#     4   8  14  25  42  65  91 118 149 183 216 252
#
# _framework density 16.243333
#
# number of rings (size 3 to 8) (size 9 to 14) (size 15 to 20)
#    0.000    3.333    0.000    2.500    0.000    2.667 
#    0.000    5.833    0.000    2.500    0.000    2.333 
#    0.000    0.000    0.000    0.000    0.000    0.000 
#
# Total GULP energy -594915.017045 kJ/mol
# GULP energy per Si atom -12394.062855 kJ/mol
# Density = 1.620636 g / cm^3
# Si number density = 16.243333 Si / 1000 Ang^3
#
#
#
# Elastic Constant Matrix: (Units=GPa)
#
#
# Indices 1 2 3 4 5 6 
#
# 1 81.7161 36.2664 46.9435 0.0000 0.0000 0.0000
# 2 36.2664 51.4593 34.9500 0.0000 0.0000 0.0000
# 3 46.9435 34.9500 71.7113 0.0000 0.0000 0.0000
# 4 0.0000 0.0000 0.0000 22.9760 0.0000 0.0000
# 5 0.0000 0.0000 0.0000 0.0000 14.5600 0.0000
# 6 0.0000 0.0000 0.0000 0.0000 0.0000 4.6584
#
#
#
# Elastic Compliance Matrix: (Units=1/GPa)
#
#
# Indices 1 2 3 4 5 6 
#
# 1 0.021844 -0.008495 -0.010159 0.000000 0.000000 0.000000
# 2 -0.008495 0.032351 -0.010206 0.000000 0.000000 0.000000
# 3 -0.010159 -0.010206 0.025570 0.000000 0.000000 0.000000
# 4 0.000000 0.000000 0.000000 0.043524 0.000000 0.000000
# 5 0.000000 0.000000 0.000000 0.000000 0.068681 0.000000
# 6 0.000000 0.000000 0.000000 0.000000 0.000000 0.214668
#
#
# Mechanical properties :
#
#
# Convention : Reuss Voigt Hill
#
# Bulk Modulus (GPa) = 45.36358 49.02295 47.19326
# Shear Modulus (GPa) = 10.59982 14.22065 12.41023
#
# Velocity S-wave (km/s) = 2.55730 2.96205 2.76709
# Velocity P-wave (km/s) = 6.05870 6.47644 6.27105
#
# Compressibility (1/GPa) = 0.02204411
#
# Stress axis : x y z
#
# Youngs Moduli (GPa) = 45.77985 30.91050 39.10903
#
# Poissons Ratio (x) = 0.26257 0.39732
# Poissons Ratio (y) = 0.38888 0.39916
# Poissons Ratio (z) = 0.46509 0.31549
#
# Static dielectric constant tensor:
#      x y z
#    x 3.095490 0.000000 0.000000 
#    y 0.000000 3.123100 0.000000 
#    z 0.000000 0.000000 3.065160 
# 
# 
# High freq. dielectric constant tensor:
#      x y z
#    x 1.611190 0.000000 0.000000 
#    y 0.000000 1.607060 0.000000 
#    z 0.000000 0.000000 1.608950 
# 
# From -- ./inp_files/13112.got.cif
#   From: 2010.06.25/outbox.cif.g09.slc.cpg/sg71_7_cif.got.tgz:13112.got - 2010.06.28 04:59:45.
