data_PCOD8289999
_publ_section_title
;
Structure prediction by ZEFSAII (Michael W. Deem and Ramdas Pophale) SiO2 
 PCOD8289999
Probable space group: I M M M
;
_chemical_formula_sum "Si O2"
_cell_formula_units_Z 56
_cell_length_a 7.718809
_cell_length_b 9.331269
_cell_length_c 42.994060
_cell_angle_alpha 90.000000
_cell_angle_beta 90.000000
_cell_angle_gamma 90.000000
_cell_volume 3096.702339
_symmetry_space_group_name_H-M "I M M M"
_symmetry_group_IT_number 71
_symmetry_cell_setting 'orthorhombic'
loop_
_space_group_symop_operation_xyz
x,y,z
-x,-y,z
x,-y,-z
-x,y,-z
-x,-y,-z
x,y,-z
-x,y,z
x,-y,z
1/2+x,1/2+y,1/2+z
1/2-x,1/2-y,1/2+z
1/2+x,1/2-y,1/2-z
1/2-x,1/2+y,1/2-z
1/2-x,1/2-y,1/2-z
1/2+x,1/2+y,1/2-z
1/2-x,1/2+y,1/2+z
1/2+x,1/2-y,1/2+z
loop_
_atom_site_type_symbol
_atom_site_label
_atom_site_fract_x
_atom_site_fract_y
_atom_site_fract_z
Si Si1 0.500000 0.170888 0.891268
Si Si2 0.000000 0.832722 0.327028
Si Si3 0.809474 0.830410 0.933951
Si Si4 0.302874 0.829991 0.000000
Si Si5 0.302739 0.166352 0.280565
O O1 0.500000 0.239138 0.857659
O O2 0.332142 0.228758 0.909873
O O3 0.500000 0.000000 0.887851
O O4 0.827168 0.790025 0.308132
O O5 0.000000 0.000000 0.335577
O O6 0.000000 0.786333 0.921833
O O7 0.787204 0.000000 0.935957
O O8 0.784462 0.766881 0.968743
O O9 0.500000 0.780690 0.000000
O O10 0.284611 0.000000 0.000000
O O11 0.500000 0.203618 0.290557
O O12 0.250000 0.250000 0.250000
O O13 0.282083 0.000000 0.272590
#
# Coordination Sequence:
#
# PCOD8289999 Si02
#       5
#     8   8  16   8  16
#     4  10  20  33  48  70 100 134 172 210 244 292
#     4  10  22  38  53  75 107 138 168 204 250 303
#     4   9  16  26  42  66  98 131 165 208 257 301
#     4   9  13  21  39  64  95 130 162 202 258 308
#     4  10  20  35  57  82 105 130 163 205 252 302
#
# _framework density 18.083755
#
# number of rings (size 3 to 8) (size 9 to 14) (size 15 to 20)
#    0.000    2.429    2.857    0.429    0.000    4.000 
#    0.000    0.000    0.000    0.000    0.000    2.000 
#    0.000    2.286    0.000    0.000    0.000    0.000 
#
# Total GULP energy -347103.629162 kJ/mol
# GULP energy per Si atom -12396.558184 kJ/mol
# Density = 1.804260 g / cm^3
# Si number density = 18.083755 Si / 1000 Ang^3
#
#
#
# Elastic Constant Matrix: (Units=GPa)
#
#
# Indices 1 2 3 4 5 6 
#
# 1 179.6861 31.1103 98.4920 0.0000 0.0000 0.0000
# 2 31.1103 22.9615 40.0251 0.0000 0.0000 0.0000
# 3 98.4920 40.0251 159.6469 0.0000 0.0000 0.0000
# 4 0.0000 0.0000 0.0000 18.7783 0.0000 0.0000
# 5 0.0000 0.0000 0.0000 0.0000 19.3702 0.0000
# 6 0.0000 0.0000 0.0000 0.0000 0.0000 13.9900
#
#
#
# Elastic Compliance Matrix: (Units=1/GPa)
#
#
# Indices 1 2 3 4 5 6 
#
# 1 0.008640 -0.004289 -0.004255 0.000000 0.000000 0.000000
# 2 -0.004289 0.079488 -0.017282 0.000000 0.000000 0.000000
# 3 -0.004255 -0.017282 0.013222 0.000000 0.000000 0.000000
# 4 0.000000 0.000000 0.000000 0.053253 0.000000 0.000000
# 5 0.000000 0.000000 0.000000 0.000000 0.051626 0.000000
# 6 0.000000 0.000000 0.000000 0.000000 0.000000 0.071479
#
#
# Mechanical properties :
#
#
# Convention : Reuss Voigt Hill
#
# Bulk Modulus (GPa) = 20.12204 77.94993 49.03599
# Shear Modulus (GPa) = 14.45392 23.27220 18.86306
#
# Velocity S-wave (km/s) = 2.83021 3.59125 3.23320
# Velocity P-wave (km/s) = 4.67241 7.77140 6.41194
#
# Compressibility (1/GPa) = 0.04969675
#
# Stress axis : x y z
#
# Youngs Moduli (GPa) = 115.73700 12.58051 75.63284
#
# Poissons Ratio (x) = 0.05396 0.32183
# Poissons Ratio (y) = 0.49644 1.30710
# Poissons Ratio (z) = 0.49247 0.21742
#
# Static dielectric constant tensor:
#      x y z
#    x 3.953490 0.000000 0.000000 
#    y 0.000000 2.822070 0.000000 
#    z 0.000000 0.000000 3.329560 
# 
# 
# High freq. dielectric constant tensor:
#      x y z
#    x 1.724060 0.000000 0.000000 
#    y 0.000000 1.640270 0.000000 
#    z 0.000000 0.000000 1.700440 
# 
# From -- ./inp_files/67665.got.cif
#   From: 2010.06.25/outbox.cif.g09.slc.cpg/sg71_34_cif.got.tgz:67665.got - 2010.06.28 04:59:45.
