data_PCOD8289307
_publ_section_title
;
Structure prediction by ZEFSAII (Michael W. Deem and Ramdas Pophale) SiO2 
 PCOD8289307
Probable space group: I M M M
;
_chemical_formula_sum "Si O2"
_cell_formula_units_Z 76
_cell_length_a 12.539019
_cell_length_b 22.236912
_cell_length_c 15.252305
_cell_angle_alpha 90.000000
_cell_angle_beta 90.000000
_cell_angle_gamma 90.000000
_cell_volume 4252.785898
_symmetry_space_group_name_H-M "I M M M"
_symmetry_group_IT_number 71
_symmetry_cell_setting 'orthorhombic'
loop_
_space_group_symop_operation_xyz
x,y,z
-x,-y,z
x,-y,-z
-x,y,-z
-x,-y,-z
x,y,-z
-x,y,z
x,-y,z
1/2+x,1/2+y,1/2+z
1/2-x,1/2-y,1/2+z
1/2+x,1/2-y,1/2-z
1/2-x,1/2+y,1/2-z
1/2-x,1/2-y,1/2-z
1/2+x,1/2+y,1/2-z
1/2-x,1/2+y,1/2+z
1/2+x,1/2-y,1/2+z
loop_
_atom_site_type_symbol
_atom_site_label
_atom_site_fract_x
_atom_site_fract_y
_atom_site_fract_z
Si Si1 0.716564 0.000000 0.000000
Si Si2 0.625499 0.500000 0.102416
Si Si3 0.745302 0.901252 0.703037
Si Si4 0.624785 0.000000 0.811492
Si Si5 0.881534 0.106750 0.000000
Si Si6 0.621855 0.317487 0.674282
Si Si7 0.873697 0.693838 0.901866
O O1 0.640735 0.000000 0.084305
O O2 0.791984 0.942943 0.000000
O O3 0.500000 0.500000 0.118969
O O4 0.673100 0.559053 0.147256
O O5 0.654308 0.500000 0.000000
O O6 0.678770 0.940810 0.771469
O O7 0.809317 0.849215 0.751796
O O8 0.663955 0.869347 0.637335
O O9 0.500000 0.000000 0.789286
O O10 0.866673 0.147573 0.916002
O O11 0.000000 0.077230 0.000000
O O12 0.500000 0.316608 0.706856
O O13 0.664911 0.249876 0.657821
O O14 0.000000 0.693748 0.905822
O O15 0.826880 0.700580 0.000000
#
# Coordination Sequence:
#
# PCOD8289307 Si02
#       7
#     4   8  16   8   8  16  16
#     4  12  20  38  54  78 108 154 180 208 276 318
#     4  10  22  39  56  78 109 142 177 221 269 321
#     4  11  21  36  56  80 105 138 182 220 266 310
#     4  11  24  37  52  74 106 143 185 226 260 311
#     4  10  19  33  55  86 115 138 171 219 267 320
#     4  10  19  34  56  83 111 136 171 218 267 321
#     4  10  20  35  56  80 107 140 174 214 267 318
#
# _framework density 17.870639000000001
#
# number of rings (size 3 to 8) (size 9 to 14) (size 15 to 20)
#    0.000    1.579    3.158    2.842    0.000    0.000 
#    0.000    0.000    0.000    5.053    0.000    0.000 
#    0.000    0.000    0.000    0.000    0.000    0.000 
#
# Total GULP energy -471254.990398 kJ/mol
# GULP energy per Si atom -12401.447116 kJ/mol
# Density = 1.782996 g / cm^3
# Si number density = 17.870639 Si / 1000 Ang^3
#
#
#
# Elastic Constant Matrix: (Units=GPa)
#
#
# Indices 1 2 3 4 5 6 
#
# 1 63.0486 39.2663 40.4214 0.0001 0.0000 0.0000
# 2 39.2663 116.2426 51.1012 0.0004 0.0000 0.0000
# 3 40.4214 51.1012 110.3377 0.0009 0.0000 0.0000
# 4 0.0001 0.0004 0.0009 -260.7072 0.0001 0.0000
# 5 0.0000 0.0000 0.0000 0.0001 29.4705 0.0000
# 6 0.0000 0.0000 0.0000 0.0000 0.0000 31.8620
#
#
#
# Elastic Compliance Matrix: (Units=1/GPa)
#
#
# Indices 1 2 3 4 5 6 
#
# 1 0.022893 -0.005081 -0.006034 0.000000 0.000000 0.000000
# 2 -0.005081 0.011930 -0.003664 0.000000 0.000000 0.000000
# 3 -0.006034 -0.003664 0.012970 0.000000 0.000000 0.000000
# 4 0.000000 0.000000 0.000000 -0.003836 0.000000 0.000000
# 5 0.000000 0.000000 0.000000 0.000000 0.033932 0.000000
# 6 0.000000 0.000000 0.000000 0.000000 0.000000 0.031385
#
#
# Mechanical properties :
#
#
# Convention : Reuss Voigt Hill
#
# Bulk Modulus (GPa) = 54.83419 61.24518 58.03968
# Shear Modulus (GPa) = 34.50407 -29.28559 2.60924
#
# Velocity S-wave (km/s) = 4.39882 -4.05255 1.20964
# Velocity P-wave (km/s) = 7.51998 3.52822 5.87360
#
# Compressibility (1/GPa) = 0.01823680
#
# Stress axis : x y z
#
# Youngs Moduli (GPa) = 43.68071 83.82535 77.09940
#
# Poissons Ratio (x) = 0.42590 0.46520
# Poissons Ratio (y) = 0.22193 0.28247
# Poissons Ratio (z) = 0.26356 0.30711
#
# Static dielectric constant tensor:
#      x y z
#    x 3.202660 0.000000 0.000000 
#    y 0.000000 3.515580 0.000000 
#    z 0.000000 0.000000 3.236850 
# 
# 
# High freq. dielectric constant tensor:
#      x y z
#    x 1.684510 0.000000 0.000000 
#    y 0.000000 1.703810 0.000000 
#    z 0.000000 0.000000 1.699670 
# 
# From -- ./inp_files/32702.got.cif
#   From: 2010.06.25/outbox.cif.g09.slc.cpg/sg71_17_cif.got.tgz:32702.got - 2010.06.28 04:59:45.
