data_PCOD8289123
_publ_section_title
;
Structure prediction by ZEFSAII (Michael W. Deem and Ramdas Pophale) SiO2 
 PCOD8289123
Probable space group: I M M M
;
_chemical_formula_sum "Si O2"
_cell_formula_units_Z 80
_cell_length_a 23.431442
_cell_length_b 9.214675
_cell_length_c 18.222206
_cell_angle_alpha 90.000000
_cell_angle_beta 90.000000
_cell_angle_gamma 90.000000
_cell_volume 3934.413402
_symmetry_space_group_name_H-M "I M M M"
_symmetry_group_IT_number 71
_symmetry_cell_setting 'orthorhombic'
loop_
_space_group_symop_operation_xyz
x,y,z
-x,-y,z
x,-y,-z
-x,y,-z
-x,-y,-z
x,y,-z
-x,y,z
x,-y,z
1/2+x,1/2+y,1/2+z
1/2-x,1/2-y,1/2+z
1/2+x,1/2-y,1/2-z
1/2-x,1/2+y,1/2-z
1/2-x,1/2-y,1/2-z
1/2+x,1/2+y,1/2-z
1/2-x,1/2+y,1/2+z
1/2+x,1/2-y,1/2+z
loop_
_atom_site_type_symbol
_atom_site_label
_atom_site_fract_x
_atom_site_fract_y
_atom_site_fract_z
Si Si1 0.770402 0.338924 0.000000
Si Si2 0.865494 0.834208 0.500000
Si Si3 0.136040 0.329259 0.645215
Si Si4 0.266693 0.662170 0.635858
Si Si5 0.067512 0.664310 0.917366
Si Si6 0.377837 0.334346 0.286015
O O1 0.702332 0.331579 0.000000
O O2 0.793502 0.263690 0.073087
O O3 0.794752 0.500000 0.000000
O O4 0.887638 0.749105 0.572022
O O5 0.888394 0.000000 0.500000
O O6 0.123133 0.500000 0.640080
O O7 0.202764 0.293218 0.657407
O O8 0.103902 0.261247 0.715596
O O9 0.265241 0.500000 0.603458
O O10 0.308887 0.673765 0.705132
O O11 0.084972 0.500000 0.895744
O O12 0.092925 0.776678 0.859466
O O13 0.000000 0.681063 0.916217
O O14 0.090174 0.699454 0.000000
O O15 0.397288 0.500000 0.272894
#
# Coordination Sequence:
#
# PCOD8289123 Si02
#       6
#     8   8  16  16  16  16
#     4   9  17  27  43  65  90 129 176 215 251 298
#     4   9  17  31  49  69  98 133 172 215 257 299
#     4  10  19  33  51  72 102 143 183 216 255 310
#     4   9  19  32  45  66 102 141 175 215 260 308
#     4   9  20  40  61  79 103 136 176 223 272 323
#     4  11  22  33  50  77 106 135 172 220 270 317
#
# _framework density 20.333399
#
# number of rings (size 3 to 8) (size 9 to 14) (size 15 to 20)
#    0.000    2.400    0.000    3.000    1.400    5.600 
#    0.000    1.000    0.000    0.000    0.000    0.700 
#    0.000    5.600    0.000    0.000    0.000    0.000 
#
# Total GULP energy -495925.885634 kJ/mol
# GULP energy per Si atom -12398.147141 kJ/mol
# Density = 2.028712 g / cm^3
# Si number density = 20.333399 Si / 1000 Ang^3
#
#
#
# Elastic Constant Matrix: (Units=GPa)
#
#
# Indices 1 2 3 4 5 6 
#
# 1 12.6785 12.2332 14.9628 0.0000 0.0000 0.0000
# 2 12.2332 153.4509 92.4151 0.0000 0.0000 0.0000
# 3 14.9628 92.4151 153.8378 0.0000 0.0000 0.0000
# 4 0.0000 0.0000 0.0000 45.3973 0.0000 0.0000
# 5 0.0000 0.0000 0.0000 0.0000 17.2598 0.0000
# 6 0.0000 0.0000 0.0000 0.0000 0.0000 17.9421
#
#
#
# Elastic Compliance Matrix: (Units=1/GPa)
#
#
# Indices 1 2 3 4 5 6 
#
# 1 0.089963 -0.002981 -0.006960 0.000000 0.000000 0.000000
# 2 -0.002981 0.010310 -0.005903 0.000000 0.000000 0.000000
# 3 -0.006960 -0.005903 0.010724 0.000000 0.000000 0.000000
# 4 0.000000 0.000000 0.000000 0.022028 0.000000 0.000000
# 5 0.000000 0.000000 0.000000 0.000000 0.057938 0.000000
# 6 0.000000 0.000000 0.000000 0.000000 0.000000 0.055735
#
#
# Mechanical properties :
#
#
# Convention : Reuss Voigt Hill
#
# Bulk Modulus (GPa) = 12.60885 62.13219 37.37052
# Shear Modulus (GPa) = 16.40307 29.47691 22.93999
#
# Velocity S-wave (km/s) = 2.84334 3.81160 3.36250
# Velocity P-wave (km/s) = 4.12237 7.07065 5.78740
#
# Compressibility (1/GPa) = 0.07930937
#
# Stress axis : x y z
#
# Youngs Moduli (GPa) = 11.11564 96.99629 93.25177
#
# Poissons Ratio (x) = 0.28910 0.64900
# Poissons Ratio (y) = 0.03313 0.55051
# Poissons Ratio (z) = 0.07736 0.57261
#
# Static dielectric constant tensor:
#      x y z
#    x 3.161050 0.000000 0.000000 
#    y 0.000000 3.760420 0.000000 
#    z 0.000000 0.000000 3.661420 
# 
# 
# High freq. dielectric constant tensor:
#      x y z
#    x 1.744280 0.000000 0.000000 
#    y 0.000000 1.802630 0.000000 
#    z 0.000000 0.000000 1.798520 
# 
# From -- ./inp_files/14577.got.cif
#   From: 2010.06.25/outbox.cif.g09.slc.cpg/sg71_8_cif.got.tgz:14577.got - 2010.06.28 04:59:45.
