data_PCOD8289585
_publ_section_title
;
Structure prediction by ZEFSAII (Michael W. Deem and Ramdas Pophale) SiO2 
 PCOD8289585
Probable space group: I M M M
;
_chemical_formula_sum "Si O2"
_cell_formula_units_Z 36
_cell_length_a 14.716806
_cell_length_b 18.318783
_cell_length_c 7.168083
_cell_angle_alpha 90.000000
_cell_angle_beta 90.000000
_cell_angle_gamma 90.000000
_cell_volume 1932.471993
_symmetry_space_group_name_H-M "I M M M"
_symmetry_group_IT_number 71
_symmetry_cell_setting 'orthorhombic'
loop_
_space_group_symop_operation_xyz
x,y,z
-x,-y,z
x,-y,-z
-x,y,-z
-x,-y,-z
x,y,-z
-x,y,z
x,-y,z
1/2+x,1/2+y,1/2+z
1/2-x,1/2-y,1/2+z
1/2+x,1/2-y,1/2-z
1/2-x,1/2+y,1/2-z
1/2-x,1/2-y,1/2-z
1/2+x,1/2+y,1/2-z
1/2-x,1/2+y,1/2+z
1/2+x,1/2-y,1/2+z
loop_
_atom_site_type_symbol
_atom_site_label
_atom_site_fract_x
_atom_site_fract_y
_atom_site_fract_z
Si Si1 0.343310 0.882775 0.500000
Si Si2 0.853585 0.084823 0.500000
Si Si3 0.607007 0.000000 0.207625
Si Si4 0.000000 0.266583 0.000000
Si Si5 0.000000 0.126639 0.206573
O O1 0.235954 0.863855 0.500000
O O2 0.362074 0.927621 0.687245
O O3 0.407199 0.812340 0.500000
O O4 0.910712 0.101266 0.315106
O O5 0.823349 0.000000 0.500000
O O6 0.500000 0.000000 0.198514
O O7 0.649413 0.000000 0.000000
O O8 0.000000 0.215010 0.184602
O O9 0.000000 0.090109 0.000000
#
# Coordination Sequence:
#
# PCOD8289585 Si02
#       5
#     8   8   8   4   8
#     4  11  20  39  63  91 130 149 197 266 299 355
#     4  11  22  40  67  89 115 161 207 267 300 336
#     4  10  19  35  58  95 119 161 202 237 319 359
#     4  10  22  43  61  84 134 168 184 252 304 372
#     4   9  23  43  56  88 119 166 208 238 301 360
#
# _framework density 18.628990000000002
#
# number of rings (size 3 to 8) (size 9 to 14) (size 15 to 20)
#    0.667    1.111    4.444    2.000    0.000    5.333 
#    8.000    0.000    0.000    0.000    0.000    0.000 
#    0.000    0.000    0.000    0.000    0.000    0.000 
#
# Total GULP energy -223130.728652 kJ/mol
# GULP energy per Si atom -12396.151592 kJ/mol
# Density = 1.858659 g / cm^3
# Si number density = 18.628990 Si / 1000 Ang^3
#
#
#
# Elastic Constant Matrix: (Units=GPa)
#
#
# Indices 1 2 3 4 5 6 
#
# 1 147.2116 32.4710 41.8300 0.0000 0.0000 0.0000
# 2 32.4710 86.6655 23.9605 0.0000 0.0000 0.0000
# 3 41.8300 23.9605 151.2340 0.0000 0.0000 0.0000
# 4 0.0000 0.0000 0.0000 21.5011 0.0000 0.0000
# 5 0.0000 0.0000 0.0000 0.0000 4.9257 0.0000
# 6 0.0000 0.0000 0.0000 0.0000 0.0000 0.8194
#
#
#
# Elastic Compliance Matrix: (Units=1/GPa)
#
#
# Indices 1 2 3 4 5 6 
#
# 1 0.007838 -0.002444 -0.001781 0.000000 0.000000 0.000000
# 2 -0.002444 0.012829 -0.001357 0.000000 0.000000 0.000000
# 3 -0.001781 -0.001357 0.007320 0.000000 0.000000 0.000000
# 4 0.000000 0.000000 0.000000 0.046509 0.000000 0.000000
# 5 0.000000 0.000000 0.000000 0.000000 0.203018 0.000000
# 6 0.000000 0.000000 0.000000 0.000000 0.000000 1.220437
#
#
# Mechanical properties :
#
#
# Convention : Reuss Voigt Hill
#
# Bulk Modulus (GPa) = 59.43847 64.62600 62.03224
# Shear Modulus (GPa) = 3.30093 24.57254 13.93674
#
# Velocity S-wave (km/s) = 1.33258 3.63581 2.73815
# Velocity P-wave (km/s) = 5.86033 7.23822 6.58541
#
# Compressibility (1/GPa) = 0.01682412
#
# Stress axis : x y z
#
# Youngs Moduli (GPa) = 127.58213 77.94537 136.61749
#
# Poissons Ratio (x) = 0.19053 0.24327
# Poissons Ratio (y) = 0.31186 0.18532
# Poissons Ratio (z) = 0.22718 0.10573
#
# Static dielectric constant tensor:
#      x y z
#    x 3.480270 0.000000 0.000000 
#    y 0.000000 3.317020 0.000000 
#    z 0.000000 0.000000 3.759140 
# 
# 
# High freq. dielectric constant tensor:
#      x y z
#    x 1.733860 0.000000 0.000000 
#    y 0.000000 1.704550 0.000000 
#    z 0.000000 0.000000 1.728030 
# 
# From -- ./inp_files/4439.got.cif
#   From: 2010.06.25/outbox.cif.g09.slc.cpg/sg71_3_cif.got.tgz:4439.got - 2010.06.28 04:59:45.
