data_PCOD8289467
_publ_section_title
;
Structure prediction by ZEFSAII (Michael W. Deem and Ramdas Pophale) SiO2 
 PCOD8289467
Probable space group: I M M M
;
_chemical_formula_sum "Si O2"
_cell_formula_units_Z 72
_cell_length_a 7.781584
_cell_length_b 26.873089
_cell_length_c 16.332689
_cell_angle_alpha 90.000000
_cell_angle_beta 90.000000
_cell_angle_gamma 90.000000
_cell_volume 3415.413517
_symmetry_space_group_name_H-M "I M M M"
_symmetry_group_IT_number 71
_symmetry_cell_setting 'orthorhombic'
loop_
_space_group_symop_operation_xyz
x,y,z
-x,-y,z
x,-y,-z
-x,y,-z
-x,-y,-z
x,y,-z
-x,y,z
x,-y,z
1/2+x,1/2+y,1/2+z
1/2-x,1/2-y,1/2+z
1/2+x,1/2-y,1/2-z
1/2-x,1/2+y,1/2-z
1/2-x,1/2-y,1/2-z
1/2+x,1/2+y,1/2-z
1/2-x,1/2+y,1/2+z
1/2+x,1/2-y,1/2+z
loop_
_atom_site_type_symbol
_atom_site_label
_atom_site_fract_x
_atom_site_fract_y
_atom_site_fract_z
Si Si1 0.701777 0.609170 0.677985
Si Si2 0.699905 0.723636 0.333766
Si Si3 0.801436 0.270468 0.000000
Si Si4 0.000000 0.554091 0.594633
Si Si5 0.702514 0.444278 0.844816
Si Si6 0.204631 0.884051 0.500000
O O1 0.500000 0.600284 0.657384
O O2 0.754014 0.666612 0.674990
O O3 0.753238 0.587293 0.765754
O O4 0.822972 0.582308 0.613495
O O5 0.500000 0.729361 0.344430
O O6 0.750000 0.750000 0.250000
O O7 0.784777 0.747685 0.416434
O O8 0.782557 0.329427 0.000000
O O9 0.000000 0.255589 0.000000
O O10 0.000000 0.500000 0.638808
O O11 0.000000 0.545527 0.500000
O O12 0.500000 0.448949 0.853193
O O13 0.782342 0.500000 0.841096
O O14 0.775775 0.414139 0.921982
O O15 0.000000 0.879569 0.500000
#
# Coordination Sequence:
#
# PCOD8289467 Si02
#       6
#    16  16   8   8  16   8
#     4  10  22  41  65  90 126 166 207 255 317 380
#     4  10  22  39  61  90 122 162 209 256 310 375
#     4  10  22  39  57  81 122 161 194 241 305 365
#     4  11  26  44  64  95 125 155 211 270 322 383
#     4   9  17  32  58  88 118 156 198 244 301 360
#     4  10  19  34  56  86 120 154 201 249 289 356
#
# _framework density 21.080902999999999
#
# number of rings (size 3 to 8) (size 9 to 14) (size 15 to 20)
#    0.000    2.111    0.000    2.333    3.111    5.778 
#    2.000    1.111    0.000    0.667    0.000    0.000 
#    0.000    0.000    0.000    0.000    0.000    0.000 
#
# Total GULP energy -446257.730512 kJ/mol
# GULP energy per Si atom -12396.048070 kJ/mol
# Density = 2.103292 g / cm^3
# Si number density = 21.080903 Si / 1000 Ang^3
#
#
#
# Elastic Constant Matrix: (Units=GPa)
#
#
# Indices 1 2 3 4 5 6 
#
# 1 48.5160 35.3753 20.7106 -0.0002 0.0000 0.0000
# 2 35.3753 203.7796 97.6007 -0.0001 0.0000 0.0000
# 3 20.7106 97.6007 166.5597 -0.0010 -0.0001 0.0000
# 4 -0.0002 -0.0001 -0.0010 44.3809 0.0000 0.0000
# 5 0.0000 0.0000 -0.0001 0.0000 26.8571 -0.0001
# 6 0.0000 0.0000 0.0000 0.0000 -0.0001 25.3348
#
#
#
# Elastic Compliance Matrix: (Units=1/GPa)
#
#
# Indices 1 2 3 4 5 6 
#
# 1 0.023665 -0.003752 -0.000744 0.000000 0.000000 0.000000
# 2 -0.003752 0.007417 -0.003880 0.000000 0.000000 0.000000
# 3 -0.000744 -0.003880 0.008370 0.000000 0.000000 0.000000
# 4 0.000000 0.000000 0.000000 0.022532 0.000000 0.000000
# 5 0.000000 0.000000 0.000000 0.000000 0.037234 0.000000
# 6 0.000000 0.000000 0.000000 0.000000 0.000000 0.039471
#
#
# Mechanical properties :
#
#
# Convention : Reuss Voigt Hill
#
# Bulk Modulus (GPa) = 44.05180 80.69205 62.37192
# Shear Modulus (GPa) = 30.67362 36.99249 33.83306
#
# Velocity S-wave (km/s) = 3.81864 4.19356 4.01049
# Velocity P-wave (km/s) = 6.35489 7.86183 7.14818
#
# Compressibility (1/GPa) = 0.02270055
#
# Stress axis : x y z
#
# Youngs Moduli (GPa) = 42.25655 134.83185 119.47866
#
# Poissons Ratio (x) = 0.50585 0.08891
# Poissons Ratio (y) = 0.15854 0.46352
# Poissons Ratio (z) = 0.03144 0.52308
#
# Static dielectric constant tensor:
#      x y z
#    x 3.524610 0.000000 0.000000 
#    y 0.000000 9.574050 0.000060 
#    z 0.000000 0.000060 4.021540 
# 
# 
# High freq. dielectric constant tensor:
#      x y z
#    x 1.802750 0.000000 0.000000 
#    y 0.000000 1.843740 0.000000 
#    z 0.000000 0.000000 1.837440 
# 
# From -- ./inp_files/31483.got.cif
#   From: 2010.06.25/outbox.cif.g09.slc.cpg/sg71_16_cif.got.tgz:31483.got - 2010.06.28 04:59:45.
