data_PCOD8289349
_publ_section_title
;
Structure prediction by ZEFSAII (Michael W. Deem and Ramdas Pophale) SiO2 
 PCOD8289349
Probable space group: I M M M
;
_chemical_formula_sum "Si O2"
_cell_formula_units_Z 96
_cell_length_a 23.592368
_cell_length_b 22.927574
_cell_length_c 10.436036
_cell_angle_alpha 90.000000
_cell_angle_beta 90.000000
_cell_angle_gamma 90.000000
_cell_volume 5645.016377
_symmetry_space_group_name_H-M "I M M M"
_symmetry_group_IT_number 71
_symmetry_cell_setting 'orthorhombic'
loop_
_space_group_symop_operation_xyz
x,y,z
-x,-y,z
x,-y,-z
-x,y,-z
-x,-y,-z
x,y,-z
-x,y,z
x,-y,z
1/2+x,1/2+y,1/2+z
1/2-x,1/2-y,1/2+z
1/2+x,1/2-y,1/2-z
1/2-x,1/2+y,1/2-z
1/2-x,1/2-y,1/2-z
1/2+x,1/2+y,1/2-z
1/2-x,1/2+y,1/2+z
1/2+x,1/2-y,1/2+z
loop_
_atom_site_type_symbol
_atom_site_label
_atom_site_fract_x
_atom_site_fract_y
_atom_site_fract_z
Si Si1 0.261976 0.124538 0.648847
Si Si2 0.564673 0.257286 0.859984
Si Si3 0.935944 0.120311 0.758764
Si Si4 0.359097 0.211977 0.643149
Si Si5 0.176018 0.840213 0.862649
Si Si6 0.233511 0.000000 0.353000
Si Si7 0.892928 0.000000 0.651507
O O1 0.245448 0.135929 0.500000
O O2 0.318367 0.159096 0.685989
O O3 0.209102 0.140762 0.737069
O O4 0.271903 0.056191 0.678980
O O5 0.500000 0.238281 0.856550
O O6 0.571070 0.326942 0.842615
O O7 0.592637 0.217984 0.749451
O O8 0.590987 0.242467 0.000000
O O9 0.887934 0.133607 0.864674
O O10 0.000000 0.121711 0.817448
O O11 0.926236 0.057479 0.695910
O O12 0.384459 0.200070 0.500000
O O13 0.322496 0.270471 0.640367
O O14 0.203069 0.860078 0.000000
O O15 0.170899 0.000000 0.286789
O O16 0.216885 0.000000 0.500000
O O17 0.892439 0.000000 0.500000
#
# Coordination Sequence:
#
# PCOD8289349 Si02
#       7
#    16  16  16  16  16   8   8
#     4  10  19  34  52  71  95 123 159 200 244 290
#     4   9  18  32  50  74 102 128 156 195 241 283
#     4  10  20  32  46  66  94 129 168 208 245 282
#     4   9  19  32  49  73  98 126 158 193 238 292
#     4  10  20  33  48  69  95 125 161 201 247 291
#     4   9  18  31  50  70  92 126 161 199 246 282
#     4  11  19  30  47  68  92 125 171 213 247 279
#
# _framework density 17.006150000000002
#
# number of rings (size 3 to 8) (size 9 to 14) (size 15 to 20)
#    0.000    2.333    1.667    1.250    0.000    5.333 
#    0.000    5.000    0.000    1.000    0.000    0.583 
#    0.000    4.667    0.000    0.000    0.000    0.000 
#
# Total GULP energy -594661.212928 kJ/mol
# GULP energy per Si atom -12388.775269 kJ/mol
# Density = 1.696744 g / cm^3
# Si number density = 17.006150 Si / 1000 Ang^3
#
#
#
# Elastic Constant Matrix: (Units=GPa)
#
#
# Indices 1 2 3 4 5 6 
#
# 1 75.9578 56.2946 48.0945 0.0000 0.0000 0.0000
# 2 56.2946 95.2949 36.5034 0.0000 0.0000 0.0000
# 3 48.0945 36.5034 101.5742 0.0000 0.0000 0.0000
# 4 0.0000 0.0000 0.0000 12.5503 0.0000 0.0000
# 5 0.0000 0.0000 0.0000 0.0000 20.4086 0.0000
# 6 0.0000 0.0000 0.0000 0.0000 0.0000 -7.9198
#
#
#
# Elastic Compliance Matrix: (Units=1/GPa)
#
#
# Indices 1 2 3 4 5 6 
#
# 1 0.028846 -0.013694 -0.008737 0.000000 0.000000 0.000000
# 2 -0.013694 0.018670 -0.000226 0.000000 0.000000 0.000000
# 3 -0.008737 -0.000226 0.014063 0.000000 0.000000 0.000000
# 4 0.000000 0.000000 0.000000 0.079679 0.000000 0.000000
# 5 0.000000 0.000000 0.000000 0.000000 0.048999 0.000000
# 6 0.000000 0.000000 0.000000 0.000000 0.000000 -0.126265
#
#
# Mechanical properties :
#
#
# Convention : Reuss Voigt Hill
#
# Bulk Modulus (GPa) = 61.47851 61.62352 61.55102
# Shear Modulus (GPa) = 43.58169 13.80345 28.69257
#
# Velocity S-wave (km/s) = 5.06781 2.85208 4.11200
# Velocity P-wave (km/s) = 8.39481 6.86735 7.66920
#
# Compressibility (1/GPa) = 0.01626585
#
# Stress axis : x y z
#
# Youngs Moduli (GPa) = 34.66651 53.56293 71.10827
#
# Poissons Ratio (x) = 0.73348 0.62129
# Poissons Ratio (y) = 0.47472 0.01604
# Poissons Ratio (z) = 0.30289 0.01208
#
# Static dielectric constant tensor:
#      x y z
#    x 3.055500 0.000000 0.000000 
#    y 0.000000 2.371020 0.000000 
#    z 0.000000 0.000000 3.260200 
# 
# 
# High freq. dielectric constant tensor:
#      x y z
#    x 1.633140 0.000000 0.000000 
#    y 0.000000 1.643450 0.000000 
#    z 0.000000 0.000000 1.653150 
# 
# From -- ./inp_files/27594.got.cif
#   From: 2010.06.25/outbox.cif.g09.slc.cpg/sg71_14_cif.got.tgz:27594.got - 2010.06.28 04:59:45.
