data_PCOD8289785
_publ_section_title
;
Structure prediction by ZEFSAII (Michael W. Deem and Ramdas Pophale) SiO2 
 PCOD8289785
Probable space group: I M M M
;
_chemical_formula_sum "Si O2"
_cell_formula_units_Z 112
_cell_length_a 27.207638
_cell_length_b 13.593566
_cell_length_c 15.462150
_cell_angle_alpha 90.000000
_cell_angle_beta 90.000000
_cell_angle_gamma 90.000000
_cell_volume 5718.657976
_symmetry_space_group_name_H-M "I M M M"
_symmetry_group_IT_number 71
_symmetry_cell_setting 'orthorhombic'
loop_
_space_group_symop_operation_xyz
x,y,z
-x,-y,z
x,-y,-z
-x,y,-z
-x,-y,-z
x,y,-z
-x,y,z
x,-y,z
1/2+x,1/2+y,1/2+z
1/2-x,1/2-y,1/2+z
1/2+x,1/2-y,1/2-z
1/2-x,1/2+y,1/2-z
1/2-x,1/2-y,1/2-z
1/2+x,1/2+y,1/2-z
1/2-x,1/2+y,1/2+z
1/2+x,1/2-y,1/2+z
loop_
_atom_site_type_symbol
_atom_site_label
_atom_site_fract_x
_atom_site_fract_y
_atom_site_fract_z
Si Si1 0.842492 0.307585 0.744185
Si Si2 0.180391 0.109985 0.337984
Si Si3 0.722810 0.110630 0.097820
Si Si4 0.941819 0.891230 0.095152
Si Si5 0.445236 0.253525 0.250744
Si Si6 0.721416 0.803356 0.597110
Si Si7 0.075526 0.889263 0.404208
O O1 0.828586 0.191892 0.735678
O O2 0.821229 0.370293 0.664805
O O3 0.901711 0.326786 0.741111
O O4 0.819524 0.341793 0.835461
O O5 0.229450 0.132854 0.391397
O O6 0.134579 0.116790 0.403024
O O7 0.184258 0.000000 0.297210
O O8 0.766640 0.187988 0.114327
O O9 0.743135 0.000000 0.111677
O O10 0.702255 0.124001 0.000000
O O11 0.924537 0.817171 0.168907
O O12 0.000000 0.897073 0.096301
O O13 0.920248 0.000000 0.114359
O O14 0.923671 0.855349 0.000000
O O15 0.500000 0.208228 0.268253
O O16 0.450013 0.319246 0.165243
O O17 0.701281 0.819243 0.500000
O O18 0.058178 0.857345 0.500000
O O19 0.057898 0.000000 0.383872
#
# Coordination Sequence:
#
# PCOD8289785 Si02
#       7
#    16  16  16  16  16  16  16
#     4  10  21  33  49  74 101 131 167 208 246 286
#     4   9  17  31  51  74 103 135 160 186 231 293
#     4   9  18  35  58  78  98 128 164 203 249 299
#     4   8  14  26  44  63  83 114 161 210 247 282
#     4  10  20  32  45  63  91 128 168 208 249 287
#     4  10  20  32  48  75 107 133 160 196 240 293
#     4   9  17  28  43  66  96 128 158 185 220 277
#
# _framework density 19.585014000000001
#
# number of rings (size 3 to 8) (size 9 to 14) (size 15 to 20)
#    0.000    2.714    0.000    3.000    0.000    8.857 
#    0.000    0.714    0.000    2.143    0.000    1.000 
#    0.000    0.000    0.000    6.143    0.000    0.000 
#
# Total GULP energy -693927.156389 kJ/mol
# GULP energy per Si atom -12391.556364 kJ/mol
# Density = 1.954044 g / cm^3
# Si number density = 19.585014 Si / 1000 Ang^3
#
#
#
# Elastic Constant Matrix: (Units=GPa)
#
#
# Indices 1 2 3 4 5 6 
#
# 1 84.5270 6.1485 37.6728 0.0000 0.0000 0.0000
# 2 6.1485 42.9257 1.3593 0.0000 0.0000 0.0000
# 3 37.6728 1.3593 109.3977 0.0000 0.0000 0.0000
# 4 0.0000 0.0000 0.0000 16.2810 0.0000 0.0000
# 5 0.0000 0.0000 0.0000 0.0000 17.5625 0.0000
# 6 0.0000 0.0000 0.0000 0.0000 0.0000 12.8967
#
#
#
# Elastic Compliance Matrix: (Units=1/GPa)
#
#
# Indices 1 2 3 4 5 6 
#
# 1 0.014124 -0.001870 -0.004841 0.000000 0.000000 0.000000
# 2 -0.001870 0.023553 0.000351 0.000000 0.000000 0.000000
# 3 -0.004841 0.000351 0.010804 0.000000 0.000000 0.000000
# 4 0.000000 0.000000 0.000000 0.061421 0.000000 0.000000
# 5 0.000000 0.000000 0.000000 0.000000 0.056940 0.000000
# 6 0.000000 0.000000 0.000000 0.000000 0.000000 0.077539
#
#
# Mechanical properties :
#
#
# Convention : Reuss Voigt Hill
#
# Bulk Modulus (GPa) = 27.96261 36.35684 32.15972
# Shear Modulus (GPa) = 18.58604 22.12603 20.35603
#
# Velocity S-wave (km/s) = 3.08391 3.36481 3.22742
# Velocity P-wave (km/s) = 5.19512 5.80516 5.50859
#
# Compressibility (1/GPa) = 0.03576204
#
# Stress axis : x y z
#
# Youngs Moduli (GPa) = 70.80183 42.45781 92.56242
#
# Poissons Ratio (x) = 0.07939 0.44805
# Poissons Ratio (y) = 0.13238 -0.03251
# Poissons Ratio (z) = 0.34272 -0.01491
#
# Static dielectric constant tensor:
#      x y z
#    x 3.378490 0.000000 0.000000 
#    y 0.000000 3.362020 0.000000 
#    z 0.000000 0.000000 3.765540 
# 
# 
# High freq. dielectric constant tensor:
#      x y z
#    x 1.743700 0.000000 0.000000 
#    y 0.000000 1.715820 0.000000 
#    z 0.000000 0.000000 1.773450 
# 
# From -- ./inp_files/40354.got.cif
#   From: 2010.06.25/outbox.cif.g09.slc.cpg/sg71_21_cif.got.tgz:40354.got - 2010.06.28 04:59:45.
