data_PCOD8289801
_publ_section_title
;
Structure prediction by ZEFSAII (Michael W. Deem and Ramdas Pophale) SiO2 
 PCOD8289801
Probable space group: I M M M
;
_chemical_formula_sum "Si O2"
_cell_formula_units_Z 72
_cell_length_a 8.884095
_cell_length_b 31.355428
_cell_length_c 14.414168
_cell_angle_alpha 90.000000
_cell_angle_beta 90.000000
_cell_angle_gamma 90.000000
_cell_volume 4015.276959
_symmetry_space_group_name_H-M "I M M M"
_symmetry_group_IT_number 71
_symmetry_cell_setting 'orthorhombic'
loop_
_space_group_symop_operation_xyz
x,y,z
-x,-y,z
x,-y,-z
-x,y,-z
-x,-y,-z
x,y,-z
-x,y,z
x,-y,z
1/2+x,1/2+y,1/2+z
1/2-x,1/2-y,1/2+z
1/2+x,1/2-y,1/2-z
1/2-x,1/2+y,1/2-z
1/2-x,1/2-y,1/2-z
1/2+x,1/2+y,1/2-z
1/2-x,1/2+y,1/2+z
1/2+x,1/2-y,1/2+z
loop_
_atom_site_type_symbol
_atom_site_label
_atom_site_fract_x
_atom_site_fract_y
_atom_site_fract_z
Si Si1 0.177226 0.713712 0.688058
Si Si2 0.677268 0.166557 0.500000
Si Si3 0.336109 0.048515 0.500000
Si Si4 0.677677 0.547521 0.189404
Si Si5 0.820154 0.236945 0.000000
Si Si6 0.674762 0.870030 0.302835
O O1 0.250000 0.750000 0.750000
O O2 0.255402 0.712443 0.588564
O O3 0.212225 0.668825 0.735842
O O4 0.000000 0.722124 0.679310
O O5 0.500000 0.172680 0.500000
O O6 0.742908 0.214567 0.500000
O O7 0.731145 0.141315 0.592146
O O8 0.500000 0.073435 0.500000
O O9 0.235831 0.059381 0.587670
O O10 0.380203 0.000000 0.500000
O O11 0.500000 0.547789 0.192445
O O12 0.734716 0.500000 0.221625
O O13 0.743905 0.588258 0.244316
O O14 0.000000 0.234683 0.000000
O O15 0.500000 0.880782 0.304940
#
# Coordination Sequence:
#
# PCOD8289801 Si02
#       6
#    16   8   8  16   8  16
#     4  11  22  37  57  83 111 141 180 225 269 319
#     4   9  17  32  50  73 104 140 180 218 257 306
#     4   9  16  27  44  64  91 132 175 210 253 310
#     4  10  20  32  46  69 101 133 172 222 267 310
#     4  11  21  38  58  78 110 148 181 221 268 319
#     4  10  20  34  53  76 106 142 181 221 261 315
#
# _framework density 17.931515000000001
#
# number of rings (size 3 to 8) (size 9 to 14) (size 15 to 20)
#    0.000    1.889    2.222    2.667    0.000    5.333 
#    0.000    0.000    0.000    0.000    0.000    0.778 
#    0.000    6.222    0.000    0.000    0.000    0.000 
#
# Total GULP energy -446063.606675 kJ/mol
# GULP energy per Si atom -12390.655741 kJ/mol
# Density = 1.789070 g / cm^3
# Si number density = 17.931515 Si / 1000 Ang^3
#
#
#
# Elastic Constant Matrix: (Units=GPa)
#
#
# Indices 1 2 3 4 5 6 
#
# 1 74.4244 66.5175 37.1568 -0.0001 0.0000 0.0000
# 2 66.5175 162.8668 50.1606 -0.0001 0.0000 0.0000
# 3 37.1568 50.1606 92.3403 -0.0003 0.0001 0.0001
# 4 -0.0001 -0.0001 -0.0003 20.5085 0.0000 0.0000
# 5 0.0000 0.0000 0.0001 0.0000 25.2163 0.0000
# 6 0.0000 0.0000 0.0001 0.0000 0.0000 31.2850
#
#
#
# Elastic Compliance Matrix: (Units=1/GPa)
#
#
# Indices 1 2 3 4 5 6 
#
# 1 0.022913 -0.007828 -0.004968 0.000000 0.000000 0.000000
# 2 -0.007828 0.010048 -0.002308 0.000000 0.000000 0.000000
# 3 -0.004968 -0.002308 0.014082 0.000000 0.000000 0.000000
# 4 0.000000 0.000000 0.000000 0.048760 0.000000 0.000000
# 5 0.000000 0.000000 0.000000 0.000000 0.039657 0.000000
# 6 0.000000 0.000000 0.000000 0.000000 0.000000 0.031964
#
#
# Mechanical properties :
#
#
# Convention : Reuss Voigt Hill
#
# Bulk Modulus (GPa) = 59.39888 70.81125 65.10506
# Shear Modulus (GPa) = 24.60090 27.12171 25.86131
#
# Velocity S-wave (km/s) = 3.70798 3.89333 3.80179
# Velocity P-wave (km/s) = 7.17841 7.73216 7.46042
#
# Compressibility (1/GPa) = 0.01683534
#
# Stress axis : x y z
#
# Youngs Moduli (GPa) = 43.64339 99.52203 71.01093
#
# Poissons Ratio (x) = 0.77907 0.35276
# Poissons Ratio (y) = 0.34164 0.16391
# Poissons Ratio (z) = 0.21680 0.22973
#
# Static dielectric constant tensor:
#      x y z
#    x 3.273500 0.000000 0.000000 
#    y 0.000000 3.796700 0.000000 
#    z 0.000000 0.000000 3.176200 
# 
# 
# High freq. dielectric constant tensor:
#      x y z
#    x 1.691960 0.000000 0.000000 
#    y 0.000000 1.718400 0.000000 
#    z 0.000000 0.000000 1.646390 
# 
# From -- ./inp_files/31689.got.cif
#   From: 2010.06.25/outbox.cif.g09.slc.cpg/sg71_16_cif.got.tgz:31689.got - 2010.06.28 04:59:45.
