data_PCOD8289255
_publ_section_title
;
Structure prediction by ZEFSAII (Michael W. Deem and Ramdas Pophale) SiO2 
 PCOD8289255
Probable space group: I M M M
;
_chemical_formula_sum "Si O2"
_cell_formula_units_Z 104
_cell_length_a 13.925141
_cell_length_b 27.479243
_cell_length_c 14.260530
_cell_angle_alpha 90.000000
_cell_angle_beta 90.000000
_cell_angle_gamma 90.000000
_cell_volume 5456.825079
_symmetry_space_group_name_H-M "I M M M"
_symmetry_group_IT_number 71
_symmetry_cell_setting 'orthorhombic'
loop_
_space_group_symop_operation_xyz
x,y,z
-x,-y,z
x,-y,-z
-x,y,-z
-x,-y,-z
x,y,-z
-x,y,z
x,-y,z
1/2+x,1/2+y,1/2+z
1/2-x,1/2-y,1/2+z
1/2+x,1/2-y,1/2-z
1/2-x,1/2+y,1/2-z
1/2-x,1/2-y,1/2-z
1/2+x,1/2+y,1/2-z
1/2-x,1/2+y,1/2+z
1/2+x,1/2-y,1/2+z
loop_
_atom_site_type_symbol
_atom_site_label
_atom_site_fract_x
_atom_site_fract_y
_atom_site_fract_z
Si Si1 0.607937 0.328477 0.200942
Si Si2 0.888160 0.443959 0.241729
Si Si3 0.191032 0.262178 0.606583
Si Si4 0.769651 0.910216 0.389038
Si Si5 0.605838 0.500000 0.111282
Si Si6 0.388733 0.134307 0.106673
Si Si7 0.893928 0.792299 0.104142
O O1 0.500000 0.341612 0.166295
O O2 0.632186 0.272726 0.174969
O O3 0.687232 0.360431 0.149690
O O4 0.613933 0.333145 0.314159
O O5 0.859107 0.500000 0.260516
O O6 0.835024 0.421810 0.151329
O O7 0.857879 0.412164 0.331769
O O8 0.000000 0.439492 0.219257
O O9 0.156195 0.252871 0.500000
O O10 0.170889 0.317963 0.636618
O O11 0.306614 0.253668 0.616051
O O12 0.760510 0.906991 0.500000
O O13 0.840435 0.952265 0.353135
O O14 0.500000 0.500000 0.155686
O O15 0.601334 0.500000 0.000000
O O16 0.500000 0.147027 0.121061
O O17 0.366200 0.119691 0.000000
O O18 0.000000 0.766904 0.112703
O O19 0.884033 0.816651 0.000000
#
# Coordination Sequence:
#
# PCOD8289255 Si02
#       7
#    16  16  16  16   8  16  16
#     4  11  22  35  56  84 112 145 186 231 275 325
#     4  10  21  37  57  81 109 144 189 234 276 331
#     4  10  19  33  54  80 113 150 184 222 270 326
#     4  11  22  37  55  79 109 141 181 228 276 328
#     4   9  18  34  55  75  98 131 169 215 273 326
#     4   9  18  33  55  83 114 147 183 228 283 333
#     4   9  19  35  53  75 105 145 189 227 268 320
#
# _framework density 19.058703000000001
#
# number of rings (size 3 to 8) (size 9 to 14) (size 15 to 20)
#    0.000    2.077    0.769    2.769    0.000    3.077 
#    0.000    4.615    0.000    1.846    0.000    0.000 
#    0.000    3.692    0.000    0.000    0.000    0.000 
#
# Total GULP energy -644598.425714 kJ/mol
# GULP energy per Si atom -12396.123571 kJ/mol
# Density = 1.901532 g / cm^3
# Si number density = 19.058703 Si / 1000 Ang^3
#
#
#
# Elastic Constant Matrix: (Units=GPa)
#
#
# Indices 1 2 3 4 5 6 
#
# 1 93.7600 41.2009 44.2916 0.0001 0.0000 0.0000
# 2 41.2009 100.6311 55.4273 -0.0004 -0.0001 0.0000
# 3 44.2916 55.4273 108.4457 -0.0013 -0.0001 0.0000
# 4 0.0001 -0.0004 -0.0013 20.8698 0.0000 0.0000
# 5 0.0000 -0.0001 -0.0001 0.0000 29.1352 0.0000
# 6 0.0000 0.0000 0.0000 0.0000 0.0000 27.6309
#
#
#
# Elastic Compliance Matrix: (Units=1/GPa)
#
#
# Indices 1 2 3 4 5 6 
#
# 1 0.014104 -0.003621 -0.003909 0.000000 0.000000 0.000000
# 2 -0.003621 0.014761 -0.006065 0.000000 0.000000 0.000000
# 3 -0.003909 -0.006065 0.013918 0.000001 0.000000 0.000000
# 4 0.000000 0.000000 0.000001 0.047916 0.000000 0.000000
# 5 0.000000 0.000000 0.000000 0.000000 0.034323 0.000000
# 6 0.000000 0.000000 0.000000 0.000000 0.000000 0.036191
#
#
# Mechanical properties :
#
#
# Convention : Reuss Voigt Hill
#
# Bulk Modulus (GPa) = 64.14191 64.96406 64.55299
# Shear Modulus (GPa) = 25.82637 26.32165 26.07401
#
# Velocity S-wave (km/s) = 3.68516 3.72032 3.70278
# Velocity P-wave (km/s) = 7.19966 7.25360 7.22668
#
# Compressibility (1/GPa) = 0.01559043
#
# Stress axis : x y z
#
# Youngs Moduli (GPa) = 70.90438 67.74805 71.84975
#
# Poissons Ratio (x) = 0.24532 0.28089
# Poissons Ratio (y) = 0.25675 0.43579
# Poissons Ratio (z) = 0.27720 0.41091
#
# Static dielectric constant tensor:
#      x y z
#    x 3.725450 0.000000 0.000000 
#    y 0.000000 3.305660 0.000000 
#    z 0.000000 0.000000 3.549160 
# 
# 
# High freq. dielectric constant tensor:
#      x y z
#    x 1.756060 0.000000 0.000000 
#    y 0.000000 1.712030 0.000000 
#    z 0.000000 0.000000 1.741820 
# 
# From -- ./inp_files/34848.got.cif
#   From: 2010.06.25/outbox.cif.g09.slc.cpg/sg71_18_cif.got.tgz:34848.got - 2010.06.28 04:59:45.
