data_PCOD8289707
_publ_section_title
;
Structure prediction by ZEFSAII (Michael W. Deem and Ramdas Pophale) SiO2 
 PCOD8289707
Probable space group: I M M M
;
_chemical_formula_sum "Si O2"
_cell_formula_units_Z 104
_cell_length_a 24.525229
_cell_length_b 17.697982
_cell_length_c 13.682618
_cell_angle_alpha 90.000000
_cell_angle_beta 90.000000
_cell_angle_gamma 90.000000
_cell_volume 5938.900135
_symmetry_space_group_name_H-M "I M M M"
_symmetry_group_IT_number 71
_symmetry_cell_setting 'orthorhombic'
loop_
_space_group_symop_operation_xyz
x,y,z
-x,-y,z
x,-y,-z
-x,y,-z
-x,-y,-z
x,y,-z
-x,y,z
x,-y,z
1/2+x,1/2+y,1/2+z
1/2-x,1/2-y,1/2+z
1/2+x,1/2-y,1/2-z
1/2-x,1/2+y,1/2-z
1/2-x,1/2-y,1/2-z
1/2+x,1/2+y,1/2-z
1/2-x,1/2+y,1/2+z
1/2+x,1/2-y,1/2+z
loop_
_atom_site_type_symbol
_atom_site_label
_atom_site_fract_x
_atom_site_fract_y
_atom_site_fract_z
Si Si1 0.500000 0.678651 0.890508
Si Si2 0.179901 0.411811 0.108529
Si Si3 0.000000 0.641171 0.611246
Si Si4 0.195080 0.085874 0.613270
Si Si5 0.561798 0.414485 0.610979
Si Si6 0.000000 0.586403 0.885826
Si Si7 0.589767 0.849331 0.261114
Si Si8 0.894493 0.825143 0.723151
O O1 0.500000 0.768882 0.888185
O O2 0.446537 0.646064 0.838201
O O3 0.500000 0.647464 0.000000
O O4 0.171344 0.500000 0.099355
O O5 0.242380 0.391736 0.131107
O O6 0.146594 0.385708 0.204746
O O7 0.163782 0.377737 0.000000
O O8 0.055533 0.614560 0.668625
O O9 0.000000 0.609120 0.500000
O O10 0.179850 0.092187 0.500000
O O11 0.160255 0.147621 0.671283
O O12 0.183640 0.000000 0.649749
O O13 0.581351 0.409992 0.500000
O O14 0.500000 0.384294 0.621545
O O15 0.565362 0.500000 0.649518
O O16 0.603035 0.362266 0.670417
O O17 0.948314 0.636484 0.854635
O O18 0.000000 0.500000 0.842363
O O19 0.000000 0.579635 0.000000
O O20 0.604276 0.764090 0.235626
#
# Coordination Sequence:
#
# PCOD8289707 Si02
#       8
#     8  16   8  16  16   8  16  16
#     4   9  17  29  45  67  97 131 157 189 247 306
#     4   9  18  35  56  76 101 132 167 210 262 318
#     4   8  17  33  47  67 103 138 165 190 231 294
#     4   9  19  35  55  76  99 133 173 213 260 313
#     4   9  18  31  45  61  88 132 174 200 236 295
#     4  10  20  34  53  79 110 138 165 208 263 316
#     4  10  20  30  51  81 103 132 168 207 259 308
#     4  11  19  31  48  74 105 130 166 214 259 302
#
# _framework density 17.511659999999999
#
# number of rings (size 3 to 8) (size 9 to 14) (size 15 to 20)
#    0.000    2.538    0.769    3.692    0.000    3.692 
#    0.000    0.000    0.000   11.077    0.000    2.154 
#    0.000    0.000    0.000    0.000    0.000    0.000 
#
# Total GULP energy -644280.238146 kJ/mol
# GULP energy per Si atom -12390.004580 kJ/mol
# Density = 1.747180 g / cm^3
# Si number density = 17.511660 Si / 1000 Ang^3
#
#
#
# Elastic Constant Matrix: (Units=GPa)
#
#
# Indices 1 2 3 4 5 6 
#
# 1 104.9452 46.9876 59.2835 0.0000 0.0000 0.0000
# 2 46.9876 47.7954 33.6168 0.0000 0.0000 0.0000
# 3 59.2835 33.6168 102.4413 0.0000 0.0000 0.0000
# 4 0.0000 0.0000 0.0000 23.8105 0.0000 0.0000
# 5 0.0000 0.0000 0.0000 0.0000 1711.9463 0.0000
# 6 0.0000 0.0000 0.0000 0.0000 0.0000 5.7982
#
#
#
# Elastic Compliance Matrix: (Units=1/GPa)
#
#
# Indices 1 2 3 4 5 6 
#
# 1 0.019993 -0.014973 -0.006657 0.000000 0.000000 0.000000
# 2 -0.014973 0.038414 -0.003941 0.000000 0.000000 0.000000
# 3 -0.006657 -0.003941 0.014907 0.000000 0.000000 0.000000
# 4 0.000000 0.000000 0.000000 0.041998 0.000000 0.000000
# 5 0.000000 0.000000 0.000000 0.000000 0.000584 0.000000
# 6 0.000000 0.000000 0.000000 0.000000 0.000000 0.172467
#
#
# Mechanical properties :
#
#
# Convention : Reuss Voigt Hill
#
# Bulk Modulus (GPa) = 45.09925 59.43974 52.26950
# Shear Modulus (GPa) = 14.41352 355.99727 185.20540
#
# Velocity S-wave (km/s) = 2.87205 14.27350 10.29518
# Velocity P-wave (km/s) = 6.06696 17.48315 13.08565
#
# Compressibility (1/GPa) = 0.02217332
#
# Stress axis : x y z
#
# Youngs Moduli (GPa) = 50.01720 26.03184 67.08220
#
# Poissons Ratio (x) = 0.38978 0.44654
# Poissons Ratio (y) = 0.74892 0.26436
# Poissons Ratio (z) = 0.33294 0.10259
#
# Static dielectric constant tensor:
#      x y z
#    x 3.327120 0.000000 0.000000 
#    y 0.000000 3.050390 0.000000 
#    z 0.000000 0.000000 25.538270 
# 
# 
# High freq. dielectric constant tensor:
#      x y z
#    x 1.667280 0.000000 0.000000 
#    y 0.000000 1.657200 0.000000 
#    z 0.000000 0.000000 1.676380 
# 
# From -- ./inp_files/39513.got.cif
#   From: 2010.06.25/outbox.cif.g09.slc.cpg/sg71_20_cif.got.tgz:39513.got - 2010.06.28 04:59:45.
