data_PCOD8289116
_publ_section_title
;
Structure prediction by ZEFSAII (Michael W. Deem and Ramdas Pophale) SiO2 
 PCOD8289116
Probable space group: I M M M
;
_chemical_formula_sum "Si O2"
_cell_formula_units_Z 120
_cell_length_a 25.107327
_cell_length_b 13.494470
_cell_length_c 21.450348
_cell_angle_alpha 90.000000
_cell_angle_beta 90.000000
_cell_angle_gamma 90.000000
_cell_volume 7267.593928
_symmetry_space_group_name_H-M "I M M M"
_symmetry_group_IT_number 71
_symmetry_cell_setting 'orthorhombic'
loop_
_space_group_symop_operation_xyz
x,y,z
-x,-y,z
x,-y,-z
-x,y,-z
-x,-y,-z
x,y,-z
-x,y,z
x,-y,z
1/2+x,1/2+y,1/2+z
1/2-x,1/2-y,1/2+z
1/2+x,1/2-y,1/2-z
1/2-x,1/2+y,1/2-z
1/2-x,1/2-y,1/2-z
1/2+x,1/2+y,1/2-z
1/2-x,1/2+y,1/2+z
1/2+x,1/2-y,1/2+z
loop_
_atom_site_type_symbol
_atom_site_label
_atom_site_fract_x
_atom_site_fract_y
_atom_site_fract_z
Si Si1 0.178532 0.109115 0.221567
Si Si2 0.061437 0.116159 0.572340
Si Si3 0.339391 0.806297 0.670601
Si Si4 0.838484 0.803481 0.356984
Si Si5 0.057553 0.616681 0.868162
Si Si6 0.300705 0.111501 0.204012
Si Si7 0.760255 0.615124 0.927048
Si Si8 0.437443 0.892990 0.500000
O O1 0.148685 0.189418 0.178835
O O2 0.173203 0.135055 0.294427
O O3 0.237897 0.111272 0.193817
O O4 0.153708 0.000000 0.211559
O O5 0.071742 0.143306 0.500000
O O6 0.101976 0.177607 0.616419
O O7 0.000000 0.142201 0.590073
O O8 0.072034 0.000000 0.583046
O O9 0.397095 0.855913 0.680187
O O10 0.303966 0.849557 0.725600
O O11 0.309691 0.830881 0.606409
O O12 0.831125 0.685750 0.343269
O O13 0.796049 0.837075 0.408596
O O14 0.053266 0.500000 0.877052
O O15 0.075764 0.664168 0.935410
O O16 0.000000 0.658343 0.846110
O O17 0.324074 0.000000 0.195751
O O18 0.760027 0.500000 0.908343
O O19 0.769066 0.630612 0.000000
O O20 0.500000 0.912513 0.500000
O O21 0.407409 0.000000 0.500000
#
# Coordination Sequence:
#
# PCOD8289116 Si02
#       8
#    16  16  16  16  16  16  16   8
#     4  10  19  33  52  70  94 128 165 200 240 293
#     4   9  18  32  51  76 106 139 168 198 247 307
#     4  11  19  32  48  71  97 125 160 194 239 291
#     4  11  18  32  52  75  98 127 164 202 244 292
#     4   9  17  28  43  64  93 127 156 185 226 278
#     4  10  19  33  51  70  96 130 165 199 237 294
#     4  11  21  29  44  75 105 123 147 196 252 291
#     4   7  12  24  40  60  85 117 153 177 207 263
#
# _framework density 16.511655000000001
#
# number of rings (size 3 to 8) (size 9 to 14) (size 15 to 20)
#    0.000    2.067    2.667    4.800    0.933    1.067 
#    0.000    2.667    0.000    5.200    0.000    0.933 
#    0.000    1.600    0.000    0.000    0.000    0.000 
#
# Total GULP energy -743437.232955 kJ/mol
# GULP energy per Si atom -12390.620549 kJ/mol
# Density = 1.647407 g / cm^3
# Si number density = 16.511655 Si / 1000 Ang^3
#
#
#
# Elastic Constant Matrix: (Units=GPa)
#
#
# Indices 1 2 3 4 5 6 
#
# 1 91.7056 29.1861 28.5433 0.0000 0.0000 0.0000
# 2 29.1861 104.7275 38.7320 0.0000 0.0000 0.0000
# 3 28.5433 38.7320 61.5535 0.0000 0.0000 0.0000
# 4 0.0000 0.0000 0.0000 19.8911 0.0000 0.0000
# 5 0.0000 0.0000 0.0000 0.0000 22.0105 0.0000
# 6 0.0000 0.0000 0.0000 0.0000 0.0000 18.5525
#
#
#
# Elastic Compliance Matrix: (Units=1/GPa)
#
#
# Indices 1 2 3 4 5 6 
#
# 1 0.013004 -0.001817 -0.004887 0.000000 0.000000 0.000000
# 2 -0.001817 0.012698 -0.007148 0.000000 0.000000 0.000000
# 3 -0.004887 -0.007148 0.023010 0.000000 0.000000 0.000000
# 4 0.000000 0.000000 0.000000 0.050274 0.000000 0.000000
# 5 0.000000 0.000000 0.000000 0.000000 0.045433 0.000000
# 6 0.000000 0.000000 0.000000 0.000000 0.000000 0.053901
#
#
# Mechanical properties :
#
#
# Convention : Reuss Voigt Hill
#
# Bulk Modulus (GPa) = 47.59850 50.10103 48.84977
# Shear Modulus (GPa) = 21.45687 22.85918 22.15802
#
# Velocity S-wave (km/s) = 3.60877 3.72483 3.66725
# Velocity P-wave (km/s) = 6.80103 6.99341 6.89789
#
# Compressibility (1/GPa) = 0.02100906
#
# Stress axis : x y z
#
# Youngs Moduli (GPa) = 76.90148 78.74989 43.45946
#
# Poissons Ratio (x) = 0.14306 0.21238
# Poissons Ratio (y) = 0.13970 0.31065
# Poissons Ratio (z) = 0.37581 0.56290
#
# Static dielectric constant tensor:
#      x y z
#    x 3.069610 0.000000 0.000000 
#    y 0.000000 3.171980 0.000000 
#    z 0.000000 0.000000 3.109190 
# 
# 
# High freq. dielectric constant tensor:
#      x y z
#    x 1.631180 0.000000 0.000000 
#    y 0.000000 1.613310 0.000000 
#    z 0.000000 0.000000 1.622920 
# 
# From -- ./inp_files/55934.got.cif
#   From: 2010.06.25/outbox.cif.g09.slc.cpg/sg71_28_cif.got.tgz:55934.got - 2010.06.28 04:59:45.
