data_PCOD8289072
_publ_section_title
;
Structure prediction by ZEFSAII (Michael W. Deem and Ramdas Pophale) SiO2 
 PCOD8289072
Probable space group: I M M M
;
_chemical_formula_sum "Si O2"
_cell_formula_units_Z 72
_cell_length_a 8.698495
_cell_length_b 22.526305
_cell_length_c 17.796232
_cell_angle_alpha 90.000000
_cell_angle_beta 90.000000
_cell_angle_gamma 90.000000
_cell_volume 3487.081815
_symmetry_space_group_name_H-M "I M M M"
_symmetry_group_IT_number 71
_symmetry_cell_setting 'orthorhombic'
loop_
_space_group_symop_operation_xyz
x,y,z
-x,-y,z
x,-y,-z
-x,y,-z
-x,-y,-z
x,y,-z
-x,y,z
x,-y,z
1/2+x,1/2+y,1/2+z
1/2-x,1/2-y,1/2+z
1/2+x,1/2-y,1/2-z
1/2-x,1/2+y,1/2-z
1/2-x,1/2-y,1/2-z
1/2+x,1/2+y,1/2-z
1/2-x,1/2+y,1/2+z
1/2+x,1/2-y,1/2+z
loop_
_atom_site_type_symbol
_atom_site_label
_atom_site_fract_x
_atom_site_fract_y
_atom_site_fract_z
Si Si1 0.181790 0.000000 0.413830
Si Si2 0.182897 0.163714 0.805270
Si Si3 0.179173 0.738763 0.081819
Si Si4 0.817500 0.934778 0.082638
Si Si5 0.677818 0.118613 0.347135
O O1 0.234937 0.058440 0.369008
O O2 0.245559 0.000000 0.500000
O O3 0.000000 0.000000 0.414466
O O4 0.245015 0.223674 0.847058
O O5 0.245226 0.111014 0.857391
O O6 0.263080 0.152064 0.726693
O O7 0.000000 0.163970 0.793277
O O8 0.206009 0.668212 0.089247
O O9 0.000000 0.754221 0.080384
O O10 0.249473 0.757278 0.000000
O O11 0.000000 0.933212 0.080976
O O12 0.759098 0.000000 0.106269
O O13 0.754421 0.918182 0.000000
O O14 0.500000 0.102239 0.338018
#
# Coordination Sequence:
#
# PCOD8289072 Si02
#       5
#     8  16  16  16  16
#     4  11  25  45  67  89 112 143 192 249 297 344
#     4  10  19  32  55  84 116 152 194 242 286 333
#     4   9  18  34  57  84 114 153 201 247 289 340
#     4   8  14  25  44  73 106 141 187 239 283 325
#     4  11  23  38  58  85 120 158 193 235 293 356
#
# _framework density 20.647635999999999
#
# number of rings (size 3 to 8) (size 9 to 14) (size 15 to 20)
#    0.000    2.333    0.000    3.667    1.556    4.444 
#    0.000    1.111    0.000    5.333    0.000    1.556 
#    0.000    0.000    0.000    0.000    0.000    0.000 
#
# Total GULP energy -446065.965511 kJ/mol
# GULP energy per Si atom -12390.721264 kJ/mol
# Density = 2.060064 g / cm^3
# Si number density = 20.647636 Si / 1000 Ang^3
#
#
#
# Elastic Constant Matrix: (Units=GPa)
#
#
# Indices 1 2 3 4 5 6 
#
# 1 43.2074 28.4017 25.5770 0.0000 0.0000 0.0000
# 2 28.4017 117.5553 53.2227 0.0000 0.0000 0.0000
# 3 25.5770 53.2227 117.8695 0.0000 0.0000 0.0000
# 4 0.0000 0.0000 0.0000 32.3338 0.0000 0.0000
# 5 0.0000 0.0000 0.0000 0.0000 17.2149 0.0000
# 6 0.0000 0.0000 0.0000 0.0000 0.0000 17.2303
#
#
#
# Elastic Compliance Matrix: (Units=1/GPa)
#
#
# Indices 1 2 3 4 5 6 
#
# 1 0.028885 -0.005205 -0.003918 0.000000 0.000000 0.000000
# 2 -0.005205 0.011630 -0.004122 0.000000 0.000000 0.000000
# 3 -0.003918 -0.004122 0.011195 0.000000 0.000000 0.000000
# 4 0.000000 0.000000 0.000000 0.030927 0.000000 0.000000
# 5 0.000000 0.000000 0.000000 0.000000 0.058089 0.000000
# 6 0.000000 0.000000 0.000000 0.000000 0.000000 0.058037
#
#
# Mechanical properties :
#
#
# Convention : Reuss Voigt Hill
#
# Bulk Modulus (GPa) = 39.64937 54.78168 47.21553
# Shear Modulus (GPa) = 21.39855 24.78452 23.09153
#
# Velocity S-wave (km/s) = 3.22276 3.46837 3.34782
# Velocity P-wave (km/s) = 5.75263 6.52907 6.15311
#
# Compressibility (1/GPa) = 0.02522108
#
# Stress axis : x y z
#
# Youngs Moduli (GPa) = 34.62053 85.98116 89.32263
#
# Poissons Ratio (x) = 0.44753 0.34993
# Poissons Ratio (y) = 0.18020 0.36820
# Poissons Ratio (z) = 0.13563 0.35443
#
# Static dielectric constant tensor:
#      x y z
#    x 3.198830 0.000000 0.000000 
#    y 0.000000 4.093850 0.000000 
#    z 0.000000 0.000000 4.020880 
# 
# 
# High freq. dielectric constant tensor:
#      x y z
#    x 1.751580 0.000000 0.000000 
#    y 0.000000 1.826260 0.000000 
#    z 0.000000 0.000000 1.822340 
# 
# From -- ./inp_files/32593.got.cif
#   From: 2010.06.25/outbox.cif.g09.slc.cpg/sg71_17_cif.got.tgz:32593.got - 2010.06.28 04:59:45.
