data_PCOD8289822
_publ_section_title
;
Structure prediction by ZEFSAII (Michael W. Deem and Ramdas Pophale) SiO2 
 PCOD8289822
Probable space group: I M M M
;
_chemical_formula_sum "Si O2"
_cell_formula_units_Z 88
_cell_length_a 30.785259
_cell_length_b 19.514216
_cell_length_c 8.792215
_cell_angle_alpha 90.000000
_cell_angle_beta 90.000000
_cell_angle_gamma 90.000000
_cell_volume 5281.924865
_symmetry_space_group_name_H-M "I M M M"
_symmetry_group_IT_number 71
_symmetry_cell_setting 'orthorhombic'
loop_
_space_group_symop_operation_xyz
x,y,z
-x,-y,z
x,-y,-z
-x,y,-z
-x,-y,-z
x,y,-z
-x,y,z
x,-y,z
1/2+x,1/2+y,1/2+z
1/2-x,1/2-y,1/2+z
1/2+x,1/2-y,1/2-z
1/2-x,1/2+y,1/2-z
1/2-x,1/2-y,1/2-z
1/2+x,1/2+y,1/2-z
1/2-x,1/2+y,1/2+z
1/2+x,1/2-y,1/2+z
loop_
_atom_site_type_symbol
_atom_site_label
_atom_site_fract_x
_atom_site_fract_y
_atom_site_fract_z
Si Si1 0.450209 0.642189 0.679210
Si Si2 0.207846 0.713321 0.678686
Si Si3 0.272465 0.076873 0.678250
Si Si4 0.448898 0.500000 0.830534
Si Si5 0.129340 0.809492 0.679101
Si Si6 0.681817 0.422594 0.327965
O O1 0.443458 0.643627 0.500000
O O2 0.500000 0.658629 0.723408
O O3 0.435038 0.567936 0.739667
O O4 0.419783 0.701160 0.757592
O O5 0.214885 0.714958 0.500000
O O6 0.250000 0.750000 0.750000
O O7 0.200656 0.635298 0.734609
O O8 0.163064 0.750222 0.726841
O O9 0.279075 0.086615 0.500000
O O10 0.222424 0.088915 0.717666
O O11 0.287120 0.000000 0.729482
O O12 0.500000 0.500000 0.847218
O O13 0.427709 0.500000 0.000000
O O14 0.128550 0.819452 0.500000
O O15 0.142905 0.878646 0.763653
O O16 0.694801 0.401100 0.500000
O O17 0.665254 0.500000 0.323189
#
# Coordination Sequence:
#
# PCOD8289822 Si02
#       6
#    16  16  16   8  16  16
#     4  10  21  36  52  70  94 125 164 209 254 300
#     4  11  22  35  52  74 102 134 168 207 251 297
#     4  10  20  34  52  73  99 132 169 208 249 294
#     4   9  17  31  51  71  93 125 163 207 257 299
#     4  11  23  35  50  72  97 130 168 208 254 301
#     4  10  20  32  47  68  95 130 171 211 252 295
#
# _framework density 16.660592999999999
#
# number of rings (size 3 to 8) (size 9 to 14) (size 15 to 20)
#    0.000    1.727    1.818    3.000    1.273    6.545 
#    0.000    0.000    0.000    0.000    0.000    0.000 
#    0.000    0.727    0.000    8.000    0.000    5.818 
#
# Total GULP energy -545459.879000 kJ/mol
# GULP energy per Si atom -12396.815432 kJ/mol
# Density = 1.662267 g / cm^3
# Si number density = 16.660593 Si / 1000 Ang^3
#
#
#
# Elastic Constant Matrix: (Units=GPa)
#
#
# Indices 1 2 3 4 5 6 
#
# 1 91.3720 61.3023 38.7688 0.0000 0.0000 0.0000
# 2 61.3023 90.7259 44.7405 0.0000 0.0000 0.0000
# 3 38.7688 44.7405 78.0371 0.0000 0.0000 0.0000
# 4 0.0000 0.0000 0.0000 26.9568 0.0000 0.0000
# 5 0.0000 0.0000 0.0000 0.0000 26.4742 0.0000
# 6 0.0000 0.0000 0.0000 0.0000 0.0000 25.6420
#
#
#
# Elastic Compliance Matrix: (Units=1/GPa)
#
#
# Indices 1 2 3 4 5 6 
#
# 1 0.020556 -0.012343 -0.003136 0.000000 0.000000 0.000000
# 2 -0.012343 0.022778 -0.006927 0.000000 0.000000 0.000000
# 3 -0.003136 -0.006927 0.018344 0.000000 0.000000 0.000000
# 4 0.000000 0.000000 0.000000 0.037096 0.000000 0.000000
# 5 0.000000 0.000000 0.000000 0.000000 0.037773 0.000000
# 6 0.000000 0.000000 0.000000 0.000000 0.000000 0.038999
#
#
# Mechanical properties :
#
#
# Convention : Reuss Voigt Hill
#
# Bulk Modulus (GPa) = 59.29071 61.08422 60.18747
# Shear Modulus (GPa) = 22.12594 23.50282 22.81438
#
# Velocity S-wave (km/s) = 3.64818 3.75998 3.70450
# Velocity P-wave (km/s) = 7.30824 7.45610 7.38254
#
# Compressibility (1/GPa) = 0.01686605
#
# Stress axis : x y z
#
# Youngs Moduli (GPa) = 48.64845 43.90140 54.51441
#
# Poissons Ratio (x) = 0.54187 0.17093
# Poissons Ratio (y) = 0.60046 0.37764
# Poissons Ratio (z) = 0.15254 0.30412
#
# Static dielectric constant tensor:
#      x y z
#    x 3.084490 0.000000 0.000000 
#    y 0.000000 3.231010 0.000000 
#    z 0.000000 0.000000 3.276750 
# 
# 
# High freq. dielectric constant tensor:
#      x y z
#    x 1.622130 0.000000 0.000000 
#    y 0.000000 1.615900 0.000000 
#    z 0.000000 0.000000 1.661850 
# 
# From -- ./inp_files/11334.got.cif
#   From: 2010.06.25/outbox.cif.g09.slc.cpg/sg71_6_cif.got.tgz:11334.got - 2010.06.28 04:59:45.
