data_PCOD8289290
_publ_section_title
;
Structure prediction by ZEFSAII (Michael W. Deem and Ramdas Pophale) SiO2 
 PCOD8289290
Probable space group: I M M M
;
_chemical_formula_sum "Si O2"
_cell_formula_units_Z 104
_cell_length_a 17.478265
_cell_length_b 17.504573
_cell_length_c 18.468807
_cell_angle_alpha 90.000000
_cell_angle_beta 90.000000
_cell_angle_gamma 90.000000
_cell_volume 5650.523479
_symmetry_space_group_name_H-M "I M M M"
_symmetry_group_IT_number 71
_symmetry_cell_setting 'orthorhombic'
loop_
_space_group_symop_operation_xyz
x,y,z
-x,-y,z
x,-y,-z
-x,y,-z
-x,-y,-z
x,y,-z
-x,y,z
x,-y,z
1/2+x,1/2+y,1/2+z
1/2-x,1/2-y,1/2+z
1/2+x,1/2-y,1/2-z
1/2-x,1/2+y,1/2-z
1/2-x,1/2-y,1/2-z
1/2+x,1/2+y,1/2-z
1/2-x,1/2+y,1/2+z
1/2+x,1/2-y,1/2+z
loop_
_atom_site_type_symbol
_atom_site_label
_atom_site_fract_x
_atom_site_fract_y
_atom_site_fract_z
Si Si1 0.590978 0.500000 0.583236
Si Si2 0.587605 0.585086 0.168820
Si Si3 0.411557 0.913022 0.225617
Si Si4 0.189212 0.713909 0.195000
Si Si5 0.188865 0.811889 0.582796
Si Si6 0.411108 0.645876 0.326385
Si Si7 0.413158 0.833367 0.918626
O O1 0.500000 0.500000 0.587417
O O2 0.620015 0.500000 0.500000
O O3 0.621122 0.575880 0.624559
O O4 0.500000 0.587163 0.146023
O O5 0.615892 0.500000 0.184436
O O6 0.633434 0.618433 0.101543
O O7 0.602587 0.631645 0.241798
O O8 0.500000 0.899479 0.247334
O O9 0.359977 0.853269 0.269000
O O10 0.400602 0.900785 0.139220
O O11 0.386653 0.000000 0.243283
O O12 0.250000 0.750000 0.250000
O O13 0.234380 0.677798 0.128333
O O14 0.135164 0.777349 0.157791
O O15 0.212497 0.816346 0.500000
O O16 0.144773 0.733910 0.601855
O O17 0.500000 0.658983 0.344148
O O18 0.500000 0.801290 0.913008
O O19 0.397489 0.864578 0.000000
#
# Coordination Sequence:
#
# PCOD8289290 Si02
#       7
#     8  16  16  16  16  16  16
#     4   9  18  34  58  90 121 147 180 226 280 335
#     4  10  19  33  55  82 110 144 187 227 270 337
#     4  10  21  38  60  85 112 148 197 244 283 333
#     4  12  22  37  57  85 110 151 194 236 287 340
#     4  11  23  37  52  77 114 149 185 234 288 338
#     4  10  19  35  59  84 114 150 190 230 276 339
#     4   9  17  32  55  82 114 150 183 219 273 344
#
# _framework density 18.405373000000001
#
# number of rings (size 3 to 8) (size 9 to 14) (size 15 to 20)
#    0.000    1.769    3.846    0.923    0.000    5.231 
#    1.385    2.308    0.000    1.385    0.000    1.077 
#    0.000    0.000    0.000    0.000    0.000    0.000 
#
# Total GULP energy -644746.299425 kJ/mol
# GULP energy per Si atom -12398.967297 kJ/mol
# Density = 1.836348 g / cm^3
# Si number density = 18.405373 Si / 1000 Ang^3
#
#
#
# Elastic Constant Matrix: (Units=GPa)
#
#
# Indices 1 2 3 4 5 6 
#
# 1 64.3017 62.8361 55.9357 0.0000 0.0000 0.0000
# 2 62.8361 105.3289 47.9903 0.0000 0.0000 0.0000
# 3 55.9357 47.9903 95.1902 0.0000 0.0000 0.0000
# 4 0.0000 0.0000 0.0000 27.9135 0.0000 0.0000
# 5 0.0000 0.0000 0.0000 0.0000 25.3251 0.0000
# 6 0.0000 0.0000 0.0000 0.0000 0.0000 9.2568
#
#
#
# Elastic Compliance Matrix: (Units=1/GPa)
#
#
# Indices 1 2 3 4 5 6 
#
# 1 0.060072 -0.025645 -0.022371 0.000000 0.000000 0.000000
# 2 -0.025645 0.023273 0.003336 0.000000 0.000000 0.000000
# 3 -0.022371 0.003336 0.021969 0.000000 0.000000 0.000000
# 4 0.000000 0.000000 0.000000 0.035825 0.000000 0.000000
# 5 0.000000 0.000000 0.000000 0.000000 0.039487 0.000000
# 6 0.000000 0.000000 0.000000 0.000000 0.000000 0.108029
#
#
# Mechanical properties :
#
#
# Convention : Reuss Voigt Hill
#
# Bulk Modulus (GPa) = 62.67454 66.48279 64.57867
# Shear Modulus (GPa) = 13.04357 19.03632 16.03995
#
# Velocity S-wave (km/s) = 2.66500 3.21951 2.95529
# Velocity P-wave (km/s) = 6.60272 7.07249 6.84164
#
# Compressibility (1/GPa) = 0.01595544
#
# Stress axis : x y z
#
# Youngs Moduli (GPa) = 16.64670 42.96863 45.51904
#
# Poissons Ratio (x) = 1.10191 1.01830
# Poissons Ratio (y) = 0.42690 -0.15186
# Poissons Ratio (z) = 0.37240 -0.14335
#
# Static dielectric constant tensor:
#      x y z
#    x 3.376030 0.000000 0.000000 
#    y 0.000000 3.393490 0.000000 
#    z 0.000000 0.000000 3.370580 
# 
# 
# High freq. dielectric constant tensor:
#      x y z
#    x 1.704760 0.000000 0.000000 
#    y 0.000000 1.709240 0.000000 
#    z 0.000000 0.000000 1.706420 
# 
# From -- ./inp_files/54117.got.cif
#   From: 2010.06.25/outbox.cif.g09.slc.cpg/sg71_28_cif.got.tgz:54117.got - 2010.06.28 04:59:45.
