data_PCOD8289421
_publ_section_title
;
Structure prediction by ZEFSAII (Michael W. Deem and Ramdas Pophale) SiO2 
 PCOD8289421
Probable space group: I M M M
;
_chemical_formula_sum "Si O2"
_cell_formula_units_Z 104
_cell_length_a 27.289653
_cell_length_b 9.470065
_cell_length_c 21.393996
_cell_angle_alpha 90.000000
_cell_angle_beta 90.000000
_cell_angle_gamma 90.000000
_cell_volume 5528.952815
_symmetry_space_group_name_H-M "I M M M"
_symmetry_group_IT_number 71
_symmetry_cell_setting 'orthorhombic'
loop_
_space_group_symop_operation_xyz
x,y,z
-x,-y,z
x,-y,-z
-x,y,-z
-x,-y,-z
x,y,-z
-x,y,z
x,-y,z
1/2+x,1/2+y,1/2+z
1/2-x,1/2-y,1/2+z
1/2+x,1/2-y,1/2-z
1/2-x,1/2+y,1/2-z
1/2-x,1/2-y,1/2-z
1/2+x,1/2+y,1/2-z
1/2-x,1/2+y,1/2+z
1/2+x,1/2-y,1/2+z
loop_
_atom_site_type_symbol
_atom_site_label
_atom_site_fract_x
_atom_site_fract_y
_atom_site_fract_z
Si Si1 0.941332 0.154441 0.500000
Si Si2 0.554889 0.152265 0.106149
Si Si3 0.769765 0.656288 0.155551
Si Si4 0.138798 0.664444 0.927511
Si Si5 0.585446 0.834100 0.761197
Si Si6 0.192166 0.343804 0.705344
Si Si7 0.056580 0.165823 0.139551
O O1 0.919857 0.232710 0.561547
O O2 0.000000 0.143028 0.500000
O O3 0.917729 0.000000 0.500000
O O4 0.500000 0.135894 0.081258
O O5 0.552051 0.195725 0.178672
O O6 0.582092 0.000000 0.099799
O O7 0.756641 0.500000 0.130340
O O8 0.815128 0.716251 0.114531
O O9 0.781915 0.649683 0.228165
O O10 0.721787 0.755375 0.152616
O O11 0.127213 0.500000 0.912950
O O12 0.091357 0.758294 0.911050
O O13 0.151822 0.687305 0.000000
O O14 0.638814 0.778999 0.782067
O O15 0.564669 0.739038 0.706115
O O16 0.586122 0.000000 0.740900
O O17 0.187396 0.500000 0.676773
O O18 0.000000 0.186202 0.119040
O O19 0.069742 0.000000 0.143833
#
# Coordination Sequence:
#
# PCOD8289421 Si02
#       7
#     8  16  16  16  16  16  16
#     4   9  17  29  45  65  93 129 167 209 253 303
#     4   9  17  29  48  72  96 129 173 216 258 306
#     4   9  17  32  53  80 107 132 167 214 264 316
#     4  10  21  39  62  83 105 142 192 237 277 329
#     4  10  19  34  55  80 108 141 182 225 269 322
#     4   9  17  30  52  80 107 133 165 210 262 318
#     4  11  24  38  53  79 116 151 183 228 284 336
#
# _framework density 18.810071000000001
#
# number of rings (size 3 to 8) (size 9 to 14) (size 15 to 20)
#    0.000    2.385    1.538    1.154    0.000    5.231 
#    0.000    3.077    1.692    0.000    0.000    0.000 
#    0.000    0.000    0.000    0.000    0.000    0.000 
#
# Total GULP energy -644396.266772 kJ/mol
# GULP energy per Si atom -12392.235899 kJ/mol
# Density = 1.876726 g / cm^3
# Si number density = 18.810071 Si / 1000 Ang^3
#
#
#
# Elastic Constant Matrix: (Units=GPa)
#
#
# Indices 1 2 3 4 5 6 
#
# 1 68.3312 24.5591 9.7345 0.0000 0.0000 0.0000
# 2 24.5591 85.0054 35.7749 0.0000 0.0000 0.0000
# 3 9.7345 35.7749 75.4195 0.0000 0.0000 0.0000
# 4 0.0000 0.0000 0.0000 21.6309 0.0000 0.0000
# 5 0.0000 0.0000 0.0000 0.0000 19.4606 0.0000
# 6 0.0000 0.0000 0.0000 0.0000 0.0000 27.6594
#
#
#
# Elastic Compliance Matrix: (Units=1/GPa)
#
#
# Indices 1 2 3 4 5 6 
#
# 1 0.016332 -0.004787 0.000163 0.000000 0.000000 0.000000
# 2 -0.004787 0.016101 -0.007020 0.000000 0.000000 0.000000
# 3 0.000163 -0.007020 0.016568 0.000000 0.000000 0.000000
# 4 0.000000 0.000000 0.000000 0.046230 0.000000 0.000000
# 5 0.000000 0.000000 0.000000 0.000000 0.051386 0.000000
# 6 0.000000 0.000000 0.000000 0.000000 0.000000 0.036154
#
#
# Mechanical properties :
#
#
# Convention : Reuss Voigt Hill
#
# Bulk Modulus (GPa) = 38.89058 40.98812 39.93935
# Shear Modulus (GPa) = 23.29588 24.32935 23.81262
#
# Velocity S-wave (km/s) = 3.52302 3.60032 3.56188
# Velocity P-wave (km/s) = 6.10485 6.25467 6.18021
#
# Compressibility (1/GPa) = 0.02571317
#
# Stress axis : x y z
#
# Youngs Moduli (GPa) = 61.22979 62.10702 60.35759
#
# Poissons Ratio (x) = 0.29730 -0.00982
# Poissons Ratio (y) = 0.29310 0.42369
# Poissons Ratio (z) = -0.00996 0.43597
#
# Static dielectric constant tensor:
#      x y z
#    x 3.386550 0.000000 0.000000 
#    y 0.000000 3.755810 0.000000 
#    z 0.000000 0.000000 3.305580 
# 
# 
# High freq. dielectric constant tensor:
#      x y z
#    x 1.712760 0.000000 0.000000 
#    y 0.000000 1.727090 0.000000 
#    z 0.000000 0.000000 1.716900 
# 
# From -- ./inp_files/56244.got.cif
#   From: 2010.06.25/outbox.cif.g09.slc.cpg/sg71_29_cif.got.tgz:56244.got - 2010.06.28 04:59:45.
