data_PCOD8289941
_publ_section_title
;
Structure prediction by ZEFSAII (Michael W. Deem and Ramdas Pophale) SiO2 
 PCOD8289941
Probable space group: I M M M
;
_chemical_formula_sum "Si O2"
_cell_formula_units_Z 104
_cell_length_a 23.639550
_cell_length_b 27.268817
_cell_length_c 8.279659
_cell_angle_alpha 90.000000
_cell_angle_beta 90.000000
_cell_angle_gamma 90.000000
_cell_volume 5337.255005
_symmetry_space_group_name_H-M "I M M M"
_symmetry_group_IT_number 71
_symmetry_cell_setting 'orthorhombic'
loop_
_space_group_symop_operation_xyz
x,y,z
-x,-y,z
x,-y,-z
-x,y,-z
-x,-y,-z
x,y,-z
-x,y,z
x,-y,z
1/2+x,1/2+y,1/2+z
1/2-x,1/2-y,1/2+z
1/2+x,1/2-y,1/2-z
1/2-x,1/2+y,1/2-z
1/2-x,1/2-y,1/2-z
1/2+x,1/2+y,1/2-z
1/2-x,1/2+y,1/2+z
1/2+x,1/2-y,1/2+z
loop_
_atom_site_type_symbol
_atom_site_label
_atom_site_fract_x
_atom_site_fract_y
_atom_site_fract_z
Si Si1 0.932649 0.945579 0.000000
Si Si2 0.336790 0.944857 0.190376
Si Si3 0.066201 0.891262 0.320622
Si Si4 0.761324 0.636642 0.810271
Si Si5 0.363763 0.203143 0.314359
Si Si6 0.848640 0.808678 0.317683
Si Si7 0.562780 0.877269 0.188656
O O1 0.910042 0.921902 0.832265
O O2 0.000000 0.945075 0.000000
O O3 0.908122 0.000000 0.000000
O O4 0.279232 0.915533 0.233452
O O5 0.391767 0.916069 0.263159
O O6 0.334375 0.000000 0.263286
O O7 0.342389 0.947705 0.000000
O O8 0.080074 0.914810 0.500000
O O9 0.092761 0.837594 0.312136
O O10 0.000000 0.884140 0.301210
O O11 0.805816 0.678007 0.756357
O O12 0.700655 0.655949 0.746263
O O13 0.758782 0.628389 0.000000
O O14 0.375172 0.192466 0.500000
O O15 0.357951 0.260756 0.287929
O O16 0.416080 0.178430 0.219695
O O17 0.832525 0.792825 0.500000
O O18 0.500000 0.884859 0.265239
O O19 0.558511 0.886088 0.000000
#
# Coordination Sequence:
#
# PCOD8289941 Si02
#       7
#     8  16  16  16  16  16  16
#     4   9  18  34  56  78 102 134 170 210 256 310
#     4   9  18  33  53  77 104 135 174 221 270 314
#     4   9  19  35  54  78 107 137 173 218 266 320
#     4   9  19  35  52  73 102 135 174 216 259 314
#     4  10  20  32  50  76 103 135 173 215 262 310
#     4  10  20  34  53  75 102 137 174 212 261 318
#     4   9  18  33  52  74 104 141 178 217 260 312
#
# _framework density 19.485671
#
# number of rings (size 3 to 8) (size 9 to 14) (size 15 to 20)
#    0.000    2.692    0.000    0.923    1.077    3.077 
#    0.000    5.385    0.000    2.769    0.000    4.308 
#    0.000    0.000    0.000    0.000    0.000    0.000 
#
# Total GULP energy -644480.688739 kJ/mol
# GULP energy per Si atom -12393.859399 kJ/mol
# Density = 1.944132 g / cm^3
# Si number density = 19.485671 Si / 1000 Ang^3
#
#
#
# Elastic Constant Matrix: (Units=GPa)
#
#
# Indices 1 2 3 4 5 6 
#
# 1 52.4722 48.3640 17.7778 0.0000 0.0000 0.0000
# 2 48.3640 140.6976 33.9920 0.0000 0.0000 0.0000
# 3 17.7778 33.9920 64.6341 0.0000 0.0000 0.0000
# 4 0.0000 0.0000 0.0000 26.2573 0.0000 0.0000
# 5 0.0000 0.0000 0.0000 0.0000 19.9368 0.0000
# 6 0.0000 0.0000 0.0000 0.0000 0.0000 19.4579
#
#
#
# Elastic Compliance Matrix: (Units=1/GPa)
#
#
# Indices 1 2 3 4 5 6 
#
# 1 0.028418 -0.009027 -0.003069 0.000000 0.000000 0.000000
# 2 -0.009027 0.011009 -0.003307 0.000000 0.000000 0.000000
# 3 -0.003069 -0.003307 0.018055 0.000000 0.000000 0.000000
# 4 0.000000 0.000000 0.000000 0.038085 0.000000 0.000000
# 5 0.000000 0.000000 0.000000 0.000000 0.050159 0.000000
# 6 0.000000 0.000000 0.000000 0.000000 0.000000 0.051393
#
#
# Mechanical properties :
#
#
# Convention : Reuss Voigt Hill
#
# Bulk Modulus (GPa) = 37.48670 50.89683 44.19177
# Shear Modulus (GPa) = 21.11339 23.64174 22.37757
#
# Velocity S-wave (km/s) = 3.29528 3.48701 3.39250
# Velocity P-wave (km/s) = 5.81019 6.51069 6.17039
#
# Compressibility (1/GPa) = 0.02667612
#
# Stress axis : x y z
#
# Youngs Moduli (GPa) = 35.18934 90.83148 55.38606
#
# Poissons Ratio (x) = 0.81993 0.16998
# Poissons Ratio (y) = 0.31765 0.18317
# Poissons Ratio (z) = 0.10799 0.30039
#
# Static dielectric constant tensor:
#      x y z
#    x 3.656970 0.000000 0.000000 
#    y 0.000000 3.554640 0.000000 
#    z 0.000000 0.000000 3.563340 
# 
# 
# High freq. dielectric constant tensor:
#      x y z
#    x 1.750200 0.000000 0.000000 
#    y 0.000000 1.748680 0.000000 
#    z 0.000000 0.000000 1.751630 
# 
# From -- ./inp_files/13295.got.cif
#   From: 2010.06.25/outbox.cif.g09.slc.cpg/sg71_7_cif.got.tgz:13295.got - 2010.06.28 04:59:45.
