data_PCOD8289280
_publ_section_title
;
Structure prediction by ZEFSAII (Michael W. Deem and Ramdas Pophale) SiO2 
 PCOD8289280
Probable space group: I M M M
;
_chemical_formula_sum "Si O2"
_cell_formula_units_Z 88
_cell_length_a 19.878299
_cell_length_b 10.012406
_cell_length_c 22.757419
_cell_angle_alpha 90.000000
_cell_angle_beta 90.000000
_cell_angle_gamma 90.000000
_cell_volume 4529.400005
_symmetry_space_group_name_H-M "I M M M"
_symmetry_group_IT_number 71
_symmetry_cell_setting 'orthorhombic'
loop_
_space_group_symop_operation_xyz
x,y,z
-x,-y,z
x,-y,-z
-x,y,-z
-x,-y,-z
x,y,-z
-x,y,z
x,-y,z
1/2+x,1/2+y,1/2+z
1/2-x,1/2-y,1/2+z
1/2+x,1/2-y,1/2-z
1/2-x,1/2+y,1/2-z
1/2-x,1/2-y,1/2-z
1/2+x,1/2+y,1/2-z
1/2-x,1/2+y,1/2+z
1/2+x,1/2-y,1/2+z
loop_
_atom_site_type_symbol
_atom_site_label
_atom_site_fract_x
_atom_site_fract_y
_atom_site_fract_z
Si Si1 0.394571 0.724660 0.933912
Si Si2 0.424357 0.000000 0.123455
Si Si3 0.719099 0.000000 0.171229
Si Si4 0.388559 0.148301 0.568224
Si Si5 0.927762 0.000000 0.655109
Si Si6 0.500000 0.652001 0.429803
Si Si7 0.284237 0.500000 0.201630
Si Si8 0.753009 0.226295 0.386573
O O1 0.416575 0.873914 0.918842
O O2 0.428014 0.628618 0.886565
O O3 0.314374 0.704807 0.931114
O O4 0.418298 0.690212 0.000000
O O5 0.363607 0.000000 0.172159
O O6 0.500000 0.000000 0.152328
O O7 0.748552 0.875963 0.136293
O O8 0.750444 0.000000 0.235365
O O9 0.404452 0.137308 0.500000
O O10 0.436255 0.263933 0.594894
O O11 0.312722 0.193417 0.576995
O O12 0.401522 0.000000 0.596222
O O13 0.866447 0.000000 0.701986
O O14 0.000000 0.000000 0.689045
O O15 0.500000 0.500000 0.404254
O O16 0.500000 0.643275 0.500000
O O17 0.258424 0.368302 0.169717
#
# Coordination Sequence:
#
# PCOD8289280 Si02
#       8
#    16   8   8  16   8   8   8  16
#     4  10  20  33  51  81 117 147 179 217 264 327
#     4  10  21  36  54  77 107 147 186 224 276 338
#     4  10  22  37  59  78 103 142 190 240 289 333
#     4  10  19  33  55  80 112 150 183 219 272 340
#     4  10  21  34  54  81 109 145 184 222 270 330
#     4   9  19  33  51  79 111 151 185 213 265 329
#     4  10  20  39  59  76 103 142 190 238 283 333
#     4  10  20  35  55  83 106 141 186 232 279 328
#
# _framework density 19.428622000000001
#
# number of rings (size 3 to 8) (size 9 to 14) (size 15 to 20)
#    0.000    2.091    0.909    2.455    1.273    3.273 
#    0.000    0.909    4.000    0.000    0.000    0.000 
#    0.000    0.000    0.000    0.000    0.000    0.000 
#
# Total GULP energy -545366.627660 kJ/mol
# GULP energy per Si atom -12394.696083 kJ/mol
# Density = 1.938440 g / cm^3
# Si number density = 19.428622 Si / 1000 Ang^3
#
#
#
# Elastic Constant Matrix: (Units=GPa)
#
#
# Indices 1 2 3 4 5 6 
#
# 1 146.6848 40.9792 17.3831 0.0000 0.0000 0.0000
# 2 40.9792 142.1551 2.5887 0.0000 0.0000 0.0000
# 3 17.3831 2.5887 51.0433 0.0000 0.0000 0.0000
# 4 0.0000 0.0000 0.0000 8.5293 0.0000 0.0000
# 5 0.0000 0.0000 0.0000 0.0000 17.6856 0.0000
# 6 0.0000 0.0000 0.0000 0.0000 0.0000 60.3079
#
#
#
# Elastic Compliance Matrix: (Units=1/GPa)
#
#
# Indices 1 2 3 4 5 6 
#
# 1 0.007725 -0.002181 -0.002520 0.000000 0.000000 0.000000
# 2 -0.002181 0.007657 0.000354 0.000000 0.000000 0.000000
# 3 -0.002520 0.000354 0.020432 0.000000 0.000000 0.000000
# 4 0.000000 0.000000 0.000000 0.117243 0.000000 0.000000
# 5 0.000000 0.000000 0.000000 0.000000 0.056543 0.000000
# 6 0.000000 0.000000 0.000000 0.000000 0.000000 0.016582
#
#
# Mechanical properties :
#
#
# Convention : Reuss Voigt Hill
#
# Bulk Modulus (GPa) = 36.87333 51.30946 44.09139
# Shear Modulus (GPa) = 20.49893 35.90006 28.19949
#
# Velocity S-wave (km/s) = 3.25174 4.30326 3.81391
# Velocity P-wave (km/s) = 5.75486 7.15243 6.49137
#
# Compressibility (1/GPa) = 0.02711987
#
# Stress axis : x y z
#
# Youngs Moduli (GPa) = 129.44418 130.60186 48.94400
#
# Poissons Ratio (x) = 0.28485 0.12335
# Poissons Ratio (y) = 0.28233 -0.01735
# Poissons Ratio (z) = 0.32624 -0.04629
#
# Static dielectric constant tensor:
#      x y z
#    x 3.772400 0.000000 0.000000 
#    y 0.000000 3.932180 0.000000 
#    z 0.000000 0.000000 2.984710 
# 
# 
# High freq. dielectric constant tensor:
#      x y z
#    x 1.770060 0.000000 0.000000 
#    y 0.000000 1.783150 0.000000 
#    z 0.000000 0.000000 1.700670 
# 
# From -- ./inp_files/61203.got.cif
#   From: 2010.06.25/outbox.cif.g09.slc.cpg/sg71_31_cif.got.tgz:61203.got - 2010.06.28 04:59:45.
