data_PCOD8289313
_publ_section_title
;
Structure prediction by ZEFSAII (Michael W. Deem and Ramdas Pophale) SiO2 
 PCOD8289313
Probable space group: I M M M
;
_chemical_formula_sum "Si O2"
_cell_formula_units_Z 120
_cell_length_a 21.781603
_cell_length_b 15.332263
_cell_length_c 18.424051
_cell_angle_alpha 90.000000
_cell_angle_beta 90.000000
_cell_angle_gamma 90.000000
_cell_volume 6152.919392
_symmetry_space_group_name_H-M "I M M M"
_symmetry_group_IT_number 71
_symmetry_cell_setting 'orthorhombic'
loop_
_space_group_symop_operation_xyz
x,y,z
-x,-y,z
x,-y,-z
-x,y,-z
-x,-y,-z
x,y,-z
-x,y,z
x,-y,z
1/2+x,1/2+y,1/2+z
1/2-x,1/2-y,1/2+z
1/2+x,1/2-y,1/2-z
1/2-x,1/2+y,1/2-z
1/2-x,1/2-y,1/2-z
1/2+x,1/2+y,1/2-z
1/2-x,1/2+y,1/2+z
1/2+x,1/2-y,1/2+z
loop_
_atom_site_type_symbol
_atom_site_label
_atom_site_fract_x
_atom_site_fract_y
_atom_site_fract_z
Si Si1 0.067041 0.500000 0.584650
Si Si2 0.765002 0.735328 0.585197
Si Si3 0.335594 0.594661 0.080677
Si Si4 0.071742 0.399754 0.812909
Si Si5 0.428896 0.660997 0.185638
Si Si6 0.427939 0.597300 0.341350
Si Si7 0.625686 0.154242 0.835282
Si Si8 0.374370 0.246569 0.583628
O O1 0.059140 0.500000 0.500000
O O2 0.102260 0.413136 0.605713
O O3 0.000000 0.500000 0.622913
O O4 0.773760 0.708728 0.500000
O O5 0.784846 0.834414 0.600310
O O6 0.804021 0.673816 0.640046
O O7 0.694630 0.733031 0.609830
O O8 0.303614 0.500000 0.087010
O O9 0.393864 0.595436 0.133171
O O10 0.361187 0.611532 0.000000
O O11 0.078032 0.500000 0.839709
O O12 0.117195 0.387160 0.744367
O O13 0.093635 0.333247 0.874649
O O14 0.000000 0.379380 0.793405
O O15 0.500000 0.640234 0.178284
O O16 0.405199 0.643269 0.267214
O O17 0.415040 0.759111 0.161146
O O18 0.500000 0.586839 0.340498
O O19 0.398750 0.500000 0.350710
O O20 0.409581 0.661842 0.406283
O O21 0.375747 0.219230 0.500000
#
# Coordination Sequence:
#
# PCOD8289313 Si02
#       8
#     8  16  16  16  16  16  16  16
#     4  11  22  34  56  92 127 163 210 256 305 372
#     4   9  21  40  60  84 119 159 202 247 291 351
#     4   9  18  33  53  79 113 154 193 236 285 336
#     4  11  23  40  64  94 127 159 199 256 320 378
#     4  10  19  33  56  83 114 153 194 238 291 351
#     4  10  21  38  60  87 118 151 190 241 304 367
#     4  11  20  37  61  84 118 163 202 244 303 365
#     4  11  24  43  65  88 118 159 204 255 311 371
#
# _framework density 19.502936999999999
#
# number of rings (size 3 to 8) (size 9 to 14) (size 15 to 20)
#    0.000    1.800    2.000    2.400    0.000    4.267 
#    1.200    3.333    0.000    0.000    0.000    0.000 
#    0.000    0.000    0.000    0.000    0.000    0.000 
#
# Total GULP energy -743812.746263 kJ/mol
# GULP energy per Si atom -12396.879104 kJ/mol
# Density = 1.945855 g / cm^3
# Si number density = 19.502937 Si / 1000 Ang^3
#
#
#
# Elastic Constant Matrix: (Units=GPa)
#
#
# Indices 1 2 3 4 5 6 
#
# 1 78.4213 44.2296 40.8550 0.0000 0.0000 0.0000
# 2 44.2296 134.6204 37.2988 0.0000 0.0000 0.0000
# 3 40.8550 37.2988 76.2913 0.0000 0.0000 0.0000
# 4 0.0000 0.0000 0.0000 23.2669 0.0000 0.0000
# 5 0.0000 0.0000 0.0000 0.0000 30.5770 0.0000
# 6 0.0000 0.0000 0.0000 0.0000 0.0000 20.6091
#
#
#
# Elastic Compliance Matrix: (Units=1/GPa)
#
#
# Indices 1 2 3 4 5 6 
#
# 1 0.019422 -0.004048 -0.008422 0.000000 0.000000 0.000000
# 2 -0.004048 0.009436 -0.002446 0.000000 0.000000 0.000000
# 3 -0.008422 -0.002446 0.018813 0.000000 0.000000 0.000000
# 4 0.000000 0.000000 0.000000 0.042980 0.000000 0.000000
# 5 0.000000 0.000000 0.000000 0.000000 0.032704 0.000000
# 6 0.000000 0.000000 0.000000 0.000000 0.000000 0.048522
#
#
# Mechanical properties :
#
#
# Convention : Reuss Voigt Hill
#
# Bulk Modulus (GPa) = 56.05094 59.34442 57.69768
# Shear Modulus (GPa) = 24.07848 26.02057 25.04953
#
# Velocity S-wave (km/s) = 3.51751 3.65662 3.58774
# Velocity P-wave (km/s) = 6.73048 6.95142 6.84184
#
# Compressibility (1/GPa) = 0.01784091
#
# Stress axis : x y z
#
# Youngs Moduli (GPa) = 51.48788 105.97991 53.15398
#
# Poissons Ratio (x) = 0.42898 0.44765
# Poissons Ratio (y) = 0.20841 0.12999
# Poissons Ratio (z) = 0.43362 0.25918
#
# Static dielectric constant tensor:
#      x y z
#    x 3.504440 0.000000 0.000000 
#    y 0.000000 3.735100 0.000000 
#    z 0.000000 0.000000 3.562490 
# 
# 
# High freq. dielectric constant tensor:
#      x y z
#    x 1.744810 0.000000 0.000000 
#    y 0.000000 1.773480 0.000000 
#    z 0.000000 0.000000 1.756300 
# 
# From -- ./inp_files/55144.got.cif
#   From: 2010.06.25/outbox.cif.g09.slc.cpg/sg71_28_cif.got.tgz:55144.got - 2010.06.28 04:59:45.
