data_PCOD8289396
_publ_section_title
;
Structure prediction by ZEFSAII (Michael W. Deem and Ramdas Pophale) SiO2 
 PCOD8289396
Probable space group: I M M M
;
_chemical_formula_sum "Si O2"
_cell_formula_units_Z 104
_cell_length_a 23.131976
_cell_length_b 25.221391
_cell_length_c 8.988995
_cell_angle_alpha 90.000000
_cell_angle_beta 90.000000
_cell_angle_gamma 90.000000
_cell_volume 5244.364958
_symmetry_space_group_name_H-M "I M M M"
_symmetry_group_IT_number 71
_symmetry_cell_setting 'orthorhombic'
loop_
_space_group_symop_operation_xyz
x,y,z
-x,-y,z
x,-y,-z
-x,y,-z
-x,-y,-z
x,y,-z
-x,y,z
x,-y,z
1/2+x,1/2+y,1/2+z
1/2-x,1/2-y,1/2+z
1/2+x,1/2-y,1/2-z
1/2-x,1/2+y,1/2-z
1/2-x,1/2-y,1/2-z
1/2+x,1/2+y,1/2-z
1/2-x,1/2+y,1/2+z
1/2+x,1/2-y,1/2+z
loop_
_atom_site_type_symbol
_atom_site_label
_atom_site_fract_x
_atom_site_fract_y
_atom_site_fract_z
Si Si1 0.568746 0.000000 0.177144
Si Si2 0.147871 0.588972 0.176192
Si Si3 0.000000 0.753329 0.175471
Si Si4 0.601071 0.442315 0.175530
Si Si5 0.500000 0.367222 0.822669
Si Si6 0.294534 0.712604 0.674057
Si Si7 0.222488 0.897978 0.673252
Si Si8 0.615310 0.204065 0.673654
O O1 0.602236 0.051202 0.241217
O O2 0.500000 0.000000 0.222868
O O3 0.574266 0.000000 0.000000
O O4 0.215420 0.574864 0.212351
O O5 0.138872 0.648771 0.241241
O O6 0.136005 0.583722 0.000000
O O7 0.050890 0.714651 0.226060
O O8 0.000000 0.808585 0.259623
O O9 0.000000 0.765902 0.000000
O O10 0.582606 0.500000 0.238227
O O11 0.557352 0.397709 0.238874
O O12 0.668628 0.435042 0.217604
O O13 0.594197 0.441707 0.000000
O O14 0.500000 0.364103 0.000000
O O15 0.283713 0.710257 0.500000
O O16 0.250000 0.750000 0.750000
O O17 0.289433 0.654587 0.736473
O O18 0.354194 0.740931 0.718948
O O19 0.222223 0.882990 0.500000
O O20 0.621911 0.195459 0.500000
#
# Coordination Sequence:
#
# PCOD8289396 Si02
#       8
#     8  16   8  16   8  16  16  16
#     4  11  27  47  63  85 119 150 185 236 298 353
#     4  10  21  39  63  88 113 146 194 239 280 342
#     4  10  20  35  57  80 109 146 179 227 282 329
#     4   9  18  32  55  82 112 151 194 238 283 328
#     4  10  19  34  54  82 115 149 194 237 275 333
#     4  11  20  34  54  80 116 152 186 227 280 342
#     4  10  20  35  57  86 117 149 191 241 287 338
#     4   9  19  35  56  83 111 143 188 232 273 335
#
# _framework density 19.830808000000001
#
# number of rings (size 3 to 8) (size 9 to 14) (size 15 to 20)
#    0.000    2.077    1.538    1.846    2.154    2.154 
#    0.000    1.538    0.000    1.846    0.000    0.000 
#    0.000    0.000    0.000    0.000    0.000    0.000 
#
# Total GULP energy -644246.776524 kJ/mol
# GULP energy per Si atom -12389.361087 kJ/mol
# Density = 1.978567 g / cm^3
# Si number density = 19.830808 Si / 1000 Ang^3
#
#
#
# Elastic Constant Matrix: (Units=GPa)
#
#
# Indices 1 2 3 4 5 6 
#
# 1 155.1501 41.6041 31.0874 0.0000 0.0000 0.0000
# 2 41.6041 99.4502 23.9509 0.0000 0.0000 0.0000
# 3 31.0874 23.9509 38.2813 0.0000 0.0000 0.0000
# 4 0.0000 0.0000 0.0000 31.1212 0.0000 0.0000
# 5 0.0000 0.0000 0.0000 0.0000 20.9542 0.0000
# 6 0.0000 0.0000 0.0000 0.0000 0.0000 53.4805
#
#
#
# Elastic Compliance Matrix: (Units=1/GPa)
#
#
# Indices 1 2 3 4 5 6 
#
# 1 0.008058 -0.002114 -0.005222 0.000000 0.000000 0.000000
# 2 -0.002114 0.012394 -0.006038 0.000000 0.000000 0.000000
# 3 -0.005222 -0.006038 0.034140 0.000000 0.000000 0.000000
# 4 0.000000 0.000000 0.000000 0.032132 0.000000 0.000000
# 5 0.000000 0.000000 0.000000 0.000000 0.047723 0.000000
# 6 0.000000 0.000000 0.000000 0.000000 0.000000 0.018698
#
#
# Mechanical properties :
#
#
# Convention : Reuss Voigt Hill
#
# Bulk Modulus (GPa) = 35.91130 54.01849 44.96489
# Shear Modulus (GPa) = 26.43066 34.19380 30.31223
#
# Velocity S-wave (km/s) = 3.65472 4.15695 3.91390
# Velocity P-wave (km/s) = 5.99646 7.09500 6.56874
#
# Compressibility (1/GPa) = 0.02784639
#
# Stress axis : x y z
#
# Youngs Moduli (GPa) = 124.09396 80.68708 29.29088
#
# Poissons Ratio (x) = 0.17054 0.15295
# Poissons Ratio (y) = 0.26229 0.17685
# Poissons Ratio (z) = 0.64798 0.48716
#
# Static dielectric constant tensor:
#      x y z
#    x 4.058960 0.000000 0.000000 
#    y 0.000000 3.617120 0.000000 
#    z 0.000000 0.000000 3.253960 
# 
# 
# High freq. dielectric constant tensor:
#      x y z
#    x 1.794480 0.000000 0.000000 
#    y 0.000000 1.782180 0.000000 
#    z 0.000000 0.000000 1.730890 
# 
# From -- ./inp_files/11216.got.cif
#   From: 2010.06.25/outbox.cif.g09.slc.cpg/sg71_6_cif.got.tgz:11216.got - 2010.06.28 04:59:45.
