data_PCOD8289073
_publ_section_title
;
Structure prediction by ZEFSAII (Michael W. Deem and Ramdas Pophale) SiO2 
 PCOD8289073
Probable space group: I M M M
;
_chemical_formula_sum "Si O2"
_cell_formula_units_Z 96
_cell_length_a 21.943313
_cell_length_b 8.951145
_cell_length_c 26.608167
_cell_angle_alpha 90.000000
_cell_angle_beta 90.000000
_cell_angle_gamma 90.000000
_cell_volume 5226.316997
_symmetry_space_group_name_H-M "I M M M"
_symmetry_group_IT_number 71
_symmetry_cell_setting 'orthorhombic'
loop_
_space_group_symop_operation_xyz
x,y,z
-x,-y,z
x,-y,-z
-x,y,-z
-x,-y,-z
x,y,-z
-x,y,z
x,-y,z
1/2+x,1/2+y,1/2+z
1/2-x,1/2-y,1/2+z
1/2+x,1/2-y,1/2-z
1/2-x,1/2+y,1/2-z
1/2-x,1/2-y,1/2-z
1/2+x,1/2+y,1/2-z
1/2-x,1/2+y,1/2+z
1/2+x,1/2-y,1/2+z
loop_
_atom_site_type_symbol
_atom_site_label
_atom_site_fract_x
_atom_site_fract_y
_atom_site_fract_z
Si Si1 0.739772 0.324762 0.441304
Si Si2 0.068843 0.674153 0.207116
Si Si3 0.570649 0.172645 0.178121
Si Si4 0.071979 0.330921 0.500000
Si Si5 0.138013 0.176350 0.590573
Si Si6 0.500000 0.678068 0.443714
Si Si7 0.617961 0.676553 0.614519
O O1 0.735396 0.285115 0.500000
O O2 0.751065 0.500000 0.433311
O O3 0.793612 0.233653 0.415580
O O4 0.678307 0.270212 0.414226
O O5 0.071840 0.500000 0.195389
O O6 0.088292 0.705702 0.264325
O O7 0.116049 0.758685 0.170880
O O8 0.000000 0.733524 0.198083
O O9 0.500000 0.210917 0.168352
O O10 0.613241 0.278249 0.145044
O O11 0.582993 0.000000 0.164463
O O12 0.097847 0.500000 0.500000
O O13 0.094563 0.248211 0.549242
O O14 0.000000 0.330913 0.500000
O O15 0.136657 0.000000 0.584392
O O16 0.500000 0.500000 0.444689
O O17 0.500000 0.742335 0.500000
O O18 0.440090 0.739328 0.415875
O O19 0.615977 0.500000 0.617945
#
# Coordination Sequence:
#
# PCOD8289073 Si02
#       7
#    16  16  16   8  16   8  16
#     4  10  21  38  58  78 108 155 199 229 273 342
#     4   9  18  34  56  82 113 149 185 227 284 345
#     4   9  19  37  60  83 110 148 190 227 276 345
#     4  11  23  39  61  85 113 150 187 224 273 339
#     4  12  24  37  56  85 116 145 184 236 287 330
#     4   9  16  28  49  81 117 143 177 234 287 330
#     4  10  19  32  55  85 111 143 190 238 282 332
#
# _framework density 18.368576000000001
#
# number of rings (size 3 to 8) (size 9 to 14) (size 15 to 20)
#    0.000    2.000    1.667    3.750    0.000    6.333 
#    0.000    2.500    0.000    2.000    0.000    0.000 
#    0.000    0.000    0.000    0.000    0.000    0.000 
#
# Total GULP energy -595327.706517 kJ/mol
# GULP energy per Si atom -12402.660552 kJ/mol
# Density = 1.832677 g / cm^3
# Si number density = 18.368576 Si / 1000 Ang^3
#
#
#
# Elastic Constant Matrix: (Units=GPa)
#
#
# Indices 1 2 3 4 5 6 
#
# 1 125.1425 55.7896 70.1440 0.0000 0.0000 0.0000
# 2 55.7896 69.7373 48.2612 0.0000 0.0000 0.0000
# 3 70.1440 48.2612 126.4453 0.0000 0.0000 0.0000
# 4 0.0000 0.0000 0.0000 29.7048 0.0000 0.0000
# 5 0.0000 0.0000 0.0000 0.0000 18.4684 0.0000
# 6 0.0000 0.0000 0.0000 0.0000 0.0000 18.2043
#
#
#
# Elastic Compliance Matrix: (Units=1/GPa)
#
#
# Indices 1 2 3 4 5 6 
#
# 1 0.014322 -0.008098 -0.004854 0.000000 0.000000 0.000000
# 2 -0.008098 0.024066 -0.004693 0.000000 0.000000 0.000000
# 3 -0.004854 -0.004693 0.012392 0.000000 0.000000 0.000000
# 4 0.000000 0.000000 0.000000 0.033665 0.000000 0.000000
# 5 0.000000 0.000000 0.000000 0.000000 0.054146 0.000000
# 6 0.000000 0.000000 0.000000 0.000000 0.000000 0.054932
#
#
# Mechanical properties :
#
#
# Convention : Reuss Voigt Hill
#
# Bulk Modulus (GPa) = 64.55879 74.41274 69.48576
# Shear Modulus (GPa) = 21.36962 23.08420 22.22691
#
# Velocity S-wave (km/s) = 3.41454 3.54887 3.48235
# Velocity P-wave (km/s) = 7.12517 7.57572 7.35389
#
# Compressibility (1/GPa) = 0.01548976
#
# Stress axis : x y z
#
# Youngs Moduli (GPa) = 69.82307 41.55258 80.69456
#
# Poissons Ratio (x) = 0.33651 0.39169
# Poissons Ratio (y) = 0.56545 0.37869
# Poissons Ratio (z) = 0.33892 0.19500
#
# Static dielectric constant tensor:
#      x y z
#    x 3.410820 0.000000 0.000000 
#    y 0.000000 3.193570 0.000000 
#    z 0.000000 0.000000 3.481120 
# 
# 
# High freq. dielectric constant tensor:
#      x y z
#    x 1.707470 0.000000 0.000000 
#    y 0.000000 1.696440 0.000000 
#    z 0.000000 0.000000 1.723040 
# 
# From -- ./inp_files/66762.got.cif
#   From: 2010.06.25/outbox.cif.g09.slc.cpg/sg71_34_cif.got.tgz:66762.got - 2010.06.28 04:59:45.
