data_PCOD8289079
_publ_section_title
;
Structure prediction by ZEFSAII (Michael W. Deem and Ramdas Pophale) SiO2 
 PCOD8289079
Probable space group: I M M M
;
_chemical_formula_sum "Si O2"
_cell_formula_units_Z 88
_cell_length_a 8.591602
_cell_length_b 25.264916
_cell_length_c 20.694130
_cell_angle_alpha 90.000000
_cell_angle_beta 90.000000
_cell_angle_gamma 90.000000
_cell_volume 4491.994151
_symmetry_space_group_name_H-M "I M M M"
_symmetry_group_IT_number 71
_symmetry_cell_setting 'orthorhombic'
loop_
_space_group_symop_operation_xyz
x,y,z
-x,-y,z
x,-y,-z
-x,y,-z
-x,-y,-z
x,y,-z
-x,y,z
x,-y,z
1/2+x,1/2+y,1/2+z
1/2-x,1/2-y,1/2+z
1/2+x,1/2-y,1/2-z
1/2-x,1/2+y,1/2-z
1/2-x,1/2-y,1/2-z
1/2+x,1/2+y,1/2-z
1/2-x,1/2+y,1/2+z
1/2+x,1/2-y,1/2+z
loop_
_atom_site_type_symbol
_atom_site_label
_atom_site_fract_x
_atom_site_fract_y
_atom_site_fract_z
Si Si1 0.676859 0.686222 0.312799
Si Si2 0.815045 0.607577 0.927284
Si Si3 0.680016 0.193791 0.324302
Si Si4 0.816343 0.500000 0.136603
Si Si5 0.319555 0.500000 0.277298
Si Si6 0.827152 0.938046 0.000000
Si Si7 0.820986 0.587315 0.633763
O O1 0.500000 0.667419 0.323230
O O2 0.700887 0.744684 0.342352
O O3 0.713277 0.682127 0.237043
O O4 0.794428 0.648671 0.350816
O O5 0.761048 0.657243 0.883420
O O6 0.748187 0.552717 0.897665
O O7 0.000000 0.605314 0.929059
O O8 0.749158 0.614989 0.000000
O O9 0.500000 0.181335 0.307089
O O10 0.776735 0.500000 0.211726
O O11 0.000000 0.500000 0.129297
O O12 0.500000 0.500000 0.259885
O O13 0.281006 0.551997 0.318242
O O14 0.728618 0.920595 0.939151
O O15 0.000000 0.911885 0.000000
O O16 0.848114 0.000000 0.000000
O O17 0.000000 0.571548 0.642592
#
# Coordination Sequence:
#
# PCOD8289079 Si02
#       7
#    16  16  16   8   8   8  16
#     4  10  20  35  56  83 113 149 194 245 294 337
#     4   9  17  31  53  81 113 146 188 234 279 335
#     4   9  18  34  56  82 112 151 197 242 290 343
#     4  10  19  32  55  87 116 147 184 229 283 339
#     4  12  24  38  58  85 116 147 185 235 282 334
#     4  11  23  41  63  85 116 152 188 231 282 343
#     4  12  24  39  60  85 115 151 190 234 285 345
#
# _framework density 19.590409000000001
#
# number of rings (size 3 to 8) (size 9 to 14) (size 15 to 20)
#    0.000    1.727    0.909    4.636    0.000    3.636 
#    1.636    0.000    0.000    2.727    0.000    0.000 
#    0.000    0.000    0.000    0.000    0.000    0.000 
#
# Total GULP energy -545687.957141 kJ/mol
# GULP energy per Si atom -12401.999026 kJ/mol
# Density = 1.954582 g / cm^3
# Si number density = 19.590409 Si / 1000 Ang^3
#
#
#
# Elastic Constant Matrix: (Units=GPa)
#
#
# Indices 1 2 3 4 5 6 
#
# 1 44.2409 20.5618 2.5407 0.0000 0.0000 0.0000
# 2 20.5618 130.8259 68.9223 0.0000 0.0000 0.0000
# 3 2.5407 68.9223 129.2582 0.0001 0.0000 0.0000
# 4 0.0000 0.0000 0.0001 26.7669 0.0000 0.0000
# 5 0.0000 0.0000 0.0000 0.0000 22.9323 0.0000
# 6 0.0000 0.0000 0.0000 0.0000 0.0000 23.6476
#
#
#
# Elastic Compliance Matrix: (Units=1/GPa)
#
#
# Indices 1 2 3 4 5 6 
#
# 1 0.024833 -0.005070 0.002215 0.000000 0.000000 0.000000
# 2 -0.005070 0.011665 -0.006120 0.000000 0.000000 0.000000
# 3 0.002215 -0.006120 0.010956 0.000000 0.000000 0.000000
# 4 0.000000 0.000000 0.000000 0.037360 0.000000 0.000000
# 5 0.000000 0.000000 0.000000 0.000000 0.043607 0.000000
# 6 0.000000 0.000000 0.000000 0.000000 0.000000 0.042288
#
#
# Mechanical properties :
#
#
# Convention : Reuss Voigt Hill
#
# Bulk Modulus (GPa) = 33.89370 54.26384 44.07877
# Shear Modulus (GPa) = 25.18989 28.82269 27.00629
#
# Velocity S-wave (km/s) = 3.58973 3.83987 3.71691
# Velocity P-wave (km/s) = 5.87540 6.88613 6.40075
#
# Compressibility (1/GPa) = 0.02950401
#
# Stress axis : x y z
#
# Youngs Moduli (GPa) = 40.26946 85.72736 91.27164
#
# Poissons Ratio (x) = 0.43464 -0.20219
# Poissons Ratio (y) = 0.20417 0.55860
# Poissons Ratio (z) = -0.08921 0.52467
#
# Static dielectric constant tensor:
#      x y z
#    x 3.416800 0.000000 0.000000 
#    y 0.000000 3.825890 0.000000 
#    z 0.000000 0.000000 3.582210 
# 
# 
# High freq. dielectric constant tensor:
#      x y z
#    x 1.746640 0.000000 0.000000 
#    y 0.000000 1.772820 0.000000 
#    z 0.000000 0.000000 1.761740 
# 
# From -- ./inp_files/50575.got.cif
#   From: 2010.06.25/outbox.cif.g09.slc.cpg/sg71_26_cif.got.tgz:50575.got - 2010.06.28 04:59:45.
