data_PCOD8289043
_publ_section_title
;
Structure prediction by ZEFSAII (Michael W. Deem and Ramdas Pophale) SiO2 
 PCOD8289043
Probable space group: I M M M
;
_chemical_formula_sum "Si O2"
_cell_formula_units_Z 80
_cell_length_a 10.426466
_cell_length_b 16.757040
_cell_length_c 23.241077
_cell_angle_alpha 90.000000
_cell_angle_beta 90.000000
_cell_angle_gamma 90.000000
_cell_volume 4060.604460
_symmetry_space_group_name_H-M "I M M M"
_symmetry_group_IT_number 71
_symmetry_cell_setting 'orthorhombic'
loop_
_space_group_symop_operation_xyz
x,y,z
-x,-y,z
x,-y,-z
-x,y,-z
-x,-y,-z
x,y,-z
-x,y,z
x,-y,z
1/2+x,1/2+y,1/2+z
1/2-x,1/2-y,1/2+z
1/2+x,1/2-y,1/2-z
1/2-x,1/2+y,1/2-z
1/2-x,1/2-y,1/2-z
1/2+x,1/2+y,1/2-z
1/2-x,1/2+y,1/2+z
1/2+x,1/2-y,1/2+z
loop_
_atom_site_type_symbol
_atom_site_label
_atom_site_fract_x
_atom_site_fract_y
_atom_site_fract_z
Si Si1 0.000000 0.592252 0.622517
Si Si2 0.500000 0.336159 0.237689
Si Si3 0.000000 0.905112 0.135822
Si Si4 0.143662 0.405359 0.937286
Si Si5 0.000000 0.350391 0.250631
Si Si6 0.244796 0.904877 0.064878
Si Si7 0.752727 0.405246 0.818483
O O1 0.000000 0.600667 0.690579
O O2 0.872873 0.630913 0.594264
O O3 0.000000 0.500000 0.606065
O O4 0.500000 0.363988 0.302926
O O5 0.500000 0.241864 0.234185
O O6 0.375820 0.368263 0.205672
O O7 0.876326 0.874389 0.101169
O O8 0.000000 0.000000 0.144102
O O9 0.136332 0.500000 0.936235
O O10 0.234578 0.376954 0.885132
O O11 0.000000 0.371320 0.927890
O O12 0.196720 0.376599 0.000000
O O13 0.874074 0.373063 0.215844
O O14 0.245797 0.000000 0.064811
O O15 0.234225 0.871963 0.000000
O O16 0.746998 0.500000 0.812187
#
# Coordination Sequence:
#
# PCOD8289043 Si02
#       7
#     8   8   8  16   8  16  16
#     4  10  19  32  54  82 107 136 182 232 272 324
#     4  12  26  39  54  82 126 157 185 240 303 342
#     4  10  19  34  54  76 105 148 188 220 266 338
#     4   8  14  28  55  89 114 136 181 242 288 329
#     4  12  24  39  58  82 116 157 199 234 285 344
#     4   9  17  30  52  81 107 132 174 232 282 322
#     4  11  21  38  62  88 114 151 197 240 283 344
#
# _framework density 19.701501
#
# number of rings (size 3 to 8) (size 9 to 14) (size 15 to 20)
#    0.000    2.000    1.000    4.800    0.000    4.000 
#    0.000    0.500    0.000    9.600    0.000    0.000 
#    0.000    0.000    0.000    0.000    0.000    0.000 
#
# Total GULP energy -495911.363078 kJ/mol
# GULP energy per Si atom -12397.784077 kJ/mol
# Density = 1.965666 g / cm^3
# Si number density = 19.701501 Si / 1000 Ang^3
#
#
#
# Elastic Constant Matrix: (Units=GPa)
#
#
# Indices 1 2 3 4 5 6 
#
# 1 185.0709 28.3994 94.0075 0.0000 0.0000 0.0000
# 2 28.3994 48.1964 15.2890 0.0000 0.0000 0.0000
# 3 94.0075 15.2890 182.7770 0.0000 0.0000 0.0000
# 4 0.0000 0.0000 0.0000 -4.7367 0.0000 0.0000
# 5 0.0000 0.0000 0.0000 0.0000 112.7361 0.0000
# 6 0.0000 0.0000 0.0000 0.0000 0.0000 19.7217
#
#
#
# Elastic Compliance Matrix: (Units=1/GPa)
#
#
# Indices 1 2 3 4 5 6 
#
# 1 0.007829 -0.003427 -0.003740 0.000000 0.000000 0.000000
# 2 -0.003427 0.022814 -0.000146 0.000000 0.000000 0.000000
# 3 -0.003740 -0.000146 0.007407 0.000000 0.000000 0.000000
# 4 0.000000 0.000000 0.000000 -0.211116 0.000000 0.000000
# 5 0.000000 0.000000 0.000000 0.000000 0.008870 0.000000
# 6 0.000000 0.000000 0.000000 0.000000 0.000000 0.050706
#
#
# Mechanical properties :
#
#
# Convention : Reuss Voigt Hill
#
# Bulk Modulus (GPa) = 42.69027 76.82624 59.75826
# Shear Modulus (GPa) = -54.91076 44.10078 -5.40499
#
# Velocity S-wave (km/s) = -5.28506 4.73636 -1.65813
# Velocity P-wave (km/s) = 3.94042 8.30605 5.17028
#
# Compressibility (1/GPa) = 0.02342454
#
# Stress axis : x y z
#
# Youngs Moduli (GPa) = 127.73158 43.83293 135.00847
#
# Poissons Ratio (x) = 0.15020 0.50493
# Poissons Ratio (y) = 0.43770 0.01970
# Poissons Ratio (z) = 0.47772 0.00639
#
# Static dielectric constant tensor:
#      x y z
#    x 3.745190 0.000000 0.000000 
#    y 0.000000 3.171380 0.000000 
#    z 0.000000 0.000000 4.042980 
# 
# 
# High freq. dielectric constant tensor:
#      x y z
#    x 1.772270 0.000000 0.000000 
#    y 0.000000 1.723300 0.000000 
#    z 0.000000 0.000000 1.791580 
# 
# From -- ./inp_files/51754.got.cif
#   From: 2010.06.25/outbox.cif.g09.slc.cpg/sg71_26_cif.got.tgz:51754.got - 2010.06.28 04:59:45.
