data_PCOD8289572
_publ_section_title
;
Structure prediction by ZEFSAII (Michael W. Deem and Ramdas Pophale) SiO2 
 PCOD8289572
Probable space group: I M M M
;
_chemical_formula_sum "Si O2"
_cell_formula_units_Z 96
_cell_length_a 9.799289
_cell_length_b 21.801807
_cell_length_c 24.393209
_cell_angle_alpha 90.000000
_cell_angle_beta 90.000000
_cell_angle_gamma 90.000000
_cell_volume 5211.419019
_symmetry_space_group_name_H-M "I M M M"
_symmetry_group_IT_number 71
_symmetry_cell_setting 'orthorhombic'
loop_
_space_group_symop_operation_xyz
x,y,z
-x,-y,z
x,-y,-z
-x,y,-z
-x,-y,-z
x,y,-z
-x,y,z
x,-y,z
1/2+x,1/2+y,1/2+z
1/2-x,1/2-y,1/2+z
1/2+x,1/2-y,1/2-z
1/2-x,1/2+y,1/2-z
1/2-x,1/2-y,1/2-z
1/2+x,1/2+y,1/2-z
1/2-x,1/2+y,1/2+z
1/2+x,1/2-y,1/2+z
loop_
_atom_site_type_symbol
_atom_site_label
_atom_site_fract_x
_atom_site_fract_y
_atom_site_fract_z
Si Si1 0.662153 0.846002 0.657575
Si Si2 0.661859 0.931788 0.439482
Si Si3 0.158134 0.118691 0.240587
Si Si4 0.746310 0.000000 0.060959
Si Si5 0.155830 0.793517 0.856614
Si Si6 0.153304 0.000000 0.821271
Si Si7 0.348239 0.134320 0.937977
O O1 0.500000 0.852148 0.668479
O O2 0.714310 0.883314 0.604750
O O3 0.743725 0.874224 0.708000
O O4 0.705868 0.776261 0.646625
O O5 0.716165 0.913096 0.500000
O O6 0.500000 0.931871 0.440050
O O7 0.714901 0.000000 0.424182
O O8 0.172241 0.179230 0.203888
O O9 0.217600 0.061453 0.205018
O O10 0.000000 0.109978 0.258757
O O11 0.848870 0.000000 0.112442
O O12 0.655157 0.939392 0.067151
O O13 0.818431 0.000000 0.000000
O O14 0.241582 0.831910 0.899774
O O15 0.000000 0.797679 0.876822
O O16 0.000000 0.000000 0.801409
O O17 0.500000 0.155271 0.921162
O O18 0.314648 0.154176 0.000000
#
# Coordination Sequence:
#
# PCOD8289572 Si02
#       7
#    16  16  16   8  16   8  16
#     4  10  21  35  56  85 108 134 182 231 266 319
#     4   8  15  30  52  77 106 135 163 209 272 323
#     4  10  21  37  54  75 110 149 179 217 273 330
#     4  10  19  35  58  81 108 143 188 238 281 320
#     4  10  21  37  55  77 109 147 185 226 273 325
#     4  10  20  36  55  80 113 145 183 227 272 328
#     4  10  21  36  55  81 112 145 184 231 280 328
#
# _framework density 18.421085999999999
#
# number of rings (size 3 to 8) (size 9 to 14) (size 15 to 20)
#    0.000    2.333    1.667    1.250    1.167    3.500 
#    0.000    3.333    0.000    0.500    0.000    1.167 
#    0.000    0.000    0.000    0.000    0.000    0.000 
#
# Total GULP energy -594953.835438 kJ/mol
# GULP energy per Si atom -12394.871572 kJ/mol
# Density = 1.837916 g / cm^3
# Si number density = 18.421086 Si / 1000 Ang^3
#
#
#
# Elastic Constant Matrix: (Units=GPa)
#
#
# Indices 1 2 3 4 5 6 
#
# 1 51.2986 29.2016 48.8295 0.0000 0.0000 0.0000
# 2 29.2016 129.6498 79.3248 0.0000 0.0000 0.0000
# 3 48.8295 79.3248 139.0267 0.0000 0.0000 0.0000
# 4 0.0000 0.0000 0.0000 27.1377 0.0000 0.0000
# 5 0.0000 0.0000 0.0000 0.0000 27.5719 0.0000
# 6 0.0000 0.0000 0.0000 0.0000 0.0000 15.4710
#
#
#
# Elastic Compliance Matrix: (Units=1/GPa)
#
#
# Indices 1 2 3 4 5 6 
#
# 1 0.029302 -0.000466 -0.010026 0.000000 0.000000 0.000000
# 2 -0.000466 0.011857 -0.006602 0.000000 0.000000 0.000000
# 3 -0.010026 -0.006602 0.014481 0.000000 0.000000 0.000000
# 4 0.000000 0.000000 0.000000 0.036849 0.000000 0.000000
# 5 0.000000 0.000000 0.000000 0.000000 0.036269 0.000000
# 6 0.000000 0.000000 0.000000 0.000000 0.000000 0.064637
#
#
# Mechanical properties :
#
#
# Convention : Reuss Voigt Hill
#
# Bulk Modulus (GPa) = 46.61228 70.52077 58.56653
# Shear Modulus (GPa) = 21.30076 24.87740 23.08908
#
# Velocity S-wave (km/s) = 3.40417 3.67888 3.54419
# Velocity P-wave (km/s) = 6.38826 7.51075 6.97213
#
# Compressibility (1/GPa) = 0.02145357
#
# Stress axis : x y z
#
# Youngs Moduli (GPa) = 34.12725 84.33658 69.05570
#
# Poissons Ratio (x) = 0.03927 0.69235
# Poissons Ratio (y) = 0.01589 0.45590
# Poissons Ratio (z) = 0.34216 0.55678
#
# Static dielectric constant tensor:
#      x y z
#    x 3.057400 0.000000 0.000000 
#    y 0.000000 3.695520 0.000000 
#    z 0.000000 0.000000 3.481920 
# 
# 
# High freq. dielectric constant tensor:
#      x y z
#    x 1.680850 0.000000 0.000000 
#    y 0.000000 1.724240 0.000000 
#    z 0.000000 0.000000 1.719690 
# 
# From -- ./inp_files/52042.got.cif
#   From: 2010.06.25/outbox.cif.g09.slc.cpg/sg71_27_cif.got.tgz:52042.got - 2010.06.28 04:59:45.
