data_PCOD8289862
_publ_section_title
;
Structure prediction by ZEFSAII (Michael W. Deem and Ramdas Pophale) SiO2 
 PCOD8289862
Probable space group: I M M M
;
_chemical_formula_sum "Si O2"
_cell_formula_units_Z 96
_cell_length_a 9.383197
_cell_length_b 30.687260
_cell_length_c 18.798257
_cell_angle_alpha 90.000000
_cell_angle_beta 90.000000
_cell_angle_gamma 90.000000
_cell_volume 5412.856705
_symmetry_space_group_name_H-M "I M M M"
_symmetry_group_IT_number 71
_symmetry_cell_setting 'orthorhombic'
loop_
_space_group_symop_operation_xyz
x,y,z
-x,-y,z
x,-y,-z
-x,y,-z
-x,-y,-z
x,y,-z
-x,y,z
x,-y,z
1/2+x,1/2+y,1/2+z
1/2-x,1/2-y,1/2+z
1/2+x,1/2-y,1/2-z
1/2-x,1/2+y,1/2-z
1/2-x,1/2-y,1/2-z
1/2+x,1/2+y,1/2-z
1/2-x,1/2+y,1/2+z
1/2+x,1/2-y,1/2+z
loop_
_atom_site_type_symbol
_atom_site_label
_atom_site_fract_x
_atom_site_fract_y
_atom_site_fract_z
Si Si1 0.164512 0.205907 0.582385
Si Si2 0.668774 0.378817 0.167046
Si Si3 0.669588 0.451849 0.579740
Si Si4 0.835135 0.449621 0.918577
Si Si5 0.166805 0.209151 0.917880
Si Si6 0.169417 0.127034 0.828532
O O1 0.191565 0.195884 0.500000
O O2 0.218986 0.163994 0.625096
O O3 0.253781 0.247452 0.607950
O O4 0.000000 0.215727 0.598620
O O5 0.500000 0.385236 0.162493
O O6 0.739660 0.421346 0.133884
O O7 0.722678 0.372996 0.247660
O O8 0.724407 0.441944 0.500000
O O9 0.500000 0.449964 0.580434
O O10 0.721027 0.500000 0.604059
O O11 0.733441 0.415813 0.632974
O O12 0.805504 0.500000 0.900993
O O13 0.000000 0.438212 0.906124
O O14 0.792468 0.439519 0.000000
O O15 0.225336 0.169765 0.869580
O O16 0.000000 0.216870 0.906618
O O17 0.201841 0.198305 0.000000
O O18 0.000000 0.126340 0.832352
#
# Coordination Sequence:
#
# PCOD8289862 Si02
#       6
#    16  16  16  16  16  16
#     4   9  18  32  47  64  90 122 155 194 239 285
#     4  10  20  32  48  72 100 128 156 190 237 288
#     4   8  13  22  38  60  87 121 156 187 226 277
#     4   9  19  36  55  73  95 125 160 197 235 275
#     4   9  17  30  49  70  91 121 162 202 238 278
#     4   9  17  28  42  65  97 125 152 193 239 279
#
# _framework density 17.735551999999998
#
# number of rings (size 3 to 8) (size 9 to 14) (size 15 to 20)
#    0.000    3.000    0.000    2.000    0.000    5.333 
#    0.000    5.000    0.000    0.000    0.000    0.000 
#    0.000    0.000    0.000   11.500    0.000   10.333 
#
# Total GULP energy -595150.477472 kJ/mol
# GULP energy per Si atom -12398.968281 kJ/mol
# Density = 1.769518 g / cm^3
# Si number density = 17.735552 Si / 1000 Ang^3
#
#
#
# Elastic Constant Matrix: (Units=GPa)
#
#
# Indices 1 2 3 4 5 6 
#
# 1 29.0543 40.3966 31.4007 0.0000 0.0000 0.0000
# 2 40.3966 158.1136 91.7687 -0.0001 0.0000 0.0000
# 3 31.4007 91.7687 118.3509 -0.0002 -0.0001 0.0000
# 4 0.0000 -0.0001 -0.0002 17.4661 0.0000 0.0000
# 5 0.0000 0.0000 -0.0001 0.0000 14.9363 0.0000
# 6 0.0000 0.0000 0.0000 0.0000 0.0000 27.7436
#
#
#
# Elastic Compliance Matrix: (Units=1/GPa)
#
#
# Indices 1 2 3 4 5 6 
#
# 1 0.056303 -0.010391 -0.006881 0.000000 0.000000 0.000000
# 2 -0.010391 0.013418 -0.007647 0.000000 0.000000 0.000000
# 3 -0.006881 -0.007647 0.016205 0.000000 0.000000 0.000000
# 4 0.000000 0.000000 0.000000 0.057254 0.000000 0.000000
# 5 0.000000 0.000000 0.000000 0.000000 0.066951 0.000000
# 6 0.000000 0.000000 0.000000 0.000000 0.000000 0.036044
#
#
# Mechanical properties :
#
#
# Convention : Reuss Voigt Hill
#
# Bulk Modulus (GPa) = 27.71105 70.29454 49.00280
# Shear Modulus (GPa) = 16.23160 21.49272 18.86216
#
# Velocity S-wave (km/s) = 3.02851 3.48493 3.26471
# Velocity P-wave (km/s) = 5.28088 7.47756 6.47308
#
# Compressibility (1/GPa) = 0.03608669
#
# Stress axis : x y z
#
# Youngs Moduli (GPa) = 17.76116 74.52799 61.71083
#
# Poissons Ratio (x) = 0.77443 0.42463
# Poissons Ratio (y) = 0.18456 0.47191
# Poissons Ratio (z) = 0.12221 0.56992
#
# Static dielectric constant tensor:
#      x y z
#    x 2.861210 0.000000 0.000000 
#    y 0.000000 3.476750 0.000000 
#    z 0.000000 0.000000 3.380910 
# 
# 
# High freq. dielectric constant tensor:
#      x y z
#    x 1.640350 0.000000 0.000000 
#    y 0.000000 1.699640 0.000000 
#    z 0.000000 0.000000 1.686090 
# 
# From -- ./inp_files/14879.got.cif
#   From: 2010.06.25/outbox.cif.g09.slc.cpg/sg71_8_cif.got.tgz:14879.got - 2010.06.28 04:59:45.
