data_PCOD8289939
_publ_section_title
;
Structure prediction by ZEFSAII (Michael W. Deem and Ramdas Pophale) SiO2 
 PCOD8289939
Probable space group: I M M M
;
_chemical_formula_sum "Si O2"
_cell_formula_units_Z 88
_cell_length_a 34.130454
_cell_length_b 9.269500
_cell_length_c 15.195602
_cell_angle_alpha 90.000000
_cell_angle_beta 90.000000
_cell_angle_gamma 90.000000
_cell_volume 4807.466694
_symmetry_space_group_name_H-M "I M M M"
_symmetry_group_IT_number 71
_symmetry_cell_setting 'orthorhombic'
loop_
_space_group_symop_operation_xyz
x,y,z
-x,-y,z
x,-y,-z
-x,y,-z
-x,-y,-z
x,y,-z
-x,y,z
x,-y,z
1/2+x,1/2+y,1/2+z
1/2-x,1/2-y,1/2+z
1/2+x,1/2-y,1/2-z
1/2-x,1/2+y,1/2-z
1/2-x,1/2-y,1/2-z
1/2+x,1/2+y,1/2-z
1/2-x,1/2+y,1/2+z
1/2+x,1/2-y,1/2+z
loop_
_atom_site_type_symbol
_atom_site_label
_atom_site_fract_x
_atom_site_fract_y
_atom_site_fract_z
Si Si1 0.671140 0.667836 0.899910
Si Si2 0.888393 0.169634 0.748609
Si Si3 0.045486 0.330975 0.826747
Si Si4 0.046170 0.838385 0.000000
Si Si5 0.669099 0.671585 0.401807
Si Si6 0.754933 0.340617 0.395799
O O1 0.680043 0.500000 0.893676
O O2 0.633491 0.708689 0.841790
O O3 0.709753 0.742809 0.859453
O O4 0.662129 0.716141 0.000000
O O5 0.928740 0.261081 0.748640
O O6 0.862444 0.224449 0.831046
O O7 0.897874 0.000000 0.755159
O O8 0.053808 0.500000 0.837360
O O9 0.000000 0.302132 0.805764
O O10 0.059652 0.249583 0.914817
O O11 0.000000 0.853578 0.000000
O O12 0.065241 0.000000 0.000000
O O13 0.657533 0.727703 0.500000
O O14 0.671825 0.500000 0.403170
O O15 0.712367 0.728041 0.372823
O O16 0.758264 0.350089 0.500000
O O17 0.759508 0.500000 0.354316
#
# Coordination Sequence:
#
# PCOD8289939 Si02
#       6
#    16  16  16   8  16  16
#     4   9  18  32  48  69  99 129 162 211 261 299
#     4  10  20  32  50  74  96 128 171 208 249 303
#     4  10  21  36  52  73 104 134 160 201 254 298
#     4   9  17  31  53  77  99 131 171 197 221 277
#     4   8  15  28  45  68  98 127 160 204 245 286
#     4   8  14  27  47  67  90 126 167 202 242 295
#
# _framework density 18.304859
#
# number of rings (size 3 to 8) (size 9 to 14) (size 15 to 20)
#    0.000    3.000    0.000    1.909    1.273    3.636 
#    0.000    0.909    0.000    1.636    0.000    3.818 
#    0.000    0.000    0.000    0.000    0.000    0.000 
#
# Total GULP energy -545394.697976 kJ/mol
# GULP energy per Si atom -12395.334045 kJ/mol
# Density = 1.826320 g / cm^3
# Si number density = 18.304859 Si / 1000 Ang^3
#
#
#
# Elastic Constant Matrix: (Units=GPa)
#
#
# Indices 1 2 3 4 5 6 
#
# 1 107.1166 50.3409 46.4344 0.0000 0.0000 0.0000
# 2 50.3409 66.6022 28.8693 0.0000 0.0000 0.0000
# 3 46.4344 28.8693 68.8231 0.0000 0.0000 0.0000
# 4 0.0000 0.0000 0.0000 16.3190 0.0000 0.0000
# 5 0.0000 0.0000 0.0000 0.0000 26.9279 0.0000
# 6 0.0000 0.0000 0.0000 0.0000 0.0000 28.7124
#
#
#
# Elastic Compliance Matrix: (Units=1/GPa)
#
#
# Indices 1 2 3 4 5 6 
#
# 1 0.017150 -0.009714 -0.007497 0.000000 0.000000 0.000000
# 2 -0.009714 0.023853 -0.003452 0.000000 0.000000 0.000000
# 3 -0.007497 -0.003452 0.021036 0.000000 0.000000 0.000000
# 4 0.000000 0.000000 0.000000 0.061278 0.000000 0.000000
# 5 0.000000 0.000000 0.000000 0.000000 0.037136 0.000000
# 6 0.000000 0.000000 0.000000 0.000000 0.000000 0.034828
#
#
# Mechanical properties :
#
#
# Convention : Reuss Voigt Hill
#
# Bulk Modulus (GPa) = 48.27464 54.87014 51.57239
# Shear Modulus (GPa) = 20.53298 22.18501 21.35899
#
# Velocity S-wave (km/s) = 3.35285 3.48512 3.41962
# Velocity P-wave (km/s) = 6.43573 6.79967 6.62020
#
# Compressibility (1/GPa) = 0.02071481
#
# Stress axis : x y z
#
# Youngs Moduli (GPa) = 58.30769 41.92401 47.53778
#
# Poissons Ratio (x) = 0.40723 0.35638
# Poissons Ratio (y) = 0.56637 0.16409
# Poissons Ratio (z) = 0.43711 0.14472
#
# Static dielectric constant tensor:
#      x y z
#    x 3.462830 0.000000 0.000000 
#    y 0.000000 3.279920 0.000000 
#    z 0.000000 0.000000 3.347000 
# 
# 
# High freq. dielectric constant tensor:
#      x y z
#    x 1.711260 0.000000 0.000000 
#    y 0.000000 1.688000 0.000000 
#    z 0.000000 0.000000 1.684060 
# 
# From -- ./inp_files/49215.got.cif
#   From: 2010.06.25/outbox.cif.g09.slc.cpg/sg71_25_cif.got.tgz:49215.got - 2010.06.28 04:59:45.
