data_PCOD8289791
_publ_section_title
;
Structure prediction by ZEFSAII (Michael W. Deem and Ramdas Pophale) SiO2 
 PCOD8289791
Probable space group: I M M M
;
_chemical_formula_sum "Si O2"
_cell_formula_units_Z 128
_cell_length_a 21.555937
_cell_length_b 18.032105
_cell_length_c 20.358046
_cell_angle_alpha 90.000000
_cell_angle_beta 90.000000
_cell_angle_gamma 90.000000
_cell_volume 7913.150480
_symmetry_space_group_name_H-M "I M M M"
_symmetry_group_IT_number 71
_symmetry_cell_setting 'orthorhombic'
loop_
_space_group_symop_operation_xyz
x,y,z
-x,-y,z
x,-y,-z
-x,y,-z
-x,-y,-z
x,y,-z
-x,y,z
x,-y,z
1/2+x,1/2+y,1/2+z
1/2-x,1/2-y,1/2+z
1/2+x,1/2-y,1/2-z
1/2-x,1/2+y,1/2-z
1/2-x,1/2-y,1/2-z
1/2+x,1/2+y,1/2-z
1/2-x,1/2+y,1/2+z
1/2+x,1/2-y,1/2+z
loop_
_atom_site_type_symbol
_atom_site_label
_atom_site_fract_x
_atom_site_fract_y
_atom_site_fract_z
Si Si1 0.651813 0.582841 0.183412
Si Si2 0.731279 0.164541 0.073495
Si Si3 0.069372 0.719556 0.658284
Si Si4 0.859120 0.087206 0.926895
Si Si5 0.105795 0.585073 0.425132
Si Si6 0.200793 0.234645 0.692633
Si Si7 0.067436 0.087669 0.804148
Si Si8 0.429371 0.637835 0.074076
O O1 0.679454 0.500000 0.194439
O O2 0.704409 0.645728 0.180412
O O3 0.610101 0.610977 0.243957
O O4 0.610797 0.581446 0.117617
O O5 0.794264 0.123522 0.090148
O O6 0.678590 0.102387 0.080130
O O7 0.723264 0.230617 0.124630
O O8 0.731731 0.198674 0.000000
O O9 0.069833 0.638168 0.625583
O O10 0.129350 0.734737 0.706611
O O11 0.077680 0.778266 0.599446
O O12 0.000000 0.728967 0.691453
O O13 0.907413 0.118321 0.873575
O O14 0.850179 0.000000 0.919703
O O15 0.882751 0.108077 0.000000
O O16 0.082322 0.597793 0.500000
O O17 0.094214 0.500000 0.403982
O O18 0.250000 0.250000 0.750000
O O19 0.000000 0.123460 0.792460
O O20 0.062354 0.000000 0.807470
O O21 0.500000 0.610450 0.077678
O O22 0.404104 0.635289 0.000000
#
# Coordination Sequence:
#
# PCOD8289791 Si02
#       8
#    16  16  16  16  16  16  16  16
#     4  10  20  32  46  64  87 113 144 185 227 261
#     4   9  17  30  46  63  86 115 148 187 228 266
#     4   9  18  31  45  63  90 120 150 187 230 269
#     4   9  16  26  43  66  89 114 146 183 219 257
#     4   9  16  25  40  63  90 121 155 188 220 257
#     4  10  20  34  51  68  86 114 153 188 218 265
#     4   9  17  28  41  59  86 117 144 173 214 261
#     4   9  17  29  45  64  88 121 157 188 219 259
#
# _framework density 16.175605999999998
#
# number of rings (size 3 to 8) (size 9 to 14) (size 15 to 20)
#    0.000    2.750    0.000    1.875    0.000    7.250 
#    0.000    5.000    0.000    0.000    0.000    0.000 
#    0.000    0.000    0.000    0.000    0.000    0.000 
#
# Total GULP energy -793021.022998 kJ/mol
# GULP energy per Si atom -12390.953484 kJ/mol
# Density = 1.613879 g / cm^3
# Si number density = 16.175606 Si / 1000 Ang^3
#
#
#
# Elastic Constant Matrix: (Units=GPa)
#
#
# Indices 1 2 3 4 5 6 
#
# 1 48.4423 12.9640 30.7148 0.0000 0.0000 0.0000
# 2 12.9640 68.6330 15.8882 0.0000 0.0000 0.0000
# 3 30.7148 15.8882 74.7922 0.0000 0.0000 0.0000
# 4 0.0000 0.0000 0.0000 18.3071 0.0000 0.0000
# 5 0.0000 0.0000 0.0000 0.0000 22.3445 0.0000
# 6 0.0000 0.0000 0.0000 0.0000 0.0000 14.4546
#
#
#
# Elastic Compliance Matrix: (Units=1/GPa)
#
#
# Indices 1 2 3 4 5 6 
#
# 1 0.028414 -0.002804 -0.011073 0.000000 0.000000 0.000000
# 2 -0.002804 0.015600 -0.002163 0.000000 0.000000 0.000000
# 3 -0.011073 -0.002163 0.018377 0.000000 0.000000 0.000000
# 4 0.000000 0.000000 0.000000 0.054624 0.000000 0.000000
# 5 0.000000 0.000000 0.000000 0.000000 0.044754 0.000000
# 6 0.000000 0.000000 0.000000 0.000000 0.000000 0.069182
#
#
# Mechanical properties :
#
#
# Convention : Reuss Voigt Hill
#
# Bulk Modulus (GPa) = 32.98932 34.55570 33.77251
# Shear Modulus (GPa) = 18.30596 19.84130 19.07363
#
# Velocity S-wave (km/s) = 3.36773 3.50611 3.43762
# Velocity P-wave (km/s) = 5.96329 6.14814 6.05642
#
# Compressibility (1/GPa) = 0.03031284
#
# Stress axis : x y z
#
# Youngs Moduli (GPa) = 35.19333 64.10064 54.41509
#
# Poissons Ratio (x) = 0.17972 0.60256
# Poissons Ratio (y) = 0.09867 0.11768
# Poissons Ratio (z) = 0.38971 0.13862
#
# Static dielectric constant tensor:
#      x y z
#    x 3.285820 0.000000 0.000000 
#    y 0.000000 2.942190 0.000000 
#    z 0.000000 0.000000 3.142910 
# 
# 
# High freq. dielectric constant tensor:
#      x y z
#    x 1.611390 0.000000 0.000000 
#    y 0.000000 1.607170 0.000000 
#    z 0.000000 0.000000 1.609580 
# 
# From -- ./inp_files/48413.got.cif
#   From: 2010.06.25/outbox.cif.g09.slc.cpg/sg71_25_cif.got.tgz:48413.got - 2010.06.28 04:59:45.
