data_PCOD8289070
_publ_section_title
;
Structure prediction by ZEFSAII (Michael W. Deem and Ramdas Pophale) SiO2 
 PCOD8289070
Probable space group: I M M M
;
_chemical_formula_sum "Si O2"
_cell_formula_units_Z 96
_cell_length_a 20.045176
_cell_length_b 28.440637
_cell_length_c 8.904503
_cell_angle_alpha 90.000000
_cell_angle_beta 90.000000
_cell_angle_gamma 90.000000
_cell_volume 5076.435560
_symmetry_space_group_name_H-M "I M M M"
_symmetry_group_IT_number 71
_symmetry_cell_setting 'orthorhombic'
loop_
_space_group_symop_operation_xyz
x,y,z
-x,-y,z
x,-y,-z
-x,y,-z
-x,-y,-z
x,y,-z
-x,y,z
x,-y,z
1/2+x,1/2+y,1/2+z
1/2-x,1/2-y,1/2+z
1/2+x,1/2-y,1/2-z
1/2-x,1/2+y,1/2-z
1/2-x,1/2-y,1/2-z
1/2+x,1/2+y,1/2-z
1/2-x,1/2+y,1/2+z
1/2+x,1/2-y,1/2+z
loop_
_atom_site_type_symbol
_atom_site_label
_atom_site_fract_x
_atom_site_fract_y
_atom_site_fract_z
Si Si1 0.809767 0.403287 0.173477
Si Si2 0.423629 0.622797 0.824535
Si Si3 0.072743 0.554914 0.664960
Si Si4 0.669452 0.707871 0.827770
Si Si5 0.679113 0.445743 0.677929
Si Si6 0.805061 0.310650 0.671215
O O1 0.873090 0.435382 0.207652
O O2 0.745100 0.420387 0.262456
O O3 0.833263 0.351288 0.222329
O O4 0.791346 0.405052 0.000000
O O5 0.500000 0.623561 0.769379
O O6 0.392839 0.674323 0.789190
O O7 0.385699 0.581330 0.738013
O O8 0.418568 0.611519 0.000000
O O9 0.094345 0.574869 0.500000
O O10 0.065655 0.500000 0.651380
O O11 0.000000 0.576074 0.709568
O O12 0.727981 0.696657 0.712656
O O13 0.651341 0.763043 0.806012
O O14 0.693470 0.699317 0.000000
O O15 0.679786 0.443029 0.500000
O O16 0.677063 0.500000 0.732522
O O17 0.808481 0.327576 0.500000
#
# Coordination Sequence:
#
# PCOD8289070 Si02
#       6
#    16  16  16  16  16  16
#     4  12  23  35  55  85 118 151 188 233 286 338
#     4  10  21  38  60  85 115 150 189 236 291 349
#     4   9  19  37  59  81 108 145 187 229 278 339
#     4   9  18  34  55  82 111 143 183 227 277 333
#     4  11  24  40  58  82 112 148 195 246 292 342
#     4  10  19  32  55  83 112 145 184 227 275 329
#
# _framework density 18.910907000000002
#
# number of rings (size 3 to 8) (size 9 to 14) (size 15 to 20)
#    0.000    1.833    1.667    3.500    0.000    5.333 
#    0.000    3.333    0.000    3.000    0.000    0.000 
#    0.000    0.000    0.000    0.000    0.000    0.000 
#
# Total GULP energy -595057.199877 kJ/mol
# GULP energy per Si atom -12397.024997 kJ/mol
# Density = 1.886787 g / cm^3
# Si number density = 18.910907 Si / 1000 Ang^3
#
#
#
# Elastic Constant Matrix: (Units=GPa)
#
#
# Indices 1 2 3 4 5 6 
#
# 1 102.8699 46.9278 33.3496 0.0000 0.0000 0.0000
# 2 46.9278 112.4772 41.2478 0.0000 0.0000 0.0000
# 3 33.3496 41.2478 67.6363 0.0000 0.0000 0.0000
# 4 0.0000 0.0000 0.0000 30.3771 0.0000 0.0000
# 5 0.0000 0.0000 0.0000 0.0000 24.6605 0.0000
# 6 0.0000 0.0000 0.0000 0.0000 0.0000 28.4089
#
#
#
# Elastic Compliance Matrix: (Units=1/GPa)
#
#
# Indices 1 2 3 4 5 6 
#
# 1 0.012767 -0.003887 -0.003924 0.000000 0.000000 0.000000
# 2 -0.003887 0.012636 -0.005789 0.000000 0.000000 0.000000
# 3 -0.003924 -0.005789 0.020250 0.000000 0.000000 0.000000
# 4 0.000000 0.000000 0.000000 0.032920 0.000000 0.000000
# 5 0.000000 0.000000 0.000000 0.000000 0.040551 0.000000
# 6 0.000000 0.000000 0.000000 0.000000 0.000000 0.035200
#
#
# Mechanical properties :
#
#
# Convention : Reuss Voigt Hill
#
# Bulk Modulus (GPa) = 54.19664 58.44819 56.32241
# Shear Modulus (GPa) = 26.64191 27.45318 27.04754
#
# Velocity S-wave (km/s) = 3.75749 3.81427 3.78598
# Velocity P-wave (km/s) = 6.89537 7.09735 6.99709
#
# Compressibility (1/GPa) = 0.01845133
#
# Stress axis : x y z
#
# Youngs Moduli (GPa) = 78.32958 79.14191 49.38218
#
# Poissons Ratio (x) = 0.30766 0.19378
# Poissons Ratio (y) = 0.30450 0.28587
# Poissons Ratio (z) = 0.30737 0.45815
#
# Static dielectric constant tensor:
#      x y z
#    x 3.387270 0.000000 0.000000 
#    y 0.000000 3.778670 0.000000 
#    z 0.000000 0.000000 3.528920 
# 
# 
# High freq. dielectric constant tensor:
#      x y z
#    x 1.715990 0.000000 0.000000 
#    y 0.000000 1.743720 0.000000 
#    z 0.000000 0.000000 1.734750 
# 
# From -- ./inp_files/10880.got.cif
#   From: 2010.06.25/outbox.cif.g09.slc.cpg/sg71_6_cif.got.tgz:10880.got - 2010.06.28 04:59:45.
