data_PCOD8289725
_publ_section_title
;
Structure prediction by ZEFSAII (Michael W. Deem and Ramdas Pophale) SiO2 
 PCOD8289725
Probable space group: I M M M
;
_chemical_formula_sum "Si O2"
_cell_formula_units_Z 96
_cell_length_a 23.447195
_cell_length_b 14.120675
_cell_length_c 17.616568
_cell_angle_alpha 90.000000
_cell_angle_beta 90.000000
_cell_angle_gamma 90.000000
_cell_volume 5832.673379
_symmetry_space_group_name_H-M "I M M M"
_symmetry_group_IT_number 71
_symmetry_cell_setting 'orthorhombic'
loop_
_space_group_symop_operation_xyz
x,y,z
-x,-y,z
x,-y,-z
-x,y,-z
-x,-y,-z
x,y,-z
-x,y,z
x,-y,z
1/2+x,1/2+y,1/2+z
1/2-x,1/2-y,1/2+z
1/2+x,1/2-y,1/2-z
1/2-x,1/2+y,1/2-z
1/2-x,1/2-y,1/2-z
1/2+x,1/2+y,1/2-z
1/2-x,1/2+y,1/2+z
1/2+x,1/2-y,1/2+z
loop_
_atom_site_type_symbol
_atom_site_label
_atom_site_fract_x
_atom_site_fract_y
_atom_site_fract_z
Si Si1 0.226952 0.274170 0.412050
Si Si2 0.331122 0.389803 0.350060
Si Si3 0.161611 0.609192 0.697047
Si Si4 0.768545 0.892136 0.299439
Si Si5 0.434989 0.892861 0.307960
Si Si6 0.934273 0.780032 0.088234
O O1 0.216863 0.257523 0.500000
O O2 0.285914 0.330086 0.398955
O O3 0.172882 0.332356 0.379480
O O4 0.226499 0.171617 0.373356
O O5 0.323877 0.500000 0.371740
O O6 0.320245 0.374901 0.260099
O O7 0.395027 0.356692 0.369505
O O8 0.164710 0.500000 0.674403
O O9 0.210380 0.636143 0.757223
O O10 0.101489 0.637087 0.734447
O O11 0.767280 0.000000 0.327653
O O12 0.500000 0.885456 0.281463
O O13 0.422254 0.824549 0.378681
O O14 0.419161 0.000000 0.333757
O O15 0.000000 0.810077 0.101156
O O16 0.918630 0.776470 0.000000
#
# Coordination Sequence:
#
# PCOD8289725 Si02
#       6
#    16  16  16  16  16  16
#     4  11  20  29  47  71  93 117 145 184 230 271
#     4  10  20  34  50  65  87 122 159 188 216 260
#     4   9  17  30  47  66  90 119 151 185 219 259
#     4   9  18  32  49  67  89 119 150 183 223 265
#     4   9  17  30  49  69  89 119 156 188 219 261
#     4  10  20  31  44  66  96 125 151 185 226 262
#
# _framework density 16.459005000000001
#
# number of rings (size 3 to 8) (size 9 to 14) (size 15 to 20)
#    0.000    2.333    0.000    6.000    0.000    3.333 
#    0.000    2.500    0.000    5.500    0.000    2.333 
#    0.000    0.000    0.000   14.333    0.000    0.000 
#
# Total GULP energy -595209.263264 kJ/mol
# GULP energy per Si atom -12400.192985 kJ/mol
# Density = 1.642154 g / cm^3
# Si number density = 16.459005 Si / 1000 Ang^3
#
#
#
# Elastic Constant Matrix: (Units=GPa)
#
#
# Indices 1 2 3 4 5 6 
#
# 1 83.9229 44.3702 48.0927 0.0000 0.0000 0.0000
# 2 44.3702 86.8413 66.7610 0.0000 0.0000 0.0000
# 3 48.0927 66.7610 123.1100 0.0000 0.0000 0.0000
# 4 0.0000 0.0000 0.0000 15.1800 0.0000 0.0000
# 5 0.0000 0.0000 0.0000 0.0000 17.9691 0.0000
# 6 0.0000 0.0000 0.0000 0.0000 0.0000 25.5993
#
#
#
# Elastic Compliance Matrix: (Units=1/GPa)
#
#
# Indices 1 2 3 4 5 6 
#
# 1 0.017085 -0.006171 -0.003328 0.000000 0.000000 0.000000
# 2 -0.006171 0.021977 -0.009507 0.000000 0.000000 0.000000
# 3 -0.003328 -0.009507 0.014578 0.000000 0.000000 0.000000
# 4 0.000000 0.000000 0.000000 0.065876 0.000000 0.000000
# 5 0.000000 0.000000 0.000000 0.000000 0.055651 0.000000
# 6 0.000000 0.000000 0.000000 0.000000 0.000000 0.039064
#
#
# Mechanical properties :
#
#
# Convention : Reuss Voigt Hill
#
# Bulk Modulus (GPa) = 63.98504 68.03580 66.01042
# Shear Modulus (GPa) = 19.42094 20.72636 20.07365
#
# Velocity S-wave (km/s) = 3.43878 3.55247 3.49609
# Velocity P-wave (km/s) = 7.39775 7.63236 7.51597
#
# Compressibility (1/GPa) = 0.01562865
#
# Stress axis : x y z
#
# Youngs Moduli (GPa) = 58.52919 45.50175 68.59437
#
# Poissons Ratio (x) = 0.28080 0.22827
# Poissons Ratio (y) = 0.36120 0.65214
# Poissons Ratio (z) = 0.19478 0.43259
#
# Static dielectric constant tensor:
#      x y z
#    x 3.208970 0.000000 0.000000 
#    y 0.000000 3.196580 0.000000 
#    z 0.000000 0.000000 2.922890 
# 
# 
# High freq. dielectric constant tensor:
#      x y z
#    x 1.623100 0.000000 0.000000 
#    y 0.000000 1.645720 0.000000 
#    z 0.000000 0.000000 1.610910 
# 
# From -- ./inp_files/37821.got.cif
#   From: 2010.06.25/outbox.cif.g09.slc.cpg/sg71_19_cif.got.tgz:37821.got - 2010.06.28 04:59:45.
