data_PCOD8289693
_publ_section_title
;
Structure prediction by ZEFSAII (Michael W. Deem and Ramdas Pophale) SiO2 
 PCOD8289693
Probable space group: I M M M
;
_chemical_formula_sum "Si O2"
_cell_formula_units_Z 104
_cell_length_a 24.456865
_cell_length_b 8.995578
_cell_length_c 33.169550
_cell_angle_alpha 90.000000
_cell_angle_beta 90.000000
_cell_angle_gamma 90.000000
_cell_volume 7297.421629
_symmetry_space_group_name_H-M "I M M M"
_symmetry_group_IT_number 71
_symmetry_cell_setting 'orthorhombic'
loop_
_space_group_symop_operation_xyz
x,y,z
-x,-y,z
x,-y,-z
-x,y,-z
-x,-y,-z
x,y,-z
-x,y,z
x,-y,z
1/2+x,1/2+y,1/2+z
1/2-x,1/2-y,1/2+z
1/2+x,1/2-y,1/2-z
1/2-x,1/2+y,1/2-z
1/2-x,1/2-y,1/2-z
1/2+x,1/2+y,1/2-z
1/2-x,1/2+y,1/2+z
1/2+x,1/2-y,1/2+z
loop_
_atom_site_type_symbol
_atom_site_label
_atom_site_fract_x
_atom_site_fract_y
_atom_site_fract_z
Si Si1 0.674910 0.171431 0.771664
Si Si2 0.000000 0.667051 0.952312
Si Si3 0.059876 0.669552 0.246319
Si Si4 0.844623 0.675293 0.117960
Si Si5 0.938317 0.169891 0.836422
Si Si6 0.111192 0.824993 0.953752
Si Si7 0.768955 0.325349 0.189269
O O1 0.609889 0.203324 0.777054
O O2 0.708238 0.258353 0.806065
O O3 0.693154 0.225254 0.726891
O O4 0.689207 0.000000 0.777454
O O5 0.946002 0.755354 0.938671
O O6 0.000000 0.500000 0.933947
O O7 0.000000 0.657900 0.000000
O O8 0.066895 0.500000 0.230081
O O9 0.064313 0.783890 0.210027
O O10 0.000000 0.687543 0.267508
O O11 0.842417 0.500000 0.111208
O O12 0.901952 0.719500 0.137699
O O13 0.840758 0.756817 0.074436
O O14 0.795904 0.730574 0.147454
O O15 0.000000 0.185712 0.852721
O O16 0.917657 0.000000 0.840353
O O17 0.107239 0.000000 0.947377
O O18 0.124627 0.784157 0.000000
O O19 0.763396 0.500000 0.188140
#
# Coordination Sequence:
#
# PCOD8289693 Si02
#       7
#    16   8  16  16  16  16  16
#     4   9  16  28  43  60  81 106 135 165 203 242
#     4   9  17  31  49  65  79 101 133 163 201 253
#     4   9  16  28  44  60  81 107 136 169 204 245
#     4  11  21  33  47  61  79 102 136 171 205 251
#     4  10  20  30  40  57  80 104 132 168 211 251
#     4  10  21  35  48  62  81 102 127 165 210 252
#     4   9  18  30  42  60  80 104 136 169 203 239
#
# _framework density 14.251609999999999
#
# number of rings (size 3 to 8) (size 9 to 14) (size 15 to 20)
#    0.000    2.385    1.538    1.615    1.077    4.615 
#    0.000    0.000    0.000    0.000    0.000    0.000 
#    0.000    0.000    0.000    0.000    0.000    0.769 
#
# Total GULP energy -644552.115589 kJ/mol
# GULP energy per Si atom -12395.232992 kJ/mol
# Density = 1.421917 g / cm^3
# Si number density = 14.251610 Si / 1000 Ang^3
#
#
#
# Elastic Constant Matrix: (Units=GPa)
#
#
# Indices 1 2 3 4 5 6 
#
# 1 88.6531 25.9717 46.5821 0.0000 0.0000 0.0000
# 2 25.9717 42.0653 29.3669 0.0000 0.0000 0.0000
# 3 46.5821 29.3669 72.8029 0.0000 0.0000 0.0000
# 4 0.0000 0.0000 0.0000 19.8933 0.0000 0.0000
# 5 0.0000 0.0000 0.0000 0.0000 23.3617 0.0000
# 6 0.0000 0.0000 0.0000 0.0000 0.0000 20.3410
#
#
#
# Elastic Compliance Matrix: (Units=1/GPa)
#
#
# Indices 1 2 3 4 5 6 
#
# 1 0.017500 -0.004159 -0.009520 0.000000 0.000000 0.000000
# 2 -0.004159 0.034080 -0.011086 0.000000 0.000000 0.000000
# 3 -0.009520 -0.011086 0.024299 0.000000 0.000000 0.000000
# 4 0.000000 0.000000 0.000000 0.050268 0.000000 0.000000
# 5 0.000000 0.000000 0.000000 0.000000 0.042805 0.000000
# 6 0.000000 0.000000 0.000000 0.000000 0.000000 0.049162
#
#
# Mechanical properties :
#
#
# Convention : Reuss Voigt Hill
#
# Bulk Modulus (GPa) = 37.95141 45.26252 41.60696
# Shear Modulus (GPa) = 18.08800 19.49258 18.79029
#
# Velocity S-wave (km/s) = 3.56643 3.70232 3.63501
# Velocity P-wave (km/s) = 6.60656 7.07847 6.84658
#
# Compressibility (1/GPa) = 0.02634949
#
# Stress axis : x y z
#
# Youngs Moduli (GPa) = 57.14137 29.34293 41.15458
#
# Poissons Ratio (x) = 0.12204 0.39178
# Poissons Ratio (y) = 0.23765 0.45623
# Poissons Ratio (z) = 0.54398 0.32529
#
# Static dielectric constant tensor:
#      x y z
#    x 2.828010 0.000000 0.000000 
#    y 0.000000 2.854270 0.000000 
#    z 0.000000 0.000000 2.682260 
# 
# 
# High freq. dielectric constant tensor:
#      x y z
#    x 1.520800 0.000000 0.000000 
#    y 0.000000 1.555820 0.000000 
#    z 0.000000 0.000000 1.505810 
# 
# From -- ./inp_files/15805.got.cif
#   From: 2010.06.25/outbox.cif.g09.slc.cpg/sg71_8_cif.got.tgz:15805.got - 2010.06.28 04:59:45.
