data_PCOD8289827
_publ_section_title
;
Structure prediction by ZEFSAII (Michael W. Deem and Ramdas Pophale) SiO2 
 PCOD8289827
Probable space group: I M M M
;
_chemical_formula_sum "Si O2"
_cell_formula_units_Z 104
_cell_length_a 31.573738
_cell_length_b 9.790620
_cell_length_c 19.049791
_cell_angle_alpha 90.000000
_cell_angle_beta 90.000000
_cell_angle_gamma 90.000000
_cell_volume 5888.794660
_symmetry_space_group_name_H-M "I M M M"
_symmetry_group_IT_number 71
_symmetry_cell_setting 'orthorhombic'
loop_
_space_group_symop_operation_xyz
x,y,z
-x,-y,z
x,-y,-z
-x,y,-z
-x,-y,-z
x,y,-z
-x,y,z
x,-y,z
1/2+x,1/2+y,1/2+z
1/2-x,1/2-y,1/2+z
1/2+x,1/2-y,1/2-z
1/2-x,1/2+y,1/2-z
1/2-x,1/2-y,1/2-z
1/2+x,1/2+y,1/2-z
1/2-x,1/2+y,1/2+z
1/2+x,1/2-y,1/2+z
loop_
_atom_site_type_symbol
_atom_site_label
_atom_site_fract_x
_atom_site_fract_y
_atom_site_fract_z
Si Si1 0.745354 0.340574 0.580417
Si Si2 0.000000 0.663131 0.920328
Si Si3 0.581608 0.839028 0.338917
Si Si4 0.592469 0.161124 0.817281
Si Si5 0.186369 0.661158 0.692990
Si Si6 0.950186 0.851469 0.422641
Si Si7 0.677688 0.837899 0.351922
O O1 0.761148 0.320608 0.500000
O O2 0.735193 0.500000 0.594642
O O3 0.780019 0.283012 0.636083
O O4 0.703555 0.249663 0.591480
O O5 0.042834 0.723456 0.884304
O O6 0.000000 0.500000 0.915435
O O7 0.000000 0.714356 0.000000
O O8 0.574861 0.794719 0.258608
O O9 0.628638 0.793177 0.363098
O O10 0.579991 0.000000 0.345587
O O11 0.640144 0.216415 0.827977
O O12 0.563206 0.228357 0.874285
O O13 0.590224 0.000000 0.826909
O O14 0.185554 0.500000 0.688708
O O15 0.195026 0.703200 0.774030
O O16 0.930882 0.827367 0.500000
O O17 0.000000 0.850214 0.427434
O O18 0.934821 0.000000 0.394105
O O19 0.683420 0.000000 0.364776
#
# Coordination Sequence:
#
# PCOD8289827 Si02
#       7
#    16   8  16  16  16  16  16
#     4  10  20  32  47  69  97 129 161 193 238 295
#     4   9  16  26  42  66  98 133 158 178 227 301
#     4   8  16  29  45  71 101 124 152 197 247 284
#     4   9  17  30  51  75  95 119 158 207 247 279
#     4   8  16  32  50  70  97 126 156 195 246 294
#     4   9  19  34  47  63  95 134 164 194 238 290
#     4   9  17  32  52  71  94 124 161 203 240 278
#
# _framework density 17.660661000000001
#
# number of rings (size 3 to 8) (size 9 to 14) (size 15 to 20)
#    0.000    3.154    0.000    2.769    1.077    2.154 
#    0.000    7.692    0.000    0.000    0.000    0.000 
#    0.000    2.462    0.000    0.000    0.000    0.000 
#
# Total GULP energy -644344.229101 kJ/mol
# GULP energy per Si atom -12391.235175 kJ/mol
# Density = 1.762046 g / cm^3
# Si number density = 17.660661 Si / 1000 Ang^3
#
#
#
# Elastic Constant Matrix: (Units=GPa)
#
#
# Indices 1 2 3 4 5 6 
#
# 1 101.6538 28.5807 68.0251 0.0000 0.0000 0.0000
# 2 28.5807 35.8629 33.7690 0.0000 0.0000 0.0000
# 3 68.0251 33.7690 104.1124 0.0000 0.0000 0.0000
# 4 0.0000 0.0000 0.0000 19.6199 0.0000 0.0000
# 5 0.0000 0.0000 0.0000 0.0000 25.0968 0.0000
# 6 0.0000 0.0000 0.0000 0.0000 0.0000 21.2591
#
#
#
# Elastic Compliance Matrix: (Units=1/GPa)
#
#
# Indices 1 2 3 4 5 6 
#
# 1 0.018017 -0.004713 -0.010243 0.000000 0.000000 0.000000
# 2 -0.004713 0.041378 -0.010341 0.000000 0.000000 0.000000
# 3 -0.010243 -0.010341 0.019652 0.000000 0.000000 0.000000
# 4 0.000000 0.000000 0.000000 0.050969 0.000000 0.000000
# 5 0.000000 0.000000 0.000000 0.000000 0.039846 0.000000
# 6 0.000000 0.000000 0.000000 0.000000 0.000000 0.047039
#
#
# Mechanical properties :
#
#
# Convention : Reuss Voigt Hill
#
# Bulk Modulus (GPa) = 35.14817 55.81984 45.48400
# Shear Modulus (GPa) = 18.05186 20.61210 19.33198
#
# Velocity S-wave (km/s) = 3.20058 3.42002 3.31212
# Velocity P-wave (km/s) = 5.79685 6.87538 6.35902
#
# Compressibility (1/GPa) = 0.02845099
#
# Stress axis : x y z
#
# Youngs Moduli (GPa) = 55.50270 24.16752 50.88556
#
# Poissons Ratio (x) = 0.11391 0.52123
# Poissons Ratio (y) = 0.26161 0.52622
# Poissons Ratio (z) = 0.56853 0.24992
#
# Static dielectric constant tensor:
#      x y z
#    x 3.566150 0.000000 0.000000 
#    y 0.000000 2.885340 0.000000 
#    z 0.000000 0.000000 3.443060 
# 
# 
# High freq. dielectric constant tensor:
#      x y z
#    x 1.684760 0.000000 0.000000 
#    y 0.000000 1.638820 0.000000 
#    z 0.000000 0.000000 1.685120 
# 
# From -- ./inp_files/56709.got.cif
#   From: 2010.06.25/outbox.cif.g09.slc.cpg/sg71_29_cif.got.tgz:56709.got - 2010.06.28 04:59:45.
