data_PCOD8289579
_publ_section_title
;
Structure prediction by ZEFSAII (Michael W. Deem and Ramdas Pophale) SiO2 
 PCOD8289579
Probable space group: I M M M
;
_chemical_formula_sum "Si O2"
_cell_formula_units_Z 104
_cell_length_a 11.631424
_cell_length_b 26.862629
_cell_length_c 17.784428
_cell_angle_alpha 90.000000
_cell_angle_beta 90.000000
_cell_angle_gamma 90.000000
_cell_volume 5556.755691
_symmetry_space_group_name_H-M "I M M M"
_symmetry_group_IT_number 71
_symmetry_cell_setting 'orthorhombic'
loop_
_space_group_symop_operation_xyz
x,y,z
-x,-y,z
x,-y,-z
-x,y,-z
-x,-y,-z
x,y,-z
-x,y,z
x,-y,z
1/2+x,1/2+y,1/2+z
1/2-x,1/2-y,1/2+z
1/2+x,1/2-y,1/2-z
1/2-x,1/2+y,1/2-z
1/2-x,1/2-y,1/2-z
1/2+x,1/2+y,1/2-z
1/2-x,1/2+y,1/2+z
1/2+x,1/2-y,1/2+z
loop_
_atom_site_type_symbol
_atom_site_label
_atom_site_fract_x
_atom_site_fract_y
_atom_site_fract_z
Si Si1 0.248487 0.055489 0.239128
Si Si2 0.781424 0.795497 0.412509
Si Si3 0.500000 0.555301 0.792784
Si Si4 0.500000 0.555390 0.414774
Si Si5 0.365576 0.188345 0.866367
Si Si6 0.500000 0.361381 0.913738
Si Si7 0.631841 0.851354 0.701798
Si Si8 0.253552 0.592109 0.583529
O O1 0.305291 0.095198 0.295126
O O2 0.299563 0.061182 0.153861
O O3 0.110528 0.064681 0.239796
O O4 0.278821 0.000000 0.267716
O O5 0.749489 0.796622 0.500000
O O6 0.808186 0.740097 0.386686
O O7 0.674985 0.817648 0.366654
O O8 0.890625 0.828729 0.393074
O O9 0.500000 0.500000 0.826452
O O10 0.500000 0.589285 0.865488
O O11 0.500000 0.500000 0.372041
O O12 0.500000 0.539175 0.500000
O O13 0.610428 0.590183 0.399711
O O14 0.500000 0.187138 0.889252
O O15 0.348095 0.179102 0.778195
O O16 0.295898 0.147707 0.914290
O O17 0.500000 0.377948 0.000000
O O18 0.500000 0.863054 0.687190
O O19 0.224953 0.569757 0.500000
#
# Coordination Sequence:
#
# PCOD8289579 Si02
#       8
#    16  16   8   8  16   8  16  16
#     4  10  20  34  55  81 108 145 189 233 284 335
#     4  11  21  37  61  85 112 147 185 228 280 340
#     4  10  19  35  58  83 112 142 185 243 291 336
#     4   9  17  31  50  72 105 149 189 228 275 322
#     4  10  21  38  59  83 114 151 190 230 279 333
#     4  10  20  34  59  90 112 140 183 228 288 347
#     4  10  22  39  57  81 112 149 188 228 273 330
#     4  10  20  33  52  81 115 150 191 235 277 328
#
# _framework density 18.715957
#
# number of rings (size 3 to 8) (size 9 to 14) (size 15 to 20)
#    0.000    1.923    2.308    1.846    0.000    3.231 
#    1.385    0.000    0.000    1.846    0.000    9.692 
#    0.000    0.000    0.000    0.000    0.000    0.000 
#
# Total GULP energy -644541.041767 kJ/mol
# GULP energy per Si atom -12395.020034 kJ/mol
# Density = 1.867336 g / cm^3
# Si number density = 18.715957 Si / 1000 Ang^3
#
#
#
# Elastic Constant Matrix: (Units=GPa)
#
#
# Indices 1 2 3 4 5 6 
#
# 1 99.5096 60.6711 36.0175 0.0000 0.0000 0.0000
# 2 60.6711 129.1184 45.4335 -0.0001 0.0000 0.0000
# 3 36.0175 45.4335 70.1088 -0.0004 0.0001 0.0000
# 4 0.0000 -0.0001 -0.0004 20.3735 0.0000 0.0000
# 5 0.0000 0.0000 0.0001 0.0000 22.9421 0.0000
# 6 0.0000 0.0000 0.0000 0.0000 0.0000 30.7106
#
#
#
# Elastic Compliance Matrix: (Units=1/GPa)
#
#
# Indices 1 2 3 4 5 6 
#
# 1 0.014920 -0.005588 -0.004044 0.000000 0.000000 0.000000
# 2 -0.005588 0.012125 -0.004987 0.000000 0.000000 0.000000
# 3 -0.004044 -0.004987 0.019573 0.000000 0.000000 0.000000
# 4 0.000000 0.000000 0.000000 0.049083 0.000000 0.000000
# 5 0.000000 0.000000 0.000000 0.000000 0.043588 0.000000
# 6 0.000000 0.000000 0.000000 0.000000 0.000000 0.032562
#
#
# Mechanical properties :
#
#
# Convention : Reuss Voigt Hill
#
# Bulk Modulus (GPa) = 57.53493 64.77566 61.15530
# Shear Modulus (GPa) = 24.16838 25.24621 24.70730
#
# Velocity S-wave (km/s) = 3.59740 3.67674 3.63729
# Velocity P-wave (km/s) = 6.93274 7.26013 7.09833
#
# Compressibility (1/GPa) = 0.01738075
#
# Stress axis : x y z
#
# Youngs Moduli (GPa) = 67.02520 82.47250 51.09125
#
# Poissons Ratio (x) = 0.46083 0.20660
# Poissons Ratio (y) = 0.37452 0.25480
# Poissons Ratio (z) = 0.27103 0.41130
#
# Static dielectric constant tensor:
#      x y z
#    x 3.419490 0.000000 0.000000 
#    y 0.000000 3.415110 0.000000 
#    z 0.000000 0.000000 3.452070 
# 
# 
# High freq. dielectric constant tensor:
#      x y z
#    x 1.717850 0.000000 0.000000 
#    y 0.000000 1.726730 0.000000 
#    z 0.000000 0.000000 1.727970 
# 
# From -- ./inp_files/43828.got.cif
#   From: 2010.06.25/outbox.cif.g09.slc.cpg/sg71_22_cif.got.tgz:43828.got - 2010.06.28 04:59:45.
