data_PCOD8289882
_publ_section_title
;
Structure prediction by ZEFSAII (Michael W. Deem and Ramdas Pophale) SiO2 
 PCOD8289882
Probable space group: I M M M
;
_chemical_formula_sum "Si O2"
_cell_formula_units_Z 104
_cell_length_a 26.346013
_cell_length_b 9.789717
_cell_length_c 23.253515
_cell_angle_alpha 90.000000
_cell_angle_beta 90.000000
_cell_angle_gamma 90.000000
_cell_volume 5997.546853
_symmetry_space_group_name_H-M "I M M M"
_symmetry_group_IT_number 71
_symmetry_cell_setting 'orthorhombic'
loop_
_space_group_symop_operation_xyz
x,y,z
-x,-y,z
x,-y,-z
-x,y,-z
-x,-y,-z
x,y,-z
-x,y,z
x,-y,z
1/2+x,1/2+y,1/2+z
1/2-x,1/2-y,1/2+z
1/2+x,1/2-y,1/2-z
1/2-x,1/2+y,1/2-z
1/2-x,1/2-y,1/2-z
1/2+x,1/2+y,1/2-z
1/2-x,1/2+y,1/2+z
1/2+x,1/2-y,1/2+z
loop_
_atom_site_type_symbol
_atom_site_label
_atom_site_fract_x
_atom_site_fract_y
_atom_site_fract_z
Si Si1 0.824433 0.842770 0.140075
Si Si2 0.058176 0.157697 0.648339
Si Si3 0.708228 0.842800 0.153186
Si Si4 0.645993 0.656550 0.233195
Si Si5 0.000000 0.338317 0.937314
Si Si6 0.891469 0.653403 0.068499
Si Si7 0.620856 0.157754 0.066393
O O1 0.765852 0.799612 0.142655
O O2 0.854298 0.811761 0.199179
O O3 0.848498 0.754222 0.089936
O O4 0.829629 0.000000 0.122560
O O5 0.090648 0.187644 0.706072
O O6 0.077777 0.250092 0.595873
O O7 0.000000 0.195366 0.662011
O O8 0.063692 0.000000 0.629608
O O9 0.688262 0.751404 0.205039
O O10 0.675472 0.815592 0.095664
O O11 0.704365 0.000000 0.172608
O O12 0.662018 0.500000 0.222086
O O13 0.946907 0.298297 0.906083
O O14 0.000000 0.500000 0.945560
O O15 0.000000 0.267819 0.000000
O O16 0.878840 0.500000 0.089581
O O17 0.893439 0.658231 0.000000
O O18 0.604569 0.000000 0.073174
O O19 0.625582 0.200122 0.000000
#
# Coordination Sequence:
#
# PCOD8289882 Si02
#       7
#    16  16  16  16   8  16  16
#     4  10  20  32  48  75 103 127 159 199 244 294
#     4   9  18  33  51  69  94 129 162 196 242 290
#     4   9  18  32  50  70  96 130 164 198 240 287
#     4   9  18  33  50  70  96 126 164 202 240 287
#     4   7  12  28  51  67  85 119 157 191 228 271
#     4   9  18  33  52  72  95 126 163 200 239 285
#     4   9  18  32  49  70  96 127 162 198 240 288
#
# _framework density 17.340423000000001
#
# number of rings (size 3 to 8) (size 9 to 14) (size 15 to 20)
#    0.000    3.000    0.000    1.385    0.000    3.077 
#    1.385    3.462    0.000    1.385    0.000    0.000 
#    0.000    0.000    0.000    0.000    0.000    0.000 
#
# Total GULP energy -644587.864043 kJ/mol
# GULP energy per Si atom -12395.920462 kJ/mol
# Density = 1.730096 g / cm^3
# Si number density = 17.340423 Si / 1000 Ang^3
#
#
#
# Elastic Constant Matrix: (Units=GPa)
#
#
# Indices 1 2 3 4 5 6 
#
# 1 128.0151 54.7227 41.9944 0.0000 0.0000 0.0000
# 2 54.7227 58.3694 30.6676 0.0000 0.0000 0.0000
# 3 41.9944 30.6676 54.5629 0.0000 0.0000 0.0000
# 4 0.0000 0.0000 0.0000 26.7458 0.0000 0.0000
# 5 0.0000 0.0000 0.0000 0.0000 17.1900 0.0000
# 6 0.0000 0.0000 0.0000 0.0000 0.0000 27.3514
#
#
#
# Elastic Compliance Matrix: (Units=1/GPa)
#
#
# Indices 1 2 3 4 5 6 
#
# 1 0.013860 -0.010486 -0.004774 0.000000 0.000000 0.000000
# 2 -0.010486 0.032245 -0.010053 0.000000 0.000000 0.000000
# 3 -0.004774 -0.010053 0.027652 0.000000 0.000000 0.000000
# 4 0.000000 0.000000 0.000000 0.037389 0.000000 0.000000
# 5 0.000000 0.000000 0.000000 0.000000 0.058173 0.000000
# 6 0.000000 0.000000 0.000000 0.000000 0.000000 0.036561
#
#
# Mechanical properties :
#
#
# Convention : Reuss Voigt Hill
#
# Bulk Modulus (GPa) = 43.23089 55.07964 49.15526
# Shear Modulus (GPa) = 18.92387 21.82827 20.37607
#
# Velocity S-wave (km/s) = 3.30709 3.55182 3.43164
# Velocity P-wave (km/s) = 6.29025 6.97519 6.64155
#
# Compressibility (1/GPa) = 0.02313161
#
# Stress axis : x y z
#
# Youngs Moduli (GPa) = 72.15022 31.01249 36.16392
#
# Poissons Ratio (x) = 0.32520 0.17263
# Poissons Ratio (y) = 0.75657 0.36356
# Poissons Ratio (z) = 0.34442 0.31177
#
# Static dielectric constant tensor:
#      x y z
#    x 3.401940 0.000000 0.000000 
#    y 0.000000 3.193920 0.000000 
#    z 0.000000 0.000000 3.050760 
# 
# 
# High freq. dielectric constant tensor:
#      x y z
#    x 1.677300 0.000000 0.000000 
#    y 0.000000 1.663910 0.000000 
#    z 0.000000 0.000000 1.652030 
# 
# From -- ./inp_files/56221.got.cif
#   From: 2010.06.25/outbox.cif.g09.slc.cpg/sg71_29_cif.got.tgz:56221.got - 2010.06.28 04:59:45.
