data_PCOD8289664
_publ_section_title
;
Structure prediction by ZEFSAII (Michael W. Deem and Ramdas Pophale) SiO2 
 PCOD8289664
Probable space group: I M M M
;
_chemical_formula_sum "Si O2"
_cell_formula_units_Z 88
_cell_length_a 13.700106
_cell_length_b 28.510939
_cell_length_c 11.748988
_cell_angle_alpha 90.000000
_cell_angle_beta 90.000000
_cell_angle_gamma 90.000000
_cell_volume 4589.188626
_symmetry_space_group_name_H-M "I M M M"
_symmetry_group_IT_number 71
_symmetry_cell_setting 'orthorhombic'
loop_
_space_group_symop_operation_xyz
x,y,z
-x,-y,z
x,-y,-z
-x,y,-z
-x,-y,-z
x,y,-z
-x,y,z
x,-y,z
1/2+x,1/2+y,1/2+z
1/2-x,1/2-y,1/2+z
1/2+x,1/2-y,1/2-z
1/2-x,1/2+y,1/2-z
1/2-x,1/2-y,1/2-z
1/2+x,1/2+y,1/2-z
1/2-x,1/2+y,1/2+z
1/2+x,1/2-y,1/2+z
loop_
_atom_site_type_symbol
_atom_site_label
_atom_site_fract_x
_atom_site_fract_y
_atom_site_fract_z
Si Si1 0.691902 0.446502 0.000000
Si Si2 0.387567 0.554001 0.755964
Si Si3 0.781062 0.137127 0.134601
Si Si4 0.888628 0.777557 0.744986
Si Si5 0.188426 0.365197 0.000000
Si Si6 0.890878 0.814831 0.500000
Si Si7 0.613036 0.173309 0.269122
O O1 0.628746 0.433838 0.111692
O O2 0.721677 0.500000 0.000000
O O3 0.798309 0.421235 0.000000
O O4 0.500000 0.563650 0.726545
O O5 0.359490 0.500000 0.729265
O O6 0.322671 0.587635 0.677447
O O7 0.837641 0.180600 0.188843
O O8 0.669087 0.142273 0.175114
O O9 0.788530 0.139186 0.000000
O O10 0.878388 0.782239 0.609633
O O11 0.844359 0.726446 0.775254
O O12 0.000000 0.778996 0.785348
O O13 0.304159 0.352298 0.000000
O O14 0.128380 0.348392 0.107465
O O15 0.000000 0.838273 0.500000
O O16 0.500000 0.172966 0.234495
#
# Coordination Sequence:
#
# PCOD8289664 Si02
#       7
#     8  16  16  16   8   8  16
#     4  10  19  36  64  94 120 149 189 237 293 352
#     4  10  21  39  64  94 125 155 189 235 295 362
#     4  12  25  39  60  85 118 162 202 242 295 351
#     4  10  22  38  58  87 121 156 198 245 294 355
#     4  12  21  38  64  87 120 157 188 247 302 356
#     4  10  20  35  61  89 117 155 196 240 298 356
#     4  11  25  41  59  85 117 158 205 250 295 346
#
# _framework density 19.175502999999999
#
# number of rings (size 3 to 8) (size 9 to 14) (size 15 to 20)
#    0.000    1.273    3.636    1.636    2.545    5.455 
#    0.000    0.909    0.000    2.727    0.000    1.273 
#    0.000    0.000    0.000    0.000    0.000    0.000 
#
# Total GULP energy -545602.353016 kJ/mol
# GULP energy per Si atom -12400.053478 kJ/mol
# Density = 1.913186 g / cm^3
# Si number density = 19.175503 Si / 1000 Ang^3
#
#
#
# Elastic Constant Matrix: (Units=GPa)
#
#
# Indices 1 2 3 4 5 6 
#
# 1 78.0121 54.0425 40.3595 0.0001 0.0000 0.0000
# 2 54.0425 108.0474 55.3357 -0.0001 -0.0001 0.0000
# 3 40.3595 55.3357 142.8174 -0.0003 -0.0002 0.0000
# 4 0.0001 -0.0001 -0.0003 17.6883 -0.0003 0.0000
# 5 0.0000 -0.0001 -0.0002 -0.0003 18.9906 0.0000
# 6 0.0000 0.0000 0.0000 0.0000 0.0000 32.7223
#
#
#
# Elastic Compliance Matrix: (Units=1/GPa)
#
#
# Indices 1 2 3 4 5 6 
#
# 1 0.020171 -0.008945 -0.002235 0.000000 0.000000 0.000000
# 2 -0.008945 0.015513 -0.003483 0.000000 0.000000 0.000000
# 3 -0.002235 -0.003483 0.008983 0.000000 0.000000 0.000000
# 4 0.000000 0.000000 0.000000 0.056535 0.000001 0.000000
# 5 0.000000 0.000000 0.000000 0.000001 0.052658 0.000000
# 6 0.000000 0.000000 0.000000 0.000000 0.000000 0.030560
#
#
# Mechanical properties :
#
#
# Convention : Reuss Voigt Hill
#
# Bulk Modulus (GPa) = 65.17799 69.81692 67.49746
# Shear Modulus (GPa) = 22.84598 25.82286 24.33442
#
# Velocity S-wave (km/s) = 3.45543 3.67367 3.56622
# Velocity P-wave (km/s) = 7.06994 7.38125 7.22727
#
# Compressibility (1/GPa) = 0.01534260
#
# Stress axis : x y z
#
# Youngs Moduli (GPa) = 49.57654 64.46324 111.32291
#
# Poissons Ratio (x) = 0.57659 0.24876
# Poissons Ratio (y) = 0.44344 0.38772
# Poissons Ratio (z) = 0.11078 0.22452
#
# Static dielectric constant tensor:
#      x y z
#    x 3.576620 0.000000 0.000000 
#    y 0.000000 3.672410 0.000000 
#    z 0.000000 0.000000 3.507420 
# 
# 
# High freq. dielectric constant tensor:
#      x y z
#    x 1.743730 0.000000 0.000000 
#    y 0.000000 1.748060 0.000000 
#    z 0.000000 0.000000 1.744880 
# 
# From -- ./inp_files/22356.got.cif
#   From: 2010.06.25/outbox.cif.g09.slc.cpg/sg71_12_cif.got.tgz:22356.got - 2010.06.28 04:59:45.
