data_PCOD8289581
_publ_section_title
;
Structure prediction by ZEFSAII (Michael W. Deem and Ramdas Pophale) SiO2 
 PCOD8289581
Probable space group: I M M M
;
_chemical_formula_sum "Si O2"
_cell_formula_units_Z 80
_cell_length_a 11.150435
_cell_length_b 27.325011
_cell_length_c 14.067686
_cell_angle_alpha 90.000000
_cell_angle_beta 90.000000
_cell_angle_gamma 90.000000
_cell_volume 4286.223587
_symmetry_space_group_name_H-M "I M M M"
_symmetry_group_IT_number 71
_symmetry_cell_setting 'orthorhombic'
loop_
_space_group_symop_operation_xyz
x,y,z
-x,-y,z
x,-y,-z
-x,y,-z
-x,-y,-z
x,y,-z
-x,y,z
x,-y,z
1/2+x,1/2+y,1/2+z
1/2-x,1/2-y,1/2+z
1/2+x,1/2-y,1/2-z
1/2-x,1/2+y,1/2-z
1/2-x,1/2-y,1/2-z
1/2+x,1/2+y,1/2-z
1/2-x,1/2+y,1/2+z
1/2+x,1/2-y,1/2+z
loop_
_atom_site_type_symbol
_atom_site_label
_atom_site_fract_x
_atom_site_fract_y
_atom_site_fract_z
Si Si1 0.139788 0.626410 0.107464
Si Si2 0.733913 0.911323 0.791586
Si Si3 0.000000 0.555932 0.612046
Si Si4 0.133701 0.166148 0.103452
Si Si5 0.640481 0.500000 0.609005
Si Si6 0.636236 0.766236 0.686933
O O1 0.211211 0.589106 0.177681
O O2 0.162896 0.682168 0.138002
O O3 0.000000 0.613417 0.113467
O O4 0.187375 0.618501 0.000000
O O5 0.611479 0.915427 0.847546
O O6 0.784501 0.857771 0.815809
O O7 0.821719 0.953434 0.828707
O O8 0.000000 0.500000 0.648494
O O9 0.000000 0.558269 0.500000
O O10 0.133388 0.224787 0.106408
O O11 0.000000 0.145549 0.118172
O O12 0.181472 0.149754 0.000000
O O13 0.500000 0.500000 0.598347
O O14 0.695905 0.500000 0.500000
O O15 0.500000 0.767277 0.735465
O O16 0.750000 0.750000 0.750000
#
# Coordination Sequence:
#
# PCOD8289581 Si02
#       6
#    16  16   8  16   8  16
#     4  10  21  38  59  84 116 158 204 239 280 344
#     4  12  21  36  59  84 116 148 188 242 291 341
#     4  11  22  36  55  83 119 151 176 228 308 367
#     4  10  20  34  56  84 113 149 191 231 280 349
#     4  11  24  41  62  87 116 151 189 234 294 364
#     4  10  19  35  58  84 117 155 196 242 293 345
#
# _framework density 18.664448
#
# number of rings (size 3 to 8) (size 9 to 14) (size 15 to 20)
#    0.000    1.400    4.000    3.000    0.000    4.000 
#    0.000    0.500    0.000    9.000    0.000    0.000 
#    0.000    0.000    0.000    0.000    0.000    0.000 
#
# Total GULP energy -495603.392512 kJ/mol
# GULP energy per Si atom -12390.084813 kJ/mol
# Density = 1.862197 g / cm^3
# Si number density = 18.664448 Si / 1000 Ang^3
#
#
#
# Elastic Constant Matrix: (Units=GPa)
#
#
# Indices 1 2 3 4 5 6 
#
# 1 89.5630 23.0422 52.9698 0.0000 0.0000 0.0000
# 2 23.0422 81.6780 45.6542 0.0000 0.0000 0.0000
# 3 52.9698 45.6542 145.0272 -0.0006 0.0000 -0.0001
# 4 0.0000 0.0000 -0.0006 26.4228 0.0000 -0.0001
# 5 0.0000 0.0000 0.0000 0.0000 26.4285 0.0000
# 6 0.0000 0.0000 -0.0001 -0.0001 0.0000 32.2763
#
#
#
# Elastic Compliance Matrix: (Units=1/GPa)
#
#
# Indices 1 2 3 4 5 6 
#
# 1 0.014365 -0.001359 -0.004819 0.000000 0.000000 0.000000
# 2 -0.001359 0.014986 -0.004221 0.000000 0.000000 0.000000
# 3 -0.004819 -0.004221 0.009984 0.000000 0.000000 0.000000
# 4 0.000000 0.000000 0.000000 0.037846 0.000000 0.000000
# 5 0.000000 0.000000 0.000000 0.000000 0.037838 0.000000
# 6 0.000000 0.000000 0.000000 0.000000 0.000000 0.030982
#
#
# Mechanical properties :
#
#
# Convention : Reuss Voigt Hill
#
# Bulk Modulus (GPa) = 53.94609 62.17782 58.06196
# Shear Modulus (GPa) = 28.90527 29.99898 29.45212
#
# Velocity S-wave (km/s) = 3.93960 4.01344 3.97669
# Velocity P-wave (km/s) = 7.04697 7.40694 7.22919
#
# Compressibility (1/GPa) = 0.01853702
#
# Stress axis : x y z
#
# Youngs Moduli (GPa) = 69.61387 66.72874 100.15896
#
# Poissons Ratio (x) = 0.09068 0.48265
# Poissons Ratio (y) = 0.09460 0.42279
# Poissons Ratio (z) = 0.33546 0.28168
#
# Static dielectric constant tensor:
#      x y z
#    x 3.452510 0.000000 0.000000 
#    y 0.000000 3.517540 0.000000 
#    z 0.000000 0.000000 3.478450 
# 
# 
# High freq. dielectric constant tensor:
#      x y z
#    x 1.725590 0.000000 0.000000 
#    y 0.000000 1.727420 0.000000 
#    z 0.000000 0.000000 1.710670 
# 
# From -- ./inp_files/20197.got.cif
#   From: 2010.06.25/outbox.cif.g09.slc.cpg/sg71_11_cif.got.tgz:20197.got - 2010.06.28 04:59:45.
