data_PCOD8289111
_publ_section_title
;
Structure prediction by ZEFSAII (Michael W. Deem and Ramdas Pophale) SiO2 
 PCOD8289111
Probable space group: I M M M
;
_chemical_formula_sum "Si O2"
_cell_formula_units_Z 120
_cell_length_a 17.896339
_cell_length_b 18.589338
_cell_length_c 22.324690
_cell_angle_alpha 90.000000
_cell_angle_beta 90.000000
_cell_angle_gamma 90.000000
_cell_volume 7427.002307
_symmetry_space_group_name_H-M "I M M M"
_symmetry_group_IT_number 71
_symmetry_cell_setting 'orthorhombic'
loop_
_space_group_symop_operation_xyz
x,y,z
-x,-y,z
x,-y,-z
-x,y,-z
-x,-y,-z
x,y,-z
-x,y,z
x,-y,z
1/2+x,1/2+y,1/2+z
1/2-x,1/2-y,1/2+z
1/2+x,1/2-y,1/2-z
1/2-x,1/2+y,1/2-z
1/2-x,1/2-y,1/2-z
1/2+x,1/2+y,1/2-z
1/2-x,1/2+y,1/2+z
1/2+x,1/2-y,1/2+z
loop_
_atom_site_type_symbol
_atom_site_label
_atom_site_fract_x
_atom_site_fract_y
_atom_site_fract_z
Si Si1 0.086291 0.582892 0.725662
Si Si2 0.793839 0.840035 0.301923
Si Si3 0.086312 0.082212 0.232208
Si Si4 0.207391 0.319644 0.678747
Si Si5 0.341270 0.083525 0.646952
Si Si6 0.411912 0.801536 0.431273
Si Si7 0.147000 0.156463 0.116070
Si Si8 0.084577 0.915132 0.000000
O O1 0.101177 0.500000 0.709286
O O2 0.133209 0.631372 0.679028
O O3 0.110699 0.598560 0.793504
O O4 0.000000 0.603754 0.718564
O O5 0.869271 0.883532 0.287886
O O6 0.814838 0.763569 0.331816
O O7 0.749448 0.827672 0.241094
O O8 0.742809 0.886513 0.346631
O O9 0.100537 0.124542 0.171005
O O10 0.000000 0.087199 0.249205
O O11 0.112360 0.000000 0.223074
O O12 0.263799 0.346977 0.627102
O O13 0.381762 0.122241 0.591750
O O14 0.337450 0.000000 0.631204
O O15 0.387677 0.790415 0.500000
O O16 0.500000 0.799195 0.424272
O O17 0.376169 0.739354 0.390691
O O18 0.128772 0.110916 0.057677
O O19 0.000000 0.882984 0.000000
O O20 0.081152 0.000000 0.000000
#
# Coordination Sequence:
#
# PCOD8289111 Si02
#       8
#    16  16  16  16  16  16  16   8
#     4   9  18  31  48  73 102 129 158 195 240 288
#     4   9  17  31  46  69  94 125 159 200 236 286
#     4  10  20  31  46  70  99 130 160 194 241 290
#     4   9  18  30  48  69  94 123 164 196 237 286
#     4  10  19  33  51  69  94 130 164 198 240 286
#     4  11  22  34  49  69  95 129 165 204 244 278
#     4  11  20  34  49  67  97 130 166 203 237 284
#     4  11  22  34  50  72  98 130 170 207 238 278
#
# _framework density 16.157259
#
# number of rings (size 3 to 8) (size 9 to 14) (size 15 to 20)
#    0.000    2.067    2.000    2.400    1.867    6.400 
#    0.000    0.667    0.000    0.000    0.000    0.467 
#    0.000    3.200    0.000    2.800    0.000    0.000 
#
# Total GULP energy -744111.306372 kJ/mol
# GULP energy per Si atom -12401.855106 kJ/mol
# Density = 1.612048 g / cm^3
# Si number density = 16.157259 Si / 1000 Ang^3
#
#
#
# Elastic Constant Matrix: (Units=GPa)
#
#
# Indices 1 2 3 4 5 6 
#
# 1 109.7463 58.5330 40.3993 0.0000 0.0000 0.0000
# 2 58.5330 112.8177 28.4597 0.0000 0.0000 0.0000
# 3 40.3993 28.4597 44.5024 0.0000 0.0000 0.0000
# 4 0.0000 0.0000 0.0000 35.7993 0.0000 0.0000
# 5 0.0000 0.0000 0.0000 0.0000 27.3286 0.0000
# 6 0.0000 0.0000 0.0000 0.0000 0.0000 31.5104
#
#
#
# Elastic Compliance Matrix: (Units=1/GPa)
#
#
# Indices 1 2 3 4 5 6 
#
# 1 0.016188 -0.005594 -0.011118 0.000000 0.000000 0.000000
# 2 -0.005594 0.012502 -0.002917 0.000000 0.000000 0.000000
# 3 -0.011118 -0.002917 0.034429 0.000000 0.000000 0.000000
# 4 0.000000 0.000000 0.000000 0.027934 0.000000 0.000000
# 5 0.000000 0.000000 0.000000 0.000000 0.036592 0.000000
# 6 0.000000 0.000000 0.000000 0.000000 0.000000 0.031736
#
#
# Mechanical properties :
#
#
# Convention : Reuss Voigt Hill
#
# Bulk Modulus (GPa) = 41.90917 57.98338 49.94627
# Shear Modulus (GPa) = 24.20220 28.23928 26.22074
#
# Velocity S-wave (km/s) = 3.87449 4.18518 4.03283
# Velocity P-wave (km/s) = 6.78308 7.70189 7.25704
#
# Compressibility (1/GPa) = 0.02386113
#
# Stress axis : x y z
#
# Youngs Moduli (GPa) = 61.77250 79.98654 29.04514
#
# Poissons Ratio (x) = 0.44747 0.32293
# Poissons Ratio (y) = 0.34557 0.08472
# Poissons Ratio (z) = 0.68680 0.23330
#
# Static dielectric constant tensor:
#      x y z
#    x 3.123700 0.000000 0.000000 
#    y 0.000000 3.268370 0.000000 
#    z 0.000000 0.000000 2.801690 
# 
# 
# High freq. dielectric constant tensor:
#      x y z
#    x 1.616850 0.000000 0.000000 
#    y 0.000000 1.640910 0.000000 
#    z 0.000000 0.000000 1.579750 
# 
# From -- ./inp_files/54320.got.cif
#   From: 2010.06.25/outbox.cif.g09.slc.cpg/sg71_28_cif.got.tgz:54320.got - 2010.06.28 04:59:45.
