data_PCOD8289112
_publ_section_title
;
Structure prediction by ZEFSAII (Michael W. Deem and Ramdas Pophale) SiO2 
 PCOD8289112
Probable space group: I M M M
;
_chemical_formula_sum "Si O2"
_cell_formula_units_Z 104
_cell_length_a 26.783916
_cell_length_b 28.158151
_cell_length_c 7.970635
_cell_angle_alpha 90.000000
_cell_angle_beta 90.000000
_cell_angle_gamma 90.000000
_cell_volume 6011.337750
_symmetry_space_group_name_H-M "I M M M"
_symmetry_group_IT_number 71
_symmetry_cell_setting 'orthorhombic'
loop_
_space_group_symop_operation_xyz
x,y,z
-x,-y,z
x,-y,-z
-x,y,-z
-x,-y,-z
x,y,-z
-x,y,z
x,-y,z
1/2+x,1/2+y,1/2+z
1/2-x,1/2-y,1/2+z
1/2+x,1/2-y,1/2-z
1/2-x,1/2+y,1/2-z
1/2-x,1/2-y,1/2-z
1/2+x,1/2+y,1/2-z
1/2-x,1/2+y,1/2+z
1/2+x,1/2-y,1/2+z
loop_
_atom_site_type_symbol
_atom_site_label
_atom_site_fract_x
_atom_site_fract_y
_atom_site_fract_z
Si Si1 0.940705 0.694024 0.186262
Si Si2 0.559238 0.868640 0.000000
Si Si3 0.691820 0.553113 0.690650
Si Si4 0.098853 0.106316 0.310659
Si Si5 0.295886 0.056294 0.685293
Si Si6 0.139893 0.443527 0.500000
Si Si7 0.943721 0.800086 0.804552
Si Si8 0.500000 0.553632 0.301865
O O1 0.922422 0.659164 0.333160
O O2 0.921737 0.747353 0.226685
O O3 0.000000 0.695904 0.181915
O O4 0.921487 0.677811 0.000000
O O5 0.500000 0.876465 0.000000
O O6 0.585246 0.919871 0.000000
O O7 0.710004 0.550411 0.500000
O O8 0.677119 0.500000 0.753956
O O9 0.644450 0.587480 0.700278
O O10 0.738874 0.574295 0.793104
O O11 0.113118 0.094775 0.500000
O O12 0.092341 0.162735 0.287262
O O13 0.048311 0.080161 0.263274
O O14 0.315175 0.072380 0.500000
O O15 0.294866 0.000000 0.700564
O O16 0.331617 0.075300 0.833258
O O17 0.132380 0.500000 0.500000
O O18 0.000000 0.804376 0.731646
O O19 0.944658 0.812478 0.000000
O O20 0.500000 0.500000 0.232806
O O21 0.500000 0.554452 0.500000
#
# Coordination Sequence:
#
# PCOD8289112 Si02
#       8
#    16   8  16  16  16   8  16   8
#     4   8  16  31  51  74 102 137 173 217 259 290
#     4  10  20  33  54  84 114 146 175 205 234 296
#     4  10  19  33  51  69  95 130 171 221 271 314
#     4  12  23  30  43  69  96 127 169 220 272 327
#     4   9  17  32  54  77 102 133 173 221 260 294
#     4  10  20  35  54  82 116 145 174 202 243 293
#     4   9  17  31  49  66  93 129 168 218 266 311
#     4  11  23  37  45  53  85 139 183 213 261 332
#
# _framework density 17.300642
#
# number of rings (size 3 to 8) (size 9 to 14) (size 15 to 20)
#    0.000    2.231    1.538    3.462    1.077    4.154 
#    0.000    0.000    0.000    0.000    0.000    5.385 
#    0.000    0.000    0.000    0.000    0.000    0.000 
#
# Total GULP energy -644609.907480 kJ/mol
# GULP energy per Si atom -12396.344375 kJ/mol
# Density = 1.726126 g / cm^3
# Si number density = 17.300642 Si / 1000 Ang^3
#
#
#
# Elastic Constant Matrix: (Units=GPa)
#
#
# Indices 1 2 3 4 5 6 
#
# 1 65.6013 37.4700 32.0922 0.0000 0.0000 0.0000
# 2 37.4700 70.1492 34.7894 0.0000 0.0000 0.0000
# 3 32.0922 34.7894 108.1944 0.0000 0.0000 0.0000
# 4 0.0000 0.0000 0.0000 16.5363 0.0000 0.0000
# 5 0.0000 0.0000 0.0000 0.0000 14.0809 0.0000
# 6 0.0000 0.0000 0.0000 0.0000 0.0000 3.3727
#
#
#
# Elastic Compliance Matrix: (Units=1/GPa)
#
#
# Indices 1 2 3 4 5 6 
#
# 1 0.022946 -0.010566 -0.003409 0.000000 0.000000 0.000000
# 2 -0.010566 0.021825 -0.003884 0.000000 0.000000 0.000000
# 3 -0.003409 -0.003884 0.011502 0.000000 0.000000 0.000000
# 4 0.000000 0.000000 0.000000 0.060473 0.000000 0.000000
# 5 0.000000 0.000000 0.000000 0.000000 0.071018 0.000000
# 6 0.000000 0.000000 0.000000 0.000000 0.000000 0.296500
#
#
# Mechanical properties :
#
#
# Convention : Reuss Voigt Hill
#
# Bulk Modulus (GPa) = 48.64569 50.29426 49.46997
# Shear Modulus (GPa) = 9.49065 16.10420 12.79742
#
# Velocity S-wave (km/s) = 2.34470 3.05428 2.72271
# Velocity P-wave (km/s) = 5.95895 6.44764 6.20810
#
# Compressibility (1/GPa) = 0.02055680
#
# Stress axis : x y z
#
# Youngs Moduli (GPa) = 43.57996 45.81833 86.93765
#
# Poissons Ratio (x) = 0.48413 0.29635
# Poissons Ratio (y) = 0.46048 0.33764
# Poissons Ratio (z) = 0.14855 0.17795
#
# Static dielectric constant tensor:
#      x y z
#    x 2.966170 0.000000 0.000000 
#    y 0.000000 3.058740 0.000000 
#    z 0.000000 0.000000 3.514000 
# 
# 
# High freq. dielectric constant tensor:
#      x y z
#    x 1.632130 0.000000 0.000000 
#    y 0.000000 1.641720 0.000000 
#    z 0.000000 0.000000 1.685650 
# 
# From -- ./inp_files/13352.got.cif
#   From: 2010.06.25/outbox.cif.g09.slc.cpg/sg71_7_cif.got.tgz:13352.got - 2010.06.28 04:59:45.
