data_PCOD8289119
_publ_section_title
;
Structure prediction by ZEFSAII (Michael W. Deem and Ramdas Pophale) SiO2 
 PCOD8289119
Probable space group: I M M M
;
_chemical_formula_sum "Si O2"
_cell_formula_units_Z 104
_cell_length_a 22.504823
_cell_length_b 29.133583
_cell_length_c 9.438545
_cell_angle_alpha 90.000000
_cell_angle_beta 90.000000
_cell_angle_gamma 90.000000
_cell_volume 6188.345490
_symmetry_space_group_name_H-M "I M M M"
_symmetry_group_IT_number 71
_symmetry_cell_setting 'orthorhombic'
loop_
_space_group_symop_operation_xyz
x,y,z
-x,-y,z
x,-y,-z
-x,y,-z
-x,-y,-z
x,y,-z
-x,y,z
x,-y,z
1/2+x,1/2+y,1/2+z
1/2-x,1/2-y,1/2+z
1/2+x,1/2-y,1/2-z
1/2-x,1/2+y,1/2-z
1/2-x,1/2-y,1/2-z
1/2+x,1/2+y,1/2-z
1/2-x,1/2+y,1/2+z
1/2+x,1/2-y,1/2+z
loop_
_atom_site_type_symbol
_atom_site_label
_atom_site_fract_x
_atom_site_fract_y
_atom_site_fract_z
Si Si1 0.069439 0.613941 0.164874
Si Si2 0.431843 0.700183 0.163022
Si Si3 0.272752 0.447027 0.162579
Si Si4 0.929310 0.716162 0.842766
Si Si5 0.841459 0.553896 0.336084
Si Si6 0.500000 0.554224 0.335644
Si Si7 0.104835 0.899819 0.335060
O O1 0.090643 0.665445 0.207254
O O2 0.103131 0.578293 0.263389
O O3 0.000000 0.607512 0.194891
O O4 0.083488 0.604538 0.000000
O O5 0.500000 0.691343 0.207970
O O6 0.403275 0.743535 0.244445
O O7 0.395703 0.654271 0.199781
O O8 0.427164 0.713110 0.000000
O O9 0.288425 0.500000 0.190992
O O10 0.219262 0.430024 0.261377
O O11 0.329995 0.417464 0.203329
O O12 0.253936 0.439073 0.000000
O O13 0.000000 0.717450 0.840795
O O14 0.905129 0.725527 0.000000
O O15 0.838188 0.567821 0.500000
O O16 0.850977 0.500000 0.315350
O O17 0.500000 0.500000 0.317843
O O18 0.500000 0.568885 0.500000
O O19 0.558357 0.573712 0.261518
O O20 0.088706 0.908634 0.500000
#
# Coordination Sequence:
#
# PCOD8289119 Si02
#       7
#    16  16  16  16  16   8  16
#     4   9  18  33  53  77 103 130 162 198 236 283
#     4   9  16  27  44  69  99 127 158 199 246 294
#     4   9  18  33  53  72  90 124 172 210 243 289
#     4   8  15  28  46  69  97 128 159 193 236 287
#     4  10  21  35  51  73 102 132 160 197 244 292
#     4  11  23  33  43  67 101 133 165 207 260 307
#     4  10  19  33  51  71  96 128 168 211 251 297
#
# _framework density 16.805783999999999
#
# number of rings (size 3 to 8) (size 9 to 14) (size 15 to 20)
#    0.000    2.692    0.769    2.077    0.000    4.615 
#    0.000    4.615    0.000    0.923    0.000    0.000 
#    0.000    0.000    0.000    0.000    0.000    0.000 
#
# Total GULP energy -644754.868808 kJ/mol
# GULP energy per Si atom -12399.132092 kJ/mol
# Density = 1.676753 g / cm^3
# Si number density = 16.805784 Si / 1000 Ang^3
#
#
#
# Elastic Constant Matrix: (Units=GPa)
#
#
# Indices 1 2 3 4 5 6 
#
# 1 85.3801 57.1617 63.2017 0.0000 0.0000 0.0000
# 2 57.1617 90.3760 63.9321 0.0000 0.0000 0.0000
# 3 63.2017 63.9321 101.6717 0.0000 0.0000 0.0000
# 4 0.0000 0.0000 0.0000 32.7811 0.0000 0.0000
# 5 0.0000 0.0000 0.0000 0.0000 19.9331 0.0000
# 6 0.0000 0.0000 0.0000 0.0000 0.0000 -10.7605
#
#
#
# Elastic Compliance Matrix: (Units=1/GPa)
#
#
# Indices 1 2 3 4 5 6 
#
# 1 0.024972 -0.008670 -0.010072 0.000000 0.000000 0.000000
# 2 -0.008670 0.022940 -0.009036 0.000000 0.000000 0.000000
# 3 -0.010072 -0.009036 0.021778 0.000000 0.000000 0.000000
# 4 0.000000 0.000000 0.000000 0.030505 0.000000 0.000000
# 5 0.000000 0.000000 0.000000 0.000000 0.050168 0.000000
# 6 0.000000 0.000000 0.000000 0.000000 0.000000 -0.092933
#
#
# Mechanical properties :
#
#
# Convention : Reuss Voigt Hill
#
# Bulk Modulus (GPa) = 70.74039 71.77988 71.26013
# Shear Modulus (GPa) = 42.48170 14.59956 28.54063
#
# Velocity S-wave (km/s) = 5.03318 2.95061 4.12547
# Velocity P-wave (km/s) = 8.71559 7.37647 8.07384
#
# Compressibility (1/GPa) = 0.01413620
#
# Stress axis : x y z
#
# Youngs Moduli (GPa) = 40.04446 43.59135 45.91777
#
# Poissons Ratio (x) = 0.37793 0.46247
# Poissons Ratio (y) = 0.34718 0.41490
# Poissons Ratio (z) = 0.40331 0.39388
#
# Static dielectric constant tensor:
#      x y z
#    x 2.862720 0.000000 0.000000 
#    y 0.000000 3.286910 0.000000 
#    z 0.000000 0.000000 3.255390 
# 
# 
# High freq. dielectric constant tensor:
#      x y z
#    x 1.618780 0.000000 0.000000 
#    y 0.000000 1.652560 0.000000 
#    z 0.000000 0.000000 1.649280 
# 
# From -- ./inp_files/11048.got.cif
#   From: 2010.06.25/outbox.cif.g09.slc.cpg/sg71_6_cif.got.tgz:11048.got - 2010.06.28 04:59:45.
