data_PCOD8289670
_publ_section_title
;
Structure prediction by ZEFSAII (Michael W. Deem and Ramdas Pophale) SiO2 
 PCOD8289670
Probable space group: I M M M
;
_chemical_formula_sum "Si O2"
_cell_formula_units_Z 64
_cell_length_a 10.784626
_cell_length_b 33.152909
_cell_length_c 8.939155
_cell_angle_alpha 90.000000
_cell_angle_beta 90.000000
_cell_angle_gamma 90.000000
_cell_volume 3196.120893
_symmetry_space_group_name_H-M "I M M M"
_symmetry_group_IT_number 71
_symmetry_cell_setting 'orthorhombic'
loop_
_space_group_symop_operation_xyz
x,y,z
-x,-y,z
x,-y,-z
-x,y,-z
-x,-y,-z
x,y,-z
-x,y,z
x,-y,z
1/2+x,1/2+y,1/2+z
1/2-x,1/2-y,1/2+z
1/2+x,1/2-y,1/2-z
1/2-x,1/2+y,1/2-z
1/2-x,1/2-y,1/2-z
1/2+x,1/2+y,1/2-z
1/2-x,1/2+y,1/2+z
1/2+x,1/2-y,1/2+z
loop_
_atom_site_type_symbol
_atom_site_label
_atom_site_fract_x
_atom_site_fract_y
_atom_site_fract_z
Si Si1 0.000000 0.699474 0.678701
Si Si2 0.761395 0.164199 0.175802
Si Si3 0.500000 0.713238 0.679027
Si Si4 0.745506 0.073408 0.176074
Si Si5 0.500000 0.047274 0.674436
Si Si6 0.859415 0.000000 0.662160
O O1 0.874625 0.677185 0.738281
O O2 0.000000 0.743396 0.748203
O O3 0.000000 0.702062 0.500000
O O4 0.875529 0.190778 0.238620
O O5 0.793136 0.117999 0.217523
O O6 0.755779 0.169600 0.000000
O O7 0.500000 0.716016 0.500000
O O8 0.613234 0.068812 0.248811
O O9 0.835093 0.039982 0.243767
O O10 0.736498 0.066734 0.000000
O O11 0.500000 0.056137 0.500000
O O12 0.500000 0.000000 0.711146
O O13 0.785901 0.000000 0.500000
O O14 0.000000 0.000000 0.619646
#
# Coordination Sequence:
#
# PCOD8289670 Si02
#       6
#     8  16   8  16   8   8
#     4  10  19  37  59  84 116 151 185 230 290 353
#     4   9  20  36  58  85 117 149 188 243 296 336
#     4  10  20  37  59  85 115 150 187 235 292 350
#     4  11  22  38  63  89 112 150 205 249 284 342
#     4  11  22  37  57  82 119 155 184 233 304 355
#     4  11  25  42  57  80 121 163 193 239 304 355
#
# _framework density 20.024274999999999
#
# number of rings (size 3 to 8) (size 9 to 14) (size 15 to 20)
#    0.000    1.750    1.250    3.000    1.750    3.500 
#    0.000    6.250    0.000    0.000    0.000    0.000 
#    0.000    0.000    0.000    0.000    0.000    0.000 
#
# Total GULP energy -396685.962082 kJ/mol
# GULP energy per Si atom -12396.436315 kJ/mol
# Density = 1.997870 g / cm^3
# Si number density = 20.024275 Si / 1000 Ang^3
#
#
#
# Elastic Constant Matrix: (Units=GPa)
#
#
# Indices 1 2 3 4 5 6 
#
# 1 131.2880 54.6920 21.8470 -0.0009 -0.0025 0.0043
# 2 54.6920 139.4830 36.5980 0.0043 -0.0006 0.0135
# 3 21.8470 36.5980 63.5051 -0.0284 0.0077 -0.0001
# 4 -0.0009 0.0043 -0.0284 31.0188 0.0053 0.0033
# 5 -0.0025 -0.0006 0.0077 0.0053 17.1631 -0.0056
# 6 0.0043 0.0135 -0.0001 0.0033 -0.0056 -54.3354
#
#
#
# Elastic Compliance Matrix: (Units=1/GPa)
#
#
# Indices 1 2 3 4 5 6 
#
# 1 0.009191 -0.003268 -0.001278 0.000000 0.000002 0.000000
# 2 -0.003268 0.009609 -0.004413 -0.000005 0.000002 0.000002
# 3 -0.001278 -0.004413 0.018730 0.000018 -0.000009 -0.000001
# 4 0.000000 -0.000005 0.000018 0.032239 -0.000010 0.000002
# 5 0.000002 0.000002 -0.000009 -0.000010 0.058264 -0.000006
# 6 0.000000 0.000002 -0.000001 0.000002 -0.000006 -0.018404
#
#
# Mechanical properties :
#
#
# Convention : Reuss Voigt Hill
#
# Bulk Modulus (GPa) = 50.99455 62.28334 56.63895
# Shear Modulus (GPa) = 37.28973 13.51191 25.40082
#
# Velocity S-wave (km/s) = 4.32003 2.60046 3.56547
# Velocity P-wave (km/s) = 7.09966 6.33940 6.73028
#
# Compressibility (1/GPa) = 0.01960994
#
# Stress axis : x y z
#
# Youngs Moduli (GPa) = 108.80027 104.07050 53.39069
#
# Poissons Ratio (x) = 0.34015 0.06825
# Poissons Ratio (y) = 0.35561 0.23562
# Poissons Ratio (z) = 0.13908 0.45928
#
# Static dielectric constant tensor:
#      x y z
#    x 3.957470 -0.000010 0.000000 
#    y -0.000010 3.957550 0.000000 
#    z 0.000000 0.000000 3.461120 
# 
# 
# High freq. dielectric constant tensor:
#      x y z
#    x 1.795400 0.000000 0.000000 
#    y 0.000000 1.793890 0.000000 
#    z 0.000000 0.000000 1.761530 
# 
# From -- ./inp_files/3865.got.cif
#   From: 2010.06.25/outbox.cif.g09.slc.cpg/sg71_2_cif.got.tgz:3865.got - 2010.06.28 04:59:45.
