data_PCOD8289825
_publ_section_title
;
Structure prediction by ZEFSAII (Michael W. Deem and Ramdas Pophale) SiO2 
 PCOD8289825
Probable space group: I M M M
;
_chemical_formula_sum "Si O2"
_cell_formula_units_Z 72
_cell_length_a 9.188106
_cell_length_b 14.535448
_cell_length_c 32.668055
_cell_angle_alpha 90.000000
_cell_angle_beta 90.000000
_cell_angle_gamma 90.000000
_cell_volume 4362.924491
_symmetry_space_group_name_H-M "I M M M"
_symmetry_group_IT_number 71
_symmetry_cell_setting 'orthorhombic'
loop_
_space_group_symop_operation_xyz
x,y,z
-x,-y,z
x,-y,-z
-x,y,-z
-x,-y,-z
x,y,-z
-x,y,z
x,-y,z
1/2+x,1/2+y,1/2+z
1/2-x,1/2-y,1/2+z
1/2+x,1/2-y,1/2-z
1/2-x,1/2+y,1/2-z
1/2-x,1/2-y,1/2-z
1/2+x,1/2+y,1/2-z
1/2-x,1/2+y,1/2+z
1/2+x,1/2-y,1/2+z
loop_
_atom_site_type_symbol
_atom_site_label
_atom_site_fract_x
_atom_site_fract_y
_atom_site_fract_z
Si Si1 0.835889 0.109096 0.500000
Si Si2 0.334164 0.900714 0.811513
Si Si3 0.170999 0.606750 0.080654
Si Si4 0.667019 0.708747 0.848508
Si Si5 0.833040 0.841739 0.740146
O O1 0.750759 0.143733 0.540033
O O2 0.000000 0.149101 0.500000
O O3 0.838884 0.000000 0.500000
O O4 0.500000 0.879105 0.798910
O O5 0.281233 0.814251 0.838999
O O6 0.243271 0.916054 0.769431
O O7 0.322049 0.000000 0.834877
O O8 0.208846 0.500000 0.089082
O O9 0.226225 0.668457 0.117831
O O10 0.000000 0.621035 0.074850
O O11 0.500000 0.708108 0.864201
O O12 0.681172 0.642234 0.808658
O O13 0.750000 0.750000 0.750000
O O14 0.000000 0.834643 0.753131
#
# Coordination Sequence:
#
# PCOD8289825 Si02
#       5
#     8  16  16  16  16
#     4   9  17  31  51  71  92 119 148 179 219 272
#     4   9  18  32  48  66  91 124 160 198 239 279
#     4  10  20  32  47  69  96 123 150 183 224 270
#     4   9  18  31  46  66  92 122 156 192 229 273
#     4   9  17  29  44  62  86 117 154 195 235 273
#
# _framework density 16.502693000000001
#
# number of rings (size 3 to 8) (size 9 to 14) (size 15 to 20)
#    0.000    2.778    0.000    3.000    0.000    8.444 
#    0.000    4.444    0.000    0.000    0.000    0.778 
#    0.000    6.222    0.000    0.000    0.000    0.000 
#
# Total GULP energy -446009.905243 kJ/mol
# GULP energy per Si atom -12389.164035 kJ/mol
# Density = 1.646513 g / cm^3
# Si number density = 16.502693 Si / 1000 Ang^3
#
#
#
# Elastic Constant Matrix: (Units=GPa)
#
#
# Indices 1 2 3 4 5 6 
#
# 1 100.3319 34.1925 61.1441 0.0000 0.0000 0.0000
# 2 34.1925 76.7799 42.5794 0.0000 0.0000 0.0000
# 3 61.1441 42.5794 102.4371 0.0000 0.0000 0.0000
# 4 0.0000 0.0000 0.0000 18.4898 0.0000 0.0000
# 5 0.0000 0.0000 0.0000 0.0000 33.6272 0.0000
# 6 0.0000 0.0000 0.0000 0.0000 0.0000 18.9492
#
#
#
# Elastic Compliance Matrix: (Units=1/GPa)
#
#
# Indices 1 2 3 4 5 6 
#
# 1 0.015992 -0.002376 -0.008558 0.000000 0.000000 0.000000
# 2 -0.002376 0.017279 -0.005764 0.000000 0.000000 0.000000
# 3 -0.008558 -0.005764 0.017266 0.000000 0.000000 0.000000
# 4 0.000000 0.000000 0.000000 0.054084 0.000000 0.000000
# 5 0.000000 0.000000 0.000000 0.000000 0.029738 0.000000
# 6 0.000000 0.000000 0.000000 0.000000 0.000000 0.052773
#
#
# Mechanical properties :
#
#
# Convention : Reuss Voigt Hill
#
# Bulk Modulus (GPa) = 58.33863 61.70899 60.02381
# Shear Modulus (GPa) = 22.10034 23.65543 22.87788
#
# Velocity S-wave (km/s) = 3.66347 3.79017 3.72736
# Velocity P-wave (km/s) = 7.30222 7.52518 7.41454
#
# Compressibility (1/GPa) = 0.01714130
#
# Stress axis : x y z
#
# Youngs Moduli (GPa) = 62.53141 57.87434 57.91651
#
# Poissons Ratio (x) = 0.13750 0.49565
# Poissons Ratio (y) = 0.14856 0.33384
# Poissons Ratio (z) = 0.53514 0.33359
#
# Static dielectric constant tensor:
#      x y z
#    x 3.445860 0.000000 0.000000 
#    y 0.000000 3.054570 0.000000 
#    z 0.000000 0.000000 3.114570 
# 
# 
# High freq. dielectric constant tensor:
#      x y z
#    x 1.647830 0.000000 0.000000 
#    y 0.000000 1.613730 0.000000 
#    z 0.000000 0.000000 1.613490 
# 
# From -- ./inp_files/6417.got.cif
#   From: 2010.06.25/outbox.cif.g09.slc.cpg/sg71_4_cif.got.tgz:6417.got - 2010.06.28 04:59:45.
