data_PCOD8289990
_publ_section_title
;
Structure prediction by ZEFSAII (Michael W. Deem and Ramdas Pophale) SiO2 
 PCOD8289990
Probable space group: I M M M
;
_chemical_formula_sum "Si O2"
_cell_formula_units_Z 104
_cell_length_a 24.248812
_cell_length_b 8.884339
_cell_length_c 28.430626
_cell_angle_alpha 90.000000
_cell_angle_beta 90.000000
_cell_angle_gamma 90.000000
_cell_volume 6124.942421
_symmetry_space_group_name_H-M "I M M M"
_symmetry_group_IT_number 71
_symmetry_cell_setting 'orthorhombic'
loop_
_space_group_symop_operation_xyz
x,y,z
-x,-y,z
x,-y,-z
-x,y,-z
-x,-y,-z
x,y,-z
-x,y,z
x,-y,z
1/2+x,1/2+y,1/2+z
1/2-x,1/2-y,1/2+z
1/2+x,1/2-y,1/2-z
1/2-x,1/2+y,1/2-z
1/2-x,1/2-y,1/2-z
1/2+x,1/2+y,1/2-z
1/2-x,1/2+y,1/2+z
1/2+x,1/2-y,1/2+z
loop_
_atom_site_type_symbol
_atom_site_label
_atom_site_fract_x
_atom_site_fract_y
_atom_site_fract_z
Si Si1 0.355589 0.678998 0.947166
Si Si2 0.934736 0.827716 0.000000
Si Si3 0.435424 0.675419 0.677963
Si Si4 0.265858 0.178196 0.552231
Si Si5 0.879783 0.678488 0.089410
Si Si6 0.936708 0.822229 0.367544
Si Si7 0.934518 0.669342 0.272676
O O1 0.358056 0.500000 0.947150
O O2 0.294526 0.735156 0.930843
O O3 0.401055 0.742106 0.911065
O O4 0.368376 0.738161 0.000000
O O5 0.913496 0.746600 0.953544
O O6 0.000000 0.817754 0.000000
O O7 0.914583 0.000000 0.000000
O O8 0.500000 0.708588 0.671375
O O9 0.422381 0.500000 0.674561
O O10 0.402554 0.762345 0.638213
O O11 0.413586 0.736042 0.727966
O O12 0.278192 0.241985 0.500000
O O13 0.315463 0.229800 0.586275
O O14 0.264195 0.000000 0.549538
O O15 0.886142 0.500000 0.087233
O O16 0.912951 0.746750 0.320290
O O17 0.000000 0.776793 0.377023
O O18 0.930457 0.000000 0.361526
O O19 0.911251 0.500000 0.269446
O O20 0.000000 0.670033 0.273308
#
# Coordination Sequence:
#
# PCOD8289990 Si02
#       7
#    16   8  16  16  16  16  16
#     4   8  14  25  44  70  99 129 158 191 229 273
#     4  11  23  35  45  63  95 129 156 189 240 292
#     4  10  20  33  48  68  95 123 151 190 241 290
#     4   8  14  27  45  66  90 119 160 200 232 268
#     4  11  20  31  49  70  91 120 160 202 236 277
#     4   9  16  26  44  73 103 127 153 188 232 277
#     4   9  17  30  48  68  91 123 160 193 228 277
#
# _framework density 16.979751
#
# number of rings (size 3 to 8) (size 9 to 14) (size 15 to 20)
#    0.000    2.692    0.769    3.000    0.000    5.538 
#    0.000    1.538    0.000    3.231    0.000    2.154 
#    0.000    0.000    0.000    0.000    0.000    0.000 
#
# Total GULP energy -644559.734517 kJ/mol
# GULP energy per Si atom -12395.379510 kJ/mol
# Density = 1.694110 g / cm^3
# Si number density = 16.979751 Si / 1000 Ang^3
#
#
#
# Elastic Constant Matrix: (Units=GPa)
#
#
# Indices 1 2 3 4 5 6 
#
# 1 89.2072 37.7793 70.7123 0.0000 0.0000 0.0000
# 2 37.7793 62.3067 44.8855 0.0000 0.0000 0.0000
# 3 70.7123 44.8855 143.7947 0.0000 0.0000 0.0000
# 4 0.0000 0.0000 0.0000 3.5401 0.0000 0.0000
# 5 0.0000 0.0000 0.0000 0.0000 8.0204 0.0000
# 6 0.0000 0.0000 0.0000 0.0000 0.0000 8.7443
#
#
#
# Elastic Compliance Matrix: (Units=1/GPa)
#
#
# Indices 1 2 3 4 5 6 
#
# 1 0.020273 -0.006593 -0.007912 0.000000 0.000000 0.000000
# 2 -0.006593 0.022850 -0.003890 0.000000 0.000000 0.000000
# 3 -0.007912 -0.003890 0.012059 0.000000 0.000000 0.000000
# 4 0.000000 0.000000 0.000000 0.282478 0.000000 0.000000
# 5 0.000000 0.000000 0.000000 0.000000 0.124682 0.000000
# 6 0.000000 0.000000 0.000000 0.000000 0.000000 0.114360
#
#
# Mechanical properties :
#
#
# Convention : Reuss Voigt Hill
#
# Bulk Modulus (GPa) = 54.37007 66.89587 60.63297
# Shear Modulus (GPa) = 8.06942 13.52306 10.79624
#
# Velocity S-wave (km/s) = 2.18236 2.82516 2.52430
# Velocity P-wave (km/s) = 6.20002 7.07990 6.65452
#
# Compressibility (1/GPa) = 0.01839247
#
# Stress axis : x y z
#
# Youngs Moduli (GPa) = 49.32584 43.76367 82.92345
#
# Poissons Ratio (x) = 0.28854 0.65605
# Poissons Ratio (y) = 0.32521 0.32260
# Poissons Ratio (z) = 0.39024 0.17026
#
# Static dielectric constant tensor:
#      x y z
#    x 3.304200 0.000000 0.000000 
#    y 0.000000 3.042150 0.000000 
#    z 0.000000 0.000000 3.268800 
# 
# 
# High freq. dielectric constant tensor:
#      x y z
#    x 1.636160 0.000000 0.000000 
#    y 0.000000 1.636390 0.000000 
#    z 0.000000 0.000000 1.656030 
# 
# From -- ./inp_files/15512.got.cif
#   From: 2010.06.25/outbox.cif.g09.slc.cpg/sg71_8_cif.got.tgz:15512.got - 2010.06.28 04:59:45.
