data_PCOD8289794
_publ_section_title
;
Structure prediction by ZEFSAII (Michael W. Deem and Ramdas Pophale) SiO2 
 PCOD8289794
Probable space group: I M M M
;
_chemical_formula_sum "Si O2"
_cell_formula_units_Z 56
_cell_length_a 39.749550
_cell_length_b 9.565021
_cell_length_c 8.087901
_cell_angle_alpha 90.000000
_cell_angle_beta 90.000000
_cell_angle_gamma 90.000000
_cell_volume 3075.062668
_symmetry_space_group_name_H-M "I M M M"
_symmetry_group_IT_number 71
_symmetry_cell_setting 'orthorhombic'
loop_
_space_group_symop_operation_xyz
x,y,z
-x,-y,z
x,-y,-z
-x,y,-z
-x,-y,-z
x,y,-z
-x,y,z
x,-y,z
1/2+x,1/2+y,1/2+z
1/2-x,1/2-y,1/2+z
1/2+x,1/2-y,1/2-z
1/2-x,1/2+y,1/2-z
1/2-x,1/2-y,1/2-z
1/2+x,1/2+y,1/2-z
1/2-x,1/2+y,1/2+z
1/2+x,1/2-y,1/2+z
loop_
_atom_site_type_symbol
_atom_site_label
_atom_site_fract_x
_atom_site_fract_y
_atom_site_fract_z
Si Si1 0.961849 0.666711 0.000000
Si Si2 0.920990 0.666486 0.683173
Si Si3 0.648761 0.165055 0.687329
Si Si4 0.219372 0.656365 0.306020
O O1 0.944252 0.725313 0.167785
O O2 0.960182 0.500000 0.000000
O O3 0.000000 0.721152 0.000000
O O4 0.933660 0.715097 0.500000
O O5 0.921352 0.500000 0.693677
O O6 0.882735 0.722024 0.706420
O O7 0.641645 0.208679 0.500000
O O8 0.684490 0.227858 0.745471
O O9 0.651154 0.000000 0.710045
O O10 0.218353 0.647513 0.500000
O O11 0.223702 0.500000 0.230814
O O12 0.250000 0.750000 0.250000
#
# Coordination Sequence:
#
# PCOD8289794 Si02
#       4
#     8  16  16  16
#     4   9  16  24  32  46  70  98 131 173 219 263
#     4   9  15  23  35  50  69  96 133 174 214 258
#     4   9  15  25  41  58  77 103 137 179 222 262
#     4  10  20  32  46  66  90 117 152 192 235 281
#
# _framework density 18.211012
#
# number of rings (size 3 to 8) (size 9 to 14) (size 15 to 20)
#    0.000    2.714    1.429    1.714    0.000    5.714 
#    0.000    2.857    0.000    0.000    0.000    0.000 
#    0.000    0.000    0.000    0.000    0.000    2.857 
#
# Total GULP energy -346964.793379 kJ/mol
# GULP energy per Si atom -12391.599764 kJ/mol
# Density = 1.816956 g / cm^3
# Si number density = 18.211012 Si / 1000 Ang^3
#
#
#
# Elastic Constant Matrix: (Units=GPa)
#
#
# Indices 1 2 3 4 5 6 
#
# 1 160.6513 16.9496 75.3392 0.0000 0.0000 0.0000
# 2 16.9496 13.8520 5.2722 0.0000 0.0000 0.0000
# 3 75.3392 5.2722 120.5132 0.0000 0.0000 0.0000
# 4 0.0000 0.0000 0.0000 8.8530 0.0000 0.0000
# 5 0.0000 0.0000 0.0000 0.0000 33.1385 0.0000
# 6 0.0000 0.0000 0.0000 0.0000 0.0000 13.1665
#
#
#
# Elastic Compliance Matrix: (Units=1/GPa)
#
#
# Indices 1 2 3 4 5 6 
#
# 1 0.010013 -0.010037 -0.005821 0.000000 0.000000 0.000000
# 2 -0.010037 0.083475 0.002623 0.000000 0.000000 0.000000
# 3 -0.005821 0.002623 0.011822 0.000000 0.000000 0.000000
# 4 0.000000 0.000000 0.000000 0.112956 0.000000 0.000000
# 5 0.000000 0.000000 0.000000 0.000000 0.030176 0.000000
# 6 0.000000 0.000000 0.000000 0.000000 0.000000 0.075950
#
#
# Mechanical properties :
#
#
# Convention : Reuss Voigt Hill
#
# Bulk Modulus (GPa) = 12.68388 54.45983 33.57185
# Shear Modulus (GPa) = 13.25756 24.19531 18.72644
#
# Velocity S-wave (km/s) = 2.70107 3.64896 3.21020
# Velocity P-wave (km/s) = 4.08751 6.90819 5.67586
#
# Compressibility (1/GPa) = 0.07884025
#
# Stress axis : x y z
#
# Youngs Moduli (GPa) = 99.86677 11.97965 84.58828
#
# Poissons Ratio (x) = 0.12024 0.49237
# Poissons Ratio (y) = 1.00237 -0.22187
# Poissons Ratio (z) = 0.58130 -0.03142
#
# Static dielectric constant tensor:
#      x y z
#    x 3.601640 0.000000 0.000000 
#    y 0.000000 2.524680 0.000000 
#    z 0.000000 0.000000 3.637760 
# 
# 
# High freq. dielectric constant tensor:
#      x y z
#    x 1.718970 0.000000 0.000000 
#    y 0.000000 1.600250 0.000000 
#    z 0.000000 0.000000 1.725830 
# 
# From -- ./inp_files/16079.got.cif
#   From: 2010.06.25/outbox.cif.g09.slc.cpg/sg71_9_cif.got.tgz:16079.got - 2010.06.28 04:59:45.
