data_PCOD8289595
_publ_section_title
;
Structure prediction by ZEFSAII (Michael W. Deem and Ramdas Pophale) SiO2 
 PCOD8289595
Probable space group: I M M M
;
_chemical_formula_sum "Si O2"
_cell_formula_units_Z 104
_cell_length_a 30.017172
_cell_length_b 20.240271
_cell_length_c 9.071496
_cell_angle_alpha 90.000000
_cell_angle_beta 90.000000
_cell_angle_gamma 90.000000
_cell_volume 5511.439065
_symmetry_space_group_name_H-M "I M M M"
_symmetry_group_IT_number 71
_symmetry_cell_setting 'orthorhombic'
loop_
_space_group_symop_operation_xyz
x,y,z
-x,-y,z
x,-y,-z
-x,y,-z
-x,-y,-z
x,y,-z
-x,y,z
x,-y,z
1/2+x,1/2+y,1/2+z
1/2-x,1/2-y,1/2+z
1/2+x,1/2-y,1/2-z
1/2-x,1/2+y,1/2-z
1/2-x,1/2-y,1/2-z
1/2+x,1/2+y,1/2-z
1/2-x,1/2+y,1/2+z
1/2+x,1/2-y,1/2+z
loop_
_atom_site_type_symbol
_atom_site_label
_atom_site_fract_x
_atom_site_fract_y
_atom_site_fract_z
Si Si1 0.164834 0.883295 0.165246
Si Si2 0.077249 0.857254 0.326210
Si Si3 0.227917 0.000000 0.174039
Si Si4 0.049936 0.712561 0.325428
Si Si5 0.500000 0.423527 0.338938
Si Si6 0.327488 0.000000 0.174724
Si Si7 0.795583 0.260775 0.166030
Si Si8 0.137275 0.359770 0.675094
O O1 0.124822 0.884983 0.279585
O O2 0.202173 0.933984 0.225621
O O3 0.182025 0.809740 0.160364
O O4 0.149595 0.904771 0.000000
O O5 0.072818 0.860152 0.500000
O O6 0.067341 0.783284 0.267600
O O7 0.042769 0.906038 0.254360
O O8 0.277592 0.000000 0.243394
O O9 0.233118 0.000000 0.000000
O O10 0.046808 0.713910 0.500000
O O11 0.086675 0.658485 0.274916
O O12 0.000000 0.697185 0.261725
O O13 0.500000 0.500000 0.366013
O O14 0.500000 0.388174 0.500000
O O15 0.353918 0.065220 0.227680
O O16 0.324593 0.000000 0.000000
O O17 0.750000 0.250000 0.250000
O O18 0.826800 0.312208 0.250592
O O19 0.786935 0.286898 0.000000
O O20 0.142916 0.351213 0.500000
#
# Coordination Sequence:
#
# PCOD8289595 Si02
#       8
#    16  16   8  16   8   8  16  16
#     4  10  21  36  54  78 109 146 189 233 282 341
#     4  11  21  36  57  81 111 145 185 237 290 338
#     4   9  18  34  53  73 106 148 186 230 283 338
#     4   9  17  32  55  83 114 147 180 226 289 343
#     4  11  25  41  57  79 111 152 195 236 278 336
#     4   9  18  34  58  85 111 147 192 234 286 352
#     4  11  22  35  55  83 114 148 192 241 289 344
#     4  10  19  35  59  84 113 150 194 239 290 351
#
# _framework density 18.869845000000002
#
# number of rings (size 3 to 8) (size 9 to 14) (size 15 to 20)
#    0.000    1.923    2.308    2.077    1.077    3.692 
#    0.000    0.769    0.000    3.231    0.000    0.000 
#    0.000    1.231    0.000    0.000    0.000    0.000 
#
# Total GULP energy -644630.043849 kJ/mol
# GULP energy per Si atom -12396.731612 kJ/mol
# Density = 1.882690 g / cm^3
# Si number density = 18.869845 Si / 1000 Ang^3
#
#
#
# Elastic Constant Matrix: (Units=GPa)
#
#
# Indices 1 2 3 4 5 6 
#
# 1 156.6220 63.5665 40.6242 0.0000 0.0000 0.0000
# 2 63.5665 127.8478 28.4926 0.0000 0.0000 0.0000
# 3 40.6242 28.4926 66.9670 0.0000 0.0000 0.0000
# 4 0.0000 0.0000 0.0000 20.7123 0.0000 0.0000
# 5 0.0000 0.0000 0.0000 0.0000 41.7265 0.0000
# 6 0.0000 0.0000 0.0000 0.0000 0.0000 31.5185
#
#
#
# Elastic Compliance Matrix: (Units=1/GPa)
#
#
# Indices 1 2 3 4 5 6 
#
# 1 0.008813 -0.003525 -0.003847 0.000000 0.000000 0.000000
# 2 -0.003525 0.010051 -0.002138 0.000000 0.000000 0.000000
# 3 -0.003847 -0.002138 0.018176 0.000000 0.000000 0.000000
# 4 0.000000 0.000000 0.000000 0.048280 0.000000 0.000000
# 5 0.000000 0.000000 0.000000 0.000000 0.023966 0.000000
# 6 0.000000 0.000000 0.000000 0.000000 0.000000 0.031727
#
#
# Mechanical properties :
#
#
# Convention : Reuss Voigt Hill
#
# Bulk Modulus (GPa) = 55.49113 68.53372 62.01243
# Shear Modulus (GPa) = 30.11342 33.37504 31.74423
#
# Velocity S-wave (km/s) = 3.99914 4.21015 4.10600
# Velocity P-wave (km/s) = 7.12708 7.74802 7.44403
#
# Compressibility (1/GPa) = 0.01802090
#
# Stress axis : x y z
#
# Youngs Moduli (GPa) = 113.46854 99.49485 55.01782
#
# Poissons Ratio (x) = 0.35068 0.21163
# Poissons Ratio (y) = 0.39993 0.11764
# Poissons Ratio (z) = 0.43647 0.21274
#
# Static dielectric constant tensor:
#      x y z
#    x 3.677720 0.000000 0.000000 
#    y 0.000000 3.600990 0.000000 
#    z 0.000000 0.000000 3.342510 
# 
# 
# High freq. dielectric constant tensor:
#      x y z
#    x 1.745060 0.000000 0.000000 
#    y 0.000000 1.731970 0.000000 
#    z 0.000000 0.000000 1.705050 
# 
# From -- ./inp_files/17077.got.cif
#   From: 2010.06.25/outbox.cif.g09.slc.cpg/sg71_9_cif.got.tgz:17077.got - 2010.06.28 04:59:45.
