data_PCOD8289240
_publ_section_title
;
Structure prediction by ZEFSAII (Michael W. Deem and Ramdas Pophale) SiO2 
 PCOD8289240
Probable space group: I M M M
;
_chemical_formula_sum "Si O2"
_cell_formula_units_Z 112
_cell_length_a 17.987393
_cell_length_b 13.639813
_cell_length_c 23.784921
_cell_angle_alpha 90.000000
_cell_angle_beta 90.000000
_cell_angle_gamma 90.000000
_cell_volume 5835.503757
_symmetry_space_group_name_H-M "I M M M"
_symmetry_group_IT_number 71
_symmetry_cell_setting 'orthorhombic'
loop_
_space_group_symop_operation_xyz
x,y,z
-x,-y,z
x,-y,-z
-x,y,-z
-x,-y,-z
x,y,-z
-x,y,z
x,-y,z
1/2+x,1/2+y,1/2+z
1/2-x,1/2-y,1/2+z
1/2+x,1/2-y,1/2-z
1/2-x,1/2+y,1/2-z
1/2-x,1/2-y,1/2-z
1/2+x,1/2+y,1/2-z
1/2-x,1/2+y,1/2+z
1/2+x,1/2-y,1/2+z
loop_
_atom_site_type_symbol
_atom_site_label
_atom_site_fract_x
_atom_site_fract_y
_atom_site_fract_z
Si Si1 0.672900 0.108932 0.844222
Si Si2 0.202975 0.608881 0.934030
Si Si3 0.414085 0.264505 0.565312
Si Si4 0.650408 0.389723 0.659476
Si Si5 0.335762 0.269037 0.237635
Si Si6 0.916850 0.111853 0.351226
Si Si7 0.344254 0.264282 0.066130
O O1 0.761297 0.106357 0.839239
O O2 0.635702 0.167427 0.791082
O O3 0.653173 0.158899 0.903670
O O4 0.639112 0.000000 0.843807
O O5 0.205519 0.500000 0.905799
O O6 0.126593 0.663396 0.917192
O O7 0.269797 0.678506 0.914252
O O8 0.208707 0.594838 0.000000
O O9 0.399897 0.289140 0.500000
O O10 0.500000 0.249403 0.579135
O O11 0.381318 0.356438 0.599472
O O12 0.619916 0.500000 0.672412
O O13 0.623654 0.308471 0.705823
O O14 0.250000 0.250000 0.250000
O O15 0.352557 0.352498 0.191349
O O16 0.911750 0.169917 0.410481
O O17 0.000000 0.127488 0.326322
O O18 0.900815 0.000000 0.365099
O O19 0.350943 0.247798 0.000000
#
# Coordination Sequence:
#
# PCOD8289240 Si02
#       7
#    16  16  16  16  16  16  16
#     4   9  18  33  55  82 111 142 180 231 285 330
#     4   9  17  31  51  73 100 141 192 238 278 326
#     4  10  21  35  50  75 114 152 186 232 289 345
#     4  10  19  33  54  78 107 143 185 229 280 341
#     4   9  19  36  57  82 111 143 188 238 281 330
#     4  10  21  36  56  85 119 152 185 228 288 347
#     4  10  19  33  54  82 115 149 190 233 276 333
#
# _framework density 19.192858000000001
#
# number of rings (size 3 to 8) (size 9 to 14) (size 15 to 20)
#    0.000    2.429    1.429    0.857    0.000    3.429 
#    0.000    5.000    0.000    6.857    0.000    4.000 
#    0.000    0.000    0.000    0.000    0.000    0.000 
#
# Total GULP energy -693833.268403 kJ/mol
# GULP energy per Si atom -12389.879793 kJ/mol
# Density = 1.914917 g / cm^3
# Si number density = 19.192858 Si / 1000 Ang^3
#
#
#
# Elastic Constant Matrix: (Units=GPa)
#
#
# Indices 1 2 3 4 5 6 
#
# 1 48.9514 33.6034 22.3494 0.0000 0.0000 0.0000
# 2 33.6034 169.8968 68.1359 0.0000 0.0000 0.0000
# 3 22.3494 68.1359 105.1398 0.0000 0.0000 0.0000
# 4 0.0000 0.0000 0.0000 26.1402 0.0000 0.0000
# 5 0.0000 0.0000 0.0000 0.0000 23.0255 0.0000
# 6 0.0000 0.0000 0.0000 0.0000 0.0000 21.3755
#
#
#
# Elastic Compliance Matrix: (Units=1/GPa)
#
#
# Indices 1 2 3 4 5 6 
#
# 1 0.024217 -0.003682 -0.002761 0.000000 0.000000 0.000000
# 2 -0.003682 0.008513 -0.004734 0.000000 0.000000 0.000000
# 3 -0.002761 -0.004734 0.013166 0.000000 0.000000 0.000000
# 4 0.000000 0.000000 0.000000 0.038255 0.000000 0.000000
# 5 0.000000 0.000000 0.000000 0.000000 0.043430 0.000000
# 6 0.000000 0.000000 0.000000 0.000000 0.000000 0.046782
#
#
# Mechanical properties :
#
#
# Convention : Reuss Voigt Hill
#
# Bulk Modulus (GPa) = 42.48033 63.57393 53.02713
# Shear Modulus (GPa) = 24.44201 27.43487 25.93844
#
# Velocity S-wave (km/s) = 3.57248 3.78488 3.68021
# Velocity P-wave (km/s) = 6.26085 7.23160 6.76367
#
# Compressibility (1/GPa) = 0.02354030
#
# Stress axis : x y z
#
# Youngs Moduli (GPa) = 41.29325 117.47056 75.95337
#
# Poissons Ratio (x) = 0.43257 0.20974
# Poissons Ratio (y) = 0.15206 0.35956
# Poissons Ratio (z) = 0.11403 0.55610
#
# Static dielectric constant tensor:
#      x y z
#    x 3.335090 0.000000 0.000000 
#    y 0.000000 3.886160 0.000000 
#    z 0.000000 0.000000 3.571500 
# 
# 
# High freq. dielectric constant tensor:
#      x y z
#    x 1.717070 0.000000 0.000000 
#    y 0.000000 1.751580 0.000000 
#    z 0.000000 0.000000 1.740590 
# 
# From -- ./inp_files/61301.got.cif
#   From: 2010.06.25/outbox.cif.g09.slc.cpg/sg71_31_cif.got.tgz:61301.got - 2010.06.28 04:59:45.
