data_PCOD8289872
_publ_section_title
;
Structure prediction by ZEFSAII (Michael W. Deem and Ramdas Pophale) SiO2 
 PCOD8289872
Probable space group: I M M M
;
_chemical_formula_sum "Si O2"
_cell_formula_units_Z 80
_cell_length_a 18.502601
_cell_length_b 9.243914
_cell_length_c 26.521164
_cell_angle_alpha 90.000000
_cell_angle_beta 90.000000
_cell_angle_gamma 90.000000
_cell_volume 4536.085805
_symmetry_space_group_name_H-M "I M M M"
_symmetry_group_IT_number 71
_symmetry_cell_setting 'orthorhombic'
loop_
_space_group_symop_operation_xyz
x,y,z
-x,-y,z
x,-y,-z
-x,y,-z
-x,-y,-z
x,y,-z
-x,y,z
x,-y,z
1/2+x,1/2+y,1/2+z
1/2-x,1/2-y,1/2+z
1/2+x,1/2-y,1/2-z
1/2-x,1/2+y,1/2-z
1/2-x,1/2-y,1/2-z
1/2+x,1/2+y,1/2-z
1/2-x,1/2+y,1/2+z
1/2+x,1/2-y,1/2+z
loop_
_atom_site_type_symbol
_atom_site_label
_atom_site_fract_x
_atom_site_fract_y
_atom_site_fract_z
Si Si1 0.418143 0.831367 0.356409
Si Si2 0.082468 0.334735 0.441418
Si Si3 0.282448 0.163752 0.704026
Si Si4 0.789000 0.166047 0.401579
Si Si5 0.156269 0.167594 0.057661
O O1 0.500000 0.804082 0.337986
O O2 0.362626 0.780784 0.312535
O O3 0.404031 0.742487 0.407444
O O4 0.403587 0.000000 0.368748
O O5 0.094159 0.300797 0.500000
O O6 0.103969 0.500000 0.429744
O O7 0.130869 0.227336 0.408665
O O8 0.000000 0.306103 0.425767
O O9 0.250000 0.250000 0.750000
O O10 0.229055 0.181589 0.657094
O O11 0.288038 0.000000 0.722452
O O12 0.733798 0.257457 0.435456
O O13 0.785390 0.000000 0.419140
O O14 0.163402 0.000000 0.072761
O O15 0.131107 0.185081 0.000000
#
# Coordination Sequence:
#
# PCOD8289872 Si02
#       5
#    16  16  16  16  16
#     4   9  19  36  55  75 101 131 164 204 248 294
#     4   9  18  32  49  71 101 135 169 205 246 293
#     4   9  19  35  54  75  97 124 161 205 251 297
#     4  10  20  33  50  73 100 129 166 210 250 294
#     4  10  20  32  48  73 104 136 169 203 239 286
#
# _framework density 17.636351000000001
#
# number of rings (size 3 to 8) (size 9 to 14) (size 15 to 20)
#    0.000    2.600    0.000    3.600    0.000    9.600 
#    0.000    4.000    0.000    3.600    0.000    0.000 
#    0.000    0.000    0.000    0.000    0.000    0.000 
#
# Total GULP energy -496009.322734 kJ/mol
# GULP energy per Si atom -12400.233068 kJ/mol
# Density = 1.759621 g / cm^3
# Si number density = 17.636351 Si / 1000 Ang^3
#
#
#
# Elastic Constant Matrix: (Units=GPa)
#
#
# Indices 1 2 3 4 5 6 
#
# 1 128.4194 58.6432 55.6302 0.0000 0.0000 0.0000
# 2 58.6432 99.4294 54.0772 0.0000 0.0000 0.0000
# 3 55.6302 54.0772 86.4691 0.0000 0.0000 0.0000
# 4 0.0000 0.0000 0.0000 33.5071 0.0000 0.0000
# 5 0.0000 0.0000 0.0000 0.0000 18.2445 0.0000
# 6 0.0000 0.0000 0.0000 0.0000 0.0000 32.6015
#
#
#
# Elastic Compliance Matrix: (Units=1/GPa)
#
#
# Indices 1 2 3 4 5 6 
#
# 1 0.011911 -0.004330 -0.004955 0.000000 0.000000 0.000000
# 2 -0.004330 0.016816 -0.007731 0.000000 0.000000 0.000000
# 3 -0.004955 -0.007731 0.019587 0.000000 0.000000 0.000000
# 4 0.000000 0.000000 0.000000 0.029844 0.000000 0.000000
# 5 0.000000 0.000000 0.000000 0.000000 0.054811 0.000000
# 6 0.000000 0.000000 0.000000 0.000000 0.000000 0.030673
#
#
# Mechanical properties :
#
#
# Convention : Reuss Voigt Hill
#
# Bulk Modulus (GPa) = 70.01544 72.33546 71.17545
# Shear Modulus (GPa) = 24.69930 26.60177 25.65054
#
# Velocity S-wave (km/s) = 3.74635 3.88796 3.81781
# Velocity P-wave (km/s) = 7.64848 7.82681 7.73816
#
# Compressibility (1/GPa) = 0.01428256
#
# Stress axis : x y z
#
# Youngs Moduli (GPa) = 83.95801 59.46781 51.05368
#
# Poissons Ratio (x) = 0.25750 0.25296
# Poissons Ratio (y) = 0.36355 0.39468
# Poissons Ratio (z) = 0.41599 0.45973
#
# Static dielectric constant tensor:
#      x y z
#    x 3.331910 0.000000 0.000000 
#    y 0.000000 3.335550 0.000000 
#    z 0.000000 0.000000 3.033290 
# 
# 
# High freq. dielectric constant tensor:
#      x y z
#    x 1.684840 0.000000 0.000000 
#    y 0.000000 1.687680 0.000000 
#    z 0.000000 0.000000 1.661000 
# 
# From -- ./inp_files/8258.got.cif
#   From: 2010.06.25/outbox.cif.g09.slc.cpg/sg71_5_cif.got.tgz:8258.got - 2010.06.28 04:59:45.
