data_PCOD8289546
_publ_section_title
;
Structure prediction by ZEFSAII (Michael W. Deem and Ramdas Pophale) SiO2 
 PCOD8289546
Probable space group: I M M M
;
_chemical_formula_sum "Si O2"
_cell_formula_units_Z 56
_cell_length_a 33.197592
_cell_length_b 9.226042
_cell_length_c 10.294437
_cell_angle_alpha 90.000000
_cell_angle_beta 90.000000
_cell_angle_gamma 90.000000
_cell_volume 3153.004645
_symmetry_space_group_name_H-M "I M M M"
_symmetry_group_IT_number 71
_symmetry_cell_setting 'orthorhombic'
loop_
_space_group_symop_operation_xyz
x,y,z
-x,-y,z
x,-y,-z
-x,y,-z
-x,-y,-z
x,y,-z
-x,y,z
x,-y,z
1/2+x,1/2+y,1/2+z
1/2-x,1/2-y,1/2+z
1/2+x,1/2-y,1/2-z
1/2-x,1/2+y,1/2-z
1/2-x,1/2-y,1/2-z
1/2+x,1/2+y,1/2-z
1/2-x,1/2+y,1/2+z
1/2+x,1/2-y,1/2+z
loop_
_atom_site_type_symbol
_atom_site_label
_atom_site_fract_x
_atom_site_fract_y
_atom_site_fract_z
Si Si1 0.423154 0.166363 0.851347
Si Si2 0.500000 0.336297 0.154653
Si Si3 0.709866 0.171201 0.000000
Si Si4 0.163603 0.669563 0.753233
Si Si5 0.302144 0.327576 0.500000
O O1 0.459761 0.259511 0.791878
O O2 0.383695 0.196278 0.766782
O O3 0.436400 0.000000 0.843494
O O4 0.413566 0.209682 0.000000
O O5 0.500000 0.500000 0.205053
O O6 0.500000 0.324681 0.000000
O O7 0.687973 0.230216 0.871128
O O8 0.755823 0.223378 0.000000
O O9 0.705441 0.000000 0.000000
O O10 0.172816 0.500000 0.777883
O O11 0.176440 0.764188 0.874540
O O12 0.305915 0.500000 0.500000
#
# Coordination Sequence:
#
# PCOD8289546 Si02
#       5
#    16   8   8  16   8
#     4   9  16  29  51  76  99 129 172 216 253 295
#     4   9  17  27  43  72 109 138 159 198 256 312
#     4   9  18  35  57  78 101 132 178 226 262 301
#     4  10  19  35  57  77 101 137 179 220 258 302
#     4  11  23  35  49  76 111 142 171 212 265 317
#
# _framework density 17.760836000000001
#
# number of rings (size 3 to 8) (size 9 to 14) (size 15 to 20)
#    0.000    2.429    1.429    1.714    0.000    2.857 
#    0.000    2.143    0.000    0.857    0.000    6.000 
#    0.000    0.000    0.000    0.000    0.000    0.000 
#
# Total GULP energy -347223.410118 kJ/mol
# GULP energy per Si atom -12400.836076 kJ/mol
# Density = 1.772041 g / cm^3
# Si number density = 17.760836 Si / 1000 Ang^3
#
#
#
# Elastic Constant Matrix: (Units=GPa)
#
#
# Indices 1 2 3 4 5 6 
#
# 1 143.6091 70.4922 59.0522 0.0000 0.0000 0.0000
# 2 70.4922 82.9148 46.0793 0.0000 0.0000 0.0000
# 3 59.0522 46.0793 107.3629 0.0000 0.0000 0.0000
# 4 0.0000 0.0000 0.0000 14.5142 0.0000 0.0000
# 5 0.0000 0.0000 0.0000 0.0000 31.1084 0.0000
# 6 0.0000 0.0000 0.0000 0.0000 0.0000 29.8563
#
#
#
# Elastic Compliance Matrix: (Units=1/GPa)
#
#
# Indices 1 2 3 4 5 6 
#
# 1 0.012683 -0.009069 -0.003084 0.000000 0.000000 0.000000
# 2 -0.009069 0.022323 -0.004593 0.000000 0.000000 0.000000
# 3 -0.003084 -0.004593 0.012981 0.000000 0.000000 0.000000
# 4 0.000000 0.000000 0.000000 0.068898 0.000000 0.000000
# 5 0.000000 0.000000 0.000000 0.000000 0.032146 0.000000
# 6 0.000000 0.000000 0.000000 0.000000 0.000000 0.033494
#
#
# Mechanical properties :
#
#
# Convention : Reuss Voigt Hill
#
# Bulk Modulus (GPa) = 68.98049 76.12603 72.55326
# Shear Modulus (GPa) = 22.63998 25.64665 24.14331
#
# Velocity S-wave (km/s) = 3.57419 3.80412 3.69095
# Velocity P-wave (km/s) = 7.48037 7.88986 7.68784
#
# Compressibility (1/GPa) = 0.01449685
#
# Stress axis : x y z
#
# Youngs Moduli (GPa) = 78.84576 44.79622 77.03315
#
# Poissons Ratio (x) = 0.40626 0.23754
# Poissons Ratio (y) = 0.71506 0.35379
# Poissons Ratio (z) = 0.24313 0.20574
#
# Static dielectric constant tensor:
#      x y z
#    x 3.477490 0.000000 0.000000 
#    y 0.000000 3.155400 0.000000 
#    z 0.000000 0.000000 3.093110 
# 
# 
# High freq. dielectric constant tensor:
#      x y z
#    x 1.703520 0.000000 0.000000 
#    y 0.000000 1.672580 0.000000 
#    z 0.000000 0.000000 1.658180 
# 
# From -- ./inp_files/29404.got.cif
#   From: 2010.06.25/outbox.cif.g09.slc.cpg/sg71_15_cif.got.tgz:29404.got - 2010.06.28 04:59:45.
