data_PCOD8289847
_publ_section_title
;
Structure prediction by ZEFSAII (Michael W. Deem and Ramdas Pophale) SiO2 
 PCOD8289847
Probable space group: I M M M
;
_chemical_formula_sum "Si O2"
_cell_formula_units_Z 104
_cell_length_a 9.514367
_cell_length_b 22.716593
_cell_length_c 27.198806
_cell_angle_alpha 90.000000
_cell_angle_beta 90.000000
_cell_angle_gamma 90.000000
_cell_volume 5878.586812
_symmetry_space_group_name_H-M "I M M M"
_symmetry_group_IT_number 71
_symmetry_cell_setting 'orthorhombic'
loop_
_space_group_symop_operation_xyz
x,y,z
-x,-y,z
x,-y,-z
-x,y,-z
-x,-y,-z
x,y,-z
-x,y,z
x,-y,z
1/2+x,1/2+y,1/2+z
1/2-x,1/2-y,1/2+z
1/2+x,1/2-y,1/2-z
1/2-x,1/2+y,1/2-z
1/2-x,1/2-y,1/2-z
1/2+x,1/2+y,1/2-z
1/2-x,1/2+y,1/2+z
1/2+x,1/2-y,1/2+z
loop_
_atom_site_type_symbol
_atom_site_label
_atom_site_fract_x
_atom_site_fract_y
_atom_site_fract_z
Si Si1 0.341431 0.430369 0.910903
Si Si2 0.339934 0.758532 0.798895
Si Si3 0.657669 0.929728 0.500000
Si Si4 0.341033 0.627816 0.812835
Si Si5 0.838742 0.631024 0.638146
Si Si6 0.664209 0.567499 0.556791
Si Si7 0.160881 0.565712 0.735282
O O1 0.500000 0.406837 0.919877
O O2 0.339969 0.500000 0.911445
O O3 0.281782 0.408324 0.859014
O O4 0.239324 0.405070 0.952650
O O5 0.500000 0.775264 0.783708
O O6 0.250000 0.750000 0.750000
O O7 0.334272 0.696406 0.827022
O O8 0.282288 0.808632 0.836109
O O9 0.500000 0.904382 0.500000
O O10 0.656078 0.000000 0.500000
O O11 0.500000 0.608293 0.800698
O O12 0.248349 0.613620 0.765354
O O13 0.748199 0.613635 0.590624
O O14 0.824052 0.578744 0.677604
O O15 0.000000 0.639171 0.621253
O O16 0.697380 0.582483 0.500000
O O17 0.500000 0.575509 0.567773
O O18 0.709357 0.500000 0.567936
O O19 0.218307 0.500000 0.745231
O O20 0.000000 0.571229 0.752056
#
# Coordination Sequence:
#
# PCOD8289847 Si02
#       7
#    16  16   8  16  16  16  16
#     4   9  17  30  48  70  97 127 159 199 249 299
#     4  10  20  35  54  75 101 135 176 215 249 294
#     4   9  17  29  47  71  95 121 157 197 238 291
#     4  10  20  33  51  74  99 131 172 213 251 295
#     4  10  20  34  53  77 106 140 177 214 257 313
#     4   9  19  36  57  82 110 138 173 220 271 321
#     4  10  20  32  47  72 107 140 167 203 254 307
#
# _framework density 17.691327000000001
#
# number of rings (size 3 to 8) (size 9 to 14) (size 15 to 20)
#    0.000    2.385    1.538    1.615    0.000    4.923 
#    0.000    2.308    1.692    0.000    0.000    0.000 
#    0.000    0.000    0.000    0.000    0.000    0.000 
#
# Total GULP energy -644722.660439 kJ/mol
# GULP energy per Si atom -12398.512701 kJ/mol
# Density = 1.765106 g / cm^3
# Si number density = 17.691327 Si / 1000 Ang^3
#
#
#
# Elastic Constant Matrix: (Units=GPa)
#
#
# Indices 1 2 3 4 5 6 
#
# 1 75.3106 31.9921 58.1023 0.0000 0.0000 0.0000
# 2 31.9921 77.6604 34.6190 0.0000 0.0000 0.0000
# 3 58.1023 34.6190 107.0073 0.0000 0.0000 0.0000
# 4 0.0000 0.0000 0.0000 25.2990 0.0000 0.0000
# 5 0.0000 0.0000 0.0000 0.0000 30.8501 0.0000
# 6 0.0000 0.0000 0.0000 0.0000 0.0000 22.9793
#
#
#
# Elastic Compliance Matrix: (Units=1/GPa)
#
#
# Indices 1 2 3 4 5 6 
#
# 1 0.024306 -0.004826 -0.011636 0.000000 0.000000 0.000000
# 2 -0.004826 0.016005 -0.002558 0.000000 0.000000 0.000000
# 3 -0.011636 -0.002558 0.016491 0.000000 0.000000 0.000000
# 4 0.000000 0.000000 0.000000 0.039527 0.000000 0.000000
# 5 0.000000 0.000000 0.000000 0.000000 0.032415 0.000000
# 6 0.000000 0.000000 0.000000 0.000000 0.000000 0.043518
#
#
# Mechanical properties :
#
#
# Convention : Reuss Voigt Hill
#
# Bulk Modulus (GPa) = 53.29868 56.60057 54.94962
# Shear Modulus (GPa) = 23.08901 24.84333 23.96617
#
# Velocity S-wave (km/s) = 3.61654 3.75142 3.68460
# Velocity P-wave (km/s) = 6.90156 7.12931 7.01636
#
# Compressibility (1/GPa) = 0.01876219
#
# Stress axis : x y z
#
# Youngs Moduli (GPa) = 41.14289 62.48204 60.64013
#
# Poissons Ratio (x) = 0.30151 0.70562
# Poissons Ratio (y) = 0.19854 0.15510
# Poissons Ratio (z) = 0.47874 0.15981
#
# Static dielectric constant tensor:
#      x y z
#    x 3.282450 0.000000 0.000000 
#    y 0.000000 3.273070 0.000000 
#    z 0.000000 0.000000 3.182380 
# 
# 
# High freq. dielectric constant tensor:
#      x y z
#    x 1.679930 0.000000 0.000000 
#    y 0.000000 1.673430 0.000000 
#    z 0.000000 0.000000 1.676030 
# 
# From -- ./inp_files/61986.got.cif
#   From: 2010.06.25/outbox.cif.g09.slc.cpg/sg71_31_cif.got.tgz:61986.got - 2010.06.28 04:59:45.
