data_PCOD8289434
_publ_section_title
;
Structure prediction by ZEFSAII (Michael W. Deem and Ramdas Pophale) SiO2 
 PCOD8289434
Probable space group: I M M M
;
_chemical_formula_sum "Si O2"
_cell_formula_units_Z 120
_cell_length_a 16.386153
_cell_length_b 21.474814
_cell_length_c 18.603415
_cell_angle_alpha 90.000000
_cell_angle_beta 90.000000
_cell_angle_gamma 90.000000
_cell_volume 6546.348037
_symmetry_space_group_name_H-M "I M M M"
_symmetry_group_IT_number 71
_symmetry_cell_setting 'orthorhombic'
loop_
_space_group_symop_operation_xyz
x,y,z
-x,-y,z
x,-y,-z
-x,y,-z
-x,-y,-z
x,y,-z
-x,y,z
x,-y,z
1/2+x,1/2+y,1/2+z
1/2-x,1/2-y,1/2+z
1/2+x,1/2-y,1/2-z
1/2-x,1/2+y,1/2-z
1/2-x,1/2-y,1/2-z
1/2+x,1/2+y,1/2-z
1/2-x,1/2+y,1/2+z
1/2+x,1/2-y,1/2+z
loop_
_atom_site_type_symbol
_atom_site_label
_atom_site_fract_x
_atom_site_fract_y
_atom_site_fract_z
Si Si1 0.409538 0.314443 0.584281
Si Si2 0.500000 0.570906 0.915372
Si Si3 0.744775 0.757847 0.082287
Si Si4 0.588017 0.926943 0.216377
Si Si5 0.329722 0.630477 0.914933
Si Si6 0.659644 0.429572 0.346239
Si Si7 0.178815 0.607779 0.417982
Si Si8 0.745054 0.927702 0.290167
O O1 0.393930 0.326863 0.500000
O O2 0.500000 0.285514 0.597516
O O3 0.336974 0.269078 0.614103
O O4 0.406957 0.381333 0.623893
O O5 0.500000 0.500000 0.882396
O O6 0.421064 0.610738 0.891198
O O7 0.500000 0.563738 0.000000
O O8 0.693710 0.699553 0.114330
O O9 0.690687 0.818546 0.093894
O O10 0.756990 0.740758 0.000000
O O11 0.500000 0.897103 0.236065
O O12 0.605297 0.913846 0.132392
O O13 0.658447 0.896453 0.266894
O O14 0.583539 0.000000 0.228848
O O15 0.267052 0.586257 0.872518
O O16 0.317396 0.620988 0.000000
O O17 0.623863 0.500000 0.346137
O O18 0.739139 0.428699 0.397105
O O19 0.684292 0.406918 0.265653
O O20 0.155910 0.592526 0.500000
O O21 0.732645 0.000000 0.279486
#
# Coordination Sequence:
#
# PCOD8289434 Si02
#       8
#    16   8  16  16  16  16  16  16
#     4   9  17  30  48  69  98 137 178 216 247 280
#     4   9  18  32  52  80 106 120 142 192 250 300
#     4   8  16  31  49  70  98 132 166 202 251 299
#     4   9  18  32  48  68  98 134 169 207 250 293
#     4  10  19  34  56  78  99 126 160 197 241 303
#     4   9  17  29  44  67  99 134 170 208 258 309
#     4   9  16  28  46  69  96 131 172 212 251 293
#     4   9  18  33  52  72  97 130 161 195 250 309
#
# _framework density 18.330831
#
# number of rings (size 3 to 8) (size 9 to 14) (size 15 to 20)
#    0.000    3.000    0.000    2.800    0.000    3.200 
#    2.400    8.000    0.000    1.200    0.000    1.867 
#    0.000    0.000    0.000    0.000    0.000    0.000 
#
# Total GULP energy -743331.140275 kJ/mol
# GULP energy per Si atom -12388.852338 kJ/mol
# Density = 1.828911 g / cm^3
# Si number density = 18.330831 Si / 1000 Ang^3
#
#
#
# Elastic Constant Matrix: (Units=GPa)
#
#
# Indices 1 2 3 4 5 6 
#
# 1 110.7836 37.4682 35.5893 0.0000 0.0000 0.0000
# 2 37.4682 51.8932 9.0996 0.0000 0.0000 0.0000
# 3 35.5893 9.0996 68.5090 0.0001 0.0000 0.0000
# 4 0.0000 0.0000 0.0001 16.9380 0.0000 0.0000
# 5 0.0000 0.0000 0.0000 0.0000 15.0021 0.0000
# 6 0.0000 0.0000 0.0000 0.0000 0.0000 23.1103
#
#
#
# Elastic Compliance Matrix: (Units=1/GPa)
#
#
# Indices 1 2 3 4 5 6 
#
# 1 0.014056 -0.009080 -0.006096 0.000000 0.000000 0.000000
# 2 -0.009080 0.025595 0.001317 0.000000 0.000000 0.000000
# 3 -0.006096 0.001317 0.017588 0.000000 0.000000 0.000000
# 4 0.000000 0.000000 0.000000 0.059039 0.000000 0.000000
# 5 0.000000 0.000000 0.000000 0.000000 0.066657 0.000000
# 6 0.000000 0.000000 0.000000 0.000000 0.000000 0.043271
#
#
# Mechanical properties :
#
#
# Convention : Reuss Voigt Hill
#
# Bulk Modulus (GPa) = 33.87235 43.94444 38.90840
# Shear Modulus (GPa) = 18.95639 20.94534 19.95086
#
# Velocity S-wave (km/s) = 3.21927 3.38395 3.30264
# Velocity P-wave (km/s) = 5.68654 6.26842 5.98456
#
# Compressibility (1/GPa) = 0.02952260
#
# Stress axis : x y z
#
# Youngs Moduli (GPa) = 71.14549 39.06990 56.85591
#
# Poissons Ratio (x) = 0.35474 0.34658
# Poissons Ratio (y) = 0.64598 -0.07489
# Poissons Ratio (z) = 0.43368 -0.05146
#
# Static dielectric constant tensor:
#      x y z
#    x 3.569820 0.000000 0.000000 
#    y 0.000000 3.342350 0.000000 
#    z 0.000000 0.000000 3.208530 
# 
# 
# High freq. dielectric constant tensor:
#      x y z
#    x 1.703380 0.000000 0.000000 
#    y 0.000000 1.691890 0.000000 
#    z 0.000000 0.000000 1.688410 
# 
# From -- ./inp_files/46481.got.cif
#   From: 2010.06.25/outbox.cif.g09.slc.cpg/sg71_24_cif.got.tgz:46481.got - 2010.06.28 04:59:45.
