data_PCOD8289218
_publ_section_title
;
Structure prediction by ZEFSAII (Michael W. Deem and Ramdas Pophale) SiO2 
 PCOD8289218
Probable space group: I M M M
;
_chemical_formula_sum "Si O2"
_cell_formula_units_Z 104
_cell_length_a 27.201427
_cell_length_b 11.738848
_cell_length_c 17.051667
_cell_angle_alpha 90.000000
_cell_angle_beta 90.000000
_cell_angle_gamma 90.000000
_cell_volume 5444.826054
_symmetry_space_group_name_H-M "I M M M"
_symmetry_group_IT_number 71
_symmetry_cell_setting 'orthorhombic'
loop_
_space_group_symop_operation_xyz
x,y,z
-x,-y,z
x,-y,-z
-x,y,-z
-x,-y,-z
x,y,-z
-x,y,z
x,-y,z
1/2+x,1/2+y,1/2+z
1/2-x,1/2-y,1/2+z
1/2+x,1/2-y,1/2-z
1/2-x,1/2+y,1/2-z
1/2-x,1/2-y,1/2-z
1/2+x,1/2+y,1/2-z
1/2-x,1/2+y,1/2+z
1/2+x,1/2-y,1/2+z
loop_
_atom_site_type_symbol
_atom_site_label
_atom_site_fract_x
_atom_site_fract_y
_atom_site_fract_z
Si Si1 0.683333 0.629806 0.588115
Si Si2 0.768712 0.237124 0.660871
Si Si3 0.642666 0.132719 0.909395
Si Si4 0.000000 0.865621 0.085045
Si Si5 0.200064 0.000000 0.595117
Si Si6 0.556504 0.269285 0.846632
Si Si7 0.589685 0.633513 0.310556
Si Si8 0.910908 0.000000 0.410164
O O1 0.663004 0.649170 0.500000
O O2 0.700422 0.500000 0.599208
O O3 0.729993 0.707864 0.601813
O O4 0.641790 0.660039 0.650949
O O5 0.750000 0.250000 0.750000
O O6 0.820724 0.299792 0.647983
O O7 0.773182 0.106893 0.634710
O O8 0.586960 0.174797 0.894256
O O9 0.645841 0.000000 0.889947
O O10 0.656249 0.157838 0.000000
O O11 0.951524 0.826049 0.129184
O O12 0.000000 0.000000 0.076059
O O13 0.000000 0.806864 0.000000
O O14 0.143847 0.000000 0.627455
O O15 0.204870 0.000000 0.500000
O O16 0.500000 0.228878 0.838305
O O17 0.583127 0.285911 0.763601
O O18 0.557157 0.390121 0.889900
O O19 0.583686 0.500000 0.287145
O O20 0.898792 0.000000 0.500000
#
# Coordination Sequence:
#
# PCOD8289218 Si02
#       8
#    16  16  16   8   8  16  16   8
#     4  10  21  36  58  86 120 161 206 252 302 365
#     4  12  25  40  65  93 126 160 204 257 310 368
#     4  11  25  45  66  86 119 163 207 253 309 374
#     4   9  16  28  50  78 117 160 195 233 292 362
#     4  11  24  43  66  91 126 166 205 253 315 378
#     4  12  23  37  60  89 122 157 201 255 310 365
#     4  10  19  33  53  84 123 157 197 245 302 358
#     4  11  23  38  59  86 119 159 202 249 307 374
#
# _framework density 19.100701999999998
#
# number of rings (size 3 to 8) (size 9 to 14) (size 15 to 20)
#    0.000    1.154    3.077    3.923    2.154    4.923 
#    0.000    0.769    0.000    0.000    0.000    0.000 
#    0.000    0.615    0.000    0.000    0.000    0.000 
#
# Total GULP energy -644869.470162 kJ/mol
# GULP energy per Si atom -12401.335965 kJ/mol
# Density = 1.905723 g / cm^3
# Si number density = 19.100702 Si / 1000 Ang^3
#
#
#
# Elastic Constant Matrix: (Units=GPa)
#
#
# Indices 1 2 3 4 5 6 
#
# 1 115.1197 46.5364 31.3419 0.0000 0.0000 0.0000
# 2 46.5364 101.7824 43.1269 0.0000 0.0000 0.0000
# 3 31.3419 43.1269 95.5868 0.0000 0.0000 0.0000
# 4 0.0000 0.0000 0.0000 27.0450 0.0000 0.0000
# 5 0.0000 0.0000 0.0000 0.0000 34.1505 0.0000
# 6 0.0000 0.0000 0.0000 0.0000 0.0000 26.4285
#
#
#
# Elastic Compliance Matrix: (Units=1/GPa)
#
#
# Indices 1 2 3 4 5 6 
#
# 1 0.010858 -0.004273 -0.001633 0.000000 0.000000 0.000000
# 2 -0.004273 0.013829 -0.004838 0.000000 0.000000 0.000000
# 3 -0.001633 -0.004838 0.013180 0.000000 0.000000 0.000000
# 4 0.000000 0.000000 0.000000 0.036975 0.000000 0.000000
# 5 0.000000 0.000000 0.000000 0.000000 0.029282 0.000000
# 6 0.000000 0.000000 0.000000 0.000000 0.000000 0.037838
#
#
# Mechanical properties :
#
#
# Convention : Reuss Voigt Hill
#
# Bulk Modulus (GPa) = 61.05119 61.61103 61.33111
# Shear Modulus (GPa) = 29.60172 30.29037 29.94605
#
# Velocity S-wave (km/s) = 3.94098 3.98656 3.96384
# Velocity P-wave (km/s) = 7.26228 7.31547 7.28892
#
# Compressibility (1/GPa) = 0.01637970
#
# Stress axis : x y z
#
# Youngs Moduli (GPa) = 92.09500 72.31442 75.87343
#
# Poissons Ratio (x) = 0.30899 0.12386
# Poissons Ratio (y) = 0.39351 0.36708
# Poissons Ratio (z) = 0.15035 0.34987
#
# Static dielectric constant tensor:
#      x y z
#    x 3.550570 0.000000 0.000000 
#    y 0.000000 3.258130 0.000000 
#    z 0.000000 0.000000 3.687310 
# 
# 
# High freq. dielectric constant tensor:
#      x y z
#    x 1.752930 0.000000 0.000000 
#    y 0.000000 1.711830 0.000000 
#    z 0.000000 0.000000 1.758850 
# 
# From -- ./inp_files/48904.got.cif
#   From: 2010.06.25/outbox.cif.g09.slc.cpg/sg71_25_cif.got.tgz:48904.got - 2010.06.28 04:59:45.
