data_PCOD8289632
_publ_section_title
;
Structure prediction by ZEFSAII (Michael W. Deem and Ramdas Pophale) SiO2 
 PCOD8289632
Probable space group: I M M M
;
_chemical_formula_sum "Si O2"
_cell_formula_units_Z 88
_cell_length_a 26.212960
_cell_length_b 13.447083
_cell_length_c 12.922520
_cell_angle_alpha 90.000000
_cell_angle_beta 90.000000
_cell_angle_gamma 90.000000
_cell_volume 4555.031276
_symmetry_space_group_name_H-M "I M M M"
_symmetry_group_IT_number 71
_symmetry_cell_setting 'orthorhombic'
loop_
_space_group_symop_operation_xyz
x,y,z
-x,-y,z
x,-y,-z
-x,y,-z
-x,-y,-z
x,y,-z
-x,y,z
x,-y,z
1/2+x,1/2+y,1/2+z
1/2-x,1/2-y,1/2+z
1/2+x,1/2-y,1/2-z
1/2-x,1/2+y,1/2-z
1/2-x,1/2-y,1/2-z
1/2+x,1/2+y,1/2-z
1/2-x,1/2+y,1/2+z
1/2+x,1/2-y,1/2+z
loop_
_atom_site_type_symbol
_atom_site_label
_atom_site_fract_x
_atom_site_fract_y
_atom_site_fract_z
Si Si1 0.290429 0.170969 0.211729
Si Si2 0.773340 0.000000 0.881245
Si Si3 0.652555 0.500000 0.807537
Si Si4 0.133149 0.611153 0.882741
Si Si5 0.559152 0.716917 0.310461
Si Si6 0.627273 0.300877 0.883824
Si Si7 0.557194 0.500000 0.691605
O O1 0.250000 0.250000 0.250000
O O2 0.316877 0.123405 0.312410
O O3 0.334668 0.211127 0.138007
O O4 0.260975 0.094607 0.140268
O O5 0.821988 0.000000 0.805757
O O6 0.792631 0.000000 0.000000
O O7 0.663402 0.399267 0.870169
O O8 0.591759 0.500000 0.792799
O O9 0.110046 0.500000 0.862900
O O10 0.090547 0.696224 0.866356
O O11 0.152504 0.620710 0.000000
O O12 0.500000 0.748454 0.310018
O O13 0.579183 0.705121 0.193069
O O14 0.566376 0.607274 0.367426
O O15 0.605963 0.294418 0.000000
O O16 0.500000 0.500000 0.734056
#
# Coordination Sequence:
#
# PCOD8289632 Si02
#       7
#    16   8   8  16  16  16   8
#     4  11  22  41  57  83 119 151 199 241 291 351
#     4  12  24  39  59  83 115 157 197 238 295 359
#     4  10  19  36  54  86 118 145 199 244 286 346
#     4  10  22  40  63  87 117 155 199 249 299 352
#     4   9  19  36  59  86 119 153 194 244 293 356
#     4  10  20  35  57  83 115 153 191 240 296 346
#     4   8  16  35  57  78 115 155 181 231 297 343
#
# _framework density 19.319296000000001
#
# number of rings (size 3 to 8) (size 9 to 14) (size 15 to 20)
#    0.000    2.000    2.727    0.818    0.000    2.545 
#    0.000    1.364    0.000    8.455    0.000    2.545 
#    0.000    0.000    0.000    0.000    0.000    0.000 
#
# Total GULP energy -545076.077118 kJ/mol
# GULP energy per Si atom -12388.092662 kJ/mol
# Density = 1.927532 g / cm^3
# Si number density = 19.319296 Si / 1000 Ang^3
#
#
#
# Elastic Constant Matrix: (Units=GPa)
#
#
# Indices 1 2 3 4 5 6 
#
# 1 68.4388 30.9465 20.3139 0.0000 0.0000 0.0000
# 2 30.9465 133.4843 37.7521 0.0000 0.0000 0.0000
# 3 20.3139 37.7521 109.3679 0.0000 0.0000 0.0000
# 4 0.0000 0.0000 0.0000 13.2209 0.0000 0.0000
# 5 0.0000 0.0000 0.0000 0.0000 16.6624 0.0000
# 6 0.0000 0.0000 0.0000 0.0000 0.0000 20.8597
#
#
#
# Elastic Compliance Matrix: (Units=1/GPa)
#
#
# Indices 1 2 3 4 5 6 
#
# 1 0.016692 -0.003317 -0.001955 0.000000 0.000000 0.000000
# 2 -0.003317 0.008961 -0.002477 0.000000 0.000000 0.000000
# 3 -0.001955 -0.002477 0.010362 0.000000 0.000000 0.000000
# 4 0.000000 0.000000 0.000000 0.075638 0.000000 0.000000
# 5 0.000000 0.000000 0.000000 0.000000 0.060015 0.000000
# 6 0.000000 0.000000 0.000000 0.000000 0.000000 0.047939
#
#
# Mechanical properties :
#
#
# Convention : Reuss Voigt Hill
#
# Bulk Modulus (GPa) = 48.74272 54.36846 51.55559
# Shear Modulus (GPa) = 20.66591 24.96717 22.81654
#
# Velocity S-wave (km/s) = 3.27418 3.59882 3.44033
# Velocity P-wave (km/s) = 6.29115 6.74328 6.52113
#
# Compressibility (1/GPa) = 0.02051588
#
# Stress axis : x y z
#
# Youngs Moduli (GPa) = 59.90987 111.59411 96.50897
#
# Poissons Ratio (x) = 0.37013 0.18872
# Poissons Ratio (y) = 0.19870 0.23907
# Poissons Ratio (z) = 0.11715 0.27644
#
# Static dielectric constant tensor:
#      x y z
#    x 3.451480 0.000000 0.000000 
#    y 0.000000 4.030180 0.000000 
#    z 0.000000 0.000000 3.290360 
# 
# 
# High freq. dielectric constant tensor:
#      x y z
#    x 1.745610 0.000000 0.000000 
#    y 0.000000 1.775820 0.000000 
#    z 0.000000 0.000000 1.729500 
# 
# From -- ./inp_files/28663.got.cif
#   From: 2010.06.25/outbox.cif.g09.slc.cpg/sg71_15_cif.got.tgz:28663.got - 2010.06.28 04:59:45.
