data_PCOD8289932
_publ_section_title
;
Structure prediction by ZEFSAII (Michael W. Deem and Ramdas Pophale) SiO2 
 PCOD8289932
Probable space group: I M M M
;
_chemical_formula_sum "Si O2"
_cell_formula_units_Z 104
_cell_length_a 33.323894
_cell_length_b 9.218702
_cell_length_c 17.550054
_cell_angle_alpha 90.000000
_cell_angle_beta 90.000000
_cell_angle_gamma 90.000000
_cell_volume 5391.430086
_symmetry_space_group_name_H-M "I M M M"
_symmetry_group_IT_number 71
_symmetry_cell_setting 'orthorhombic'
loop_
_space_group_symop_operation_xyz
x,y,z
-x,-y,z
x,-y,-z
-x,y,-z
-x,-y,-z
x,y,-z
-x,y,z
x,-y,z
1/2+x,1/2+y,1/2+z
1/2-x,1/2-y,1/2+z
1/2+x,1/2-y,1/2-z
1/2-x,1/2+y,1/2-z
1/2-x,1/2-y,1/2-z
1/2+x,1/2+y,1/2-z
1/2-x,1/2+y,1/2+z
1/2+x,1/2-y,1/2+z
loop_
_atom_site_type_symbol
_atom_site_label
_atom_site_fract_x
_atom_site_fract_y
_atom_site_fract_z
Si Si1 0.659479 0.342897 0.588075
Si Si2 0.500000 0.838360 0.591381
Si Si3 0.876118 0.170908 0.589738
Si Si4 0.955408 0.663817 0.590319
Si Si5 0.723971 0.167143 0.341842
Si Si6 0.572916 0.665574 0.587755
Si Si7 0.197478 0.329257 0.328677
O O1 0.650563 0.363188 0.500000
O O2 0.675213 0.500000 0.620123
O O3 0.690123 0.212106 0.598538
O O4 0.616398 0.305809 0.626567
O O5 0.500000 0.825830 0.500000
O O6 0.539266 0.763551 0.627919
O O7 0.500000 0.000000 0.621488
O O8 0.869231 0.203317 0.500000
O O9 0.919490 0.230527 0.618151
O O10 0.841681 0.250540 0.638504
O O11 0.874417 0.000000 0.606468
O O12 0.956005 0.666021 0.500000
O O13 0.946641 0.500000 0.619110
O O14 0.000000 0.714350 0.619477
O O15 0.762637 0.261065 0.365694
O O16 0.703706 0.202980 0.260708
O O17 0.735719 0.000000 0.349912
O O18 0.574582 0.711686 0.500000
O O19 0.559758 0.500000 0.597193
O O20 0.194782 0.500000 0.346803
#
# Coordination Sequence:
#
# PCOD8289932 Si02
#       7
#    16   8  16  16  16  16  16
#     4   9  18  32  50  73  99 128 162 197 240 296
#     4   9  15  21  33  57  87 117 149 187 232 275
#     4  10  20  32  49  77 109 137 169 212 257 297
#     4   8  14  26  45  70 102 139 174 205 242 294
#     4  10  21  36  54  75  97 125 164 209 254 299
#     4   8  14  25  40  59  86 119 153 186 222 273
#     4  10  21  37  55  73  96 130 170 206 246 302
#
# _framework density 19.289871999999999
#
# number of rings (size 3 to 8) (size 9 to 14) (size 15 to 20)
#    0.000    2.846    0.000    3.000    0.000    5.538 
#    0.000    3.077    0.000    0.000    2.000    0.000 
#    0.000    0.000    0.000    0.000    0.000    0.000 
#
# Total GULP energy -644278.076998 kJ/mol
# GULP energy per Si atom -12389.963019 kJ/mol
# Density = 1.924597 g / cm^3
# Si number density = 19.289872 Si / 1000 Ang^3
#
#
#
# Elastic Constant Matrix: (Units=GPa)
#
#
# Indices 1 2 3 4 5 6 
#
# 1 177.3034 92.3221 29.2424 0.0000 0.0000 0.0000
# 2 92.3221 116.5662 20.4150 0.0000 0.0000 0.0000
# 3 29.2424 20.4150 14.9182 0.0000 0.0000 0.0000
# 4 0.0000 0.0000 0.0000 19.7030 0.0000 0.0000
# 5 0.0000 0.0000 0.0000 0.0000 11.7727 0.0000
# 6 0.0000 0.0000 0.0000 0.0000 0.0000 31.8293
#
#
#
# Elastic Compliance Matrix: (Units=1/GPa)
#
#
# Indices 1 2 3 4 5 6 
#
# 1 0.011221 -0.006622 -0.012934 0.000000 0.000000 0.000000
# 2 -0.006622 0.015191 -0.007807 0.000000 0.000000 0.000000
# 3 -0.012934 -0.007807 0.103068 0.000000 0.000000 0.000000
# 4 0.000000 0.000000 0.000000 0.050754 0.000000 0.000000
# 5 0.000000 0.000000 0.000000 0.000000 0.084942 0.000000
# 6 0.000000 0.000000 0.000000 0.000000 0.000000 0.031418
#
#
# Mechanical properties :
#
#
# Convention : Reuss Voigt Hill
#
# Bulk Modulus (GPa) = 13.37719 65.86074 39.61897
# Shear Modulus (GPa) = 13.28941 23.78155 18.53548
#
# Velocity S-wave (km/s) = 2.62760 3.51501 3.10319
# Velocity P-wave (km/s) = 4.01940 7.11972 5.78127
#
# Compressibility (1/GPa) = 0.07475411
#
# Stress axis : x y z
#
# Youngs Moduli (GPa) = 89.11494 65.82739 9.70231
#
# Poissons Ratio (x) = 0.43594 0.12549
# Poissons Ratio (y) = 0.59016 0.07575
# Poissons Ratio (z) = 1.15257 0.51394
#
# Static dielectric constant tensor:
#      x y z
#    x 3.925610 0.000000 0.000000 
#    y 0.000000 3.554000 0.000000 
#    z 0.000000 0.000000 2.970180 
# 
# 
# High freq. dielectric constant tensor:
#      x y z
#    x 1.770540 0.000000 0.000000 
#    y 0.000000 1.754430 0.000000 
#    z 0.000000 0.000000 1.689010 
# 
# From -- ./inp_files/56688.got.cif
#   From: 2010.06.25/outbox.cif.g09.slc.cpg/sg71_29_cif.got.tgz:56688.got - 2010.06.28 04:59:45.
