data_PCOD8289839
_publ_section_title
;
Structure prediction by ZEFSAII (Michael W. Deem and Ramdas Pophale) SiO2 
 PCOD8289839
Probable space group: I M M M
;
_chemical_formula_sum "Si O2"
_cell_formula_units_Z 112
_cell_length_a 18.973547
_cell_length_b 17.787245
_cell_length_c 18.422515
_cell_angle_alpha 90.000000
_cell_angle_beta 90.000000
_cell_angle_gamma 90.000000
_cell_volume 6217.361696
_symmetry_space_group_name_H-M "I M M M"
_symmetry_group_IT_number 71
_symmetry_cell_setting 'orthorhombic'
loop_
_space_group_symop_operation_xyz
x,y,z
-x,-y,z
x,-y,-z
-x,y,-z
-x,-y,-z
x,y,-z
-x,y,z
x,-y,z
1/2+x,1/2+y,1/2+z
1/2-x,1/2-y,1/2+z
1/2+x,1/2-y,1/2-z
1/2-x,1/2+y,1/2-z
1/2-x,1/2-y,1/2-z
1/2+x,1/2+y,1/2-z
1/2-x,1/2+y,1/2+z
1/2+x,1/2-y,1/2+z
loop_
_atom_site_type_symbol
_atom_site_label
_atom_site_fract_x
_atom_site_fract_y
_atom_site_fract_z
Si Si1 0.137342 0.910834 0.918810
Si Si2 0.420345 0.837945 0.668675
Si Si3 0.924318 0.588523 0.319130
Si Si4 0.196273 0.913875 0.293219
Si Si5 0.300708 0.912504 0.416914
Si Si6 0.080078 0.172351 0.786413
Si Si7 0.222792 0.413455 0.647699
O O1 0.084644 0.874193 0.861527
O O2 0.217075 0.879067 0.904758
O O3 0.135605 0.000000 0.906234
O O4 0.113827 0.889036 0.000000
O O5 0.500000 0.832700 0.637381
O O6 0.416349 0.897212 0.733766
O O7 0.369055 0.864065 0.604448
O O8 0.395538 0.757174 0.698715
O O9 0.924565 0.500000 0.330500
O O10 0.855816 0.623216 0.361299
O O11 0.000000 0.622165 0.347110
O O12 0.232778 0.889590 0.368636
O O13 0.128652 0.862063 0.277040
O O14 0.254393 0.902438 0.230922
O O15 0.170150 0.000000 0.295605
O O16 0.281520 0.894783 0.500000
O O17 0.318641 0.000000 0.404892
O O18 0.000000 0.169370 0.758312
O O19 0.215636 0.500000 0.627335
#
# Coordination Sequence:
#
# PCOD8289839 Si02
#       7
#    16  16  16  16  16  16  16
#     4   9  18  32  49  68  92 123 157 194 238 293
#     4  10  20  32  47  71 103 133 161 197 241 290
#     4   9  15  25  45  69  92 121 158 196 232 273
#     4   9  17  32  52  73  97 125 166 215 253 293
#     4  10  20  34  52  73 101 138 174 208 249 295
#     4  10  21  34  50  73 100 129 161 202 252 299
#     4   8  13  25  45  67  89 115 151 195 238 273
#
# _framework density 18.014073
#
# number of rings (size 3 to 8) (size 9 to 14) (size 15 to 20)
#    0.000    2.714    1.429    1.714    0.000    3.714 
#    0.000    2.857    0.000    0.857    0.000    5.000 
#    0.000    3.429    0.000    0.143    0.000    0.000 
#
# Total GULP energy -693939.083144 kJ/mol
# GULP energy per Si atom -12391.769342 kJ/mol
# Density = 1.797307 g / cm^3
# Si number density = 18.014073 Si / 1000 Ang^3
#
#
#
# Elastic Constant Matrix: (Units=GPa)
#
#
# Indices 1 2 3 4 5 6 
#
# 1 100.6609 45.6673 33.4430 0.0000 0.0000 0.0000
# 2 45.6673 41.3965 24.7624 0.0000 0.0000 0.0000
# 3 33.4430 24.7624 63.9909 0.0000 0.0000 0.0000
# 4 0.0000 0.0000 0.0000 13.3433 0.0000 0.0000
# 5 0.0000 0.0000 0.0000 0.0000 19.7442 0.0000
# 6 0.0000 0.0000 0.0000 0.0000 0.0000 23.1522
#
#
#
# Elastic Compliance Matrix: (Units=1/GPa)
#
#
# Indices 1 2 3 4 5 6 
#
# 1 0.020194 -0.020773 -0.002515 0.000000 0.000000 0.000000
# 2 -0.020773 0.052801 -0.009576 0.000000 0.000000 0.000000
# 3 -0.002515 -0.009576 0.020647 0.000000 0.000000 0.000000
# 4 0.000000 0.000000 0.000000 0.074944 0.000000 0.000000
# 5 0.000000 0.000000 0.000000 0.000000 0.050648 0.000000
# 6 0.000000 0.000000 0.000000 0.000000 0.000000 0.043192
#
#
# Mechanical properties :
#
#
# Convention : Reuss Voigt Hill
#
# Bulk Modulus (GPa) = 35.82444 45.97708 40.90076
# Shear Modulus (GPa) = 14.81660 18.05964 16.43812
#
# Velocity S-wave (km/s) = 2.87104 3.16971 3.02406
# Velocity P-wave (km/s) = 5.56063 6.24294 5.91164
#
# Compressibility (1/GPa) = 0.02791391
#
# Stress axis : x y z
#
# Youngs Moduli (GPa) = 49.51915 18.93915 48.43221
#
# Poissons Ratio (x) = 0.39342 0.12183
# Poissons Ratio (y) = 1.02866 0.46378
# Poissons Ratio (z) = 0.12456 0.18136
#
# Static dielectric constant tensor:
#      x y z
#    x 3.711070 0.000000 0.000000 
#    y 0.000000 3.147020 0.000000 
#    z 0.000000 0.000000 3.095270 
# 
# 
# High freq. dielectric constant tensor:
#      x y z
#    x 1.706380 0.000000 0.000000 
#    y 0.000000 1.674730 0.000000 
#    z 0.000000 0.000000 1.661360 
# 
# From -- ./inp_files/54286.got.cif
#   From: 2010.06.25/outbox.cif.g09.slc.cpg/sg71_28_cif.got.tgz:54286.got - 2010.06.28 04:59:45.
