data_PCOD8289897
_publ_section_title
;
Structure prediction by ZEFSAII (Michael W. Deem and Ramdas Pophale) SiO2 
 PCOD8289897
Probable space group: I M M M
;
_chemical_formula_sum "Si O2"
_cell_formula_units_Z 88
_cell_length_a 8.816163
_cell_length_b 30.768706
_cell_length_c 17.878339
_cell_angle_alpha 90.000000
_cell_angle_beta 90.000000
_cell_angle_gamma 90.000000
_cell_volume 4849.712696
_symmetry_space_group_name_H-M "I M M M"
_symmetry_group_IT_number 71
_symmetry_cell_setting 'orthorhombic'
loop_
_space_group_symop_operation_xyz
x,y,z
-x,-y,z
x,-y,-z
-x,y,-z
-x,-y,-z
x,y,-z
-x,y,z
x,-y,z
1/2+x,1/2+y,1/2+z
1/2-x,1/2-y,1/2+z
1/2+x,1/2-y,1/2-z
1/2-x,1/2+y,1/2-z
1/2-x,1/2-y,1/2-z
1/2+x,1/2+y,1/2-z
1/2-x,1/2+y,1/2+z
1/2+x,1/2-y,1/2+z
loop_
_atom_site_type_symbol
_atom_site_label
_atom_site_fract_x
_atom_site_fract_y
_atom_site_fract_z
Si Si1 0.672276 0.616958 0.296742
Si Si2 0.679748 0.295274 0.227934
Si Si3 0.324996 0.829649 0.415863
Si Si4 0.168404 0.500000 0.087487
Si Si5 0.319518 0.548871 0.584883
Si Si6 0.327095 0.413548 0.868535
O O1 0.500000 0.624351 0.321651
O O2 0.743041 0.665421 0.281671
O O3 0.751034 0.586686 0.360896
O O4 0.684404 0.590914 0.220194
O O5 0.500000 0.293533 0.234040
O O6 0.750000 0.250000 0.250000
O O7 0.722179 0.302866 0.141572
O O8 0.298238 0.812023 0.500000
O O9 0.500000 0.824728 0.392756
O O10 0.278696 0.879944 0.412569
O O11 0.267759 0.539696 0.113310
O O12 0.000000 0.500000 0.124281
O O13 0.149176 0.500000 0.000000
O O14 0.270178 0.559867 0.500000
O O15 0.500000 0.548871 0.592464
O O16 0.261137 0.500000 0.606314
O O17 0.500000 0.407306 0.895608
#
# Coordination Sequence:
#
# PCOD8289897 Si02
#       6
#    16  16  16   8  16  16
#     4   8  16  29  45  69  99 130 165 206 253 303
#     4  10  20  35  54  76 104 138 175 218 267 316
#     4  10  20  35  55  77 102 133 169 212 263 316
#     4  11  23  35  45  63  96 133 168 210 255 297
#     4   8  13  22  40  67  99 133 163 196 245 303
#     4  10  20  32  49  72  98 133 171 210 254 302
#
# _framework density 18.145403999999999
#
# number of rings (size 3 to 8) (size 9 to 14) (size 15 to 20)
#    0.000    2.636    0.000    4.091    1.273    4.364 
#    0.000    0.909    0.000    3.273    0.000    0.000 
#    0.000   15.273    0.000    0.000    0.000    0.000 
#
# Total GULP energy -545229.823765 kJ/mol
# GULP energy per Si atom -12391.586904 kJ/mol
# Density = 1.810410 g / cm^3
# Si number density = 18.145404 Si / 1000 Ang^3
#
#
#
# Elastic Constant Matrix: (Units=GPa)
#
#
# Indices 1 2 3 4 5 6 
#
# 1 45.5982 26.0543 30.9203 0.0000 0.0000 0.0000
# 2 26.0543 147.4197 71.4078 0.0002 0.0000 0.0000
# 3 30.9203 71.4078 90.8550 0.0005 0.0000 0.0000
# 4 0.0000 0.0002 0.0005 18.2520 0.0000 0.0000
# 5 0.0000 0.0000 0.0000 0.0000 18.8215 0.0000
# 6 0.0000 0.0000 0.0000 0.0000 0.0000 29.9897
#
#
#
# Elastic Compliance Matrix: (Units=1/GPa)
#
#
# Indices 1 2 3 4 5 6 
#
# 1 0.028538 -0.000548 -0.009282 0.000000 0.000000 0.000000
# 2 -0.000548 0.010964 -0.008431 0.000000 0.000000 0.000000
# 3 -0.009282 -0.008431 0.020791 0.000000 0.000000 0.000000
# 4 0.000000 0.000000 0.000000 0.054789 0.000000 0.000000
# 5 0.000000 0.000000 0.000000 0.000000 0.053131 0.000000
# 6 0.000000 0.000000 0.000000 0.000000 0.000000 0.033345
#
#
# Mechanical properties :
#
#
# Convention : Reuss Voigt Hill
#
# Bulk Modulus (GPa) = 42.06479 60.07086 51.06783
# Shear Modulus (GPa) = 20.32512 23.77867 22.05190
#
# Velocity S-wave (km/s) = 3.35046 3.62394 3.48988
# Velocity P-wave (km/s) = 6.18060 7.11953 6.66662
#
# Compressibility (1/GPa) = 0.02377285
#
# Stress axis : x y z
#
# Youngs Moduli (GPa) = 35.04158 91.20889 48.09682
#
# Poissons Ratio (x) = 0.04996 0.44641
# Poissons Ratio (y) = 0.01919 0.40549
# Poissons Ratio (z) = 0.32524 0.76895
#
# Static dielectric constant tensor:
#      x y z
#    x 3.214190 0.000000 0.000000 
#    y 0.000000 3.593460 0.000000 
#    z 0.000000 0.000000 2.938210 
# 
# 
# High freq. dielectric constant tensor:
#      x y z
#    x 1.676020 0.000000 0.000000 
#    y 0.000000 1.703080 0.000000 
#    z 0.000000 0.000000 1.699850 
# 
# From -- ./inp_files/42457.got.cif
#   From: 2010.06.25/outbox.cif.g09.slc.cpg/sg71_22_cif.got.tgz:42457.got - 2010.06.28 04:59:45.
