data_PCOD8289093
_publ_section_title
;
Structure prediction by ZEFSAII (Michael W. Deem and Ramdas Pophale) SiO2 
 PCOD8289093
Probable space group: I M M M
;
_chemical_formula_sum "Si O2"
_cell_formula_units_Z 72
_cell_length_a 25.779703
_cell_length_b 23.223120
_cell_length_c 8.003906
_cell_angle_alpha 90.000000
_cell_angle_beta 90.000000
_cell_angle_gamma 90.000000
_cell_volume 4791.819555
_symmetry_space_group_name_H-M "I M M M"
_symmetry_group_IT_number 71
_symmetry_cell_setting 'orthorhombic'
loop_
_space_group_symop_operation_xyz
x,y,z
-x,-y,z
x,-y,-z
-x,y,-z
-x,-y,-z
x,y,-z
-x,y,z
x,-y,z
1/2+x,1/2+y,1/2+z
1/2-x,1/2-y,1/2+z
1/2+x,1/2-y,1/2-z
1/2-x,1/2+y,1/2-z
1/2-x,1/2-y,1/2-z
1/2+x,1/2+y,1/2-z
1/2-x,1/2+y,1/2+z
1/2+x,1/2-y,1/2+z
loop_
_atom_site_type_symbol
_atom_site_label
_atom_site_fract_x
_atom_site_fract_y
_atom_site_fract_z
Si Si1 0.719214 0.172787 0.306839
Si Si2 0.122163 0.116062 0.807564
Si Si3 0.061084 0.066259 0.500000
Si Si4 0.266982 0.563835 0.303861
Si Si5 0.671693 0.278258 0.807748
O O1 0.712204 0.182846 0.500000
O O2 0.720585 0.104835 0.264294
O O3 0.671703 0.208825 0.221870
O O4 0.773263 0.198562 0.238945
O O5 0.080349 0.094975 0.672973
O O6 0.176261 0.086578 0.752434
O O7 0.127992 0.185864 0.793266
O O8 0.106477 0.100307 0.000000
O O9 0.000000 0.073599 0.500000
O O10 0.078384 0.000000 0.500000
O O11 0.262037 0.561772 0.500000
O O12 0.259247 0.500000 0.227303
O O13 0.663120 0.293041 0.000000
#
# Coordination Sequence:
#
# PCOD8289093 Si02
#       5
#    16  16   8  16  16
#     4   9  16  23  35  58  83 109 137 173 212 245
#     4  10  19  33  50  66  82 108 143 183 224 265
#     4  11  24  38  50  66  86 108 141 185 231 275
#     4   9  17  27  39  57  82 114 149 181 214 252
#     4   9  15  26  42  60  82 106 135 174 215 252
#
# _framework density 15.025607000000001
#
# number of rings (size 3 to 8) (size 9 to 14) (size 15 to 20)
#    0.000    2.556    1.111    2.000    1.556    7.556 
#    0.000    1.111    0.000    0.000    0.000    0.000 
#    0.000    0.000    0.000    0.000    0.000    2.222 
#
# Total GULP energy -446022.881922 kJ/mol
# GULP energy per Si atom -12389.524498 kJ/mol
# Density = 1.499141 g / cm^3
# Si number density = 15.025607 Si / 1000 Ang^3
#
#
#
# Elastic Constant Matrix: (Units=GPa)
#
#
# Indices 1 2 3 4 5 6 
#
# 1 31.9544 35.0931 24.2505 0.0000 0.0000 0.0000
# 2 35.0931 106.4273 26.9217 0.0000 0.0000 0.0000
# 3 24.2505 26.9217 68.7426 0.0000 0.0000 0.0000
# 4 0.0000 0.0000 0.0000 22.5889 0.0000 0.0000
# 5 0.0000 0.0000 0.0000 0.0000 16.0179 0.0000
# 6 0.0000 0.0000 0.0000 0.0000 0.0000 16.2472
#
#
#
# Elastic Compliance Matrix: (Units=1/GPa)
#
#
# Indices 1 2 3 4 5 6 
#
# 1 0.060362 -0.016113 -0.014984 0.000000 0.000000 0.000000
# 2 -0.016113 0.014731 -0.000085 0.000000 0.000000 0.000000
# 3 -0.014984 -0.000085 0.019866 0.000000 0.000000 0.000000
# 4 0.000000 0.000000 0.000000 0.044270 0.000000 0.000000
# 5 0.000000 0.000000 0.000000 0.000000 0.062430 0.000000
# 6 0.000000 0.000000 0.000000 0.000000 0.000000 0.061549
#
#
# Mechanical properties :
#
#
# Convention : Reuss Voigt Hill
#
# Bulk Modulus (GPa) = 30.67913 42.18389 36.43151
# Shear Modulus (GPa) = 14.86168 19.02807 16.94488
#
# Velocity S-wave (km/s) = 3.14839 3.56248 3.36182
# Velocity P-wave (km/s) = 5.80334 6.71247 6.27439
#
# Compressibility (1/GPa) = 0.03259545
#
# Stress axis : x y z
#
# Youngs Moduli (GPa) = 16.56671 67.88545 50.33743
#
# Poissons Ratio (x) = 1.09387 0.75423
# Poissons Ratio (y) = 0.26695 0.00426
# Poissons Ratio (z) = 0.24823 0.00574
#
# Static dielectric constant tensor:
#      x y z
#    x 2.396000 0.000000 0.000000 
#    y 0.000000 3.362050 0.000000 
#    z 0.000000 0.000000 2.872280 
# 
# 
# High freq. dielectric constant tensor:
#      x y z
#    x 1.491010 0.000000 0.000000 
#    y 0.000000 1.583820 0.000000 
#    z 0.000000 0.000000 1.590500 
# 
# From -- ./inp_files/10115.got.cif
#   From: 2010.06.25/outbox.cif.g09.slc.cpg/sg71_6_cif.got.tgz:10115.got - 2010.06.28 04:59:45.
