data_PCOD8289468
_publ_section_title
;
Structure prediction by ZEFSAII (Michael W. Deem and Ramdas Pophale) SiO2 
 PCOD8289468
Probable space group: I M M M
;
_chemical_formula_sum "Si O2"
_cell_formula_units_Z 96
_cell_length_a 25.057094
_cell_length_b 23.641259
_cell_length_c 8.803523
_cell_angle_alpha 90.000000
_cell_angle_beta 90.000000
_cell_angle_gamma 90.000000
_cell_volume 5215.041951
_symmetry_space_group_name_H-M "I M M M"
_symmetry_group_IT_number 71
_symmetry_cell_setting 'orthorhombic'
loop_
_space_group_symop_operation_xyz
x,y,z
-x,-y,z
x,-y,-z
-x,y,-z
-x,-y,-z
x,y,-z
-x,y,z
x,-y,z
1/2+x,1/2+y,1/2+z
1/2-x,1/2-y,1/2+z
1/2+x,1/2-y,1/2-z
1/2-x,1/2+y,1/2-z
1/2-x,1/2-y,1/2-z
1/2+x,1/2+y,1/2-z
1/2-x,1/2+y,1/2+z
1/2+x,1/2-y,1/2+z
loop_
_atom_site_type_symbol
_atom_site_label
_atom_site_fract_x
_atom_site_fract_y
_atom_site_fract_z
Si Si1 0.561354 0.500000 0.819913
Si Si2 0.190432 0.305113 0.175702
Si Si3 0.097651 0.612569 0.822268
Si Si4 0.500000 0.812472 0.680235
Si Si5 0.687066 0.311537 0.823218
Si Si6 0.000000 0.813335 0.819669
Si Si7 0.060677 0.500000 0.320860
Si Si8 0.099671 0.886028 0.179807
O O1 0.500000 0.500000 0.761232
O O2 0.593001 0.446338 0.757617
O O3 0.563329 0.500000 0.000000
O O4 0.154520 0.359337 0.215591
O O5 0.250861 0.321710 0.214997
O O6 0.170535 0.251513 0.272432
O O7 0.183856 0.287860 0.000000
O O8 0.052027 0.654722 0.761704
O O9 0.093523 0.553952 0.734784
O O10 0.090575 0.600468 0.000000
O O11 0.500000 0.807903 0.500000
O O12 0.500000 0.749584 0.750801
O O13 0.655405 0.358648 0.729451
O O14 0.674495 0.318794 0.000000
O O15 0.052258 0.845687 0.760992
O O16 0.000000 0.810650 0.000000
O O17 0.058876 0.500000 0.500000
O O18 0.000000 0.500000 0.254926
O O19 0.098319 0.893946 0.000000
#
# Coordination Sequence:
#
# PCOD8289468 Si02
#       8
#     8  16  16   8  16   8   8  16
#     4  11  23  39  58  81 114 149 184 230 285 338
#     4   9  19  36  58  83 112 148 188 230 276 331
#     4  10  19  34  57  80 104 139 188 229 264 318
#     4   9  16  27  49  80 106 129 168 223 270 311
#     4  10  20  35  56  84 117 150 183 226 283 334
#     4   9  18  31  51  80 110 137 172 223 274 323
#     4  11  23  37  52  75 112 147 176 218 279 336
#     4  11  21  36  58  82 111 147 191 231 272 332
#
# _framework density 18.408289
#
# number of rings (size 3 to 8) (size 9 to 14) (size 15 to 20)
#    0.000    2.000    1.667    2.500    0.000    4.667 
#    0.000    0.833    0.000    3.000    0.000    0.000 
#    0.000    0.000    0.000    0.000    0.000    0.000 
#
# Total GULP energy -595384.591930 kJ/mol
# GULP energy per Si atom -12403.845665 kJ/mol
# Density = 1.836639 g / cm^3
# Si number density = 18.408289 Si / 1000 Ang^3
#
#
#
# Elastic Constant Matrix: (Units=GPa)
#
#
# Indices 1 2 3 4 5 6 
#
# 1 103.0127 69.0512 33.1609 0.0000 0.0000 0.0000
# 2 69.0512 161.5646 41.5631 0.0000 0.0000 0.0000
# 3 33.1609 41.5631 56.2974 0.0000 0.0000 0.0000
# 4 0.0000 0.0000 0.0000 28.0091 0.0000 0.0000
# 5 0.0000 0.0000 0.0000 0.0000 25.2732 0.0000
# 6 0.0000 0.0000 0.0000 0.0000 0.0000 26.5257
#
#
#
# Elastic Compliance Matrix: (Units=1/GPa)
#
#
# Indices 1 2 3 4 5 6 
#
# 1 0.014641 -0.004986 -0.004943 0.000000 0.000000 0.000000
# 2 -0.004986 0.009338 -0.003958 0.000000 0.000000 0.000000
# 3 -0.004943 -0.003958 0.023596 0.000000 0.000000 0.000000
# 4 0.000000 0.000000 0.000000 0.035703 0.000000 0.000000
# 5 0.000000 0.000000 0.000000 0.000000 0.039568 0.000000
# 6 0.000000 0.000000 0.000000 0.000000 0.000000 0.037699
#
#
# Mechanical properties :
#
#
# Convention : Reuss Voigt Hill
#
# Bulk Modulus (GPa) = 50.49809 67.60278 59.05043
# Shear Modulus (GPa) = 25.65172 27.76822 26.70997
#
# Velocity S-wave (km/s) = 3.73699 3.88811 3.81330
# Velocity P-wave (km/s) = 6.79058 7.54721 7.17887
#
# Compressibility (1/GPa) = 0.01980273
#
# Stress axis : x y z
#
# Youngs Moduli (GPa) = 68.30251 107.08433 42.37965
#
# Poissons Ratio (x) = 0.53389 0.20948
# Poissons Ratio (y) = 0.34054 0.16772
# Poissons Ratio (z) = 0.33762 0.42380
#
# Static dielectric constant tensor:
#      x y z
#    x 3.452530 0.000000 0.000000 
#    y 0.000000 3.421870 0.000000 
#    z 0.000000 0.000000 3.216530 
# 
# 
# High freq. dielectric constant tensor:
#      x y z
#    x 1.714710 0.000000 0.000000 
#    y 0.000000 1.716870 0.000000 
#    z 0.000000 0.000000 1.700720 
# 
# From -- ./inp_files/12959.got.cif
#   From: 2010.06.25/outbox.cif.g09.slc.cpg/sg71_7_cif.got.tgz:12959.got - 2010.06.28 04:59:45.
