data_PCOD8289381
_publ_section_title
;
Structure prediction by ZEFSAII (Michael W. Deem and Ramdas Pophale) SiO2 
 PCOD8289381
Probable space group: I M M M
;
_chemical_formula_sum "Si O2"
_cell_formula_units_Z 120
_cell_length_a 8.971861
_cell_length_b 26.658784
_cell_length_c 28.060574
_cell_angle_alpha 90.000000
_cell_angle_beta 90.000000
_cell_angle_gamma 90.000000
_cell_volume 6711.497348
_symmetry_space_group_name_H-M "I M M M"
_symmetry_group_IT_number 71
_symmetry_cell_setting 'orthorhombic'
loop_
_space_group_symop_operation_xyz
x,y,z
-x,-y,z
x,-y,-z
-x,y,-z
-x,-y,-z
x,y,-z
-x,y,z
x,-y,z
1/2+x,1/2+y,1/2+z
1/2-x,1/2-y,1/2+z
1/2+x,1/2-y,1/2-z
1/2-x,1/2+y,1/2-z
1/2-x,1/2-y,1/2-z
1/2+x,1/2+y,1/2-z
1/2-x,1/2+y,1/2+z
1/2+x,1/2-y,1/2+z
loop_
_atom_site_type_symbol
_atom_site_label
_atom_site_fract_x
_atom_site_fract_y
_atom_site_fract_z
Si Si1 0.175968 0.101908 0.055174
Si Si2 0.831729 0.500000 0.556472
Si Si3 0.326986 0.813306 0.882030
Si Si4 0.324841 0.884880 0.551816
Si Si5 0.169897 0.200244 0.397019
Si Si6 0.673826 0.942247 0.356845
Si Si7 0.676054 0.798411 0.226445
Si Si8 0.673251 0.358056 0.802776
O O1 0.248008 0.050097 0.074259
O O2 0.232043 0.147006 0.088227
O O3 0.000000 0.096839 0.060453
O O4 0.220873 0.112264 0.000000
O O5 0.831882 0.500000 0.500000
O O6 0.000000 0.500000 0.576813
O O7 0.500000 0.828872 0.884576
O O8 0.300286 0.758819 0.905131
O O9 0.271946 0.809453 0.827467
O O10 0.259305 0.899711 0.500000
O O11 0.500000 0.882056 0.549176
O O12 0.270453 0.829616 0.565925
O O13 0.274393 0.926494 0.590008
O O14 0.207433 0.184078 0.342778
O O15 0.000000 0.185984 0.407762
O O16 0.500000 0.929515 0.348991
O O17 0.774508 0.912700 0.319455
O O18 0.708588 0.000000 0.349366
O O19 0.500000 0.790380 0.228166
O O20 0.750000 0.750000 0.250000
O O21 0.728685 0.846255 0.256500
O O22 0.500000 0.359342 0.789199
#
# Coordination Sequence:
#
# PCOD8289381 Si02
#       8
#    16   8  16  16  16  16  16  16
#     4  10  21  36  55  82 113 143 178 221 264 306
#     4   9  17  33  59  83 103 137 179 213 255 313
#     4  10  21  36  53  78 110 142 179 217 260 316
#     4   9  18  31  47  71 102 136 176 222 271 320
#     4   9  18  33  49  69 100 137 175 213 258 316
#     4   9  18  33  53  76 101 135 180 226 274 326
#     4  11  21  35  56  82 110 140 177 218 263 313
#     4  10  19  34  54  77 104 135 175 219 268 321
#
# _framework density 17.879764999999999
#
# number of rings (size 3 to 8) (size 9 to 14) (size 15 to 20)
#    0.000    2.333    1.333    1.400    0.000    5.067 
#    0.000    4.000    1.467    0.000    0.000    3.733 
#    0.000    0.000    0.000    0.000    0.000    0.000 
#
# Total GULP energy -743955.807539 kJ/mol
# GULP energy per Si atom -12399.263459 kJ/mol
# Density = 1.783907 g / cm^3
# Si number density = 17.879765 Si / 1000 Ang^3
#
#
#
# Elastic Constant Matrix: (Units=GPa)
#
#
# Indices 1 2 3 4 5 6 
#
# 1 53.8062 35.1530 33.6962 0.0000 0.0000 0.0000
# 2 35.1530 102.2192 37.6074 0.0000 0.0000 0.0000
# 3 33.6962 37.6074 81.1051 0.0000 0.0000 0.0000
# 4 0.0000 0.0000 0.0000 18.0743 0.0000 0.0000
# 5 0.0000 0.0000 0.0000 0.0000 25.8678 0.0000
# 6 0.0000 0.0000 0.0000 0.0000 0.0000 33.0871
#
#
#
# Elastic Compliance Matrix: (Units=1/GPa)
#
#
# Indices 1 2 3 4 5 6 
#
# 1 0.028322 -0.006524 -0.008742 0.000000 0.000000 0.000000
# 2 -0.006524 0.013298 -0.003456 0.000000 0.000000 0.000000
# 3 -0.008742 -0.003456 0.017564 0.000000 0.000000 0.000000
# 4 0.000000 0.000000 0.000000 0.055327 0.000000 0.000000
# 5 0.000000 0.000000 0.000000 0.000000 0.038658 0.000000
# 6 0.000000 0.000000 0.000000 0.000000 0.000000 0.030223
#
#
# Mechanical properties :
#
#
# Convention : Reuss Voigt Hill
#
# Bulk Modulus (GPa) = 45.99528 50.00486 48.00007
# Shear Modulus (GPa) = 21.92201 24.11743 23.01972
#
# Velocity S-wave (km/s) = 3.50534 3.67668 3.59203
# Velocity P-wave (km/s) = 6.49337 6.78616 6.64138
#
# Compressibility (1/GPa) = 0.02174136
#
# Stress axis : x y z
#
# Youngs Moduli (GPa) = 35.30845 75.20082 56.93489
#
# Poissons Ratio (x) = 0.49058 0.49771
# Poissons Ratio (y) = 0.23034 0.19675
# Poissons Ratio (z) = 0.30866 0.25987
#
# Static dielectric constant tensor:
#      x y z
#    x 3.329320 0.000000 0.000000 
#    y 0.000000 3.272180 0.000000 
#    z 0.000000 0.000000 3.478590 
# 
# 
# High freq. dielectric constant tensor:
#      x y z
#    x 1.693360 0.000000 0.000000 
#    y 0.000000 1.689110 0.000000 
#    z 0.000000 0.000000 1.679340 
# 
# From -- ./inp_files/63785.got.cif
#   From: 2010.06.25/outbox.cif.g09.slc.cpg/sg71_32_cif.got.tgz:63785.got - 2010.06.28 04:59:45.
