data_PCOD8289103
_publ_section_title
;
Structure prediction by ZEFSAII (Michael W. Deem and Ramdas Pophale) SiO2 
 PCOD8289103
Probable space group: I M M M
;
_chemical_formula_sum "Si O2"
_cell_formula_units_Z 80
_cell_length_a 25.622278
_cell_length_b 12.509945
_cell_length_c 13.949014
_cell_angle_alpha 90.000000
_cell_angle_beta 90.000000
_cell_angle_gamma 90.000000
_cell_volume 4471.123330
_symmetry_space_group_name_H-M "I M M M"
_symmetry_group_IT_number 71
_symmetry_cell_setting 'orthorhombic'
loop_
_space_group_symop_operation_xyz
x,y,z
-x,-y,z
x,-y,-z
-x,y,-z
-x,-y,-z
x,y,-z
-x,y,z
x,-y,z
1/2+x,1/2+y,1/2+z
1/2-x,1/2-y,1/2+z
1/2+x,1/2-y,1/2-z
1/2-x,1/2+y,1/2-z
1/2-x,1/2-y,1/2-z
1/2+x,1/2+y,1/2-z
1/2-x,1/2+y,1/2+z
1/2+x,1/2-y,1/2+z
loop_
_atom_site_type_symbol
_atom_site_label
_atom_site_fract_x
_atom_site_fract_y
_atom_site_fract_z
Si Si1 0.736739 0.119519 0.611554
Si Si2 0.232599 0.000000 0.113352
Si Si3 0.616005 0.500000 0.386021
Si Si4 0.131969 0.374336 0.781911
Si Si5 0.938899 0.215214 0.888337
Si Si6 0.307841 0.812397 0.888476
O O1 0.722935 0.123464 0.500000
O O2 0.684769 0.159959 0.663659
O O3 0.786038 0.194613 0.633761
O O4 0.752095 0.000000 0.645283
O O5 0.174517 0.000000 0.157112
O O6 0.263577 0.104667 0.147977
O O7 0.227950 0.000000 0.000000
O O8 0.616018 0.500000 0.500000
O O9 0.586446 0.394373 0.349362
O O10 0.120661 0.500000 0.788659
O O11 0.083162 0.314641 0.828498
O O12 0.139596 0.335921 0.671621
O O13 0.000000 0.208354 0.869538
O O14 0.926099 0.233513 0.000000
O O15 0.321450 0.828916 0.000000
#
# Coordination Sequence:
#
# PCOD8289103 Si02
#       6
#    16   8   8  16  16  16
#     4   9  18  31  47  70 103 139 172 209 257 312
#     4   9  16  27  48  75 100 134 172 203 247 301
#     4   9  17  32  55  80 107 135 167 210 257 311
#     4  11  21  33  50  74 105 140 177 217 260 304
#     4  10  21  37  56  78 104 136 174 217 267 314
#     4  10  19  33  50  71 105 143 178 214 253 304
#
# _framework density 17.892595
#
# number of rings (size 3 to 8) (size 9 to 14) (size 15 to 20)
#    0.000    2.200    1.000    2.700    0.000    6.000 
#    1.800    1.000    0.000    0.600    0.000    1.400 
#    0.000    1.600    0.000    0.000    0.000    0.000 
#
# Total GULP energy -496078.660014 kJ/mol
# GULP energy per Si atom -12401.966500 kJ/mol
# Density = 1.785187 g / cm^3
# Si number density = 17.892595 Si / 1000 Ang^3
#
#
#
# Elastic Constant Matrix: (Units=GPa)
#
#
# Indices 1 2 3 4 5 6 
#
# 1 78.4077 38.3471 36.1348 0.0000 0.0000 0.0000
# 2 38.3471 101.7820 35.2321 0.0000 0.0000 0.0000
# 3 36.1348 35.2321 47.1135 0.0000 0.0000 0.0000
# 4 0.0000 0.0000 0.0000 24.7925 0.0000 0.0000
# 5 0.0000 0.0000 0.0000 0.0000 26.3730 0.0000
# 6 0.0000 0.0000 0.0000 0.0000 0.0000 25.6951
#
#
#
# Elastic Compliance Matrix: (Units=1/GPa)
#
#
# Indices 1 2 3 4 5 6 
#
# 1 0.020411 -0.003064 -0.013363 0.000000 0.000000 0.000000
# 2 -0.003064 0.013717 -0.007907 0.000000 0.000000 0.000000
# 3 -0.013363 -0.007907 0.037388 0.000000 0.000000 0.000000
# 4 0.000000 0.000000 0.000000 0.040335 0.000000 0.000000
# 5 0.000000 0.000000 0.000000 0.000000 0.037918 0.000000
# 6 0.000000 0.000000 0.000000 0.000000 0.000000 0.038918
#
#
# Mechanical properties :
#
#
# Convention : Reuss Voigt Hill
#
# Bulk Modulus (GPa) = 43.77157 49.63680 46.70419
# Shear Modulus (GPa) = 20.41065 23.21139 21.81102
#
# Velocity S-wave (km/s) = 3.38114 3.60566 3.49520
# Velocity P-wave (km/s) = 6.30551 6.71834 6.51520
#
# Compressibility (1/GPa) = 0.02284588
#
# Stress axis : x y z
#
# Youngs Moduli (GPa) = 48.99306 72.90484 26.74679
#
# Poissons Ratio (x) = 0.22340 0.35742
# Poissons Ratio (y) = 0.15013 0.21149
# Poissons Ratio (z) = 0.65470 0.57647
#
# Static dielectric constant tensor:
#      x y z
#    x 3.042060 0.000000 0.000000 
#    y 0.000000 3.516920 0.000000 
#    z 0.000000 0.000000 3.271040 
# 
# 
# High freq. dielectric constant tensor:
#      x y z
#    x 1.654230 0.000000 0.000000 
#    y 0.000000 1.709330 0.000000 
#    z 0.000000 0.000000 1.682450 
# 
# From -- ./inp_files/27114.got.cif
#   From: 2010.06.25/outbox.cif.g09.slc.cpg/sg71_14_cif.got.tgz:27114.got - 2010.06.28 04:59:45.
