data_PCOD8289556
_publ_section_title
;
Structure prediction by ZEFSAII (Michael W. Deem and Ramdas Pophale) SiO2 
 PCOD8289556
Probable space group: I M M M
;
_chemical_formula_sum "Si O2"
_cell_formula_units_Z 120
_cell_length_a 9.179527
_cell_length_b 26.083782
_cell_length_c 27.090246
_cell_angle_alpha 90.000000
_cell_angle_beta 90.000000
_cell_angle_gamma 90.000000
_cell_volume 6486.401302
_symmetry_space_group_name_H-M "I M M M"
_symmetry_group_IT_number 71
_symmetry_cell_setting 'orthorhombic'
loop_
_space_group_symop_operation_xyz
x,y,z
-x,-y,z
x,-y,-z
-x,y,-z
-x,-y,-z
x,y,-z
-x,y,z
x,-y,z
1/2+x,1/2+y,1/2+z
1/2-x,1/2-y,1/2+z
1/2+x,1/2-y,1/2-z
1/2-x,1/2+y,1/2-z
1/2-x,1/2-y,1/2-z
1/2+x,1/2+y,1/2-z
1/2-x,1/2+y,1/2+z
1/2+x,1/2-y,1/2+z
loop_
_atom_site_type_symbol
_atom_site_label
_atom_site_fract_x
_atom_site_fract_y
_atom_site_fract_z
Si Si1 0.670144 0.560817 0.000000
Si Si2 0.672562 0.124721 0.582058
Si Si3 0.664237 0.561023 0.553568
Si Si4 0.668770 0.759649 0.444886
Si Si5 0.330569 0.143611 0.222007
Si Si6 0.670381 0.346017 0.177126
Si Si7 0.167327 0.442734 0.353896
Si Si8 0.331890 0.230540 0.852515
O O1 0.749088 0.582530 0.951467
O O2 0.688545 0.500000 0.000000
O O3 0.500000 0.576715 0.000000
O O4 0.500000 0.113782 0.584050
O O5 0.707886 0.180416 0.559760
O O6 0.741166 0.121160 0.636713
O O7 0.724066 0.579887 0.500000
O O8 0.500000 0.580465 0.559989
O O9 0.672230 0.500000 0.555334
O O10 0.755852 0.583798 0.598923
O O11 0.712080 0.741687 0.500000
O O12 0.500000 0.751158 0.434497
O O13 0.753258 0.724976 0.405297
O O14 0.500000 0.152273 0.236280
O O15 0.230993 0.139537 0.269706
O O16 0.305329 0.090008 0.194756
O O17 0.273124 0.189302 0.186795
O O18 0.500000 0.359540 0.173389
O O19 0.699595 0.286006 0.169937
O O20 0.227127 0.500000 0.343249
O O21 0.000000 0.444227 0.368369
O O22 0.500000 0.220135 0.862876
#
# Coordination Sequence:
#
# PCOD8289556 Si02
#       8
#     8  16  16  16  16  16  16  16
#     4  11  23  37  55  83 119 151 181 225 272 311
#     4  10  19  35  57  80 106 140 181 218 260 315
#     4   8  14  26  45  68  92 118 152 196 243 289
#     4   9  17  31  51  77 106 136 173 215 258 313
#     4  10  20  35  52  72 102 136 171 215 263 314
#     4  10  20  34  54  80 104 130 171 217 265 320
#     4   9  18  32  50  71  94 125 167 209 248 296
#     4   9  19  33  50  75 103 133 170 212 263 318
#
# _framework density 18.500243999999999
#
# number of rings (size 3 to 8) (size 9 to 14) (size 15 to 20)
#    0.000    2.600    0.667    1.800    0.000    3.200 
#    0.000    2.667    0.000    6.400    0.000    0.000 
#    0.000    0.000    0.000    0.000    0.000    0.000 
#
# Total GULP energy -743921.445593 kJ/mol
# GULP energy per Si atom -12398.690760 kJ/mol
# Density = 1.845814 g / cm^3
# Si number density = 18.500244 Si / 1000 Ang^3
#
#
#
# Elastic Constant Matrix: (Units=GPa)
#
#
# Indices 1 2 3 4 5 6 
#
# 1 85.3404 36.2455 70.4789 0.0000 0.0000 0.0000
# 2 36.2455 57.6958 45.2685 0.0000 0.0000 0.0000
# 3 70.4789 45.2685 156.3880 0.0000 0.0000 0.0000
# 4 0.0000 0.0000 0.0000 18.3219 0.0000 0.0000
# 5 0.0000 0.0000 0.0000 0.0000 41.7243 0.0000
# 6 0.0000 0.0000 0.0000 0.0000 0.0000 18.7608
#
#
#
# Elastic Compliance Matrix: (Units=1/GPa)
#
#
# Indices 1 2 3 4 5 6 
#
# 1 0.020856 -0.007411 -0.007254 0.000000 0.000000 0.000000
# 2 -0.007411 0.025059 -0.003914 0.000000 0.000000 0.000000
# 3 -0.007254 -0.003914 0.010796 0.000000 0.000000 0.000000
# 4 0.000000 0.000000 0.000000 0.054580 0.000000 0.000000
# 5 0.000000 0.000000 0.000000 0.000000 0.023967 0.000000
# 6 0.000000 0.000000 0.000000 0.000000 0.000000 0.053303
#
#
# Mechanical properties :
#
#
# Convention : Reuss Voigt Hill
#
# Bulk Modulus (GPa) = 51.14009 67.04557 59.09283
# Shear Modulus (GPa) = 21.52994 25.59013 23.56004
#
# Velocity S-wave (km/s) = 3.41510 3.72322 3.57248
# Velocity P-wave (km/s) = 6.57674 7.40285 7.00199
#
# Compressibility (1/GPa) = 0.01955413
#
# Stress axis : x y z
#
# Youngs Moduli (GPa) = 47.94798 39.90656 92.62335
#
# Poissons Ratio (x) = 0.29573 0.67189
# Poissons Ratio (y) = 0.35532 0.36251
# Poissons Ratio (z) = 0.34782 0.15619
#
# Static dielectric constant tensor:
#      x y z
#    x 3.422260 0.000000 0.000000 
#    y 0.000000 3.266910 0.000000 
#    z 0.000000 0.000000 3.572440 
# 
# 
# High freq. dielectric constant tensor:
#      x y z
#    x 1.716040 0.000000 0.000000 
#    y 0.000000 1.690310 0.000000 
#    z 0.000000 0.000000 1.727800 
# 
# From -- ./inp_files/63830.got.cif
#   From: 2010.06.25/outbox.cif.g09.slc.cpg/sg71_32_cif.got.tgz:63830.got - 2010.06.28 04:59:45.
