data_PCOD8289604
_publ_section_title
;
Structure prediction by ZEFSAII (Michael W. Deem and Ramdas Pophale) SiO2 
 PCOD8289604
Probable space group: I M M M
;
_chemical_formula_sum "Si O2"
_cell_formula_units_Z 104
_cell_length_a 10.389302
_cell_length_b 28.176501
_cell_length_c 18.380212
_cell_angle_alpha 90.000000
_cell_angle_beta 90.000000
_cell_angle_gamma 90.000000
_cell_volume 5380.516255
_symmetry_space_group_name_H-M "I M M M"
_symmetry_group_IT_number 71
_symmetry_cell_setting 'orthorhombic'
loop_
_space_group_symop_operation_xyz
x,y,z
-x,-y,z
x,-y,-z
-x,y,-z
-x,-y,-z
x,y,-z
-x,y,z
x,-y,z
1/2+x,1/2+y,1/2+z
1/2-x,1/2-y,1/2+z
1/2+x,1/2-y,1/2-z
1/2-x,1/2+y,1/2-z
1/2-x,1/2-y,1/2-z
1/2+x,1/2+y,1/2-z
1/2-x,1/2+y,1/2+z
1/2+x,1/2-y,1/2+z
loop_
_atom_site_type_symbol
_atom_site_label
_atom_site_fract_x
_atom_site_fract_y
_atom_site_fract_z
Si Si1 0.852896 0.203793 0.341929
Si Si2 0.860878 0.552471 0.844237
Si Si3 0.717501 0.053322 0.186154
Si Si4 0.354849 0.649941 0.701078
Si Si5 0.000000 0.443896 0.579709
Si Si6 0.648960 0.726054 0.414442
Si Si7 0.642719 0.608746 0.918209
O O1 0.792403 0.180967 0.267240
O O2 0.750001 0.241693 0.370895
O O3 0.859190 0.164558 0.404745
O O4 0.000000 0.224821 0.331720
O O5 0.837051 0.500000 0.876768
O O6 0.869598 0.549894 0.757521
O O7 0.743872 0.585487 0.864877
O O8 0.000000 0.571759 0.872161
O O9 0.821550 0.094438 0.196563
O O10 0.628462 0.072085 0.120825
O O11 0.776467 0.000000 0.170633
O O12 0.500000 0.649747 0.727139
O O13 0.334933 0.674241 0.622372
O O14 0.000000 0.500000 0.575010
O O15 0.000000 0.420255 0.500000
O O16 0.683620 0.722658 0.500000
O O17 0.500000 0.743735 0.404579
O O18 0.500000 0.587399 0.904070
O O19 0.687437 0.598773 0.000000
#
# Coordination Sequence:
#
# PCOD8289604 Si02
#       7
#    16  16  16  16   8  16  16
#     4  10  20  38  61  85 115 151 195 244 291 348
#     4  10  20  35  55  79 112 152 195 244 293 343
#     4  10  19  35  59  86 118 155 194 237 287 347
#     4  10  21  38  60  88 118 151 192 238 292 350
#     4   9  18  34  56  82 115 155 195 239 292 342
#     4  10  22  40  60  84 118 155 190 238 299 354
#     4  10  21  36  55  81 114 152 193 242 297 349
#
# _framework density 19.329000000000001
#
# number of rings (size 3 to 8) (size 9 to 14) (size 15 to 20)
#    0.000    2.077    2.308    0.923    0.000    3.385 
#    2.769    3.077    0.000    0.000    0.000    4.308 
#    0.000    0.000    0.000    0.000    0.000    0.000 
#
# Total GULP energy -644205.546853 kJ/mol
# GULP energy per Si atom -12388.568209 kJ/mol
# Density = 1.928501 g / cm^3
# Si number density = 19.329000 Si / 1000 Ang^3
#
#
#
# Elastic Constant Matrix: (Units=GPa)
#
#
# Indices 1 2 3 4 5 6 
#
# 1 83.6305 50.1764 37.3226 0.0001 0.0000 0.0000
# 2 50.1764 93.7850 35.2578 -0.0001 0.0000 0.0000
# 3 37.3226 35.2578 108.9972 -0.0002 0.0000 0.0002
# 4 0.0001 -0.0001 -0.0002 23.4372 0.0000 0.0001
# 5 0.0000 0.0000 0.0000 0.0000 26.1647 0.0000
# 6 0.0000 0.0000 0.0002 0.0001 0.0000 25.1563
#
#
#
# Elastic Compliance Matrix: (Units=1/GPa)
#
#
# Indices 1 2 3 4 5 6 
#
# 1 0.018788 -0.008690 -0.003622 0.000000 0.000000 0.000000
# 2 -0.008690 0.016158 -0.002251 0.000000 0.000000 0.000000
# 3 -0.003622 -0.002251 0.011143 0.000000 0.000000 0.000000
# 4 0.000000 0.000000 0.000000 0.042667 0.000000 0.000000
# 5 0.000000 0.000000 0.000000 0.000000 0.038219 0.000000
# 6 0.000000 0.000000 0.000000 0.000000 0.000000 0.039751
#
#
# Mechanical properties :
#
#
# Convention : Reuss Voigt Hill
#
# Bulk Modulus (GPa) = 58.95456 59.10296 59.02876
# Shear Modulus (GPa) = 24.81291 25.86203 25.33747
#
# Velocity S-wave (km/s) = 3.58678 3.66182 3.62450
# Velocity P-wave (km/s) = 6.90798 6.96580 6.93695
#
# Compressibility (1/GPa) = 0.01696222
#
# Stress axis : x y z
#
# Youngs Moduli (GPa) = 53.22644 61.88790 89.74181
#
# Poissons Ratio (x) = 0.53780 0.32507
# Poissons Ratio (y) = 0.46253 0.20203
# Poissons Ratio (z) = 0.19280 0.13932
#
# Static dielectric constant tensor:
#      x y z
#    x 3.451790 0.000000 0.000000 
#    y 0.000000 3.329210 0.000000 
#    z 0.000000 0.000000 3.747520 
# 
# 
# High freq. dielectric constant tensor:
#      x y z
#    x 1.745140 0.000000 0.000000 
#    y 0.000000 1.734100 0.000000 
#    z 0.000000 0.000000 1.759630 
# 
# From -- ./inp_files/43799.got.cif
#   From: 2010.06.25/outbox.cif.g09.slc.cpg/sg71_22_cif.got.tgz:43799.got - 2010.06.28 04:59:45.
