data_PCOD8289836
_publ_section_title
;
Structure prediction by ZEFSAII (Michael W. Deem and Ramdas Pophale) SiO2 
 PCOD8289836
Probable space group: I M M M
;
_chemical_formula_sum "Si O2"
_cell_formula_units_Z 104
_cell_length_a 33.515091
_cell_length_b 14.059205
_cell_length_c 12.920317
_cell_angle_alpha 90.000000
_cell_angle_beta 90.000000
_cell_angle_gamma 90.000000
_cell_volume 6087.995681
_symmetry_space_group_name_H-M "I M M M"
_symmetry_group_IT_number 71
_symmetry_cell_setting 'orthorhombic'
loop_
_space_group_symop_operation_xyz
x,y,z
-x,-y,z
x,-y,-z
-x,y,-z
-x,-y,-z
x,y,-z
-x,y,z
x,-y,z
1/2+x,1/2+y,1/2+z
1/2-x,1/2-y,1/2+z
1/2+x,1/2-y,1/2-z
1/2-x,1/2+y,1/2-z
1/2-x,1/2-y,1/2-z
1/2+x,1/2+y,1/2-z
1/2-x,1/2+y,1/2+z
1/2+x,1/2-y,1/2+z
loop_
_atom_site_type_symbol
_atom_site_label
_atom_site_fract_x
_atom_site_fract_y
_atom_site_fract_z
Si Si1 0.079218 0.213043 0.882260
Si Si2 0.954400 0.606839 0.801169
Si Si3 0.848528 0.749692 0.254327
Si Si4 0.202813 0.392889 0.121152
Si Si5 0.500000 0.607819 0.377103
Si Si6 0.397880 0.892584 0.882521
Si Si7 0.294658 0.390053 0.881659
O O1 0.069641 0.325730 0.879563
O O2 0.117012 0.193791 0.808549
O O3 0.040651 0.157300 0.836641
O O4 0.089026 0.182330 0.000000
O O5 0.949057 0.500000 0.843098
O O6 0.937902 0.617687 0.684897
O O7 0.000000 0.638434 0.798900
O O8 0.824185 0.684418 0.176101
O O9 0.865010 0.681989 0.344459
O O10 0.821077 0.829219 0.304258
O O11 0.191208 0.500000 0.156712
O O12 0.248768 0.372943 0.148317
O O13 0.195419 0.382273 0.000000
O O14 0.500000 0.500000 0.336968
O O15 0.500000 0.614955 0.500000
O O16 0.380631 0.000000 0.873111
O O17 0.409450 0.868243 0.000000
O O18 0.306107 0.500000 0.867258
O O19 0.302420 0.358692 0.000000
#
# Coordination Sequence:
#
# PCOD8289836 Si02
#       7
#    16  16  16  16   8  16  16
#     4  10  20  32  47  70  99 126 160 201 243 290
#     4   9  17  29  46  67  92 123 160 198 240 290
#     4  11  19  30  51  76  99 126 166 208 250 288
#     4   9  18  33  52  75 104 135 164 196 242 303
#     4   9  18  34  51  63  84 123 163 195 233 280
#     4   9  18  30  43  65  97 128 159 198 246 297
#     4   9  19  35  53  73  98 130 168 208 250 298
#
# _framework density 17.082798
#
# number of rings (size 3 to 8) (size 9 to 14) (size 15 to 20)
#    0.000    2.538    0.769    2.769    0.000    1.846 
#    0.000    2.308    0.000    1.385    0.000    8.615 
#    0.000    4.923    0.000    0.000    0.000    0.000 
#
# Total GULP energy -644696.913064 kJ/mol
# GULP energy per Si atom -12398.017559 kJ/mol
# Density = 1.704392 g / cm^3
# Si number density = 17.082798 Si / 1000 Ang^3
#
#
#
# Elastic Constant Matrix: (Units=GPa)
#
#
# Indices 1 2 3 4 5 6 
#
# 1 88.7056 39.3261 30.5106 0.0000 0.0000 0.0000
# 2 39.3261 65.9238 23.0732 0.0000 0.0000 0.0000
# 3 30.5106 23.0732 53.8091 0.0000 0.0000 0.0000
# 4 0.0000 0.0000 0.0000 24.3634 0.0000 0.0000
# 5 0.0000 0.0000 0.0000 0.0000 24.1273 0.0000
# 6 0.0000 0.0000 0.0000 0.0000 0.0000 21.5534
#
#
#
# Elastic Compliance Matrix: (Units=1/GPa)
#
#
# Indices 1 2 3 4 5 6 
#
# 1 0.016917 -0.007923 -0.006194 0.000000 0.000000 0.000000
# 2 -0.007923 0.021559 -0.004752 0.000000 0.000000 0.000000
# 3 -0.006194 -0.004752 0.024134 0.000000 0.000000 0.000000
# 4 0.000000 0.000000 0.000000 0.041045 0.000000 0.000000
# 5 0.000000 0.000000 0.000000 0.000000 0.041447 0.000000
# 6 0.000000 0.000000 0.000000 0.000000 0.000000 0.046396
#
#
# Mechanical properties :
#
#
# Convention : Reuss Voigt Hill
#
# Bulk Modulus (GPa) = 40.20839 43.80647 42.00743
# Shear Modulus (GPa) = 21.05028 21.71073 21.38051
#
# Velocity S-wave (km/s) = 3.51415 3.56885 3.54161
# Velocity P-wave (km/s) = 6.32883 6.53311 6.43178
#
# Compressibility (1/GPa) = 0.02487043
#
# Stress axis : x y z
#
# Youngs Moduli (GPa) = 59.11386 46.38505 41.43520
#
# Poissons Ratio (x) = 0.36752 0.25667
# Poissons Ratio (y) = 0.46838 0.19689
# Poissons Ratio (z) = 0.36618 0.22041
#
# Static dielectric constant tensor:
#      x y z
#    x 3.253650 0.000000 0.000000 
#    y 0.000000 3.169440 0.000000 
#    z 0.000000 0.000000 3.035280 
# 
# 
# High freq. dielectric constant tensor:
#      x y z
#    x 1.662280 0.000000 0.000000 
#    y 0.000000 1.654700 0.000000 
#    z 0.000000 0.000000 1.645730 
# 
# From -- ./inp_files/30029.got.cif
#   From: 2010.06.25/outbox.cif.g09.slc.cpg/sg71_16_cif.got.tgz:30029.got - 2010.06.28 04:59:45.
