data_PCOD8289874
_publ_section_title
;
Structure prediction by ZEFSAII (Michael W. Deem and Ramdas Pophale) SiO2 
 PCOD8289874
Probable space group: I M M M
;
_chemical_formula_sum "Si O2"
_cell_formula_units_Z 104
_cell_length_a 21.527479
_cell_length_b 30.257162
_cell_length_c 9.061968
_cell_angle_alpha 90.000000
_cell_angle_beta 90.000000
_cell_angle_gamma 90.000000
_cell_volume 5902.607278
_symmetry_space_group_name_H-M "I M M M"
_symmetry_group_IT_number 71
_symmetry_cell_setting 'orthorhombic'
loop_
_space_group_symop_operation_xyz
x,y,z
-x,-y,z
x,-y,-z
-x,y,-z
-x,-y,-z
x,y,-z
-x,y,z
x,-y,z
1/2+x,1/2+y,1/2+z
1/2-x,1/2-y,1/2+z
1/2+x,1/2-y,1/2-z
1/2-x,1/2+y,1/2-z
1/2-x,1/2-y,1/2-z
1/2+x,1/2+y,1/2-z
1/2-x,1/2+y,1/2+z
1/2+x,1/2-y,1/2+z
loop_
_atom_site_type_symbol
_atom_site_label
_atom_site_fract_x
_atom_site_fract_y
_atom_site_fract_z
Si Si1 0.793483 0.714280 0.173779
Si Si2 0.587953 0.109857 0.836046
Si Si3 0.067824 0.947801 0.163805
Si Si4 0.500000 0.950083 0.327477
Si Si5 0.431859 0.198382 0.669438
Si Si6 0.311932 0.448496 0.172328
Si Si7 0.228955 0.377045 0.666879
O O1 0.750000 0.750000 0.250000
O O2 0.867388 0.724685 0.208256
O O3 0.770955 0.667176 0.235619
O O4 0.781065 0.715134 0.000000
O O5 0.562149 0.070926 0.736430
O O6 0.565636 0.156099 0.771632
O O7 0.660768 0.103470 0.837923
O O8 0.560345 0.106660 0.000000
O O9 0.118318 0.933546 0.284589
O O10 0.000000 0.928534 0.209165
O O11 0.063441 0.000000 0.158071
O O12 0.086257 0.930240 0.000000
O O13 0.500000 0.943502 0.500000
O O14 0.500000 0.000000 0.277064
O O15 0.426306 0.183070 0.500000
O O16 0.500000 0.223283 0.692026
O O17 0.299681 0.500000 0.215083
O O18 0.267841 0.416277 0.261880
O O19 0.302048 0.440913 0.000000
O O20 0.252422 0.366476 0.500000
#
# Coordination Sequence:
#
# PCOD8289874 Si02
#       7
#    16  16  16   8  16  16  16
#     4  10  20  35  56  82 111 140 173 216 267 323
#     4  10  20  33  50  72  96 125 167 218 263 304
#     4   8  14  26  45  68  94 126 165 208 253 302
#     4  11  23  35  47  65  95 137 177 215 263 315
#     4   9  17  31  54  80 104 133 168 208 255 309
#     4  10  20  32  48  73 104 137 174 216 261 312
#     4  10  21  36  54  76 103 137 176 218 267 318
#
# _framework density 17.619332
#
# number of rings (size 3 to 8) (size 9 to 14) (size 15 to 20)
#    0.000    2.385    0.769    2.538    0.000    4.923 
#    0.000    4.615    0.000    0.923    0.000    2.154 
#    0.000    0.000    0.000    0.000    0.000    0.000 
#
# Total GULP energy -644230.653319 kJ/mol
# GULP energy per Si atom -12389.051025 kJ/mol
# Density = 1.757923 g / cm^3
# Si number density = 17.619332 Si / 1000 Ang^3
#
#
#
# Elastic Constant Matrix: (Units=GPa)
#
#
# Indices 1 2 3 4 5 6 
#
# 1 138.1675 57.6638 81.0364 0.0000 0.0000 0.0000
# 2 57.6638 75.9543 61.3539 0.0000 0.0000 0.0000
# 3 81.0364 61.3539 221.5404 0.0000 0.0000 0.0000
# 4 0.0000 0.0000 0.0000 25.3264 0.0000 0.0000
# 5 0.0000 0.0000 0.0000 0.0000 29.9091 0.0000
# 6 0.0000 0.0000 0.0000 0.0000 0.0000 -50.8791
#
#
#
# Elastic Compliance Matrix: (Units=1/GPa)
#
#
# Indices 1 2 3 4 5 6 
#
# 1 0.011430 -0.006828 -0.002290 0.000000 0.000000 0.000000
# 2 -0.006828 0.021039 -0.003329 0.000000 0.000000 0.000000
# 3 -0.002290 -0.003329 0.006273 0.000000 0.000000 0.000000
# 4 0.000000 0.000000 0.000000 0.039485 0.000000 0.000000
# 5 0.000000 0.000000 0.000000 0.000000 0.033435 0.000000
# 6 0.000000 0.000000 0.000000 0.000000 0.000000 -0.019654
#
#
# Mechanical properties :
#
#
# Convention : Reuss Voigt Hill
#
# Bulk Modulus (GPa) = 72.21029 92.86339 82.53684
# Shear Modulus (GPa) = 41.14644 16.57848 28.86246
#
# Velocity S-wave (km/s) = 4.83774 3.07078 4.05175
# Velocity P-wave (km/s) = 8.50162 8.08658 8.29669
#
# Compressibility (1/GPa) = 0.01384844
#
# Stress axis : x y z
#
# Youngs Moduli (GPa) = 87.48605 47.53184 159.40169
#
# Poissons Ratio (x) = 0.32454 0.36505
# Poissons Ratio (y) = 0.59735 0.53063
# Poissons Ratio (z) = 0.20035 0.15823
#
# Static dielectric constant tensor:
#      x y z
#    x 3.671160 0.000000 0.000000 
#    y 0.000000 2.906820 0.000000 
#    z 0.000000 0.000000 3.483900 
# 
# 
# High freq. dielectric constant tensor:
#      x y z
#    x 1.698490 0.000000 0.000000 
#    y 0.000000 1.633760 0.000000 
#    z 0.000000 0.000000 1.695880 
# 
# From -- ./inp_files/11551.got.cif
#   From: 2010.06.25/outbox.cif.g09.slc.cpg/sg71_6_cif.got.tgz:11551.got - 2010.06.28 04:59:45.
