data_PCOD8289808
_publ_section_title
;
Structure prediction by ZEFSAII (Michael W. Deem and Ramdas Pophale) SiO2 
 PCOD8289808
Probable space group: I M M M
;
_chemical_formula_sum "Si O2"
_cell_formula_units_Z 80
_cell_length_a 20.331558
_cell_length_b 12.626093
_cell_length_c 18.969937
_cell_angle_alpha 90.000000
_cell_angle_beta 90.000000
_cell_angle_gamma 90.000000
_cell_volume 4869.737284
_symmetry_space_group_name_H-M "I M M M"
_symmetry_group_IT_number 71
_symmetry_cell_setting 'orthorhombic'
loop_
_space_group_symop_operation_xyz
x,y,z
-x,-y,z
x,-y,-z
-x,y,-z
-x,-y,-z
x,y,-z
-x,y,z
x,-y,z
1/2+x,1/2+y,1/2+z
1/2-x,1/2-y,1/2+z
1/2+x,1/2-y,1/2-z
1/2-x,1/2+y,1/2-z
1/2-x,1/2-y,1/2-z
1/2+x,1/2+y,1/2-z
1/2-x,1/2+y,1/2+z
1/2+x,1/2-y,1/2+z
loop_
_atom_site_type_symbol
_atom_site_label
_atom_site_fract_x
_atom_site_fract_y
_atom_site_fract_z
Si Si1 0.348440 0.245049 0.795627
Si Si2 0.818884 0.700436 0.081469
Si Si3 0.925852 0.621399 0.187857
Si Si4 0.825474 0.121084 0.420193
Si Si5 0.278742 0.623502 0.679901
O O1 0.410509 0.194646 0.755818
O O2 0.367883 0.302127 0.869164
O O3 0.316141 0.337806 0.749361
O O4 0.298006 0.149395 0.810299
O O5 0.877607 0.643667 0.122842
O O6 0.752478 0.633650 0.094309
O O7 0.807993 0.818664 0.110923
O O8 0.838680 0.706356 0.000000
O O9 0.918562 0.500000 0.211054
O O10 0.000000 0.647002 0.163362
O O11 0.842036 0.154894 0.500000
O O12 0.845295 0.000000 0.406346
O O13 0.289485 0.500000 0.669116
#
# Coordination Sequence:
#
# PCOD8289808 Si02
#       5
#    16  16  16  16  16
#     4   9  17  28  44  66  92 116 146 188 227 263
#     4   9  18  30  44  67  97 122 147 183 222 263
#     4  10  20  32  47  66  88 120 157 186 217 259
#     4   9  16  27  47  73  96 117 141 176 229 280
#     4   9  16  26  44  67  89 118 151 183 226 272
#
# _framework density 16.427990999999999
#
# number of rings (size 3 to 8) (size 9 to 14) (size 15 to 20)
#    0.000    2.800    0.000    3.000    0.000    2.000 
#    0.000    1.000    0.000   17.400    0.000    8.400 
#    0.000    0.000    0.000    0.000    0.000    0.000 
#
# Total GULP energy -495911.006325 kJ/mol
# GULP energy per Si atom -12397.775158 kJ/mol
# Density = 1.639060 g / cm^3
# Si number density = 16.427991 Si / 1000 Ang^3
#
#
#
# Elastic Constant Matrix: (Units=GPa)
#
#
# Indices 1 2 3 4 5 6 
#
# 1 37.7742 14.5851 24.0707 0.0000 0.0000 0.0000
# 2 14.5851 93.1732 38.5989 0.0000 0.0000 0.0000
# 3 24.0707 38.5989 115.3010 0.0000 0.0000 0.0000
# 4 0.0000 0.0000 0.0000 22.8972 0.0000 0.0000
# 5 0.0000 0.0000 0.0000 0.0000 16.3246 0.0000
# 6 0.0000 0.0000 0.0000 0.0000 0.0000 17.6850
#
#
#
# Elastic Compliance Matrix: (Units=1/GPa)
#
#
# Indices 1 2 3 4 5 6 
#
# 1 0.031038 -0.002524 -0.005635 0.000000 0.000000 0.000000
# 2 -0.002524 0.012666 -0.003713 0.000000 0.000000 0.000000
# 3 -0.005635 -0.003713 0.011092 0.000000 0.000000 0.000000
# 4 0.000000 0.000000 0.000000 0.043673 0.000000 0.000000
# 5 0.000000 0.000000 0.000000 0.000000 0.061257 0.000000
# 6 0.000000 0.000000 0.000000 0.000000 0.000000 0.056545
#
#
# Mechanical properties :
#
#
# Convention : Reuss Voigt Hill
#
# Bulk Modulus (GPa) = 32.20369 44.52866 38.36618
# Shear Modulus (GPa) = 19.97061 22.64759 21.30910
#
# Velocity S-wave (km/s) = 3.49039 3.71698 3.60546
# Velocity P-wave (km/s) = 5.99077 6.75170 6.38258
#
# Compressibility (1/GPa) = 0.03105234
#
# Stress axis : x y z
#
# Youngs Moduli (GPa) = 32.21822 78.95071 90.15257
#
# Poissons Ratio (x) = 0.19931 0.50797
# Poissons Ratio (y) = 0.08133 0.33475
# Poissons Ratio (z) = 0.18154 0.29316
#
# Static dielectric constant tensor:
#      x y z
#    x 2.791750 0.000000 0.000000 
#    y 0.000000 3.009270 0.000000 
#    z 0.000000 0.000000 3.268840 
# 
# 
# High freq. dielectric constant tensor:
#      x y z
#    x 1.591160 0.000000 0.000000 
#    y 0.000000 1.632410 0.000000 
#    z 0.000000 0.000000 1.638630 
# 
# From -- ./inp_files/36471.got.cif
#   From: 2010.06.25/outbox.cif.g09.slc.cpg/sg71_19_cif.got.tgz:36471.got - 2010.06.28 04:59:45.
