data_PCOD8289684
_publ_section_title
;
Structure prediction by ZEFSAII (Michael W. Deem and Ramdas Pophale) SiO2 
 PCOD8289684
Probable space group: I M M M
;
_chemical_formula_sum "Si O2"
_cell_formula_units_Z 68
_cell_length_a 23.262458
_cell_length_b 8.097271
_cell_length_c 18.430587
_cell_angle_alpha 90.000000
_cell_angle_beta 90.000000
_cell_angle_gamma 90.000000
_cell_volume 3471.630090
_symmetry_space_group_name_H-M "I M M M"
_symmetry_group_IT_number 71
_symmetry_cell_setting 'orthorhombic'
loop_
_space_group_symop_operation_xyz
x,y,z
-x,-y,z
x,-y,-z
-x,y,-z
-x,-y,-z
x,y,-z
-x,y,z
x,-y,z
1/2+x,1/2+y,1/2+z
1/2-x,1/2-y,1/2+z
1/2+x,1/2-y,1/2-z
1/2-x,1/2+y,1/2-z
1/2-x,1/2-y,1/2-z
1/2+x,1/2+y,1/2-z
1/2-x,1/2+y,1/2+z
1/2+x,1/2-y,1/2+z
loop_
_atom_site_type_symbol
_atom_site_label
_atom_site_fract_x
_atom_site_fract_y
_atom_site_fract_z
Si Si1 0.123778 0.812429 0.690191
Si Si2 0.500000 0.000000 0.368995
Si Si3 0.878691 0.500000 0.920010
Si Si4 0.500000 0.181133 0.771595
Si Si5 0.323712 0.694306 0.343421
Si Si6 0.708147 0.189379 0.919885
O O1 0.164840 0.773550 0.758634
O O2 0.147564 0.714323 0.620724
O O3 0.057169 0.775265 0.704229
O O4 0.129308 0.000000 0.667802
O O5 0.447013 0.000000 0.422872
O O6 0.500000 0.838253 0.315932
O O7 0.863573 0.326575 0.882917
O O8 0.852028 0.500000 0.000000
O O9 0.500000 0.000000 0.808829
O O10 0.337343 0.500000 0.362871
O O11 0.259478 0.748969 0.366749
O O12 0.717570 0.000000 0.934940
O O13 0.709164 0.277115 0.000000
#
# Coordination Sequence:
#
# PCOD8289684 Si02
#       6
#    16   4   8   8  16  16
#     4  11  22  37  62  90 118 157 203 252 303 358
#     4  10  21  40  60  86 123 156 204 260 289 358
#     4  12  23  38  64  92 126 167 202 247 305 357
#     4  10  19  38  63  82 114 156 200 253 296 350
#     4  10  22  40  62  91 124 163 205 248 299 364
#     4  10  22  39  59  87 124 160 197 248 307 366
#
# _framework density 19.587340999999999
#
# number of rings (size 3 to 8) (size 9 to 14) (size 15 to 20)
#    0.353    1.176    2.353    2.647    3.294    1.882 
#    0.000    1.176    0.000    4.941    0.000    0.000 
#    0.000    0.000    0.000    0.000    0.000    0.000 
#
# Total GULP energy -421239.910286 kJ/mol
# GULP energy per Si atom -12389.409126 kJ/mol
# Density = 1.954276 g / cm^3
# Si number density = 19.587341 Si / 1000 Ang^3
#
#
#
# Elastic Constant Matrix: (Units=GPa)
#
#
# Indices 1 2 3 4 5 6 
#
# 1 109.0213 14.5858 59.3448 0.0000 0.0000 0.0000
# 2 14.5858 58.9457 33.0418 0.0000 0.0000 0.0000
# 3 59.3448 33.0418 115.8514 0.0000 0.0000 0.0000
# 4 0.0000 0.0000 0.0000 17.7288 0.0000 0.0000
# 5 0.0000 0.0000 0.0000 0.0000 -4.8011 0.0000
# 6 0.0000 0.0000 0.0000 0.0000 0.0000 17.8739
#
#
#
# Elastic Compliance Matrix: (Units=1/GPa)
#
#
# Indices 1 2 3 4 5 6 
#
# 1 0.012737 0.000602 -0.006696 0.000000 0.000000 0.000000
# 2 0.000602 0.020222 -0.006076 0.000000 0.000000 0.000000
# 3 -0.006696 -0.006076 0.013795 0.000000 0.000000 0.000000
# 4 0.000000 0.000000 0.000000 0.056405 0.000000 0.000000
# 5 0.000000 0.000000 0.000000 0.000000 -0.208286 0.000000
# 6 0.000000 0.000000 0.000000 0.000000 0.000000 0.055947
#
#
# Mechanical properties :
#
#
# Convention : Reuss Voigt Hill
#
# Bulk Modulus (GPa) = 44.61650 55.30704 49.96177
# Shear Modulus (GPa) = -287.86879 17.95007 -134.95936
#
# Velocity S-wave (km/s) = -12.13614 3.03051 -8.30969
# Velocity P-wave (km/s) = 13.17397 6.36732 8.15508
#
# Compressibility (1/GPa) = 0.02241323
#
# Stress axis : x y z
#
# Youngs Moduli (GPa) = 78.51142 49.45226 72.49175
#
# Poissons Ratio (x) = -0.02976 0.48542
# Poissons Ratio (y) = -0.04725 0.44043
# Poissons Ratio (z) = 0.52573 0.30045
#
# Static dielectric constant tensor:
#      x y z
#    x 3.504310 0.000000 0.000000 
#    y 0.000000 3.516130 0.000000 
#    z 0.000000 0.000000 3.602500 
# 
# 
# High freq. dielectric constant tensor:
#      x y z
#    x 1.762800 0.000000 0.000000 
#    y 0.000000 1.761260 0.000000 
#    z 0.000000 0.000000 1.756600 
# 
# From -- ./inp_files/46875.got.cif
#   From: 2010.06.25/outbox.cif.g09.slc.cpg/sg71_24_cif.got.tgz:46875.got - 2010.06.28 04:59:45.
