data_PCOD8289859
_publ_section_title
;
Structure prediction by ZEFSAII (Michael W. Deem and Ramdas Pophale) SiO2 
 PCOD8289859
Probable space group: I M M M
;
_chemical_formula_sum "Si O2"
_cell_formula_units_Z 112
_cell_length_a 31.394360
_cell_length_b 13.999610
_cell_length_c 14.733688
_cell_angle_alpha 90.000000
_cell_angle_beta 90.000000
_cell_angle_gamma 90.000000
_cell_volume 6475.585476
_symmetry_space_group_name_H-M "I M M M"
_symmetry_group_IT_number 71
_symmetry_cell_setting 'orthorhombic'
loop_
_space_group_symop_operation_xyz
x,y,z
-x,-y,z
x,-y,-z
-x,y,-z
-x,-y,-z
x,y,-z
-x,y,z
x,-y,z
1/2+x,1/2+y,1/2+z
1/2-x,1/2-y,1/2+z
1/2+x,1/2-y,1/2-z
1/2-x,1/2+y,1/2-z
1/2-x,1/2-y,1/2-z
1/2+x,1/2+y,1/2-z
1/2-x,1/2+y,1/2+z
1/2+x,1/2-y,1/2+z
loop_
_atom_site_type_symbol
_atom_site_label
_atom_site_fract_x
_atom_site_fract_y
_atom_site_fract_z
Si Si1 0.952101 0.888847 0.285789
Si Si2 0.824051 0.111737 0.102517
Si Si3 0.917975 0.112829 0.098527
Si Si4 0.709370 0.612824 0.898289
Si Si5 0.748274 0.112856 0.219489
Si Si6 0.621011 0.291281 0.896642
Si Si7 0.831104 0.391222 0.395876
O O1 0.950096 0.860223 0.179192
O O2 0.919363 0.823331 0.339174
O O3 0.000000 0.868558 0.319979
O O4 0.940073 0.000000 0.299787
O O5 0.871010 0.155538 0.121141
O O6 0.788920 0.158804 0.168098
O O7 0.825774 0.000000 0.122820
O O8 0.809791 0.132454 0.000000
O O9 0.913482 0.000000 0.089952
O O10 0.934030 0.152362 0.000000
O O11 0.703686 0.500000 0.896698
O O12 0.746392 0.642573 0.825783
O O13 0.664152 0.655281 0.866907
O O14 0.721945 0.648411 0.000000
O O15 0.705092 0.150147 0.172315
O O16 0.747809 0.000000 0.206603
O O17 0.627926 0.177164 0.883782
O O18 0.610305 0.317140 0.000000
O O19 0.814177 0.384526 0.500000
O O20 0.844390 0.500000 0.372240
#
# Coordination Sequence:
#
# PCOD8289859 Si02
#       7
#    16  16  16  16  16  16  16
#     4  10  20  32  48  71  95 119 149 183 220 268
#     4   8  12  18  32  56  84 112 142 176 211 246
#     4   8  14  25  41  63  93 127 156 178 207 251
#     4   9  17  28  42  62  90 125 160 186 213 258
#     4   9  15  24  41  63  87 116 150 188 222 250
#     4  10  20  33  48  65  89 121 153 188 230 274
#     4   9  18  32  49  68  88 113 149 191 235 279
#
# _framework density 17.295732999999998
#
# number of rings (size 3 to 8) (size 9 to 14) (size 15 to 20)
#    0.000    3.000    0.000    2.571    0.000    6.000 
#    0.000    2.143    0.000    1.286    0.000    2.000 
#    0.000    0.000    0.000    1.286    0.000    0.143 
#
# Total GULP energy -693845.293298 kJ/mol
# GULP energy per Si atom -12390.094523 kJ/mol
# Density = 1.725637 g / cm^3
# Si number density = 17.295733 Si / 1000 Ang^3
#
#
#
# Elastic Constant Matrix: (Units=GPa)
#
#
# Indices 1 2 3 4 5 6 
#
# 1 83.0735 34.5114 55.6700 0.0000 0.0000 0.0000
# 2 34.5114 43.3435 30.5759 0.0000 0.0000 0.0000
# 3 55.6700 30.5759 85.9133 0.0000 0.0000 0.0000
# 4 0.0000 0.0000 0.0000 8.7152 0.0000 0.0000
# 5 0.0000 0.0000 0.0000 0.0000 16.9863 0.0000
# 6 0.0000 0.0000 0.0000 0.0000 0.0000 17.6162
#
#
#
# Elastic Compliance Matrix: (Units=1/GPa)
#
#
# Indices 1 2 3 4 5 6 
#
# 1 0.024786 -0.011223 -0.012067 0.000000 0.000000 0.000000
# 2 -0.011223 0.035888 -0.005500 0.000000 0.000000 0.000000
# 3 -0.012067 -0.005500 0.021416 0.000000 0.000000 0.000000
# 4 0.000000 0.000000 0.000000 0.114742 0.000000 0.000000
# 5 0.000000 0.000000 0.000000 0.000000 0.058871 0.000000
# 6 0.000000 0.000000 0.000000 0.000000 0.000000 0.056766
#
#
# Mechanical properties :
#
#
# Convention : Reuss Voigt Hill
#
# Bulk Modulus (GPa) = 40.79904 50.42721 45.61313
# Shear Modulus (GPa) = 13.21988 14.76841 13.99414
#
# Velocity S-wave (km/s) = 2.76768 2.92529 2.84757
# Velocity P-wave (km/s) = 5.81839 6.37408 6.10256
#
# Compressibility (1/GPa) = 0.02451038
#
# Stress axis : x y z
#
# Youngs Moduli (GPa) = 40.34477 27.86485 46.69436
#
# Poissons Ratio (x) = 0.31274 0.56345
# Poissons Ratio (y) = 0.45281 0.25680
# Poissons Ratio (z) = 0.48683 0.15324
#
# Static dielectric constant tensor:
#      x y z
#    x 3.069700 0.000000 0.000000 
#    y 0.000000 2.906650 0.000000 
#    z 0.000000 0.000000 3.540190 
# 
# 
# High freq. dielectric constant tensor:
#      x y z
#    x 1.638710 0.000000 0.000000 
#    y 0.000000 1.623990 0.000000 
#    z 0.000000 0.000000 1.681370 
# 
# From -- ./inp_files/35156.got.cif
#   From: 2010.06.25/outbox.cif.g09.slc.cpg/sg71_18_cif.got.tgz:35156.got - 2010.06.28 04:59:45.
