data_PCOD8289212
_publ_section_title
;
Structure prediction by ZEFSAII (Michael W. Deem and Ramdas Pophale) SiO2 
 PCOD8289212
Probable space group: I M M M
;
_chemical_formula_sum "Si O2"
_cell_formula_units_Z 88
_cell_length_a 17.608890
_cell_length_b 28.553644
_cell_length_c 9.379484
_cell_angle_alpha 90.000000
_cell_angle_beta 90.000000
_cell_angle_gamma 90.000000
_cell_volume 4715.985574
_symmetry_space_group_name_H-M "I M M M"
_symmetry_group_IT_number 71
_symmetry_cell_setting 'orthorhombic'
loop_
_space_group_symop_operation_xyz
x,y,z
-x,-y,z
x,-y,-z
-x,y,-z
-x,-y,-z
x,y,-z
-x,y,z
x,-y,z
1/2+x,1/2+y,1/2+z
1/2-x,1/2-y,1/2+z
1/2+x,1/2-y,1/2-z
1/2-x,1/2+y,1/2-z
1/2-x,1/2-y,1/2-z
1/2+x,1/2+y,1/2-z
1/2-x,1/2+y,1/2+z
1/2+x,1/2-y,1/2+z
loop_
_atom_site_type_symbol
_atom_site_label
_atom_site_fract_x
_atom_site_fract_y
_atom_site_fract_z
Si Si1 0.913764 0.617808 0.163643
Si Si2 0.500000 0.552780 0.669573
Si Si3 0.587812 0.705056 0.663834
Si Si4 0.851393 0.895185 0.166865
Si Si5 0.277541 0.946710 0.665235
Si Si6 0.909682 0.293498 0.339276
O O1 0.862972 0.571913 0.189799
O O2 0.880813 0.660250 0.258468
O O3 0.000000 0.604811 0.207067
O O4 0.910010 0.634400 0.000000
O O5 0.500000 0.500000 0.726998
O O6 0.500000 0.555407 0.500000
O O7 0.574937 0.578125 0.728326
O O8 0.595767 0.720442 0.500000
O O9 0.500000 0.693119 0.698241
O O10 0.638815 0.659839 0.697208
O O11 0.620260 0.746976 0.760629
O O12 0.778259 0.913700 0.247590
O O13 0.841193 0.905330 0.000000
O O14 0.254854 0.944094 0.500000
O O15 0.273608 0.000000 0.721426
O O16 0.877690 0.294119 0.500000
O O17 0.000000 0.292861 0.336181
#
# Coordination Sequence:
#
# PCOD8289212 Si02
#       6
#    16   8  16  16  16  16
#     4   9  18  35  58  79 100 133 175 214 257 314
#     4   9  16  28  49  75 101 133 179 225 254 289
#     4   9  16  29  50  76 106 139 178 217 251 295
#     4  10  19  33  53  78 105 139 181 219 256 301
#     4  10  22  38  54  76 107 137 168 215 271 318
#     4   9  17  29  49  79 110 136 166 209 263 314
#
# _framework density 18.659939000000001
#
# number of rings (size 3 to 8) (size 9 to 14) (size 15 to 20)
#    0.000    2.636    0.909    1.091    0.000    5.091 
#    0.000    3.182    0.000    1.636    0.000    3.818 
#    0.000    0.000    0.000    0.000    0.000    0.000 
#
# Total GULP energy -545622.414555 kJ/mol
# GULP energy per Si atom -12400.509422 kJ/mol
# Density = 1.861747 g / cm^3
# Si number density = 18.659939 Si / 1000 Ang^3
#
#
#
# Elastic Constant Matrix: (Units=GPa)
#
#
# Indices 1 2 3 4 5 6 
#
# 1 76.6223 39.5648 32.7620 0.0001 -0.0001 -0.0002
# 2 39.5648 106.6164 51.0603 -0.0009 0.0003 0.0000
# 3 32.7620 51.0603 74.8176 -0.0049 0.0001 0.0001
# 4 0.0001 -0.0009 -0.0049 26.4853 -0.0003 0.0000
# 5 -0.0001 0.0003 0.0001 -0.0003 23.9197 -0.0004
# 6 -0.0002 0.0000 0.0001 0.0000 -0.0004 25.3038
#
#
#
# Elastic Compliance Matrix: (Units=1/GPa)
#
#
# Indices 1 2 3 4 5 6 
#
# 1 0.017197 -0.004123 -0.004717 -0.000001 0.000000 0.000000
# 2 -0.004123 0.014922 -0.008378 -0.000001 0.000000 0.000000
# 3 -0.004717 -0.008378 0.021149 0.000004 0.000000 0.000000
# 4 -0.000001 -0.000001 0.000004 0.037757 0.000000 0.000000
# 5 0.000000 0.000000 0.000000 0.000000 0.041807 0.000001
# 6 0.000000 0.000000 0.000000 0.000000 0.000001 0.039520
#
#
# Mechanical properties :
#
#
# Convention : Reuss Voigt Hill
#
# Bulk Modulus (GPa) = 53.10051 56.09228 54.59639
# Shear Modulus (GPa) = 23.46720 24.11971 23.79345
#
# Velocity S-wave (km/s) = 3.55015 3.59917 3.57474
# Velocity P-wave (km/s) = 6.73227 6.88459 6.80885
#
# Compressibility (1/GPa) = 0.01883221
#
# Stress axis : x y z
#
# Youngs Moduli (GPa) = 58.15122 67.01586 47.28320
#
# Poissons Ratio (x) = 0.27628 0.22302
# Poissons Ratio (y) = 0.23974 0.39616
# Poissons Ratio (z) = 0.27428 0.56148
#
# Static dielectric constant tensor:
#      x y z
#    x 3.207410 0.000000 0.000000 
#    y 0.000000 3.506520 0.000000 
#    z 0.000000 0.000000 3.341490 
# 
# 
# High freq. dielectric constant tensor:
#      x y z
#    x 1.703510 0.000000 0.000000 
#    y 0.000000 1.732280 0.000000 
#    z 0.000000 0.000000 1.708450 
# 
# From -- ./inp_files/8731.got.cif
#   From: 2010.06.25/outbox.cif.g09.slc.cpg/sg71_5_cif.got.tgz:8731.got - 2010.06.28 04:59:45.
