data_PCOD8289085
_publ_section_title
;
Structure prediction by ZEFSAII (Michael W. Deem and Ramdas Pophale) SiO2 
 PCOD8289085
Probable space group: I M M M
;
_chemical_formula_sum "Si O2"
_cell_formula_units_Z 96
_cell_length_a 22.400866
_cell_length_b 17.251323
_cell_length_c 12.952371
_cell_angle_alpha 90.000000
_cell_angle_beta 90.000000
_cell_angle_gamma 90.000000
_cell_volume 5005.373504
_symmetry_space_group_name_H-M "I M M M"
_symmetry_group_IT_number 71
_symmetry_cell_setting 'orthorhombic'
loop_
_space_group_symop_operation_xyz
x,y,z
-x,-y,z
x,-y,-z
-x,y,-z
-x,-y,-z
x,y,-z
-x,y,z
x,-y,z
1/2+x,1/2+y,1/2+z
1/2-x,1/2-y,1/2+z
1/2+x,1/2-y,1/2-z
1/2-x,1/2+y,1/2-z
1/2-x,1/2-y,1/2-z
1/2+x,1/2+y,1/2-z
1/2-x,1/2+y,1/2+z
1/2+x,1/2-y,1/2+z
loop_
_atom_site_type_symbol
_atom_site_label
_atom_site_fract_x
_atom_site_fract_y
_atom_site_fract_z
Si Si1 0.185017 0.500000 0.121071
Si Si2 0.567837 0.000000 0.740369
Si Si3 0.932137 0.669016 0.306391
Si Si4 0.683947 0.763212 0.117518
Si Si5 0.431682 0.730232 0.385193
Si Si6 0.759064 0.128817 0.733196
Si Si7 0.356368 0.416043 0.382223
O O1 0.114626 0.500000 0.146935
O O2 0.215603 0.576174 0.166419
O O3 0.193505 0.500000 0.000000
O O4 0.577845 0.076236 0.811364
O O5 0.500000 0.000000 0.695261
O O6 0.886541 0.715038 0.379986
O O7 0.919825 0.696921 0.188695
O O8 0.000000 0.689705 0.340223
O O9 0.718412 0.818302 0.195095
O O10 0.697822 0.676208 0.155395
O O11 0.706374 0.772670 0.000000
O O12 0.410039 0.754520 0.500000
O O13 0.500000 0.705412 0.386797
O O14 0.397734 0.654159 0.343997
O O15 0.798970 0.078052 0.809531
O O16 0.336050 0.401038 0.500000
O O17 0.389314 0.500000 0.374082
#
# Coordination Sequence:
#
# PCOD8289085 Si02
#       7
#     8   8  16  16  16  16  16
#     4  12  24  39  62  88 117 157 193 233 294 355
#     4  10  22  41  60  85 118 149 190 245 297 340
#     4  10  20  38  60  83 115 152 195 246 292 346
#     4  11  23  39  61  85 112 152 194 240 293 346
#     4   9  18  33  54  81 113 152 194 237 287 341
#     4  11  22  40  56  85 120 148 187 242 284 348
#     4  10  19  32  56  86 115 150 187 228 284 346
#
# _framework density 19.179387999999999
#
# number of rings (size 3 to 8) (size 9 to 14) (size 15 to 20)
#    0.000    1.667    4.167    1.000    0.000    1.500 
#    0.000    4.583    0.000    1.500    0.000    0.000 
#    0.000    5.333    0.000    0.000    0.000    0.000 
#
# Total GULP energy -595033.510302 kJ/mol
# GULP energy per Si atom -12396.531465 kJ/mol
# Density = 1.913573 g / cm^3
# Si number density = 19.179388 Si / 1000 Ang^3
#
#
#
# Elastic Constant Matrix: (Units=GPa)
#
#
# Indices 1 2 3 4 5 6 
#
# 1 89.1392 43.9950 35.8774 0.0000 0.0000 0.0000
# 2 43.9950 104.4190 28.9904 0.0000 0.0000 0.0000
# 3 35.8774 28.9904 88.5295 0.0000 0.0000 0.0000
# 4 0.0000 0.0000 0.0000 18.6218 0.0000 0.0000
# 5 0.0000 0.0000 0.0000 0.0000 19.2475 0.0000
# 6 0.0000 0.0000 0.0000 0.0000 0.0000 31.3475
#
#
#
# Elastic Compliance Matrix: (Units=1/GPa)
#
#
# Indices 1 2 3 4 5 6 
#
# 1 0.015712 -0.005337 -0.004620 0.000000 0.000000 0.000000
# 2 -0.005337 0.012348 -0.001880 0.000000 0.000000 0.000000
# 3 -0.004620 -0.001880 0.013784 0.000000 0.000000 0.000000
# 4 0.000000 0.000000 0.000000 0.053700 0.000000 0.000000
# 5 0.000000 0.000000 0.000000 0.000000 0.051955 0.000000
# 6 0.000000 0.000000 0.000000 0.000000 0.000000 0.031900
#
#
# Mechanical properties :
#
#
# Convention : Reuss Voigt Hill
#
# Bulk Modulus (GPa) = 55.04059 55.53483 55.28771
# Shear Modulus (GPa) = 23.90858 25.39170 24.65014
#
# Velocity S-wave (km/s) = 3.53452 3.64250 3.58892
# Velocity P-wave (km/s) = 6.73923 6.83438 6.78697
#
# Compressibility (1/GPa) = 0.01816841
#
# Stress axis : x y z
#
# Youngs Moduli (GPa) = 63.64534 80.98679 72.55003
#
# Poissons Ratio (x) = 0.43226 0.33516
# Poissons Ratio (y) = 0.33970 0.13642
# Poissons Ratio (z) = 0.29402 0.15229
#
# Static dielectric constant tensor:
#      x y z
#    x 3.630020 0.000000 0.000000 
#    y 0.000000 3.622990 0.000000 
#    z 0.000000 0.000000 3.371000 
# 
# 
# High freq. dielectric constant tensor:
#      x y z
#    x 1.747290 0.000000 0.000000 
#    y 0.000000 1.753040 0.000000 
#    z 0.000000 0.000000 1.728830 
# 
# From -- ./inp_files/27433.got.cif
#   From: 2010.06.25/outbox.cif.g09.slc.cpg/sg71_14_cif.got.tgz:27433.got - 2010.06.28 04:59:45.
