data_PCOD8289496
_publ_section_title
;
Structure prediction by ZEFSAII (Michael W. Deem and Ramdas Pophale) SiO2 
 PCOD8289496
Probable space group: I M M M
;
_chemical_formula_sum "Si O2"
_cell_formula_units_Z 96
_cell_length_a 14.215140
_cell_length_b 15.741426
_cell_length_c 22.093803
_cell_angle_alpha 90.000000
_cell_angle_beta 90.000000
_cell_angle_gamma 90.000000
_cell_volume 4943.854613
_symmetry_space_group_name_H-M "I M M M"
_symmetry_group_IT_number 71
_symmetry_cell_setting 'orthorhombic'
loop_
_space_group_symop_operation_xyz
x,y,z
-x,-y,z
x,-y,-z
-x,y,-z
-x,-y,-z
x,y,-z
-x,y,z
x,-y,z
1/2+x,1/2+y,1/2+z
1/2-x,1/2-y,1/2+z
1/2+x,1/2-y,1/2-z
1/2-x,1/2+y,1/2-z
1/2-x,1/2-y,1/2-z
1/2+x,1/2+y,1/2-z
1/2-x,1/2+y,1/2+z
1/2+x,1/2-y,1/2+z
loop_
_atom_site_type_symbol
_atom_site_label
_atom_site_fract_x
_atom_site_fract_y
_atom_site_fract_z
Si Si1 0.393187 0.663620 0.928659
Si Si2 0.790325 0.404042 0.118251
Si Si3 0.397033 0.748485 0.569902
Si Si4 0.221066 0.906898 0.070072
Si Si5 0.106075 0.597131 0.238473
Si Si6 0.894100 0.655216 0.367971
O O1 0.500000 0.631002 0.918765
O O2 0.321501 0.599587 0.895167
O O3 0.376805 0.753526 0.897297
O O4 0.370291 0.670479 0.000000
O O5 0.825361 0.500000 0.104161
O O6 0.841704 0.336788 0.075358
O O7 0.817222 0.380022 0.187214
O O8 0.409686 0.727970 0.500000
O O9 0.500000 0.755772 0.600723
O O10 0.342686 0.667885 0.599514
O O11 0.322334 0.909963 0.101861
O O12 0.173798 0.000000 0.079528
O O13 0.238256 0.887623 0.000000
O O14 0.118793 0.500000 0.260042
O O15 0.124078 0.658383 0.295712
O O16 0.000000 0.610926 0.212892
O O17 0.000000 0.623155 0.380848
#
# Coordination Sequence:
#
# PCOD8289496 Si02
#       6
#    16  16  16  16  16  16
#     4  10  21  37  57  84 119 153 188 235 289 346
#     4  11  22  37  59  83 111 150 193 237 287 338
#     4  10  21  37  55  78 110 145 186 239 291 339
#     4  10  20  34  54  81 113 149 188 231 286 348
#     4   9  19  35  55  83 116 148 187 236 287 340
#     4  10  19  34  58  84 113 149 187 231 285 341
#
# _framework density 19.418047000000001
#
# number of rings (size 3 to 8) (size 9 to 14) (size 15 to 20)
#    0.000    2.000    1.667    2.000    0.000    5.667 
#    0.000    4.167    0.000    0.000    0.000    2.333 
#    0.000    0.000    0.000    0.000    0.000    0.000 
#
# Total GULP energy -595009.723043 kJ/mol
# GULP energy per Si atom -12396.035897 kJ/mol
# Density = 1.937385 g / cm^3
# Si number density = 19.418047 Si / 1000 Ang^3
#
#
#
# Elastic Constant Matrix: (Units=GPa)
#
#
# Indices 1 2 3 4 5 6 
#
# 1 126.9297 53.7203 47.4588 0.0000 0.0000 0.0000
# 2 53.7203 103.0306 31.5419 0.0000 0.0000 0.0000
# 3 47.4588 31.5419 83.7500 0.0000 0.0000 0.0000
# 4 0.0000 0.0000 0.0000 22.4809 0.0000 0.0000
# 5 0.0000 0.0000 0.0000 0.0000 30.6826 0.0000
# 6 0.0000 0.0000 0.0000 0.0000 0.0000 22.9956
#
#
#
# Elastic Compliance Matrix: (Units=1/GPa)
#
#
# Indices 1 2 3 4 5 6 
#
# 1 0.011636 -0.004576 -0.004870 0.000000 0.000000 0.000000
# 2 -0.004576 0.012770 -0.002216 0.000000 0.000000 0.000000
# 3 -0.004870 -0.002216 0.015535 0.000000 0.000000 0.000000
# 4 0.000000 0.000000 0.000000 0.044482 0.000000 0.000000
# 5 0.000000 0.000000 0.000000 0.000000 0.032592 0.000000
# 6 0.000000 0.000000 0.000000 0.000000 0.000000 0.043487
#
#
# Mechanical properties :
#
#
# Convention : Reuss Voigt Hill
#
# Bulk Modulus (GPa) = 60.18438 64.35026 62.26732
# Shear Modulus (GPa) = 26.40382 27.29777 26.85079
#
# Velocity S-wave (km/s) = 3.69149 3.75346 3.72260
# Velocity P-wave (km/s) = 7.01646 7.21082 7.11431
#
# Compressibility (1/GPa) = 0.01661561
#
# Stress axis : x y z
#
# Youngs Moduli (GPa) = 85.93914 78.30638 64.37081
#
# Poissons Ratio (x) = 0.35833 0.31351
# Poissons Ratio (y) = 0.39326 0.14267
# Poissons Ratio (z) = 0.41856 0.17356
#
# Static dielectric constant tensor:
#      x y z
#    x 3.812160 0.000000 0.000000 
#    y 0.000000 3.468190 0.000000 
#    z 0.000000 0.000000 3.367170 
# 
# 
# High freq. dielectric constant tensor:
#      x y z
#    x 1.759050 0.000000 0.000000 
#    y 0.000000 1.750730 0.000000 
#    z 0.000000 0.000000 1.736670 
# 
# From -- ./inp_files/34489.got.cif
#   From: 2010.06.25/outbox.cif.g09.slc.cpg/sg71_18_cif.got.tgz:34489.got - 2010.06.28 04:59:45.
