data_PCOD8289311
_publ_section_title
;
Structure prediction by ZEFSAII (Michael W. Deem and Ramdas Pophale) SiO2 
 PCOD8289311
Probable space group: I M M M
;
_chemical_formula_sum "Si O2"
_cell_formula_units_Z 88
_cell_length_a 23.987533
_cell_length_b 15.310156
_cell_length_c 12.843999
_cell_angle_alpha 90.000000
_cell_angle_beta 90.000000
_cell_angle_gamma 90.000000
_cell_volume 4716.995524
_symmetry_space_group_name_H-M "I M M M"
_symmetry_group_IT_number 71
_symmetry_cell_setting 'orthorhombic'
loop_
_space_group_symop_operation_xyz
x,y,z
-x,-y,z
x,-y,-z
-x,y,-z
-x,-y,-z
x,y,-z
-x,y,z
x,-y,z
1/2+x,1/2+y,1/2+z
1/2-x,1/2-y,1/2+z
1/2+x,1/2-y,1/2-z
1/2-x,1/2+y,1/2-z
1/2-x,1/2-y,1/2-z
1/2+x,1/2+y,1/2-z
1/2-x,1/2+y,1/2+z
1/2+x,1/2-y,1/2+z
loop_
_atom_site_type_symbol
_atom_site_label
_atom_site_fract_x
_atom_site_fract_y
_atom_site_fract_z
Si Si1 0.653993 0.726411 0.882898
Si Si2 0.933957 0.500000 0.121677
Si Si3 0.063901 0.903041 0.675032
Si Si4 0.562683 0.682824 0.385352
Si Si5 0.752073 0.902570 0.621420
Si Si6 0.633326 0.161163 0.691369
O O1 0.598382 0.668120 0.888503
O O2 0.703070 0.666209 0.832596
O O3 0.644184 0.811502 0.811495
O O4 0.668322 0.758536 0.000000
O O5 0.910549 0.417031 0.183635
O O6 0.000000 0.500000 0.130085
O O7 0.914895 0.500000 0.000000
O O8 0.071993 0.891572 0.799342
O O9 0.000000 0.890606 0.642314
O O10 0.084776 0.000000 0.645708
O O11 0.570800 0.641233 0.500000
O O12 0.500000 0.722285 0.374258
O O13 0.607968 0.758447 0.372004
O O14 0.763929 0.909633 0.500000
O O15 0.690648 0.867139 0.639666
O O16 0.758863 0.000000 0.671263
#
# Coordination Sequence:
#
# PCOD8289311 Si02
#       6
#    16   8  16  16  16  16
#     4  10  22  37  53  75 104 142 182 220 261 312
#     4  11  22  36  59  89 115 139 173 223 280 331
#     4   9  18  32  50  73 100 132 173 219 264 311
#     4   9  17  29  47  73 106 138 166 205 262 326
#     4  10  19  33  56  83 108 134 172 219 269 318
#     4  11  20  34  54  79 107 140 175 220 266 320
#
# _framework density 18.655944000000002
#
# number of rings (size 3 to 8) (size 9 to 14) (size 15 to 20)
#    0.000    2.091    0.909    3.273    0.000    4.000 
#    0.000    3.182    0.000    0.545    0.000    0.000 
#    0.000    0.000    0.000    0.000    0.000    0.000 
#
# Total GULP energy -545492.759736 kJ/mol
# GULP energy per Si atom -12397.562721 kJ/mol
# Density = 1.861348 g / cm^3
# Si number density = 18.655944 Si / 1000 Ang^3
#
#
#
# Elastic Constant Matrix: (Units=GPa)
#
#
# Indices 1 2 3 4 5 6 
#
# 1 88.0479 34.0489 17.2974 0.0000 0.0000 0.0000
# 2 34.0489 81.7932 19.2231 0.0000 0.0000 0.0000
# 3 17.2974 19.2231 68.5342 0.0000 0.0000 0.0000
# 4 0.0000 0.0000 0.0000 18.1407 0.0000 0.0000
# 5 0.0000 0.0000 0.0000 0.0000 22.7010 0.0000
# 6 0.0000 0.0000 0.0000 0.0000 0.0000 30.8909
#
#
#
# Elastic Compliance Matrix: (Units=1/GPa)
#
#
# Indices 1 2 3 4 5 6 
#
# 1 0.013788 -0.005269 -0.002002 0.000000 0.000000 0.000000
# 2 -0.005269 0.015102 -0.002906 0.000000 0.000000 0.000000
# 3 -0.002002 -0.002906 0.015912 0.000000 0.000000 0.000000
# 4 0.000000 0.000000 0.000000 0.055125 0.000000 0.000000
# 5 0.000000 0.000000 0.000000 0.000000 0.044051 0.000000
# 6 0.000000 0.000000 0.000000 0.000000 0.000000 0.032372
#
#
# Mechanical properties :
#
#
# Convention : Reuss Voigt Hill
#
# Bulk Modulus (GPa) = 40.90397 42.16824 41.53610
# Shear Modulus (GPa) = 24.40757 25.53358 24.97057
#
# Velocity S-wave (km/s) = 3.62097 3.70355 3.66249
# Velocity P-wave (km/s) = 6.28131 6.39848 6.34017
#
# Compressibility (1/GPa) = 0.02444750
#
# Stress axis : x y z
#
# Youngs Moduli (GPa) = 72.52435 66.21431 62.84681
#
# Poissons Ratio (x) = 0.34891 0.12583
# Poissons Ratio (y) = 0.38216 0.18264
# Poissons Ratio (z) = 0.14520 0.19243
#
# Static dielectric constant tensor:
#      x y z
#    x 3.534530 0.000000 0.000000 
#    y 0.000000 3.461290 0.000000 
#    z 0.000000 0.000000 3.358030 
# 
# 
# High freq. dielectric constant tensor:
#      x y z
#    x 1.737620 0.000000 0.000000 
#    y 0.000000 1.711290 0.000000 
#    z 0.000000 0.000000 1.707850 
# 
# From -- ./inp_files/28607.got.cif
#   From: 2010.06.25/outbox.cif.g09.slc.cpg/sg71_15_cif.got.tgz:28607.got - 2010.06.28 04:59:45.
