data_PCOD8289489
_publ_section_title
;
Structure prediction by ZEFSAII (Michael W. Deem and Ramdas Pophale) SiO2 
 PCOD8289489
Probable space group: I M M M
;
_chemical_formula_sum "Si O2"
_cell_formula_units_Z 88
_cell_length_a 9.158503
_cell_length_b 17.855657
_cell_length_c 28.398604
_cell_angle_alpha 90.000000
_cell_angle_beta 90.000000
_cell_angle_gamma 90.000000
_cell_volume 4644.054616
_symmetry_space_group_name_H-M "I M M M"
_symmetry_group_IT_number 71
_symmetry_cell_setting 'orthorhombic'
loop_
_space_group_symop_operation_xyz
x,y,z
-x,-y,z
x,-y,-z
-x,y,-z
-x,-y,-z
x,y,-z
-x,y,z
x,-y,z
1/2+x,1/2+y,1/2+z
1/2-x,1/2-y,1/2+z
1/2+x,1/2-y,1/2-z
1/2-x,1/2+y,1/2-z
1/2-x,1/2-y,1/2-z
1/2+x,1/2+y,1/2-z
1/2-x,1/2+y,1/2+z
1/2+x,1/2-y,1/2+z
loop_
_atom_site_type_symbol
_atom_site_label
_atom_site_fract_x
_atom_site_fract_y
_atom_site_fract_z
Si Si1 0.169229 0.785885 0.445541
Si Si2 0.829143 0.348005 0.209855
Si Si3 0.170646 0.857473 0.906118
Si Si4 0.832389 0.915447 0.624859
Si Si5 0.667762 0.676672 0.300474
Si Si6 0.335886 0.000000 0.055507
O O1 0.201261 0.802300 0.500000
O O2 0.267812 0.718205 0.428034
O O3 0.215317 0.860130 0.417056
O O4 0.000000 0.765000 0.437332
O O5 0.762315 0.403219 0.171480
O O6 0.763608 0.365782 0.261369
O O7 0.787027 0.263550 0.195380
O O8 0.000000 0.362121 0.211862
O O9 0.198261 0.861491 0.850352
O O10 0.000000 0.861508 0.918052
O O11 0.251291 0.927027 0.928438
O O12 0.000000 0.901479 0.638686
O O13 0.806884 0.000000 0.606836
O O14 0.500000 0.669763 0.285188
O O15 0.500000 0.000000 0.076435
O O16 0.342919 0.000000 0.000000
#
# Coordination Sequence:
#
# PCOD8289489 Si02
#       6
#    16  16  16  16  16   8
#     4  10  21  37  59  86 115 150 194 242 290 342
#     4  10  19  34  57  85 114 147 188 233 283 339
#     4  11  22  39  62  88 117 150 191 238 290 349
#     4  10  21  37  57  82 116 158 198 239 288 340
#     4   9  19  35  57  85 115 147 185 231 282 339
#     4  11  25  43  61  85 119 155 193 239 290 345
#
# _framework density 18.948958999999999
#
# number of rings (size 3 to 8) (size 9 to 14) (size 15 to 20)
#    0.000    1.909    1.818    1.909    0.000    6.182 
#    1.636    1.818    0.000    0.000    0.000    2.545 
#    0.000    0.000    0.000    0.000    0.000    0.000 
#
# Total GULP energy -545770.592754 kJ/mol
# GULP energy per Si atom -12403.877108 kJ/mol
# Density = 1.890583 g / cm^3
# Si number density = 18.948959 Si / 1000 Ang^3
#
#
#
# Elastic Constant Matrix: (Units=GPa)
#
#
# Indices 1 2 3 4 5 6 
#
# 1 106.4968 67.0406 68.6221 0.0000 0.0000 0.0000
# 2 67.0406 125.8571 63.3886 0.0000 0.0000 0.0000
# 3 68.6221 63.3886 118.4608 0.0000 0.0000 0.0000
# 4 0.0000 0.0000 0.0000 67.1716 0.0000 0.0000
# 5 0.0000 0.0000 0.0000 0.0000 31.0222 0.0000
# 6 0.0000 0.0000 0.0000 0.0000 0.0000 50.0299
#
#
#
# Elastic Compliance Matrix: (Units=1/GPa)
#
#
# Indices 1 2 3 4 5 6 
#
# 1 0.017622 -0.005812 -0.007098 0.000000 0.000000 0.000000
# 2 -0.005812 0.012794 -0.003479 0.000000 0.000000 0.000000
# 3 -0.007098 -0.003479 0.014415 0.000000 0.000000 0.000000
# 4 0.000000 0.000000 0.000000 0.014887 0.000000 0.000000
# 5 0.000000 0.000000 0.000000 0.000000 0.032235 0.000000
# 6 0.000000 0.000000 0.000000 0.000000 0.000000 0.019988
#
#
# Mechanical properties :
#
#
# Convention : Reuss Voigt Hill
#
# Bulk Modulus (GPa) = 82.97052 83.21303 83.09177
# Shear Modulus (GPa) = 33.61609 39.76230 36.68919
#
# Velocity S-wave (km/s) = 4.21650 4.58579 4.40501
# Velocity P-wave (km/s) = 8.22110 8.48816 8.35570
#
# Compressibility (1/GPa) = 0.01205247
#
# Stress axis : x y z
#
# Youngs Moduli (GPa) = 56.74565 78.16368 69.37050
#
# Poissons Ratio (x) = 0.45428 0.49242
# Poissons Ratio (y) = 0.32980 0.24136
# Poissons Ratio (z) = 0.40281 0.27195
#
# Static dielectric constant tensor:
#      x y z
#    x 3.543710 0.000000 0.000000 
#    y 0.000000 3.436860 0.000000 
#    z 0.000000 0.000000 3.581190 
# 
# 
# High freq. dielectric constant tensor:
#      x y z
#    x 1.741280 0.000000 0.000000 
#    y 0.000000 1.727480 0.000000 
#    z 0.000000 0.000000 1.745080 
# 
# From -- ./inp_files/68018.got.cif
#   From: 2010.06.25/outbox.cif.g09.slc.cpg/sg71_35_cif.got.tgz:68018.got - 2010.06.28 04:59:45.
