data_PCOD8289584
_publ_section_title
;
Structure prediction by ZEFSAII (Michael W. Deem and Ramdas Pophale) SiO2 
 PCOD8289584
Probable space group: I M M M
;
_chemical_formula_sum "Si O2"
_cell_formula_units_Z 104
_cell_length_a 14.283599
_cell_length_b 17.999033
_cell_length_c 20.106101
_cell_angle_alpha 90.000000
_cell_angle_beta 90.000000
_cell_angle_gamma 90.000000
_cell_volume 5169.097004
_symmetry_space_group_name_H-M "I M M M"
_symmetry_group_IT_number 71
_symmetry_cell_setting 'orthorhombic'
loop_
_space_group_symop_operation_xyz
x,y,z
-x,-y,z
x,-y,-z
-x,y,-z
-x,-y,-z
x,y,-z
-x,y,z
x,-y,z
1/2+x,1/2+y,1/2+z
1/2-x,1/2-y,1/2+z
1/2+x,1/2-y,1/2-z
1/2-x,1/2+y,1/2-z
1/2-x,1/2-y,1/2-z
1/2+x,1/2+y,1/2-z
1/2-x,1/2+y,1/2+z
1/2+x,1/2-y,1/2+z
loop_
_atom_site_type_symbol
_atom_site_label
_atom_site_fract_x
_atom_site_fract_y
_atom_site_fract_z
Si Si1 0.391789 0.190026 0.292240
Si Si2 0.703975 0.000000 0.075072
Si Si3 0.109322 0.000000 0.578766
Si Si4 0.897158 0.768472 0.426435
Si Si5 0.898249 0.374195 0.648166
Si Si6 0.605312 0.361954 0.282986
Si Si7 0.786679 0.872888 0.345245
Si Si8 0.102123 0.000000 0.880643
O O1 0.500000 0.173854 0.310491
O O2 0.368246 0.167101 0.216277
O O3 0.367432 0.277405 0.304406
O O4 0.326144 0.138308 0.339973
O O5 0.677575 0.931598 0.122116
O O6 0.815993 0.000000 0.065044
O O7 0.659765 0.000000 0.000000
O O8 0.172947 0.068738 0.602007
O O9 0.105973 0.000000 0.500000
O O10 0.000000 0.000000 0.605405
O O11 0.855476 0.781466 0.500000
O O12 0.908590 0.681982 0.412890
O O13 0.827355 0.795124 0.369679
O O14 0.000000 0.807341 0.421282
O O15 0.000000 0.412741 0.659239
O O16 0.500000 0.358571 0.253920
O O17 0.674617 0.392692 0.227076
O O18 0.611896 0.423001 0.340291
O O19 0.000000 0.000000 0.915347
#
# Coordination Sequence:
#
# PCOD8289584 Si02
#       8
#    16   8   8  16  16  16  16   8
#     4  10  22  38  60  89 123 157 196 249 298 353
#     4  12  25  38  56  81 113 153 202 245 291 351
#     4  11  25  43  62  91 127 158 194 246 304 364
#     4  10  20  34  55  83 114 151 194 237 288 354
#     4  10  21  39  58  82 116 151 189 239 301 356
#     4  10  19  35  58  90 122 152 193 246 309 364
#     4  12  21  34  61  88 121 156 196 239 299 357
#     4  10  23  38  58  84 117 156 198 246 299 354
#
# _framework density 20.119567
#
# number of rings (size 3 to 8) (size 9 to 14) (size 15 to 20)
#    0.000    1.462    1.538    4.385    2.154    3.846 
#    0.000    1.154    0.000    2.308    0.000    0.000 
#    0.000    0.000    0.000    0.000    0.000    0.000 
#
# Total GULP energy -644185.715573 kJ/mol
# GULP energy per Si atom -12388.186838 kJ/mol
# Density = 2.007377 g / cm^3
# Si number density = 20.119567 Si / 1000 Ang^3
#
#
#
# Elastic Constant Matrix: (Units=GPa)
#
#
# Indices 1 2 3 4 5 6 
#
# 1 119.8324 44.7852 37.9425 0.0000 0.0000 0.0000
# 2 44.7852 94.7027 27.5446 0.0000 0.0000 0.0000
# 3 37.9425 27.5446 56.1903 0.0000 0.0000 0.0000
# 4 0.0000 0.0000 0.0000 21.0959 0.0000 0.0000
# 5 0.0000 0.0000 0.0000 0.0000 25.4501 0.0000
# 6 0.0000 0.0000 0.0000 0.0000 0.0000 75.6611
#
#
#
# Elastic Compliance Matrix: (Units=1/GPa)
#
#
# Indices 1 2 3 4 5 6 
#
# 1 0.011659 -0.003760 -0.006030 0.000000 0.000000 0.000000
# 2 -0.003760 0.013528 -0.004092 0.000000 0.000000 0.000000
# 3 -0.006030 -0.004092 0.023874 0.000000 0.000000 0.000000
# 4 0.000000 0.000000 0.000000 0.047403 0.000000 0.000000
# 5 0.000000 0.000000 0.000000 0.000000 0.039293 0.000000
# 6 0.000000 0.000000 0.000000 0.000000 0.000000 0.013217
#
#
# Mechanical properties :
#
#
# Convention : Reuss Voigt Hill
#
# Bulk Modulus (GPa) = 46.95476 54.58557 50.77016
# Shear Modulus (GPa) = 27.19798 35.13831 31.16814
#
# Velocity S-wave (km/s) = 3.68070 4.18362 3.94019
# Velocity P-wave (km/s) = 6.43831 7.10819 6.78153
#
# Compressibility (1/GPa) = 0.02129710
#
# Stress axis : x y z
#
# Youngs Moduli (GPa) = 85.76733 73.92207 41.88573
#
# Poissons Ratio (x) = 0.27794 0.25257
# Poissons Ratio (y) = 0.32248 0.17141
# Poissons Ratio (z) = 0.51717 0.30252
#
# Static dielectric constant tensor:
#      x y z
#    x 3.846010 0.000000 0.000000 
#    y 0.000000 3.702810 0.000000 
#    z 0.000000 0.000000 3.286850 
# 
# 
# High freq. dielectric constant tensor:
#      x y z
#    x 1.787640 0.000000 0.000000 
#    y 0.000000 1.786620 0.000000 
#    z 0.000000 0.000000 1.759300 
# 
# From -- ./inp_files/53220.got.cif
#   From: 2010.06.25/outbox.cif.g09.slc.cpg/sg71_27_cif.got.tgz:53220.got - 2010.06.28 04:59:45.
