data_PCOD8289956
_publ_section_title
;
Structure prediction by ZEFSAII (Michael W. Deem and Ramdas Pophale) SiO2 
 PCOD8289956
Probable space group: I M M M
;
_chemical_formula_sum "Si O2"
_cell_formula_units_Z 96
_cell_length_a 21.336485
_cell_length_b 12.477329
_cell_length_c 20.334670
_cell_angle_alpha 90.000000
_cell_angle_beta 90.000000
_cell_angle_gamma 90.000000
_cell_volume 5413.543493
_symmetry_space_group_name_H-M "I M M M"
_symmetry_group_IT_number 71
_symmetry_cell_setting 'orthorhombic'
loop_
_space_group_symop_operation_xyz
x,y,z
-x,-y,z
x,-y,-z
-x,y,-z
-x,-y,-z
x,y,-z
-x,y,z
x,-y,z
1/2+x,1/2+y,1/2+z
1/2-x,1/2-y,1/2+z
1/2+x,1/2-y,1/2-z
1/2-x,1/2+y,1/2-z
1/2-x,1/2-y,1/2-z
1/2+x,1/2+y,1/2-z
1/2-x,1/2+y,1/2+z
1/2+x,1/2-y,1/2+z
loop_
_atom_site_type_symbol
_atom_site_label
_atom_site_fract_x
_atom_site_fract_y
_atom_site_fract_z
Si Si1 0.427431 0.799802 0.341465
Si Si2 0.310375 0.123835 0.719244
Si Si3 0.245498 0.698320 0.646691
Si Si4 0.500000 0.126886 0.928305
Si Si5 0.926256 0.500000 0.071943
Si Si6 0.367105 0.120554 0.077876
Si Si7 0.867144 0.122864 0.076114
O O1 0.500000 0.808174 0.318144
O O2 0.379102 0.816112 0.280062
O O3 0.417268 0.689355 0.380808
O O4 0.405660 0.893810 0.390262
O O5 0.268354 0.181989 0.663482
O O6 0.275128 0.134367 0.788209
O O7 0.317728 0.000000 0.700451
O O8 0.184712 0.705439 0.600359
O O9 0.298425 0.633725 0.607436
O O10 0.565172 0.157668 0.891580
O O11 0.500000 0.000000 0.937654
O O12 0.500000 0.182486 0.000000
O O13 0.000000 0.500000 0.064179
O O14 0.894223 0.500000 0.000000
O O15 0.349817 0.000000 0.102678
O O16 0.372869 0.120268 0.000000
O O17 0.888442 0.000000 0.080125
O O18 0.866622 0.161528 0.000000
#
# Coordination Sequence:
#
# PCOD8289956 Si02
#       7
#    16  16  16   8   8  16  16
#     4  10  20  34  51  72 101 135 169 208 255 302
#     4  10  20  35  51  69  97 131 167 208 248 289
#     4  10  20  32  51  74  95 130 170 202 245 300
#     4   7  12  22  38  64  97 125 143 173 230 287
#     4   9  16  28  48  68  88 122 163 200 244 295
#     4   9  15  26  46  71 100 127 153 193 243 294
#     4  10  20  33  51  77 106 134 169 213 257 306
#
# _framework density 17.733301000000001
#
# number of rings (size 3 to 8) (size 9 to 14) (size 15 to 20)
#    0.000    2.500    0.833    3.500    0.000    2.667 
#    1.500    0.833    0.000    0.000    0.000    0.583 
#    0.000    2.000    0.000    0.000    0.000    0.000 
#
# Total GULP energy -594744.466781 kJ/mol
# GULP energy per Si atom -12390.509725 kJ/mol
# Density = 1.769294 g / cm^3
# Si number density = 17.733301 Si / 1000 Ang^3
#
#
#
# Elastic Constant Matrix: (Units=GPa)
#
#
# Indices 1 2 3 4 5 6 
#
# 1 123.5410 33.4919 17.2172 0.0000 0.0000 0.0000
# 2 33.4919 79.7095 18.2366 0.0000 0.0000 0.0000
# 3 17.2172 18.2366 32.5297 0.0000 0.0000 0.0000
# 4 0.0000 0.0000 0.0000 21.8779 0.0000 0.0000
# 5 0.0000 0.0000 0.0000 0.0000 18.5244 0.0000
# 6 0.0000 0.0000 0.0000 0.0000 0.0000 22.3408
#
#
#
# Elastic Compliance Matrix: (Units=1/GPa)
#
#
# Indices 1 2 3 4 5 6 
#
# 1 0.009412 -0.003229 -0.003171 0.000000 0.000000 0.000000
# 2 -0.003229 0.015499 -0.006980 0.000000 0.000000 0.000000
# 3 -0.003171 -0.006980 0.036333 0.000000 0.000000 0.000000
# 4 0.000000 0.000000 0.000000 0.045708 0.000000 0.000000
# 5 0.000000 0.000000 0.000000 0.000000 0.053983 0.000000
# 6 0.000000 0.000000 0.000000 0.000000 0.000000 0.044761
#
#
# Mechanical properties :
#
#
# Convention : Reuss Voigt Hill
#
# Bulk Modulus (GPa) = 28.99963 41.51904 35.25934
# Shear Modulus (GPa) = 20.49592 23.67092 22.08342
#
# Velocity S-wave (km/s) = 3.40338 3.65749 3.53272
# Velocity P-wave (km/s) = 5.64204 6.42652 6.04702
#
# Compressibility (1/GPa) = 0.03448319
#
# Stress axis : x y z
#
# Youngs Moduli (GPa) = 106.24926 64.51911 27.52343
#
# Poissons Ratio (x) = 0.20834 0.08728
# Poissons Ratio (y) = 0.34309 0.19211
# Poissons Ratio (z) = 0.33694 0.45035
#
# Static dielectric constant tensor:
#      x y z
#    x 3.554890 0.000000 0.000000 
#    y 0.000000 3.118640 0.000000 
#    z 0.000000 0.000000 3.252370 
# 
# 
# High freq. dielectric constant tensor:
#      x y z
#    x 1.697460 0.000000 0.000000 
#    y 0.000000 1.656880 0.000000 
#    z 0.000000 0.000000 1.672190 
# 
# From -- ./inp_files/54928.got.cif
#   From: 2010.06.25/outbox.cif.g09.slc.cpg/sg71_28_cif.got.tgz:54928.got - 2010.06.28 04:59:45.
