data_PCOD8289819
_publ_section_title
;
Structure prediction by ZEFSAII (Michael W. Deem and Ramdas Pophale) SiO2 
 PCOD8289819
Probable space group: I M M M
;
_chemical_formula_sum "Si O2"
_cell_formula_units_Z 80
_cell_length_a 29.359245
_cell_length_b 9.910853
_cell_length_c 18.618950
_cell_angle_alpha 90.000000
_cell_angle_beta 90.000000
_cell_angle_gamma 90.000000
_cell_volume 5417.651981
_symmetry_space_group_name_H-M "I M M M"
_symmetry_group_IT_number 71
_symmetry_cell_setting 'orthorhombic'
loop_
_space_group_symop_operation_xyz
x,y,z
-x,-y,z
x,-y,-z
-x,y,-z
-x,-y,-z
x,y,-z
-x,y,z
x,-y,z
1/2+x,1/2+y,1/2+z
1/2-x,1/2-y,1/2+z
1/2+x,1/2-y,1/2-z
1/2-x,1/2+y,1/2-z
1/2-x,1/2-y,1/2-z
1/2+x,1/2+y,1/2-z
1/2-x,1/2+y,1/2+z
1/2+x,1/2-y,1/2+z
loop_
_atom_site_type_symbol
_atom_site_label
_atom_site_fract_x
_atom_site_fract_y
_atom_site_fract_z
Si Si1 0.050643 0.500000 0.084374
Si Si2 0.446011 0.500000 0.415677
Si Si3 0.670851 0.339519 0.500000
Si Si4 0.254267 0.650831 0.000000
Si Si5 0.223861 0.151148 0.342766
Si Si6 0.681646 0.842439 0.731422
Si Si7 0.608300 0.746514 0.372197
O O1 0.078415 0.626891 0.109163
O O2 0.000000 0.500000 0.118760
O O3 0.045829 0.500000 0.000000
O O4 0.500000 0.500000 0.415289
O O5 0.428746 0.500000 0.500000
O O6 0.427491 0.375108 0.369900
O O7 0.675840 0.500000 0.500000
O O8 0.719991 0.273987 0.500000
O O9 0.645818 0.285713 0.569364
O O10 0.284646 0.664837 0.928147
O O11 0.231068 0.500000 0.000000
O O12 0.277268 0.176141 0.325368
O O13 0.192972 0.262853 0.304406
O O14 0.210325 0.000000 0.316474
O O15 0.635378 0.775115 0.701325
O O16 0.673548 0.000000 0.748879
#
# Coordination Sequence:
#
# PCOD8289819 Si02
#       7
#     8   8   8   8  16  16  16
#     4  11  22  32  48  69  90 121 163 204 243 277
#     4  11  22  36  48  65  96 127 161 206 251 283
#     4  12  22  30  43  71  91 126 168 199 235 280
#     4  10  20  34  52  69  95 124 160 203 238 272
#     4   9  19  32  48  69  94 122 155 196 238 275
#     4  10  20  32  47  68  94 124 159 197 235 277
#     4  12  20  33  48  67  91 126 165 204 235 280
#
# _framework density 14.766545000000001
#
# number of rings (size 3 to 8) (size 9 to 14) (size 15 to 20)
#    0.000    1.400    6.000    0.600    2.800    2.400 
#    0.000    0.000    0.000    0.000    0.000    0.000 
#    0.000    0.000    0.000    5.400    0.000    0.100 
#
# Total GULP energy -495835.336287 kJ/mol
# GULP energy per Si atom -12395.883407 kJ/mol
# Density = 1.473294 g / cm^3
# Si number density = 14.766545 Si / 1000 Ang^3
#
#
#
# Elastic Constant Matrix: (Units=GPa)
#
#
# Indices 1 2 3 4 5 6 
#
# 1 68.6864 59.0132 34.7661 0.0000 0.0000 0.0000
# 2 59.0132 136.2854 50.1972 0.0000 0.0000 0.0000
# 3 34.7661 50.1972 82.3197 0.0000 0.0000 0.0000
# 4 0.0000 0.0000 0.0000 22.3509 0.0000 0.0000
# 5 0.0000 0.0000 0.0000 0.0000 22.6907 0.0000
# 6 0.0000 0.0000 0.0000 0.0000 0.0000 34.8298
#
#
#
# Elastic Compliance Matrix: (Units=1/GPa)
#
#
# Indices 1 2 3 4 5 6 
#
# 1 0.024708 -0.008841 -0.005044 0.000000 0.000000 0.000000
# 2 -0.008841 0.012626 -0.003966 0.000000 0.000000 0.000000
# 3 -0.005044 -0.003966 0.016696 0.000000 0.000000 0.000000
# 4 0.000000 0.000000 0.000000 0.044741 0.000000 0.000000
# 5 0.000000 0.000000 0.000000 0.000000 0.044071 0.000000
# 6 0.000000 0.000000 0.000000 0.000000 0.000000 0.028711
#
#
# Mechanical properties :
#
#
# Convention : Reuss Voigt Hill
#
# Bulk Modulus (GPa) = 54.55658 63.91606 59.23632
# Shear Modulus (GPa) = 23.43417 25.52861 24.48139
#
# Velocity S-wave (km/s) = 3.98801 4.16241 4.07614
# Velocity P-wave (km/s) = 7.63098 8.15348 7.89655
#
# Compressibility (1/GPa) = 0.01832959
#
# Stress axis : x y z
#
# Youngs Moduli (GPa) = 40.47306 79.19888 59.89459
#
# Poissons Ratio (x) = 0.70020 0.30209
# Poissons Ratio (y) = 0.35782 0.23752
# Poissons Ratio (z) = 0.20413 0.31407
#
# Static dielectric constant tensor:
#      x y z
#    x 2.759680 0.000000 0.000000 
#    y 0.000000 3.253230 0.000000 
#    z 0.000000 0.000000 2.714350 
# 
# 
# High freq. dielectric constant tensor:
#      x y z
#    x 1.538350 0.000000 0.000000 
#    y 0.000000 1.588770 0.000000 
#    z 0.000000 0.000000 1.536200 
# 
# From -- ./inp_files/10783.got.cif
#   From: 2010.06.25/outbox.cif.g09.slc.cpg/sg71_6_cif.got.tgz:10783.got - 2010.06.28 04:59:45.
