data_PCOD8289945
_publ_section_title
;
Structure prediction by ZEFSAII (Michael W. Deem and Ramdas Pophale) SiO2 
 PCOD8289945
Probable space group: I M M M
;
_chemical_formula_sum "Si O2"
_cell_formula_units_Z 88
_cell_length_a 8.256816
_cell_length_b 30.058876
_cell_length_c 19.051715
_cell_angle_alpha 90.000000
_cell_angle_beta 90.000000
_cell_angle_gamma 90.000000
_cell_volume 4728.456735
_symmetry_space_group_name_H-M "I M M M"
_symmetry_group_IT_number 71
_symmetry_cell_setting 'orthorhombic'
loop_
_space_group_symop_operation_xyz
x,y,z
-x,-y,z
x,-y,-z
-x,y,-z
-x,-y,-z
x,y,-z
-x,y,z
x,-y,z
1/2+x,1/2+y,1/2+z
1/2-x,1/2-y,1/2+z
1/2+x,1/2-y,1/2-z
1/2-x,1/2+y,1/2-z
1/2-x,1/2-y,1/2-z
1/2+x,1/2+y,1/2-z
1/2-x,1/2+y,1/2+z
1/2+x,1/2-y,1/2+z
loop_
_atom_site_type_symbol
_atom_site_label
_atom_site_fract_x
_atom_site_fract_y
_atom_site_fract_z
Si Si1 0.187889 0.247424 0.577740
Si Si2 0.186887 0.947769 0.831857
Si Si3 0.687892 0.205788 0.213794
Si Si4 0.183536 0.119826 0.286616
Si Si5 0.000000 0.552676 0.578846
Si Si6 0.185885 0.347204 0.076484
O O1 0.247656 0.261583 0.500000
O O2 0.223457 0.288074 0.630557
O O3 0.275778 0.202548 0.603640
O O4 0.000000 0.235470 0.578096
O O5 0.224001 0.924199 0.757784
O O6 0.330709 0.931469 0.884522
O O7 0.000000 0.936431 0.857670
O O8 0.202346 0.000000 0.818916
O O9 0.500000 0.198934 0.230240
O O10 0.750000 0.250000 0.250000
O O11 0.780002 0.162471 0.238993
O O12 0.272564 0.118286 0.361663
O O13 0.000000 0.121805 0.308605
O O14 0.000000 0.500000 0.576431
O O15 0.000000 0.572452 0.500000
O O16 0.000000 0.351796 0.062230
O O17 0.272411 0.356258 0.000000
#
# Coordination Sequence:
#
# PCOD8289945 Si02
#       6
#    16  16  16  16   8  16
#     4   9  18  33  50  68  96 136 178 218 264 316
#     4   9  20  38  59  86 117 147 185 234 282 332
#     4  11  21  32  50  75 106 139 177 224 268 318
#     4  11  22  35  55  79 106 144 184 224 274 329
#     4   9  18  34  60  90 115 147 187 225 278 340
#     4  10  20  32  50  77 105 135 176 225 272 319
#
# _framework density 18.610721999999999
#
# number of rings (size 3 to 8) (size 9 to 14) (size 15 to 20)
#    0.000    2.091    1.818    1.636    2.545    2.182 
#    0.000    2.727    0.000    1.636    0.000    3.818 
#    0.000    0.000    0.000    0.000    0.000    0.000 
#
# Total GULP energy -545224.737741 kJ/mol
# GULP energy per Si atom -12391.471312 kJ/mol
# Density = 1.856836 g / cm^3
# Si number density = 18.610722 Si / 1000 Ang^3
#
#
#
# Elastic Constant Matrix: (Units=GPa)
#
#
# Indices 1 2 3 4 5 6 
#
# 1 70.2019 20.0336 48.9513 0.0000 0.0000 0.0000
# 2 20.0336 45.1004 34.1806 0.0000 0.0000 0.0000
# 3 48.9513 34.1806 127.8695 -0.0001 0.0000 0.0000
# 4 0.0000 0.0000 -0.0001 19.1544 0.0000 0.0000
# 5 0.0000 0.0000 0.0000 0.0000 27.0447 0.0000
# 6 0.0000 0.0000 0.0000 0.0000 0.0000 21.5879
#
#
#
# Elastic Compliance Matrix: (Units=1/GPa)
#
#
# Indices 1 2 3 4 5 6 
#
# 1 0.019952 -0.003855 -0.006608 0.000000 0.000000 0.000000
# 2 -0.003855 0.028551 -0.006156 0.000000 0.000000 0.000000
# 3 -0.006608 -0.006156 0.011996 0.000000 0.000000 0.000000
# 4 0.000000 0.000000 0.000000 0.052207 0.000000 0.000000
# 5 0.000000 0.000000 0.000000 0.000000 0.036976 0.000000
# 6 0.000000 0.000000 0.000000 0.000000 0.000000 0.046322
#
#
# Mechanical properties :
#
#
# Convention : Reuss Voigt Hill
#
# Bulk Modulus (GPa) = 36.68230 49.94474 43.31352
# Shear Modulus (GPa) = 20.97944 22.89114 21.93529
#
# Velocity S-wave (km/s) = 3.36114 3.51094 3.43685
# Velocity P-wave (km/s) = 5.90052 6.58258 6.25086
#
# Compressibility (1/GPa) = 0.02726110
#
# Stress axis : x y z
#
# Youngs Moduli (GPa) = 50.11974 35.02540 83.36378
#
# Poissons Ratio (x) = 0.13502 0.55084
# Poissons Ratio (y) = 0.19321 0.51320
# Poissons Ratio (z) = 0.33118 0.21562
#
# Static dielectric constant tensor:
#      x y z
#    x 3.643550 0.000000 0.000000 
#    y 0.000000 3.121330 0.000000 
#    z 0.000000 0.000000 3.874790 
# 
# 
# High freq. dielectric constant tensor:
#      x y z
#    x 1.733500 0.000000 0.000000 
#    y 0.000000 1.678940 0.000000 
#    z 0.000000 0.000000 1.735010 
# 
# From -- ./inp_files/8878.got.cif
#   From: 2010.06.25/outbox.cif.g09.slc.cpg/sg71_5_cif.got.tgz:8878.got - 2010.06.28 04:59:45.
