data_PCOD8289225
_publ_section_title
;
Structure prediction by ZEFSAII (Michael W. Deem and Ramdas Pophale) SiO2 
 PCOD8289225
Probable space group: I M M M
;
_chemical_formula_sum "Si O2"
_cell_formula_units_Z 88
_cell_length_a 9.089238
_cell_length_b 22.497808
_cell_length_c 22.771219
_cell_angle_alpha 90.000000
_cell_angle_beta 90.000000
_cell_angle_gamma 90.000000
_cell_volume 4656.439469
_symmetry_space_group_name_H-M "I M M M"
_symmetry_group_IT_number 71
_symmetry_cell_setting 'orthorhombic'
loop_
_space_group_symop_operation_xyz
x,y,z
-x,-y,z
x,-y,-z
-x,y,-z
-x,-y,-z
x,y,-z
-x,y,z
x,-y,z
1/2+x,1/2+y,1/2+z
1/2-x,1/2-y,1/2+z
1/2+x,1/2-y,1/2-z
1/2-x,1/2+y,1/2-z
1/2-x,1/2-y,1/2-z
1/2+x,1/2+y,1/2-z
1/2-x,1/2+y,1/2+z
1/2+x,1/2-y,1/2+z
loop_
_atom_site_type_symbol
_atom_site_label
_atom_site_fract_x
_atom_site_fract_y
_atom_site_fract_z
Si Si1 0.326260 0.435336 0.786799
Si Si2 0.336032 0.709502 0.500000
Si Si3 0.335873 0.149965 0.500000
Si Si4 0.826096 0.899746 0.841672
Si Si5 0.673369 0.208869 0.115516
Si Si6 0.174494 0.000000 0.932365
Si Si7 0.825978 0.154974 0.382956
O O1 0.500000 0.430877 0.790590
O O2 0.271991 0.500000 0.809234
O O3 0.277883 0.429570 0.719363
O O4 0.262356 0.383912 0.829037
O O5 0.500000 0.681131 0.500000
O O6 0.346008 0.779704 0.500000
O O7 0.246259 0.686749 0.555368
O O8 0.500000 0.122226 0.500000
O O9 0.248914 0.129760 0.558037
O O10 0.742560 0.836486 0.838026
O O11 0.000000 0.888382 0.844822
O O12 0.773259 0.941537 0.895991
O O13 0.500000 0.201434 0.111491
O O14 0.717282 0.276667 0.130532
O O15 0.000000 0.000000 0.934019
O O16 0.236200 0.000000 0.000000
O O17 0.000000 0.149030 0.391850
#
# Coordination Sequence:
#
# PCOD8289225 Si02
#       7
#    16   8   8  16  16   8  16
#     4   9  17  33  56  78  99 132 183 230 261 298
#     4   9  17  31  51  73  99 135 176 211 249 304
#     4   9  17  31  52  78 106 133 166 209 256 312
#     4  10  19  33  54  77 102 136 180 224 261 302
#     4  10  20  32  47  75 110 139 166 208 267 323
#     4   9  18  32  51  77 105 134 174 223 263 296
#     4   9  18  33  54  77 105 139 172 213 265 315
#
# _framework density 18.89856
#
# number of rings (size 3 to 8) (size 9 to 14) (size 15 to 20)
#    0.000    2.636    0.909    1.091    1.273    3.636 
#    0.000    1.818    0.000    4.909    0.000    0.000 
#    0.000    0.000    0.000    0.000    0.000    0.000 
#
# Total GULP energy -545334.416170 kJ/mol
# GULP energy per Si atom -12393.964004 kJ/mol
# Density = 1.885555 g / cm^3
# Si number density = 18.898560 Si / 1000 Ang^3
#
#
#
# Elastic Constant Matrix: (Units=GPa)
#
#
# Indices 1 2 3 4 5 6 
#
# 1 51.1918 34.0254 30.5641 0.0000 0.0000 0.0000
# 2 34.0254 120.5614 70.3108 0.0000 0.0000 0.0000
# 3 30.5641 70.3108 123.1208 0.0000 0.0000 0.0000
# 4 0.0000 0.0000 0.0000 29.5463 0.0000 0.0000
# 5 0.0000 0.0000 0.0000 0.0000 16.3132 0.0000
# 6 0.0000 0.0000 0.0000 0.0000 0.0000 20.0606
#
#
#
# Elastic Compliance Matrix: (Units=1/GPa)
#
#
# Indices 1 2 3 4 5 6 
#
# 1 0.024882 -0.005128 -0.003249 0.000000 0.000000 0.000000
# 2 -0.005128 0.013493 -0.006433 0.000000 0.000000 0.000000
# 3 -0.003249 -0.006433 0.012602 0.000000 0.000000 0.000000
# 4 0.000000 0.000000 0.000000 0.033845 0.000000 0.000000
# 5 0.000000 0.000000 0.000000 0.000000 0.061300 0.000000
# 6 0.000000 0.000000 0.000000 0.000000 0.000000 0.049849
#
#
# Mechanical properties :
#
#
# Convention : Reuss Voigt Hill
#
# Bulk Modulus (GPa) = 46.81769 62.74164 54.77967
# Shear Modulus (GPa) = 21.48603 23.84893 22.66748
#
# Velocity S-wave (km/s) = 3.37547 3.55624 3.46703
# Velocity P-wave (km/s) = 6.32603 7.08051 6.71388
#
# Compressibility (1/GPa) = 0.02135945
#
# Stress axis : x y z
#
# Youngs Moduli (GPa) = 40.18936 74.11129 79.35236
#
# Poissons Ratio (x) = 0.38003 0.25778
# Poissons Ratio (y) = 0.20609 0.51044
# Poissons Ratio (z) = 0.13056 0.47673
#
# Static dielectric constant tensor:
#      x y z
#    x 3.203890 0.000000 0.000000 
#    y 0.000000 3.482450 0.000000 
#    z 0.000000 0.000000 3.776940 
# 
# 
# High freq. dielectric constant tensor:
#      x y z
#    x 1.701220 0.000000 0.000000 
#    y 0.000000 1.729550 0.000000 
#    z 0.000000 0.000000 1.733930 
# 
# From -- ./inp_files/55625.got.cif
#   From: 2010.06.25/outbox.cif.g09.slc.cpg/sg71_28_cif.got.tgz:55625.got - 2010.06.28 04:59:45.
