data_PCOD8289126
_publ_section_title
;
Structure prediction by ZEFSAII (Michael W. Deem and Ramdas Pophale) SiO2 
 PCOD8289126
Probable space group: I M M M
;
_chemical_formula_sum "Si O2"
_cell_formula_units_Z 120
_cell_length_a 27.823514
_cell_length_b 26.492858
_cell_length_c 9.154243
_cell_angle_alpha 90.000000
_cell_angle_beta 90.000000
_cell_angle_gamma 90.000000
_cell_volume 6747.815929
_symmetry_space_group_name_H-M "I M M M"
_symmetry_group_IT_number 71
_symmetry_cell_setting 'orthorhombic'
loop_
_space_group_symop_operation_xyz
x,y,z
-x,-y,z
x,-y,-z
-x,y,-z
-x,-y,-z
x,y,-z
-x,y,z
x,-y,z
1/2+x,1/2+y,1/2+z
1/2-x,1/2-y,1/2+z
1/2+x,1/2-y,1/2-z
1/2-x,1/2+y,1/2-z
1/2-x,1/2-y,1/2-z
1/2+x,1/2+y,1/2-z
1/2-x,1/2+y,1/2+z
1/2+x,1/2-y,1/2+z
loop_
_atom_site_type_symbol
_atom_site_label
_atom_site_fract_x
_atom_site_fract_y
_atom_site_fract_z
Si Si1 0.306560 0.556592 0.327756
Si Si2 0.390429 0.901331 0.670928
Si Si3 0.054176 0.795035 0.669905
Si Si4 0.365099 0.650986 0.330094
Si Si5 0.788034 0.442332 0.834441
Si Si6 0.554433 0.000000 0.673536
Si Si7 0.801109 0.246580 0.827448
Si Si8 0.615942 0.801842 0.828715
O O1 0.301812 0.557480 0.500000
O O2 0.319365 0.500000 0.271081
O O3 0.347093 0.596017 0.276365
O O4 0.255462 0.575069 0.267327
O O5 0.401321 0.892327 0.500000
O O6 0.333942 0.908416 0.700015
O O7 0.419336 0.949725 0.731524
O O8 0.406632 0.853257 0.765224
O O9 0.055085 0.807293 0.500000
O O10 0.085458 0.838003 0.747547
O O11 0.075882 0.740196 0.702757
O O12 0.000000 0.796574 0.731587
O O13 0.377143 0.651269 0.500000
O O14 0.323905 0.691871 0.294039
O O15 0.802965 0.500000 0.804623
O O16 0.770736 0.435106 0.000000
O O17 0.500000 0.000000 0.731233
O O18 0.557317 0.000000 0.500000
O O19 0.750000 0.250000 0.750000
O O20 0.835265 0.289188 0.758122
O O21 0.795680 0.256632 0.000000
O O22 0.627539 0.806864 0.000000
#
# Coordination Sequence:
#
# PCOD8289126 Si02
#       8
#    16  16  16  16  16   8  16  16
#     4   9  18  32  50  75 107 139 168 202 245 298
#     4  10  19  33  51  73 101 132 173 222 265 312
#     4   9  19  37  58  77  99 130 169 212 259 310
#     4   9  19  34  52  77 106 134 168 210 250 298
#     4   9  17  30  47  68  96 133 172 210 249 294
#     4   9  18  34  55  75  99 135 177 223 276 327
#     4  10  20  34  50  73 106 140 174 213 258 307
#     4  10  21  35  51  74 102 134 172 214 264 316
#
# _framework density 17.783532000000001
#
# number of rings (size 3 to 8) (size 9 to 14) (size 15 to 20)
#    0.000    2.600    0.667    0.800    1.867    2.933 
#    0.000    0.333    0.000    0.800    0.000    2.800 
#    0.000    0.000    0.000    0.000    0.000    0.000 
#
# Total GULP energy -744028.565782 kJ/mol
# GULP energy per Si atom -12400.476096 kJ/mol
# Density = 1.774306 g / cm^3
# Si number density = 17.783532 Si / 1000 Ang^3
#
#
#
# Elastic Constant Matrix: (Units=GPa)
#
#
# Indices 1 2 3 4 5 6 
#
# 1 128.4749 60.0368 45.7086 0.0000 0.0000 0.0000
# 2 60.0368 108.3124 41.0297 0.0000 0.0000 0.0000
# 3 45.7086 41.0297 52.1378 0.0000 0.0000 0.0000
# 4 0.0000 0.0000 0.0000 25.5979 0.0000 0.0000
# 5 0.0000 0.0000 0.0000 0.0000 22.3630 0.0000
# 6 0.0000 0.0000 0.0000 0.0000 0.0000 18.8880
#
#
#
# Elastic Compliance Matrix: (Units=1/GPa)
#
#
# Indices 1 2 3 4 5 6 
#
# 1 0.012379 -0.003919 -0.007768 0.000000 0.000000 0.000000
# 2 -0.003919 0.014394 -0.007892 0.000000 0.000000 0.000000
# 3 -0.007768 -0.007892 0.032201 0.000000 0.000000 0.000000
# 4 0.000000 0.000000 0.000000 0.039066 0.000000 0.000000
# 5 0.000000 0.000000 0.000000 0.000000 0.044717 0.000000
# 6 0.000000 0.000000 0.000000 0.000000 0.000000 0.052944
#
#
# Mechanical properties :
#
#
# Convention : Reuss Voigt Hill
#
# Bulk Modulus (GPa) = 50.46515 64.71947 57.59231
# Shear Modulus (GPa) = 20.70706 22.84646 21.77676
#
# Velocity S-wave (km/s) = 3.41603 3.58816 3.50315
# Velocity P-wave (km/s) = 6.63310 7.32383 6.98700
#
# Compressibility (1/GPa) = 0.01981565
#
# Stress axis : x y z
#
# Youngs Moduli (GPa) = 80.78411 69.47247 31.05481
#
# Poissons Ratio (x) = 0.27224 0.24125
# Poissons Ratio (y) = 0.31656 0.24509
# Poissons Ratio (z) = 0.62757 0.54828
#
# Static dielectric constant tensor:
#      x y z
#    x 3.288900 0.000000 0.000000 
#    y 0.000000 3.429350 0.000000 
#    z 0.000000 0.000000 3.193200 
# 
# 
# High freq. dielectric constant tensor:
#      x y z
#    x 1.676630 0.000000 0.000000 
#    y 0.000000 1.687880 0.000000 
#    z 0.000000 0.000000 1.679050 
# 
# From -- ./inp_files/15608.got.cif
#   From: 2010.06.25/outbox.cif.g09.slc.cpg/sg71_8_cif.got.tgz:15608.got - 2010.06.28 04:59:45.
