data_PCOD8289020
_publ_section_title
;
Structure prediction by ZEFSAII (Michael W. Deem and Ramdas Pophale) SiO2 
 PCOD8289020
Probable space group: I M M M
;
_chemical_formula_sum "Si O2"
_cell_formula_units_Z 72
_cell_length_a 14.425427
_cell_length_b 14.222861
_cell_length_c 16.931452
_cell_angle_alpha 90.000000
_cell_angle_beta 90.000000
_cell_angle_gamma 90.000000
_cell_volume 3473.840282
_symmetry_space_group_name_H-M "I M M M"
_symmetry_group_IT_number 71
_symmetry_cell_setting 'orthorhombic'
loop_
_space_group_symop_operation_xyz
x,y,z
-x,-y,z
x,-y,-z
-x,y,-z
-x,-y,-z
x,y,-z
-x,y,z
x,-y,z
1/2+x,1/2+y,1/2+z
1/2-x,1/2-y,1/2+z
1/2+x,1/2-y,1/2-z
1/2-x,1/2+y,1/2-z
1/2-x,1/2-y,1/2-z
1/2+x,1/2+y,1/2-z
1/2-x,1/2+y,1/2+z
1/2+x,1/2-y,1/2+z
loop_
_atom_site_type_symbol
_atom_site_label
_atom_site_fract_x
_atom_site_fract_y
_atom_site_fract_z
Si Si1 0.604119 0.608092 0.272992
Si Si2 0.606540 0.750878 0.589820
Si Si3 0.896558 0.387623 0.332014
Si Si4 0.719578 0.110043 0.316214
Si Si5 0.610511 0.103267 0.000000
O O1 0.500000 0.627913 0.243041
O O2 0.619255 0.500000 0.297045
O O3 0.627951 0.664222 0.352519
O O4 0.672032 0.633183 0.199565
O O5 0.625347 0.718363 0.500000
O O6 0.500000 0.785210 0.599697
O O7 0.676874 0.836169 0.609168
O O8 0.895691 0.500000 0.337554
O O9 0.831927 0.351086 0.262229
O O10 0.860696 0.345952 0.417238
O O11 0.000000 0.351157 0.313163
O O12 0.702098 0.000000 0.330384
O O13 0.500000 0.093638 0.000000
O O14 0.655907 0.000000 0.000000
#
# Coordination Sequence:
#
# PCOD8289020 Si02
#       5
#    16  16  16  16   8
#     4   9  19  37  59  80 103 139 190 240 280 319
#     4  10  21  36  55  81 114 149 182 223 276 331
#     4   8  13  22  38  63  97 134 167 202 251 314
#     4  10  19  32  53  81 110 143 181 221 272 333
#     4   7  10  18  32  52  85 127 164 198 239 292
#
# _framework density 20.726341999999999
#
# number of rings (size 3 to 8) (size 9 to 14) (size 15 to 20)
#    0.000    3.000    0.000    2.667    0.000    2.222 
#    2.000    3.333    0.000    0.667    0.000    3.111 
#    0.000    0.000    0.000    0.222    0.000    0.000 
#
# Total GULP energy -446116.973958 kJ/mol
# GULP energy per Si atom -12392.138166 kJ/mol
# Density = 2.067917 g / cm^3
# Si number density = 20.726342 Si / 1000 Ang^3
#
#
#
# Elastic Constant Matrix: (Units=GPa)
#
#
# Indices 1 2 3 4 5 6 
#
# 1 91.3349 31.8460 28.4395 0.0000 0.0000 0.0000
# 2 31.8460 55.7026 22.3047 0.0000 0.0000 0.0000
# 3 28.4395 22.3047 67.8951 0.0000 0.0000 0.0000
# 4 0.0000 0.0000 0.0000 25.2831 0.0000 0.0000
# 5 0.0000 0.0000 0.0000 0.0000 26.7143 0.0000
# 6 0.0000 0.0000 0.0000 0.0000 0.0000 18.0241
#
#
#
# Elastic Compliance Matrix: (Units=1/GPa)
#
#
# Indices 1 2 3 4 5 6 
#
# 1 0.014502 -0.006746 -0.003858 0.000000 0.000000 0.000000
# 2 -0.006746 0.023810 -0.004996 0.000000 0.000000 0.000000
# 3 -0.003858 -0.004996 0.017986 0.000000 0.000000 0.000000
# 4 0.000000 0.000000 0.000000 0.039552 0.000000 0.000000
# 5 0.000000 0.000000 0.000000 0.000000 0.037433 0.000000
# 6 0.000000 0.000000 0.000000 0.000000 0.000000 0.055481
#
#
# Mechanical properties :
#
#
# Convention : Reuss Voigt Hill
#
# Bulk Modulus (GPa) = 39.84562 42.23477 41.04019
# Shear Modulus (GPa) = 21.89792 22.82713 22.36253
#
# Velocity S-wave (km/s) = 3.25395 3.32227 3.28829
# Velocity P-wave (km/s) = 5.77789 5.92775 5.85330
#
# Compressibility (1/GPa) = 0.02509686
#
# Stress axis : x y z
#
# Youngs Moduli (GPa) = 68.95431 41.99921 55.59840
#
# Poissons Ratio (x) = 0.28333 0.21452
# Poissons Ratio (y) = 0.46518 0.27778
# Poissons Ratio (z) = 0.26605 0.20984
#
# Static dielectric constant tensor:
#      x y z
#    x 3.886390 0.000000 0.000000 
#    y 0.000000 3.395220 0.000000 
#    z 0.000000 0.000000 3.846210 
# 
# 
# High freq. dielectric constant tensor:
#      x y z
#    x 1.812610 0.000000 0.000000 
#    y 0.000000 1.781150 0.000000 
#    z 0.000000 0.000000 1.795730 
# 
# From -- ./inp_files/36068.got.cif
#   From: 2010.06.25/outbox.cif.g09.slc.cpg/sg71_19_cif.got.tgz:36068.got - 2010.06.28 04:59:45.
