data_PCOD8289871
_publ_section_title
;
Structure prediction by ZEFSAII (Michael W. Deem and Ramdas Pophale) SiO2 
 PCOD8289871
Probable space group: I M M M
;
_chemical_formula_sum "Si O2"
_cell_formula_units_Z 96
_cell_length_a 31.768144
_cell_length_b 12.282359
_cell_length_c 14.252762
_cell_angle_alpha 90.000000
_cell_angle_beta 90.000000
_cell_angle_gamma 90.000000
_cell_volume 5561.253127
_symmetry_space_group_name_H-M "I M M M"
_symmetry_group_IT_number 71
_symmetry_cell_setting 'orthorhombic'
loop_
_space_group_symop_operation_xyz
x,y,z
-x,-y,z
x,-y,-z
-x,y,-z
-x,-y,-z
x,y,-z
-x,y,z
x,-y,z
1/2+x,1/2+y,1/2+z
1/2-x,1/2-y,1/2+z
1/2+x,1/2-y,1/2-z
1/2-x,1/2+y,1/2-z
1/2-x,1/2-y,1/2-z
1/2+x,1/2+y,1/2-z
1/2-x,1/2+y,1/2+z
1/2+x,1/2-y,1/2+z
loop_
_atom_site_type_symbol
_atom_site_label
_atom_site_fract_x
_atom_site_fract_y
_atom_site_fract_z
Si Si1 0.240681 0.198860 0.388422
Si Si2 0.317535 0.500000 0.110486
Si Si3 0.397970 0.871798 0.772679
Si Si4 0.800777 0.628164 0.265615
Si Si5 0.046971 0.370685 0.103300
Si Si6 0.547190 0.720606 0.110916
Si Si7 0.911650 0.000000 0.387948
O O1 0.248711 0.202857 0.500000
O O2 0.206937 0.107874 0.357295
O O3 0.223814 0.314698 0.351531
O O4 0.284075 0.168843 0.335678
O O5 0.364281 0.500000 0.154045
O O6 0.320915 0.500000 0.000000
O O7 0.349420 0.838803 0.771539
O O8 0.419388 0.825937 0.677696
O O9 0.421476 0.816723 0.859676
O O10 0.404104 0.000000 0.783734
O O11 0.794093 0.500000 0.277091
O O12 0.048156 0.500000 0.102075
O O13 0.000000 0.331090 0.130797
O O14 0.059087 0.326108 0.000000
O O15 0.500000 0.741140 0.149506
O O16 0.564050 0.605665 0.150480
O O17 0.546926 0.717748 0.000000
O O18 0.910399 0.000000 0.500000
#
# Coordination Sequence:
#
# PCOD8289871 Si02
#       7
#    16   8  16  16  16  16   8
#     4  10  20  35  54  75 101 134 170 210 260 313
#     4   9  16  29  52  75  95 127 167 207 255 304
#     4  10  20  32  48  73 104 134 163 203 251 305
#     4  10  21  35  51  75 104 132 169 212 259 312
#     4   8  14  26  44  66  93 126 163 199 237 283
#     4  10  20  33  49  71 102 138 174 211 250 294
#     4   9  17  30  49  72  95 124 170 219 250 280
#
# _framework density 17.262297
#
# number of rings (size 3 to 8) (size 9 to 14) (size 15 to 20)
#    0.000    2.500    0.833    2.250    0.000    5.333 
#    0.000    4.167    0.000    0.000    0.000    0.583 
#    0.000    2.667    0.000    0.000    0.000    0.000 
#
# Total GULP energy -595099.197298 kJ/mol
# GULP energy per Si atom -12397.899944 kJ/mol
# Density = 1.722301 g / cm^3
# Si number density = 17.262297 Si / 1000 Ang^3
#
#
#
# Elastic Constant Matrix: (Units=GPa)
#
#
# Indices 1 2 3 4 5 6 
#
# 1 133.6255 52.4289 35.3004 0.0000 0.0000 0.0000
# 2 52.4289 69.7528 32.2365 0.0000 0.0000 0.0000
# 3 35.3004 32.2365 60.5311 0.0000 0.0000 0.0000
# 4 0.0000 0.0000 0.0000 14.3345 0.0000 0.0000
# 5 0.0000 0.0000 0.0000 0.0000 25.5115 0.0000
# 6 0.0000 0.0000 0.0000 0.0000 0.0000 26.3053
#
#
#
# Elastic Compliance Matrix: (Units=1/GPa)
#
#
# Indices 1 2 3 4 5 6 
#
# 1 0.010925 -0.006987 -0.002650 0.000000 0.000000 0.000000
# 2 -0.006987 0.023485 -0.008433 0.000000 0.000000 0.000000
# 3 -0.002650 -0.008433 0.022557 0.000000 0.000000 0.000000
# 4 0.000000 0.000000 0.000000 0.069762 0.000000 0.000000
# 5 0.000000 0.000000 0.000000 0.000000 0.039198 0.000000
# 6 0.000000 0.000000 0.000000 0.000000 0.000000 0.038015
#
#
# Mechanical properties :
#
#
# Convention : Reuss Voigt Hill
#
# Bulk Modulus (GPa) = 48.01359 55.98233 51.99796
# Shear Modulus (GPa) = 20.24090 22.82648 21.53369
#
# Velocity S-wave (km/s) = 3.42797 3.64033 3.53574
# Velocity P-wave (km/s) = 6.59867 7.08309 6.84517
#
# Compressibility (1/GPa) = 0.02082744
#
# Stress axis : x y z
#
# Youngs Moduli (GPa) = 91.53232 42.58013 44.33215
#
# Poissons Ratio (x) = 0.29750 0.11750
# Poissons Ratio (y) = 0.63952 0.37384
# Poissons Ratio (z) = 0.24259 0.35906
#
# Static dielectric constant tensor:
#      x y z
#    x 3.469700 0.000000 0.000000 
#    y 0.000000 3.109670 0.000000 
#    z 0.000000 0.000000 3.143210 
# 
# 
# High freq. dielectric constant tensor:
#      x y z
#    x 1.678200 0.000000 0.000000 
#    y 0.000000 1.651820 0.000000 
#    z 0.000000 0.000000 1.646990 
# 
# From -- ./inp_files/33191.got.cif
#   From: 2010.06.25/outbox.cif.g09.slc.cpg/sg71_17_cif.got.tgz:33191.got - 2010.06.28 04:59:45.
