data_PCOD8289142
_publ_section_title
;
Structure prediction by ZEFSAII (Michael W. Deem and Ramdas Pophale) SiO2 
 PCOD8289142
Probable space group: I M M M
;
_chemical_formula_sum "Si O2"
_cell_formula_units_Z 112
_cell_length_a 10.346050
_cell_length_b 41.922250
_cell_length_c 14.182995
_cell_angle_alpha 90.000000
_cell_angle_beta 90.000000
_cell_angle_gamma 90.000000
_cell_volume 6151.586090
_symmetry_space_group_name_H-M "I M M M"
_symmetry_group_IT_number 71
_symmetry_cell_setting 'orthorhombic'
loop_
_space_group_symop_operation_xyz
x,y,z
-x,-y,z
x,-y,-z
-x,y,-z
-x,-y,-z
x,y,-z
-x,y,z
x,-y,z
1/2+x,1/2+y,1/2+z
1/2-x,1/2-y,1/2+z
1/2+x,1/2-y,1/2-z
1/2-x,1/2+y,1/2-z
1/2-x,1/2-y,1/2-z
1/2+x,1/2+y,1/2-z
1/2-x,1/2+y,1/2+z
1/2+x,1/2-y,1/2+z
loop_
_atom_site_type_symbol
_atom_site_label
_atom_site_fract_x
_atom_site_fract_y
_atom_site_fract_z
Si Si1 0.708852 0.682271 0.105029
Si Si2 0.850731 0.615459 0.895662
Si Si3 0.353324 0.462453 0.391888
Si Si4 0.854158 0.645637 0.390625
Si Si5 0.351665 0.079934 0.210689
Si Si6 0.140691 0.810020 0.198181
Si Si7 0.349097 0.246913 0.396428
O O1 0.782394 0.649153 0.113985
O O2 0.608617 0.684592 0.190823
O O3 0.802313 0.711696 0.127965
O O4 0.645534 0.685199 0.000000
O O5 0.805463 0.590648 0.815563
O O6 0.000000 0.622953 0.879014
O O7 0.824790 0.600704 0.000000
O O8 0.322432 0.453193 0.500000
O O9 0.500000 0.451330 0.366545
O O10 0.341773 0.500000 0.377739
O O11 0.248125 0.446870 0.322923
O O12 0.822173 0.648767 0.500000
O O13 0.841618 0.609030 0.361539
O O14 0.748699 0.665377 0.333984
O O15 0.000000 0.657885 0.368311
O O16 0.500000 0.066846 0.212531
O O17 0.194962 0.774430 0.176643
O O18 0.000000 0.815255 0.147781
O O19 0.298243 0.257346 0.500000
O O20 0.500000 0.243968 0.394810
#
# Coordination Sequence:
#
# PCOD8289142 Si02
#       7
#    16  16  16  16  16  16  16
#     4  10  19  33  52  72  98 134 178 227 275 321
#     4   9  17  31  53  79 105 136 177 225 272 316
#     4   9  19  36  57  83 116 151 184 215 250 303
#     4  10  21  36  53  76 107 140 175 217 265 319
#     4  10  19  33  55  83 112 139 176 225 267 307
#     4  11  22  35  51  74 105 138 173 219 271 327
#     4   9  18  32  51  74  97 127 173 225 275 330
#
# _framework density 18.206686000000001
#
# number of rings (size 3 to 8) (size 9 to 14) (size 15 to 20)
#    0.000    2.286    1.429    2.143    0.000    5.143 
#    0.000    1.429    0.000    1.714    0.000    3.000 
#    0.000    0.000    0.000    0.000    0.000    0.000 
#
# Total GULP energy -693821.117317 kJ/mol
# GULP energy per Si atom -12389.662809 kJ/mol
# Density = 1.816525 g / cm^3
# Si number density = 18.206686 Si / 1000 Ang^3
#
#
#
# Elastic Constant Matrix: (Units=GPa)
#
#
# Indices 1 2 3 4 5 6 
#
# 1 77.3569 45.7491 47.2129 0.0009 0.0008 0.0004
# 2 45.7491 64.7980 37.7472 -0.0034 -0.0020 -0.0018
# 3 47.2129 37.7472 114.6316 -0.0060 -0.0032 -0.0040
# 4 0.0009 -0.0034 -0.0060 29.4514 -0.0023 -0.0027
# 5 0.0008 -0.0020 -0.0032 -0.0023 25.2535 -0.0019
# 6 0.0004 -0.0018 -0.0040 -0.0027 -0.0019 14.1312
#
#
#
# Elastic Compliance Matrix: (Units=1/GPa)
#
#
# Indices 1 2 3 4 5 6 
#
# 1 0.024696 -0.014243 -0.005481 -0.000003 -0.000003 -0.000004
# 2 -0.014243 0.027310 -0.003127 0.000003 0.000002 0.000003
# 3 -0.005481 -0.003127 0.012011 0.000002 0.000001 0.000003
# 4 -0.000003 0.000003 0.000002 0.033954 0.000003 0.000007
# 5 -0.000003 0.000002 0.000001 0.000003 0.039598 0.000005
# 6 -0.000004 0.000003 0.000003 0.000007 0.000005 0.070765
#
#
# Mechanical properties :
#
#
# Convention : Reuss Voigt Hill
#
# Bulk Modulus (GPa) = 54.60122 57.57830 56.08976
# Shear Modulus (GPa) = 19.22035 22.17238 20.69637
#
# Velocity S-wave (km/s) = 3.25264 3.49351 3.37522
# Velocity P-wave (km/s) = 6.64537 6.92577 6.78702
#
# Compressibility (1/GPa) = 0.01831461
#
# Stress axis : x y z
#
# Youngs Moduli (GPa) = 40.49286 36.61688 83.25855
#
# Poissons Ratio (x) = 0.52153 0.45637
# Poissons Ratio (y) = 0.57673 0.26033
# Poissons Ratio (z) = 0.22195 0.11449
#
# Static dielectric constant tensor:
#      x y z
#    x 3.239320 0.000000 0.000000 
#    y 0.000000 3.128750 0.000000 
#    z 0.000000 0.000000 3.837980 
# 
# 
# High freq. dielectric constant tensor:
#      x y z
#    x 1.697110 0.000000 0.000000 
#    y 0.000000 1.681630 0.000000 
#    z 0.000000 0.000000 1.718520 
# 
# From -- ./inp_files/33294.got.cif
#   From: 2010.06.25/outbox.cif.g09.slc.cpg/sg71_17_cif.got.tgz:33294.got - 2010.06.28 04:59:45.
