data_PCOD8289097
_publ_section_title
;
Structure prediction by ZEFSAII (Michael W. Deem and Ramdas Pophale) SiO2 
 PCOD8289097
Probable space group: I M M M
;
_chemical_formula_sum "Si O2"
_cell_formula_units_Z 88
_cell_length_a 9.503728
_cell_length_b 27.898312
_cell_length_c 19.132306
_cell_angle_alpha 90.000000
_cell_angle_beta 90.000000
_cell_angle_gamma 90.000000
_cell_volume 5072.700753
_symmetry_space_group_name_H-M "I M M M"
_symmetry_group_IT_number 71
_symmetry_cell_setting 'orthorhombic'
loop_
_space_group_symop_operation_xyz
x,y,z
-x,-y,z
x,-y,-z
-x,y,-z
-x,-y,-z
x,y,-z
-x,y,z
x,-y,z
1/2+x,1/2+y,1/2+z
1/2-x,1/2-y,1/2+z
1/2+x,1/2-y,1/2-z
1/2-x,1/2+y,1/2-z
1/2-x,1/2-y,1/2-z
1/2+x,1/2+y,1/2-z
1/2-x,1/2+y,1/2+z
1/2+x,1/2-y,1/2+z
loop_
_atom_site_type_symbol
_atom_site_label
_atom_site_fract_x
_atom_site_fract_y
_atom_site_fract_z
Si Si1 0.331913 0.125379 0.078099
Si Si2 0.837290 0.318701 0.919732
Si Si3 0.155923 0.269185 0.416990
Si Si4 0.839731 0.000000 0.417479
Si Si5 0.164563 0.417398 0.848083
Si Si6 0.166246 0.553665 0.306251
O O1 0.500000 0.124669 0.077287
O O2 0.283753 0.178348 0.103994
O O3 0.269637 0.085824 0.131228
O O4 0.274855 0.114090 0.000000
O O5 0.755104 0.273017 0.888458
O O6 0.797871 0.364098 0.872643
O O7 0.000000 0.305889 0.913957
O O8 0.795153 0.329726 0.000000
O O9 0.148839 0.267214 0.500000
O O10 0.000000 0.261451 0.385384
O O11 0.758625 0.046800 0.392285
O O12 0.839524 0.000000 0.500000
O O13 0.000000 0.000000 0.388851
O O14 0.205877 0.422066 0.767079
O O15 0.000000 0.429443 0.860748
O O16 0.230349 0.500000 0.310174
O O17 0.000000 0.550836 0.314651
#
# Coordination Sequence:
#
# PCOD8289097 Si02
#       6
#    16  16  16   8  16  16
#     4   8  14  25  43  69  98 124 153 193 240 286
#     4   9  17  28  44  66  90 119 156 196 234 273
#     4   8  14  26  44  65  91 123 154 188 234 281
#     4  11  23  35  49  71  96 123 160 202 237 273
#     4  10  19  33  50  69  95 127 161 195 236 283
#     4   9  16  27  45  68  93 124 160 195 237 284
#
# _framework density 17.347760999999998
#
# number of rings (size 3 to 8) (size 9 to 14) (size 15 to 20)
#    0.000    3.000    0.909    1.909    0.000    2.545 
#    0.000    4.545    0.000    1.091    0.000    0.000 
#    0.000    0.727    0.000    0.000    0.000    0.000 
#
# Total GULP energy -545401.078380 kJ/mol
# GULP energy per Si atom -12395.479054 kJ/mol
# Density = 1.730828 g / cm^3
# Si number density = 17.347761 Si / 1000 Ang^3
#
#
#
# Elastic Constant Matrix: (Units=GPa)
#
#
# Indices 1 2 3 4 5 6 
#
# 1 41.5332 46.0708 29.6914 -0.0002 0.0000 0.0000
# 2 46.0708 172.6440 80.8644 -0.0004 0.0000 0.0000
# 3 29.6914 80.8644 92.1326 -0.0028 -0.0001 -0.0002
# 4 -0.0002 -0.0004 -0.0028 -65.3889 -0.0002 -0.0003
# 5 0.0000 0.0000 -0.0001 -0.0002 10.0859 0.0000
# 6 0.0000 0.0000 -0.0002 -0.0003 0.0000 11.7560
#
#
#
# Elastic Compliance Matrix: (Units=1/GPa)
#
#
# Indices 1 2 3 4 5 6 
#
# 1 0.035681 -0.007023 -0.005335 0.000000 0.000000 0.000000
# 2 -0.007023 0.011218 -0.007583 0.000000 0.000000 0.000000
# 3 -0.005335 -0.007583 0.019229 -0.000001 0.000000 0.000000
# 4 0.000000 0.000000 -0.000001 -0.015293 0.000000 0.000000
# 5 0.000000 0.000000 0.000000 0.000000 0.099148 0.000000
# 6 0.000000 0.000000 0.000000 0.000000 0.000000 0.085063
#
#
# Mechanical properties :
#
#
# Convention : Reuss Voigt Hill
#
# Bulk Modulus (GPa) = 38.10021 68.84030 53.47026
# Shear Modulus (GPa) = 17.62574 1.26948 9.44761
#
# Velocity S-wave (km/s) = 3.19097 0.85637 2.33620
# Velocity P-wave (km/s) = 5.96546 6.38330 6.17791
#
# Compressibility (1/GPa) = 0.02624657
#
# Stress axis : x y z
#
# Youngs Moduli (GPa) = 28.02603 89.14227 52.00587
#
# Poissons Ratio (x) = 0.62603 0.27745
# Poissons Ratio (y) = 0.19682 0.39435
# Poissons Ratio (z) = 0.14952 0.67595
#
# Static dielectric constant tensor:
#      x y z
#    x 2.992150 0.000000 0.000000 
#    y 0.000000 3.600210 0.000000 
#    z 0.000000 0.000000 3.200560 
# 
# 
# High freq. dielectric constant tensor:
#      x y z
#    x 1.625250 0.000000 0.000000 
#    y 0.000000 1.684050 0.000000 
#    z 0.000000 0.000000 1.652610 
# 
# From -- ./inp_files/42461.got.cif
#   From: 2010.06.25/outbox.cif.g09.slc.cpg/sg71_22_cif.got.tgz:42461.got - 2010.06.28 04:59:45.
