data_PCOD8289643
_publ_section_title
;
Structure prediction by ZEFSAII (Michael W. Deem and Ramdas Pophale) SiO2 
 PCOD8289643
Probable space group: I M M M
;
_chemical_formula_sum "Si O2"
_cell_formula_units_Z 104
_cell_length_a 9.147679
_cell_length_b 20.734519
_cell_length_c 29.738470
_cell_angle_alpha 90.000000
_cell_angle_beta 90.000000
_cell_angle_gamma 90.000000
_cell_volume 5640.576613
_symmetry_space_group_name_H-M "I M M M"
_symmetry_group_IT_number 71
_symmetry_cell_setting 'orthorhombic'
loop_
_space_group_symop_operation_xyz
x,y,z
-x,-y,z
x,-y,-z
-x,y,-z
-x,-y,-z
x,y,-z
-x,y,z
x,-y,z
1/2+x,1/2+y,1/2+z
1/2-x,1/2-y,1/2+z
1/2+x,1/2-y,1/2-z
1/2-x,1/2+y,1/2-z
1/2-x,1/2-y,1/2-z
1/2+x,1/2+y,1/2-z
1/2-x,1/2+y,1/2+z
1/2+x,1/2-y,1/2+z
loop_
_atom_site_type_symbol
_atom_site_label
_atom_site_fract_x
_atom_site_fract_y
_atom_site_fract_z
Si Si1 0.829431 0.573012 0.289694
Si Si2 0.335819 0.075288 0.050842
Si Si3 0.327233 0.128042 0.551647
Si Si4 0.172050 0.279747 0.870523
Si Si5 0.171609 0.310558 0.227623
Si Si6 0.336530 0.500000 0.053141
Si Si7 0.827662 0.864658 0.871292
O O1 0.791974 0.500000 0.274249
O O2 0.779423 0.622619 0.250853
O O3 0.744663 0.588283 0.335233
O O4 0.000000 0.580439 0.299960
O O5 0.500000 0.090224 0.068357
O O6 0.214424 0.112048 0.079277
O O7 0.304040 0.000000 0.053931
O O8 0.318893 0.099755 0.000000
O O9 0.285144 0.145474 0.500000
O O10 0.500000 0.117529 0.556154
O O11 0.267915 0.183947 0.585021
O O12 0.250439 0.063074 0.568971
O O13 0.215590 0.317218 0.824838
O O14 0.235824 0.207660 0.866385
O O15 0.000000 0.274679 0.875972
O O16 0.250000 0.250000 0.250000
O O17 0.000000 0.298065 0.232842
O O18 0.500000 0.500000 0.073842
O O19 0.344997 0.500000 0.000000
O O20 0.000000 0.867391 0.864543
#
# Coordination Sequence:
#
# PCOD8289643 Si02
#       7
#    16  16  16  16  16   8  16
#     4  10  21  36  55  79 105 138 182 225 265 319
#     4   9  19  36  54  72 101 141 180 218 260 309
#     4   9  17  32  54  77 102 137 178 214 256 315
#     4   9  19  34  52  78 107 136 173 218 263 310
#     4  10  19  36  58  78 105 140 178 220 268 318
#     4   9  17  31  51  75 105 137 169 213 263 307
#     4  11  21  33  53  80 108 138 174 219 271 319
#
# _framework density 18.437832
#
# number of rings (size 3 to 8) (size 9 to 14) (size 15 to 20)
#    0.000    2.385    1.538    1.615    0.000    4.308 
#    1.385    4.615    0.000    1.846    0.000    0.000 
#    0.000    0.000    0.000    0.000    0.000    0.000 
#
# Total GULP energy -644722.093233 kJ/mol
# GULP energy per Si atom -12398.501793 kJ/mol
# Density = 1.839587 g / cm^3
# Si number density = 18.437832 Si / 1000 Ang^3
#
#
#
# Elastic Constant Matrix: (Units=GPa)
#
#
# Indices 1 2 3 4 5 6 
#
# 1 40.9689 37.7220 28.6747 0.0000 0.0000 0.0000
# 2 37.7220 132.6006 64.9892 0.0000 0.0000 0.0000
# 3 28.6747 64.9892 113.3807 0.0000 0.0000 0.0000
# 4 0.0000 0.0000 0.0000 37.2072 0.0000 0.0000
# 5 0.0000 0.0000 0.0000 0.0000 20.5847 0.0000
# 6 0.0000 0.0000 0.0000 0.0000 0.0000 22.9936
#
#
#
# Elastic Compliance Matrix: (Units=1/GPa)
#
#
# Indices 1 2 3 4 5 6 
#
# 1 0.034524 -0.007707 -0.004314 0.000000 0.000000 0.000000
# 2 -0.007707 0.012208 -0.005049 0.000000 0.000000 0.000000
# 3 -0.004314 -0.005049 0.012805 0.000000 0.000000 0.000000
# 4 0.000000 0.000000 0.000000 0.026877 0.000000 0.000000
# 5 0.000000 0.000000 0.000000 0.000000 0.048580 0.000000
# 6 0.000000 0.000000 0.000000 0.000000 0.000000 0.043490
#
#
# Mechanical properties :
#
#
# Convention : Reuss Voigt Hill
#
# Bulk Modulus (GPa) = 39.37263 61.08023 50.22643
# Shear Modulus (GPa) = 22.61533 26.52806 24.57170
#
# Velocity S-wave (km/s) = 3.50604 3.79725 3.65455
# Velocity P-wave (km/s) = 6.14739 7.24051 6.71623
#
# Compressibility (1/GPa) = 0.02539835
#
# Stress axis : x y z
#
# Youngs Moduli (GPa) = 28.96507 81.91130 78.09693
#
# Poissons Ratio (x) = 0.63131 0.33689
# Poissons Ratio (y) = 0.22324 0.39428
# Poissons Ratio (z) = 0.12495 0.41353
#
# Static dielectric constant tensor:
#      x y z
#    x 3.253570 0.000000 0.000000 
#    y 0.000000 3.573230 0.000000 
#    z 0.000000 0.000000 3.500840 
# 
# 
# High freq. dielectric constant tensor:
#      x y z
#    x 1.696100 0.000000 0.000000 
#    y 0.000000 1.717100 0.000000 
#    z 0.000000 0.000000 1.713860 
# 
# From -- ./inp_files/56735.got.cif
#   From: 2010.06.25/outbox.cif.g09.slc.cpg/sg71_29_cif.got.tgz:56735.got - 2010.06.28 04:59:45.
