data_PCOD8289645
_publ_section_title
;
Structure prediction by ZEFSAII (Michael W. Deem and Ramdas Pophale) SiO2 
 PCOD8289645
Probable space group: I M M M
;
_chemical_formula_sum "Si O2"
_cell_formula_units_Z 96
_cell_length_a 7.922579
_cell_length_b 27.800336
_cell_length_c 23.328392
_cell_angle_alpha 90.000000
_cell_angle_beta 90.000000
_cell_angle_gamma 90.000000
_cell_volume 5138.086694
_symmetry_space_group_name_H-M "I M M M"
_symmetry_group_IT_number 71
_symmetry_cell_setting 'orthorhombic'
loop_
_space_group_symop_operation_xyz
x,y,z
-x,-y,z
x,-y,-z
-x,y,-z
-x,-y,-z
x,y,-z
-x,y,z
x,-y,z
1/2+x,1/2+y,1/2+z
1/2-x,1/2-y,1/2+z
1/2+x,1/2-y,1/2-z
1/2-x,1/2+y,1/2-z
1/2-x,1/2-y,1/2-z
1/2+x,1/2+y,1/2-z
1/2-x,1/2+y,1/2+z
1/2+x,1/2-y,1/2+z
loop_
_atom_site_type_symbol
_atom_site_label
_atom_site_fract_x
_atom_site_fract_y
_atom_site_fract_z
Si Si1 0.305987 0.125248 0.162368
Si Si2 0.308870 0.093585 0.712242
Si Si3 0.197635 0.053338 0.936203
Si Si4 0.799399 0.731478 0.312384
Si Si5 0.000000 0.862424 0.565494
Si Si6 0.500000 0.447432 0.150397
Si Si7 0.811301 0.678269 0.873274
O O1 0.500000 0.133336 0.150315
O O2 0.274257 0.095596 0.220224
O O3 0.236726 0.095376 0.108824
O O4 0.226696 0.178446 0.171884
O O5 0.500000 0.074854 0.700063
O O6 0.169709 0.057647 0.687776
O O7 0.284238 0.146228 0.683987
O O8 0.000000 0.049048 0.940366
O O9 0.268896 0.000000 0.917939
O O10 0.268773 0.066592 0.000000
O O11 0.750000 0.750000 0.250000
O O12 0.710534 0.766255 0.357749
O O13 0.000000 0.733674 0.318306
O O14 0.170520 0.833643 0.579676
O O15 0.000000 0.875354 0.500000
O O16 0.000000 0.912595 0.597293
O O17 0.500000 0.500000 0.123620
O O18 0.000000 0.669788 0.898381
#
# Coordination Sequence:
#
# PCOD8289645 Si02
#       7
#    16  16  16  16   8   8  16
#     4  10  21  34  53  84 114 144 183 230 282 337
#     4   9  19  35  53  81 120 151 180 227 284 346
#     4   9  20  39  58  75 101 141 189 239 282 325
#     4  11  20  32  54  86 120 151 184 230 283 336
#     4  10  22  41  62  82 114 153 194 246 286 334
#     4  10  22  37  58  86 113 150 192 232 292 346
#     4  10  19  36  58  84 116 153 193 227 285 351
#
# _framework density 18.683997999999999
#
# number of rings (size 3 to 8) (size 9 to 14) (size 15 to 20)
#    0.000    2.167    2.500    1.000    1.167    3.500 
#    0.000    3.333    0.000    0.000    0.000    4.667 
#    0.000    0.000    0.000    0.000    0.000    0.000 
#
# Total GULP energy -594873.114360 kJ/mol
# GULP energy per Si atom -12393.189882 kJ/mol
# Density = 1.864147 g / cm^3
# Si number density = 18.683998 Si / 1000 Ang^3
#
#
#
# Elastic Constant Matrix: (Units=GPa)
#
#
# Indices 1 2 3 4 5 6 
#
# 1 98.4961 37.2113 45.2498 0.0000 0.0000 0.0000
# 2 37.2113 125.9185 58.2018 0.0000 0.0000 0.0000
# 3 45.2498 58.2018 114.0186 -0.0002 0.0000 0.0000
# 4 0.0000 0.0000 -0.0002 39.8864 0.0000 0.0000
# 5 0.0000 0.0000 0.0000 0.0000 19.0286 0.0000
# 6 0.0000 0.0000 0.0000 0.0000 0.0000 19.8149
#
#
#
# Elastic Compliance Matrix: (Units=1/GPa)
#
#
# Indices 1 2 3 4 5 6 
#
# 1 0.012744 -0.001869 -0.004103 0.000000 0.000000 0.000000
# 2 -0.001869 0.010668 -0.004704 0.000000 0.000000 0.000000
# 3 -0.004103 -0.004704 0.012800 0.000000 0.000000 0.000000
# 4 0.000000 0.000000 0.000000 0.025071 0.000000 0.000000
# 5 0.000000 0.000000 0.000000 0.000000 0.052553 0.000000
# 6 0.000000 0.000000 0.000000 0.000000 0.000000 0.050467
#
#
# Mechanical properties :
#
#
# Convention : Reuss Voigt Hill
#
# Bulk Modulus (GPa) = 67.29854 68.86212 68.08033
# Shear Modulus (GPa) = 26.23164 28.93067 27.58116
#
# Velocity S-wave (km/s) = 3.75101 3.93927 3.84629
# Velocity P-wave (km/s) = 7.40660 7.59122 7.49948
#
# Compressibility (1/GPa) = 0.01485916
#
# Stress axis : x y z
#
# Youngs Moduli (GPa) = 78.46779 93.73582 78.12457
#
# Poissons Ratio (x) = 0.17524 0.32057
# Poissons Ratio (y) = 0.14669 0.36748
# Poissons Ratio (z) = 0.32198 0.44091
#
# Static dielectric constant tensor:
#      x y z
#    x 3.441450 0.000000 0.000000 
#    y 0.000000 4.053370 0.000000 
#    z 0.000000 0.000000 3.368270 
# 
# 
# High freq. dielectric constant tensor:
#      x y z
#    x 1.733900 0.000000 0.000000 
#    y 0.000000 1.722240 0.000000 
#    z 0.000000 0.000000 1.702240 
# 
# From -- ./inp_files/57786.got.cif
#   From: 2010.06.25/outbox.cif.g09.slc.cpg/sg71_29_cif.got.tgz:57786.got - 2010.06.28 04:59:45.
