data_PCOD8289789
_publ_section_title
;
Structure prediction by ZEFSAII (Michael W. Deem and Ramdas Pophale) SiO2 
 PCOD8289789
Probable space group: I M M M
;
_chemical_formula_sum "Si O2"
_cell_formula_units_Z 104
_cell_length_a 9.156290
_cell_length_b 22.169881
_cell_length_c 30.102352
_cell_angle_alpha 90.000000
_cell_angle_beta 90.000000
_cell_angle_gamma 90.000000
_cell_volume 6110.592619
_symmetry_space_group_name_H-M "I M M M"
_symmetry_group_IT_number 71
_symmetry_cell_setting 'orthorhombic'
loop_
_space_group_symop_operation_xyz
x,y,z
-x,-y,z
x,-y,-z
-x,y,-z
-x,-y,-z
x,y,-z
-x,y,z
x,-y,z
1/2+x,1/2+y,1/2+z
1/2-x,1/2-y,1/2+z
1/2+x,1/2-y,1/2-z
1/2-x,1/2+y,1/2-z
1/2-x,1/2-y,1/2-z
1/2+x,1/2+y,1/2-z
1/2-x,1/2+y,1/2+z
1/2+x,1/2-y,1/2+z
loop_
_atom_site_type_symbol
_atom_site_label
_atom_site_fract_x
_atom_site_fract_y
_atom_site_fract_z
Si Si1 0.666776 0.694962 0.694144
Si Si2 0.835095 0.500000 0.552960
Si Si3 0.165034 0.846156 0.383492
Si Si4 0.332938 0.685806 0.789752
Si Si5 0.335382 0.383557 0.447440
Si Si6 0.172620 0.567961 0.049827
Si Si7 0.669210 0.204473 0.109415
O O1 0.500000 0.693520 0.677526
O O2 0.684352 0.656285 0.740347
O O3 0.711078 0.763022 0.706085
O O4 0.769678 0.672069 0.654253
O O5 0.835269 0.500000 0.500000
O O6 0.751355 0.441373 0.571278
O O7 0.000000 0.500000 0.571508
O O8 0.190389 0.861034 0.330790
O O9 0.267488 0.886257 0.413856
O O10 0.200670 0.775630 0.390335
O O11 0.000000 0.860511 0.397797
O O12 0.500000 0.712225 0.794596
O O13 0.336336 0.383568 0.500000
O O14 0.500000 0.385570 0.428756
O O15 0.254500 0.322897 0.432252
O O16 0.226501 0.500000 0.060543
O O17 0.000000 0.570859 0.052249
O O18 0.224629 0.586157 0.000000
O O19 0.500000 0.189212 0.104918
#
# Coordination Sequence:
#
# PCOD8289789 Si02
#       7
#    16   8  16  16  16  16  16
#     4   9  15  25  43  65  91 123 156 189 226 275
#     4   9  17  31  51  71  91 119 155 193 233 273
#     4   9  18  31  47  70  97 123 154 192 236 287
#     4   8  15  27  42  64  94 122 148 186 232 279
#     4  10  20  33  49  70  95 124 162 202 235 275
#     4   9  19  35  51  67  90 121 158 200 244 289
#     4  10  20  32  45  67 101 132 158 193 240 290
#
# _framework density 17.019625999999999
#
# number of rings (size 3 to 8) (size 9 to 14) (size 15 to 20)
#    0.000    2.846    0.000    3.000    0.000    6.769 
#    0.000    3.846    0.000    0.000    2.000    0.000 
#    0.000    0.000    0.000    0.000    0.000    0.000 
#
# Total GULP energy -644315.457303 kJ/mol
# GULP energy per Si atom -12390.681871 kJ/mol
# Density = 1.698089 g / cm^3
# Si number density = 17.019626 Si / 1000 Ang^3
#
#
#
# Elastic Constant Matrix: (Units=GPa)
#
#
# Indices 1 2 3 4 5 6 
#
# 1 100.4981 38.4443 41.4130 0.0000 0.0000 0.0000
# 2 38.4443 55.8387 42.0635 0.0000 0.0000 0.0000
# 3 41.4130 42.0635 80.6031 0.0000 0.0000 0.0000
# 4 0.0000 0.0000 0.0000 8.9609 0.0000 0.0000
# 5 0.0000 0.0000 0.0000 0.0000 29.9548 0.0000
# 6 0.0000 0.0000 0.0000 0.0000 0.0000 26.2677
#
#
#
# Elastic Compliance Matrix: (Units=1/GPa)
#
#
# Indices 1 2 3 4 5 6 
#
# 1 0.014112 -0.007010 -0.003593 0.000000 0.000000 0.000000
# 2 -0.007010 0.032991 -0.013615 0.000000 0.000000 0.000000
# 3 -0.003593 -0.013615 0.021358 0.000000 0.000000 0.000000
# 4 0.000000 0.000000 0.000000 0.111596 0.000000 0.000000
# 5 0.000000 0.000000 0.000000 0.000000 0.033384 0.000000
# 6 0.000000 0.000000 0.000000 0.000000 0.000000 0.038070
#
#
# Mechanical properties :
#
#
# Convention : Reuss Voigt Hill
#
# Bulk Modulus (GPa) = 49.93555 53.42017 51.67786
# Shear Modulus (GPa) = 16.30677 20.70463 18.50570
#
# Velocity S-wave (km/s) = 3.09870 3.49164 3.30102
# Velocity P-wave (km/s) = 6.49664 6.90731 6.70512
#
# Compressibility (1/GPa) = 0.02002581
#
# Stress axis : x y z
#
# Youngs Moduli (GPa) = 70.85953 30.31091 46.82172
#
# Poissons Ratio (x) = 0.21248 0.16821
# Poissons Ratio (y) = 0.49672 0.63749
# Poissons Ratio (z) = 0.25457 0.41269
#
# Static dielectric constant tensor:
#      x y z
#    x 3.290730 0.000000 0.000000 
#    y 0.000000 2.830470 0.000000 
#    z 0.000000 0.000000 3.451070 
# 
# 
# High freq. dielectric constant tensor:
#      x y z
#    x 1.669150 0.000000 0.000000 
#    y 0.000000 1.604650 0.000000 
#    z 0.000000 0.000000 1.662240 
# 
# From -- ./inp_files/62289.got.cif
#   From: 2010.06.25/outbox.cif.g09.slc.cpg/sg71_32_cif.got.tgz:62289.got - 2010.06.28 04:59:45.
