data_PCOD8289008
_publ_section_title
;
Structure prediction by ZEFSAII (Michael W. Deem and Ramdas Pophale) SiO2 
 PCOD8289008
Probable space group: I M M M
;
_chemical_formula_sum "Si O2"
_cell_formula_units_Z 88
_cell_length_a 28.578098
_cell_length_b 19.538829
_cell_length_c 9.097158
_cell_angle_alpha 90.000000
_cell_angle_beta 90.000000
_cell_angle_gamma 90.000000
_cell_volume 5079.694463
_symmetry_space_group_name_H-M "I M M M"
_symmetry_group_IT_number 71
_symmetry_cell_setting 'orthorhombic'
loop_
_space_group_symop_operation_xyz
x,y,z
-x,-y,z
x,-y,-z
-x,y,-z
-x,-y,-z
x,y,-z
-x,y,z
x,-y,z
1/2+x,1/2+y,1/2+z
1/2-x,1/2-y,1/2+z
1/2+x,1/2-y,1/2-z
1/2-x,1/2+y,1/2-z
1/2-x,1/2-y,1/2-z
1/2+x,1/2+y,1/2-z
1/2-x,1/2+y,1/2+z
1/2+x,1/2-y,1/2+z
loop_
_atom_site_type_symbol
_atom_site_label
_atom_site_fract_x
_atom_site_fract_y
_atom_site_fract_z
Si Si1 0.947691 0.816937 0.825742
Si Si2 0.395503 0.183426 0.663266
Si Si3 0.786785 0.156092 0.328626
Si Si4 0.695643 0.813757 0.170473
Si Si5 0.131160 0.920814 0.828479
Si Si6 0.945167 0.575764 0.000000
O O1 0.924731 0.746406 0.767186
O O2 0.915140 0.880177 0.775674
O O3 0.000000 0.825932 0.758627
O O4 0.951776 0.813340 0.000000
O O5 0.375994 0.204838 0.500000
O O6 0.353876 0.160493 0.769577
O O7 0.428745 0.116967 0.645706
O O8 0.782098 0.140318 0.500000
O O9 0.736408 0.145136 0.253859
O O10 0.803041 0.233083 0.296575
O O11 0.823699 0.103997 0.259865
O O12 0.700465 0.830764 0.000000
O O13 0.122066 0.000000 0.793815
O O14 0.140758 0.907714 0.000000
O O15 0.922908 0.500000 0.000000
O O16 0.000000 0.571134 0.000000
#
# Coordination Sequence:
#
# PCOD8289008 Si02
#       6
#    16  16  16  16  16   8
#     4   9  16  28  49  76 103 134 177 221 260 306
#     4   9  17  29  53  79 104 136 171 211 259 308
#     4  10  20  33  52  75 102 136 176 218 264 318
#     4  10  19  32  53  80 105 130 172 221 265 312
#     4  10  20  33  50  74 106 142 179 223 269 311
#     4   9  18  32  54  84 111 135 171 213 259 319
#
# _framework density 17.323875999999998
#
# number of rings (size 3 to 8) (size 9 to 14) (size 15 to 20)
#    0.545    1.909    1.818    1.636    0.000    2.182 
#    0.000    2.727    0.000    5.455    0.000    2.545 
#    0.000    0.000    0.000    0.000    0.000    0.000 
#
# Total GULP energy -545479.498205 kJ/mol
# GULP energy per Si atom -12397.261323 kJ/mol
# Density = 1.728445 g / cm^3
# Si number density = 17.323876 Si / 1000 Ang^3
#
#
#
# Elastic Constant Matrix: (Units=GPa)
#
#
# Indices 1 2 3 4 5 6 
#
# 1 145.8662 67.9069 42.8520 0.0000 0.0000 0.0000
# 2 67.9069 115.7358 34.2785 0.0000 0.0000 0.0000
# 3 42.8520 34.2785 56.8458 0.0000 0.0000 0.0000
# 4 0.0000 0.0000 0.0000 14.0024 0.0000 0.0000
# 5 0.0000 0.0000 0.0000 0.0000 27.5735 0.0000
# 6 0.0000 0.0000 0.0000 0.0000 0.0000 25.6386
#
#
#
# Elastic Compliance Matrix: (Units=1/GPa)
#
#
# Indices 1 2 3 4 5 6 
#
# 1 0.010532 -0.004660 -0.005129 0.000000 0.000000 0.000000
# 2 -0.004660 0.012581 -0.004073 0.000000 0.000000 0.000000
# 3 -0.005129 -0.004073 0.023914 0.000000 0.000000 0.000000
# 4 0.000000 0.000000 0.000000 0.071416 0.000000 0.000000
# 5 0.000000 0.000000 0.000000 0.000000 0.036267 0.000000
# 6 0.000000 0.000000 0.000000 0.000000 0.000000 0.039004
#
#
# Mechanical properties :
#
#
# Convention : Reuss Voigt Hill
#
# Bulk Modulus (GPa) = 51.80915 67.61363 59.71139
# Shear Modulus (GPa) = 21.94195 25.00359 23.47277
#
# Velocity S-wave (km/s) = 3.56275 3.80320 3.68494
# Velocity P-wave (km/s) = 6.84802 7.64197 7.25586
#
# Compressibility (1/GPa) = 0.01930161
#
# Stress axis : x y z
#
# Youngs Moduli (GPa) = 94.94847 79.48290 41.81618
#
# Poissons Ratio (x) = 0.37043 0.21448
# Poissons Ratio (y) = 0.44250 0.17034
# Poissons Ratio (z) = 0.48699 0.32377
#
# Static dielectric constant tensor:
#      x y z
#    x 3.313080 0.000000 0.000000 
#    y 0.000000 3.165580 0.000000 
#    z 0.000000 0.000000 2.912340 
# 
# 
# High freq. dielectric constant tensor:
#      x y z
#    x 1.678440 0.000000 0.000000 
#    y 0.000000 1.651480 0.000000 
#    z 0.000000 0.000000 1.636720 
# 
# From -- ./inp_files/16873.got.cif
#   From: 2010.06.25/outbox.cif.g09.slc.cpg/sg71_9_cif.got.tgz:16873.got - 2010.06.28 04:59:45.
