data_PCOD8289950
_publ_section_title
;
Structure prediction by ZEFSAII (Michael W. Deem and Ramdas Pophale) SiO2 
 PCOD8289950
Probable space group: I M M M
;
_chemical_formula_sum "Si O2"
_cell_formula_units_Z 88
_cell_length_a 22.876881
_cell_length_b 28.134635
_cell_length_c 7.772879
_cell_angle_alpha 90.000000
_cell_angle_beta 90.000000
_cell_angle_gamma 90.000000
_cell_volume 5002.879073
_symmetry_space_group_name_H-M "I M M M"
_symmetry_group_IT_number 71
_symmetry_cell_setting 'orthorhombic'
loop_
_space_group_symop_operation_xyz
x,y,z
-x,-y,z
x,-y,-z
-x,y,-z
-x,-y,-z
x,y,-z
-x,y,z
x,-y,z
1/2+x,1/2+y,1/2+z
1/2-x,1/2-y,1/2+z
1/2+x,1/2-y,1/2-z
1/2-x,1/2+y,1/2-z
1/2-x,1/2-y,1/2-z
1/2+x,1/2+y,1/2-z
1/2-x,1/2+y,1/2+z
1/2+x,1/2-y,1/2+z
loop_
_atom_site_type_symbol
_atom_site_label
_atom_site_fract_x
_atom_site_fract_y
_atom_site_fract_z
Si Si1 0.569172 0.769887 0.810556
Si Si2 0.252310 0.055726 0.000000
Si Si3 0.662500 0.946284 0.691752
Si Si4 0.369075 0.396702 0.500000
Si Si5 0.933820 0.375825 0.701381
Si Si6 0.930225 0.797197 0.000000
Si Si7 0.065842 0.055720 0.306986
O O1 0.500000 0.772643 0.820022
O O2 0.590943 0.822767 0.761058
O O3 0.588743 0.732115 0.668455
O O4 0.593405 0.754858 0.000000
O O5 0.288907 0.068423 0.830047
O O6 0.199596 0.093272 0.000000
O O7 0.232248 0.000000 0.000000
O O8 0.689755 0.942190 0.500000
O O9 0.606054 0.913072 0.699516
O O10 0.641669 0.000000 0.730037
O O11 0.387991 0.342212 0.500000
O O12 0.392662 0.419474 0.673428
O O13 0.931504 0.386767 0.500000
O O14 0.000000 0.381168 0.770624
O O15 0.000000 0.809500 0.000000
O O16 0.086874 0.068104 0.500000
O O17 0.000000 0.074455 0.279208
O O18 0.068124 0.000000 0.274781
#
# Coordination Sequence:
#
# PCOD8289950 Si02
#       7
#    16   8  16   8  16   8  16
#     4   8  16  31  49  74 107 139 170 203 251 317
#     4  10  22  40  55  71 102 142 185 230 265 303
#     4  10  21  36  54  78 107 141 177 215 265 316
#     4  12  22  33  54  77 100 137 191 228 263 309
#     4   9  17  31  55  85 111 139 173 208 256 322
#     4  10  20  32  50  79 110 137 168 216 274 322
#     4   9  18  32  50  76 108 135 162 207 272 337
#
# _framework density 17.589870999999999
#
# number of rings (size 3 to 8) (size 9 to 14) (size 15 to 20)
#    0.000    2.545    0.909    3.273    1.273    2.909 
#    0.000    5.455    0.000    1.091    0.000    0.000 
#    0.000    0.000    0.000    0.000    0.000    0.000 
#
# Total GULP energy -545433.005406 kJ/mol
# GULP energy per Si atom -12396.204668 kJ/mol
# Density = 1.754984 g / cm^3
# Si number density = 17.589871 Si / 1000 Ang^3
#
#
#
# Elastic Constant Matrix: (Units=GPa)
#
#
# Indices 1 2 3 4 5 6 
#
# 1 80.1389 60.9678 54.7975 0.0000 0.0000 0.0000
# 2 60.9678 79.0165 63.3235 0.0000 0.0000 0.0000
# 3 54.7975 63.3235 131.7188 0.0000 0.0000 0.0000
# 4 0.0000 0.0000 0.0000 31.6808 0.0000 0.0000
# 5 0.0000 0.0000 0.0000 0.0000 16.4971 0.0000
# 6 0.0000 0.0000 0.0000 0.0000 0.0000 50.8342
#
#
#
# Elastic Compliance Matrix: (Units=1/GPa)
#
#
# Indices 1 2 3 4 5 6 
#
# 1 0.030617 -0.021824 -0.002245 0.000000 0.000000 0.000000
# 2 -0.021824 0.036144 -0.008297 0.000000 0.000000 0.000000
# 3 -0.002245 -0.008297 0.012515 0.000000 0.000000 0.000000
# 4 0.000000 0.000000 0.000000 0.031565 0.000000 0.000000
# 5 0.000000 0.000000 0.000000 0.000000 0.060617 0.000000
# 6 0.000000 0.000000 0.000000 0.000000 0.000000 0.019672
#
#
# Mechanical properties :
#
#
# Convention : Reuss Voigt Hill
#
# Bulk Modulus (GPa) = 68.76202 72.11684 70.43943
# Shear Modulus (GPa) = 19.17850 27.25478 23.21664
#
# Velocity S-wave (km/s) = 3.30557 3.94059 3.63697
# Velocity P-wave (km/s) = 7.33115 7.86081 7.60060
#
# Compressibility (1/GPa) = 0.01454291
#
# Stress axis : x y z
#
# Youngs Moduli (GPa) = 32.66167 27.66737 79.90631
#
# Poissons Ratio (x) = 0.60382 0.17942
# Poissons Ratio (y) = 0.71281 0.66296
# Poissons Ratio (z) = 0.07334 0.22955
#
# Static dielectric constant tensor:
#      x y z
#    x 2.936390 0.000000 0.000000 
#    y 0.000000 3.281140 0.000000 
#    z 0.000000 0.000000 3.586620 
# 
# 
# High freq. dielectric constant tensor:
#      x y z
#    x 1.635680 0.000000 0.000000 
#    y 0.000000 1.672690 0.000000 
#    z 0.000000 0.000000 1.700450 
# 
# From -- ./inp_files/10562.got.cif
#   From: 2010.06.25/outbox.cif.g09.slc.cpg/sg71_6_cif.got.tgz:10562.got - 2010.06.28 04:59:45.
