data_PCOD8289557
_publ_section_title
;
Structure prediction by ZEFSAII (Michael W. Deem and Ramdas Pophale) SiO2 
 PCOD8289557
Probable space group: I M M M
;
_chemical_formula_sum "Si O2"
_cell_formula_units_Z 72
_cell_length_a 25.331912
_cell_length_b 17.526276
_cell_length_c 8.710592
_cell_angle_alpha 90.000000
_cell_angle_beta 90.000000
_cell_angle_gamma 90.000000
_cell_volume 3867.277081
_symmetry_space_group_name_H-M "I M M M"
_symmetry_group_IT_number 71
_symmetry_cell_setting 'orthorhombic'
loop_
_space_group_symop_operation_xyz
x,y,z
-x,-y,z
x,-y,-z
-x,y,-z
-x,-y,-z
x,y,-z
-x,y,z
x,-y,z
1/2+x,1/2+y,1/2+z
1/2-x,1/2-y,1/2+z
1/2+x,1/2-y,1/2-z
1/2-x,1/2+y,1/2-z
1/2-x,1/2-y,1/2-z
1/2+x,1/2+y,1/2-z
1/2-x,1/2+y,1/2+z
1/2+x,1/2-y,1/2+z
loop_
_atom_site_type_symbol
_atom_site_label
_atom_site_fract_x
_atom_site_fract_y
_atom_site_fract_z
Si Si1 0.559142 0.639331 0.172155
Si Si2 0.000000 0.589695 0.819171
Si Si3 0.154054 0.081255 0.178566
Si Si4 0.409384 0.807845 0.179996
Si Si5 0.307556 0.741272 0.683501
O O1 0.500000 0.610209 0.185126
O O2 0.591753 0.586798 0.288151
O O3 0.561630 0.728516 0.216231
O O4 0.581324 0.628262 0.000000
O O5 0.054016 0.626043 0.751818
O O6 0.000000 0.500000 0.777845
O O7 0.000000 0.603444 0.000000
O O8 0.179454 0.156850 0.250502
O O9 0.175566 0.000000 0.246312
O O10 0.164769 0.081205 0.000000
O O11 0.350014 0.803159 0.252835
O O12 0.403644 0.824642 0.000000
O O13 0.308011 0.745924 0.500000
O O14 0.250000 0.750000 0.750000
#
# Coordination Sequence:
#
# PCOD8289557 Si02
#       5
#    16   8  16  16  16
#     4   9  17  30  48  73 103 136 172 208 248 301
#     4  11  23  37  55  83 118 151 186 235 291 344
#     4   9  19  34  50  72 102 134 170 212 259 312
#     4  10  19  35  57  80 108 144 185 228 273 331
#     4  10  20  36  58  82 106 141 186 233 281 335
#
# _framework density 18.617751999999999
#
# number of rings (size 3 to 8) (size 9 to 14) (size 15 to 20)
#    0.000    2.333    1.111    1.667    0.000    4.000 
#    0.000    3.333    0.000    4.000    0.000    0.000 
#    0.000    0.000    0.000    0.000    0.000    0.000 
#
# Total GULP energy -446015.229422 kJ/mol
# GULP energy per Si atom -12389.311928 kJ/mol
# Density = 1.857538 g / cm^3
# Si number density = 18.617752 Si / 1000 Ang^3
#
#
#
# Elastic Constant Matrix: (Units=GPa)
#
#
# Indices 1 2 3 4 5 6 
#
# 1 139.8644 56.1786 43.8381 0.0000 0.0000 0.0000
# 2 56.1786 113.3297 37.4227 0.0000 0.0000 0.0000
# 3 43.8381 37.4227 69.6683 0.0000 0.0000 0.0000
# 4 0.0000 0.0000 0.0000 20.7033 0.0000 0.0000
# 5 0.0000 0.0000 0.0000 0.0000 34.0684 0.0000
# 6 0.0000 0.0000 0.0000 0.0000 0.0000 13.2458
#
#
#
# Elastic Compliance Matrix: (Units=1/GPa)
#
#
# Indices 1 2 3 4 5 6 
#
# 1 0.009915 -0.003470 -0.004375 0.000000 0.000000 0.000000
# 2 -0.003470 0.011941 -0.004231 0.000000 0.000000 0.000000
# 3 -0.004375 -0.004231 0.019379 0.000000 0.000000 0.000000
# 4 0.000000 0.000000 0.000000 0.048302 0.000000 0.000000
# 5 0.000000 0.000000 0.000000 0.000000 0.029353 0.000000
# 6 0.000000 0.000000 0.000000 0.000000 0.000000 0.075496
#
#
# Mechanical properties :
#
#
# Convention : Reuss Voigt Hill
#
# Bulk Modulus (GPa) = 58.53538 66.41569 62.47553
# Shear Modulus (GPa) = 22.29848 25.96503 24.13175
#
# Velocity S-wave (km/s) = 3.46453 3.73854 3.60414
# Velocity P-wave (km/s) = 6.89296 7.37471 7.13790
#
# Compressibility (1/GPa) = 0.01708369
#
# Stress axis : x y z
#
# Youngs Moduli (GPa) = 100.85861 83.74476 51.60242
#
# Poissons Ratio (x) = 0.29062 0.22575
# Poissons Ratio (y) = 0.35001 0.21831
# Poissons Ratio (z) = 0.44123 0.35429
#
# Static dielectric constant tensor:
#      x y z
#    x 3.420510 0.000000 0.000000 
#    y 0.000000 3.714540 0.000000 
#    z 0.000000 0.000000 3.475190 
# 
# 
# High freq. dielectric constant tensor:
#      x y z
#    x 1.714390 0.000000 0.000000 
#    y 0.000000 1.714750 0.000000 
#    z 0.000000 0.000000 1.722510 
# 
# From -- ./inp_files/6073.got.cif
#   From: 2010.06.25/outbox.cif.g09.slc.cpg/sg71_4_cif.got.tgz:6073.got - 2010.06.28 04:59:45.
