data_PCOD8289565
_publ_section_title
;
Structure prediction by ZEFSAII (Michael W. Deem and Ramdas Pophale) SiO2 
 PCOD8289565
Probable space group: I M M M
;
_chemical_formula_sum "Si O2"
_cell_formula_units_Z 104
_cell_length_a 8.746557
_cell_length_b 22.046763
_cell_length_c 27.960017
_cell_angle_alpha 90.000000
_cell_angle_beta 90.000000
_cell_angle_gamma 90.000000
_cell_volume 5391.621486
_symmetry_space_group_name_H-M "I M M M"
_symmetry_group_IT_number 71
_symmetry_cell_setting 'orthorhombic'
loop_
_space_group_symop_operation_xyz
x,y,z
-x,-y,z
x,-y,-z
-x,y,-z
-x,-y,-z
x,y,-z
-x,y,z
x,-y,z
1/2+x,1/2+y,1/2+z
1/2-x,1/2-y,1/2+z
1/2+x,1/2-y,1/2-z
1/2-x,1/2+y,1/2-z
1/2-x,1/2-y,1/2-z
1/2+x,1/2+y,1/2-z
1/2-x,1/2+y,1/2+z
1/2+x,1/2-y,1/2+z
loop_
_atom_site_type_symbol
_atom_site_label
_atom_site_fract_x
_atom_site_fract_y
_atom_site_fract_z
Si Si1 0.175267 0.151269 0.394769
Si Si2 0.683085 0.282744 0.602575
Si Si3 0.167179 0.068508 0.222340
Si Si4 0.674336 0.928104 0.316073
Si Si5 0.818574 0.000000 0.056463
Si Si6 0.174062 0.784068 0.000000
Si Si7 0.319779 0.096975 0.873312
Si Si8 0.828263 0.163488 0.500000
O O1 0.252851 0.216610 0.385350
O O2 0.251777 0.100242 0.363021
O O3 0.191144 0.127321 0.450002
O O4 0.000000 0.158274 0.379859
O O5 0.500000 0.280382 0.605829
O O6 0.744511 0.306225 0.550071
O O7 0.753655 0.335125 0.635165
O O8 0.246156 0.099674 0.268408
O O9 0.277648 0.066292 0.176672
O O10 0.000000 0.098601 0.211549
O O11 0.139657 0.000000 0.237968
O O12 0.500000 0.907527 0.313459
O O13 0.690512 0.000000 0.320243
O O14 0.754289 0.939715 0.082334
O O15 0.000000 0.000000 0.062339
O O16 0.772784 0.000000 0.000000
O O17 0.192272 0.711698 0.000000
O O18 0.000000 0.803488 0.000000
O O19 0.500000 0.097318 0.881075
O O20 0.000000 0.193267 0.500000
#
# Coordination Sequence:
#
# PCOD8289565 Si02
#       8
#    16  16  16  16   8   8  16   8
#     4  10  19  35  57  84 116 150 190 235 284 336
#     4  10  20  35  55  80 112 151 192 233 281 338
#     4  10  20  37  61  84 108 144 189 234 283 341
#     4  10  21  37  59  86 115 146 186 234 284 339
#     4  11  25  43  61  83 117 159 201 246 293 340
#     4   8  16  30  50  74 100 140 188 228 265 319
#     4  12  24  38  58  85 117 151 191 238 291 343
#     4   8  16  30  51  77 109 146 182 223 268 323
#
# _framework density 19.289189
#
# number of rings (size 3 to 8) (size 9 to 14) (size 15 to 20)
#    0.000    1.923    0.769    3.462    1.077    3.385 
#    0.000    1.154    0.000    2.308    0.000    0.000 
#    0.000    0.000    0.000    0.000    0.000    0.000 
#
# Total GULP energy -644214.649303 kJ/mol
# GULP energy per Si atom -12388.743256 kJ/mol
# Density = 1.924529 g / cm^3
# Si number density = 19.289189 Si / 1000 Ang^3
#
#
#
# Elastic Constant Matrix: (Units=GPa)
#
#
# Indices 1 2 3 4 5 6 
#
# 1 130.6662 41.1436 50.9665 0.0000 0.0000 0.0000
# 2 41.1436 32.9555 35.0149 0.0000 0.0000 0.0000
# 3 50.9665 35.0149 119.1265 0.0000 0.0000 0.0000
# 4 0.0000 0.0000 0.0000 14.3561 0.0000 0.0000
# 5 0.0000 0.0000 0.0000 0.0000 29.5746 0.0000
# 6 0.0000 0.0000 0.0000 0.0000 0.0000 30.0211
#
#
#
# Elastic Compliance Matrix: (Units=1/GPa)
#
#
# Indices 1 2 3 4 5 6 
#
# 1 0.012713 -0.014676 -0.001125 0.000000 0.000000 0.000000
# 2 -0.014676 0.061066 -0.011670 0.000000 0.000000 0.000000
# 3 -0.001125 -0.011670 0.012306 0.000000 0.000000 0.000000
# 4 0.000000 0.000000 0.000000 0.069657 0.000000 0.000000
# 5 0.000000 0.000000 0.000000 0.000000 0.033813 0.000000
# 6 0.000000 0.000000 0.000000 0.000000 0.000000 0.033310
#
#
# Mechanical properties :
#
#
# Convention : Reuss Voigt Hill
#
# Bulk Modulus (GPa) = 32.11115 59.66648 45.88882
# Shear Modulus (GPa) = 17.34973 25.16524 21.25749
#
# Velocity S-wave (km/s) = 3.00234 3.61588 3.32330
# Velocity P-wave (km/s) = 5.35744 6.95935 6.21026
#
# Compressibility (1/GPa) = 0.03114183
#
# Stress axis : x y z
#
# Youngs Moduli (GPa) = 78.65817 16.37572 81.26040
#
# Poissons Ratio (x) = 0.24033 0.09145
# Poissons Ratio (y) = 1.15441 0.94832
# Poissons Ratio (z) = 0.08852 0.19111
#
# Static dielectric constant tensor:
#      x y z
#    x 3.730340 0.000000 0.000000 
#    y 0.000000 3.204500 0.000000 
#    z 0.000000 0.000000 3.686740 
# 
# 
# High freq. dielectric constant tensor:
#      x y z
#    x 1.764690 0.000000 0.000000 
#    y 0.000000 1.716660 0.000000 
#    z 0.000000 0.000000 1.757870 
# 
# From -- ./inp_files/63370.got.cif
#   From: 2010.06.25/outbox.cif.g09.slc.cpg/sg71_32_cif.got.tgz:63370.got - 2010.06.28 04:59:45.
