data_PCOD8289373
_publ_section_title
;
Structure prediction by ZEFSAII (Michael W. Deem and Ramdas Pophale) SiO2 
 PCOD8289373
Probable space group: I M M M
;
_chemical_formula_sum "Si O2"
_cell_formula_units_Z 56
_cell_length_a 12.488319
_cell_length_b 9.414002
_cell_length_c 25.946544
_cell_angle_alpha 90.000000
_cell_angle_beta 90.000000
_cell_angle_gamma 90.000000
_cell_volume 3050.407003
_symmetry_space_group_name_H-M "I M M M"
_symmetry_group_IT_number 71
_symmetry_cell_setting 'orthorhombic'
loop_
_space_group_symop_operation_xyz
x,y,z
-x,-y,z
x,-y,-z
-x,y,-z
-x,-y,-z
x,y,-z
-x,y,z
x,-y,z
1/2+x,1/2+y,1/2+z
1/2-x,1/2-y,1/2+z
1/2+x,1/2-y,1/2-z
1/2-x,1/2+y,1/2-z
1/2-x,1/2-y,1/2-z
1/2+x,1/2+y,1/2-z
1/2-x,1/2+y,1/2+z
1/2+x,1/2-y,1/2+z
loop_
_atom_site_type_symbol
_atom_site_label
_atom_site_fract_x
_atom_site_fract_y
_atom_site_fract_z
Si Si1 0.332135 0.164636 0.622547
Si Si2 0.876732 0.343119 0.237682
Si Si3 0.500000 0.663812 0.560771
Si Si4 0.880963 0.835711 0.667468
O O1 0.369549 0.212198 0.679305
O O2 0.392256 0.261713 0.581355
O O3 0.202653 0.189428 0.620301
O O4 0.361414 0.000000 0.611861
O O5 0.823873 0.500000 0.242091
O O6 0.828228 0.237020 0.281192
O O7 0.000000 0.351402 0.253350
O O8 0.500000 0.500000 0.577949
O O9 0.500000 0.680007 0.500000
O O10 0.000000 0.779702 0.652005
O O11 0.886949 0.000000 0.681536
#
# Coordination Sequence:
#
# PCOD8289373 Si02
#       4
#    16  16   8  16
#     4  10  19  34  54  74 103 140 174 212 258 310
#     4   9  16  27  44  70 106 142 177 212 245 294
#     4  11  25  41  57  79 101 123 167 231 282 319
#     4   9  18  30  47  76 111 143 175 207 243 296
#
# _framework density 18.358205999999999
#
# number of rings (size 3 to 8) (size 9 to 14) (size 15 to 20)
#    0.000    2.429    1.429    1.286    0.000    3.429 
#    0.000    0.000    0.000    0.857    0.000    6.000 
#    0.000    0.000    0.000    0.000    0.000    0.000 
#
# Total GULP energy -346974.101116 kJ/mol
# GULP energy per Si atom -12391.932183 kJ/mol
# Density = 1.831642 g / cm^3
# Si number density = 18.358206 Si / 1000 Ang^3
#
#
#
# Elastic Constant Matrix: (Units=GPa)
#
#
# Indices 1 2 3 4 5 6 
#
# 1 105.4955 42.2182 44.1981 0.0000 0.0000 0.0000
# 2 42.2182 80.3494 49.8488 0.0000 0.0000 0.0000
# 3 44.1981 49.8488 67.8295 0.0000 0.0000 0.0000
# 4 0.0000 0.0000 0.0000 27.7182 0.0000 0.0000
# 5 0.0000 0.0000 0.0000 0.0000 23.1655 0.0000
# 6 0.0000 0.0000 0.0000 0.0000 0.0000 21.4401
#
#
#
# Elastic Compliance Matrix: (Units=1/GPa)
#
#
# Indices 1 2 3 4 5 6 
#
# 1 0.013418 -0.002989 -0.006547 0.000000 0.000000 0.000000
# 2 -0.002989 0.023541 -0.015353 0.000000 0.000000 0.000000
# 3 -0.006547 -0.015353 0.030292 0.000000 0.000000 0.000000
# 4 0.000000 0.000000 0.000000 0.036077 0.000000 0.000000
# 5 0.000000 0.000000 0.000000 0.000000 0.043168 0.000000
# 6 0.000000 0.000000 0.000000 0.000000 0.000000 0.046642
#
#
# Mechanical properties :
#
#
# Convention : Reuss Voigt Hill
#
# Bulk Modulus (GPa) = 57.22873 58.46719 57.84796
# Shear Modulus (GPa) = 20.10131 22.29205 21.19668
#
# Velocity S-wave (km/s) = 3.31259 3.48844 3.40165
# Velocity P-wave (km/s) = 6.77289 6.93849 6.85619
#
# Compressibility (1/GPa) = 0.01747374
#
# Stress axis : x y z
#
# Youngs Moduli (GPa) = 74.52726 42.47879 33.01178
#
# Poissons Ratio (x) = 0.12695 0.21612
# Poissons Ratio (y) = 0.22273 0.50684
# Poissons Ratio (z) = 0.48792 0.65219
#
# Static dielectric constant tensor:
#      x y z
#    x 3.976340 0.000000 0.000000 
#    y 0.000000 3.511830 0.000000 
#    z 0.000000 0.000000 2.915020 
# 
# 
# High freq. dielectric constant tensor:
#      x y z
#    x 1.741150 0.000000 0.000000 
#    y 0.000000 1.706280 0.000000 
#    z 0.000000 0.000000 1.656560 
# 
# From -- ./inp_files/5035.got.cif
#   From: 2010.06.25/outbox.cif.g09.slc.cpg/sg71_3_cif.got.tgz:5035.got - 2010.06.28 04:59:45.
