data_PCOD8289350
_publ_section_title
;
Structure prediction by ZEFSAII (Michael W. Deem and Ramdas Pophale) SiO2 
 PCOD8289350
Probable space group: I M M M
;
_chemical_formula_sum "Si O2"
_cell_formula_units_Z 112
_cell_length_a 20.097925
_cell_length_b 17.192195
_cell_length_c 17.443624
_cell_angle_alpha 90.000000
_cell_angle_beta 90.000000
_cell_angle_gamma 90.000000
_cell_volume 6027.250844
_symmetry_space_group_name_H-M "I M M M"
_symmetry_group_IT_number 71
_symmetry_cell_setting 'orthorhombic'
loop_
_space_group_symop_operation_xyz
x,y,z
-x,-y,z
x,-y,-z
-x,y,-z
-x,-y,-z
x,y,-z
-x,y,z
x,-y,z
1/2+x,1/2+y,1/2+z
1/2-x,1/2-y,1/2+z
1/2+x,1/2-y,1/2-z
1/2-x,1/2+y,1/2-z
1/2-x,1/2-y,1/2-z
1/2+x,1/2+y,1/2-z
1/2-x,1/2+y,1/2+z
1/2+x,1/2-y,1/2+z
loop_
_atom_site_type_symbol
_atom_site_label
_atom_site_fract_x
_atom_site_fract_y
_atom_site_fract_z
Si Si1 0.331972 0.184162 0.811775
Si Si2 0.424647 0.288333 0.713467
Si Si3 0.192145 0.825379 0.410239
Si Si4 0.692900 0.091526 0.331701
Si Si5 0.577737 0.821338 0.587558
Si Si6 0.427041 0.908433 0.914648
Si Si7 0.422340 0.588706 0.826527
O O1 0.387893 0.231657 0.769779
O O2 0.290398 0.245258 0.863991
O O3 0.289348 0.137385 0.747770
O O4 0.366911 0.121106 0.864223
O O5 0.500000 0.268727 0.730341
O O6 0.408658 0.264797 0.625088
O O7 0.409801 0.377376 0.739669
O O8 0.191010 0.806652 0.500000
O O9 0.249824 0.887342 0.392227
O O10 0.120815 0.862204 0.387285
O O11 0.621068 0.114813 0.366911
O O12 0.692553 0.000000 0.315573
O O13 0.601310 0.816337 0.500000
O O14 0.500000 0.845151 0.593480
O O15 0.500000 0.883755 0.882604
O O16 0.421596 0.000000 0.916771
O O17 0.418745 0.874054 0.000000
O O18 0.500000 0.595264 0.850010
O O19 0.398137 0.500000 0.825698
#
# Coordination Sequence:
#
# PCOD8289350 Si02
#       7
#    16  16  16  16  16  16  16
#     4  10  19  34  52  72  97 133 177 212 244 301
#     4   8  15  28  47  71  97 126 163 206 251 296
#     4  11  23  37  54  76 104 137 171 212 262 312
#     4  11  23  37  54  76 104 137 171 212 262 312
#     4   9  18  33  53  76 102 134 172 213 258 311
#     4   9  17  29  48  77 111 142 171 211 264 311
#     4   9  18  33  53  76 102 134 172 213 258 311
#
# _framework density 18.582270000000001
#
# number of rings (size 3 to 8) (size 9 to 14) (size 15 to 20)
#    0.000    2.429    0.000    3.000    0.000    3.714 
#    0.000    1.429    0.000    0.429    0.000    3.000 
#    0.000    6.857    0.000    0.286    0.000    0.000 
#
# Total GULP energy -693807.517114 kJ/mol
# GULP energy per Si atom -12389.419948 kJ/mol
# Density = 1.853998 g / cm^3
# Si number density = 18.582270 Si / 1000 Ang^3
#
#
#
# Elastic Constant Matrix: (Units=GPa)
#
#
# Indices 1 2 3 4 5 6 
#
# 1 59.8900 24.7610 27.3184 0.0000 0.0000 0.0000
# 2 24.7610 88.2867 64.9989 0.0000 0.0000 0.0000
# 3 27.3184 64.9989 108.8019 0.0000 0.0000 0.0000
# 4 0.0000 0.0000 0.0000 21.2223 0.0000 0.0000
# 5 0.0000 0.0000 0.0000 0.0000 32.9197 0.0000
# 6 0.0000 0.0000 0.0000 0.0000 0.0000 -44.4734
#
#
#
# Elastic Compliance Matrix: (Units=1/GPa)
#
#
# Indices 1 2 3 4 5 6 
#
# 1 0.019384 -0.003308 -0.002891 0.000000 0.000000 0.000000
# 2 -0.003308 0.020785 -0.011586 0.000000 0.000000 0.000000
# 3 -0.002891 -0.011586 0.016838 0.000000 0.000000 0.000000
# 4 0.000000 0.000000 0.000000 0.047120 0.000000 0.000000
# 5 0.000000 0.000000 0.000000 0.000000 0.030377 0.000000
# 6 0.000000 0.000000 0.000000 0.000000 0.000000 -0.022485
#
#
# Mechanical properties :
#
#
# Convention : Reuss Voigt Hill
#
# Bulk Modulus (GPa) = 46.64910 54.57058 50.60984
# Shear Modulus (GPa) = 32.31354 11.26041 21.78698
#
# Velocity S-wave (km/s) = 4.17459 2.46433 3.42784
# Velocity P-wave (km/s) = 6.95664 6.12601 6.55450
#
# Compressibility (1/GPa) = 0.02143664
#
# Stress axis : x y z
#
# Youngs Moduli (GPa) = 51.59017 48.11250 59.38787
#
# Poissons Ratio (x) = 0.15917 0.17166
# Poissons Ratio (y) = 0.17067 0.68808
# Poissons Ratio (z) = 0.14912 0.55744
#
# Static dielectric constant tensor:
#      x y z
#    x 3.357720 0.000000 0.000000 
#    y 0.000000 3.519480 0.000000 
#    z 0.000000 0.000000 3.650790 
# 
# 
# High freq. dielectric constant tensor:
#      x y z
#    x 1.716460 0.000000 0.000000 
#    y 0.000000 1.712620 0.000000 
#    z 0.000000 0.000000 1.717560 
# 
# From -- ./inp_files/46415.got.cif
#   From: 2010.06.25/outbox.cif.g09.slc.cpg/sg71_24_cif.got.tgz:46415.got - 2010.06.28 04:59:45.
