data_PCOD8289628
_publ_section_title
;
Structure prediction by ZEFSAII (Michael W. Deem and Ramdas Pophale) SiO2 
 PCOD8289628
Probable space group: I M M M
;
_chemical_formula_sum "Si O2"
_cell_formula_units_Z 84
_cell_length_a 12.847486
_cell_length_b 15.797449
_cell_length_c 22.694243
_cell_angle_alpha 90.000000
_cell_angle_beta 90.000000
_cell_angle_gamma 90.000000
_cell_volume 4605.966934
_symmetry_space_group_name_H-M "I M M M"
_symmetry_group_IT_number 71
_symmetry_cell_setting 'orthorhombic'
loop_
_space_group_symop_operation_xyz
x,y,z
-x,-y,z
x,-y,-z
-x,y,-z
-x,-y,-z
x,y,-z
-x,y,z
x,-y,z
1/2+x,1/2+y,1/2+z
1/2-x,1/2-y,1/2+z
1/2+x,1/2-y,1/2-z
1/2-x,1/2+y,1/2-z
1/2-x,1/2-y,1/2-z
1/2+x,1/2+y,1/2-z
1/2-x,1/2+y,1/2+z
1/2+x,1/2-y,1/2+z
loop_
_atom_site_type_symbol
_atom_site_label
_atom_site_fract_x
_atom_site_fract_y
_atom_site_fract_z
Si Si1 0.622163 0.405082 0.306695
Si Si2 0.119079 0.838487 0.318989
Si Si3 0.729068 0.722501 0.391264
Si Si4 0.877132 0.682155 0.000000
Si Si5 0.386730 0.500000 0.900351
Si Si6 0.717387 0.000000 0.500000
Si Si7 0.112167 0.409365 0.432140
O O1 0.500000 0.414407 0.304833
O O2 0.669999 0.500000 0.315957
O O3 0.660558 0.365768 0.245094
O O4 0.650125 0.340481 0.358735
O O5 0.204589 0.773814 0.343367
O O6 0.000000 0.801442 0.316552
O O7 0.120930 0.918742 0.360331
O O8 0.670083 0.779279 0.439729
O O9 0.809037 0.665891 0.426076
O O10 0.855721 0.582064 0.000000
O O11 0.000000 0.699011 0.000000
O O12 0.500000 0.500000 0.932840
O O13 0.291378 0.500000 0.944110
O O14 0.094138 0.423092 0.500000
O O15 0.151516 0.500000 0.405266
O O16 0.000000 0.385997 0.403021
#
# Coordination Sequence:
#
# PCOD8289628 Si02
#       7
#    16  16  16   8   8   4  16
#     4  10  21  38  59  82 112 151 192 235 285 332
#     4  10  20  36  60  88 116 143 181 235 289 344
#     4  12  21  37  57  86 112 150 193 234 284 328
#     4  12  27  41  56  79 115 153 198 239 273 332
#     4  10  19  35  61  94 121 140 178 231 281 345
#     4  12  22  44  60  84 114 162 186 214 294 342
#     4   9  18  33  53  80 114 149 183 225 283 345
#
# _framework density 18.237213000000001
#
# number of rings (size 3 to 8) (size 9 to 14) (size 15 to 20)
#    0.000    1.524    3.810    3.143    0.000    0.000 
#    0.000    0.000    0.000    2.286    0.000    0.000 
#    0.000    0.000    0.000    0.000    0.000    0.000 
#
# Total GULP energy -520383.095147 kJ/mol
# GULP energy per Si atom -12390.073694 kJ/mol
# Density = 1.819570 g / cm^3
# Si number density = 18.237213 Si / 1000 Ang^3
#
#
#
# Elastic Constant Matrix: (Units=GPa)
#
#
# Indices 1 2 3 4 5 6 
#
# 1 76.4613 46.1243 31.6021 0.0000 0.0000 0.0000
# 2 46.1243 117.9476 44.0433 0.0000 0.0000 0.0000
# 3 31.6021 44.0433 92.0638 0.0000 0.0000 0.0000
# 4 0.0000 0.0000 0.0000 53.1011 0.0000 0.0000
# 5 0.0000 0.0000 0.0000 0.0000 31.2541 0.0000
# 6 0.0000 0.0000 0.0000 0.0000 0.0000 34.1706
#
#
#
# Elastic Compliance Matrix: (Units=1/GPa)
#
#
# Indices 1 2 3 4 5 6 
#
# 1 0.017957 -0.005747 -0.003414 0.000000 0.000000 0.000000
# 2 -0.005747 0.012162 -0.003845 0.000000 0.000000 0.000000
# 3 -0.003414 -0.003845 0.013874 0.000000 0.000000 0.000000
# 4 0.000000 0.000000 0.000000 0.018832 0.000000 0.000000
# 5 0.000000 0.000000 0.000000 0.000000 0.031996 0.000000
# 6 0.000000 0.000000 0.000000 0.000000 0.000000 0.029265
#
#
# Mechanical properties :
#
#
# Convention : Reuss Voigt Hill
#
# Bulk Modulus (GPa) = 55.62293 58.89023 57.25658
# Shear Modulus (GPa) = 32.03257 34.68538 33.35898
#
# Velocity S-wave (km/s) = 4.19554 4.36581 4.28152
# Velocity P-wave (km/s) = 7.35091 7.60099 7.47700
#
# Compressibility (1/GPa) = 0.01797820
#
# Stress axis : x y z
#
# Youngs Moduli (GPa) = 55.68997 82.22539 72.07878
#
# Poissons Ratio (x) = 0.47255 0.24611
# Poissons Ratio (y) = 0.32005 0.27717
# Poissons Ratio (z) = 0.19015 0.31619
#
# Static dielectric constant tensor:
#      x y z
#    x 3.366330 0.000000 0.000000 
#    y 0.000000 3.556340 0.000000 
#    z 0.000000 0.000000 3.387380 
# 
# 
# High freq. dielectric constant tensor:
#      x y z
#    x 1.703290 0.000000 0.000000 
#    y 0.000000 1.721040 0.000000 
#    z 0.000000 0.000000 1.702180 
# 
# From -- ./inp_files/27229.got.cif
#   From: 2010.06.25/outbox.cif.g09.slc.cpg/sg71_14_cif.got.tgz:27229.got - 2010.06.28 04:59:45.
