data_PCOD8289733
_publ_section_title
;
Structure prediction by ZEFSAII (Michael W. Deem and Ramdas Pophale) SiO2 
 PCOD8289733
Probable space group: I M M M
;
_chemical_formula_sum "Si O2"
_cell_formula_units_Z 104
_cell_length_a 9.223737
_cell_length_b 20.382695
_cell_length_c 32.274563
_cell_angle_alpha 90.000000
_cell_angle_beta 90.000000
_cell_angle_gamma 90.000000
_cell_volume 6067.766889
_symmetry_space_group_name_H-M "I M M M"
_symmetry_group_IT_number 71
_symmetry_cell_setting 'orthorhombic'
loop_
_space_group_symop_operation_xyz
x,y,z
-x,-y,z
x,-y,-z
-x,y,-z
-x,-y,-z
x,y,-z
-x,y,z
x,-y,z
1/2+x,1/2+y,1/2+z
1/2-x,1/2-y,1/2+z
1/2+x,1/2-y,1/2-z
1/2-x,1/2+y,1/2-z
1/2-x,1/2-y,1/2-z
1/2+x,1/2+y,1/2-z
1/2-x,1/2+y,1/2+z
1/2+x,1/2-y,1/2+z
loop_
_atom_site_type_symbol
_atom_site_label
_atom_site_fract_x
_atom_site_fract_y
_atom_site_fract_z
Si Si1 0.833406 0.750900 0.454533
Si Si2 0.663547 0.873122 0.572197
Si Si3 0.827774 0.572178 0.679765
Si Si4 0.827652 0.573121 0.773113
Si Si5 0.665135 0.500000 0.048878
Si Si6 0.663950 0.180001 0.663270
Si Si7 0.170680 0.697390 0.367711
O O1 0.812367 0.716910 0.500000
O O2 0.734898 0.815112 0.454156
O O3 0.788696 0.702777 0.416673
O O4 0.000000 0.772839 0.448565
O O5 0.500000 0.883594 0.555945
O O6 0.755983 0.937496 0.566863
O O7 0.664940 0.857842 0.620358
O O8 0.769469 0.500000 0.666271
O O9 0.775542 0.588493 0.726365
O O10 0.768412 0.627437 0.648236
O O11 0.000000 0.571189 0.678808
O O12 0.772246 0.500000 0.786143
O O13 0.765859 0.630311 0.802932
O O14 0.000000 0.573670 0.776287
O O15 0.500000 0.500000 0.064327
O O16 0.675356 0.500000 0.000000
O O17 0.500000 0.200058 0.675514
O O18 0.758464 0.245691 0.659988
O O19 0.000000 0.702808 0.360659
#
# Coordination Sequence:
#
# PCOD8289733 Si02
#       7
#    16  16  16  16   8  16  16
#     4   9  17  30  46  62  85 118 149 177 220 276
#     4  10  20  31  45  65  87 112 147 192 230 259
#     4   8  14  26  45  69  91 115 148 182 217 261
#     4   8  14  25  43  64  88 119 153 183 214 261
#     4  11  23  35  45  59  83 117 153 187 229 277
#     4   9  18  30  45  66  91 117 148 184 223 265
#     4   9  17  29  46  67  91 115 146 187 224 262
#
# _framework density 17.139749999999999
#
# number of rings (size 3 to 8) (size 9 to 14) (size 15 to 20)
#    0.000    3.000    0.000    2.077    1.077    4.000 
#    0.000    0.000    0.000    0.923    0.000    5.385 
#    0.000    0.000    0.000    7.692    0.000    8.000 
#
# Total GULP energy -644461.919601 kJ/mol
# GULP energy per Si atom -12393.498454 kJ/mol
# Density = 1.710074 g / cm^3
# Si number density = 17.139750 Si / 1000 Ang^3
#
#
#
# Elastic Constant Matrix: (Units=GPa)
#
#
# Indices 1 2 3 4 5 6 
#
# 1 47.5708 34.1192 18.9005 0.0000 0.0000 0.0000
# 2 34.1192 136.9646 77.5497 0.0000 0.0000 0.0000
# 3 18.9005 77.5497 97.6149 0.0000 0.0000 0.0000
# 4 0.0000 0.0000 0.0000 9.8690 0.0000 0.0000
# 5 0.0000 0.0000 0.0000 0.0000 14.0358 0.0000
# 6 0.0000 0.0000 0.0000 0.0000 0.0000 19.4669
#
#
#
# Elastic Compliance Matrix: (Units=1/GPa)
#
#
# Indices 1 2 3 4 5 6 
#
# 1 0.025596 -0.006489 0.000199 0.000000 0.000000 0.000000
# 2 -0.006489 0.014916 -0.010593 0.000000 0.000000 0.000000
# 3 0.000199 -0.010593 0.018621 0.000000 0.000000 0.000000
# 4 0.000000 0.000000 0.000000 0.101327 0.000000 0.000000
# 5 0.000000 0.000000 0.000000 0.000000 0.071247 0.000000
# 6 0.000000 0.000000 0.000000 0.000000 0.000000 0.051369
#
#
# Mechanical properties :
#
#
# Convention : Reuss Voigt Hill
#
# Bulk Modulus (GPa) = 39.42093 60.36545 49.89319
# Shear Modulus (GPa) = 15.37051 18.77973 17.07512
#
# Velocity S-wave (km/s) = 2.99787 3.31370 3.15973
# Velocity P-wave (km/s) = 5.91884 7.06660 6.51803
#
# Compressibility (1/GPa) = 0.02536723
#
# Stress axis : x y z
#
# Youngs Moduli (GPa) = 39.06813 67.04427 53.70149
#
# Poissons Ratio (x) = 0.43506 -0.01070
# Poissons Ratio (y) = 0.25352 0.56887
# Poissons Ratio (z) = -0.00778 0.71021
#
# Static dielectric constant tensor:
#      x y z
#    x 3.047710 0.000000 0.000000 
#    y 0.000000 3.468990 0.000000 
#    z 0.000000 0.000000 3.370060 
# 
# 
# High freq. dielectric constant tensor:
#      x y z
#    x 1.631860 0.000000 0.000000 
#    y 0.000000 1.650130 0.000000 
#    z 0.000000 0.000000 1.663500 
# 
# From -- ./inp_files/68247.got.cif
#   From: 2010.06.25/outbox.cif.g09.slc.cpg/sg71_35_cif.got.tgz:68247.got - 2010.06.28 04:59:45.
