data_PCOD8289691
_publ_section_title
;
Structure prediction by ZEFSAII (Michael W. Deem and Ramdas Pophale) SiO2 
 PCOD8289691
Probable space group: I M M M
;
_chemical_formula_sum "Si O2"
_cell_formula_units_Z 96
_cell_length_a 25.739160
_cell_length_b 9.515762
_cell_length_c 28.842588
_cell_angle_alpha 90.000000
_cell_angle_beta 90.000000
_cell_angle_gamma 90.000000
_cell_volume 7064.349336
_symmetry_space_group_name_H-M "I M M M"
_symmetry_group_IT_number 71
_symmetry_cell_setting 'orthorhombic'
loop_
_space_group_symop_operation_xyz
x,y,z
-x,-y,z
x,-y,-z
-x,y,-z
-x,-y,-z
x,y,-z
-x,y,z
x,-y,z
1/2+x,1/2+y,1/2+z
1/2-x,1/2-y,1/2+z
1/2+x,1/2-y,1/2-z
1/2-x,1/2+y,1/2-z
1/2-x,1/2-y,1/2-z
1/2+x,1/2+y,1/2-z
1/2-x,1/2+y,1/2+z
1/2+x,1/2-y,1/2+z
loop_
_atom_site_type_symbol
_atom_site_label
_atom_site_fract_x
_atom_site_fract_y
_atom_site_fract_z
Si Si1 0.245182 0.838398 0.146645
Si Si2 0.707311 0.162576 0.722650
Si Si3 0.058469 0.835388 0.643532
Si Si4 0.855624 0.341415 0.691636
Si Si5 0.284726 0.161325 0.051179
Si Si6 0.613358 0.337979 0.948576
O O1 0.203258 0.736689 0.172052
O O2 0.303489 0.801605 0.163551
O O3 0.242072 0.808951 0.091255
O O4 0.231774 0.000000 0.158714
O O5 0.750000 0.250000 0.750000
O O6 0.654479 0.172831 0.752785
O O7 0.724230 0.000000 0.717028
O O8 0.097387 0.759609 0.678536
O O9 0.070749 0.798031 0.589883
O O10 0.000000 0.784389 0.653770
O O11 0.064386 0.000000 0.652488
O O12 0.871999 0.500000 0.679233
O O13 0.335125 0.251732 0.061567
O O14 0.302582 0.000000 0.054178
O O15 0.261344 0.195787 0.000000
O O16 0.629273 0.500000 0.944637
O O17 0.590908 0.304034 0.000000
#
# Coordination Sequence:
#
# PCOD8289691 Si02
#       6
#    16  16  16  16  16  16
#     4   9  16  26  40  59  78  96 122 152 185 225
#     4   9  17  27  40  58  76  94 118 148 186 228
#     4  10  20  30  40  55  72  94 125 159 198 238
#     4   9  17  29  41  55  73  93 120 154 189 228
#     4   9  16  26  40  56  76 101 126 154 187 223
#     4   9  17  28  40  53  69  92 124 161 199 234
#
# _framework density 13.589361999999999
#
# number of rings (size 3 to 8) (size 9 to 14) (size 15 to 20)
#    0.000    2.833    1.667    1.500    0.000    4.667 
#    0.000    1.667    0.000    0.000    0.000    3.500 
#    0.000    0.000    0.000    0.000    0.000    0.833 
#
# Total GULP energy -594800.743021 kJ/mol
# GULP energy per Si atom -12391.682146 kJ/mol
# Density = 1.355843 g / cm^3
# Si number density = 13.589362 Si / 1000 Ang^3
#
#
#
# Elastic Constant Matrix: (Units=GPa)
#
#
# Indices 1 2 3 4 5 6 
#
# 1 37.1369 28.0584 39.2668 0.0000 0.0000 0.0000
# 2 28.0584 60.1272 45.1546 0.0000 0.0000 0.0000
# 3 39.2668 45.1546 96.4385 0.0000 0.0000 0.0000
# 4 0.0000 0.0000 0.0000 21.5181 0.0000 0.0000
# 5 0.0000 0.0000 0.0000 0.0000 16.8950 0.0000
# 6 0.0000 0.0000 0.0000 0.0000 0.0000 17.2994
#
#
#
# Elastic Compliance Matrix: (Units=1/GPa)
#
#
# Indices 1 2 3 4 5 6 
#
# 1 0.053337 -0.013234 -0.015521 0.000000 0.000000 0.000000
# 2 -0.013234 0.028935 -0.008159 0.000000 0.000000 0.000000
# 3 -0.015521 -0.008159 0.020509 0.000000 0.000000 0.000000
# 4 0.000000 0.000000 0.000000 0.046472 0.000000 0.000000
# 5 0.000000 0.000000 0.000000 0.000000 0.059189 0.000000
# 6 0.000000 0.000000 0.000000 0.000000 0.000000 0.057806
#
#
# Mechanical properties :
#
#
# Convention : Reuss Voigt Hill
#
# Bulk Modulus (GPa) = 34.53897 46.51801 40.52849
# Shear Modulus (GPa) = 14.29685 16.55736 15.42711
#
# Velocity S-wave (km/s) = 3.24707 3.49435 3.37298
# Velocity P-wave (km/s) = 6.28723 7.11240 6.71251
#
# Compressibility (1/GPa) = 0.02895280
#
# Stress axis : x y z
#
# Youngs Moduli (GPa) = 18.74864 34.56075 48.75848
#
# Poissons Ratio (x) = 0.45738 0.75677
# Poissons Ratio (y) = 0.24812 0.39784
# Poissons Ratio (z) = 0.29099 0.28199
#
# Static dielectric constant tensor:
#      x y z
#    x 2.347860 0.000000 0.000000 
#    y 0.000000 2.834830 0.000000 
#    z 0.000000 0.000000 3.182520 
# 
# 
# High freq. dielectric constant tensor:
#      x y z
#    x 1.453550 0.000000 0.000000 
#    y 0.000000 1.528080 0.000000 
#    z 0.000000 0.000000 1.522850 
# 
# From -- ./inp_files/15450.got.cif
#   From: 2010.06.25/outbox.cif.g09.slc.cpg/sg71_8_cif.got.tgz:15450.got - 2010.06.28 04:59:45.
