data_PCOD8289676
_publ_section_title
;
Structure prediction by ZEFSAII (Michael W. Deem and Ramdas Pophale) SiO2 
 PCOD8289676
Probable space group: I M M M
;
_chemical_formula_sum "Si O2"
_cell_formula_units_Z 104
_cell_length_a 20.863601
_cell_length_b 17.234871
_cell_length_c 14.592882
_cell_angle_alpha 90.000000
_cell_angle_beta 90.000000
_cell_angle_gamma 90.000000
_cell_volume 5247.329988
_symmetry_space_group_name_H-M "I M M M"
_symmetry_group_IT_number 71
_symmetry_cell_setting 'orthorhombic'
loop_
_space_group_symop_operation_xyz
x,y,z
-x,-y,z
x,-y,-z
-x,y,-z
-x,-y,-z
x,y,-z
-x,y,z
x,-y,z
1/2+x,1/2+y,1/2+z
1/2-x,1/2-y,1/2+z
1/2+x,1/2-y,1/2-z
1/2-x,1/2+y,1/2-z
1/2-x,1/2-y,1/2-z
1/2+x,1/2+y,1/2-z
1/2-x,1/2+y,1/2+z
1/2+x,1/2-y,1/2+z
loop_
_atom_site_type_symbol
_atom_site_label
_atom_site_fract_x
_atom_site_fract_y
_atom_site_fract_z
Si Si1 0.296670 0.147533 0.896347
Si Si2 0.814789 0.910642 0.230178
Si Si3 0.429087 0.701074 0.274640
Si Si4 0.381114 0.164257 0.392760
Si Si5 0.764766 0.176172 0.603662
Si Si6 0.428678 0.803251 0.104953
Si Si7 0.428664 0.000000 0.391210
O O1 0.248572 0.102249 0.830945
O O2 0.293978 0.239610 0.880854
O O3 0.372691 0.131867 0.875240
O O4 0.278101 0.124114 0.000000
O O5 0.875585 0.861277 0.194679
O O6 0.799551 0.887182 0.334027
O O7 0.834422 0.000000 0.226272
O O8 0.500000 0.664097 0.286913
O O9 0.426232 0.776569 0.339144
O O10 0.419791 0.728041 0.169524
O O11 0.396486 0.172517 0.500000
O O12 0.308817 0.185048 0.367641
O O13 0.392899 0.077035 0.356474
O O14 0.771349 0.146084 0.500000
O O15 0.500000 0.839849 0.119940
O O16 0.420564 0.773915 0.000000
O O17 0.500000 0.000000 0.350787
O O18 0.429846 0.000000 0.500000
#
# Coordination Sequence:
#
# PCOD8289676 Si02
#       7
#    16  16  16  16  16  16   8
#     4  10  19  37  63  85 111 148 191 241 290 343
#     4  12  25  38  56  85 119 155 198 247 290 336
#     4  11  22  37  58  82 112 155 202 239 282 342
#     4  10  20  35  57  86 118 149 186 232 286 353
#     4  10  20  36  60  86 110 144 191 240 293 352
#     4   9  18  34  60  89 111 137 182 237 287 341
#     4   9  18  32  50  78 117 151 176 218 285 352
#
# _framework density 19.819604000000002
#
# number of rings (size 3 to 8) (size 9 to 14) (size 15 to 20)
#    0.000    1.769    3.077    1.846    1.077    1.846 
#    0.000    0.000    0.000    0.462    0.000    7.538 
#    0.000    0.000    0.000    0.000    0.000    0.000 
#
# Total GULP energy -644639.816145 kJ/mol
# GULP energy per Si atom -12396.919541 kJ/mol
# Density = 1.977449 g / cm^3
# Si number density = 19.819604 Si / 1000 Ang^3
#
#
#
# Elastic Constant Matrix: (Units=GPa)
#
#
# Indices 1 2 3 4 5 6 
#
# 1 126.5792 34.4652 34.3298 0.0000 0.0000 0.0000
# 2 34.4652 85.6701 32.8950 0.0000 0.0000 0.0000
# 3 34.3298 32.8950 59.1686 0.0000 0.0000 0.0000
# 4 0.0000 0.0000 0.0000 16.3681 0.0000 0.0000
# 5 0.0000 0.0000 0.0000 0.0000 23.7548 0.0000
# 6 0.0000 0.0000 0.0000 0.0000 0.0000 12.5862
#
#
#
# Elastic Compliance Matrix: (Units=1/GPa)
#
#
# Indices 1 2 3 4 5 6 
#
# 1 0.009695 -0.002213 -0.004395 0.000000 0.000000 0.000000
# 2 -0.002213 0.015346 -0.007248 0.000000 0.000000 0.000000
# 3 -0.004395 -0.007248 0.023480 0.000000 0.000000 0.000000
# 4 0.000000 0.000000 0.000000 0.061095 0.000000 0.000000
# 5 0.000000 0.000000 0.000000 0.000000 0.042097 0.000000
# 6 0.000000 0.000000 0.000000 0.000000 0.000000 0.079452
#
#
# Mechanical properties :
#
#
# Convention : Reuss Voigt Hill
#
# Bulk Modulus (GPa) = 48.05330 52.75532 50.40431
# Shear Modulus (GPa) = 18.81038 21.85700 20.33369
#
# Velocity S-wave (km/s) = 3.08406 3.32444 3.20650
# Velocity P-wave (km/s) = 6.08111 6.43517 6.26064
#
# Compressibility (1/GPa) = 0.02081023
#
# Stress axis : x y z
#
# Youngs Moduli (GPa) = 103.15070 65.16451 42.58937
#
# Poissons Ratio (x) = 0.14419 0.18717
# Poissons Ratio (y) = 0.22824 0.30868
# Poissons Ratio (z) = 0.45331 0.47229
#
# Static dielectric constant tensor:
#      x y z
#    x 3.999090 0.000000 0.000000 
#    y 0.000000 3.239720 0.000000 
#    z 0.000000 0.000000 3.638630 
# 
# 
# High freq. dielectric constant tensor:
#      x y z
#    x 1.793650 0.000000 0.000000 
#    y 0.000000 1.726530 0.000000 
#    z 0.000000 0.000000 1.775160 
# 
# From -- ./inp_files/38075.got.cif
#   From: 2010.06.25/outbox.cif.g09.slc.cpg/sg71_20_cif.got.tgz:38075.got - 2010.06.28 04:59:45.
