data_PCOD8289477
_publ_section_title
;
Structure prediction by ZEFSAII (Michael W. Deem and Ramdas Pophale) SiO2 
 PCOD8289477
Probable space group: I M M M
;
_chemical_formula_sum "Si O2"
_cell_formula_units_Z 104
_cell_length_a 18.380682
_cell_length_b 32.148648
_cell_length_c 9.628748
_cell_angle_alpha 90.000000
_cell_angle_beta 90.000000
_cell_angle_gamma 90.000000
_cell_volume 5689.762724
_symmetry_space_group_name_H-M "I M M M"
_symmetry_group_IT_number 71
_symmetry_cell_setting 'orthorhombic'
loop_
_space_group_symop_operation_xyz
x,y,z
-x,-y,z
x,-y,-z
-x,y,-z
-x,-y,-z
x,y,-z
-x,y,z
x,-y,z
1/2+x,1/2+y,1/2+z
1/2-x,1/2-y,1/2+z
1/2+x,1/2-y,1/2-z
1/2-x,1/2+y,1/2-z
1/2-x,1/2-y,1/2-z
1/2+x,1/2+y,1/2-z
1/2-x,1/2+y,1/2+z
1/2+x,1/2-y,1/2+z
loop_
_atom_site_type_symbol
_atom_site_label
_atom_site_fract_x
_atom_site_fract_y
_atom_site_fract_z
Si Si1 0.313626 0.452918 0.658120
Si Si2 0.318372 0.074590 0.338655
Si Si3 0.917391 0.880840 0.841212
Si Si4 0.169502 0.184364 0.337509
Si Si5 0.583691 0.233501 0.160633
Si Si6 0.334982 0.830318 0.659841
Si Si7 0.080792 0.500000 0.164572
O O1 0.284881 0.451540 0.500000
O O2 0.327742 0.500000 0.707263
O O3 0.255226 0.430865 0.754851
O O4 0.388989 0.428038 0.672556
O O5 0.300190 0.067240 0.500000
O O6 0.348023 0.120862 0.313304
O O7 0.377562 0.041355 0.284254
O O8 0.870013 0.851528 0.745369
O O9 0.000000 0.880019 0.788863
O O10 0.911034 0.865315 0.000000
O O11 0.159004 0.175107 0.500000
O O12 0.134386 0.228147 0.294228
O O13 0.254161 0.184040 0.296183
O O14 0.500000 0.245099 0.191773
O O15 0.605923 0.193385 0.248502
O O16 0.595301 0.222529 0.000000
O O17 0.349110 0.819041 0.500000
O O18 0.000000 0.500000 0.230225
O O19 0.075221 0.500000 0.000000
#
# Coordination Sequence:
#
# PCOD8289477 Si02
#       7
#    16  16  16  16  16  16   8
#     4  10  20  34  54  79 109 146 182 220 268 321
#     4  10  19  34  57  82 107 139 182 226 266 321
#     4  10  21  35  53  81 113 146 185 225 269 321
#     4  10  20  37  59  82 109 142 183 227 275 328
#     4  10  22  38  55  78 110 148 183 218 271 334
#     4  10  21  35  56  85 109 138 184 232 274 321
#     4   9  18  32  53  81 110 141 176 220 273 319
#
# _framework density 18.278441999999998
#
# number of rings (size 3 to 8) (size 9 to 14) (size 15 to 20)
#    0.000    2.077    2.308    0.923    0.000    4.000 
#    0.000    3.077    0.000    0.923    0.000    2.154 
#    0.000    0.000    0.000    0.000    0.000    0.000 
#
# Total GULP energy -644940.033735 kJ/mol
# GULP energy per Si atom -12402.692956 kJ/mol
# Density = 1.823684 g / cm^3
# Si number density = 18.278442 Si / 1000 Ang^3
#
#
#
# Elastic Constant Matrix: (Units=GPa)
#
#
# Indices 1 2 3 4 5 6 
#
# 1 85.6327 39.3330 24.2088 0.0045 0.0041 0.0037
# 2 39.3330 106.2606 33.6276 -0.0081 -0.0008 0.0117
# 3 24.2088 33.6276 42.7708 -0.0318 -0.0076 0.0093
# 4 0.0045 -0.0081 -0.0318 28.6244 -0.0021 0.0089
# 5 0.0041 -0.0008 -0.0076 -0.0021 24.3468 -0.0013
# 6 0.0037 0.0117 0.0093 0.0089 -0.0013 14.8278
#
#
#
# Elastic Compliance Matrix: (Units=1/GPa)
#
#
# Indices 1 2 3 4 5 6 
#
# 1 0.014977 -0.003809 -0.005483 -0.000010 -0.000004 0.000003
# 2 -0.003809 0.013497 -0.008456 -0.000005 -0.000002 -0.000004
# 3 -0.005483 -0.008456 0.033132 0.000035 0.000011 -0.000013
# 4 -0.000010 -0.000005 0.000035 0.034935 0.000003 -0.000021
# 5 -0.000004 -0.000002 0.000011 0.000003 0.041073 0.000004
# 6 0.000003 -0.000004 -0.000013 -0.000021 0.000004 0.067441
#
#
# Mechanical properties :
#
#
# Convention : Reuss Voigt Hill
#
# Bulk Modulus (GPa) = 38.29743 47.66696 42.98219
# Shear Modulus (GPa) = 20.05996 22.72611 21.39304
#
# Velocity S-wave (km/s) = 3.31640 3.52991 3.42482
# Velocity P-wave (km/s) = 5.97180 6.53824 6.26143
#
# Compressibility (1/GPa) = 0.02611142
#
# Stress axis : x y z
#
# Youngs Moduli (GPa) = 66.76789 74.09295 30.18255
#
# Poissons Ratio (x) = 0.28221 0.16548
# Poissons Ratio (y) = 0.25431 0.25521
# Poissons Ratio (z) = 0.36607 0.62649
#
# Static dielectric constant tensor:
#      x y z
#    x 3.422120 0.000000 0.000010 
#    y 0.000000 3.485550 -0.000020 
#    z 0.000010 -0.000020 3.268210 
# 
# 
# High freq. dielectric constant tensor:
#      x y z
#    x 1.707700 0.000000 0.000000 
#    y 0.000000 1.718860 0.000000 
#    z 0.000000 0.000000 1.697070 
# 
# From -- ./inp_files/11452.got.cif
#   From: 2010.06.25/outbox.cif.g09.slc.cpg/sg71_6_cif.got.tgz:11452.got - 2010.06.28 04:59:45.
