data_PCOD8289597
_publ_section_title
;
Structure prediction by ZEFSAII (Michael W. Deem and Ramdas Pophale) SiO2 
 PCOD8289597
Probable space group: I M M M
;
_chemical_formula_sum "Si O2"
_cell_formula_units_Z 80
_cell_length_a 11.697078
_cell_length_b 23.633898
_cell_length_c 14.279266
_cell_angle_alpha 90.000000
_cell_angle_beta 90.000000
_cell_angle_gamma 90.000000
_cell_volume 3947.468078
_symmetry_space_group_name_H-M "I M M M"
_symmetry_group_IT_number 71
_symmetry_cell_setting 'orthorhombic'
loop_
_space_group_symop_operation_xyz
x,y,z
-x,-y,z
x,-y,-z
-x,y,-z
-x,-y,-z
x,y,-z
-x,y,z
x,-y,z
1/2+x,1/2+y,1/2+z
1/2-x,1/2-y,1/2+z
1/2+x,1/2-y,1/2-z
1/2-x,1/2+y,1/2-z
1/2-x,1/2-y,1/2-z
1/2+x,1/2+y,1/2-z
1/2-x,1/2+y,1/2+z
1/2+x,1/2-y,1/2+z
loop_
_atom_site_type_symbol
_atom_site_label
_atom_site_fract_x
_atom_site_fract_y
_atom_site_fract_z
Si Si1 0.780941 0.661192 0.889701
Si Si2 0.373260 0.761847 0.888886
Si Si3 0.366688 0.065212 0.268447
Si Si4 0.500000 0.647124 0.389514
Si Si5 0.000000 0.271696 0.111403
Si Si6 0.249484 0.624463 0.390021
O O1 0.672876 0.699697 0.859867
O O2 0.784329 0.601088 0.837332
O O3 0.889248 0.695973 0.852694
O O4 0.784200 0.649094 0.000000
O O5 0.500000 0.770021 0.845282
O O6 0.289813 0.812706 0.856457
O O7 0.379056 0.764225 0.000000
O O8 0.500000 0.080241 0.282614
O O9 0.328230 0.078210 0.162111
O O10 0.344410 0.000000 0.291310
O O11 0.500000 0.655718 0.500000
O O12 0.500000 0.709376 0.343773
O O13 0.382907 0.615007 0.361139
O O14 0.000000 0.268632 0.000000
O O15 0.230006 0.615602 0.500000
#
# Coordination Sequence:
#
# PCOD8289597 Si02
#       6
#    16  16  16   8   8  16
#     4  10  19  35  59  84 115 148 179 224 280 331
#     4   9  17  31  55  88 120 147 177 218 275 341
#     4  11  25  41  56  79 109 145 195 240 272 321
#     4   9  16  32  59  89 116 141 175 222 278 338
#     4   9  14  28  55  85 112 141 173 216 278 334
#     4  10  20  37  60  85 115 147 180 225 279 331
#
# _framework density 20.266155999999999
#
# number of rings (size 3 to 8) (size 9 to 14) (size 15 to 20)
#    0.000    2.200    3.000    0.600    0.000    2.800 
#    1.800    2.500    0.000    1.800    0.000    2.800 
#    0.000    0.000    0.000    0.000    0.000    0.000 
#
# Total GULP energy -495852.862719 kJ/mol
# GULP energy per Si atom -12396.321568 kJ/mol
# Density = 2.022003 g / cm^3
# Si number density = 20.266156 Si / 1000 Ang^3
#
#
#
# Elastic Constant Matrix: (Units=GPa)
#
#
# Indices 1 2 3 4 5 6 
#
# 1 114.0539 27.9746 12.8375 -0.0001 0.0000 0.0000
# 2 27.9746 60.7627 2.2148 -0.0003 0.0000 0.0000
# 3 12.8375 2.2148 27.8807 -0.0003 0.0000 0.0000
# 4 -0.0001 -0.0003 -0.0003 27.9317 0.0000 0.0000
# 5 0.0000 0.0000 0.0000 0.0000 24.0394 0.0000
# 6 0.0000 0.0000 0.0000 0.0000 0.0000 28.1669
#
#
#
# Elastic Compliance Matrix: (Units=1/GPa)
#
#
# Indices 1 2 3 4 5 6 
#
# 1 0.010400 -0.004627 -0.004421 0.000000 0.000000 0.000000
# 2 -0.004627 0.018564 0.000656 0.000000 0.000000 0.000000
# 3 -0.004421 0.000656 0.037851 0.000000 0.000000 0.000000
# 4 0.000000 0.000000 0.000000 0.035802 0.000000 0.000000
# 5 0.000000 0.000000 0.000000 0.000000 0.041598 0.000000
# 6 0.000000 0.000000 0.000000 0.000000 0.000000 0.035503
#
#
# Mechanical properties :
#
#
# Convention : Reuss Voigt Hill
#
# Bulk Modulus (GPa) = 19.98802 32.08346 26.03574
# Shear Modulus (GPa) = 23.45446 26.67228 25.06337
#
# Velocity S-wave (km/s) = 3.40563 3.63174 3.52050
# Velocity P-wave (km/s) = 5.03474 5.78373 5.42218
#
# Compressibility (1/GPa) = 0.05002997
#
# Stress axis : x y z
#
# Youngs Moduli (GPa) = 96.15083 53.86823 26.41960
#
# Poissons Ratio (x) = 0.24925 0.11681
# Poissons Ratio (y) = 0.44490 -0.01733
# Poissons Ratio (z) = 0.42510 -0.03533
#
# Static dielectric constant tensor:
#      x y z
#    x 3.989670 0.000000 0.000000 
#    y 0.000000 3.420970 0.000000 
#    z 0.000000 0.000000 3.467060 
# 
# 
# High freq. dielectric constant tensor:
#      x y z
#    x 1.794650 0.000000 0.000000 
#    y 0.000000 1.760370 0.000000 
#    z 0.000000 0.000000 1.782230 
# 
# From -- ./inp_files/27138.got.cif
#   From: 2010.06.25/outbox.cif.g09.slc.cpg/sg71_14_cif.got.tgz:27138.got - 2010.06.28 04:59:45.
