data_PCOD8289834
_publ_section_title
;
Structure prediction by ZEFSAII (Michael W. Deem and Ramdas Pophale) SiO2 
 PCOD8289834
Probable space group: I M M M
;
_chemical_formula_sum "Si O2"
_cell_formula_units_Z 104
_cell_length_a 18.522511
_cell_length_b 9.309217
_cell_length_c 32.293610
_cell_angle_alpha 90.000000
_cell_angle_beta 90.000000
_cell_angle_gamma 90.000000
_cell_volume 5568.389571
_symmetry_space_group_name_H-M "I M M M"
_symmetry_group_IT_number 71
_symmetry_cell_setting 'orthorhombic'
loop_
_space_group_symop_operation_xyz
x,y,z
-x,-y,z
x,-y,-z
-x,y,-z
-x,-y,-z
x,y,-z
-x,y,z
x,-y,z
1/2+x,1/2+y,1/2+z
1/2-x,1/2-y,1/2+z
1/2+x,1/2-y,1/2-z
1/2-x,1/2+y,1/2-z
1/2-x,1/2-y,1/2-z
1/2+x,1/2+y,1/2-z
1/2-x,1/2+y,1/2+z
1/2+x,1/2-y,1/2+z
loop_
_atom_site_type_symbol
_atom_site_label
_atom_site_fract_x
_atom_site_fract_y
_atom_site_fract_z
Si Si1 0.808959 0.665966 0.693997
Si Si2 0.827973 0.329170 0.546896
Si Si3 0.580924 0.170746 0.123659
Si Si4 0.327076 0.670660 0.574874
Si Si5 0.333279 0.165312 0.711445
Si Si6 0.579957 0.671714 0.500000
Si Si7 0.918298 0.166234 0.151885
O O1 0.789517 0.500000 0.684444
O O2 0.866408 0.725838 0.660370
O O3 0.736111 0.756849 0.691733
O O4 0.842136 0.684093 0.739497
O O5 0.840380 0.268815 0.500000
O O6 0.824787 0.500000 0.544542
O O7 0.890910 0.278432 0.578304
O O8 0.753373 0.270081 0.566686
O O9 0.500000 0.233035 0.130009
O O10 0.578950 0.000000 0.125437
O O11 0.326689 0.500000 0.573211
O O12 0.379017 0.732757 0.539713
O O13 0.360479 0.722134 0.618172
O O14 0.404607 0.238946 0.692672
O O15 0.328547 0.000000 0.698760
O O16 0.578427 0.500000 0.500000
O O17 0.500000 0.735903 0.500000
O O18 0.000000 0.190678 0.135989
O O19 0.905767 0.000000 0.162752
#
# Coordination Sequence:
#
# PCOD8289834 Si02
#       7
#    16  16  16  16  16   8  16
#     4   9  18  34  54  74  97 128 165 205 248 297
#     4   9  15  23  37  60  92 128 160 192 239 295
#     4   9  17  28  44  67  95 129 164 195 235 293
#     4   9  15  25  40  61  92 129 165 202 244 292
#     4  10  20  33  52  75  98 127 166 211 254 296
#     4   9  14  20  34  58  88 120 156 201 249 293
#     4  10  20  32  47  70 102 139 173 204 245 296
#
# _framework density 18.676853999999999
#
# number of rings (size 3 to 8) (size 9 to 14) (size 15 to 20)
#    0.000    2.692    0.769    1.846    0.000    6.154 
#    0.000    3.077    0.000    0.462    0.000    0.538 
#    0.000    1.846    0.000    4.000    0.000    4.615 
#
# Total GULP energy -644546.925200 kJ/mol
# GULP energy per Si atom -12395.133177 kJ/mol
# Density = 1.863434 g / cm^3
# Si number density = 18.676854 Si / 1000 Ang^3
#
#
#
# Elastic Constant Matrix: (Units=GPa)
#
#
# Indices 1 2 3 4 5 6 
#
# 1 113.0047 22.4150 65.5711 0.0000 0.0000 0.0000
# 2 22.4150 35.7102 31.4331 0.0000 0.0000 0.0000
# 3 65.5711 31.4331 123.8087 0.0000 0.0000 0.0000
# 4 0.0000 0.0000 0.0000 12.8236 0.0000 0.0000
# 5 0.0000 0.0000 0.0000 0.0000 31.3812 0.0000
# 6 0.0000 0.0000 0.0000 0.0000 0.0000 15.0117
#
#
#
# Elastic Compliance Matrix: (Units=1/GPa)
#
#
# Indices 1 2 3 4 5 6 
#
# 1 0.012974 -0.002698 -0.006186 0.000000 0.000000 0.000000
# 2 -0.002698 0.036624 -0.007869 0.000000 0.000000 0.000000
# 3 -0.006186 -0.007869 0.013351 0.000000 0.000000 0.000000
# 4 0.000000 0.000000 0.000000 0.077981 0.000000 0.000000
# 5 0.000000 0.000000 0.000000 0.000000 0.031866 0.000000
# 6 0.000000 0.000000 0.000000 0.000000 0.000000 0.066615
#
#
# Mechanical properties :
#
#
# Convention : Reuss Voigt Hill
#
# Bulk Modulus (GPa) = 33.96578 56.81800 45.39189
# Shear Modulus (GPa) = 17.68462 22.05025 19.86744
#
# Velocity S-wave (km/s) = 3.08047 3.43974 3.26505
# Velocity P-wave (km/s) = 5.55679 6.80172 6.21053
#
# Compressibility (1/GPa) = 0.02944140
#
# Stress axis : x y z
#
# Youngs Moduli (GPa) = 77.07755 27.30484 74.90052
#
# Poissons Ratio (x) = 0.07368 0.46334
# Poissons Ratio (y) = 0.20799 0.58939
# Poissons Ratio (z) = 0.47681 0.21486
#
# Static dielectric constant tensor:
#      x y z
#    x 3.573040 0.000000 0.000000 
#    y 0.000000 2.824500 0.000000 
#    z 0.000000 0.000000 3.655550 
# 
# 
# High freq. dielectric constant tensor:
#      x y z
#    x 1.729600 0.000000 0.000000 
#    y 0.000000 1.650430 0.000000 
#    z 0.000000 0.000000 1.739840 
# 
# From -- ./inp_files/70526.got.cif
#   From: 2010.06.25/outbox.cif.g09.slc.cpg/sg71_36_cif.got.tgz:70526.got - 2010.06.28 04:59:45.
