data_PCOD8289973
_publ_section_title
;
Structure prediction by ZEFSAII (Michael W. Deem and Ramdas Pophale) SiO2 
 PCOD8289973
Probable space group: I M M M
;
_chemical_formula_sum "Si O2"
_cell_formula_units_Z 84
_cell_length_a 11.610067
_cell_length_b 15.532128
_cell_length_c 25.927458
_cell_angle_alpha 90.000000
_cell_angle_beta 90.000000
_cell_angle_gamma 90.000000
_cell_volume 4675.473785
_symmetry_space_group_name_H-M "I M M M"
_symmetry_group_IT_number 71
_symmetry_cell_setting 'orthorhombic'
loop_
_space_group_symop_operation_xyz
x,y,z
-x,-y,z
x,-y,-z
-x,y,-z
-x,-y,-z
x,y,-z
-x,y,z
x,-y,z
1/2+x,1/2+y,1/2+z
1/2-x,1/2-y,1/2+z
1/2+x,1/2-y,1/2-z
1/2-x,1/2+y,1/2-z
1/2-x,1/2-y,1/2-z
1/2+x,1/2+y,1/2-z
1/2-x,1/2+y,1/2+z
1/2+x,1/2-y,1/2+z
loop_
_atom_site_type_symbol
_atom_site_label
_atom_site_fract_x
_atom_site_fract_y
_atom_site_fract_z
Si Si1 0.744204 0.000000 0.899313
Si Si2 0.136094 0.000000 0.443233
Si Si3 0.633989 0.171358 0.941198
Si Si4 0.361546 0.000000 0.785101
Si Si5 0.000000 0.000000 0.879737
Si Si6 0.727802 0.346301 0.235073
Si Si7 0.136432 0.838287 0.623049
Si Si8 0.000000 0.093555 0.218039
O O1 0.698051 0.084541 0.926726
O O2 0.708060 0.000000 0.839064
O O3 0.881218 0.000000 0.911210
O O4 0.176490 0.914392 0.414359
O O5 0.192345 0.000000 0.500000
O O6 0.000000 0.000000 0.447972
O O7 0.500000 0.152775 0.934310
O O8 0.671843 0.248425 0.903425
O O9 0.662689 0.197794 0.000000
O O10 0.325458 0.914244 0.753455
O O11 0.500000 0.000000 0.793865
O O12 0.000000 0.914603 0.843928
O O13 0.750000 0.250000 0.250000
O O14 0.710301 0.353632 0.174135
O O15 0.611811 0.357886 0.265655
O O16 0.000000 0.841569 0.635351
O O17 0.000000 0.000000 0.245617
#
# Coordination Sequence:
#
# PCOD8289973 Si02
#       8
#     8   8  16   8   4  16  16   8
#     4  12  21  38  60  84 108 152 188 228 285 341
#     4   9  17  29  49  77 108 138 171 222 275 320
#     4  10  21  37  56  84 118 149 186 234 288 343
#     4  12  25  40  54  86 126 148 188 239 282 350
#     4  10  22  38  61  82 110 148 193 238 280 322
#     4  12  23  36  58  85 115 153 196 231 282 342
#     4  10  20  32  55  81 110 146 188 226 274 333
#     4  10  20  40  58  76 117 157 189 232 283 333
#
# _framework density 17.966093000000001
#
# number of rings (size 3 to 8) (size 9 to 14) (size 15 to 20)
#    0.286    1.048    3.810    3.429    1.333    4.571 
#    0.000    0.952    0.000    0.000    0.000    0.000 
#    0.000    2.667    0.000    0.000    0.000    0.000 
#
# Total GULP energy -520613.100044 kJ/mol
# GULP energy per Si atom -12395.550001 kJ/mol
# Density = 1.792520 g / cm^3
# Si number density = 17.966093 Si / 1000 Ang^3
#
#
#
# Elastic Constant Matrix: (Units=GPa)
#
#
# Indices 1 2 3 4 5 6 
#
# 1 71.7966 33.4049 15.4332 0.0000 0.0000 0.0000
# 2 33.4049 118.9207 10.6719 0.0000 0.0000 0.0000
# 3 15.4332 10.6719 69.9655 0.0000 0.0000 0.0000
# 4 0.0000 0.0000 0.0000 35.8204 0.0000 0.0000
# 5 0.0000 0.0000 0.0000 0.0000 27.3552 0.0000
# 6 0.0000 0.0000 0.0000 0.0000 0.0000 24.5629
#
#
#
# Elastic Compliance Matrix: (Units=1/GPa)
#
#
# Indices 1 2 3 4 5 6 
#
# 1 0.016619 -0.004400 -0.002995 0.000000 0.000000 0.000000
# 2 -0.004400 0.009690 -0.000508 0.000000 0.000000 0.000000
# 3 -0.002995 -0.000508 0.015031 0.000000 0.000000 0.000000
# 4 0.000000 0.000000 0.000000 0.027917 0.000000 0.000000
# 5 0.000000 0.000000 0.000000 0.000000 0.036556 0.000000
# 6 0.000000 0.000000 0.000000 0.000000 0.000000 0.040712
#
#
# Mechanical properties :
#
#
# Convention : Reuss Voigt Hill
#
# Bulk Modulus (GPa) = 39.16007 42.18920 40.67463
# Shear Modulus (GPa) = 29.26700 30.95925 30.11313
#
# Velocity S-wave (km/s) = 4.04048 4.15565 4.09847
# Velocity P-wave (km/s) = 6.60389 6.82346 6.71457
#
# Compressibility (1/GPa) = 0.02553622
#
# Stress axis : x y z
#
# Youngs Moduli (GPa) = 60.17228 103.19552 66.53017
#
# Poissons Ratio (x) = 0.45401 0.19924
# Poissons Ratio (y) = 0.26473 0.03377
# Poissons Ratio (z) = 0.18020 0.05238
#
# Static dielectric constant tensor:
#      x y z
#    x 3.129140 0.000000 0.000000 
#    y 0.000000 3.464520 0.000000 
#    z 0.000000 0.000000 3.475490 
# 
# 
# High freq. dielectric constant tensor:
#      x y z
#    x 1.665810 0.000000 0.000000 
#    y 0.000000 1.712080 0.000000 
#    z 0.000000 0.000000 1.702670 
# 
# From -- ./inp_files/58783.got.cif
#   From: 2010.06.25/outbox.cif.g09.slc.cpg/sg71_30_cif.got.tgz:58783.got - 2010.06.28 04:59:45.
