data_PCOD8289495
_publ_section_title
;
Structure prediction by ZEFSAII (Michael W. Deem and Ramdas Pophale) SiO2 
 PCOD8289495
Probable space group: I M M M
;
_chemical_formula_sum "Si O2"
_cell_formula_units_Z 64
_cell_length_a 17.901803
_cell_length_b 14.988913
_cell_length_c 12.710852
_cell_angle_alpha 90.000000
_cell_angle_beta 90.000000
_cell_angle_gamma 90.000000
_cell_volume 3410.684712
_symmetry_space_group_name_H-M "I M M M"
_symmetry_group_IT_number 71
_symmetry_cell_setting 'orthorhombic'
loop_
_space_group_symop_operation_xyz
x,y,z
-x,-y,z
x,-y,-z
-x,y,-z
-x,-y,-z
x,y,-z
-x,y,z
x,-y,z
1/2+x,1/2+y,1/2+z
1/2-x,1/2-y,1/2+z
1/2+x,1/2-y,1/2-z
1/2-x,1/2+y,1/2-z
1/2-x,1/2-y,1/2-z
1/2+x,1/2+y,1/2-z
1/2-x,1/2+y,1/2+z
1/2+x,1/2-y,1/2+z
loop_
_atom_site_type_symbol
_atom_site_label
_atom_site_fract_x
_atom_site_fract_y
_atom_site_fract_z
Si Si1 0.083133 0.318869 0.500000
Si Si2 0.675488 0.255730 0.616144
Si Si3 0.221600 0.098070 0.376612
Si Si4 0.084014 0.811646 0.695803
Si Si5 0.760758 0.396708 0.500000
O O1 0.092963 0.260042 0.396177
O O2 0.148858 0.392085 0.500000
O O3 0.000000 0.363296 0.500000
O O4 0.645504 0.226913 0.500000
O O5 0.725132 0.176192 0.667111
O O6 0.605039 0.268963 0.691632
O O7 0.726396 0.345874 0.602933
O O8 0.212372 0.111603 0.500000
O O9 0.139621 0.106438 0.325662
O O10 0.253890 0.000000 0.348957
O O11 0.000000 0.848675 0.701845
O O12 0.736274 0.500000 0.500000
#
# Coordination Sequence:
#
# PCOD8289495 Si02
#       5
#     8  16  16  16   8
#     4  10  20  35  54  82 109 135 177 220 271 326
#     4   9  20  38  54  80 108 138 186 223 261 318
#     4  10  19  34  58  84 108 138 177 226 275 322
#     4  11  20  35  57  78 112 148 173 219 272 321
#     4  10  20  37  59  78 106 147 183 225 265 313
#
# _framework density 18.764559999999999
#
# number of rings (size 3 to 8) (size 9 to 14) (size 15 to 20)
#    0.750    1.250    3.750    0.750    0.000    2.250 
#    0.000    1.250    0.000    3.000    0.000    3.500 
#    0.000    0.000    0.000    0.000    0.000    0.000 
#
# Total GULP energy -396560.956169 kJ/mol
# GULP energy per Si atom -12392.529880 kJ/mol
# Density = 1.872185 g / cm^3
# Si number density = 18.764560 Si / 1000 Ang^3
#
#
#
# Elastic Constant Matrix: (Units=GPa)
#
#
# Indices 1 2 3 4 5 6 
#
# 1 45.0490 11.8331 34.6283 0.0000 0.0000 0.0000
# 2 11.8331 102.7501 25.0120 0.0000 0.0000 0.0000
# 3 34.6283 25.0120 70.9825 0.0000 0.0000 0.0000
# 4 0.0000 0.0000 0.0000 12.0971 0.0000 0.0000
# 5 0.0000 0.0000 0.0000 0.0000 23.8833 0.0000
# 6 0.0000 0.0000 0.0000 0.0000 0.0000 12.3410
#
#
#
# Elastic Compliance Matrix: (Units=1/GPa)
#
#
# Indices 1 2 3 4 5 6 
#
# 1 0.035519 0.000139 -0.017377 0.000000 0.000000 0.000000
# 2 0.000139 0.010646 -0.003819 0.000000 0.000000 0.000000
# 3 -0.017377 -0.003819 0.023911 0.000000 0.000000 0.000000
# 4 0.000000 0.000000 0.000000 0.082664 0.000000 0.000000
# 5 0.000000 0.000000 0.000000 0.000000 0.041870 0.000000
# 6 0.000000 0.000000 0.000000 0.000000 0.000000 0.081031
#
#
# Mechanical properties :
#
#
# Convention : Reuss Voigt Hill
#
# Bulk Modulus (GPa) = 35.76232 40.19205 37.97719
# Shear Modulus (GPa) = 15.28702 19.48481 17.38591
#
# Velocity S-wave (km/s) = 2.85735 3.22589 3.04720
# Velocity P-wave (km/s) = 5.47592 5.94481 5.71518
#
# Compressibility (1/GPa) = 0.02796239
#
# Stress axis : x y z
#
# Youngs Moduli (GPa) = 28.15431 93.93180 41.82191
#
# Poissons Ratio (x) = -0.01310 0.72672
# Poissons Ratio (y) = -0.00393 0.15973
# Poissons Ratio (z) = 0.48923 0.35876
#
# Static dielectric constant tensor:
#      x y z
#    x 3.355290 0.000000 0.000000 
#    y 0.000000 3.255470 0.000000 
#    z 0.000000 0.000000 3.424270 
# 
# 
# High freq. dielectric constant tensor:
#      x y z
#    x 1.710570 0.000000 0.000000 
#    y 0.000000 1.702840 0.000000 
#    z 0.000000 0.000000 1.735680 
# 
# From -- ./inp_files/23231.got.cif
#   From: 2010.06.25/outbox.cif.g09.slc.cpg/sg71_12_cif.got.tgz:23231.got - 2010.06.28 04:59:45.
