data_PCOD8289777
_publ_section_title
;
Structure prediction by ZEFSAII (Michael W. Deem and Ramdas Pophale) SiO2 
 PCOD8289777
Probable space group: I M M M
;
_chemical_formula_sum "Si O2"
_cell_formula_units_Z 120
_cell_length_a 22.145884
_cell_length_b 23.497277
_cell_length_c 13.797023
_cell_angle_alpha 90.000000
_cell_angle_beta 90.000000
_cell_angle_gamma 90.000000
_cell_volume 7179.528861
_symmetry_space_group_name_H-M "I M M M"
_symmetry_group_IT_number 71
_symmetry_cell_setting 'orthorhombic'
loop_
_space_group_symop_operation_xyz
x,y,z
-x,-y,z
x,-y,-z
-x,y,-z
-x,-y,-z
x,y,-z
-x,y,z
x,-y,z
1/2+x,1/2+y,1/2+z
1/2-x,1/2-y,1/2+z
1/2+x,1/2-y,1/2-z
1/2-x,1/2+y,1/2-z
1/2-x,1/2-y,1/2-z
1/2+x,1/2+y,1/2-z
1/2-x,1/2+y,1/2+z
1/2+x,1/2-y,1/2+z
loop_
_atom_site_type_symbol
_atom_site_label
_atom_site_fract_x
_atom_site_fract_y
_atom_site_fract_z
Si Si1 0.354933 0.437129 0.385473
Si Si2 0.734565 0.120441 0.889912
Si Si3 0.431299 0.934728 0.608024
Si Si4 0.241515 0.755005 0.610613
Si Si5 0.851888 0.255921 0.764301
Si Si6 0.000000 0.434260 0.614866
Si Si7 0.429167 0.330570 0.612135
Si Si8 0.613219 0.876465 0.785665
O O1 0.349588 0.441229 0.500000
O O2 0.367897 0.500000 0.341528
O O3 0.291688 0.412751 0.344678
O O4 0.409079 0.394290 0.357944
O O5 0.748447 0.187114 0.883640
O O6 0.675752 0.102440 0.830899
O O7 0.722941 0.101919 0.000000
O O8 0.425401 0.909793 0.500000
O O9 0.500000 0.928133 0.645479
O O10 0.387631 0.899402 0.676421
O O11 0.411606 0.000000 0.609540
O O12 0.234233 0.776486 0.500000
O O13 0.183369 0.774365 0.674203
O O14 0.302363 0.780214 0.658915
O O15 0.897375 0.213546 0.816631
O O16 0.890437 0.308012 0.719850
O O17 0.058932 0.401518 0.651598
O O18 0.000000 0.500000 0.651826
O O19 0.000000 0.432167 0.500000
O O20 0.411008 0.317728 0.500000
O O21 0.500000 0.325232 0.627470
#
# Coordination Sequence:
#
# PCOD8289777 Si02
#       8
#    16  16  16  16  16   8  16  16
#     4   9  17  30  49  73 101 134 169 203 249 311
#     4   9  17  31  50  73 101 131 164 208 259 313
#     4   9  18  33  49  62  85 126 171 214 256 293
#     4   9  17  33  54  74 101 137 169 204 259 312
#     4  10  20  31  52  78 104 134 171 209 258 311
#     4  11  24  40  55  73 105 147 183 216 256 304
#     4  10  20  33  51  74 107 142 170 213 262 309
#     4  11  21  32  51  76 100 131 178 219 259 301
#
# _framework density 16.714189000000001
#
# number of rings (size 3 to 8) (size 9 to 14) (size 15 to 20)
#    0.000    2.333    2.000    1.600    0.933    2.933 
#    0.000    4.000    0.000    0.000    0.000    0.000 
#    0.000    0.533    0.000    1.200    0.000    0.133 
#
# Total GULP energy -743822.665557 kJ/mol
# GULP energy per Si atom -12397.044426 kJ/mol
# Density = 1.667615 g / cm^3
# Si number density = 16.714189 Si / 1000 Ang^3
#
#
#
# Elastic Constant Matrix: (Units=GPa)
#
#
# Indices 1 2 3 4 5 6 
#
# 1 93.3317 47.3919 40.9851 0.0000 0.0000 0.0000
# 2 47.3919 78.0878 26.1553 0.0000 0.0000 0.0000
# 3 40.9851 26.1553 81.2230 0.0000 0.0000 0.0000
# 4 0.0000 0.0000 0.0000 20.5838 0.0000 0.0000
# 5 0.0000 0.0000 0.0000 0.0000 26.1897 0.0000
# 6 0.0000 0.0000 0.0000 0.0000 0.0000 24.9537
#
#
#
# Elastic Compliance Matrix: (Units=1/GPa)
#
#
# Indices 1 2 3 4 5 6 
#
# 1 0.017900 -0.008786 -0.006203 0.000000 0.000000 0.000000
# 2 -0.008786 0.018667 -0.001578 0.000000 0.000000 0.000000
# 3 -0.006203 -0.001578 0.015950 0.000000 0.000000 0.000000
# 4 0.000000 0.000000 0.000000 0.048582 0.000000 0.000000
# 5 0.000000 0.000000 0.000000 0.000000 0.038183 0.000000
# 6 0.000000 0.000000 0.000000 0.000000 0.000000 0.040074
#
#
# Mechanical properties :
#
#
# Convention : Reuss Voigt Hill
#
# Bulk Modulus (GPa) = 51.59085 53.52299 52.55692
# Shear Modulus (GPa) = 22.83635 23.55278 23.19457
#
# Velocity S-wave (km/s) = 3.70034 3.75794 3.72925
# Velocity P-wave (km/s) = 7.01357 7.13593 7.07501
#
# Compressibility (1/GPa) = 0.01938328
#
# Stress axis : x y z
#
# Youngs Moduli (GPa) = 55.86723 53.57151 62.69643
#
# Poissons Ratio (x) = 0.47066 0.38890
# Poissons Ratio (y) = 0.49083 0.09892
# Poissons Ratio (z) = 0.34654 0.08452
#
# Static dielectric constant tensor:
#      x y z
#    x 3.133170 0.000000 0.000000 
#    y 0.000000 3.118190 0.000000 
#    z 0.000000 0.000000 3.193950 
# 
# 
# High freq. dielectric constant tensor:
#      x y z
#    x 1.642270 0.000000 0.000000 
#    y 0.000000 1.628320 0.000000 
#    z 0.000000 0.000000 1.632320 
# 
# From -- ./inp_files/39678.got.cif
#   From: 2010.06.25/outbox.cif.g09.slc.cpg/sg71_20_cif.got.tgz:39678.got - 2010.06.28 04:59:45.
