data_PCOD8289621
_publ_section_title
;
Structure prediction by ZEFSAII (Michael W. Deem and Ramdas Pophale) SiO2 
 PCOD8289621
Probable space group: I M M M
;
_chemical_formula_sum "Si O2"
_cell_formula_units_Z 88
_cell_length_a 17.419384
_cell_length_b 7.852316
_cell_length_c 31.024330
_cell_angle_alpha 90.000000
_cell_angle_beta 90.000000
_cell_angle_gamma 90.000000
_cell_volume 4243.585657
_symmetry_space_group_name_H-M "I M M M"
_symmetry_group_IT_number 71
_symmetry_cell_setting 'orthorhombic'
loop_
_space_group_symop_operation_xyz
x,y,z
-x,-y,z
x,-y,-z
-x,y,-z
-x,-y,-z
x,y,-z
-x,y,z
x,-y,z
1/2+x,1/2+y,1/2+z
1/2-x,1/2-y,1/2+z
1/2+x,1/2-y,1/2-z
1/2-x,1/2+y,1/2-z
1/2-x,1/2-y,1/2-z
1/2+x,1/2+y,1/2-z
1/2-x,1/2+y,1/2+z
1/2+x,1/2-y,1/2+z
loop_
_atom_site_type_symbol
_atom_site_label
_atom_site_fract_x
_atom_site_fract_y
_atom_site_fract_z
Si Si1 0.300954 0.192575 0.183490
Si Si2 0.910642 0.500000 0.449060
Si Si3 0.183405 0.189804 0.590571
Si Si4 0.838407 0.799530 0.049487
Si Si5 0.000000 0.200774 0.083987
Si Si6 0.000000 0.799104 0.817009
Si Si7 0.346139 0.804901 0.275633
O O1 0.323654 0.303772 0.142272
O O2 0.344426 0.262567 0.226158
O O3 0.210047 0.198719 0.193445
O O4 0.324608 0.000000 0.172324
O O5 0.899940 0.500000 0.500000
O O6 0.870833 0.329599 0.431365
O O7 0.000000 0.500000 0.435603
O O8 0.272443 0.214948 0.578138
O O9 0.157374 0.000000 0.576055
O O10 0.922371 0.725431 0.062255
O O11 0.835511 0.000000 0.058166
O O12 0.822151 0.754710 0.000000
O O13 0.000000 0.254535 0.133477
O O14 0.000000 0.000000 0.077255
O O15 0.070218 0.712511 0.793783
O O16 0.000000 0.000000 0.810693
O O17 0.318428 0.000000 0.275546
#
# Coordination Sequence:
#
# PCOD8289621 Si02
#       7
#    16   8  16  16   8   8  16
#     4  10  20  39  62  87 123 163 207 258 317 374
#     4  11  26  50  74  97 129 165 205 268 342 404
#     4  12  24  41  69 100 129 168 216 267 321 395
#     4  10  19  35  60  90 127 170 217 268 316 370
#     4   9  19  33  54  86 126 177 223 260 309 365
#     4  11  21  34  53  80 120 168 211 254 308 370
#     4  10  21  36  58  86 120 163 211 263 310 369
#
# _framework density 20.737179999999999
#
# number of rings (size 3 to 8) (size 9 to 14) (size 15 to 20)
#    0.000    1.545    1.818    3.273    0.000    6.545 
#    1.636    2.273    0.000    1.091    0.000    0.000 
#    0.000    0.000    0.000    0.000    0.000    0.000 
#
# Total GULP energy -545641.802346 kJ/mol
# GULP energy per Si atom -12400.950053 kJ/mol
# Density = 2.068998 g / cm^3
# Si number density = 20.737180 Si / 1000 Ang^3
#
#
#
# Elastic Constant Matrix: (Units=GPa)
#
#
# Indices 1 2 3 4 5 6 
#
# 1 95.2027 38.9482 31.1956 0.0000 0.0000 0.0000
# 2 38.9482 98.1918 42.6676 0.0000 0.0000 0.0000
# 3 31.1956 42.6676 104.7054 0.0000 0.0000 0.0000
# 4 0.0000 0.0000 0.0000 19.7861 0.0000 0.0000
# 5 0.0000 0.0000 0.0000 0.0000 24.7211 0.0000
# 6 0.0000 0.0000 0.0000 0.0000 0.0000 4.1694
#
#
#
# Elastic Compliance Matrix: (Units=1/GPa)
#
#
# Indices 1 2 3 4 5 6 
#
# 1 0.012922 -0.004195 -0.002140 0.000000 0.000000 0.000000
# 2 -0.004195 0.013738 -0.004348 0.000000 0.000000 0.000000
# 3 -0.002140 -0.004348 0.011960 0.000000 0.000000 0.000000
# 4 0.000000 0.000000 0.000000 0.050540 0.000000 0.000000
# 5 0.000000 0.000000 0.000000 0.000000 0.040451 0.000000
# 6 0.000000 0.000000 0.000000 0.000000 0.000000 0.239843
#
#
# Mechanical properties :
#
#
# Convention : Reuss Voigt Hill
#
# Bulk Modulus (GPa) = 57.96470 58.19143 58.07806
# Shear Modulus (GPa) = 12.60803 22.08788 17.34796
#
# Velocity S-wave (km/s) = 2.46842 3.26718 2.89548
# Velocity P-wave (km/s) = 6.01140 6.50807 6.26466
#
# Compressibility (1/GPa) = 0.01725188
#
# Stress axis : x y z
#
# Youngs Moduli (GPa) = 77.38999 72.79239 83.61118
#
# Poissons Ratio (x) = 0.30539 0.17894
# Poissons Ratio (y) = 0.32468 0.36355
# Poissons Ratio (z) = 0.16563 0.31651
#
# Static dielectric constant tensor:
#      x y z
#    x 3.709080 0.000000 0.000000 
#    y 0.000000 3.669580 0.000000 
#    z 0.000000 0.000000 3.855260 
# 
# 
# High freq. dielectric constant tensor:
#      x y z
#    x 1.800420 0.000000 0.000000 
#    y 0.000000 1.804870 0.000000 
#    z 0.000000 0.000000 1.824280 
# 
# From -- ./inp_files/70394.got.cif
#   From: 2010.06.25/outbox.cif.g09.slc.cpg/sg71_36_cif.got.tgz:70394.got - 2010.06.28 04:59:45.
