data_PCOD8289244
_publ_section_title
;
Structure prediction by ZEFSAII (Michael W. Deem and Ramdas Pophale) SiO2 
 PCOD8289244
Probable space group: I M M M
;
_chemical_formula_sum "Si O2"
_cell_formula_units_Z 104
_cell_length_a 20.372567
_cell_length_b 12.573186
_cell_length_c 22.897985
_cell_angle_alpha 90.000000
_cell_angle_beta 90.000000
_cell_angle_gamma 90.000000
_cell_volume 5865.274761
_symmetry_space_group_name_H-M "I M M M"
_symmetry_group_IT_number 71
_symmetry_cell_setting 'orthorhombic'
loop_
_space_group_symop_operation_xyz
x,y,z
-x,-y,z
x,-y,-z
-x,y,-z
-x,-y,-z
x,y,-z
-x,y,z
x,-y,z
1/2+x,1/2+y,1/2+z
1/2-x,1/2-y,1/2+z
1/2+x,1/2-y,1/2-z
1/2-x,1/2+y,1/2-z
1/2-x,1/2-y,1/2-z
1/2+x,1/2+y,1/2-z
1/2-x,1/2+y,1/2+z
1/2+x,1/2-y,1/2+z
loop_
_atom_site_type_symbol
_atom_site_label
_atom_site_fract_x
_atom_site_fract_y
_atom_site_fract_z
Si Si1 0.677702 0.122472 0.092089
Si Si2 0.423252 0.615293 0.739224
Si Si3 0.573568 0.873907 0.000000
Si Si4 0.806688 0.256263 0.065335
Si Si5 0.424525 0.623230 0.393146
Si Si6 0.279389 0.876114 0.320528
Si Si7 0.837481 0.719345 0.711861
O O1 0.744259 0.181028 0.075013
O O2 0.658072 0.136689 0.159325
O O3 0.690601 0.000000 0.078126
O O4 0.615092 0.165546 0.055938
O O5 0.500000 0.607580 0.739489
O O6 0.394191 0.500000 0.758533
O O7 0.399725 0.639323 0.673276
O O8 0.402128 0.708281 0.782921
O O9 0.500000 0.823195 0.000000
O O10 0.566550 0.000000 0.000000
O O11 0.874699 0.190859 0.067640
O O12 0.805578 0.347992 0.114594
O O13 0.802441 0.306115 0.000000
O O14 0.500000 0.662611 0.401759
O O15 0.419794 0.500000 0.411230
O O16 0.218850 0.804743 0.300587
O O17 0.333058 0.849677 0.271055
O O18 0.260751 0.000000 0.319594
#
# Coordination Sequence:
#
# PCOD8289244 Si02
#       7
#    16  16   8  16  16  16  16
#     4  10  20  33  52  80 108 136 174 216 262 311
#     4   9  17  31  52  77 106 137 168 207 259 317
#     4   9  18  34  52  72 106 144 172 205 250 304
#     4  11  21  34  54  76 102 139 180 216 260 314
#     4   9  18  32  51  77 107 137 170 215 269 315
#     4  10  21  35  51  76 107 135 169 219 265 304
#     4  10  19  33  54  79 103 134 171 213 260 316
#
# _framework density 17.731480000000001
#
# number of rings (size 3 to 8) (size 9 to 14) (size 15 to 20)
#    0.000    2.231    2.308    2.308    0.000    2.154 
#    0.000    0.769    0.000    2.769    0.000    1.077 
#    0.000    4.923    0.000    0.000    0.000    0.000 
#
# Total GULP energy -644446.906182 kJ/mol
# GULP energy per Si atom -12393.209734 kJ/mol
# Density = 1.769112 g / cm^3
# Si number density = 17.731480 Si / 1000 Ang^3
#
#
#
# Elastic Constant Matrix: (Units=GPa)
#
#
# Indices 1 2 3 4 5 6 
#
# 1 67.1289 17.0138 27.9824 0.0000 0.0000 0.0000
# 2 17.0138 55.0032 34.9340 0.0000 0.0000 0.0000
# 3 27.9824 34.9340 123.3121 0.0000 0.0000 0.0000
# 4 0.0000 0.0000 0.0000 17.1916 0.0000 0.0000
# 5 0.0000 0.0000 0.0000 0.0000 25.0080 0.0000
# 6 0.0000 0.0000 0.0000 0.0000 0.0000 22.2940
#
#
#
# Elastic Compliance Matrix: (Units=1/GPa)
#
#
# Indices 1 2 3 4 5 6 
#
# 1 0.016964 -0.003417 -0.002881 0.000000 0.000000 0.000000
# 2 -0.003417 0.022858 -0.005700 0.000000 0.000000 0.000000
# 3 -0.002881 -0.005700 0.010378 0.000000 0.000000 0.000000
# 4 0.000000 0.000000 0.000000 0.058168 0.000000 0.000000
# 5 0.000000 0.000000 0.000000 0.000000 0.039987 0.000000
# 6 0.000000 0.000000 0.000000 0.000000 0.000000 0.044855
#
#
# Mechanical properties :
#
#
# Convention : Reuss Voigt Hill
#
# Bulk Modulus (GPa) = 38.16426 45.03384 41.59905
# Shear Modulus (GPa) = 22.12953 23.93299 23.03126
#
# Velocity S-wave (km/s) = 3.53659 3.67787 3.60792
# Velocity P-wave (km/s) = 6.18440 6.59458 6.39278
#
# Compressibility (1/GPa) = 0.02620253
#
# Stress axis : x y z
#
# Youngs Moduli (GPa) = 58.94867 43.74805 96.35568
#
# Poissons Ratio (x) = 0.14950 0.27764
# Poissons Ratio (y) = 0.20144 0.54925
# Poissons Ratio (z) = 0.16985 0.24937
#
# Static dielectric constant tensor:
#      x y z
#    x 3.248090 0.000000 0.000000 
#    y 0.000000 3.255660 0.000000 
#    z 0.000000 0.000000 3.639570 
# 
# 
# High freq. dielectric constant tensor:
#      x y z
#    x 1.680580 0.000000 0.000000 
#    y 0.000000 1.660160 0.000000 
#    z 0.000000 0.000000 1.688920 
# 
# From -- ./inp_files/61319.got.cif
#   From: 2010.06.25/outbox.cif.g09.slc.cpg/sg71_31_cif.got.tgz:61319.got - 2010.06.28 04:59:45.
