data_PCOD8289852
_publ_section_title
;
Structure prediction by ZEFSAII (Michael W. Deem and Ramdas Pophale) SiO2 
 PCOD8289852
Probable space group: I M M M
;
_chemical_formula_sum "Si O2"
_cell_formula_units_Z 104
_cell_length_a 27.182945
_cell_length_b 24.643052
_cell_length_c 9.267998
_cell_angle_alpha 90.000000
_cell_angle_beta 90.000000
_cell_angle_gamma 90.000000
_cell_volume 6208.360559
_symmetry_space_group_name_H-M "I M M M"
_symmetry_group_IT_number 71
_symmetry_cell_setting 'orthorhombic'
loop_
_space_group_symop_operation_xyz
x,y,z
-x,-y,z
x,-y,-z
-x,y,-z
-x,-y,-z
x,y,-z
-x,y,z
x,-y,z
1/2+x,1/2+y,1/2+z
1/2-x,1/2-y,1/2+z
1/2+x,1/2-y,1/2-z
1/2-x,1/2+y,1/2-z
1/2-x,1/2-y,1/2-z
1/2+x,1/2+y,1/2-z
1/2-x,1/2+y,1/2+z
1/2+x,1/2-y,1/2+z
loop_
_atom_site_type_symbol
_atom_site_label
_atom_site_fract_x
_atom_site_fract_y
_atom_site_fract_z
Si Si1 0.787675 0.500000 0.157516
Si Si2 0.302819 0.303840 0.166526
Si Si3 0.189536 0.306485 0.168711
Si Si4 0.360858 0.393621 0.670652
Si Si5 0.444005 0.562092 0.162306
Si Si6 0.442676 0.000000 0.326845
Si Si7 0.806888 0.000000 0.830315
Si Si8 0.631877 0.089341 0.337229
O O1 0.749363 0.500000 0.285263
O O2 0.820141 0.553036 0.172639
O O3 0.761646 0.500000 0.000000
O O4 0.246621 0.324145 0.184340
O O5 0.315643 0.244816 0.228402
O O6 0.336516 0.342031 0.260125
O O7 0.318536 0.304608 0.000000
O O8 0.150518 0.352593 0.227499
O O9 0.179032 0.292828 0.000000
O O10 0.359567 0.387821 0.500000
O O11 0.416470 0.398469 0.726544
O O12 0.333068 0.446719 0.730749
O O13 0.500000 0.580830 0.166390
O O14 0.438755 0.500000 0.213893
O O15 0.423140 0.568639 0.000000
O O16 0.414430 0.944972 0.267459
O O17 0.500000 0.000000 0.276598
O O18 0.438166 0.000000 0.500000
O O19 0.809685 0.000000 0.000000
O O20 0.616111 0.101243 0.500000
#
# Coordination Sequence:
#
# PCOD8289852 Si02
#       8
#     8  16  16  16  16   8   8  16
#     4   9  16  27  44  66  92 125 156 185 224 279
#     4  10  20  32  48  69  92 122 165 207 243 287
#     4   9  17  31  48  67  93 128 164 200 242 288
#     4  11  21  33  47  68  97 127 157 194 242 290
#     4   9  18  33  52  72  93 119 154 194 234 279
#     4   8  13  22  40  70 103 128 151 188 236 282
#     4  10  21  31  40  63  98 126 150 187 234 282
#     4   8  14  25  43  66  93 124 158 190 229 284
#
# _framework density 16.751604
#
# number of rings (size 3 to 8) (size 9 to 14) (size 15 to 20)
#    0.000    2.692    0.769    3.231    0.000    3.385 
#    0.000    1.538    0.000    0.923    0.000    2.154 
#    0.000   10.462    0.000    0.000    0.000    0.000 
#
# Total GULP energy -644217.489078 kJ/mol
# GULP energy per Si atom -12388.797867 kJ/mol
# Density = 1.671348 g / cm^3
# Si number density = 16.751604 Si / 1000 Ang^3
#
#
#
# Elastic Constant Matrix: (Units=GPa)
#
#
# Indices 1 2 3 4 5 6 
#
# 1 90.4323 48.4913 34.5663 0.0000 0.0000 0.0000
# 2 48.4913 84.3861 35.7857 0.0000 0.0000 0.0000
# 3 34.5663 35.7857 59.9895 0.0000 0.0000 0.0000
# 4 0.0000 0.0000 0.0000 12.4546 0.0000 0.0000
# 5 0.0000 0.0000 0.0000 0.0000 19.3901 0.0000
# 6 0.0000 0.0000 0.0000 0.0000 0.0000 23.6770
#
#
#
# Elastic Compliance Matrix: (Units=1/GPa)
#
#
# Indices 1 2 3 4 5 6 
#
# 1 0.017184 -0.007598 -0.005369 0.000000 0.000000 0.000000
# 2 -0.007598 0.019222 -0.007089 0.000000 0.000000 0.000000
# 3 -0.005369 -0.007089 0.023992 0.000000 0.000000 0.000000
# 4 0.000000 0.000000 0.000000 0.080291 0.000000 0.000000
# 5 0.000000 0.000000 0.000000 0.000000 0.051573 0.000000
# 6 0.000000 0.000000 0.000000 0.000000 0.000000 0.042235
#
#
# Mechanical properties :
#
#
# Convention : Reuss Voigt Hill
#
# Bulk Modulus (GPa) = 49.29304 52.49938 50.89621
# Shear Modulus (GPa) = 17.77001 18.83532 18.30267
#
# Velocity S-wave (km/s) = 3.26052 3.35683 3.30902
# Velocity P-wave (km/s) = 6.60790 6.81413 6.71181
#
# Compressibility (1/GPa) = 0.02028684
#
# Stress axis : x y z
#
# Youngs Moduli (GPa) = 58.19229 52.02243 41.68008
#
# Poissons Ratio (x) = 0.39525 0.22380
# Poissons Ratio (y) = 0.44213 0.29547
# Poissons Ratio (z) = 0.31246 0.36879
#
# Static dielectric constant tensor:
#      x y z
#    x 3.111750 0.000000 0.000000 
#    y 0.000000 3.150900 0.000000 
#    z 0.000000 0.000000 2.959270 
# 
# 
# High freq. dielectric constant tensor:
#      x y z
#    x 1.631510 0.000000 0.000000 
#    y 0.000000 1.640920 0.000000 
#    z 0.000000 0.000000 1.624070 
# 
# From -- ./inp_files/15349.got.cif
#   From: 2010.06.25/outbox.cif.g09.slc.cpg/sg71_8_cif.got.tgz:15349.got - 2010.06.28 04:59:45.
