data_PCOD8289480
_publ_section_title
;
Structure prediction by ZEFSAII (Michael W. Deem and Ramdas Pophale) SiO2 
 PCOD8289480
Probable space group: I M M M
;
_chemical_formula_sum "Si O2"
_cell_formula_units_Z 88
_cell_length_a 8.907354
_cell_length_b 25.547582
_cell_length_c 20.574333
_cell_angle_alpha 90.000000
_cell_angle_beta 90.000000
_cell_angle_gamma 90.000000
_cell_volume 4681.923131
_symmetry_space_group_name_H-M "I M M M"
_symmetry_group_IT_number 71
_symmetry_cell_setting 'orthorhombic'
loop_
_space_group_symop_operation_xyz
x,y,z
-x,-y,z
x,-y,-z
-x,y,-z
-x,-y,-z
x,y,-z
-x,y,z
x,-y,z
1/2+x,1/2+y,1/2+z
1/2-x,1/2-y,1/2+z
1/2+x,1/2-y,1/2-z
1/2-x,1/2+y,1/2-z
1/2-x,1/2-y,1/2-z
1/2+x,1/2+y,1/2-z
1/2-x,1/2+y,1/2+z
1/2+x,1/2-y,1/2+z
loop_
_atom_site_type_symbol
_atom_site_label
_atom_site_fract_x
_atom_site_fract_y
_atom_site_fract_z
Si Si1 0.827614 0.698118 0.314222
Si Si2 0.821726 0.607621 0.926808
Si Si3 0.677401 0.198526 0.332832
Si Si4 0.177689 0.500000 0.140050
Si Si5 0.321800 0.500000 0.280177
Si Si6 0.833576 0.938891 0.000000
Si Si7 0.826046 0.585446 0.632108
O O1 0.738092 0.744014 0.351515
O O2 0.768693 0.687472 0.240938
O O3 0.801940 0.646106 0.354417
O O4 0.000000 0.715315 0.311516
O O5 0.756097 0.653808 0.880699
O O6 0.771607 0.551098 0.900027
O O7 0.000000 0.610419 0.927592
O O8 0.758427 0.614809 0.000000
O O9 0.500000 0.198219 0.339034
O O10 0.265065 0.500000 0.207160
O O11 0.000000 0.500000 0.154062
O O12 0.500000 0.500000 0.282613
O O13 0.262875 0.551785 0.315378
O O14 0.737828 0.922592 0.938670
O O15 0.000000 0.912651 0.000000
O O16 0.856619 0.000000 0.000000
O O17 0.000000 0.569029 0.635090
#
# Coordination Sequence:
#
# PCOD8289480 Si02
#       7
#    16  16  16   8   8   8  16
#     4   9  19  35  55  80 107 139 183 230 271 320
#     4   9  17  31  54  83 112 141 182 230 274 324
#     4   9  17  32  54  79 110 144 179 224 277 327
#     4  10  19  34  57  83 110 145 184 223 269 327
#     4  12  24  36  54  83 116 143 177 229 278 326
#     4  11  23  39  57  81 116 148 180 225 276 331
#     4  11  22  38  60  82 108 146 188 228 271 327
#
# _framework density 18.795696
#
# number of rings (size 3 to 8) (size 9 to 14) (size 15 to 20)
#    0.000    2.091    0.909    3.000    0.000    5.818 
#    1.636    4.545    0.000    2.182    0.000    0.000 
#    0.000    0.000    0.000    0.000    0.000    0.000 
#
# Total GULP energy -545594.186583 kJ/mol
# GULP energy per Si atom -12399.867877 kJ/mol
# Density = 1.875292 g / cm^3
# Si number density = 18.795696 Si / 1000 Ang^3
#
#
#
# Elastic Constant Matrix: (Units=GPa)
#
#
# Indices 1 2 3 4 5 6 
#
# 1 66.5037 44.1923 41.8957 0.0000 0.0000 0.0000
# 2 44.1923 139.5611 79.8655 0.0000 0.0000 0.0000
# 3 41.8957 79.8655 141.3631 0.0001 0.0000 0.0000
# 4 0.0000 0.0000 0.0001 29.1975 0.0000 0.0000
# 5 0.0000 0.0000 0.0000 0.0000 17.8801 0.0000
# 6 0.0000 0.0000 0.0000 0.0000 0.0000 28.4013
#
#
#
# Elastic Compliance Matrix: (Units=1/GPa)
#
#
# Indices 1 2 3 4 5 6 
#
# 1 0.020150 -0.004379 -0.003498 0.000000 0.000000 0.000000
# 2 -0.004379 0.011540 -0.005222 0.000000 0.000000 0.000000
# 3 -0.003498 -0.005222 0.011061 0.000000 0.000000 0.000000
# 4 0.000000 0.000000 0.000000 0.034250 0.000000 0.000000
# 5 0.000000 0.000000 0.000000 0.000000 0.055928 0.000000
# 6 0.000000 0.000000 0.000000 0.000000 0.000000 0.035210
#
#
# Mechanical properties :
#
#
# Convention : Reuss Voigt Hill
#
# Bulk Modulus (GPa) = 60.40991 75.48165 67.94578
# Shear Modulus (GPa) = 25.01816 27.19405 26.10611
#
# Velocity S-wave (km/s) = 3.65232 3.80784 3.73089
# Velocity P-wave (km/s) = 7.07079 7.71875 7.40186
#
# Compressibility (1/GPa) = 0.01655358
#
# Stress axis : x y z
#
# Youngs Moduli (GPa) = 49.62734 86.65266 90.40748
#
# Poissons Ratio (x) = 0.37944 0.31625
# Poissons Ratio (y) = 0.21731 0.47212
# Poissons Ratio (z) = 0.17360 0.45251
#
# Static dielectric constant tensor:
#      x y z
#    x 3.302640 0.000000 0.000000 
#    y 0.000000 3.632830 0.000000 
#    z 0.000000 0.000000 3.148240 
# 
# 
# High freq. dielectric constant tensor:
#      x y z
#    x 1.709430 0.000000 0.000000 
#    y 0.000000 1.739850 0.000000 
#    z 0.000000 0.000000 1.732550 
# 
# From -- ./inp_files/12651.got.cif
#   From: 2010.06.25/outbox.cif.g09.slc.cpg/sg71_7_cif.got.tgz:12651.got - 2010.06.28 04:59:45.
