data_PCOD8289437
_publ_section_title
;
Structure prediction by ZEFSAII (Michael W. Deem and Ramdas Pophale) SiO2 
 PCOD8289437
Probable space group: I M M M
;
_chemical_formula_sum "Si O2"
_cell_formula_units_Z 88
_cell_length_a 28.806216
_cell_length_b 17.059971
_cell_length_c 9.921345
_cell_angle_alpha 90.000000
_cell_angle_beta 90.000000
_cell_angle_gamma 90.000000
_cell_volume 4875.678417
_symmetry_space_group_name_H-M "I M M M"
_symmetry_group_IT_number 71
_symmetry_cell_setting 'orthorhombic'
loop_
_space_group_symop_operation_xyz
x,y,z
-x,-y,z
x,-y,-z
-x,y,-z
-x,-y,-z
x,y,-z
-x,y,z
x,-y,z
1/2+x,1/2+y,1/2+z
1/2-x,1/2-y,1/2+z
1/2+x,1/2-y,1/2-z
1/2-x,1/2+y,1/2-z
1/2-x,1/2-y,1/2-z
1/2+x,1/2+y,1/2-z
1/2-x,1/2+y,1/2+z
1/2+x,1/2-y,1/2+z
loop_
_atom_site_type_symbol
_atom_site_label
_atom_site_fract_x
_atom_site_fract_y
_atom_site_fract_z
Si Si1 0.500000 0.911164 0.659436
Si Si2 0.829540 0.000000 0.846066
Si Si3 0.309811 0.812759 0.653374
Si Si4 0.915672 0.000000 0.653983
Si Si5 0.232875 0.853510 0.846566
Si Si6 0.552719 0.670154 0.151226
Si Si7 0.084335 0.699305 0.156773
O O1 0.500000 0.917163 0.500000
O O2 0.453468 0.864957 0.706751
O O3 0.500000 0.000000 0.720143
O O4 0.799606 0.924987 0.811545
O O5 0.872447 0.000000 0.749729
O O6 0.846841 0.000000 0.000000
O O7 0.296673 0.833993 0.500000
O O8 0.278185 0.863222 0.753372
O O9 0.298503 0.722189 0.684261
O O10 0.363765 0.833259 0.679684
O O11 0.945414 0.077737 0.685007
O O12 0.898439 0.000000 0.500000
O O13 0.250562 0.854564 0.000000
O O14 0.500000 0.697969 0.161646
O O15 0.581331 0.720645 0.258582
O O16 0.571987 0.686022 0.000000
O O17 0.076123 0.720522 0.000000
#
# Coordination Sequence:
#
# PCOD8289437 Si02
#       7
#     8   8  16   8  16  16  16
#     4   9  18  34  55  78 105 134 166 213 269 317
#     4  10  20  35  53  75 104 137 171 214 261 306
#     4   9  18  32  51  76 101 129 167 210 250 299
#     4  10  21  34  50  76 108 144 179 213 254 305
#     4   9  18  33  51  71 101 135 166 203 253 304
#     4  10  20  34  52  75 107 143 178 214 256 307
#     4  10  19  34  56  80 104 134 175 219 264 314
#
# _framework density 18.048770000000001
#
# number of rings (size 3 to 8) (size 9 to 14) (size 15 to 20)
#    0.000    2.455    0.909    1.364    0.000    4.727 
#    1.636    3.636    0.000    2.727    0.000    0.000 
#    0.000    0.000    0.000    0.000    0.000    0.000 
#
# Total GULP energy -545522.590577 kJ/mol
# GULP energy per Si atom -12398.240695 kJ/mol
# Density = 1.800769 g / cm^3
# Si number density = 18.048770 Si / 1000 Ang^3
#
#
#
# Elastic Constant Matrix: (Units=GPa)
#
#
# Indices 1 2 3 4 5 6 
#
# 1 109.1745 21.6557 47.6528 0.0000 0.0000 0.0000
# 2 21.6557 62.7977 30.4852 0.0000 0.0000 0.0000
# 3 47.6528 30.4852 67.1242 0.0000 0.0000 0.0000
# 4 0.0000 0.0000 0.0000 25.3391 0.0000 0.0000
# 5 0.0000 0.0000 0.0000 0.0000 31.2375 0.0000
# 6 0.0000 0.0000 0.0000 0.0000 0.0000 36.5983
#
#
#
# Elastic Compliance Matrix: (Units=1/GPa)
#
#
# Indices 1 2 3 4 5 6 
#
# 1 0.013272 -0.000004 -0.009421 0.000000 0.000000 0.000000
# 2 -0.000004 0.020428 -0.009275 0.000000 0.000000 0.000000
# 3 -0.009421 -0.009275 0.025798 0.000000 0.000000 0.000000
# 4 0.000000 0.000000 0.000000 0.039465 0.000000 0.000000
# 5 0.000000 0.000000 0.000000 0.000000 0.032013 0.000000
# 6 0.000000 0.000000 0.000000 0.000000 0.000000 0.027324
#
#
# Mechanical properties :
#
#
# Convention : Reuss Voigt Hill
#
# Bulk Modulus (GPa) = 45.24946 48.74265 46.99605
# Shear Modulus (GPa) = 24.62273 27.92183 26.27228
#
# Velocity S-wave (km/s) = 3.69756 3.93749 3.81941
# Velocity P-wave (km/s) = 6.58440 6.90916 6.74873
#
# Compressibility (1/GPa) = 0.02209971
#
# Stress axis : x y z
#
# Youngs Moduli (GPa) = 75.34491 48.95253 38.76283
#
# Poissons Ratio (x) = 0.00018 0.36517
# Poissons Ratio (y) = 0.00028 0.35952
# Poissons Ratio (z) = 0.70979 0.45403
#
# Static dielectric constant tensor:
#      x y z
#    x 3.470980 0.000000 0.000000 
#    y 0.000000 3.285440 0.000000 
#    z 0.000000 0.000000 3.328060 
# 
# 
# High freq. dielectric constant tensor:
#      x y z
#    x 1.699800 0.000000 0.000000 
#    y 0.000000 1.689430 0.000000 
#    z 0.000000 0.000000 1.691050 
# 
# From -- ./inp_files/8934.got.cif
#   From: 2010.06.25/outbox.cif.g09.slc.cpg/sg71_5_cif.got.tgz:8934.got - 2010.06.28 04:59:45.
