data_PCOD8289555
_publ_section_title
;
Structure prediction by ZEFSAII (Michael W. Deem and Ramdas Pophale) SiO2 
 PCOD8289555
Probable space group: I M M M
;
_chemical_formula_sum "Si O2"
_cell_formula_units_Z 104
_cell_length_a 17.041798
_cell_length_b 19.675471
_cell_length_c 15.983216
_cell_angle_alpha 90.000000
_cell_angle_beta 90.000000
_cell_angle_gamma 90.000000
_cell_volume 5359.258672
_symmetry_space_group_name_H-M "I M M M"
_symmetry_group_IT_number 71
_symmetry_cell_setting 'orthorhombic'
loop_
_space_group_symop_operation_xyz
x,y,z
-x,-y,z
x,-y,-z
-x,y,-z
-x,-y,-z
x,y,-z
-x,y,z
x,-y,z
1/2+x,1/2+y,1/2+z
1/2-x,1/2-y,1/2+z
1/2+x,1/2-y,1/2-z
1/2-x,1/2+y,1/2-z
1/2-x,1/2-y,1/2-z
1/2+x,1/2+y,1/2-z
1/2-x,1/2+y,1/2+z
1/2+x,1/2-y,1/2+z
loop_
_atom_site_type_symbol
_atom_site_label
_atom_site_fract_x
_atom_site_fract_y
_atom_site_fract_z
Si Si1 0.908018 0.786442 0.907953
Si Si2 0.500000 0.920347 0.590156
Si Si3 0.353105 0.077102 0.300558
Si Si4 0.323136 0.424537 0.844460
Si Si5 0.406457 0.792181 0.756809
Si Si6 0.410143 0.424065 0.673550
Si Si7 0.589935 0.698154 0.907515
O O1 0.874702 0.742976 0.829419
O O2 0.890500 0.866915 0.895008
O O3 0.000000 0.773171 0.909767
O O4 0.872450 0.766677 0.000000
O O5 0.500000 0.883709 0.500000
O O6 0.420950 0.898099 0.636006
O O7 0.500000 0.000000 0.578702
O O8 0.270649 0.082207 0.346813
O O9 0.363069 0.134686 0.229194
O O10 0.367411 0.000000 0.266423
O O11 0.347547 0.500000 0.874105
O O12 0.353407 0.410839 0.751223
O O13 0.360244 0.371009 0.907664
O O14 0.500000 0.800762 0.757219
O O15 0.378159 0.748776 0.836567
O O16 0.500000 0.415943 0.704763
O O17 0.396358 0.500000 0.636093
O O18 0.500000 0.679356 0.888483
O O19 0.598898 0.731094 0.000000
#
# Coordination Sequence:
#
# PCOD8289555 Si02
#       7
#    16   8  16  16  16  16  16
#     4   9  17  29  48  77 107 138 179 219 260 318
#     4   9  18  34  54  78 107 135 170 217 275 343
#     4  10  21  36  57  82 105 141 183 225 282 339
#     4  10  20  34  55  81 110 143 184 229 270 322
#     4  10  19  35  57  79 108 142 179 231 277 326
#     4   9  16  29  50  74 106 146 181 219 265 312
#     4  10  21  37  57  81 112 151 191 227 273 327
#
# _framework density 19.405667999999999
#
# number of rings (size 3 to 8) (size 9 to 14) (size 15 to 20)
#    0.000    2.385    2.308    0.462    0.000    3.385 
#    0.000    3.846    0.000    0.462    0.000    4.308 
#    0.000    0.000    0.000    0.000    0.000    0.000 
#
# Total GULP energy -644411.237423 kJ/mol
# GULP energy per Si atom -12392.523797 kJ/mol
# Density = 1.936150 g / cm^3
# Si number density = 19.405668 Si / 1000 Ang^3
#
#
#
# Elastic Constant Matrix: (Units=GPa)
#
#
# Indices 1 2 3 4 5 6 
#
# 1 62.7377 26.2573 24.3383 0.0000 0.0000 0.0000
# 2 26.2573 129.6189 57.9898 0.0000 0.0000 0.0000
# 3 24.3383 57.9898 113.3930 0.0000 0.0000 0.0000
# 4 0.0000 0.0000 0.0000 13.0567 0.0000 0.0000
# 5 0.0000 0.0000 0.0000 0.0000 8.6071 0.0000
# 6 0.0000 0.0000 0.0000 0.0000 0.0000 24.5095
#
#
#
# Elastic Compliance Matrix: (Units=1/GPa)
#
#
# Indices 1 2 3 4 5 6 
#
# 1 0.017984 -0.002485 -0.002589 0.000000 0.000000 0.000000
# 2 -0.002485 0.010347 -0.004758 0.000000 0.000000 0.000000
# 3 -0.002589 -0.004758 0.011808 0.000000 0.000000 0.000000
# 4 0.000000 0.000000 0.000000 0.076589 0.000000 0.000000
# 5 0.000000 0.000000 0.000000 0.000000 0.116183 0.000000
# 6 0.000000 0.000000 0.000000 0.000000 0.000000 0.040801
#
#
# Mechanical properties :
#
#
# Convention : Reuss Voigt Hill
#
# Bulk Modulus (GPa) = 48.84129 58.10226 53.47178
# Shear Modulus (GPa) = 16.65552 22.37894 19.51723
#
# Velocity S-wave (km/s) = 2.93282 3.39959 3.17480
# Velocity P-wave (km/s) = 6.05738 6.73910 6.40731
#
# Compressibility (1/GPa) = 0.02047448
#
# Stress axis : x y z
#
# Youngs Moduli (GPa) = 55.60575 96.64638 84.68808
#
# Poissons Ratio (x) = 0.24013 0.21929
# Poissons Ratio (y) = 0.13816 0.40297
# Poissons Ratio (z) = 0.14398 0.45987
#
# Static dielectric constant tensor:
#      x y z
#    x 3.344250 0.000000 0.000000 
#    y 0.000000 3.806120 0.000000 
#    z 0.000000 0.000000 3.521570 
# 
# 
# High freq. dielectric constant tensor:
#      x y z
#    x 1.730510 0.000000 0.000000 
#    y 0.000000 1.769720 0.000000 
#    z 0.000000 0.000000 1.727230 
# 
# From -- ./inp_files/36696.got.cif
#   From: 2010.06.25/outbox.cif.g09.slc.cpg/sg71_19_cif.got.tgz:36696.got - 2010.06.28 04:59:45.
