data_PCOD8289182
_publ_section_title
;
Structure prediction by ZEFSAII (Michael W. Deem and Ramdas Pophale) SiO2 
 PCOD8289182
Probable space group: I M M M
;
_chemical_formula_sum "Si O2"
_cell_formula_units_Z 120
_cell_length_a 12.853010
_cell_length_b 21.750189
_cell_length_c 22.254304
_cell_angle_alpha 90.000000
_cell_angle_beta 90.000000
_cell_angle_gamma 90.000000
_cell_volume 6221.310783
_symmetry_space_group_name_H-M "I M M M"
_symmetry_group_IT_number 71
_symmetry_cell_setting 'orthorhombic'
loop_
_space_group_symop_operation_xyz
x,y,z
-x,-y,z
x,-y,-z
-x,y,-z
-x,-y,-z
x,y,-z
-x,y,z
x,-y,z
1/2+x,1/2+y,1/2+z
1/2-x,1/2-y,1/2+z
1/2+x,1/2-y,1/2-z
1/2-x,1/2+y,1/2-z
1/2-x,1/2-y,1/2-z
1/2+x,1/2+y,1/2-z
1/2-x,1/2+y,1/2+z
1/2+x,1/2-y,1/2+z
loop_
_atom_site_type_symbol
_atom_site_label
_atom_site_fract_x
_atom_site_fract_y
_atom_site_fract_z
Si Si1 0.182843 0.317444 0.688174
Si Si2 0.114764 0.932986 0.928978
Si Si3 0.264789 0.314960 0.567680
Si Si4 0.376888 0.500000 0.929130
Si Si5 0.382641 0.691543 0.762927
Si Si6 0.884009 0.567694 0.244147
Si Si7 0.116914 0.691960 0.931923
Si Si8 0.270427 0.391357 0.856054
O O1 0.174867 0.302352 0.616760
O O2 0.304184 0.320287 0.708020
O O3 0.121707 0.263848 0.722144
O O4 0.130611 0.382273 0.703615
O O5 0.189986 0.879286 0.907602
O O6 0.000000 0.924277 0.900641
O O7 0.159316 0.000000 0.909479
O O8 0.104701 0.928872 0.000000
O O9 0.218140 0.319196 0.500000
O O10 0.354130 0.263743 0.570293
O O11 0.500000 0.500000 0.918141
O O12 0.329016 0.439053 0.899172
O O13 0.350336 0.500000 0.000000
O O14 0.500000 0.675093 0.742950
O O15 0.353623 0.650192 0.820676
O O16 0.869301 0.500000 0.273034
O O17 0.802232 0.573180 0.190430
O O18 0.000000 0.574665 0.217120
O O19 0.198451 0.653558 0.894236
O O20 0.000000 0.684633 0.905955
O O21 0.121149 0.667647 0.000000
#
# Coordination Sequence:
#
# PCOD8289182 Si02
#       8
#    16  16  16   8  16  16  16  16
#     4  10  21  37  56  85 112 146 189 241 288 347
#     4   8  14  25  42  66  98 139 182 217 259 321
#     4  10  19  33  52  79 116 151 187 231 286 346
#     4  11  24  40  61  89 123 165 199 230 282 350
#     4  10  21  37  58  83 109 146 192 241 291 334
#     4  10  21  38  62  86 112 148 191 245 302 347
#     4  10  20  33  53  83 120 159 196 239 292 346
#     4  11  20  39  60  85 116 152 194 246 283 347
#
# _framework density 19.288539
#
# number of rings (size 3 to 8) (size 9 to 14) (size 15 to 20)
#    0.000    2.067    2.000    2.400    0.000    3.200 
#    0.000    0.000    0.000    4.000    0.000    0.933 
#    0.000    0.000    0.000    0.000    0.000    0.000 
#
# Total GULP energy -743715.101532 kJ/mol
# GULP energy per Si atom -12395.251692 kJ/mol
# Density = 1.924464 g / cm^3
# Si number density = 19.288539 Si / 1000 Ang^3
#
#
#
# Elastic Constant Matrix: (Units=GPa)
#
#
# Indices 1 2 3 4 5 6 
#
# 1 88.7915 30.6539 24.9565 0.0000 0.0000 0.0000
# 2 30.6539 116.0027 30.1024 0.0000 0.0000 0.0000
# 3 24.9565 30.1024 86.6504 0.0000 0.0000 0.0000
# 4 0.0000 0.0000 0.0000 30.3413 0.0000 0.0000
# 5 0.0000 0.0000 0.0000 0.0000 19.1012 0.0000
# 6 0.0000 0.0000 0.0000 0.0000 0.0000 19.8375
#
#
#
# Elastic Compliance Matrix: (Units=1/GPa)
#
#
# Indices 1 2 3 4 5 6 
#
# 1 0.012983 -0.002704 -0.002800 0.000000 0.000000 0.000000
# 2 -0.002704 0.010038 -0.002708 0.000000 0.000000 0.000000
# 3 -0.002800 -0.002708 0.013288 0.000000 0.000000 0.000000
# 4 0.000000 0.000000 0.000000 0.032958 0.000000 0.000000
# 5 0.000000 0.000000 0.000000 0.000000 0.052353 0.000000
# 6 0.000000 0.000000 0.000000 0.000000 0.000000 0.050410
#
#
# Mechanical properties :
#
#
# Convention : Reuss Voigt Hill
#
# Bulk Modulus (GPa) = 50.29175 51.43003 50.86089
# Shear Modulus (GPa) = 25.63025 27.57145 26.60085
#
# Velocity S-wave (km/s) = 3.64920 3.78487 3.71765
# Velocity P-wave (km/s) = 6.62462 6.76918 6.69729
#
# Compressibility (1/GPa) = 0.01988398
#
# Stress axis : x y z
#
# Youngs Moduli (GPa) = 77.02464 99.62264 75.25660
#
# Poissons Ratio (x) = 0.26940 0.21070
# Poissons Ratio (y) = 0.20829 0.20382
# Poissons Ratio (z) = 0.21565 0.26981
#
# Static dielectric constant tensor:
#      x y z
#    x 3.395390 0.000000 0.000000 
#    y 0.000000 3.757780 0.000000 
#    z 0.000000 0.000000 3.428500 
# 
# 
# High freq. dielectric constant tensor:
#      x y z
#    x 1.731880 0.000000 0.000000 
#    y 0.000000 1.765440 0.000000 
#    z 0.000000 0.000000 1.739220 
# 
# From -- ./inp_files/52244.got.cif
#   From: 2010.06.25/outbox.cif.g09.slc.cpg/sg71_27_cif.got.tgz:52244.got - 2010.06.28 04:59:45.
