data_PCOD8289091
_publ_section_title
;
Structure prediction by ZEFSAII (Michael W. Deem and Ramdas Pophale) SiO2 
 PCOD8289091
Probable space group: I M M M
;
_chemical_formula_sum "Si O2"
_cell_formula_units_Z 120
_cell_length_a 17.029673
_cell_length_b 23.865484
_cell_length_c 17.619411
_cell_angle_alpha 90.000000
_cell_angle_beta 90.000000
_cell_angle_gamma 90.000000
_cell_volume 7160.905483
_symmetry_space_group_name_H-M "I M M M"
_symmetry_group_IT_number 71
_symmetry_cell_setting 'orthorhombic'
loop_
_space_group_symop_operation_xyz
x,y,z
-x,-y,z
x,-y,-z
-x,y,-z
-x,-y,-z
x,y,-z
-x,y,z
x,-y,z
1/2+x,1/2+y,1/2+z
1/2-x,1/2-y,1/2+z
1/2+x,1/2-y,1/2-z
1/2-x,1/2+y,1/2-z
1/2-x,1/2-y,1/2-z
1/2+x,1/2+y,1/2-z
1/2-x,1/2+y,1/2+z
1/2+x,1/2-y,1/2+z
loop_
_atom_site_type_symbol
_atom_site_label
_atom_site_fract_x
_atom_site_fract_y
_atom_site_fract_z
Si Si1 0.686795 0.938266 0.282965
Si Si2 0.589264 0.933459 0.149905
Si Si3 0.410025 0.747461 0.088106
Si Si4 0.592833 0.500000 0.588607
Si Si5 0.591095 0.633426 0.828757
Si Si6 0.215516 0.066890 0.585088
Si Si7 0.325076 0.595706 0.316826
Si Si8 0.200013 0.349069 0.414400
O O1 0.616367 0.910439 0.233989
O O2 0.712796 0.908557 0.362048
O O3 0.763822 0.941967 0.229807
O O4 0.658178 0.000000 0.304365
O O5 0.500000 0.916321 0.135617
O O6 0.643940 0.904018 0.087744
O O7 0.602291 0.000000 0.143920
O O8 0.500000 0.767051 0.100645
O O9 0.389314 0.695365 0.141591
O O10 0.351491 0.796610 0.114221
O O11 0.396801 0.731207 0.000000
O O12 0.500000 0.500000 0.600310
O O13 0.616055 0.500000 0.500000
O O14 0.626819 0.556052 0.626619
O O15 0.500000 0.619440 0.835166
O O16 0.633213 0.589261 0.883966
O O17 0.617337 0.627733 0.741245
O O18 0.230734 0.088043 0.500000
O O19 0.212487 0.000000 0.590186
O O20 0.277599 0.643313 0.363512
O O21 0.228345 0.340047 0.500000
#
# Coordination Sequence:
#
# PCOD8289091 Si02
#       8
#    16  16  16   8  16  16  16  16
#     4   8  14  27  43  60  88 123 151 180 231 286
#     4   9  17  28  44  68  94 121 157 199 245 298
#     4   9  18  33  50  70  98 129 160 195 244 302
#     4  11  22  34  50  72 100 134 168 205 250 300
#     4  10  20  32  49  69  94 129 163 204 251 295
#     4   9  17  28  44  68  94 121 157 199 245 298
#     4  10  19  33  48  69  94 126 168 204 242 291
#     4  10  20  32  49  69  94 129 163 204 251 295
#
# _framework density 16.757656999999998
#
# number of rings (size 3 to 8) (size 9 to 14) (size 15 to 20)
#    0.000    2.600    0.667    1.600    1.867    2.667 
#    0.000    1.333    0.000    0.400    0.000    2.800 
#    0.000    0.000    0.000    8.133    0.000    4.533 
#
# Total GULP energy -743512.824961 kJ/mol
# GULP energy per Si atom -12391.880416 kJ/mol
# Density = 1.671952 g / cm^3
# Si number density = 16.757657 Si / 1000 Ang^3
#
#
#
# Elastic Constant Matrix: (Units=GPa)
#
#
# Indices 1 2 3 4 5 6 
#
# 1 27.7689 15.3909 15.6818 0.0006 0.0001 -0.0001
# 2 15.3909 56.6207 30.6877 0.0005 0.0000 -0.0002
# 3 15.6818 30.6877 96.9180 0.0013 0.0000 -0.0003
# 4 0.0006 0.0005 0.0013 24.0193 0.0000 -0.0001
# 5 0.0001 0.0000 0.0000 0.0000 22.2070 0.0000
# 6 -0.0001 -0.0002 -0.0003 -0.0001 0.0000 21.7948
#
#
#
# Elastic Compliance Matrix: (Units=1/GPa)
#
#
# Indices 1 2 3 4 5 6 
#
# 1 0.043641 -0.009700 -0.003990 -0.000001 0.000000 0.000000
# 2 -0.009700 0.023476 -0.005864 0.000000 0.000000 0.000000
# 3 -0.003990 -0.005864 0.012820 0.000000 0.000000 0.000000
# 4 -0.000001 0.000000 0.000000 0.041633 0.000000 0.000000
# 5 0.000000 0.000000 0.000000 0.000000 0.045031 0.000000
# 6 0.000000 0.000000 0.000000 0.000000 0.000000 0.045883
#
#
# Mechanical properties :
#
#
# Convention : Reuss Voigt Hill
#
# Bulk Modulus (GPa) = 24.49200 33.86981 29.18091
# Shear Modulus (GPa) = 18.85354 21.57403 20.21379
#
# Velocity S-wave (km/s) = 3.35785 3.59195 3.47687
# Velocity P-wave (km/s) = 5.44799 6.12031 5.79391
#
# Compressibility (1/GPa) = 0.04082966
#
# Stress axis : x y z
#
# Youngs Moduli (GPa) = 22.91419 42.59618 78.00127
#
# Poissons Ratio (x) = 0.41319 0.31122
# Poissons Ratio (y) = 0.22227 0.45739
# Poissons Ratio (z) = 0.09142 0.24978
#
# Static dielectric constant tensor:
#      x y z
#    x 3.149040 0.000000 0.000000 
#    y 0.000000 2.946660 0.000000 
#    z 0.000000 0.000000 3.353100 
# 
# 
# High freq. dielectric constant tensor:
#      x y z
#    x 1.636680 0.000000 0.000000 
#    y 0.000000 1.623260 0.000000 
#    z 0.000000 0.000000 1.649240 
# 
# From -- ./inp_files/46497.got.cif
#   From: 2010.06.25/outbox.cif.g09.slc.cpg/sg71_24_cif.got.tgz:46497.got - 2010.06.28 04:59:45.
