data_PCOD8289833
_publ_section_title
;
Structure prediction by ZEFSAII (Michael W. Deem and Ramdas Pophale) SiO2 
 PCOD8289833
Probable space group: I M M M
;
_chemical_formula_sum "Si O2"
_cell_formula_units_Z 96
_cell_length_a 9.001740
_cell_length_b 18.149117
_cell_length_c 32.707251
_cell_angle_alpha 90.000000
_cell_angle_beta 90.000000
_cell_angle_gamma 90.000000
_cell_volume 5343.502404
_symmetry_space_group_name_H-M "I M M M"
_symmetry_group_IT_number 71
_symmetry_cell_setting 'orthorhombic'
loop_
_space_group_symop_operation_xyz
x,y,z
-x,-y,z
x,-y,-z
-x,y,-z
-x,-y,-z
x,y,-z
-x,y,z
x,-y,z
1/2+x,1/2+y,1/2+z
1/2-x,1/2-y,1/2+z
1/2+x,1/2-y,1/2-z
1/2-x,1/2+y,1/2-z
1/2-x,1/2-y,1/2-z
1/2+x,1/2+y,1/2-z
1/2-x,1/2+y,1/2+z
1/2+x,1/2-y,1/2+z
loop_
_atom_site_type_symbol
_atom_site_label
_atom_site_fract_x
_atom_site_fract_y
_atom_site_fract_z
Si Si1 0.673209 0.274286 0.953555
Si Si2 0.672133 0.914436 0.826709
Si Si3 0.325754 0.584896 0.242639
Si Si4 0.327576 0.850316 0.666274
Si Si5 0.173093 0.798838 0.880121
Si Si6 0.669730 0.581833 0.092975
O O1 0.500000 0.256744 0.947701
O O2 0.766711 0.219752 0.925147
O O3 0.708188 0.359307 0.942165
O O4 0.724210 0.261568 0.000000
O O5 0.500000 0.894628 0.822225
O O6 0.753311 0.890814 0.785169
O O7 0.741987 0.870564 0.864414
O O8 0.697493 0.000000 0.836183
O O9 0.500000 0.597975 0.246288
O O10 0.287281 0.500000 0.232389
O O11 0.261195 0.637637 0.207931
O O12 0.500000 0.864197 0.674573
O O13 0.294425 0.767969 0.650905
O O14 0.273322 0.907890 0.632292
O O15 0.000000 0.816284 0.883505
O O16 0.500000 0.591651 0.107796
O O17 0.696712 0.500000 0.074997
#
# Coordination Sequence:
#
# PCOD8289833 Si02
#       6
#    16  16  16  16  16  16
#     4   9  18  33  53  76 102 133 168 207 252 300
#     4  10  21  37  57  79 101 127 161 202 250 303
#     4  10  20  33  50  73 102 137 175 212 250 291
#     4  10  20  32  47  70 101 138 178 214 248 288
#     4  10  21  36  54  76 102 133 167 204 249 300
#     4   9  17  29  46  70 101 137 176 215 253 292
#
# _framework density 17.965745999999999
#
# number of rings (size 3 to 8) (size 9 to 14) (size 15 to 20)
#    0.000    2.333    0.000    2.500    0.000    7.667 
#    0.000    1.667    0.000    0.500    0.000    8.167 
#    0.000    0.000    0.000    0.000    0.000    0.000 
#
# Total GULP energy -595369.116782 kJ/mol
# GULP energy per Si atom -12403.523266 kJ/mol
# Density = 1.792485 g / cm^3
# Si number density = 17.965746 Si / 1000 Ang^3
#
#
#
# Elastic Constant Matrix: (Units=GPa)
#
#
# Indices 1 2 3 4 5 6 
#
# 1 98.9344 46.9558 65.9077 0.0000 0.0000 0.0000
# 2 46.9558 64.2057 60.6317 0.0000 0.0000 0.0000
# 3 65.9077 60.6317 130.3279 0.0000 0.0000 0.0000
# 4 0.0000 0.0000 0.0000 18.5689 0.0000 0.0000
# 5 0.0000 0.0000 0.0000 0.0000 31.6606 0.0000
# 6 0.0000 0.0000 0.0000 0.0000 0.0000 27.2632
#
#
#
# Elastic Compliance Matrix: (Units=1/GPa)
#
#
# Indices 1 2 3 4 5 6 
#
# 1 0.017173 -0.007773 -0.005068 0.000000 0.000000 0.000000
# 2 -0.007773 0.031298 -0.010629 0.000000 0.000000 0.000000
# 3 -0.005068 -0.010629 0.015181 0.000000 0.000000 0.000000
# 4 0.000000 0.000000 0.000000 0.053853 0.000000 0.000000
# 5 0.000000 0.000000 0.000000 0.000000 0.031585 0.000000
# 6 0.000000 0.000000 0.000000 0.000000 0.000000 0.036679
#
#
# Mechanical properties :
#
#
# Convention : Reuss Voigt Hill
#
# Bulk Modulus (GPa) = 59.84440 71.16205 65.50322
# Shear Modulus (GPa) = 20.98353 23.49673 22.24013
#
# Velocity S-wave (km/s) = 3.42127 3.62036 3.52222
# Velocity P-wave (km/s) = 6.99924 7.56121 7.28565
#
# Compressibility (1/GPa) = 0.01671000
#
# Stress axis : x y z
#
# Youngs Moduli (GPa) = 58.22932 31.95143 65.87113
#
# Poissons Ratio (x) = 0.24837 0.33386
# Poissons Ratio (y) = 0.45263 0.70017
# Poissons Ratio (z) = 0.29513 0.33962
#
# Static dielectric constant tensor:
#      x y z
#    x 3.398340 0.000000 0.000000 
#    y 0.000000 3.221110 0.000000 
#    z 0.000000 0.000000 3.209160 
# 
# 
# High freq. dielectric constant tensor:
#      x y z
#    x 1.705430 0.000000 0.000000 
#    y 0.000000 1.683350 0.000000 
#    z 0.000000 0.000000 1.684590 
# 
# From -- ./inp_files/10899.got.cif
#   From: 2010.06.25/outbox.cif.g09.slc.cpg/sg71_6_cif.got.tgz:10899.got - 2010.06.28 04:59:45.
