data_PCOD8289749
_publ_section_title
;
Structure prediction by ZEFSAII (Michael W. Deem and Ramdas Pophale) SiO2 
 PCOD8289749
Probable space group: I M M M
;
_chemical_formula_sum "Si O2"
_cell_formula_units_Z 88
_cell_length_a 20.614350
_cell_length_b 9.368471
_cell_length_c 24.530936
_cell_angle_alpha 90.000000
_cell_angle_beta 90.000000
_cell_angle_gamma 90.000000
_cell_volume 4737.535547
_symmetry_space_group_name_H-M "I M M M"
_symmetry_group_IT_number 71
_symmetry_cell_setting 'orthorhombic'
loop_
_space_group_symop_operation_xyz
x,y,z
-x,-y,z
x,-y,-z
-x,y,-z
-x,-y,-z
x,y,-z
-x,y,z
x,-y,z
1/2+x,1/2+y,1/2+z
1/2-x,1/2-y,1/2+z
1/2+x,1/2-y,1/2-z
1/2-x,1/2+y,1/2-z
1/2-x,1/2-y,1/2-z
1/2+x,1/2+y,1/2-z
1/2-x,1/2+y,1/2+z
1/2+x,1/2-y,1/2+z
loop_
_atom_site_type_symbol
_atom_site_label
_atom_site_fract_x
_atom_site_fract_y
_atom_site_fract_z
Si Si1 0.242160 0.661751 0.588354
Si Si2 0.883551 0.842472 0.936659
Si Si3 0.072434 0.666398 0.661725
Si Si4 0.500000 0.841615 0.434746
Si Si5 0.703900 0.159453 0.788597
Si Si6 0.619939 0.334202 0.061072
O O1 0.233336 0.500000 0.565748
O O2 0.312629 0.722661 0.573181
O O3 0.236539 0.663182 0.652888
O O4 0.191397 0.766595 0.560268
O O5 0.936891 0.738129 0.910693
O O6 0.888784 0.000000 0.909550
O O7 0.898490 0.856009 0.000000
O O8 0.085458 0.500000 0.647732
O O9 0.128898 0.716786 0.704281
O O10 0.075603 0.752778 0.605010
O O11 0.000000 0.688710 0.686590
O O12 0.500000 0.846617 0.500000
O O13 0.500000 0.000000 0.410256
O O14 0.750000 0.250000 0.750000
O O15 0.702118 0.000000 0.764385
O O16 0.624321 0.500000 0.077706
O O17 0.590387 0.318122 0.000000
#
# Coordination Sequence:
#
# PCOD8289749 Si02
#       6
#    16  16  16   8  16  16
#     4   9  18  32  50  71  94 126 168 208 244 290
#     4   9  16  27  45  66  88 120 161 199 235 279
#     4   9  19  36  56  76  99 133 176 214 247 293
#     4   9  17  27  39  59  89 123 155 189 233 285
#     4   9  18  33  54  77  98 123 159 205 254 302
#     4  10  20  31  45  72 109 141 167 201 247 295
#
# _framework density 18.575059
#
# number of rings (size 3 to 8) (size 9 to 14) (size 15 to 20)
#    0.000    2.818    0.000    2.455    0.000    7.636 
#    0.000    3.636    2.000    0.000    0.000    0.000 
#    0.000    0.000    0.000    0.000    0.000    0.000 
#
# Total GULP energy -545294.140413 kJ/mol
# GULP energy per Si atom -12393.048646 kJ/mol
# Density = 1.853278 g / cm^3
# Si number density = 18.575059 Si / 1000 Ang^3
#
#
#
# Elastic Constant Matrix: (Units=GPa)
#
#
# Indices 1 2 3 4 5 6 
#
# 1 141.1133 49.8519 26.9259 0.0000 0.0000 0.0000
# 2 49.8519 83.8747 24.3983 0.0000 0.0000 0.0000
# 3 26.9259 24.3983 49.6055 0.0000 0.0000 0.0000
# 4 0.0000 0.0000 0.0000 23.9632 0.0000 0.0000
# 5 0.0000 0.0000 0.0000 0.0000 18.6591 0.0000
# 6 0.0000 0.0000 0.0000 0.0000 0.0000 23.0960
#
#
#
# Elastic Compliance Matrix: (Units=1/GPa)
#
#
# Indices 1 2 3 4 5 6 
#
# 1 0.009272 -0.004723 -0.002710 0.000000 0.000000 0.000000
# 2 -0.004723 0.016319 -0.005463 0.000000 0.000000 0.000000
# 3 -0.002710 -0.005463 0.024317 0.000000 0.000000 0.000000
# 4 0.000000 0.000000 0.000000 0.041731 0.000000 0.000000
# 5 0.000000 0.000000 0.000000 0.000000 0.053593 0.000000
# 6 0.000000 0.000000 0.000000 0.000000 0.000000 0.043298
#
#
# Mechanical properties :
#
#
# Convention : Reuss Voigt Hill
#
# Bulk Modulus (GPa) = 41.46525 52.99398 47.22961
# Shear Modulus (GPa) = 22.48620 24.70481 23.59550
#
# Velocity S-wave (km/s) = 3.48308 3.65087 3.56796
# Velocity P-wave (km/s) = 6.20865 6.80907 6.51578
#
# Compressibility (1/GPa) = 0.02411658
#
# Stress axis : x y z
#
# Youngs Moduli (GPa) = 107.85180 61.27998 41.12363
#
# Poissons Ratio (x) = 0.28940 0.11145
# Poissons Ratio (y) = 0.50934 0.22465
# Poissons Ratio (z) = 0.29228 0.33476
#
# Static dielectric constant tensor:
#      x y z
#    x 3.577910 0.000000 0.000000 
#    y 0.000000 3.538600 0.000000 
#    z 0.000000 0.000000 3.029810 
# 
# 
# High freq. dielectric constant tensor:
#      x y z
#    x 1.732170 0.000000 0.000000 
#    y 0.000000 1.717510 0.000000 
#    z 0.000000 0.000000 1.674780 
# 
# From -- ./inp_files/66324.got.cif
#   From: 2010.06.25/outbox.cif.g09.slc.cpg/sg71_34_cif.got.tgz:66324.got - 2010.06.28 04:59:45.
