data_PCOD8289876
_publ_section_title
;
Structure prediction by ZEFSAII (Michael W. Deem and Ramdas Pophale) SiO2 
 PCOD8289876
Probable space group: I M M M
;
_chemical_formula_sum "Si O2"
_cell_formula_units_Z 72
_cell_length_a 26.777047
_cell_length_b 16.442904
_cell_length_c 9.393862
_cell_angle_alpha 90.000000
_cell_angle_beta 90.000000
_cell_angle_gamma 90.000000
_cell_volume 4136.046169
_symmetry_space_group_name_H-M "I M M M"
_symmetry_group_IT_number 71
_symmetry_cell_setting 'orthorhombic'
loop_
_space_group_symop_operation_xyz
x,y,z
-x,-y,z
x,-y,-z
-x,y,-z
-x,-y,-z
x,y,-z
-x,y,z
x,-y,z
1/2+x,1/2+y,1/2+z
1/2-x,1/2-y,1/2+z
1/2+x,1/2-y,1/2-z
1/2-x,1/2+y,1/2-z
1/2-x,1/2-y,1/2-z
1/2+x,1/2+y,1/2-z
1/2-x,1/2+y,1/2+z
1/2+x,1/2-y,1/2+z
loop_
_atom_site_type_symbol
_atom_site_label
_atom_site_fract_x
_atom_site_fract_y
_atom_site_fract_z
Si Si1 0.700178 0.240708 0.662899
Si Si2 0.632746 0.908282 0.663034
Si Si3 0.057469 0.313483 0.337892
Si Si4 0.943423 0.000000 0.168406
Si Si5 0.898626 0.169523 0.167726
O O1 0.715378 0.249735 0.500000
O O2 0.750000 0.250000 0.750000
O O3 0.678508 0.151546 0.696949
O O4 0.659134 0.309568 0.703738
O O5 0.615161 0.895942 0.500000
O O6 0.586715 0.887808 0.765360
O O7 0.650828 0.000000 0.691810
O O8 0.076014 0.301909 0.500000
O O9 0.065549 0.230278 0.252096
O O10 0.000000 0.337676 0.333078
O O11 0.912446 0.078858 0.219792
O O12 0.000000 0.000000 0.231625
O O13 0.947051 0.000000 0.000000
O O14 0.908678 0.181470 0.000000
#
# Coordination Sequence:
#
# PCOD8289876 Si02
#       5
#    16  16  16   8  16
#     4   9  18  33  52  73  98 129 164 206 251 299
#     4   9  19  36  55  74  97 128 169 211 246 290
#     4  10  20  32  48  73 105 137 166 201 249 302
#     4   9  16  28  51  79 103 129 167 215 256 295
#     4   9  18  33  52  74 100 133 174 213 250 299
#
# _framework density 17.40793
#
# number of rings (size 3 to 8) (size 9 to 14) (size 15 to 20)
#    0.000    2.778    0.000    2.667    0.000    7.111 
#    2.000    2.778    0.000    2.000    0.000    0.000 
#    0.000    0.000    0.000    0.000    0.000    0.000 
#
# Total GULP energy -446339.045429 kJ/mol
# GULP energy per Si atom -12398.306817 kJ/mol
# Density = 1.736831 g / cm^3
# Si number density = 17.407930 Si / 1000 Ang^3
#
#
#
# Elastic Constant Matrix: (Units=GPa)
#
#
# Indices 1 2 3 4 5 6 
#
# 1 128.0811 69.4507 57.0390 0.0000 0.0000 0.0000
# 2 69.4507 148.6853 40.6344 0.0000 0.0000 0.0000
# 3 57.0390 40.6344 73.5078 0.0000 0.0000 0.0000
# 4 0.0000 0.0000 0.0000 10.7336 0.0000 0.0000
# 5 0.0000 0.0000 0.0000 0.0000 33.1148 0.0000
# 6 0.0000 0.0000 0.0000 0.0000 0.0000 16.0877
#
#
#
# Elastic Compliance Matrix: (Units=1/GPa)
#
#
# Indices 1 2 3 4 5 6 
#
# 1 0.013807 -0.004148 -0.008420 0.000000 0.000000 0.000000
# 2 -0.004148 0.009169 -0.001850 0.000000 0.000000 0.000000
# 3 -0.008420 -0.001850 0.021160 0.000000 0.000000 0.000000
# 4 0.000000 0.000000 0.000000 0.093166 0.000000 0.000000
# 5 0.000000 0.000000 0.000000 0.000000 0.030198 0.000000
# 6 0.000000 0.000000 0.000000 0.000000 0.000000 0.062159
#
#
# Mechanical properties :
#
#
# Convention : Reuss Voigt Hill
#
# Bulk Modulus (GPa) = 65.36145 76.05804 70.70975
# Shear Modulus (GPa) = 18.96852 24.19722 21.58287
#
# Velocity S-wave (km/s) = 3.30456 3.73233 3.52494
# Velocity P-wave (km/s) = 7.22417 7.89685 7.56799
#
# Compressibility (1/GPa) = 0.01529954
#
# Stress axis : x y z
#
# Youngs Moduli (GPa) = 72.42919 109.06828 47.25786
#
# Poissons Ratio (x) = 0.45239 0.39793
# Poissons Ratio (y) = 0.30042 0.08742
# Poissons Ratio (z) = 0.60989 0.20175
#
# Static dielectric constant tensor:
#      x y z
#    x 3.095360 0.000000 0.000000 
#    y 0.000000 3.628100 0.000000 
#    z 0.000000 0.000000 3.218020 
# 
# 
# High freq. dielectric constant tensor:
#      x y z
#    x 1.663910 0.000000 0.000000 
#    y 0.000000 1.674380 0.000000 
#    z 0.000000 0.000000 1.663000 
# 
# From -- ./inp_files/8153.got.cif
#   From: 2010.06.25/outbox.cif.g09.slc.cpg/sg71_5_cif.got.tgz:8153.got - 2010.06.28 04:59:45.
