data_PCOD8289488
_publ_section_title
;
Structure prediction by ZEFSAII (Michael W. Deem and Ramdas Pophale) SiO2 
 PCOD8289488
Probable space group: I M M M
;
_chemical_formula_sum "Si O2"
_cell_formula_units_Z 88
_cell_length_a 14.619190
_cell_length_b 17.756260
_cell_length_c 17.492212
_cell_angle_alpha 90.000000
_cell_angle_beta 90.000000
_cell_angle_gamma 90.000000
_cell_volume 4540.665800
_symmetry_space_group_name_H-M "I M M M"
_symmetry_group_IT_number 71
_symmetry_cell_setting 'orthorhombic'
loop_
_space_group_symop_operation_xyz
x,y,z
-x,-y,z
x,-y,-z
-x,y,-z
-x,-y,-z
x,y,-z
-x,y,z
x,-y,z
1/2+x,1/2+y,1/2+z
1/2-x,1/2-y,1/2+z
1/2+x,1/2-y,1/2-z
1/2-x,1/2+y,1/2-z
1/2-x,1/2-y,1/2-z
1/2+x,1/2+y,1/2-z
1/2-x,1/2+y,1/2+z
1/2+x,1/2-y,1/2+z
loop_
_atom_site_type_symbol
_atom_site_label
_atom_site_fract_x
_atom_site_fract_y
_atom_site_fract_z
Si Si1 0.106887 0.500000 0.590625
Si Si2 0.683172 0.582999 0.084197
Si Si3 0.400448 0.210795 0.731849
Si Si4 0.271417 0.871647 0.835787
Si Si5 0.602120 0.620901 0.761317
Si Si6 0.694913 0.771009 0.585613
O O1 0.108634 0.500000 0.500000
O O2 0.163253 0.428416 0.619759
O O3 0.000000 0.500000 0.618640
O O4 0.730866 0.500000 0.086540
O O5 0.612690 0.584502 0.154888
O O6 0.755317 0.649339 0.094265
O O7 0.635132 0.592864 0.000000
O O8 0.500000 0.176961 0.749779
O O9 0.323802 0.153335 0.759207
O O10 0.386244 0.289991 0.774406
O O11 0.392180 0.225428 0.641163
O O12 0.176121 0.907126 0.802918
O O13 0.257742 0.800124 0.891022
O O14 0.500000 0.600825 0.731085
O O15 0.659645 0.757919 0.500000
#
# Coordination Sequence:
#
# PCOD8289488 Si02
#       6
#     8  16  16  16  16  16
#     4  11  26  44  63  89 116 145 187 237 287 338
#     4  10  20  34  53  81 115 148 187 235 282 333
#     4  10  19  34  57  85 113 146 194 242 282 336
#     4  11  20  39  60  84 114 150 191 239 287 337
#     4  10  20  35  57  85 115 150 193 236 283 340
#     4  10  19  35  58  81 112 153 188 227 289 346
#
# _framework density 19.380417999999999
#
# number of rings (size 3 to 8) (size 9 to 14) (size 15 to 20)
#    0.000    1.727    3.636    2.182    1.273    1.091 
#    0.000    0.909    0.000    2.182    0.000    2.545 
#    0.000    0.000    0.000    0.000    0.000    0.000 
#
# Total GULP energy -545145.364002 kJ/mol
# GULP energy per Si atom -12389.667364 kJ/mol
# Density = 1.933631 g / cm^3
# Si number density = 19.380418 Si / 1000 Ang^3
#
#
#
# Elastic Constant Matrix: (Units=GPa)
#
#
# Indices 1 2 3 4 5 6 
#
# 1 110.2394 36.9020 38.2537 0.0000 0.0000 0.0000
# 2 36.9020 99.5871 41.0801 0.0000 0.0000 0.0000
# 3 38.2537 41.0801 119.1252 0.0000 0.0000 0.0000
# 4 0.0000 0.0000 0.0000 23.7764 0.0000 0.0000
# 5 0.0000 0.0000 0.0000 0.0000 22.8108 0.0000
# 6 0.0000 0.0000 0.0000 0.0000 0.0000 -7.1940
#
#
#
# Elastic Compliance Matrix: (Units=1/GPa)
#
#
# Indices 1 2 3 4 5 6 
#
# 1 0.010944 -0.003038 -0.002467 0.000000 0.000000 0.000000
# 2 -0.003038 0.012550 -0.003352 0.000000 0.000000 0.000000
# 3 -0.002467 -0.003352 0.010343 0.000000 0.000000 0.000000
# 4 0.000000 0.000000 0.000000 0.042059 0.000000 0.000000
# 5 0.000000 0.000000 0.000000 0.000000 0.043839 0.000000
# 6 0.000000 0.000000 0.000000 0.000000 0.000000 -0.139005
#
#
# Mechanical properties :
#
#
# Convention : Reuss Voigt Hill
#
# Bulk Modulus (GPa) = 62.02350 62.38037 62.20193
# Shear Modulus (GPa) = 1309.79540 22.05970 665.92755
#
# Velocity S-wave (km/s) = 26.02502 3.37745 18.55679
# Velocity P-wave (km/s) = 30.58008 6.88961 22.16538
#
# Compressibility (1/GPa) = 0.01612292
#
# Stress axis : x y z
#
# Youngs Moduli (GPa) = 91.37401 79.68158 96.68638
#
# Poissons Ratio (x) = 0.24205 0.23851
# Poissons Ratio (y) = 0.27757 0.32413
# Poissons Ratio (z) = 0.22540 0.26712
#
# Static dielectric constant tensor:
#      x y z
#    x 3.460520 0.000000 0.000000 
#    y 0.000000 3.599310 0.000000 
#    z 0.000000 0.000000 3.667860 
# 
# 
# High freq. dielectric constant tensor:
#      x y z
#    x 1.735280 0.000000 0.000000 
#    y 0.000000 1.754170 0.000000 
#    z 0.000000 0.000000 1.759760 
# 
# From -- ./inp_files/36346.got.cif
#   From: 2010.06.25/outbox.cif.g09.slc.cpg/sg71_19_cif.got.tgz:36346.got - 2010.06.28 04:59:45.
