data_PCOD8289760
_publ_section_title
;
Structure prediction by ZEFSAII (Michael W. Deem and Ramdas Pophale) SiO2 
 PCOD8289760
Probable space group: I M M M
;
_chemical_formula_sum "Si O2"
_cell_formula_units_Z 112
_cell_length_a 15.127488
_cell_length_b 23.931806
_cell_length_c 18.941055
_cell_angle_alpha 90.000000
_cell_angle_beta 90.000000
_cell_angle_gamma 90.000000
_cell_volume 6857.194307
_symmetry_space_group_name_H-M "I M M M"
_symmetry_group_IT_number 71
_symmetry_cell_setting 'orthorhombic'
loop_
_space_group_symop_operation_xyz
x,y,z
-x,-y,z
x,-y,-z
-x,y,-z
-x,-y,-z
x,y,-z
-x,y,z
x,-y,z
1/2+x,1/2+y,1/2+z
1/2-x,1/2-y,1/2+z
1/2+x,1/2-y,1/2-z
1/2-x,1/2+y,1/2-z
1/2-x,1/2-y,1/2-z
1/2+x,1/2+y,1/2-z
1/2-x,1/2+y,1/2+z
1/2+x,1/2-y,1/2+z
loop_
_atom_site_type_symbol
_atom_site_label
_atom_site_fract_x
_atom_site_fract_y
_atom_site_fract_z
Si Si1 0.400202 0.832262 0.645908
Si Si2 0.103441 0.063974 0.684738
Si Si3 0.898737 0.158288 0.785562
Si Si4 0.398177 0.769562 0.222941
Si Si5 0.772555 0.125537 0.581745
Si Si6 0.168721 0.250450 0.423401
Si Si7 0.135122 0.785139 0.077826
O O1 0.500000 0.858299 0.642454
O O2 0.367448 0.821039 0.727177
O O3 0.328299 0.873826 0.611598
O O4 0.404875 0.772819 0.605852
O O5 0.137074 0.100520 0.752197
O O6 0.165181 0.079811 0.618502
O O7 0.000000 0.073787 0.665147
O O8 0.120306 0.000000 0.705114
O O9 0.850325 0.211896 0.748585
O O10 0.887510 0.163067 0.870212
O O11 0.000000 0.159474 0.764194
O O12 0.500000 0.762365 0.240240
O O13 0.384876 0.780026 0.139719
O O14 0.765968 0.109584 0.500000
O O15 0.818504 0.185300 0.593306
O O16 0.120491 0.257372 0.500000
O O17 0.260522 0.281788 0.427501
O O18 0.095499 0.797548 0.000000
#
# Coordination Sequence:
#
# PCOD8289760 Si02
#       7
#    16  16  16  16  16  16  16
#     4   9  18  29  45  70  98 126 154 184 214 260
#     4  10  21  36  51  67  88 114 152 201 240 271
#     4   9  17  28  44  64  84 114 153 185 220 266
#     4   9  16  26  41  63  91 126 159 180 214 265
#     4  10  20  31  47  69  90 120 156 186 228 277
#     4   9  17  26  38  63  96 125 152 183 218 261
#     4   9  17  26  41  67  96 125 151 178 217 264
#
# _framework density 16.333210999999999
#
# number of rings (size 3 to 8) (size 9 to 14) (size 15 to 20)
#    0.000    2.714    1.429    2.571    2.000    4.571 
#    0.000    2.143    0.000    0.857    0.000    3.000 
#    0.000    0.000    0.000    0.000    0.000   12.571 
#
# Total GULP energy -693766.863556 kJ/mol
# GULP energy per Si atom -12388.693992 kJ/mol
# Density = 1.629604 g / cm^3
# Si number density = 16.333211 Si / 1000 Ang^3
#
#
#
# Elastic Constant Matrix: (Units=GPa)
#
#
# Indices 1 2 3 4 5 6 
#
# 1 44.9393 24.3985 19.8595 0.0000 0.0000 0.0000
# 2 24.3985 47.7985 19.4812 0.0001 0.0000 0.0000
# 3 19.8595 19.4812 112.2050 0.0001 0.0000 0.0000
# 4 0.0000 0.0001 0.0001 13.2309 0.0000 0.0000
# 5 0.0000 0.0000 0.0000 0.0000 13.7656 0.0000
# 6 0.0000 0.0000 0.0000 0.0000 0.0000 16.7111
#
#
#
# Elastic Compliance Matrix: (Units=1/GPa)
#
#
# Indices 1 2 3 4 5 6 
#
# 1 0.031703 -0.014954 -0.003015 0.000000 0.000000 0.000000
# 2 -0.014954 0.029568 -0.002487 0.000000 0.000000 0.000000
# 3 -0.003015 -0.002487 0.009878 0.000000 0.000000 0.000000
# 4 0.000000 0.000000 0.000000 0.075581 0.000000 0.000000
# 5 0.000000 0.000000 0.000000 0.000000 0.072645 0.000000
# 6 0.000000 0.000000 0.000000 0.000000 0.000000 0.059841
#
#
# Mechanical properties :
#
#
# Convention : Reuss Voigt Hill
#
# Bulk Modulus (GPa) = 33.07173 36.93570 35.00372
# Shear Modulus (GPa) = 15.14208 18.15510 16.64859
#
# Velocity S-wave (km/s) = 3.04809 3.33760 3.19613
# Velocity P-wave (km/s) = 5.71663 6.12501 5.92434
#
# Compressibility (1/GPa) = 0.03023730
#
# Stress axis : x y z
#
# Youngs Moduli (GPa) = 31.54232 33.82042 101.23862
#
# Poissons Ratio (x) = 0.50575 0.30523
# Poissons Ratio (y) = 0.47169 0.25177
# Poissons Ratio (z) = 0.09510 0.08411
#
# Static dielectric constant tensor:
#      x y z
#    x 3.001850 0.000000 0.000000 
#    y 0.000000 2.671790 0.000000 
#    z 0.000000 0.000000 3.509510 
# 
# 
# High freq. dielectric constant tensor:
#      x y z
#    x 1.624340 0.000000 0.000000 
#    y 0.000000 1.559610 0.000000 
#    z 0.000000 0.000000 1.642420 
# 
# From -- ./inp_files/46574.got.cif
#   From: 2010.06.25/outbox.cif.g09.slc.cpg/sg71_24_cif.got.tgz:46574.got - 2010.06.28 04:59:45.
