data_PCOD8289608
_publ_section_title
;
Structure prediction by ZEFSAII (Michael W. Deem and Ramdas Pophale) SiO2 
 PCOD8289608
Probable space group: I M M M
;
_chemical_formula_sum "Si O2"
_cell_formula_units_Z 72
_cell_length_a 25.018136
_cell_length_b 16.217857
_cell_length_c 8.536535
_cell_angle_alpha 90.000000
_cell_angle_beta 90.000000
_cell_angle_gamma 90.000000
_cell_volume 3463.618424
_symmetry_space_group_name_H-M "I M M M"
_symmetry_group_IT_number 71
_symmetry_cell_setting 'orthorhombic'
loop_
_space_group_symop_operation_xyz
x,y,z
-x,-y,z
x,-y,-z
-x,y,-z
-x,-y,-z
x,y,-z
-x,y,z
x,-y,z
1/2+x,1/2+y,1/2+z
1/2-x,1/2-y,1/2+z
1/2+x,1/2-y,1/2-z
1/2-x,1/2+y,1/2-z
1/2-x,1/2-y,1/2-z
1/2+x,1/2+y,1/2-z
1/2-x,1/2+y,1/2+z
1/2+x,1/2-y,1/2+z
loop_
_atom_site_type_symbol
_atom_site_label
_atom_site_fract_x
_atom_site_fract_y
_atom_site_fract_z
Si Si1 0.776478 0.166111 0.313493
Si Si2 0.939621 0.646805 0.676051
Si Si3 0.000000 0.095405 0.684486
Si Si4 0.725915 0.000000 0.181566
Si Si5 0.614475 0.000000 0.323935
Si Si6 0.105105 0.178965 0.679656
O O1 0.776044 0.172462 0.500000
O O2 0.750000 0.250000 0.250000
O O3 0.746619 0.083557 0.261037
O O4 0.837201 0.156969 0.246834
O O5 0.934697 0.611012 0.500000
O O6 0.922935 0.578783 0.800486
O O7 0.900625 0.723487 0.697976
O O8 0.000000 0.676092 0.709275
O O9 0.054362 0.133254 0.760786
O O10 0.000000 0.116264 0.500000
O O11 0.000000 0.000000 0.722320
O O12 0.662253 0.000000 0.199845
O O13 0.741495 0.000000 0.000000
O O14 0.637323 0.000000 0.500000
O O15 0.105729 0.150747 0.500000
#
# Coordination Sequence:
#
# PCOD8289608 Si02
#       6
#    16  16   8   8   8  16
#     4  11  23  40  64  95 129 166 209 259 314 377
#     4  10  19  35  59  88 123 162 202 240 289 360
#     4   9  16  28  52  87 120 147 185 238 290 340
#     4  12  26  45  65  87 119 163 215 269 324 379
#     4  12  25  39  58  85 117 153 202 259 315 373
#     4   9  18  33  56  88 122 155 195 242 292 352
#
# _framework density 20.787509
#
# number of rings (size 3 to 8) (size 9 to 14) (size 15 to 20)
#    0.000    1.667    1.111    4.333    1.556    3.556 
#    0.000    1.111    0.000    0.000    0.000    0.778 
#    0.000    0.000    0.000    0.000    0.000    0.000 
#
# Total GULP energy -446322.190932 kJ/mol
# GULP energy per Si atom -12397.838637 kJ/mol
# Density = 2.074020 g / cm^3
# Si number density = 20.787509 Si / 1000 Ang^3
#
#
#
# Elastic Constant Matrix: (Units=GPa)
#
#
# Indices 1 2 3 4 5 6 
#
# 1 120.3842 47.7213 24.7404 0.0000 0.0000 0.0000
# 2 47.7213 108.7062 25.2917 0.0000 0.0000 0.0000
# 3 24.7404 25.2917 61.1663 0.0000 0.0000 0.0000
# 4 0.0000 0.0000 0.0000 15.3904 0.0000 0.0000
# 5 0.0000 0.0000 0.0000 0.0000 23.3166 0.0000
# 6 0.0000 0.0000 0.0000 0.0000 0.0000 56.8569
#
#
#
# Elastic Compliance Matrix: (Units=1/GPa)
#
#
# Indices 1 2 3 4 5 6 
#
# 1 0.010409 -0.003972 -0.002568 0.000000 0.000000 0.000000
# 2 -0.003972 0.011694 -0.003229 0.000000 0.000000 0.000000
# 3 -0.002568 -0.003229 0.018723 0.000000 0.000000 0.000000
# 4 0.000000 0.000000 0.000000 0.064976 0.000000 0.000000
# 5 0.000000 0.000000 0.000000 0.000000 0.042888 0.000000
# 6 0.000000 0.000000 0.000000 0.000000 0.000000 0.017588
#
#
# Mechanical properties :
#
#
# Convention : Reuss Voigt Hill
#
# Bulk Modulus (GPa) = 46.97409 53.97372 50.47390
# Shear Modulus (GPa) = 25.91875 31.94634 28.93255
#
# Velocity S-wave (km/s) = 3.53490 3.92446 3.73476
# Velocity P-wave (km/s) = 6.26953 6.82320 6.55222
#
# Compressibility (1/GPa) = 0.02128833
#
# Stress axis : x y z
#
# Youngs Moduli (GPa) = 96.07068 85.51382 53.41155
#
# Poissons Ratio (x) = 0.33967 0.13715
# Poissons Ratio (y) = 0.38160 0.17245
# Poissons Ratio (z) = 0.24669 0.27610
#
# Static dielectric constant tensor:
#      x y z
#    x 4.098720 0.000000 0.000000 
#    y 0.000000 3.679150 0.000000 
#    z 0.000000 0.000000 3.365750 
# 
# 
# High freq. dielectric constant tensor:
#      x y z
#    x 1.835900 0.000000 0.000000 
#    y 0.000000 1.822000 0.000000 
#    z 0.000000 0.000000 1.769340 
# 
# From -- ./inp_files/14387.got.cif
#   From: 2010.06.25/outbox.cif.g09.slc.cpg/sg71_8_cif.got.tgz:14387.got - 2010.06.28 04:59:45.
