data_PCOD8289209
_publ_section_title
;
Structure prediction by ZEFSAII (Michael W. Deem and Ramdas Pophale) SiO2 
 PCOD8289209
Probable space group: I M M M
;
_chemical_formula_sum "Si O2"
_cell_formula_units_Z 80
_cell_length_a 17.948426
_cell_length_b 8.583523
_cell_length_c 27.757192
_cell_angle_alpha 90.000000
_cell_angle_beta 90.000000
_cell_angle_gamma 90.000000
_cell_volume 4276.293190
_symmetry_space_group_name_H-M "I M M M"
_symmetry_group_IT_number 71
_symmetry_cell_setting 'orthorhombic'
loop_
_space_group_symop_operation_xyz
x,y,z
-x,-y,z
x,-y,-z
-x,y,-z
-x,-y,-z
x,y,-z
-x,y,z
x,-y,z
1/2+x,1/2+y,1/2+z
1/2-x,1/2-y,1/2+z
1/2+x,1/2-y,1/2-z
1/2-x,1/2+y,1/2-z
1/2-x,1/2-y,1/2-z
1/2+x,1/2+y,1/2-z
1/2-x,1/2+y,1/2+z
1/2+x,1/2-y,1/2+z
loop_
_atom_site_type_symbol
_atom_site_label
_atom_site_fract_x
_atom_site_fract_y
_atom_site_fract_z
Si Si1 0.338990 0.819418 0.693044
Si Si2 0.268328 0.184107 0.554332
Si Si3 0.580702 0.182097 0.402770
Si Si4 0.197026 0.318096 0.645829
Si Si5 0.414287 0.682096 0.214384
O O1 0.401442 0.783045 0.653028
O O2 0.265402 0.721099 0.681266
O O3 0.371600 0.775559 0.744332
O O4 0.315882 0.000000 0.692376
O O5 0.244782 0.226343 0.500000
O O6 0.352564 0.247668 0.563833
O O7 0.211917 0.266148 0.590902
O O8 0.265776 0.000000 0.564106
O O9 0.500000 0.259573 0.415102
O O10 0.574214 0.000000 0.412154
O O11 0.181193 0.500000 0.647100
O O12 0.123467 0.227876 0.663763
O O13 0.500000 0.734250 0.212673
O O14 0.406457 0.500000 0.224422
#
# Coordination Sequence:
#
# PCOD8289209 Si02
#       5
#    16  16  16  16  16
#     4  10  19  33  53  77 108 144 181 214 249 298
#     4   9  18  33  53  76 102 134 173 218 268 318
#     4   8  14  25  44  73 106 137 170 208 247 290
#     4  11  22  36  55  77 104 138 177 218 258 305
#     4  11  23  37  54  78 108 138 169 210 262 316
#
# _framework density 18.707789999999999
#
# number of rings (size 3 to 8) (size 9 to 14) (size 15 to 20)
#    0.000    2.200    0.000    5.400    0.000    3.200 
#    0.000    2.000    0.000    6.000    0.000    9.800 
#    0.000    0.000    0.000    0.000    0.000    0.000 
#
# Total GULP energy -495955.673980 kJ/mol
# GULP energy per Si atom -12398.891849 kJ/mol
# Density = 1.866521 g / cm^3
# Si number density = 18.707790 Si / 1000 Ang^3
#
#
#
# Elastic Constant Matrix: (Units=GPa)
#
#
# Indices 1 2 3 4 5 6 
#
# 1 67.3990 14.1319 43.2390 0.0000 0.0000 0.0000
# 2 14.1319 43.4456 16.0234 0.0000 0.0000 0.0000
# 3 43.2390 16.0234 104.9469 0.0000 0.0000 0.0000
# 4 0.0000 0.0000 0.0000 26.2137 0.0000 0.0000
# 5 0.0000 0.0000 0.0000 0.0000 15.8882 0.0000
# 6 0.0000 0.0000 0.0000 0.0000 0.0000 18.5739
#
#
#
# Elastic Compliance Matrix: (Units=1/GPa)
#
#
# Indices 1 2 3 4 5 6 
#
# 1 0.020746 -0.003810 -0.007966 0.000000 0.000000 0.000000
# 2 -0.003810 0.025091 -0.002261 0.000000 0.000000 0.000000
# 3 -0.007966 -0.002261 0.013156 0.000000 0.000000 0.000000
# 4 0.000000 0.000000 0.000000 0.038148 0.000000 0.000000
# 5 0.000000 0.000000 0.000000 0.000000 0.062940 0.000000
# 6 0.000000 0.000000 0.000000 0.000000 0.000000 0.053839
#
#
# Mechanical properties :
#
#
# Convention : Reuss Voigt Hill
#
# Bulk Modulus (GPa) = 32.34325 40.28667 36.31496
# Shear Modulus (GPa) = 19.81766 21.62830 20.72298
#
# Velocity S-wave (km/s) = 3.25826 3.40385 3.33185
# Velocity P-wave (km/s) = 5.61081 6.08521 5.85282
#
# Compressibility (1/GPa) = 0.03091835
#
# Stress axis : x y z
#
# Youngs Moduli (GPa) = 48.20115 39.85551 76.01180
#
# Poissons Ratio (x) = 0.15187 0.60550
# Poissons Ratio (y) = 0.18367 0.17186
# Poissons Ratio (z) = 0.38397 0.09011
#
# Static dielectric constant tensor:
#      x y z
#    x 3.595800 0.000000 0.000000 
#    y 0.000000 3.211810 0.000000 
#    z 0.000000 0.000000 3.401540 
# 
# 
# High freq. dielectric constant tensor:
#      x y z
#    x 1.716770 0.000000 0.000000 
#    y 0.000000 1.709780 0.000000 
#    z 0.000000 0.000000 1.719960 
# 
# From -- ./inp_files/8626.got.cif
#   From: 2010.06.25/outbox.cif.g09.slc.cpg/sg71_5_cif.got.tgz:8626.got - 2010.06.28 04:59:45.
