data_PCOD8289335
_publ_section_title
;
Structure prediction by ZEFSAII (Michael W. Deem and Ramdas Pophale) SiO2 
 PCOD8289335
Probable space group: I M M M
;
_chemical_formula_sum "Si O2"
_cell_formula_units_Z 104
_cell_length_a 17.897482
_cell_length_b 11.486968
_cell_length_c 27.635583
_cell_angle_alpha 90.000000
_cell_angle_beta 90.000000
_cell_angle_gamma 90.000000
_cell_volume 5681.538794
_symmetry_space_group_name_H-M "I M M M"
_symmetry_group_IT_number 71
_symmetry_cell_setting 'orthorhombic'
loop_
_space_group_symop_operation_xyz
x,y,z
-x,-y,z
x,-y,-z
-x,y,-z
-x,-y,-z
x,y,-z
-x,y,z
x,-y,z
1/2+x,1/2+y,1/2+z
1/2-x,1/2-y,1/2+z
1/2+x,1/2-y,1/2-z
1/2-x,1/2+y,1/2-z
1/2-x,1/2-y,1/2-z
1/2+x,1/2+y,1/2-z
1/2-x,1/2+y,1/2+z
1/2+x,1/2-y,1/2+z
loop_
_atom_site_type_symbol
_atom_site_label
_atom_site_fract_x
_atom_site_fract_y
_atom_site_fract_z
Si Si1 0.179071 0.363800 0.702577
Si Si2 0.500000 0.868488 0.057157
Si Si3 0.845149 0.205956 0.212860
Si Si4 0.776823 0.864936 0.943939
Si Si5 0.415958 0.634110 0.380269
Si Si6 0.915795 0.000000 0.619602
Si Si7 0.638785 0.751318 0.893313
Si Si8 0.417220 0.500000 0.233247
O O1 0.164699 0.500000 0.696934
O O2 0.156340 0.326868 0.757300
O O3 0.264748 0.331037 0.692635
O O4 0.131085 0.296271 0.661954
O O5 0.426236 0.807014 0.075608
O O6 0.500000 0.000000 0.076172
O O7 0.500000 0.862723 0.000000
O O8 0.898965 0.214890 0.166379
O O9 0.872149 0.112594 0.251389
O O10 0.859899 0.838463 0.924101
O O11 0.718336 0.785985 0.915444
O O12 0.755260 0.000000 0.936178
O O13 0.776114 0.830927 0.000000
O O14 0.500000 0.659681 0.398523
O O15 0.407062 0.500000 0.363169
O O16 0.869313 0.887587 0.602892
O O17 0.923713 0.000000 0.676489
O O18 0.000000 0.000000 0.597256
O O19 0.500000 0.500000 0.256920
#
# Coordination Sequence:
#
# PCOD8289335 Si02
#       8
#    16   8  16  16  16   8  16   8
#     4  11  22  35  56  84 121 155 193 240 286 348
#     4  11  24  41  63  87 115 154 199 241 298 365
#     4  11  20  34  54  85 118 154 196 231 284 344
#     4  10  21  38  60  88 120 151 192 245 297 355
#     4  10  19  33  57  87 120 156 194 238 291 350
#     4  11  24  42  58  86 119 151 200 250 294 349
#     4  12  22  40  62  86 115 156 195 247 301 347
#     4  11  20  34  56  80 115 156 193 232 280 344
#
# _framework density 18.304901000000001
#
# number of rings (size 3 to 8) (size 9 to 14) (size 15 to 20)
#    0.000    1.154    5.385    2.308    0.000    1.538 
#    1.385    3.462    0.000    0.000    0.000    0.000 
#    0.000    1.231    0.000    0.000    0.000    0.000 
#
# Total GULP energy -644920.467721 kJ/mol
# GULP energy per Si atom -12402.316687 kJ/mol
# Density = 1.826324 g / cm^3
# Si number density = 18.304901 Si / 1000 Ang^3
#
#
#
# Elastic Constant Matrix: (Units=GPa)
#
#
# Indices 1 2 3 4 5 6 
#
# 1 93.2772 37.4693 34.9388 0.0000 0.0000 0.0000
# 2 37.4693 116.9289 40.7271 0.0000 0.0000 0.0000
# 3 34.9388 40.7271 79.5521 0.0000 0.0000 0.0000
# 4 0.0000 0.0000 0.0000 23.9124 0.0000 0.0000
# 5 0.0000 0.0000 0.0000 0.0000 13.6301 0.0000
# 6 0.0000 0.0000 0.0000 0.0000 0.0000 -54.5085
#
#
#
# Elastic Compliance Matrix: (Units=1/GPa)
#
#
# Indices 1 2 3 4 5 6 
#
# 1 0.013524 -0.002756 -0.004529 0.000000 0.000000 0.000000
# 2 -0.002756 0.010970 -0.004406 0.000000 0.000000 0.000000
# 3 -0.004529 -0.004406 0.016815 0.000000 0.000000 0.000000
# 4 0.000000 0.000000 0.000000 0.041819 0.000000 0.000000
# 5 0.000000 0.000000 0.000000 0.000000 0.073367 0.000000
# 6 0.000000 0.000000 0.000000 0.000000 0.000000 -0.018346
#
#
# Mechanical properties :
#
#
# Convention : Reuss Voigt Hill
#
# Bulk Modulus (GPa) = 55.77914 57.33652 56.55783
# Shear Modulus (GPa) = 29.84956 8.38167 19.11562
#
# Velocity S-wave (km/s) = 4.04256 2.14216 3.23505
# Velocity P-wave (km/s) = 7.23382 6.12450 6.70215
#
# Compressibility (1/GPa) = 0.01792785
#
# Stress axis : x y z
#
# Youngs Moduli (GPa) = 73.94117 91.15802 59.47166
#
# Poissons Ratio (x) = 0.25127 0.26932
# Poissons Ratio (y) = 0.20382 0.26200
# Poissons Ratio (z) = 0.33485 0.40160
#
# Static dielectric constant tensor:
#      x y z
#    x 3.510520 0.000000 0.000000 
#    y 0.000000 3.292570 0.000000 
#    z 0.000000 0.000000 3.357590 
# 
# 
# High freq. dielectric constant tensor:
#      x y z
#    x 1.715460 0.000000 0.000000 
#    y 0.000000 1.685590 0.000000 
#    z 0.000000 0.000000 1.713860 
# 
# From -- ./inp_files/66052.got.cif
#   From: 2010.06.25/outbox.cif.g09.slc.cpg/sg71_34_cif.got.tgz:66052.got - 2010.06.28 04:59:45.
