data_PCOD8289937
_publ_section_title
;
Structure prediction by ZEFSAII (Michael W. Deem and Ramdas Pophale) SiO2 
 PCOD8289937
Probable space group: I M M M
;
_chemical_formula_sum "Si O2"
_cell_formula_units_Z 88
_cell_length_a 24.438873
_cell_length_b 9.554494
_cell_length_c 20.189357
_cell_angle_alpha 90.000000
_cell_angle_beta 90.000000
_cell_angle_gamma 90.000000
_cell_volume 4714.236370
_symmetry_space_group_name_H-M "I M M M"
_symmetry_group_IT_number 71
_symmetry_cell_setting 'orthorhombic'
loop_
_space_group_symop_operation_xyz
x,y,z
-x,-y,z
x,-y,-z
-x,y,-z
-x,-y,-z
x,y,-z
-x,y,z
x,-y,z
1/2+x,1/2+y,1/2+z
1/2-x,1/2-y,1/2+z
1/2+x,1/2-y,1/2-z
1/2-x,1/2+y,1/2-z
1/2-x,1/2-y,1/2-z
1/2+x,1/2+y,1/2-z
1/2-x,1/2+y,1/2+z
1/2+x,1/2-y,1/2+z
loop_
_atom_site_type_symbol
_atom_site_label
_atom_site_fract_x
_atom_site_fract_y
_atom_site_fract_z
Si Si1 0.755979 0.664533 0.318100
Si Si2 0.063482 0.333664 0.500000
Si Si3 0.673173 0.666534 0.428136
Si Si4 0.624435 0.162688 0.131743
Si Si5 0.941335 0.165926 0.884525
Si Si6 0.938202 0.843414 0.733612
O O1 0.749710 0.500000 0.301401
O O2 0.750000 0.750000 0.250000
O O3 0.709185 0.722918 0.367405
O O4 0.811128 0.692143 0.360142
O O5 0.062656 0.500000 0.500000
O O6 0.097942 0.278256 0.436462
O O7 0.000000 0.278241 0.500000
O O8 0.696548 0.714090 0.500000
O O9 0.672979 0.500000 0.423646
O O10 0.610994 0.725890 0.423491
O O11 0.597075 0.236133 0.193177
O O12 0.611138 0.000000 0.136688
O O13 0.935116 0.209388 0.808464
O O14 0.000000 0.224362 0.911937
O O15 0.942742 0.000000 0.890355
O O16 0.000000 0.841647 0.707085
O O17 0.913710 0.000000 0.726831
#
# Coordination Sequence:
#
# PCOD8289937 Si02
#       6
#    16   8  16  16  16  16
#     4  10  21  35  53  76 101 133 173 215 259 309
#     4   9  18  32  49  71 101 133 164 208 264 313
#     4   9  17  28  45  69  97 128 162 203 248 293
#     4  10  20  32  50  73  98 131 170 211 256 308
#     4   8  14  25  42  66  95 126 159 195 242 296
#     4   9  17  30  49  72 100 133 165 202 250 300
#
# _framework density 18.666861999999998
#
# number of rings (size 3 to 8) (size 9 to 14) (size 15 to 20)
#    0.000    2.818    0.000    2.727    1.273    3.636 
#    0.000    2.273    0.000    2.182    0.000    0.000 
#    0.000    0.000    0.000   15.636    0.000   12.727 
#
# Total GULP energy -545155.981533 kJ/mol
# GULP energy per Si atom -12389.908671 kJ/mol
# Density = 1.862438 g / cm^3
# Si number density = 18.666862 Si / 1000 Ang^3
#
#
#
# Elastic Constant Matrix: (Units=GPa)
#
#
# Indices 1 2 3 4 5 6 
#
# 1 122.3652 24.3554 73.8274 0.0000 0.0000 0.0000
# 2 24.3554 21.1812 26.7158 0.0000 0.0000 0.0000
# 3 73.8274 26.7158 116.9186 0.0000 0.0000 0.0000
# 4 0.0000 0.0000 0.0000 19.7836 0.0000 0.0000
# 5 0.0000 0.0000 0.0000 0.0000 43.9896 0.0000
# 6 0.0000 0.0000 0.0000 0.0000 0.0000 19.1510
#
#
#
# Elastic Compliance Matrix: (Units=1/GPa)
#
#
# Indices 1 2 3 4 5 6 
#
# 1 0.013883 -0.006893 -0.007191 0.000000 0.000000 0.000000
# 2 -0.006893 0.069750 -0.011585 0.000000 0.000000 0.000000
# 3 -0.007191 -0.011585 0.015741 0.000000 0.000000 0.000000
# 4 0.000000 0.000000 0.000000 0.050547 0.000000 0.000000
# 5 0.000000 0.000000 0.000000 0.000000 0.022733 0.000000
# 6 0.000000 0.000000 0.000000 0.000000 0.000000 0.052217
#
#
# Mechanical properties :
#
#
# Convention : Reuss Voigt Hill
#
# Bulk Modulus (GPa) = 20.81815 56.69578 38.75697
# Shear Modulus (GPa) = 17.11031 25.62260 21.36646
#
# Velocity S-wave (km/s) = 3.03085 3.70891 3.38689
# Velocity P-wave (km/s) = 4.83991 6.98425 6.00851
#
# Compressibility (1/GPa) = 0.04803501
#
# Stress axis : x y z
#
# Youngs Moduli (GPa) = 72.03050 14.33686 63.52838
#
# Poissons Ratio (x) = 0.09883 0.45685
# Poissons Ratio (y) = 0.49653 0.73599
# Poissons Ratio (z) = 0.51799 0.16609
#
# Static dielectric constant tensor:
#      x y z
#    x 3.958620 0.000000 0.000000 
#    y 0.000000 2.893110 0.000000 
#    z 0.000000 0.000000 3.586190 
# 
# 
# High freq. dielectric constant tensor:
#      x y z
#    x 1.743090 0.000000 0.000000 
#    y 0.000000 1.657650 0.000000 
#    z 0.000000 0.000000 1.731420 
# 
# From -- ./inp_files/10477.got.cif
#   From: 2010.06.25/outbox.cif.g09.slc.cpg/sg71_6_cif.got.tgz:10477.got - 2010.06.28 04:59:45.
