data_PCOD8289622
_publ_section_title
;
Structure prediction by ZEFSAII (Michael W. Deem and Ramdas Pophale) SiO2 
 PCOD8289622
Probable space group: I M M M
;
_chemical_formula_sum "Si O2"
_cell_formula_units_Z 52
_cell_length_a 10.376389
_cell_length_b 11.188747
_cell_length_c 22.418003
_cell_angle_alpha 90.000000
_cell_angle_beta 90.000000
_cell_angle_gamma 90.000000
_cell_volume 2602.703052
_symmetry_space_group_name_H-M "I M M M"
_symmetry_group_IT_number 71
_symmetry_cell_setting 'orthorhombic'
loop_
_space_group_symop_operation_xyz
x,y,z
-x,-y,z
x,-y,-z
-x,y,-z
-x,-y,-z
x,y,-z
-x,y,z
x,-y,z
1/2+x,1/2+y,1/2+z
1/2-x,1/2-y,1/2+z
1/2+x,1/2-y,1/2-z
1/2-x,1/2+y,1/2-z
1/2-x,1/2-y,1/2-z
1/2+x,1/2+y,1/2-z
1/2-x,1/2+y,1/2+z
1/2+x,1/2-y,1/2+z
loop_
_atom_site_type_symbol
_atom_site_label
_atom_site_fract_x
_atom_site_fract_y
_atom_site_fract_z
Si Si1 0.500000 0.642986 0.197518
Si Si2 0.855761 0.139633 0.500000
Si Si3 0.000000 0.772005 0.830143
Si Si4 0.271331 0.743352 0.880548
Si Si5 0.224555 0.500000 0.433328
Si Si6 0.000000 0.000000 0.092291
O O1 0.500000 0.500000 0.205470
O O2 0.500000 0.712894 0.259468
O O3 0.625075 0.684379 0.162308
O O4 0.772861 0.179462 0.443882
O O5 0.000000 0.197399 0.500000
O O6 0.871892 0.000000 0.500000
O O7 0.133135 0.710329 0.851298
O O8 0.000000 0.896096 0.861338
O O9 0.306538 0.883632 0.892685
O O10 0.157051 0.500000 0.500000
O O11 0.375802 0.500000 0.449490
#
# Coordination Sequence:
#
# PCOD8289622 Si02
#       6
#     8   8   8  16   8   4
#     4  12  24  44  66  88 126 178 218 251 311 388
#     4  11  22  42  66  93 128 173 213 247 310 390
#     4  10  22  42  64  93 125 162 217 265 313 360
#     4  11  23  40  67  96 126 167 209 265 317 375
#     4  10  19  35  60  95 127 155 201 258 323 370
#     4   8  17  34  60  88 120 161 200 250 314 382
#
# _framework density 19.979230000000001
#
# number of rings (size 3 to 8) (size 9 to 14) (size 15 to 20)
#    0.000    1.385    3.846    2.077    0.000    1.231 
#    0.000    5.385    6.769    0.000    0.000    0.000 
#    0.000    0.000    0.000    0.000    0.000    0.000 
#
# Total GULP energy -322163.550219 kJ/mol
# GULP energy per Si atom -12390.905778 kJ/mol
# Density = 1.993376 g / cm^3
# Si number density = 19.979230 Si / 1000 Ang^3
#
#
#
# Elastic Constant Matrix: (Units=GPa)
#
#
# Indices 1 2 3 4 5 6 
#
# 1 155.7569 37.4088 72.9518 0.0000 0.0000 0.0000
# 2 37.4088 72.0640 28.3317 0.0000 0.0000 0.0000
# 3 72.9518 28.3317 170.7802 0.0000 0.0000 0.0000
# 4 0.0000 0.0000 0.0000 37.8306 0.0000 0.0000
# 5 0.0000 0.0000 0.0000 0.0000 56.1416 0.0000
# 6 0.0000 0.0000 0.0000 0.0000 0.0000 13.5264
#
#
#
# Elastic Compliance Matrix: (Units=1/GPa)
#
#
# Indices 1 2 3 4 5 6 
#
# 1 0.008689 -0.003264 -0.003170 0.000000 0.000000 0.000000
# 2 -0.003264 0.016071 -0.001272 0.000000 0.000000 0.000000
# 3 -0.003170 -0.001272 0.007421 0.000000 0.000000 0.000000
# 4 0.000000 0.000000 0.000000 0.026434 0.000000 0.000000
# 5 0.000000 0.000000 0.000000 0.000000 0.017812 0.000000
# 6 0.000000 0.000000 0.000000 0.000000 0.000000 0.073929
#
#
# Mechanical properties :
#
#
# Convention : Reuss Voigt Hill
#
# Bulk Modulus (GPa) = 59.63571 75.10951 67.37261
# Shear Modulus (GPa) = 29.17878 38.82698 34.00288
#
# Velocity S-wave (km/s) = 3.82574 4.41315 4.12990
# Velocity P-wave (km/s) = 7.03055 7.97767 7.51904
#
# Compressibility (1/GPa) = 0.01676848
#
# Stress axis : x y z
#
# Youngs Moduli (GPa) = 115.08741 62.22389 134.75904
#
# Poissons Ratio (x) = 0.20311 0.42721
# Poissons Ratio (y) = 0.37567 0.17138
# Poissons Ratio (z) = 0.36485 0.07913
#
# Static dielectric constant tensor:
#      x y z
#    x 4.059160 0.000000 0.000000 
#    y 0.000000 3.665060 0.000000 
#    z 0.000000 0.000000 2.764040 
# 
# 
# High freq. dielectric constant tensor:
#      x y z
#    x 1.784190 0.000000 0.000000 
#    y 0.000000 1.771750 0.000000 
#    z 0.000000 0.000000 1.793500 
# 
# From -- ./inp_files/51435.got.cif
#   From: 2010.06.25/outbox.cif.g09.slc.cpg/sg71_26_cif.got.tgz:51435.got - 2010.06.28 04:59:45.
