data_PCOD8289055
_publ_section_title
;
Structure prediction by ZEFSAII (Michael W. Deem and Ramdas Pophale) SiO2 
 PCOD8289055
Probable space group: I M M M
;
_chemical_formula_sum "Si O2"
_cell_formula_units_Z 104
_cell_length_a 27.118312
_cell_length_b 11.488580
_cell_length_c 18.627194
_cell_angle_alpha 90.000000
_cell_angle_beta 90.000000
_cell_angle_gamma 90.000000
_cell_volume 5803.318997
_symmetry_space_group_name_H-M "I M M M"
_symmetry_group_IT_number 71
_symmetry_cell_setting 'orthorhombic'
loop_
_space_group_symop_operation_xyz
x,y,z
-x,-y,z
x,-y,-z
-x,y,-z
-x,-y,-z
x,y,-z
-x,y,z
x,-y,z
1/2+x,1/2+y,1/2+z
1/2-x,1/2-y,1/2+z
1/2+x,1/2-y,1/2-z
1/2-x,1/2+y,1/2-z
1/2-x,1/2-y,1/2-z
1/2+x,1/2+y,1/2-z
1/2-x,1/2+y,1/2+z
1/2+x,1/2-y,1/2+z
loop_
_atom_site_type_symbol
_atom_site_label
_atom_site_fract_x
_atom_site_fract_y
_atom_site_fract_z
Si Si1 0.193339 0.500000 0.415640
Si Si2 0.186409 0.218247 0.174441
Si Si3 0.143471 0.267449 0.584985
Si Si4 0.087927 0.365866 0.819796
Si Si5 0.193527 0.000000 0.084596
Si Si6 0.781495 0.134244 0.670597
Si Si7 0.000000 0.361328 0.918410
Si Si8 0.943989 0.367502 0.659085
O O1 0.185521 0.500000 0.500000
O O2 0.169178 0.615875 0.383242
O O3 0.249582 0.500000 0.393129
O O4 0.139293 0.299766 0.178830
O O5 0.171358 0.117207 0.118454
O O6 0.199081 0.162892 0.250632
O O7 0.233510 0.291889 0.147441
O O8 0.143164 0.259611 0.500000
O O9 0.173911 0.158591 0.615285
O O10 0.087924 0.273397 0.614733
O O11 0.099832 0.500000 0.835562
O O12 0.062278 0.349002 0.743407
O O13 0.049523 0.315769 0.878854
O O14 0.183887 0.000000 0.000000
O O15 0.766737 0.000000 0.665740
O O16 0.000000 0.500000 0.914760
O O17 0.000000 0.314843 0.000000
O O18 0.929650 0.500000 0.637155
O O19 0.000000 0.341848 0.637843
#
# Coordination Sequence:
#
# PCOD8289055 Si02
#       8
#     8  16  16  16   8  16   8  16
#     4   9  18  34  53  78 114 155 187 213 274 343
#     4  11  22  36  58  85 115 149 187 232 281 333
#     4  11  21  35  56  81 115 156 187 226 280 337
#     4  10  19  34  57  86 117 148 184 229 286 341
#     4  11  22  38  58  82 115 151 188 229 277 337
#     4  11  23  37  55  84 117 150 190 232 275 331
#     4   9  18  34  56  83 116 150 183 225 283 349
#     4  10  19  32  54  85 117 146 183 236 288 334
#
# _framework density 17.920779
#
# number of rings (size 3 to 8) (size 9 to 14) (size 15 to 20)
#    0.000    1.615    5.385    0.462    0.000    1.231 
#    0.000    0.769    0.000    3.692    0.000    2.154 
#    0.000    0.000    0.000    0.000    0.000    0.000 
#
# Total GULP energy -644855.462546 kJ/mol
# GULP energy per Si atom -12401.066587 kJ/mol
# Density = 1.787999 g / cm^3
# Si number density = 17.920779 Si / 1000 Ang^3
#
#
#
# Elastic Constant Matrix: (Units=GPa)
#
#
# Indices 1 2 3 4 5 6 
#
# 1 74.6689 35.4639 15.2509 0.0000 0.0000 0.0000
# 2 35.4639 83.6684 32.5137 0.0000 0.0000 0.0000
# 3 15.2509 32.5137 71.9594 0.0000 0.0000 0.0000
# 4 0.0000 0.0000 0.0000 23.4021 0.0000 0.0000
# 5 0.0000 0.0000 0.0000 0.0000 23.7378 0.0000
# 6 0.0000 0.0000 0.0000 0.0000 0.0000 21.6865
#
#
#
# Elastic Compliance Matrix: (Units=1/GPa)
#
#
# Indices 1 2 3 4 5 6 
#
# 1 0.016778 -0.006950 -0.000416 0.000000 0.000000 0.000000
# 2 -0.006950 0.017376 -0.006378 0.000000 0.000000 0.000000
# 3 -0.000416 -0.006378 0.016867 0.000000 0.000000 0.000000
# 4 0.000000 0.000000 0.000000 0.042731 0.000000 0.000000
# 5 0.000000 0.000000 0.000000 0.000000 0.042127 0.000000
# 6 0.000000 0.000000 0.000000 0.000000 0.000000 0.046112
#
#
# Mechanical properties :
#
#
# Convention : Reuss Voigt Hill
#
# Bulk Modulus (GPa) = 42.49289 44.08375 43.28832
# Shear Modulus (GPa) = 23.00712 23.56981 23.28847
#
# Velocity S-wave (km/s) = 3.58694 3.63053 3.60880
# Velocity P-wave (km/s) = 6.39670 6.49823 6.44767
#
# Compressibility (1/GPa) = 0.02353335
#
# Stress axis : x y z
#
# Youngs Moduli (GPa) = 59.60063 57.54910 59.28837
#
# Poissons Ratio (x) = 0.39998 0.02464
# Poissons Ratio (y) = 0.41424 0.37816
# Poissons Ratio (z) = 0.02477 0.36706
#
# Static dielectric constant tensor:
#      x y z
#    x 3.380270 0.000000 0.000000 
#    y 0.000000 3.194890 0.000000 
#    z 0.000000 0.000000 3.238570 
# 
# 
# High freq. dielectric constant tensor:
#      x y z
#    x 1.696970 0.000000 0.000000 
#    y 0.000000 1.667410 0.000000 
#    z 0.000000 0.000000 1.692670 
# 
# From -- ./inp_files/24637.got.cif
#   From: 2010.06.25/outbox.cif.g09.slc.cpg/sg71_13_cif.got.tgz:24637.got - 2010.06.28 04:59:45.
