data_PCOD8289278
_publ_section_title
;
Structure prediction by ZEFSAII (Michael W. Deem and Ramdas Pophale) SiO2 
 PCOD8289278
Probable space group: I M M M
;
_chemical_formula_sum "Si O2"
_cell_formula_units_Z 72
_cell_length_a 32.926067
_cell_length_b 8.513424
_cell_length_c 13.474815
_cell_angle_alpha 90.000000
_cell_angle_beta 90.000000
_cell_angle_gamma 90.000000
_cell_volume 3777.173485
_symmetry_space_group_name_H-M "I M M M"
_symmetry_group_IT_number 71
_symmetry_cell_setting 'orthorhombic'
loop_
_space_group_symop_operation_xyz
x,y,z
-x,-y,z
x,-y,-z
-x,y,-z
-x,-y,-z
x,y,-z
-x,y,z
x,-y,z
1/2+x,1/2+y,1/2+z
1/2-x,1/2-y,1/2+z
1/2+x,1/2-y,1/2-z
1/2-x,1/2+y,1/2-z
1/2-x,1/2-y,1/2-z
1/2+x,1/2+y,1/2-z
1/2-x,1/2+y,1/2+z
1/2+x,1/2-y,1/2+z
loop_
_atom_site_type_symbol
_atom_site_label
_atom_site_fract_x
_atom_site_fract_y
_atom_site_fract_z
Si Si1 0.500000 0.814476 0.386368
Si Si2 0.133607 0.185267 0.612691
Si Si3 0.206367 0.320304 0.271924
Si Si4 0.083664 0.685792 0.792366
Si Si5 0.156350 0.823983 0.887874
O O1 0.500000 0.744698 0.500000
O O2 0.461820 0.759678 0.319390
O O3 0.500000 0.000000 0.397260
O O4 0.126191 0.243095 0.500000
O O5 0.179568 0.232616 0.644342
O O6 0.099081 0.262241 0.682913
O O7 0.129285 0.000000 0.620560
O O8 0.210875 0.500000 0.304087
O O9 0.250000 0.250000 0.250000
O O10 0.182885 0.304411 0.168616
O O11 0.088722 0.500000 0.800740
O O12 0.109844 0.772284 0.876850
O O13 0.162288 0.000000 0.843385
O O14 0.170532 0.821864 0.000000
#
# Coordination Sequence:
#
# PCOD8289278 Si02
#       5
#     8  16  16  16  16
#     4   9  18  32  52  81 114 144 175 215 266 321
#     4  10  21  38  58  78 105 142 181 223 271 321
#     4  11  22  36  55  78 106 137 173 219 264 312
#     4  10  19  33  55  80 107 139 177 221 264 313
#     4  10  20  34  52  75 105 138 171 210 257 311
#
# _framework density 19.061872999999999
#
# number of rings (size 3 to 8) (size 9 to 14) (size 15 to 20)
#    0.000    1.889    0.000    7.333    0.000    5.333 
#    0.000    2.778    0.000    7.333    0.000    0.000 
#    0.000    0.000    0.000    0.000    0.000    0.000 
#
# Total GULP energy -446149.903290 kJ/mol
# GULP energy per Si atom -12393.052869 kJ/mol
# Density = 1.901849 g / cm^3
# Si number density = 19.061873 Si / 1000 Ang^3
#
#
#
# Elastic Constant Matrix: (Units=GPa)
#
#
# Indices 1 2 3 4 5 6 
#
# 1 124.3840 11.0039 42.2385 0.0000 0.0000 0.0000
# 2 11.0039 67.1313 17.1028 0.0000 0.0000 0.0000
# 3 42.2385 17.1028 122.7270 0.0000 0.0000 0.0000
# 4 0.0000 0.0000 0.0000 28.7627 0.0000 0.0000
# 5 0.0000 0.0000 0.0000 0.0000 14.9340 0.0000
# 6 0.0000 0.0000 0.0000 0.0000 0.0000 27.5925
#
#
#
# Elastic Compliance Matrix: (Units=1/GPa)
#
#
# Indices 1 2 3 4 5 6 
#
# 1 0.009137 -0.000722 -0.003044 0.000000 0.000000 0.000000
# 2 -0.000722 0.015502 -0.001912 0.000000 0.000000 0.000000
# 3 -0.003044 -0.001912 0.009462 0.000000 0.000000 0.000000
# 4 0.000000 0.000000 0.000000 0.034767 0.000000 0.000000
# 5 0.000000 0.000000 0.000000 0.000000 0.066961 0.000000
# 6 0.000000 0.000000 0.000000 0.000000 0.000000 0.036242
#
#
# Mechanical properties :
#
#
# Convention : Reuss Voigt Hill
#
# Bulk Modulus (GPa) = 43.96548 50.54807 47.25678
# Shear Modulus (GPa) = 26.17675 30.51763 28.34719
#
# Velocity S-wave (km/s) = 3.70976 4.00556 3.86050
# Velocity P-wave (km/s) = 6.43929 6.92591 6.68703
#
# Compressibility (1/GPa) = 0.02274512
#
# Stress axis : x y z
#
# Youngs Moduli (GPa) = 109.44242 64.50945 105.68321
#
# Poissons Ratio (x) = 0.04659 0.32171
# Poissons Ratio (y) = 0.07904 0.20203
# Poissons Ratio (z) = 0.33315 0.12332
#
# Static dielectric constant tensor:
#      x y z
#    x 4.112890 0.000000 0.000000 
#    y 0.000000 3.558340 0.000000 
#    z 0.000000 0.000000 3.592130 
# 
# 
# High freq. dielectric constant tensor:
#      x y z
#    x 1.738120 0.000000 0.000000 
#    y 0.000000 1.745810 0.000000 
#    z 0.000000 0.000000 1.739350 
# 
# From -- ./inp_files/40690.got.cif
#   From: 2010.06.25/outbox.cif.g09.slc.cpg/sg71_21_cif.got.tgz:40690.got - 2010.06.28 04:59:45.
