data_PCOD8289200
_publ_section_title
;
Structure prediction by ZEFSAII (Michael W. Deem and Ramdas Pophale) SiO2 
 PCOD8289200
Probable space group: I M M M
;
_chemical_formula_sum "Si O2"
_cell_formula_units_Z 72
_cell_length_a 28.642208
_cell_length_b 16.402653
_cell_length_c 8.132023
_cell_angle_alpha 90.000000
_cell_angle_beta 90.000000
_cell_angle_gamma 90.000000
_cell_volume 3820.491080
_symmetry_space_group_name_H-M "I M M M"
_symmetry_group_IT_number 71
_symmetry_cell_setting 'orthorhombic'
loop_
_space_group_symop_operation_xyz
x,y,z
-x,-y,z
x,-y,-z
-x,y,-z
-x,-y,-z
x,y,-z
-x,y,z
x,-y,z
1/2+x,1/2+y,1/2+z
1/2-x,1/2-y,1/2+z
1/2+x,1/2-y,1/2-z
1/2-x,1/2+y,1/2-z
1/2-x,1/2-y,1/2-z
1/2+x,1/2+y,1/2-z
1/2-x,1/2+y,1/2+z
1/2+x,1/2-y,1/2+z
loop_
_atom_site_type_symbol
_atom_site_label
_atom_site_fract_x
_atom_site_fract_y
_atom_site_fract_z
Si Si1 0.727128 0.500000 0.316515
Si Si2 0.278890 0.327587 0.191647
Si Si3 0.445747 0.809535 0.684773
Si Si4 0.384351 0.670839 0.190972
Si Si5 0.444600 0.090047 0.000000
Si Si6 0.116424 0.000000 0.187198
O O1 0.746310 0.500000 0.500000
O O2 0.745231 0.585309 0.237457
O O3 0.671951 0.500000 0.303151
O O4 0.250000 0.250000 0.250000
O O5 0.331557 0.320675 0.261577
O O6 0.282562 0.324294 0.000000
O O7 0.438096 0.846623 0.500000
O O8 0.500000 0.789797 0.713151
O O9 0.417133 0.726530 0.697688
O O10 0.427110 0.868419 0.830301
O O11 0.402497 0.578869 0.217129
O O12 0.388568 0.695225 0.000000
O O13 0.500000 0.086828 0.000000
O O14 0.422900 0.000000 0.000000
O O15 0.098656 0.000000 0.000000
#
# Coordination Sequence:
#
# PCOD8289200 Si02
#       6
#     8  16  16  16   8   8
#     4   9  17  31  51  74 102 133 172 218 259 308
#     4  10  20  33  53  78 104 137 176 216 263 314
#     4  10  20  34  55  81 108 140 176 217 265 315
#     4  10  19  33  53  76 106 140 176 215 259 312
#     4   9  18  34  56  79 105 137 175 220 266 316
#     4   9  17  29  48  76 103 135 177 216 252 302
#
# _framework density 18.845744
#
# number of rings (size 3 to 8) (size 9 to 14) (size 15 to 20)
#    0.000    2.333    1.111    2.000    0.000    5.778 
#    0.000    2.778    2.444    3.333    0.000    0.000 
#    0.000    0.000    0.000    0.000    0.000    0.000 
#
# Total GULP energy -446170.118311 kJ/mol
# GULP energy per Si atom -12393.614398 kJ/mol
# Density = 1.880285 g / cm^3
# Si number density = 18.845744 Si / 1000 Ang^3
#
#
#
# Elastic Constant Matrix: (Units=GPa)
#
#
# Indices 1 2 3 4 5 6 
#
# 1 39.6881 43.6690 26.7383 0.0000 0.0000 0.0000
# 2 43.6690 160.6330 52.6009 0.0000 0.0000 0.0000
# 3 26.7383 52.6009 106.1559 0.0000 0.0000 0.0000
# 4 0.0000 0.0000 0.0000 32.1852 0.0000 0.0000
# 5 0.0000 0.0000 0.0000 0.0000 20.9961 0.0000
# 6 0.0000 0.0000 0.0000 0.0000 0.0000 23.6746
#
#
#
# Elastic Compliance Matrix: (Units=1/GPa)
#
#
# Indices 1 2 3 4 5 6 
#
# 1 0.038348 -0.008669 -0.005364 0.000000 0.000000 0.000000
# 2 -0.008669 0.009391 -0.002470 0.000000 0.000000 0.000000
# 3 -0.005364 -0.002470 0.011995 0.000000 0.000000 0.000000
# 4 0.000000 0.000000 0.000000 0.031070 0.000000 0.000000
# 5 0.000000 0.000000 0.000000 0.000000 0.047628 0.000000
# 6 0.000000 0.000000 0.000000 0.000000 0.000000 0.042239
#
#
# Mechanical properties :
#
#
# Convention : Reuss Voigt Hill
#
# Bulk Modulus (GPa) = 37.41165 61.38813 49.39989
# Shear Modulus (GPa) = 22.46327 27.60244 25.03285
#
# Velocity S-wave (km/s) = 3.45621 3.83123 3.64854
# Velocity P-wave (km/s) = 5.98513 7.22605 6.63467
#
# Compressibility (1/GPa) = 0.02672965
#
# Stress axis : x y z
#
# Youngs Moduli (GPa) = 26.07674 106.48759 83.36921
#
# Poissons Ratio (x) = 0.92312 0.44716
# Poissons Ratio (y) = 0.22605 0.20590
# Poissons Ratio (z) = 0.13987 0.26299
#
# Static dielectric constant tensor:
#      x y z
#    x 2.972270 0.000000 0.000000 
#    y 0.000000 3.646980 0.000000 
#    z 0.000000 0.000000 3.621840 
# 
# 
# High freq. dielectric constant tensor:
#      x y z
#    x 1.682790 0.000000 0.000000 
#    y 0.000000 1.738180 0.000000 
#    z 0.000000 0.000000 1.747590 
# 
# From -- ./inp_files/6229.got.cif
#   From: 2010.06.25/outbox.cif.g09.slc.cpg/sg71_4_cif.got.tgz:6229.got - 2010.06.28 04:59:45.
