data_PCOD8289701
_publ_section_title
;
Structure prediction by ZEFSAII (Michael W. Deem and Ramdas Pophale) SiO2 
 PCOD8289701
Probable space group: I M M M
;
_chemical_formula_sum "Si O2"
_cell_formula_units_Z 112
_cell_length_a 27.716884
_cell_length_b 25.520701
_cell_length_c 9.616818
_cell_angle_alpha 90.000000
_cell_angle_beta 90.000000
_cell_angle_gamma 90.000000
_cell_volume 6802.497653
_symmetry_space_group_name_H-M "I M M M"
_symmetry_group_IT_number 71
_symmetry_cell_setting 'orthorhombic'
loop_
_space_group_symop_operation_xyz
x,y,z
-x,-y,z
x,-y,-z
-x,y,-z
-x,-y,-z
x,y,-z
-x,y,z
x,-y,z
1/2+x,1/2+y,1/2+z
1/2-x,1/2-y,1/2+z
1/2+x,1/2-y,1/2-z
1/2-x,1/2+y,1/2-z
1/2-x,1/2-y,1/2-z
1/2+x,1/2+y,1/2-z
1/2-x,1/2+y,1/2+z
1/2+x,1/2-y,1/2+z
loop_
_atom_site_type_symbol
_atom_site_label
_atom_site_fract_x
_atom_site_fract_y
_atom_site_fract_z
Si Si1 0.774021 0.908557 0.839484
Si Si2 0.053992 0.860476 0.665160
Si Si3 0.765371 0.702468 0.341968
Si Si4 0.446081 0.243250 0.165492
Si Si5 0.130741 0.662760 0.664278
Si Si6 0.865091 0.940064 0.661204
Si Si7 0.830835 0.557279 0.665471
O O1 0.771311 0.845823 0.823044
O O2 0.816601 0.930966 0.746524
O O3 0.723948 0.933324 0.783616
O O4 0.783294 0.924098 0.000000
O O5 0.052938 0.862646 0.500000
O O6 0.069122 0.801795 0.714824
O O7 0.092489 0.902733 0.721838
O O8 0.000000 0.873719 0.721166
O O9 0.766097 0.721635 0.500000
O O10 0.750000 0.750000 0.250000
O O11 0.818532 0.687130 0.293065
O O12 0.500000 0.230587 0.217352
O O13 0.411305 0.198606 0.231720
O O14 0.443605 0.241478 0.000000
O O15 0.123752 0.662232 0.500000
O O16 0.132045 0.602283 0.720437
O O17 0.854602 0.927045 0.500000
O O18 0.882157 0.000000 0.679141
O O19 0.829337 0.561264 0.500000
O O20 0.848738 0.500000 0.716286
#
# Coordination Sequence:
#
# PCOD8289701 Si02
#       7
#    16  16  16  16  16  16  16
#     4   9  18  31  44  61  85 116 151 177 204 253
#     4   8  15  27  41  58  80 107 138 172 217 268
#     4   9  18  29  42  63  89 115 143 174 211 255
#     4   8  13  22  37  56  78 105 136 169 208 255
#     4   8  14  23  36  57  81 104 134 171 207 243
#     4  10  20  30  43  66  88 108 141 184 227 262
#     4   8  13  23  39  55  74 106 145 175 197 233
#
# _framework density 16.464542000000002
#
# number of rings (size 3 to 8) (size 9 to 14) (size 15 to 20)
#    0.000    3.429    0.000    3.000    2.000    1.714 
#    0.000    1.429    0.000    0.857    0.000    4.000 
#    0.000    0.571    0.000    0.000    0.000    0.000 
#
# Total GULP energy -693834.110383 kJ/mol
# GULP energy per Si atom -12389.894828 kJ/mol
# Density = 1.642707 g / cm^3
# Si number density = 16.464542 Si / 1000 Ang^3
#
#
#
# Elastic Constant Matrix: (Units=GPa)
#
#
# Indices 1 2 3 4 5 6 
#
# 1 92.9251 72.5370 14.2572 0.0000 0.0000 0.0000
# 2 72.5370 147.4336 22.3231 0.0000 0.0000 0.0000
# 3 14.2572 22.3231 17.8555 0.0000 0.0000 0.0000
# 4 0.0000 0.0000 0.0000 15.7515 0.0000 0.0000
# 5 0.0000 0.0000 0.0000 0.0000 12.9886 0.0000
# 6 0.0000 0.0000 0.0000 0.0000 0.0000 26.9658
#
#
#
# Elastic Compliance Matrix: (Units=1/GPa)
#
#
# Indices 1 2 3 4 5 6 
#
# 1 0.017700 -0.008102 -0.004004 0.000000 0.000000 0.000000
# 2 -0.008102 0.012075 -0.008627 0.000000 0.000000 0.000000
# 3 -0.004004 -0.008627 0.069988 0.000000 0.000000 0.000000
# 4 0.000000 0.000000 0.000000 0.063486 0.000000 0.000000
# 5 0.000000 0.000000 0.000000 0.000000 0.076990 0.000000
# 6 0.000000 0.000000 0.000000 0.000000 0.000000 0.037084
#
#
# Mechanical properties :
#
#
# Convention : Reuss Voigt Hill
#
# Bulk Modulus (GPa) = 17.15349 52.93876 35.04612
# Shear Modulus (GPa) = 14.78317 21.08097 17.93207
#
# Velocity S-wave (km/s) = 2.99971 3.58213 3.30378
# Velocity P-wave (km/s) = 4.73696 7.02367 5.99044
#
# Compressibility (1/GPa) = 0.05829718
#
# Stress axis : x y z
#
# Youngs Moduli (GPa) = 56.49643 82.81389 14.28818
#
# Poissons Ratio (x) = 0.67098 0.05721
# Poissons Ratio (y) = 0.45775 0.12327
# Poissons Ratio (z) = 0.22619 0.71445
#
# Static dielectric constant tensor:
#      x y z
#    x 3.127940 0.000000 0.000000 
#    y 0.000000 3.512630 0.000000 
#    z 0.000000 0.000000 2.535670 
# 
# 
# High freq. dielectric constant tensor:
#      x y z
#    x 1.621970 0.000000 0.000000 
#    y 0.000000 1.650540 0.000000 
#    z 0.000000 0.000000 1.567500 
# 
# From -- ./inp_files/27962.got.cif
#   From: 2010.06.25/outbox.cif.g09.slc.cpg/sg71_14_cif.got.tgz:27962.got - 2010.06.28 04:59:45.
