data_PCOD8289251
_publ_section_title
;
Structure prediction by ZEFSAII (Michael W. Deem and Ramdas Pophale) SiO2 
 PCOD8289251
Probable space group: I M M M
;
_chemical_formula_sum "Si O2"
_cell_formula_units_Z 96
_cell_length_a 18.440296
_cell_length_b 11.607289
_cell_length_c 25.294397
_cell_angle_alpha 90.000000
_cell_angle_beta 90.000000
_cell_angle_gamma 90.000000
_cell_volume 5414.059400
_symmetry_space_group_name_H-M "I M M M"
_symmetry_group_IT_number 71
_symmetry_cell_setting 'orthorhombic'
loop_
_space_group_symop_operation_xyz
x,y,z
-x,-y,z
x,-y,-z
-x,y,-z
-x,-y,-z
x,y,-z
-x,y,z
x,-y,z
1/2+x,1/2+y,1/2+z
1/2-x,1/2-y,1/2+z
1/2+x,1/2-y,1/2-z
1/2-x,1/2+y,1/2-z
1/2-x,1/2-y,1/2-z
1/2+x,1/2+y,1/2-z
1/2-x,1/2+y,1/2+z
1/2+x,1/2-y,1/2+z
loop_
_atom_site_type_symbol
_atom_site_label
_atom_site_fract_x
_atom_site_fract_y
_atom_site_fract_z
Si Si1 0.080187 0.000000 0.212717
Si Si2 0.676261 0.862358 0.387253
Si Si3 0.337733 0.710325 0.886342
Si Si4 0.416215 0.133948 0.811696
Si Si5 0.164333 0.374947 0.000000
Si Si6 0.580496 0.500000 0.837293
Si Si7 0.913515 0.251074 0.797606
Si Si8 0.335679 0.371098 0.000000
O O1 0.074726 0.000000 0.275064
O O2 0.117655 0.879846 0.194383
O O3 0.000000 0.000000 0.188020
O O4 0.751964 0.798930 0.376274
O O5 0.643695 0.815127 0.443946
O O6 0.619446 0.833169 0.342039
O O7 0.689297 0.000000 0.390523
O O8 0.367355 0.829783 0.862089
O O9 0.377040 0.611578 0.854302
O O10 0.359257 0.700487 0.948155
O O11 0.500000 0.162373 0.824184
O O12 0.389783 0.201926 0.759578
O O13 0.404159 0.000000 0.800943
O O14 0.126764 0.500000 0.000000
O O15 0.250487 0.388070 0.000000
O O16 0.500000 0.500000 0.862238
O O17 0.000000 0.254963 0.802464
O O18 0.371068 0.500000 0.000000
#
# Coordination Sequence:
#
# PCOD8289251 Si02
#       8
#     8  16  16  16   8   8  16   8
#     4   9  18  34  53  75 103 136 167 201 257 312
#     4  10  19  33  54  80 107 133 169 213 257 303
#     4  11  19  34  53  78 104 135 171 218 258 301
#     4  10  21  37  53  72 104 143 174 206 257 312
#     4   7  14  30  51  72 101 138 162 199 262 305
#     4  11  18  31  54  75 102 137 169 205 259 307
#     4  10  20  35  55  77 104 137 170 208 256 312
#     4   9  16  30  51  75 104 132 168 213 265 303
#
# _framework density 17.731611000000001
#
# number of rings (size 3 to 8) (size 9 to 14) (size 15 to 20)
#    0.000    2.167    3.333    2.000    0.000    1.667 
#    1.500    2.917    0.000    3.000    0.000    1.750 
#    0.000    0.000    0.000    0.000    0.000    0.000 
#
# Total GULP energy -594801.545723 kJ/mol
# GULP energy per Si atom -12391.698869 kJ/mol
# Density = 1.769125 g / cm^3
# Si number density = 17.731611 Si / 1000 Ang^3
#
#
#
# Elastic Constant Matrix: (Units=GPa)
#
#
# Indices 1 2 3 4 5 6 
#
# 1 37.4779 21.5382 36.2539 0.0000 0.0000 0.0000
# 2 21.5382 77.6626 38.3835 0.0000 0.0000 0.0000
# 3 36.2539 38.3835 120.6374 0.0000 0.0000 0.0000
# 4 0.0000 0.0000 0.0000 32.2563 0.0000 0.0000
# 5 0.0000 0.0000 0.0000 0.0000 0.0824 0.0000
# 6 0.0000 0.0000 0.0000 0.0000 0.0000 27.8642
#
#
#
# Elastic Compliance Matrix: (Units=1/GPa)
#
#
# Indices 1 2 3 4 5 6 
#
# 1 0.039914 -0.006100 -0.010054 0.000000 0.000000 0.000000
# 2 -0.006100 0.016211 -0.003325 0.000000 0.000000 0.000000
# 3 -0.010054 -0.003325 0.012369 0.000000 0.000000 0.000000
# 4 0.000000 0.000000 0.000000 0.031002 0.000000 0.000000
# 5 0.000000 0.000000 0.000000 0.000000 12.141276 0.000000
# 6 0.000000 0.000000 0.000000 0.000000 0.000000 0.035888
#
#
# Mechanical properties :
#
#
# Convention : Reuss Voigt Hill
#
# Bulk Modulus (GPa) = 33.85739 47.56991 40.71365
# Shear Modulus (GPa) = 0.40566 21.34740 10.87653
#
# Velocity S-wave (km/s) = 0.47883 3.47352 2.47937
# Velocity P-wave (km/s) = 4.40925 6.55538 5.58635
#
# Compressibility (1/GPa) = 0.02953565
#
# Stress axis : x y z
#
# Youngs Moduli (GPa) = 25.05399 61.68574 80.85034
#
# Poissons Ratio (x) = 0.37630 0.81286
# Poissons Ratio (y) = 0.15284 0.26880
# Poissons Ratio (z) = 0.25189 0.20509
#
# Static dielectric constant tensor:
#      x y z
#    x 3.053200 0.000000 0.000000 
#    y 0.000000 3.242640 0.000000 
#    z 0.000000 0.000000 3.565850 
# 
# 
# High freq. dielectric constant tensor:
#      x y z
#    x 1.659500 0.000000 0.000000 
#    y 0.000000 1.671860 0.000000 
#    z 0.000000 0.000000 1.690460 
# 
# From -- ./inp_files/27482.got.cif
#   From: 2010.06.25/outbox.cif.g09.slc.cpg/sg71_14_cif.got.tgz:27482.got - 2010.06.28 04:59:45.
