data_PCOD8289277
_publ_section_title
;
Structure prediction by ZEFSAII (Michael W. Deem and Ramdas Pophale) SiO2 
 PCOD8289277
Probable space group: I M M M
;
_chemical_formula_sum "Si O2"
_cell_formula_units_Z 88
_cell_length_a 9.004859
_cell_length_b 17.938654
_cell_length_c 27.856999
_cell_angle_alpha 90.000000
_cell_angle_beta 90.000000
_cell_angle_gamma 90.000000
_cell_volume 4499.881724
_symmetry_space_group_name_H-M "I M M M"
_symmetry_group_IT_number 71
_symmetry_cell_setting 'orthorhombic'
loop_
_space_group_symop_operation_xyz
x,y,z
-x,-y,z
x,-y,-z
-x,y,-z
-x,-y,-z
x,y,-z
-x,y,z
x,-y,z
1/2+x,1/2+y,1/2+z
1/2-x,1/2-y,1/2+z
1/2+x,1/2-y,1/2-z
1/2-x,1/2+y,1/2-z
1/2-x,1/2-y,1/2-z
1/2+x,1/2+y,1/2-z
1/2-x,1/2+y,1/2+z
1/2+x,1/2-y,1/2+z
loop_
_atom_site_type_symbol
_atom_site_label
_atom_site_fract_x
_atom_site_fract_y
_atom_site_fract_z
Si Si1 0.165172 0.412781 0.500000
Si Si2 0.175968 0.831087 0.917122
Si Si3 0.172543 0.179567 0.445064
Si Si4 0.175023 0.916928 0.356417
Si Si5 0.824845 0.173480 0.734506
Si Si6 0.824867 0.917646 0.174503
O O1 0.149704 0.500000 0.500000
O O2 0.255693 0.389196 0.546252
O O3 0.000000 0.376042 0.500000
O O4 0.232072 0.748945 0.927886
O O5 0.232008 0.858385 0.864954
O O6 0.000000 0.831810 0.922098
O O7 0.211694 0.157625 0.500000
O O8 0.214403 0.111238 0.410026
O O9 0.000000 0.200546 0.440137
O O10 0.235980 0.858509 0.316449
O O11 0.000000 0.922428 0.349072
O O12 0.244078 0.000000 0.350087
O O13 0.750000 0.250000 0.750000
O O14 0.779730 0.111232 0.773225
O O15 0.000000 0.187807 0.732950
O O16 0.000000 0.924274 0.169732
O O17 0.754156 0.000000 0.166836
#
# Coordination Sequence:
#
# PCOD8289277 Si02
#       6
#     8  16  16  16  16  16
#     4  11  23  37  53  75 106 141 178 223 273 318
#     4  11  21  34  54  78 105 140 181 221 262 320
#     4  10  20  34  53  77 108 143 179 225 276 322
#     4   9  18  33  55  82 108 140 186 232 272 320
#     4  10  19  33  55  80 107 139 175 219 268 319
#     4   9  18  32  51  76 104 135 174 218 261 307
#
# _framework density 19.556069000000001
#
# number of rings (size 3 to 8) (size 9 to 14) (size 15 to 20)
#    0.000    2.091    0.909    3.000    0.000    4.000 
#    0.000    2.727    0.000    6.000    0.000    1.273 
#    0.000    0.000    0.000    0.000    0.000    0.000 
#
# Total GULP energy -545483.747783 kJ/mol
# GULP energy per Si atom -12397.357904 kJ/mol
# Density = 1.951156 g / cm^3
# Si number density = 19.556069 Si / 1000 Ang^3
#
#
#
# Elastic Constant Matrix: (Units=GPa)
#
#
# Indices 1 2 3 4 5 6 
#
# 1 46.1183 32.8252 32.3481 0.0000 0.0000 0.0000
# 2 32.8252 141.5701 75.0282 0.0000 0.0000 0.0000
# 3 32.3481 75.0282 166.8507 0.0000 0.0000 0.0000
# 4 0.0000 0.0000 0.0000 14.4137 0.0000 0.0000
# 5 0.0000 0.0000 0.0000 0.0000 25.6284 0.0000
# 6 0.0000 0.0000 0.0000 0.0000 0.0000 22.8041
#
#
#
# Elastic Compliance Matrix: (Units=1/GPa)
#
#
# Indices 1 2 3 4 5 6 
#
# 1 0.027212 -0.004613 -0.003201 0.000000 0.000000 0.000000
# 2 -0.004613 0.010056 -0.003627 0.000000 0.000000 0.000000
# 3 -0.003201 -0.003627 0.008245 0.000000 0.000000 0.000000
# 4 0.000000 0.000000 0.000000 0.069379 0.000000 0.000000
# 5 0.000000 0.000000 0.000000 0.000000 0.039019 0.000000
# 6 0.000000 0.000000 0.000000 0.000000 0.000000 0.043852
#
#
# Mechanical properties :
#
#
# Convention : Reuss Voigt Hill
#
# Bulk Modulus (GPa) = 44.19011 70.54912 57.36962
# Shear Modulus (GPa) = 21.91165 26.85843 24.38504
#
# Velocity S-wave (km/s) = 3.35095 3.70997 3.53502
# Velocity P-wave (km/s) = 6.13331 7.38278 6.78686
#
# Compressibility (1/GPa) = 0.02262950
#
# Stress axis : x y z
#
# Youngs Moduli (GPa) = 36.74828 99.44670 121.28250
#
# Poissons Ratio (x) = 0.45874 0.38828
# Poissons Ratio (y) = 0.16952 0.43994
# Poissons Ratio (z) = 0.11765 0.36074
#
# Static dielectric constant tensor:
#      x y z
#    x 3.265690 0.000000 0.000000 
#    y 0.000000 3.606210 0.000000 
#    z 0.000000 0.000000 4.241310 
# 
# 
# High freq. dielectric constant tensor:
#      x y z
#    x 1.718850 0.000000 0.000000 
#    y 0.000000 1.768980 0.000000 
#    z 0.000000 0.000000 1.780600 
# 
# From -- ./inp_files/57555.got.cif
#   From: 2010.06.25/outbox.cif.g09.slc.cpg/sg71_29_cif.got.tgz:57555.got - 2010.06.28 04:59:45.
