data_PCOD8289359
_publ_section_title
;
Structure prediction by ZEFSAII (Michael W. Deem and Ramdas Pophale) SiO2 
 PCOD8289359
Probable space group: I M M M
;
_chemical_formula_sum "Si O2"
_cell_formula_units_Z 104
_cell_length_a 32.112789
_cell_length_b 8.945395
_cell_length_c 19.877321
_cell_angle_alpha 90.000000
_cell_angle_beta 90.000000
_cell_angle_gamma 90.000000
_cell_volume 5709.990679
_symmetry_space_group_name_H-M "I M M M"
_symmetry_group_IT_number 71
_symmetry_cell_setting 'orthorhombic'
loop_
_space_group_symop_operation_xyz
x,y,z
-x,-y,z
x,-y,-z
-x,y,-z
-x,-y,-z
x,y,-z
-x,y,z
x,-y,z
1/2+x,1/2+y,1/2+z
1/2-x,1/2-y,1/2+z
1/2+x,1/2-y,1/2-z
1/2-x,1/2+y,1/2-z
1/2-x,1/2-y,1/2-z
1/2+x,1/2+y,1/2-z
1/2-x,1/2+y,1/2+z
1/2+x,1/2-y,1/2+z
loop_
_atom_site_type_symbol
_atom_site_label
_atom_site_fract_x
_atom_site_fract_y
_atom_site_fract_z
Si Si1 0.846373 0.674867 0.172392
Si Si2 0.070618 0.166769 0.149425
Si Si3 0.719716 0.323877 0.577285
Si Si4 0.131338 0.673881 0.674995
Si Si5 0.547180 0.331437 0.802766
Si Si6 0.000000 0.325975 0.925284
Si Si7 0.806476 0.828955 0.423088
O O1 0.850591 0.500000 0.157700
O O2 0.884307 0.763195 0.140575
O O3 0.805954 0.736960 0.134413
O O4 0.847222 0.705697 0.252607
O O5 0.051896 0.167112 0.223298
O O6 0.041818 0.267679 0.105530
O O7 0.072431 0.000000 0.120408
O O8 0.706514 0.282365 0.500000
O O9 0.715452 0.500000 0.589473
O O10 0.767011 0.275937 0.590057
O O11 0.134042 0.500000 0.656698
O O12 0.082713 0.721279 0.669111
O O13 0.155553 0.772350 0.621430
O O14 0.500000 0.276156 0.821056
O O15 0.553893 0.500000 0.830705
O O16 0.000000 0.500000 0.916548
O O17 0.000000 0.268220 0.000000
O O18 0.821091 0.817333 0.500000
O O19 0.795369 0.000000 0.404189
#
# Coordination Sequence:
#
# PCOD8289359 Si02
#       7
#    16  16  16  16  16   8  16
#     4  10  21  36  54  80 111 143 180 224 272 323
#     4  10  19  34  53  73  98 133 176 222 270 317
#     4  10  21  37  57  80 106 142 186 228 273 324
#     4  10  21  35  54  84 114 143 180 221 269 321
#     4   9  17  32  54  79 106 137 173 215 264 317
#     4  11  23  35  47  67  97 135 178 223 272 323
#     4  10  21  38  60  83 108 142 180 219 268 326
#
# _framework density 18.21369
#
# number of rings (size 3 to 8) (size 9 to 14) (size 15 to 20)
#    0.000    2.077    0.769    2.538    0.000    6.462 
#    0.000    0.000    0.000    0.462    0.000    3.231 
#    0.000    0.000    0.000    0.000    0.000    0.000 
#
# Total GULP energy -644656.247355 kJ/mol
# GULP energy per Si atom -12397.235526 kJ/mol
# Density = 1.817223 g / cm^3
# Si number density = 18.213690 Si / 1000 Ang^3
#
#
#
# Elastic Constant Matrix: (Units=GPa)
#
#
# Indices 1 2 3 4 5 6 
#
# 1 102.5932 56.2604 50.3713 0.0000 0.0000 0.0000
# 2 56.2604 138.7712 53.3535 0.0000 0.0000 0.0000
# 3 50.3713 53.3535 62.5754 0.0000 0.0000 0.0000
# 4 0.0000 0.0000 0.0000 28.0358 0.0000 0.0000
# 5 0.0000 0.0000 0.0000 0.0000 37.7898 0.0000
# 6 0.0000 0.0000 0.0000 0.0000 0.0000 39.2754
#
#
#
# Elastic Compliance Matrix: (Units=1/GPa)
#
#
# Indices 1 2 3 4 5 6 
#
# 1 0.016626 -0.002373 -0.011360 0.000000 0.000000 0.000000
# 2 -0.002373 0.011059 -0.007519 0.000000 0.000000 0.000000
# 3 -0.011360 -0.007519 0.031537 0.000000 0.000000 0.000000
# 4 0.000000 0.000000 0.000000 0.035669 0.000000 0.000000
# 5 0.000000 0.000000 0.000000 0.000000 0.026462 0.000000
# 6 0.000000 0.000000 0.000000 0.000000 0.000000 0.025461
#
#
# Mechanical properties :
#
#
# Convention : Reuss Voigt Hill
#
# Bulk Modulus (GPa) = 59.81965 69.32337 64.57151
# Shear Modulus (GPa) = 25.65536 30.61718 28.13627
#
# Velocity S-wave (km/s) = 3.75717 4.10445 3.93464
# Velocity P-wave (km/s) = 7.19280 7.78497 7.49473
#
# Compressibility (1/GPa) = 0.01671691
#
# Stress axis : x y z
#
# Youngs Moduli (GPa) = 60.14596 90.42423 31.70919
#
# Poissons Ratio (x) = 0.21456 0.36023
# Poissons Ratio (y) = 0.14271 0.23843
# Poissons Ratio (z) = 0.68329 0.67991
#
# Static dielectric constant tensor:
#      x y z
#    x 3.372940 0.000000 0.000000 
#    y 0.000000 3.519040 0.000000 
#    z 0.000000 0.000000 3.249560 
# 
# 
# High freq. dielectric constant tensor:
#      x y z
#    x 1.711410 0.000000 0.000000 
#    y 0.000000 1.722040 0.000000 
#    z 0.000000 0.000000 1.684210 
# 
# From -- ./inp_files/15056.got.cif
#   From: 2010.06.25/outbox.cif.g09.slc.cpg/sg71_8_cif.got.tgz:15056.got - 2010.06.28 04:59:45.
