data_PCOD8289084
_publ_section_title
;
Structure prediction by ZEFSAII (Michael W. Deem and Ramdas Pophale) SiO2 
 PCOD8289084
Probable space group: I M M M
;
_chemical_formula_sum "Si O2"
_cell_formula_units_Z 88
_cell_length_a 18.019876
_cell_length_b 11.156803
_cell_length_c 24.466582
_cell_angle_alpha 90.000000
_cell_angle_beta 90.000000
_cell_angle_gamma 90.000000
_cell_volume 4918.864567
_symmetry_space_group_name_H-M "I M M M"
_symmetry_group_IT_number 71
_symmetry_cell_setting 'orthorhombic'
loop_
_space_group_symop_operation_xyz
x,y,z
-x,-y,z
x,-y,-z
-x,y,-z
-x,-y,-z
x,y,-z
-x,y,z
x,-y,z
1/2+x,1/2+y,1/2+z
1/2-x,1/2-y,1/2+z
1/2+x,1/2-y,1/2-z
1/2-x,1/2+y,1/2-z
1/2-x,1/2-y,1/2-z
1/2+x,1/2+y,1/2-z
1/2-x,1/2+y,1/2+z
1/2+x,1/2-y,1/2+z
loop_
_atom_site_type_symbol
_atom_site_label
_atom_site_fract_x
_atom_site_fract_y
_atom_site_fract_z
Si Si1 0.580387 0.632344 0.684166
Si Si2 0.183111 0.776618 0.090697
Si Si3 0.588751 0.143382 0.500000
Si Si4 0.137266 0.306515 0.733917
Si Si5 0.285003 0.000000 0.939092
Si Si6 0.749176 0.630664 0.178580
Si Si7 0.415494 0.000000 0.848320
O O1 0.500000 0.640409 0.655567
O O2 0.596210 0.500000 0.707377
O O3 0.642223 0.658897 0.640179
O O4 0.579645 0.720467 0.735716
O O5 0.124333 0.712854 0.051076
O O6 0.229859 0.668329 0.116843
O O7 0.234852 0.879523 0.064630
O O8 0.500000 0.162162 0.500000
O O9 0.606978 0.000000 0.500000
O O10 0.180483 0.380944 0.780541
O O11 0.194145 0.229587 0.699552
O O12 0.093377 0.386429 0.690909
O O13 0.353185 0.000000 0.896038
O O14 0.319640 0.000000 0.000000
O O15 0.711680 0.500000 0.175100
O O16 0.500000 0.000000 0.872426
#
# Coordination Sequence:
#
# PCOD8289084 Si02
#       7
#    16  16   8  16   8  16   8
#     4  10  20  33  52  82 122 162 196 235 289 351
#     4  11  21  37  59  84 114 156 202 246 294 347
#     4  11  24  41  59  85 121 159 202 250 297 353
#     4  10  20  33  54  84 120 155 192 233 293 351
#     4  12  24  43  64  88 112 148 201 271 309 355
#     4  10  19  32  56  85 116 151 197 237 279 342
#     4  12  24  41  62  88 120 155 198 250 317 377
#
# _framework density 17.890308999999998
#
# number of rings (size 3 to 8) (size 9 to 14) (size 15 to 20)
#    0.000    1.364    4.545    2.182    0.000    0.182 
#    0.000    0.455    0.000    0.000    0.000    0.000 
#    0.000    2.182    0.000    0.000    0.000    0.000 
#
# Total GULP energy -545228.805608 kJ/mol
# GULP energy per Si atom -12391.563764 kJ/mol
# Density = 1.784959 g / cm^3
# Si number density = 17.890309 Si / 1000 Ang^3
#
#
#
# Elastic Constant Matrix: (Units=GPa)
#
#
# Indices 1 2 3 4 5 6 
#
# 1 79.5879 37.1118 35.2239 0.0000 0.0000 0.0000
# 2 37.1118 118.8134 44.8042 0.0000 0.0000 0.0000
# 3 35.2239 44.8042 101.3525 0.0000 0.0000 0.0000
# 4 0.0000 0.0000 0.0000 43.7430 0.0000 0.0000
# 5 0.0000 0.0000 0.0000 0.0000 26.3052 0.0000
# 6 0.0000 0.0000 0.0000 0.0000 0.0000 18.4170
#
#
#
# Elastic Compliance Matrix: (Units=1/GPa)
#
#
# Indices 1 2 3 4 5 6 
#
# 1 0.015959 -0.003472 -0.004012 0.000000 0.000000 0.000000
# 2 -0.003472 0.010856 -0.003592 0.000000 0.000000 0.000000
# 3 -0.004012 -0.003592 0.012849 0.000000 0.000000 0.000000
# 4 0.000000 0.000000 0.000000 0.022861 0.000000 0.000000
# 5 0.000000 0.000000 0.000000 0.000000 0.038015 0.000000
# 6 0.000000 0.000000 0.000000 0.000000 0.000000 0.054298
#
#
# Mechanical properties :
#
#
# Convention : Reuss Voigt Hill
#
# Bulk Modulus (GPa) = 57.10427 59.33707 58.22067
# Shear Modulus (GPa) = 27.34833 29.86730 28.60782
#
# Velocity S-wave (km/s) = 3.91406 4.09035 4.00317
# Velocity P-wave (km/s) = 7.23981 7.45299 7.34717
#
# Compressibility (1/GPa) = 0.01751182
#
# Stress axis : x y z
#
# Youngs Moduli (GPa) = 62.65975 92.11744 77.82897
#
# Poissons Ratio (x) = 0.31985 0.31221
# Poissons Ratio (y) = 0.21757 0.27958
# Poissons Ratio (z) = 0.25136 0.33090
#
# Static dielectric constant tensor:
#      x y z
#    x 3.277480 0.000000 0.000000 
#    y 0.000000 3.477350 0.000000 
#    z 0.000000 0.000000 3.358190 
# 
# 
# High freq. dielectric constant tensor:
#      x y z
#    x 1.679590 0.000000 0.000000 
#    y 0.000000 1.710380 0.000000 
#    z 0.000000 0.000000 1.683580 
# 
# From -- ./inp_files/53981.got.cif
#   From: 2010.06.25/outbox.cif.g09.slc.cpg/sg71_27_cif.got.tgz:53981.got - 2010.06.28 04:59:45.
