data_PCOD8289699
_publ_section_title
;
Structure prediction by ZEFSAII (Michael W. Deem and Ramdas Pophale) SiO2 
 PCOD8289699
Probable space group: I M M M
;
_chemical_formula_sum "Si O2"
_cell_formula_units_Z 104
_cell_length_a 9.170558
_cell_length_b 27.765810
_cell_length_c 23.502551
_cell_angle_alpha 90.000000
_cell_angle_beta 90.000000
_cell_angle_gamma 90.000000
_cell_volume 5984.406875
_symmetry_space_group_name_H-M "I M M M"
_symmetry_group_IT_number 71
_symmetry_cell_setting 'orthorhombic'
loop_
_space_group_symop_operation_xyz
x,y,z
-x,-y,z
x,-y,-z
-x,y,-z
-x,-y,-z
x,y,-z
-x,y,z
x,-y,z
1/2+x,1/2+y,1/2+z
1/2-x,1/2-y,1/2+z
1/2+x,1/2-y,1/2-z
1/2-x,1/2+y,1/2-z
1/2-x,1/2-y,1/2-z
1/2+x,1/2+y,1/2-z
1/2-x,1/2+y,1/2+z
1/2+x,1/2-y,1/2+z
loop_
_atom_site_type_symbol
_atom_site_label
_atom_site_fract_x
_atom_site_fract_y
_atom_site_fract_z
Si Si1 0.836633 0.283209 0.624985
Si Si2 0.840858 0.141025 0.066773
Si Si3 0.837215 0.447432 0.432394
Si Si4 0.171181 0.596464 0.932822
Si Si5 0.334186 0.500000 0.932621
Si Si6 0.667926 0.199889 0.750518
Si Si7 0.826918 0.827373 0.353552
O O1 0.736521 0.308374 0.578474
O O2 0.825941 0.314953 0.683123
O O3 0.788518 0.227823 0.631647
O O4 0.000000 0.284291 0.601269
O O5 0.758792 0.095208 0.094386
O O6 0.000000 0.142645 0.094778
O O7 0.851552 0.133984 0.000000
O O8 0.841035 0.443207 0.500000
O O9 0.774100 0.500000 0.414706
O O10 0.000000 0.441584 0.408097
O O11 0.246066 0.546960 0.911726
O O12 0.252252 0.639714 0.900950
O O13 0.000000 0.595096 0.917334
O O14 0.193820 0.604219 0.000000
O O15 0.500000 0.500000 0.908000
O O16 0.340464 0.500000 0.000000
O O17 0.500000 0.205487 0.730444
O O18 0.750000 0.250000 0.750000
O O19 0.753018 0.162773 0.708573
O O20 0.000000 0.837050 0.350682
#
# Coordination Sequence:
#
# PCOD8289699 Si02
#       7
#    16  16  16  16   8  16  16
#     4   9  19  33  48  67  93 127 163 198 238 287
#     4  10  20  30  42  65  95 125 156 191 234 282
#     4   8  14  26  44  63  83 111 148 187 225 268
#     4  10  20  33  50  74 104 136 168 204 248 296
#     4   9  17  31  51  73  99 131 167 207 246 289
#     4   9  17  31  50  71  93 119 157 202 243 284
#     4  10  20  33  50  73  98 127 164 203 244 289
#
# _framework density 17.378498
#
# number of rings (size 3 to 8) (size 9 to 14) (size 15 to 20)
#    0.000    2.692    0.000    3.462    0.000    7.385 
#    0.000    4.615    0.000    0.000    2.000    0.000 
#    0.000    0.000    0.000    0.000    0.000    0.000 
#
# Total GULP energy -644400.538035 kJ/mol
# GULP energy per Si atom -12392.318039 kJ/mol
# Density = 1.733894 g / cm^3
# Si number density = 17.378498 Si / 1000 Ang^3
#
#
#
# Elastic Constant Matrix: (Units=GPa)
#
#
# Indices 1 2 3 4 5 6 
#
# 1 131.1123 65.4899 32.1955 0.0000 0.0000 0.0000
# 2 65.4899 107.6859 31.7482 0.0000 0.0000 0.0000
# 3 32.1955 31.7482 34.6828 0.0000 0.0000 0.0000
# 4 0.0000 0.0000 0.0000 8.5244 0.0000 0.0000
# 5 0.0000 0.0000 0.0000 0.0000 26.0065 0.0000
# 6 0.0000 0.0000 0.0000 0.0000 0.0000 28.6728
#
#
#
# Elastic Compliance Matrix: (Units=1/GPa)
#
#
# Indices 1 2 3 4 5 6 
#
# 1 0.011803 -0.005407 -0.006007 0.000000 0.000000 0.000000
# 2 -0.005407 0.015196 -0.008891 0.000000 0.000000 0.000000
# 3 -0.006007 -0.008891 0.042547 0.000000 0.000000 0.000000
# 4 0.000000 0.000000 0.000000 0.117310 0.000000 0.000000
# 5 0.000000 0.000000 0.000000 0.000000 0.038452 0.000000
# 6 0.000000 0.000000 0.000000 0.000000 0.000000 0.034876
#
#
# Mechanical properties :
#
#
# Convention : Reuss Voigt Hill
#
# Bulk Modulus (GPa) = 34.55826 59.14982 46.85404
# Shear Modulus (GPa) = 16.10622 22.24390 19.17506
#
# Velocity S-wave (km/s) = 3.04763 3.58154 3.32532
# Velocity P-wave (km/s) = 5.68444 7.15635 6.46244
#
# Compressibility (1/GPa) = 0.02893665
#
# Stress axis : x y z
#
# Youngs Moduli (GPa) = 84.72515 65.80764 23.50316
#
# Poissons Ratio (x) = 0.35582 0.14118
# Poissons Ratio (y) = 0.45811 0.20896
# Poissons Ratio (z) = 0.50894 0.58508
#
# Static dielectric constant tensor:
#      x y z
#    x 3.570300 0.000000 0.000000 
#    y 0.000000 3.205010 0.000000 
#    z 0.000000 0.000000 3.166540 
# 
# 
# High freq. dielectric constant tensor:
#      x y z
#    x 1.688850 0.000000 0.000000 
#    y 0.000000 1.658850 0.000000 
#    z 0.000000 0.000000 1.632980 
# 
# From -- ./inp_files/57995.got.cif
#   From: 2010.06.25/outbox.cif.g09.slc.cpg/sg71_29_cif.got.tgz:57995.got - 2010.06.28 04:59:45.
