data_PCOD8289272
_publ_section_title
;
Structure prediction by ZEFSAII (Michael W. Deem and Ramdas Pophale) SiO2 
 PCOD8289272
Probable space group: I M M M
;
_chemical_formula_sum "Si O2"
_cell_formula_units_Z 104
_cell_length_a 21.622405
_cell_length_b 8.122237
_cell_length_c 29.748447
_cell_angle_alpha 90.000000
_cell_angle_beta 90.000000
_cell_angle_gamma 90.000000
_cell_volume 5224.490622
_symmetry_space_group_name_H-M "I M M M"
_symmetry_group_IT_number 71
_symmetry_cell_setting 'orthorhombic'
loop_
_space_group_symop_operation_xyz
x,y,z
-x,-y,z
x,-y,-z
-x,y,-z
-x,-y,-z
x,y,-z
-x,y,z
x,-y,z
1/2+x,1/2+y,1/2+z
1/2-x,1/2-y,1/2+z
1/2+x,1/2-y,1/2-z
1/2-x,1/2+y,1/2-z
1/2-x,1/2-y,1/2-z
1/2+x,1/2+y,1/2-z
1/2-x,1/2+y,1/2+z
1/2+x,1/2-y,1/2+z
loop_
_atom_site_type_symbol
_atom_site_label
_atom_site_fract_x
_atom_site_fract_y
_atom_site_fract_z
Si Si1 0.731079 0.690518 0.865018
Si Si2 0.133124 0.688640 0.135092
Si Si3 0.432288 0.000000 0.947130
Si Si4 0.812161 0.689687 0.725543
Si Si5 0.648351 0.688015 0.948100
Si Si6 0.068915 0.303702 0.222736
Si Si7 0.070820 0.810211 0.950126
O O1 0.731870 0.500000 0.852165
O O2 0.799188 0.772402 0.862330
O O3 0.688482 0.778064 0.827789
O O4 0.706771 0.715725 0.915734
O O5 0.143799 0.500000 0.146556
O O6 0.086234 0.760601 0.172361
O O7 0.107739 0.702013 0.084995
O O8 0.399850 0.828742 0.932671
O O9 0.500000 0.000000 0.924406
O O10 0.438649 0.000000 0.000000
O O11 0.815975 0.500000 0.736359
O O12 0.750000 0.750000 0.750000
O O13 0.876543 0.766909 0.744871
O O14 0.621802 0.500000 0.942105
O O15 0.668900 0.714761 0.000000
O O16 0.065663 0.500000 0.224728
O O17 0.000000 0.233858 0.234933
O O18 0.000000 0.755275 0.948910
O O19 0.077732 0.000000 0.936729
O O20 0.097776 0.778166 0.000000
#
# Coordination Sequence:
#
# PCOD8289272 Si02
#       7
#    16  16   8  16  16  16  16
#     4  10  21  37  57  83 113 145 188 233 281 344
#     4  10  19  33  55  80 104 137 185 235 275 324
#     4   9  18  34  58  86 114 148 197 245 283 349
#     4  11  21  36  59  83 112 149 189 233 285 342
#     4   9  19  36  57  83 120 159 190 237 298 346
#     4   9  18  34  55  80 109 140 178 227 280 328
#     4   9  19  35  50  69 106 148 181 221 274 328
#
# _framework density 19.906248000000001
#
# number of rings (size 3 to 8) (size 9 to 14) (size 15 to 20)
#    0.000    2.385    1.538    1.385    1.077    2.769 
#    0.000    4.615    0.000    3.692    0.000    0.000 
#    0.000    0.000    0.000    0.000    0.000    0.000 
#
# Total GULP energy -644344.976387 kJ/mol
# GULP energy per Si atom -12391.249546 kJ/mol
# Density = 1.986094 g / cm^3
# Si number density = 19.906248 Si / 1000 Ang^3
#
#
#
# Elastic Constant Matrix: (Units=GPa)
#
#
# Indices 1 2 3 4 5 6 
#
# 1 157.1244 32.4391 64.5422 0.0000 0.0000 0.0000
# 2 32.4391 51.5410 16.0195 0.0000 0.0000 0.0000
# 3 64.5422 16.0195 120.5425 0.0000 0.0000 0.0000
# 4 0.0000 0.0000 0.0000 25.3593 0.0000 0.0000
# 5 0.0000 0.0000 0.0000 0.0000 33.7285 0.0000
# 6 0.0000 0.0000 0.0000 0.0000 0.0000 22.5338
#
#
#
# Elastic Compliance Matrix: (Units=1/GPa)
#
#
# Indices 1 2 3 4 5 6 
#
# 1 0.009005 -0.004349 -0.004244 0.000000 0.000000 0.000000
# 2 -0.004349 0.022338 -0.000640 0.000000 0.000000 0.000000
# 3 -0.004244 -0.000640 0.010653 0.000000 0.000000 0.000000
# 4 0.000000 0.000000 0.000000 0.039433 0.000000 0.000000
# 5 0.000000 0.000000 0.000000 0.000000 0.029648 0.000000
# 6 0.000000 0.000000 0.000000 0.000000 0.000000 0.044378
#
#
# Mechanical properties :
#
#
# Convention : Reuss Voigt Hill
#
# Bulk Modulus (GPa) = 42.49698 61.68993 52.09346
# Shear Modulus (GPa) = 27.50793 30.73813 29.12303
#
# Velocity S-wave (km/s) = 3.72139 3.93382 3.82908
# Velocity P-wave (km/s) = 6.31347 7.18963 6.76575
#
# Compressibility (1/GPa) = 0.02353108
#
# Stress axis : x y z
#
# Youngs Moduli (GPa) = 111.04339 44.76658 93.86859
#
# Poissons Ratio (x) = 0.19468 0.39837
# Poissons Ratio (y) = 0.48291 0.06009
# Poissons Ratio (z) = 0.47125 0.02866
#
# Static dielectric constant tensor:
#      x y z
#    x 3.885410 0.000000 0.000000 
#    y 0.000000 3.479830 0.000000 
#    z 0.000000 0.000000 3.623160 
# 
# 
# High freq. dielectric constant tensor:
#      x y z
#    x 1.769520 0.000000 0.000000 
#    y 0.000000 1.756410 0.000000 
#    z 0.000000 0.000000 1.775390 
# 
# From -- ./inp_files/70722.got.cif
#   From: 2010.06.25/outbox.cif.g09.slc.cpg/sg71_36_cif.got.tgz:70722.got - 2010.06.28 04:59:45.
