data_PCOD8289934
_publ_section_title
;
Structure prediction by ZEFSAII (Michael W. Deem and Ramdas Pophale) SiO2 
 PCOD8289934
Probable space group: I M M M
;
_chemical_formula_sum "Si O2"
_cell_formula_units_Z 104
_cell_length_a 32.969653
_cell_length_b 18.156727
_cell_length_c 9.086591
_cell_angle_alpha 90.000000
_cell_angle_beta 90.000000
_cell_angle_gamma 90.000000
_cell_volume 5439.424089
_symmetry_space_group_name_H-M "I M M M"
_symmetry_group_IT_number 71
_symmetry_cell_setting 'orthorhombic'
loop_
_space_group_symop_operation_xyz
x,y,z
-x,-y,z
x,-y,-z
-x,y,-z
-x,-y,-z
x,y,-z
-x,y,z
x,-y,z
1/2+x,1/2+y,1/2+z
1/2-x,1/2-y,1/2+z
1/2+x,1/2-y,1/2-z
1/2-x,1/2+y,1/2-z
1/2-x,1/2-y,1/2-z
1/2+x,1/2+y,1/2-z
1/2-x,1/2+y,1/2+z
1/2+x,1/2-y,1/2+z
loop_
_atom_site_type_symbol
_atom_site_label
_atom_site_fract_x
_atom_site_fract_y
_atom_site_fract_z
Si Si1 0.214353 0.667466 0.671109
Si Si2 0.500000 0.912199 0.335033
Si Si3 0.307385 0.686360 0.327336
Si Si4 0.044885 0.912650 0.166350
Si Si5 0.577936 0.911963 0.835013
Si Si6 0.625474 0.413424 0.172635
Si Si7 0.845948 0.414805 0.837926
O O1 0.205130 0.675902 0.500000
O O2 0.261778 0.658509 0.702610
O O3 0.191012 0.733378 0.754681
O O4 0.194387 0.594715 0.740056
O O5 0.500000 0.880330 0.500000
O O6 0.461202 0.881659 0.249343
O O7 0.500000 0.000000 0.338614
O O8 0.317039 0.691509 0.500000
O O9 0.338624 0.630440 0.252782
O O10 0.081595 0.884443 0.269852
O O11 0.000000 0.884420 0.219458
O O12 0.044450 0.000000 0.170328
O O13 0.053005 0.885020 0.000000
O O14 0.616332 0.878919 0.748557
O O15 0.578355 0.000000 0.838848
O O16 0.578077 0.880219 0.000000
O O17 0.631272 0.500000 0.207599
O O18 0.627846 0.397548 0.000000
O O19 0.854630 0.500000 0.857383
O O20 0.841555 0.378481 0.000000
#
# Coordination Sequence:
#
# PCOD8289934 Si02
#       7
#    16   8  16  16  16  16  16
#     4  10  21  37  56  76  99 130 170 215 261 311
#     4   9  15  23  37  59  89 123 157 195 242 293
#     4  10  21  37  56  76 100 133 173 214 257 309
#     4   8  14  26  45  70 102 139 176 213 254 302
#     4   9  16  26  41  63  92 124 159 199 242 289
#     4  10  20  32  49  77 111 143 176 217 262 306
#     4  10  20  33  50  74 103 133 166 206 253 304
#
# _framework density 19.119672000000001
#
# number of rings (size 3 to 8) (size 9 to 14) (size 15 to 20)
#    0.000    2.538    0.000    3.000    0.000    7.385 
#    0.000    4.615    0.000    0.000    2.000    0.000 
#    0.000    0.000    0.000    0.000    0.000    0.000 
#
# Total GULP energy -644546.346605 kJ/mol
# GULP energy per Si atom -12395.122050 kJ/mol
# Density = 1.907615 g / cm^3
# Si number density = 19.119672 Si / 1000 Ang^3
#
#
#
# Elastic Constant Matrix: (Units=GPa)
#
#
# Indices 1 2 3 4 5 6 
#
# 1 144.0447 35.1992 92.4340 0.0000 0.0000 0.0000
# 2 35.1992 24.2120 32.0845 0.0000 0.0000 0.0000
# 3 92.4340 32.0845 156.7863 0.0000 0.0000 0.0000
# 4 0.0000 0.0000 0.0000 23.8489 0.0000 0.0000
# 5 0.0000 0.0000 0.0000 0.0000 39.5030 0.0000
# 6 0.0000 0.0000 0.0000 0.0000 0.0000 11.2268
#
#
#
# Elastic Compliance Matrix: (Units=1/GPa)
#
#
# Indices 1 2 3 4 5 6 
#
# 1 0.013419 -0.012382 -0.005377 0.000000 0.000000 0.000000
# 2 -0.012382 0.068095 -0.006635 0.000000 0.000000 0.000000
# 3 -0.005377 -0.006635 0.010906 0.000000 0.000000 0.000000
# 4 0.000000 0.000000 0.000000 0.041931 0.000000 0.000000
# 5 0.000000 0.000000 0.000000 0.000000 0.025315 0.000000
# 6 0.000000 0.000000 0.000000 0.000000 0.000000 0.089072
#
#
# Mechanical properties :
#
#
# Convention : Reuss Voigt Hill
#
# Bulk Modulus (GPa) = 22.91938 71.60873 47.26406
# Shear Modulus (GPa) = 16.02207 25.93743 20.97975
#
# Velocity S-wave (km/s) = 2.89794 3.68718 3.31612
# Velocity P-wave (km/s) = 4.81776 7.46065 6.27981
#
# Compressibility (1/GPa) = 0.04363119
#
# Stress axis : x y z
#
# Youngs Moduli (GPa) = 74.52368 14.68532 91.69330
#
# Poissons Ratio (x) = 0.18184 0.49304
# Poissons Ratio (y) = 0.92278 0.60837
# Poissons Ratio (z) = 0.40072 0.09743
#
# Static dielectric constant tensor:
#      x y z
#    x 3.762710 0.000000 0.000000 
#    y 0.000000 2.988790 0.000000 
#    z 0.000000 0.000000 3.757900 
# 
# 
# High freq. dielectric constant tensor:
#      x y z
#    x 1.758120 0.000000 0.000000 
#    y 0.000000 1.685890 0.000000 
#    z 0.000000 0.000000 1.760960 
# 
# From -- ./inp_files/17007.got.cif
#   From: 2010.06.25/outbox.cif.g09.slc.cpg/sg71_9_cif.got.tgz:17007.got - 2010.06.28 04:59:45.
