data_PCOD8289768
_publ_section_title
;
Structure prediction by ZEFSAII (Michael W. Deem and Ramdas Pophale) SiO2 
 PCOD8289768
Probable space group: I M M M
;
_chemical_formula_sum "Si O2"
_cell_formula_units_Z 88
_cell_length_a 16.989199
_cell_length_b 20.114764
_cell_length_c 14.453941
_cell_angle_alpha 90.000000
_cell_angle_beta 90.000000
_cell_angle_gamma 90.000000
_cell_volume 4939.399148
_symmetry_space_group_name_H-M "I M M M"
_symmetry_group_IT_number 71
_symmetry_cell_setting 'orthorhombic'
loop_
_space_group_symop_operation_xyz
x,y,z
-x,-y,z
x,-y,-z
-x,y,-z
-x,-y,-z
x,y,-z
-x,y,z
x,-y,z
1/2+x,1/2+y,1/2+z
1/2-x,1/2-y,1/2+z
1/2+x,1/2-y,1/2-z
1/2-x,1/2+y,1/2-z
1/2-x,1/2-y,1/2-z
1/2+x,1/2+y,1/2-z
1/2-x,1/2+y,1/2+z
1/2+x,1/2-y,1/2+z
loop_
_atom_site_type_symbol
_atom_site_label
_atom_site_fract_x
_atom_site_fract_y
_atom_site_fract_z
Si Si1 0.093187 0.325287 0.603680
Si Si2 0.681708 0.423826 0.778582
Si Si3 0.587297 0.321621 0.890616
Si Si4 0.636528 0.076032 0.740171
Si Si5 0.500000 0.921355 0.395913
Si Si6 0.088454 0.078737 0.102049
O O1 0.125473 0.337290 0.500000
O O2 0.117308 0.251718 0.640146
O O3 0.130093 0.381141 0.667788
O O4 0.000000 0.331574 0.604506
O O5 0.654153 0.500000 0.792233
O O6 0.644930 0.378949 0.857734
O O7 0.774455 0.417746 0.793358
O O8 0.651383 0.396691 0.678643
O O9 0.500000 0.334921 0.850214
O O10 0.584022 0.323162 0.000000
O O11 0.577895 0.102426 0.659733
O O12 0.615232 0.000000 0.765404
O O13 0.500000 0.890343 0.500000
O O14 0.500000 0.000000 0.404959
O O15 0.000000 0.103036 0.128098
O O16 0.089791 0.000000 0.097533
O O17 0.111834 0.106840 0.000000
#
# Coordination Sequence:
#
# PCOD8289768 Si02
#       6
#    16  16  16  16   8  16
#     4   9  18  34  55  76 101 135 172 212 260 312
#     4  10  20  31  48  77 107 134 171 219 259 300
#     4   9  19  35  53  74 101 137 175 209 255 311
#     4  10  20  33  52  79 104 131 171 214 262 315
#     4   9  18  34  53  71  97 133 169 206 254 312
#     4   8  14  26  44  65  93 132 171 203 244 299
#
# _framework density 17.815933000000001
#
# number of rings (size 3 to 8) (size 9 to 14) (size 15 to 20)
#    0.000    2.818    0.909    2.182    0.000    4.000 
#    0.000    5.455    0.000    1.091    0.000    0.000 
#    0.000    0.000    0.000    0.000    0.000    0.000 
#
# Total GULP energy -545374.674905 kJ/mol
# GULP energy per Si atom -12394.878975 kJ/mol
# Density = 1.777538 g / cm^3
# Si number density = 17.815933 Si / 1000 Ang^3
#
#
#
# Elastic Constant Matrix: (Units=GPa)
#
#
# Indices 1 2 3 4 5 6 
#
# 1 88.5274 37.5695 41.0595 0.0000 0.0000 0.0000
# 2 37.5695 83.5549 42.9718 0.0000 0.0000 0.0000
# 3 41.0595 42.9718 65.7027 0.0000 0.0000 0.0000
# 4 0.0000 0.0000 0.0000 24.3467 0.0000 0.0000
# 5 0.0000 0.0000 0.0000 0.0000 20.0902 0.0000
# 6 0.0000 0.0000 0.0000 0.0000 0.0000 14.5170
#
#
#
# Elastic Compliance Matrix: (Units=1/GPa)
#
#
# Indices 1 2 3 4 5 6 
#
# 1 0.016448 -0.003178 -0.008200 0.000000 0.000000 0.000000
# 2 -0.003178 0.018649 -0.010210 0.000000 0.000000 0.000000
# 3 -0.008200 -0.010210 0.027022 0.000000 0.000000 0.000000
# 4 0.000000 0.000000 0.000000 0.041073 0.000000 0.000000
# 5 0.000000 0.000000 0.000000 0.000000 0.049776 0.000000
# 6 0.000000 0.000000 0.000000 0.000000 0.000000 0.068885
#
#
# Mechanical properties :
#
#
# Convention : Reuss Voigt Hill
#
# Bulk Modulus (GPa) = 52.79505 53.44294 53.11900
# Shear Modulus (GPa) = 18.42679 19.53640 18.98159
#
# Velocity S-wave (km/s) = 3.21952 3.31504 3.26763
# Velocity P-wave (km/s) = 6.59685 6.68693 6.64204
#
# Compressibility (1/GPa) = 0.01894117
#
# Stress axis : x y z
#
# Youngs Moduli (GPa) = 60.79755 53.62360 37.00625
#
# Poissons Ratio (x) = 0.17044 0.30345
# Poissons Ratio (y) = 0.19324 0.37785
# Poissons Ratio (z) = 0.49854 0.54752
#
# Static dielectric constant tensor:
#      x y z
#    x 3.274910 0.000000 0.000000 
#    y 0.000000 3.236040 0.000000 
#    z 0.000000 0.000000 3.496960 
# 
# 
# High freq. dielectric constant tensor:
#      x y z
#    x 1.683920 0.000000 0.000000 
#    y 0.000000 1.662370 0.000000 
#    z 0.000000 0.000000 1.687460 
# 
# From -- ./inp_files/23971.got.cif
#   From: 2010.06.25/outbox.cif.g09.slc.cpg/sg71_12_cif.got.tgz:23971.got - 2010.06.28 04:59:45.
