data_PCOD8289747
_publ_section_title
;
Structure prediction by ZEFSAII (Michael W. Deem and Ramdas Pophale) SiO2 
 PCOD8289747
Probable space group: I M M M
;
_chemical_formula_sum "Si O2"
_cell_formula_units_Z 80
_cell_length_a 9.358119
_cell_length_b 17.806782
_cell_length_c 27.741857
_cell_angle_alpha 90.000000
_cell_angle_beta 90.000000
_cell_angle_gamma 90.000000
_cell_volume 4622.847150
_symmetry_space_group_name_H-M "I M M M"
_symmetry_group_IT_number 71
_symmetry_cell_setting 'orthorhombic'
loop_
_space_group_symop_operation_xyz
x,y,z
-x,-y,z
x,-y,-z
-x,y,-z
-x,-y,-z
x,y,-z
-x,y,z
x,-y,z
1/2+x,1/2+y,1/2+z
1/2-x,1/2-y,1/2+z
1/2+x,1/2-y,1/2-z
1/2-x,1/2+y,1/2-z
1/2-x,1/2-y,1/2-z
1/2+x,1/2+y,1/2-z
1/2-x,1/2+y,1/2+z
1/2+x,1/2-y,1/2+z
loop_
_atom_site_type_symbol
_atom_site_label
_atom_site_fract_x
_atom_site_fract_y
_atom_site_fract_z
Si Si1 0.334382 0.857150 0.308086
Si Si2 0.664906 0.209347 0.554292
Si Si3 0.335892 0.414404 0.104164
Si Si4 0.332096 0.913941 0.204364
Si Si5 0.336785 0.700061 0.354179
O O1 0.500000 0.879199 0.315530
O O2 0.240872 0.906233 0.344443
O O3 0.282557 0.876648 0.254477
O O4 0.309326 0.769171 0.317800
O O5 0.691154 0.238317 0.500000
O O6 0.500000 0.186387 0.562986
O O7 0.760183 0.136098 0.563684
O O8 0.706468 0.275361 0.591531
O O9 0.500000 0.388982 0.109615
O O10 0.324777 0.500000 0.086730
O O11 0.500000 0.906802 0.197468
O O12 0.259340 0.870284 0.160366
O O13 0.281759 0.000000 0.203209
O O14 0.500000 0.673699 0.352032
#
# Coordination Sequence:
#
# PCOD8289747 Si02
#       5
#    16  16  16  16  16
#     4   9  18  33  51  70  96 133 171 199 228 275
#     4   9  19  36  55  72  91 121 163 205 244 290
#     4  10  20  31  45  71 105 134 161 197 238 279
#     4  10  20  32  48  72 101 132 163 195 235 285
#     4   9  18  32  51  74  96 121 157 201 245 286
#
# _framework density 17.305351999999999
#
# number of rings (size 3 to 8) (size 9 to 14) (size 15 to 20)
#    0.000    2.600    0.000    3.000    0.000    7.600 
#    0.000    2.000    0.000    0.600    0.000    4.200 
#    0.000    0.000    0.000    0.000    0.000    0.000 
#
# Total GULP energy -496053.778475 kJ/mol
# GULP energy per Si atom -12401.344462 kJ/mol
# Density = 1.726596 g / cm^3
# Si number density = 17.305352 Si / 1000 Ang^3
#
#
#
# Elastic Constant Matrix: (Units=GPa)
#
#
# Indices 1 2 3 4 5 6 
#
# 1 63.7847 42.1113 45.9494 0.0000 0.0000 0.0000
# 2 42.1113 92.1115 65.1671 0.0000 0.0000 0.0000
# 3 45.9494 65.1671 128.3618 0.0000 0.0000 0.0000
# 4 0.0000 0.0000 0.0000 13.7916 0.0000 0.0000
# 5 0.0000 0.0000 0.0000 0.0000 23.1029 0.0000
# 6 0.0000 0.0000 0.0000 0.0000 0.0000 30.9008
#
#
#
# Elastic Compliance Matrix: (Units=1/GPa)
#
#
# Indices 1 2 3 4 5 6 
#
# 1 0.024179 -0.007694 -0.004749 0.000000 0.000000 0.000000
# 2 -0.007694 0.019390 -0.007090 0.000000 0.000000 0.000000
# 3 -0.004749 -0.007090 0.013090 0.000000 0.000000 0.000000
# 4 0.000000 0.000000 0.000000 0.072508 0.000000 0.000000
# 5 0.000000 0.000000 0.000000 0.000000 0.043285 0.000000
# 6 0.000000 0.000000 0.000000 0.000000 0.000000 0.032362
#
#
# Mechanical properties :
#
#
# Convention : Reuss Voigt Hill
#
# Bulk Modulus (GPa) = 56.84186 65.63487 61.23837
# Shear Modulus (GPa) = 20.02070 22.29441 21.15756
#
# Velocity S-wave (km/s) = 3.40503 3.59318 3.50037
# Velocity P-wave (km/s) = 6.95533 7.43131 7.19726
#
# Compressibility (1/GPa) = 0.01759267
#
# Stress axis : x y z
#
# Youngs Moduli (GPa) = 41.35904 51.57372 76.39566
#
# Poissons Ratio (x) = 0.39681 0.36280
# Poissons Ratio (y) = 0.31822 0.54162
# Poissons Ratio (z) = 0.19641 0.36564
#
# Static dielectric constant tensor:
#      x y z
#    x 3.203850 0.000000 0.000000 
#    y 0.000000 3.034790 0.000000 
#    z 0.000000 0.000000 3.209970 
# 
# 
# High freq. dielectric constant tensor:
#      x y z
#    x 1.668680 0.000000 0.000000 
#    y 0.000000 1.650780 0.000000 
#    z 0.000000 0.000000 1.660790 
# 
# From -- ./inp_files/8267.got.cif
#   From: 2010.06.25/outbox.cif.g09.slc.cpg/sg71_5_cif.got.tgz:8267.got - 2010.06.28 04:59:45.
