data_PCOD8289731
_publ_section_title
;
Structure prediction by ZEFSAII (Michael W. Deem and Ramdas Pophale) SiO2 
 PCOD8289731
Probable space group: I M M M
;
_chemical_formula_sum "Si O2"
_cell_formula_units_Z 120
_cell_length_a 27.608404
_cell_length_b 9.188927
_cell_length_c 29.399116
_cell_angle_alpha 90.000000
_cell_angle_beta 90.000000
_cell_angle_gamma 90.000000
_cell_volume 7458.309040
_symmetry_space_group_name_H-M "I M M M"
_symmetry_group_IT_number 71
_symmetry_cell_setting 'orthorhombic'
loop_
_space_group_symop_operation_xyz
x,y,z
-x,-y,z
x,-y,-z
-x,y,-z
-x,-y,-z
x,y,-z
-x,y,z
x,-y,z
1/2+x,1/2+y,1/2+z
1/2-x,1/2-y,1/2+z
1/2+x,1/2-y,1/2-z
1/2-x,1/2+y,1/2-z
1/2-x,1/2-y,1/2-z
1/2+x,1/2+y,1/2-z
1/2-x,1/2+y,1/2+z
1/2+x,1/2-y,1/2+z
loop_
_atom_site_type_symbol
_atom_site_label
_atom_site_fract_x
_atom_site_fract_y
_atom_site_fract_z
Si Si1 0.942477 0.839112 0.789826
Si Si2 0.000000 0.672639 0.449256
Si Si3 0.379731 0.328851 0.551891
Si Si4 0.405940 0.826671 0.895489
Si Si5 0.727595 0.339047 0.553892
Si Si6 0.057234 0.333459 0.876278
Si Si7 0.055836 0.171224 0.311418
Si Si8 0.320611 0.331688 0.053597
O O1 0.923120 0.730391 0.828443
O O2 0.926049 0.788718 0.739492
O O3 0.000000 0.845423 0.789715
O O4 0.921804 0.000000 0.800504
O O5 0.047534 0.729001 0.423563
O O6 0.000000 0.500000 0.451162
O O7 0.000000 0.738747 0.500000
O O8 0.386241 0.276255 0.500000
O O9 0.388737 0.500000 0.555684
O O10 0.325805 0.289695 0.570425
O O11 0.419311 0.247502 0.581494
O O12 0.410026 0.762943 0.844851
O O13 0.358998 0.764559 0.919835
O O14 0.402461 0.000000 0.893524
O O15 0.725529 0.349746 0.500000
O O16 0.740465 0.500000 0.573316
O O17 0.767583 0.222407 0.569574
O O18 0.072851 0.500000 0.877778
O O19 0.000000 0.312181 0.880303
O O20 0.000000 0.218298 0.318435
O O21 0.061869 0.000000 0.320654
O O22 0.326117 0.500000 0.066843
O O23 0.328084 0.306540 0.000000
#
# Coordination Sequence:
#
# PCOD8289731 Si02
#       8
#    16   8  16  16  16  16  16  16
#     4   8  15  29  48  66  86 119 157 192 232 274
#     4   9  18  30  41  57  85 121 159 191 222 269
#     4   9  18  32  50  71  95 126 162 194 225 268
#     4  11  20  30  45  65  90 122 157 193 233 279
#     4   8  15  30  50  69  88 113 150 195 236 271
#     4  10  20  31  44  68 101 132 160 192 227 265
#     4   9  17  30  47  66  90 117 149 194 241 282
#     4  10  20  32  46  66  91 119 153 193 237 280
#
# _framework density 16.089438000000001
#
# number of rings (size 3 to 8) (size 9 to 14) (size 15 to 20)
#    0.000    2.733    0.667    3.200    0.000    3.733 
#    0.000    4.000    0.000    1.600    0.000    0.933 
#    0.000    0.000    0.000    0.000    0.000    0.000 
#
# Total GULP energy -743837.389461 kJ/mol
# GULP energy per Si atom -12397.289824 kJ/mol
# Density = 1.605282 g / cm^3
# Si number density = 16.089438 Si / 1000 Ang^3
#
#
#
# Elastic Constant Matrix: (Units=GPa)
#
#
# Indices 1 2 3 4 5 6 
#
# 1 49.2521 34.4976 36.4232 0.0000 0.0000 0.0000
# 2 34.4976 76.8420 51.2999 0.0000 0.0000 0.0000
# 3 36.4232 51.2999 98.6463 0.0000 0.0000 0.0000
# 4 0.0000 0.0000 0.0000 24.6900 0.0000 0.0000
# 5 0.0000 0.0000 0.0000 0.0000 4.3256 0.0000
# 6 0.0000 0.0000 0.0000 0.0000 0.0000 23.9117
#
#
#
# Elastic Compliance Matrix: (Units=1/GPa)
#
#
# Indices 1 2 3 4 5 6 
#
# 1 0.032279 -0.010010 -0.006713 0.000000 0.000000 0.000000
# 2 -0.010010 0.023039 -0.008285 0.000000 0.000000 0.000000
# 3 -0.006713 -0.008285 0.016924 0.000000 0.000000 0.000000
# 4 0.000000 0.000000 0.000000 0.040502 0.000000 0.000000
# 5 0.000000 0.000000 0.000000 0.000000 0.231182 0.000000
# 6 0.000000 0.000000 0.000000 0.000000 0.000000 0.041821
#
#
# Mechanical properties :
#
#
# Convention : Reuss Voigt Hill
#
# Bulk Modulus (GPa) = 44.99123 52.13131 48.56127
# Shear Modulus (GPa) = 11.28229 17.42010 14.35119
#
# Velocity S-wave (km/s) = 2.65093 3.29402 2.98982
# Velocity P-wave (km/s) = 6.11505 6.85118 6.49356
#
# Compressibility (1/GPa) = 0.02222656
#
# Stress axis : x y z
#
# Youngs Moduli (GPa) = 30.97951 43.40516 59.08633
#
# Poissons Ratio (x) = 0.43449 0.39664
# Poissons Ratio (y) = 0.31011 0.48953
# Poissons Ratio (z) = 0.20796 0.35961
#
# Static dielectric constant tensor:
#      x y z
#    x 2.956680 0.000000 0.000000 
#    y 0.000000 3.057670 0.000000 
#    z 0.000000 0.000000 3.039030 
# 
# 
# High freq. dielectric constant tensor:
#      x y z
#    x 1.594730 0.000000 0.000000 
#    y 0.000000 1.619130 0.000000 
#    z 0.000000 0.000000 1.605380 
# 
# From -- ./inp_files/67161.got.cif
#   From: 2010.06.25/outbox.cif.g09.slc.cpg/sg71_34_cif.got.tgz:67161.got - 2010.06.28 04:59:45.
