data_PCOD8289314
_publ_section_title
;
Structure prediction by ZEFSAII (Michael W. Deem and Ramdas Pophale) SiO2 
 PCOD8289314
Probable space group: I M M M
;
_chemical_formula_sum "Si O2"
_cell_formula_units_Z 88
_cell_length_a 17.061356
_cell_length_b 16.861777
_cell_length_c 15.911158
_cell_angle_alpha 90.000000
_cell_angle_beta 90.000000
_cell_angle_gamma 90.000000
_cell_volume 4577.397992
_symmetry_space_group_name_H-M "I M M M"
_symmetry_group_IT_number 71
_symmetry_cell_setting 'orthorhombic'
loop_
_space_group_symop_operation_xyz
x,y,z
-x,-y,z
x,-y,-z
-x,y,-z
-x,-y,-z
x,y,-z
-x,y,z
x,-y,z
1/2+x,1/2+y,1/2+z
1/2-x,1/2-y,1/2+z
1/2+x,1/2-y,1/2-z
1/2-x,1/2+y,1/2-z
1/2-x,1/2-y,1/2-z
1/2+x,1/2+y,1/2-z
1/2-x,1/2+y,1/2+z
1/2+x,1/2-y,1/2+z
loop_
_atom_site_type_symbol
_atom_site_label
_atom_site_fract_x
_atom_site_fract_y
_atom_site_fract_z
Si Si1 0.409006 0.667511 0.167099
Si Si2 0.587042 0.405762 0.500000
Si Si3 0.677886 0.906134 0.500000
Si Si4 0.407858 0.092229 0.333923
Si Si5 0.688835 0.807165 0.204870
Si Si6 0.853046 0.092926 0.500000
Si Si7 0.828383 0.094227 0.167790
O O1 0.500000 0.680306 0.187041
O O2 0.366831 0.751795 0.147657
O O3 0.400139 0.616057 0.083358
O O4 0.370016 0.625059 0.247627
O O5 0.587281 0.500000 0.500000
O O6 0.500000 0.370997 0.500000
O O7 0.627255 0.374591 0.585044
O O8 0.630664 0.876346 0.419482
O O9 0.765495 0.869493 0.500000
O O10 0.681339 0.000000 0.500000
O O11 0.500000 0.106675 0.338300
O O12 0.370650 0.146255 0.263586
O O13 0.388241 0.000000 0.317087
O O14 0.750000 0.750000 0.250000
O O15 0.740084 0.872586 0.156037
O O16 0.844379 0.000000 0.500000
O O17 0.825172 0.000000 0.172867
#
# Coordination Sequence:
#
# PCOD8289314 Si02
#       7
#    16   8   8  16  16   8  16
#     4  11  23  38  56  80 113 150 189 238 292 341
#     4   9  18  33  55  84 111 134 170 223 281 338
#     4   9  17  31  52  81 115 146 180 228 285 335
#     4  10  19  33  56  84 113 147 190 238 285 340
#     4  10  21  36  53  75 108 148 187 226 277 339
#     4  11  23  38  59  85 112 148 194 238 282 341
#     4  10  20  36  59  84 111 146 186 231 282 339
#
# _framework density 19.224895
#
# number of rings (size 3 to 8) (size 9 to 14) (size 15 to 20)
#    0.000    1.909    0.000    4.909    0.000    5.818 
#    0.000    3.636    0.000    0.000    0.000    0.000 
#    0.000   10.182    0.000    0.000    0.000    0.000 
#
# Total GULP energy -545425.163802 kJ/mol
# GULP energy per Si atom -12396.026450 kJ/mol
# Density = 1.918114 g / cm^3
# Si number density = 19.224895 Si / 1000 Ang^3
#
#
#
# Elastic Constant Matrix: (Units=GPa)
#
#
# Indices 1 2 3 4 5 6 
#
# 1 118.2581 51.1095 33.6388 0.0000 0.0000 0.0000
# 2 51.1095 63.9274 33.1666 0.0000 0.0000 0.0000
# 3 33.6388 33.1666 116.4518 0.0000 0.0000 0.0000
# 4 0.0000 0.0000 0.0000 10.8906 0.0000 0.0000
# 5 0.0000 0.0000 0.0000 0.0000 44.5694 0.0000
# 6 0.0000 0.0000 0.0000 0.0000 0.0000 33.6293
#
#
#
# Elastic Compliance Matrix: (Units=1/GPa)
#
#
# Indices 1 2 3 4 5 6 
#
# 1 0.013006 -0.009914 -0.000933 0.000000 0.000000 0.000000
# 2 -0.009914 0.025912 -0.004516 0.000000 0.000000 0.000000
# 3 -0.000933 -0.004516 0.010143 0.000000 0.000000 0.000000
# 4 0.000000 0.000000 0.000000 0.091822 0.000000 0.000000
# 5 0.000000 0.000000 0.000000 0.000000 0.022437 0.000000
# 6 0.000000 0.000000 0.000000 0.000000 0.000000 0.029736
#
#
# Mechanical properties :
#
#
# Convention : Reuss Voigt Hill
#
# Bulk Modulus (GPa) = 54.54335 59.38523 56.96429
# Shear Modulus (GPa) = 21.74896 29.86601 25.80748
#
# Velocity S-wave (km/s) = 3.36712 3.94573 3.66785
# Velocity P-wave (km/s) = 6.59920 7.19133 6.90162
#
# Compressibility (1/GPa) = 0.01833404
#
# Stress axis : x y z
#
# Youngs Moduli (GPa) = 76.88524 38.59184 98.58892
#
# Poissons Ratio (x) = 0.38261 0.09202
# Poissons Ratio (y) = 0.76226 0.44525
# Poissons Ratio (z) = 0.07176 0.17429
#
# Static dielectric constant tensor:
#      x y z
#    x 3.889800 0.000000 0.000000 
#    y 0.000000 3.609650 0.000000 
#    z 0.000000 0.000000 3.524700 
# 
# 
# High freq. dielectric constant tensor:
#      x y z
#    x 1.765570 0.000000 0.000000 
#    y 0.000000 1.743580 0.000000 
#    z 0.000000 0.000000 1.735770 
# 
# From -- ./inp_files/36413.got.cif
#   From: 2010.06.25/outbox.cif.g09.slc.cpg/sg71_19_cif.got.tgz:36413.got - 2010.06.28 04:59:45.
