data_PCOD8289911
_publ_section_title
;
Structure prediction by ZEFSAII (Michael W. Deem and Ramdas Pophale) SiO2 
 PCOD8289911
Probable space group: I M M M
;
_chemical_formula_sum "Si O2"
_cell_formula_units_Z 88
_cell_length_a 25.765420
_cell_length_b 12.555634
_cell_length_c 15.977056
_cell_angle_alpha 90.000000
_cell_angle_beta 90.000000
_cell_angle_gamma 90.000000
_cell_volume 5168.596523
_symmetry_space_group_name_H-M "I M M M"
_symmetry_group_IT_number 71
_symmetry_cell_setting 'orthorhombic'
loop_
_space_group_symop_operation_xyz
x,y,z
-x,-y,z
x,-y,-z
-x,y,-z
-x,-y,-z
x,y,-z
-x,y,z
x,-y,z
1/2+x,1/2+y,1/2+z
1/2-x,1/2-y,1/2+z
1/2+x,1/2-y,1/2-z
1/2-x,1/2+y,1/2-z
1/2-x,1/2-y,1/2-z
1/2+x,1/2+y,1/2-z
1/2-x,1/2+y,1/2+z
1/2+x,1/2-y,1/2+z
loop_
_atom_site_type_symbol
_atom_site_label
_atom_site_fract_x
_atom_site_fract_y
_atom_site_fract_z
Si Si1 0.315729 0.123549 0.901042
Si Si2 0.091026 0.753339 0.336945
Si Si3 0.700891 0.373724 0.592187
Si Si4 0.596151 0.374537 0.329199
Si Si5 0.500000 0.742010 0.403328
Si Si6 0.060834 0.880773 0.500000
Si Si7 0.500000 0.125159 0.239188
O O1 0.353742 0.195971 0.846288
O O2 0.257570 0.157457 0.871939
O O3 0.326468 0.000000 0.880793
O O4 0.323142 0.143893 0.000000
O O5 0.089054 0.843676 0.266650
O O6 0.078187 0.813992 0.420942
O O7 0.049694 0.663597 0.312751
O O8 0.694943 0.324250 0.500000
O O9 0.697863 0.500000 0.586700
O O10 0.652953 0.329147 0.645950
O O11 0.592652 0.500000 0.338880
O O12 0.551657 0.327214 0.388608
O O13 0.500000 0.782875 0.500000
O O14 0.500000 0.837983 0.336281
O O15 0.000000 0.893076 0.500000
O O16 0.085767 0.000000 0.500000
O O17 0.500000 0.000000 0.240198
#
# Coordination Sequence:
#
# PCOD8289911 Si02
#       7
#    16  16  16  16   8   8   8
#     4   9  17  30  50  72  97 127 167 215 254 295
#     4  11  20  34  50  74 100 133 176 206 254 304
#     4   8  15  29  48  71  98 129 161 203 258 303
#     4  10  20  32  49  74 106 133 165 211 253 299
#     4  10  21  35  55  79 101 131 168 201 246 308
#     4  11  22  36  52  70 102 142 174 209 252 305
#     4  10  22  37  52  75 105 129 159 209 254 296
#
# _framework density 17.025898999999999
#
# number of rings (size 3 to 8) (size 9 to 14) (size 15 to 20)
#    0.000    2.273    1.818    3.000    0.000    2.364 
#    0.000    0.455    0.000    0.000    0.000    1.273 
#    0.000    0.000    0.000    0.000    0.000    0.000 
#
# Total GULP energy -545384.311747 kJ/mol
# GULP energy per Si atom -12395.097994 kJ/mol
# Density = 1.698715 g / cm^3
# Si number density = 17.025899 Si / 1000 Ang^3
#
#
#
# Elastic Constant Matrix: (Units=GPa)
#
#
# Indices 1 2 3 4 5 6 
#
# 1 133.9762 44.2594 44.6074 0.0000 0.0000 0.0000
# 2 44.2594 85.0332 40.3806 0.0000 0.0000 0.0000
# 3 44.6074 40.3806 102.5776 0.0000 0.0000 0.0000
# 4 0.0000 0.0000 0.0000 13.3753 0.0000 0.0000
# 5 0.0000 0.0000 0.0000 0.0000 22.0930 0.0000
# 6 0.0000 0.0000 0.0000 0.0000 0.0000 33.1857
#
#
#
# Elastic Compliance Matrix: (Units=1/GPa)
#
#
# Indices 1 2 3 4 5 6 
#
# 1 0.009591 -0.003704 -0.002713 0.000000 0.000000 0.000000
# 2 -0.003704 0.015894 -0.004646 0.000000 0.000000 0.000000
# 3 -0.002713 -0.004646 0.012757 0.000000 0.000000 0.000000
# 4 0.000000 0.000000 0.000000 0.074765 0.000000 0.000000
# 5 0.000000 0.000000 0.000000 0.000000 0.045263 0.000000
# 6 0.000000 0.000000 0.000000 0.000000 0.000000 0.030133
#
#
# Mechanical properties :
#
#
# Convention : Reuss Voigt Hill
#
# Bulk Modulus (GPa) = 62.04614 64.45355 63.24985
# Shear Modulus (GPa) = 23.15868 26.55342 24.85605
#
# Velocity S-wave (km/s) = 3.69209 3.95345 3.82500
# Velocity P-wave (km/s) = 7.39572 7.66668 7.53242
#
# Compressibility (1/GPa) = 0.01611704
#
# Stress axis : x y z
#
# Youngs Moduli (GPa) = 104.26723 62.91544 78.38573
#
# Poissons Ratio (x) = 0.23302 0.21263
# Poissons Ratio (y) = 0.38618 0.36421
# Poissons Ratio (z) = 0.28284 0.29233
#
# Static dielectric constant tensor:
#      x y z
#    x 3.575910 0.000000 0.000000 
#    y 0.000000 2.957490 0.000000 
#    z 0.000000 0.000000 3.187770 
# 
# 
# High freq. dielectric constant tensor:
#      x y z
#    x 1.673600 0.000000 0.000000 
#    y 0.000000 1.632430 0.000000 
#    z 0.000000 0.000000 1.654120 
# 
# From -- ./inp_files/40181.got.cif
#   From: 2010.06.25/outbox.cif.g09.slc.cpg/sg71_21_cif.got.tgz:40181.got - 2010.06.28 04:59:45.
