data_PCOD8289711
_publ_section_title
;
Structure prediction by ZEFSAII (Michael W. Deem and Ramdas Pophale) SiO2 
 PCOD8289711
Probable space group: I M M M
;
_chemical_formula_sum "Si O2"
_cell_formula_units_Z 96
_cell_length_a 29.846161
_cell_length_b 27.428945
_cell_length_c 9.159489
_cell_angle_alpha 90.000000
_cell_angle_beta 90.000000
_cell_angle_gamma 90.000000
_cell_volume 7498.403841
_symmetry_space_group_name_H-M "I M M M"
_symmetry_group_IT_number 71
_symmetry_cell_setting 'orthorhombic'
loop_
_space_group_symop_operation_xyz
x,y,z
-x,-y,z
x,-y,-z
-x,y,-z
-x,-y,-z
x,y,-z
-x,y,z
x,-y,z
1/2+x,1/2+y,1/2+z
1/2-x,1/2-y,1/2+z
1/2+x,1/2-y,1/2-z
1/2-x,1/2+y,1/2-z
1/2-x,1/2-y,1/2-z
1/2+x,1/2+y,1/2-z
1/2-x,1/2+y,1/2+z
1/2+x,1/2-y,1/2+z
loop_
_atom_site_type_symbol
_atom_site_label
_atom_site_fract_x
_atom_site_fract_y
_atom_site_fract_z
Si Si1 0.383439 0.704795 0.336155
Si Si2 0.250742 0.175381 0.663727
Si Si3 0.447249 0.362172 0.831576
Si Si4 0.817640 0.735201 0.335169
Si Si5 0.895325 0.055995 0.828285
Si Si6 0.314089 0.382925 0.661285
O O1 0.397720 0.720330 0.500000
O O2 0.426246 0.684539 0.249223
O O3 0.362944 0.751335 0.251847
O O4 0.346051 0.663590 0.343978
O O5 0.266193 0.163167 0.500000
O O6 0.216134 0.219674 0.664763
O O7 0.294380 0.189001 0.757863
O O8 0.227188 0.127100 0.730147
O O9 0.500000 0.358446 0.814259
O O10 0.431352 0.412839 0.760618
O O11 0.432087 0.361412 0.000000
O O12 0.830351 0.720519 0.500000
O O13 0.844431 0.071513 0.785510
O O14 0.902490 0.000000 0.786166
O O15 0.902899 0.065828 0.000000
O O16 0.294279 0.392796 0.500000
#
# Coordination Sequence:
#
# PCOD8289711 Si02
#       6
#    16  16  16  16  16  16
#     4   9  16  26  39  52  66  84 106 131 160 197
#     4   9  15  21  31  48  68  88 108 126 147 182
#     4  10  20  31  41  53  68  85 107 138 177 218
#     4   9  15  22  33  49  69  89 106 125 151 184
#     4   9  18  31  44  55  66  83 109 141 177 217
#     4   8  14  24  36  49  65  83 103 129 162 198
#
# _framework density 12.802724
#
# number of rings (size 3 to 8) (size 9 to 14) (size 15 to 20)
#    0.000    3.000    0.000    3.000    0.000   10.000 
#    0.000    1.667    0.000    0.000    0.000    0.000 
#    0.000    0.000    0.000    0.000    0.000    0.000 
#
# Total GULP energy -595006.287331 kJ/mol
# GULP energy per Si atom -12395.964319 kJ/mol
# Density = 1.277358 g / cm^3
# Si number density = 12.802724 Si / 1000 Ang^3
#
#
#
# Elastic Constant Matrix: (Units=GPa)
#
#
# Indices 1 2 3 4 5 6 
#
# 1 56.9285 34.5751 47.4675 0.0000 0.0000 0.0000
# 2 34.5751 20.9049 29.4127 0.0000 0.0000 0.0000
# 3 47.4675 29.4127 109.0543 0.0000 0.0000 0.0000
# 4 0.0000 0.0000 0.0000 14.6244 0.0000 0.0000
# 5 0.0000 0.0000 0.0000 0.0000 20.4234 0.0000
# 6 0.0000 0.0000 0.0000 0.0000 0.0000 14.6355
#
#
#
# Elastic Compliance Matrix: (Units=1/GPa)
#
#
# Indices 1 2 3 4 5 6 
#
# 1 -3.612296 6.063033 -0.062938 0.000000 0.000000 0.000000
# 2 6.063033-10.099368 0.084846 0.000000 0.000000 0.000000
# 3 -0.062938 0.084846 0.013681 0.000000 0.000000 0.000000
# 4 0.000000 0.000000 0.000000 0.068379 0.000000 0.000000
# 5 0.000000 0.000000 0.000000 0.000000 0.048963 0.000000
# 6 0.000000 0.000000 0.000000 0.000000 0.000000 0.068327
#
#
# Mechanical properties :
#
#
# Convention : Reuss Voigt Hill
#
# Bulk Modulus (GPa) = -0.65441 45.53314 22.43937
# Shear Modulus (GPa) = -0.19090 14.96550 7.38730
#
# Velocity S-wave (km/s) = -0.38657 3.42267 2.40471
# Velocity P-wave (km/s) = 0.84351 7.15975 5.02745
#
# Compressibility (1/GPa) = -1.52809984
#
# Stress axis : x y z
#
# Youngs Moduli (GPa) = -0.27683 -0.09902 73.09540
#
# Poissons Ratio (x) = 0.60034 4.60046
# Poissons Ratio (y) = 1.67844 -6.20185
# Poissons Ratio (z) = -0.01742 0.00840
#
# Static dielectric constant tensor:
#      x y z
#    x 2.432890 0.000000 0.000000 
#    y 0.000000 2.390660 0.000000 
#    z 0.000000 0.000000 2.843860 
# 
# 
# High freq. dielectric constant tensor:
#      x y z
#    x 1.456100 0.000000 0.000000 
#    y 0.000000 1.436260 0.000000 
#    z 0.000000 0.000000 1.505600 
# 
# From -- ./inp_files/15434.got.cif
#   From: 2010.06.25/outbox.cif.g09.slc.cpg/sg71_8_cif.got.tgz:15434.got - 2010.06.28 04:59:45.
