data_PCOD8289394
_publ_section_title
;
Structure prediction by ZEFSAII (Michael W. Deem and Ramdas Pophale) SiO2 
 PCOD8289394
Probable space group: I M M M
;
_chemical_formula_sum "Si O2"
_cell_formula_units_Z 104
_cell_length_a 19.523191
_cell_length_b 8.871808
_cell_length_c 31.999898
_cell_angle_alpha 90.000000
_cell_angle_beta 90.000000
_cell_angle_gamma 90.000000
_cell_volume 5542.574400
_symmetry_space_group_name_H-M "I M M M"
_symmetry_group_IT_number 71
_symmetry_cell_setting 'orthorhombic'
loop_
_space_group_symop_operation_xyz
x,y,z
-x,-y,z
x,-y,-z
-x,y,-z
-x,-y,-z
x,y,-z
-x,y,z
x,-y,z
1/2+x,1/2+y,1/2+z
1/2-x,1/2-y,1/2+z
1/2+x,1/2-y,1/2-z
1/2-x,1/2+y,1/2-z
1/2-x,1/2-y,1/2-z
1/2+x,1/2+y,1/2-z
1/2-x,1/2+y,1/2+z
1/2+x,1/2-y,1/2+z
loop_
_atom_site_type_symbol
_atom_site_label
_atom_site_fract_x
_atom_site_fract_y
_atom_site_fract_z
Si Si1 0.575126 0.821120 0.846118
Si Si2 0.077705 0.678912 0.500000
Si Si3 0.194659 0.322738 0.100427
Si Si4 0.200654 0.174055 0.189454
Si Si5 0.833988 0.320623 0.421349
Si Si6 0.578868 0.326269 0.451656
Si Si7 0.844948 0.326026 0.267815
O O1 0.500000 0.754945 0.856039
O O2 0.629651 0.758445 0.879397
O O3 0.594343 0.775818 0.798815
O O4 0.574738 0.000000 0.850502
O O5 0.073217 0.500000 0.500000
O O6 0.119365 0.735787 0.459686
O O7 0.000000 0.744852 0.500000
O O8 0.204484 0.500000 0.100358
O O9 0.188360 0.267315 0.147796
O O10 0.258606 0.249147 0.076119
O O11 0.125480 0.280582 0.076437
O O12 0.148715 0.227896 0.225793
O O13 0.276290 0.205782 0.206233
O O14 0.187969 0.000000 0.179193
O O15 0.825968 0.500000 0.421411
O O16 0.593363 0.290536 0.500000
O O17 0.500000 0.291720 0.440705
O O18 0.596141 0.500000 0.441873
O O19 0.849715 0.500000 0.254720
#
# Coordination Sequence:
#
# PCOD8289394 Si02
#       7
#    16   8  16  16  16  16  16
#     4   9  16  29  52  79 109 145 187 237 286 330
#     4   9  18  32  55  85 112 145 194 247 289 328
#     4  12  24  36  55  85 119 152 187 228 276 330
#     4  10  19  34  55  78 105 142 185 229 278 330
#     4  10  19  34  54  81 113 149 194 239 282 327
#     4   9  20  41  67  90 112 142 180 224 279 340
#     4   9  17  31  51  78 107 138 180 230 286 338
#
# _framework density 18.763845
#
# number of rings (size 3 to 8) (size 9 to 14) (size 15 to 20)
#    0.000    2.231    1.538    2.769    1.077    3.077 
#    0.000    1.538    0.000    6.462    0.000    0.000 
#    0.000    0.000    0.000    0.000    0.000    0.000 
#
# Total GULP energy -644773.060277 kJ/mol
# GULP energy per Si atom -12399.481928 kJ/mol
# Density = 1.872114 g / cm^3
# Si number density = 18.763845 Si / 1000 Ang^3
#
#
#
# Elastic Constant Matrix: (Units=GPa)
#
#
# Indices 1 2 3 4 5 6 
#
# 1 102.9642 37.1794 58.6571 0.0000 0.0000 0.0000
# 2 37.1794 64.3152 43.0633 0.0000 0.0000 0.0000
# 3 58.6571 43.0633 117.0269 0.0000 0.0000 0.0000
# 4 0.0000 0.0000 0.0000 24.5439 0.0000 0.0000
# 5 0.0000 0.0000 0.0000 0.0000 19.9383 0.0000
# 6 0.0000 0.0000 0.0000 0.0000 0.0000 15.2049
#
#
#
# Elastic Compliance Matrix: (Units=1/GPa)
#
#
# Indices 1 2 3 4 5 6 
#
# 1 0.014589 -0.004694 -0.005585 0.000000 0.000000 0.000000
# 2 -0.004694 0.022142 -0.005795 0.000000 0.000000 0.000000
# 3 -0.005585 -0.005795 0.013477 0.000000 0.000000 0.000000
# 4 0.000000 0.000000 0.000000 0.040743 0.000000 0.000000
# 5 0.000000 0.000000 0.000000 0.000000 0.050155 0.000000
# 6 0.000000 0.000000 0.000000 0.000000 0.000000 0.065768
#
#
# Mechanical properties :
#
#
# Convention : Reuss Voigt Hill
#
# Bulk Modulus (GPa) = 55.37205 62.45620 58.91413
# Shear Modulus (GPa) = 20.40468 21.63120 21.01794
#
# Velocity S-wave (km/s) = 3.30122 3.39899 3.35046
# Velocity P-wave (km/s) = 6.64114 6.98297 6.81420
#
# Compressibility (1/GPa) = 0.01805965
#
# Stress axis : x y z
#
# Youngs Moduli (GPa) = 68.54600 45.16293 74.20120
#
# Poissons Ratio (x) = 0.21199 0.41442
# Poissons Ratio (y) = 0.32175 0.43000
# Poissons Ratio (z) = 0.38283 0.26172
#
# Static dielectric constant tensor:
#      x y z
#    x 3.488800 0.000000 0.000000 
#    y 0.000000 3.159650 0.000000 
#    z 0.000000 0.000000 3.585470 
# 
# 
# High freq. dielectric constant tensor:
#      x y z
#    x 1.723090 0.000000 0.000000 
#    y 0.000000 1.696590 0.000000 
#    z 0.000000 0.000000 1.738830 
# 
# From -- ./inp_files/70758.got.cif
#   From: 2010.06.25/outbox.cif.g09.slc.cpg/sg71_36_cif.got.tgz:70758.got - 2010.06.28 04:59:45.
