data_PCOD8289728
_publ_section_title
;
Structure prediction by ZEFSAII (Michael W. Deem and Ramdas Pophale) SiO2 
 PCOD8289728
Probable space group: I M M M
;
_chemical_formula_sum "Si O2"
_cell_formula_units_Z 128
_cell_length_a 18.645566
_cell_length_b 22.640345
_cell_length_c 18.816963
_cell_angle_alpha 90.000000
_cell_angle_beta 90.000000
_cell_angle_gamma 90.000000
_cell_volume 7943.431278
_symmetry_space_group_name_H-M "I M M M"
_symmetry_group_IT_number 71
_symmetry_cell_setting 'orthorhombic'
loop_
_space_group_symop_operation_xyz
x,y,z
-x,-y,z
x,-y,-z
-x,y,-z
-x,-y,-z
x,y,-z
-x,y,z
x,-y,z
1/2+x,1/2+y,1/2+z
1/2-x,1/2-y,1/2+z
1/2+x,1/2-y,1/2-z
1/2-x,1/2+y,1/2-z
1/2-x,1/2-y,1/2-z
1/2+x,1/2+y,1/2-z
1/2-x,1/2+y,1/2+z
1/2+x,1/2-y,1/2+z
loop_
_atom_site_type_symbol
_atom_site_label
_atom_site_fract_x
_atom_site_fract_y
_atom_site_fract_z
Si Si1 0.821822 0.566563 0.311161
Si Si2 0.420738 0.245653 0.152981
Si Si3 0.416662 0.931317 0.324454
Si Si4 0.918425 0.620379 0.419417
Si Si5 0.919813 0.230343 0.185453
Si Si6 0.720363 0.329858 0.301192
Si Si7 0.862388 0.329503 0.081879
Si Si8 0.276056 0.289360 0.855246
O O1 0.794497 0.500000 0.302204
O O2 0.871035 0.586113 0.244841
O O3 0.869880 0.571316 0.381757
O O4 0.750740 0.606154 0.321015
O O5 0.500000 0.270387 0.133646
O O6 0.408412 0.182099 0.120025
O O7 0.411458 0.238363 0.237917
O O8 0.360599 0.291676 0.123016
O O9 0.500000 0.916351 0.309329
O O10 0.387196 0.893454 0.390540
O O11 0.407055 0.000000 0.344263
O O12 0.892430 0.628058 0.500000
O O13 0.000000 0.598364 0.415940
O O14 0.865004 0.174895 0.182429
O O15 0.902291 0.278850 0.126264
O O16 0.000000 0.205836 0.173535
O O17 0.738445 0.321365 0.218825
O O18 0.759308 0.280248 0.348250
O O19 0.775889 0.321046 0.088105
O O20 0.884812 0.324058 0.000000
#
# Coordination Sequence:
#
# PCOD8289728 Si02
#       8
#    16  16  16  16  16  16  16  16
#     4  11  20  33  51  68  90 122 164 203 229 274
#     4   9  16  29  51  72  93 126 157 189 234 283
#     4  10  21  35  50  68  92 127 167 200 229 269
#     4  10  20  31  44  66  97 127 155 191 233 275
#     4   9  18  31  50  73  95 122 158 196 235 288
#     4   9  16  30  50  70  89 119 153 194 241 275
#     4  11  21  31  47  71 100 131 160 196 237 276
#     4   9  16  30  48  68  97 120 152 195 234 282
#
# _framework density 16.113942999999999
#
# number of rings (size 3 to 8) (size 9 to 14) (size 15 to 20)
#    0.000    2.250    2.500    2.250    0.000    3.750 
#    0.000    1.250    0.000    0.375    0.000    0.000 
#    0.000    0.500    0.000    5.500    0.000    0.000 
#
# Total GULP energy -793356.631884 kJ/mol
# GULP energy per Si atom -12396.197373 kJ/mol
# Density = 1.607727 g / cm^3
# Si number density = 16.113943 Si / 1000 Ang^3
#
#
#
# Elastic Constant Matrix: (Units=GPa)
#
#
# Indices 1 2 3 4 5 6 
#
# 1 117.2237 47.7265 35.5602 0.0000 0.0000 0.0000
# 2 47.7265 73.7040 31.8235 0.0000 0.0000 0.0000
# 3 35.5602 31.8235 81.1645 0.0000 0.0000 0.0000
# 4 0.0000 0.0000 0.0000 9.6196 0.0000 0.0000
# 5 0.0000 0.0000 0.0000 0.0000 17.3752 0.0000
# 6 0.0000 0.0000 0.0000 0.0000 0.0000 23.8452
#
#
#
# Elastic Compliance Matrix: (Units=1/GPa)
#
#
# Indices 1 2 3 4 5 6 
#
# 1 0.012048 -0.006648 -0.002672 0.000000 0.000000 0.000000
# 2 -0.006648 0.020001 -0.004930 0.000000 0.000000 0.000000
# 3 -0.002672 -0.004930 0.015424 0.000000 0.000000 0.000000
# 4 0.000000 0.000000 0.000000 0.103954 0.000000 0.000000
# 5 0.000000 0.000000 0.000000 0.000000 0.057553 0.000000
# 6 0.000000 0.000000 0.000000 0.000000 0.000000 0.041937
#
#
# Mechanical properties :
#
#
# Convention : Reuss Voigt Hill
#
# Bulk Modulus (GPa) = 52.70273 55.81248 54.25760
# Shear Modulus (GPa) = 17.49838 20.63348 19.06593
#
# Velocity S-wave (km/s) = 3.29890 3.58225 3.44349
# Velocity P-wave (km/s) = 6.87660 7.19871 7.03950
#
# Compressibility (1/GPa) = 0.01897435
#
# Stress axis : x y z
#
# Youngs Moduli (GPa) = 83.00253 49.99754 64.83357
#
# Poissons Ratio (x) = 0.33237 0.17323
# Poissons Ratio (y) = 0.55179 0.31960
# Poissons Ratio (z) = 0.22178 0.24646
#
# Static dielectric constant tensor:
#      x y z
#    x 3.360710 0.000000 0.000000 
#    y 0.000000 2.751900 0.000000 
#    z 0.000000 0.000000 2.944420 
# 
# 
# High freq. dielectric constant tensor:
#      x y z
#    x 1.627040 0.000000 0.000000 
#    y 0.000000 1.582510 0.000000 
#    z 0.000000 0.000000 1.606850 
# 
# From -- ./inp_files/47770.got.cif
#   From: 2010.06.25/outbox.cif.g09.slc.cpg/sg71_24_cif.got.tgz:47770.got - 2010.06.28 04:59:45.
