data_PCOD8289086
_publ_section_title
;
Structure prediction by ZEFSAII (Michael W. Deem and Ramdas Pophale) SiO2 
 PCOD8289086
Probable space group: I M M M
;
_chemical_formula_sum "Si O2"
_cell_formula_units_Z 52
_cell_length_a 11.523723
_cell_length_b 18.304342
_cell_length_c 12.176821
_cell_angle_alpha 90.000000
_cell_angle_beta 90.000000
_cell_angle_gamma 90.000000
_cell_volume 2568.507593
_symmetry_space_group_name_H-M "I M M M"
_symmetry_group_IT_number 71
_symmetry_cell_setting 'orthorhombic'
loop_
_space_group_symop_operation_xyz
x,y,z
-x,-y,z
x,-y,-z
-x,y,-z
-x,-y,-z
x,y,-z
-x,y,z
x,-y,z
1/2+x,1/2+y,1/2+z
1/2-x,1/2-y,1/2+z
1/2+x,1/2-y,1/2-z
1/2-x,1/2+y,1/2-z
1/2-x,1/2-y,1/2-z
1/2+x,1/2+y,1/2-z
1/2-x,1/2+y,1/2+z
1/2+x,1/2-y,1/2+z
loop_
_atom_site_type_symbol
_atom_site_label
_atom_site_fract_x
_atom_site_fract_y
_atom_site_fract_z
Si Si1 0.129553 0.660885 0.000000
Si Si2 0.131450 0.296785 0.624905
Si Si3 0.000000 0.919365 0.800482
Si Si4 0.500000 0.304822 0.500000
Si Si5 0.287767 0.645900 0.795028
O O1 0.113187 0.750274 0.000000
O O2 0.200699 0.631771 0.104433
O O3 0.000000 0.625305 0.000000
O O4 0.170669 0.284976 0.500000
O O5 0.213082 0.356099 0.682827
O O6 0.143433 0.221529 0.690652
O O7 0.000000 0.324683 0.632662
O O8 0.887251 0.914495 0.721085
O O9 0.000000 0.000000 0.854856
O O10 0.000000 0.855785 0.892440
#
# Coordination Sequence:
#
# PCOD8289086 Si02
#       5
#     8  16   8   4  16
#     4  10  22  38  67  99 121 154 198 291 327 355
#     4  10  19  32  56  88 119 150 193 276 322 354
#     4  12  27  41  60  89 137 184 207 241 297 407
#     4  10  21  42  64 100 123 150 218 258 332 356
#     4  11  21  36  56  89 128 159 207 249 321 374
#
# _framework density 20.245218999999999
#
# number of rings (size 3 to 8) (size 9 to 14) (size 15 to 20)
#    0.462    0.923    3.077    4.846    2.154    0.615 
#    0.000    1.538    0.000    4.615    0.000    2.154 
#    0.000    0.000    0.000    0.000    0.000    0.000 
#
# Total GULP energy -322268.253733 kJ/mol
# GULP energy per Si atom -12394.932836 kJ/mol
# Density = 2.019914 g / cm^3
# Si number density = 20.245219 Si / 1000 Ang^3
#
#
#
# Elastic Constant Matrix: (Units=GPa)
#
#
# Indices 1 2 3 4 5 6 
#
# 1 145.3168 26.9478 63.8625 0.0000 0.0000 -0.0001
# 2 26.9478 40.2395 33.0803 -0.0002 0.0000 0.0000
# 3 63.8625 33.0803 126.5130 -0.0005 0.0001 0.0000
# 4 0.0000 -0.0002 -0.0005 13.6903 0.0000 0.0000
# 5 0.0000 0.0000 0.0001 0.0000 40.9788 0.0000
# 6 -0.0001 0.0000 0.0000 0.0000 0.0000 8.2189
#
#
#
# Elastic Compliance Matrix: (Units=1/GPa)
#
#
# Indices 1 2 3 4 5 6 
#
# 1 0.009111 -0.002956 -0.003826 0.000000 0.000000 0.000000
# 2 -0.002956 0.032615 -0.007036 0.000000 0.000000 0.000000
# 3 -0.003826 -0.007036 0.011676 0.000000 0.000000 0.000000
# 4 0.000000 0.000000 0.000000 0.073044 0.000000 0.000000
# 5 0.000000 0.000000 0.000000 0.000000 0.024403 0.000000
# 6 0.000000 0.000000 0.000000 0.000000 0.000000 0.121670
#
#
# Mechanical properties :
#
#
# Convention : Reuss Voigt Hill
#
# Bulk Modulus (GPa) = 38.81209 62.20559 50.50884
# Shear Modulus (GPa) = 16.19463 25.12285 20.65874
#
# Velocity S-wave (km/s) = 2.83136 3.52650 3.19788
# Velocity P-wave (km/s) = 5.46822 6.88291 6.21594
#
# Compressibility (1/GPa) = 0.02576517
#
# Stress axis : x y z
#
# Youngs Moduli (GPa) = 109.75434 30.66079 85.64927
#
# Poissons Ratio (x) = 0.09064 0.32772
# Poissons Ratio (y) = 0.32445 0.60261
# Poissons Ratio (z) = 0.41995 0.21572
#
# Static dielectric constant tensor:
#      x y z
#    x 3.946200 0.000000 0.000000 
#    y 0.000000 2.990890 0.000000 
#    z 0.000000 0.000000 3.710680 
# 
# 
# High freq. dielectric constant tensor:
#      x y z
#    x 1.821460 0.000000 0.000000 
#    y 0.000000 1.711900 0.000000 
#    z 0.000000 0.000000 1.799930 
# 
# From -- ./inp_files/19294.got.cif
#   From: 2010.06.25/outbox.cif.g09.slc.cpg/sg71_10_cif.got.tgz:19294.got - 2010.06.28 04:59:45.
