data_PCOD8289118
_publ_section_title
;
Structure prediction by ZEFSAII (Michael W. Deem and Ramdas Pophale) SiO2 
 PCOD8289118
Probable space group: I M M M
;
_chemical_formula_sum "Si O2"
_cell_formula_units_Z 80
_cell_length_a 7.971978
_cell_length_b 23.279160
_cell_length_c 22.316551
_cell_angle_alpha 90.000000
_cell_angle_beta 90.000000
_cell_angle_gamma 90.000000
_cell_volume 4141.526766
_symmetry_space_group_name_H-M "I M M M"
_symmetry_group_IT_number 71
_symmetry_cell_setting 'orthorhombic'
loop_
_space_group_symop_operation_xyz
x,y,z
-x,-y,z
x,-y,-z
-x,y,-z
-x,-y,-z
x,y,-z
-x,y,z
x,-y,z
1/2+x,1/2+y,1/2+z
1/2-x,1/2-y,1/2+z
1/2+x,1/2-y,1/2-z
1/2-x,1/2+y,1/2-z
1/2-x,1/2-y,1/2-z
1/2+x,1/2+y,1/2-z
1/2-x,1/2+y,1/2+z
1/2+x,1/2-y,1/2+z
loop_
_atom_site_type_symbol
_atom_site_label
_atom_site_fract_x
_atom_site_fract_y
_atom_site_fract_z
Si Si1 0.307192 0.213293 0.664683
Si Si2 0.000000 0.436848 0.071075
Si Si3 0.817485 0.067785 0.000000
Si Si4 0.299204 0.564769 0.629591
Si Si5 0.686550 0.363283 0.068584
Si Si6 0.801206 0.834519 0.784602
O O1 0.500000 0.213662 0.645598
O O2 0.197525 0.194366 0.607719
O O3 0.280468 0.167997 0.718941
O O4 0.244230 0.276894 0.681061
O O5 0.829533 0.406270 0.093197
O O6 0.000000 0.500000 0.099738
O O7 0.000000 0.440518 0.000000
O O8 0.726416 0.083580 0.936599
O O9 0.000000 0.098050 0.000000
O O10 0.842539 0.000000 0.000000
O O11 0.500000 0.566277 0.626034
O O12 0.238927 0.500000 0.646447
O O13 0.233403 0.609687 0.679459
O O14 0.500000 0.390724 0.075356
O O15 0.721821 0.346444 0.000000
O O16 0.000000 0.836658 0.777198
#
# Coordination Sequence:
#
# PCOD8289118 Si02
#       6
#    16   8   8  16  16  16
#     4  10  19  33  51  71 102 143 182 226 273 321
#     4   9  18  34  56  82 112 142 175 218 268 326
#     4   7  10  18  36  62  95 129 153 189 253 314
#     4   8  13  24  43  69 101 131 164 212 267 320
#     4  10  20  35  57  82 110 145 180 222 275 325
#     4   9  18  31  49  74  99 136 183 222 270 327
#
# _framework density 19.316548000000001
#
# number of rings (size 3 to 8) (size 9 to 14) (size 15 to 20)
#    0.000    3.000    1.000    1.800    0.000    1.200 
#    1.800    3.000    0.000    2.400    0.000    0.000 
#    0.000    2.400    0.000    0.000    0.000    0.000 
#
# Total GULP energy -495622.922571 kJ/mol
# GULP energy per Si atom -12390.573064 kJ/mol
# Density = 1.927258 g / cm^3
# Si number density = 19.316548 Si / 1000 Ang^3
#
#
#
# Elastic Constant Matrix: (Units=GPa)
#
#
# Indices 1 2 3 4 5 6 
#
# 1 70.2821 23.7050 23.2255 0.0000 0.0000 0.0000
# 2 23.7050 105.6765 63.2933 0.0000 0.0000 0.0000
# 3 23.2255 63.2933 96.2128 0.0000 0.0000 0.0000
# 4 0.0000 0.0000 0.0000 28.4389 0.0000 0.0000
# 5 0.0000 0.0000 0.0000 0.0000 20.8499 0.0000
# 6 0.0000 0.0000 0.0000 0.0000 0.0000 13.9676
#
#
#
# Elastic Compliance Matrix: (Units=1/GPa)
#
#
# Indices 1 2 3 4 5 6 
#
# 1 0.015731 -0.002070 -0.002436 0.000000 0.000000 0.000000
# 2 -0.002070 0.015888 -0.009952 0.000000 0.000000 0.000000
# 3 -0.002436 -0.009952 0.017529 0.000000 0.000000 0.000000
# 4 0.000000 0.000000 0.000000 0.035163 0.000000 0.000000
# 5 0.000000 0.000000 0.000000 0.000000 0.047962 0.000000
# 6 0.000000 0.000000 0.000000 0.000000 0.000000 0.071594
#
#
# Mechanical properties :
#
#
# Convention : Reuss Voigt Hill
#
# Bulk Modulus (GPa) = 49.42621 54.73544 52.08082
# Shear Modulus (GPa) = 20.87449 23.44780 22.16115
#
# Velocity S-wave (km/s) = 3.29090 3.48784 3.39080
# Velocity P-wave (km/s) = 6.33112 6.67964 6.50771
#
# Compressibility (1/GPa) = 0.02023218
#
# Stress axis : x y z
#
# Youngs Moduli (GPa) = 63.56685 62.94140 57.04978
#
# Poissons Ratio (x) = 0.13028 0.13896
# Poissons Ratio (y) = 0.13158 0.56776
# Poissons Ratio (z) = 0.15484 0.62640
#
# Static dielectric constant tensor:
#      x y z
#    x 3.284410 0.000000 0.000000 
#    y 0.000000 3.526990 0.000000 
#    z 0.000000 0.000000 3.658610 
# 
# 
# High freq. dielectric constant tensor:
#      x y z
#    x 1.730360 0.000000 0.000000 
#    y 0.000000 1.725540 0.000000 
#    z 0.000000 0.000000 1.749300 
# 
# From -- ./inp_files/10722.got.cif
#   From: 2010.06.25/outbox.cif.g09.slc.cpg/sg71_6_cif.got.tgz:10722.got - 2010.06.28 04:59:45.
