data_PCOD8289710
_publ_section_title
;
Structure prediction by ZEFSAII (Michael W. Deem and Ramdas Pophale) SiO2 
 PCOD8289710
Probable space group: I M M M
;
_chemical_formula_sum "Si O2"
_cell_formula_units_Z 120
_cell_length_a 15.172588
_cell_length_b 21.818227
_cell_length_c 22.279767
_cell_angle_alpha 90.000000
_cell_angle_beta 90.000000
_cell_angle_gamma 90.000000
_cell_volume 7375.471101
_symmetry_space_group_name_H-M "I M M M"
_symmetry_group_IT_number 71
_symmetry_cell_setting 'orthorhombic'
loop_
_space_group_symop_operation_xyz
x,y,z
-x,-y,z
x,-y,-z
-x,y,-z
-x,-y,-z
x,y,-z
-x,y,z
x,-y,z
1/2+x,1/2+y,1/2+z
1/2-x,1/2-y,1/2+z
1/2+x,1/2-y,1/2-z
1/2-x,1/2+y,1/2-z
1/2-x,1/2-y,1/2-z
1/2+x,1/2+y,1/2-z
1/2-x,1/2+y,1/2+z
1/2+x,1/2-y,1/2+z
loop_
_atom_site_type_symbol
_atom_site_label
_atom_site_fract_x
_atom_site_fract_y
_atom_site_fract_z
Si Si1 0.898291 0.744748 0.334664
Si Si2 0.766642 0.398699 0.067103
Si Si3 0.748228 0.256648 0.067183
Si Si4 0.898887 0.338368 0.774590
Si Si5 0.098025 0.222023 0.857849
Si Si6 0.744960 0.570009 0.192033
Si Si7 0.405409 0.000000 0.569271
Si Si8 0.598826 0.359652 0.752473
O O1 0.837916 0.743967 0.393370
O O2 0.880108 0.685226 0.293282
O O3 0.874127 0.804802 0.296815
O O4 0.000000 0.746222 0.355290
O O5 0.782548 0.326540 0.067626
O O6 0.705761 0.416015 0.124340
O O7 0.854530 0.436961 0.084674
O O8 0.731450 0.418741 0.000000
O O9 0.830148 0.215965 0.089772
O O10 0.723656 0.236303 0.000000
O O11 0.881956 0.282299 0.819271
O O12 0.832141 0.391821 0.791846
O O13 0.000000 0.361415 0.779503
O O14 0.106314 0.162649 0.815834
O O15 0.000000 0.225168 0.885907
O O16 0.772473 0.500000 0.199019
O O17 0.666123 0.584763 0.237795
O O18 0.500000 0.000000 0.603374
O O19 0.424528 0.000000 0.500000
O O20 0.500000 0.382416 0.766094
#
# Coordination Sequence:
#
# PCOD8289710 Si02
#       8
#    16  16  16  16  16  16   8  16
#     4   9  17  32  53  69  87 120 158 197 239 284
#     4  10  20  31  40  58  89 129 167 195 227 263
#     4  11  20  29  45  70 100 126 151 193 234 274
#     4   9  18  32  49  70  92 118 156 195 237 290
#     4   9  17  31  51  69  89 121 155 192 238 290
#     4  12  21  30  47  68  93 127 160 202 242 268
#     4   9  18  32  44  52  73 121 177 209 225 258
#     4   9  18  33  51  68  86 115 161 204 241 283
#
# _framework density 16.270147000000001
#
# number of rings (size 3 to 8) (size 9 to 14) (size 15 to 20)
#    0.000    2.200    3.333    2.400    0.000    4.267 
#    0.000    1.333    0.000    0.400    0.000    0.933 
#    0.000    8.533    0.000   23.467    0.000    0.000 
#
# Total GULP energy -743502.131579 kJ/mol
# GULP energy per Si atom -12391.702193 kJ/mol
# Density = 1.623312 g / cm^3
# Si number density = 16.270147 Si / 1000 Ang^3
#
#
#
# Elastic Constant Matrix: (Units=GPa)
#
#
# Indices 1 2 3 4 5 6 
#
# 1 72.1921 24.8412 39.6773 0.0000 0.0000 0.0000
# 2 24.8412 50.9917 27.5130 0.0000 0.0000 0.0000
# 3 39.6773 27.5130 83.3508 0.0000 0.0000 0.0000
# 4 0.0000 0.0000 0.0000 16.2679 0.0000 0.0000
# 5 0.0000 0.0000 0.0000 0.0000 20.0382 0.0000
# 6 0.0000 0.0000 0.0000 0.0000 0.0000 21.3770
#
#
#
# Elastic Compliance Matrix: (Units=1/GPa)
#
#
# Indices 1 2 3 4 5 6 
#
# 1 0.019995 -0.005603 -0.007668 0.000000 0.000000 0.000000
# 2 -0.005603 0.025431 -0.005727 0.000000 0.000000 0.000000
# 3 -0.007668 -0.005727 0.017538 0.000000 0.000000 0.000000
# 4 0.000000 0.000000 0.000000 0.061471 0.000000 0.000000
# 5 0.000000 0.000000 0.000000 0.000000 0.049905 0.000000
# 6 0.000000 0.000000 0.000000 0.000000 0.000000 0.046779
#
#
# Mechanical properties :
#
#
# Convention : Reuss Voigt Hill
#
# Bulk Modulus (GPa) = 40.05390 43.39974 41.72682
# Shear Modulus (GPa) = 18.69593 19.17016 18.93304
#
# Velocity S-wave (km/s) = 3.39351 3.43628 3.41496
# Velocity P-wave (km/s) = 6.32661 6.51739 6.42271
#
# Compressibility (1/GPa) = 0.02496636
#
# Stress axis : x y z
#
# Youngs Moduli (GPa) = 50.01358 39.32250 57.01791
#
# Poissons Ratio (x) = 0.22032 0.43724
# Poissons Ratio (y) = 0.28023 0.32655
# Poissons Ratio (z) = 0.38353 0.22521
#
# Static dielectric constant tensor:
#      x y z
#    x 3.122570 0.000000 0.000000 
#    y 0.000000 2.885000 0.000000 
#    z 0.000000 0.000000 3.206150 
# 
# 
# High freq. dielectric constant tensor:
#      x y z
#    x 1.624630 0.000000 0.000000 
#    y 0.000000 1.592430 0.000000 
#    z 0.000000 0.000000 1.615940 
# 
# From -- ./inp_files/60206.got.cif
#   From: 2010.06.25/outbox.cif.g09.slc.cpg/sg71_31_cif.got.tgz:60206.got - 2010.06.28 04:59:45.
