data_PCOD8289292
_publ_section_title
;
Structure prediction by ZEFSAII (Michael W. Deem and Ramdas Pophale) SiO2 
 PCOD8289292
Probable space group: I M M M
;
_chemical_formula_sum "Si O2"
_cell_formula_units_Z 96
_cell_length_a 25.319565
_cell_length_b 23.299200
_cell_length_c 8.716756
_cell_angle_alpha 90.000000
_cell_angle_beta 90.000000
_cell_angle_gamma 90.000000
_cell_volume 5142.237590
_symmetry_space_group_name_H-M "I M M M"
_symmetry_group_IT_number 71
_symmetry_cell_setting 'orthorhombic'
loop_
_space_group_symop_operation_xyz
x,y,z
-x,-y,z
x,-y,-z
-x,y,-z
-x,-y,-z
x,y,-z
-x,y,z
x,-y,z
1/2+x,1/2+y,1/2+z
1/2-x,1/2-y,1/2+z
1/2+x,1/2-y,1/2-z
1/2-x,1/2+y,1/2-z
1/2-x,1/2-y,1/2-z
1/2+x,1/2+y,1/2-z
1/2-x,1/2+y,1/2+z
1/2+x,1/2-y,1/2+z
loop_
_atom_site_type_symbol
_atom_site_label
_atom_site_fract_x
_atom_site_fract_y
_atom_site_fract_z
Si Si1 0.746206 0.565851 0.322833
Si Si2 0.192094 0.753984 0.819681
Si Si3 0.653517 0.859114 0.818480
Si Si4 0.441282 0.064125 0.182204
Si Si5 0.653511 0.369684 0.821834
Si Si6 0.939304 0.065928 0.823017
O O1 0.731837 0.577056 0.500000
O O2 0.761602 0.500000 0.294427
O O3 0.795394 0.604312 0.271049
O O4 0.695976 0.581654 0.220476
O O5 0.250000 0.750000 0.750000
O O6 0.155463 0.702519 0.760744
O O7 0.164136 0.812841 0.775054
O O8 0.198192 0.750517 0.000000
O O9 0.601836 0.891554 0.752779
O O10 0.650484 0.850758 0.000000
O O11 0.500000 0.083985 0.233324
O O12 0.429740 0.000000 0.245459
O O13 0.437175 0.062473 0.000000
O O14 0.595524 0.393123 0.783315
O O15 0.657192 0.354591 0.000000
O O16 0.000000 0.082981 0.796134
O O17 0.929771 0.000000 0.775751
O O18 0.923405 0.074815 0.000000
#
# Coordination Sequence:
#
# PCOD8289292 Si02
#       6
#    16  16  16  16  16  16
#     4  10  20  33  52  79 112 148 184 227 281 341
#     4  12  24  40  59  79 107 147 190 236 287 343
#     4  10  19  33  55  82 112 147 188 231 278 334
#     4   8  14  27  51  84 118 149 183 224 269 319
#     4  12  24  37  56  83 114 149 189 234 282 334
#     4   9  19  38  63  88 116 152 190 229 280 340
#
# _framework density 18.668915999999999
#
# number of rings (size 3 to 8) (size 9 to 14) (size 15 to 20)
#    0.000    1.833    1.667    5.000    0.000    5.000 
#    0.000    1.667    0.000    5.000    0.000    1.167 
#    0.000    0.000    0.000    0.000    0.000    0.000 
#
# Total GULP energy -595335.120586 kJ/mol
# GULP energy per Si atom -12402.815012 kJ/mol
# Density = 1.862642 g / cm^3
# Si number density = 18.668916 Si / 1000 Ang^3
#
#
#
# Elastic Constant Matrix: (Units=GPa)
#
#
# Indices 1 2 3 4 5 6 
#
# 1 114.9232 48.4095 29.5945 0.0000 0.0000 0.0000
# 2 48.4095 98.8976 20.4673 0.0000 0.0000 0.0000
# 3 29.5945 20.4673 58.5864 0.0000 0.0000 0.0000
# 4 0.0000 0.0000 0.0000 28.5776 0.0000 0.0000
# 5 0.0000 0.0000 0.0000 0.0000 18.3647 0.0000
# 6 0.0000 0.0000 0.0000 0.0000 0.0000 31.1154
#
#
#
# Elastic Compliance Matrix: (Units=1/GPa)
#
#
# Indices 1 2 3 4 5 6 
#
# 1 0.011880 -0.004930 -0.004279 0.000000 0.000000 0.000000
# 2 -0.004930 0.012945 -0.002032 0.000000 0.000000 0.000000
# 3 -0.004279 -0.002032 0.019940 0.000000 0.000000 0.000000
# 4 0.000000 0.000000 0.000000 0.034992 0.000000 0.000000
# 5 0.000000 0.000000 0.000000 0.000000 0.054452 0.000000
# 6 0.000000 0.000000 0.000000 0.000000 0.000000 0.032138
#
#
# Mechanical properties :
#
#
# Convention : Reuss Voigt Hill
#
# Bulk Modulus (GPa) = 44.87574 52.14997 48.51285
# Shear Modulus (GPa) = 25.47676 27.20728 26.34202
#
# Velocity S-wave (km/s) = 3.69814 3.82168 3.76042
# Velocity P-wave (km/s) = 6.50576 6.88973 6.70049
#
# Compressibility (1/GPa) = 0.02228376
#
# Stress axis : x y z
#
# Youngs Moduli (GPa) = 84.17629 77.24975 50.14992
#
# Poissons Ratio (x) = 0.38081 0.21458
# Poissons Ratio (y) = 0.41495 0.10192
# Poissons Ratio (z) = 0.36018 0.15699
#
# Static dielectric constant tensor:
#      x y z
#    x 3.562320 0.000000 0.000000 
#    y 0.000000 3.600110 0.000000 
#    z 0.000000 0.000000 3.213380 
# 
# 
# High freq. dielectric constant tensor:
#      x y z
#    x 1.727360 0.000000 0.000000 
#    y 0.000000 1.728340 0.000000 
#    z 0.000000 0.000000 1.702380 
# 
# From -- ./inp_files/10878.got.cif
#   From: 2010.06.25/outbox.cif.g09.slc.cpg/sg71_6_cif.got.tgz:10878.got - 2010.06.28 04:59:45.
