data_PCOD8289222
_publ_section_title
;
Structure prediction by ZEFSAII (Michael W. Deem and Ramdas Pophale) SiO2 
 PCOD8289222
Probable space group: I M M M
;
_chemical_formula_sum "Si O2"
_cell_formula_units_Z 88
_cell_length_a 13.973977
_cell_length_b 9.141425
_cell_length_c 34.305123
_cell_angle_alpha 90.000000
_cell_angle_beta 90.000000
_cell_angle_gamma 90.000000
_cell_volume 4382.207173
_symmetry_space_group_name_H-M "I M M M"
_symmetry_group_IT_number 71
_symmetry_cell_setting 'orthorhombic'
loop_
_space_group_symop_operation_xyz
x,y,z
-x,-y,z
x,-y,-z
-x,y,-z
-x,-y,-z
x,y,-z
-x,y,z
x,-y,z
1/2+x,1/2+y,1/2+z
1/2-x,1/2-y,1/2+z
1/2+x,1/2-y,1/2-z
1/2-x,1/2+y,1/2-z
1/2-x,1/2-y,1/2-z
1/2+x,1/2+y,1/2-z
1/2-x,1/2+y,1/2+z
1/2+x,1/2-y,1/2+z
loop_
_atom_site_type_symbol
_atom_site_label
_atom_site_fract_x
_atom_site_fract_y
_atom_site_fract_z
Si Si1 0.614232 0.665305 0.727477
Si Si2 0.799358 0.826782 0.079601
Si Si3 0.892027 0.173806 0.000000
Si Si4 0.113048 0.662170 0.698789
Si Si5 0.604632 0.173111 0.886647
Si Si6 0.386556 0.834854 0.347871
O O1 0.500000 0.671400 0.727719
O O2 0.651361 0.500000 0.725294
O O3 0.656442 0.737940 0.766905
O O4 0.655801 0.750477 0.689791
O O5 0.836720 0.768446 0.038106
O O6 0.686637 0.783972 0.082451
O O7 0.858833 0.748849 0.113028
O O8 0.814774 0.000000 0.084073
O O9 0.000000 0.235946 0.000000
O O10 0.893514 0.000000 0.000000
O O11 0.158040 0.500000 0.702846
O O12 0.135842 0.732230 0.656195
O O13 0.000000 0.651459 0.703582
O O14 0.500000 0.236363 0.899452
O O15 0.595471 0.000000 0.882614
O O16 0.500000 0.837027 0.345100
O O17 0.345948 0.000000 0.348559
#
# Coordination Sequence:
#
# PCOD8289222 Si02
#       6
#    16  16   8  16  16  16
#     4   9  16  26  43  69  99 131 169 211 253 300
#     4  10  19  33  54  77 101 132 170 208 250 306
#     4   9  18  32  52  80 110 135 161 201 254 305
#     4   8  13  24  43  65  92 129 169 207 249 295
#     4   8  15  29  50  75 102 133 170 212 255 296
#     4  10  20  33  49  71 101 135 170 212 261 307
#
# _framework density 20.081204
#
# number of rings (size 3 to 8) (size 9 to 14) (size 15 to 20)
#    0.000    3.000    0.000    2.727    0.000    4.000 
#    0.000    2.727    0.000    6.000    0.000    0.000 
#    0.000    1.455    0.000    0.000    0.000    0.000 
#
# Total GULP energy -545401.400201 kJ/mol
# GULP energy per Si atom -12395.486368 kJ/mol
# Density = 2.003550 g / cm^3
# Si number density = 20.081204 Si / 1000 Ang^3
#
#
#
# Elastic Constant Matrix: (Units=GPa)
#
#
# Indices 1 2 3 4 5 6 
#
# 1 74.7428 17.6769 66.8608 0.0000 0.0000 0.0000
# 2 17.6769 82.6339 50.9025 0.0000 0.0000 0.0000
# 3 66.8608 50.9025 172.2693 0.0000 0.0000 0.0000
# 4 0.0000 0.0000 0.0000 17.1201 0.0000 0.0000
# 5 0.0000 0.0000 0.0000 0.0000 4.4988 0.0000
# 6 0.0000 0.0000 0.0000 0.0000 0.0000 7.1922
#
#
#
# Elastic Compliance Matrix: (Units=1/GPa)
#
#
# Indices 1 2 3 4 5 6 
#
# 1 0.020522 0.000631 -0.008151 0.000000 0.000000 0.000000
# 2 0.000631 0.014814 -0.004622 0.000000 0.000000 0.000000
# 3 -0.008151 -0.004622 0.010334 0.000000 0.000000 0.000000
# 4 0.000000 0.000000 0.000000 0.058411 0.000000 0.000000
# 5 0.000000 0.000000 0.000000 0.000000 0.222280 0.000000
# 6 0.000000 0.000000 0.000000 0.000000 0.000000 0.139040
#
#
# Mechanical properties :
#
#
# Convention : Reuss Voigt Hill
#
# Bulk Modulus (GPa) = 46.76130 66.72517 56.74324
# Shear Modulus (GPa) = 10.06414 18.70928 14.38671
#
# Velocity S-wave (km/s) = 2.24112 3.05566 2.67952
# Velocity P-wave (km/s) = 5.48028 6.76382 6.15559
#
# Compressibility (1/GPa) = 0.02138520
#
# Stress axis : x y z
#
# Youngs Moduli (GPa) = 48.72894 67.50455 96.76476
#
# Poissons Ratio (x) = -0.04261 0.78876
# Poissons Ratio (y) = -0.03076 0.44727
# Poissons Ratio (z) = 0.39721 0.31202
#
# Static dielectric constant tensor:
#      x y z
#    x 3.724710 0.000000 0.000000 
#    y 0.000000 3.468110 0.000000 
#    z 0.000000 0.000000 3.725540 
# 
# 
# High freq. dielectric constant tensor:
#      x y z
#    x 1.787910 0.000000 0.000000 
#    y 0.000000 1.746410 0.000000 
#    z 0.000000 0.000000 1.773940 
# 
# From -- ./inp_files/70383.got.cif
#   From: 2010.06.25/outbox.cif.g09.slc.cpg/sg71_36_cif.got.tgz:70383.got - 2010.06.28 04:59:45.
