data_PCOD8289771
_publ_section_title
;
Structure prediction by ZEFSAII (Michael W. Deem and Ramdas Pophale) SiO2 
 PCOD8289771
Probable space group: I M M M
;
_chemical_formula_sum "Si O2"
_cell_formula_units_Z 80
_cell_length_a 14.604975
_cell_length_b 12.547687
_cell_length_c 24.641114
_cell_angle_alpha 90.000000
_cell_angle_beta 90.000000
_cell_angle_gamma 90.000000
_cell_volume 4515.697408
_symmetry_space_group_name_H-M "I M M M"
_symmetry_group_IT_number 71
_symmetry_cell_setting 'orthorhombic'
loop_
_space_group_symop_operation_xyz
x,y,z
-x,-y,z
x,-y,-z
-x,y,-z
-x,-y,-z
x,y,-z
-x,y,z
x,-y,z
1/2+x,1/2+y,1/2+z
1/2-x,1/2-y,1/2+z
1/2+x,1/2-y,1/2-z
1/2-x,1/2+y,1/2-z
1/2-x,1/2-y,1/2-z
1/2+x,1/2+y,1/2-z
1/2-x,1/2+y,1/2+z
1/2+x,1/2-y,1/2+z
loop_
_atom_site_type_symbol
_atom_site_label
_atom_site_fract_x
_atom_site_fract_y
_atom_site_fract_z
Si Si1 0.762130 0.500000 0.062464
Si Si2 0.604740 0.229732 0.677820
Si Si3 0.394810 0.878585 0.061480
Si Si4 0.100652 0.500000 0.839240
Si Si5 0.104970 0.123590 0.720917
Si Si6 0.716733 0.297023 0.119389
O O1 0.843204 0.500000 0.105425
O O2 0.706188 0.390755 0.074282
O O3 0.794626 0.500000 0.000000
O O4 0.500000 0.251466 0.657535
O O5 0.616423 0.105774 0.697266
O O6 0.630271 0.308088 0.726304
O O7 0.678192 0.242391 0.628991
O O8 0.500000 0.844151 0.065791
O O9 0.337014 0.806287 0.101212
O O10 0.382085 0.000000 0.080444
O O11 0.359978 0.864601 0.000000
O O12 0.000000 0.500000 0.863428
O O13 0.174351 0.157706 0.674522
O O14 0.000000 0.145064 0.702914
O O15 0.120071 0.000000 0.735174
#
# Coordination Sequence:
#
# PCOD8289771 Si02
#       6
#     8  16  16   8  16  16
#     4  10  20  31  49  76 104 133 171 213 257 308
#     4   9  19  34  52  74 102 138 171 210 260 307
#     4   9  19  36  55  75 101 133 169 211 260 309
#     4   8  16  33  52  71 101 134 171 215 258 303
#     4  10  20  34  50  71 103 136 169 212 263 315
#     4  11  19  34  53  76 103 134 175 215 256 308
#
# _framework density 17.715979999999998
#
# number of rings (size 3 to 8) (size 9 to 14) (size 15 to 20)
#    0.000    2.400    1.000    2.400    0.000    1.000 
#    1.800    0.000    0.000    4.200    0.000    1.400 
#    0.000    0.000    0.000    0.000    0.000    0.000 
#
# Total GULP energy -495697.265768 kJ/mol
# GULP energy per Si atom -12392.431644 kJ/mol
# Density = 1.767566 g / cm^3
# Si number density = 17.715980 Si / 1000 Ang^3
#
#
#
# Elastic Constant Matrix: (Units=GPa)
#
#
# Indices 1 2 3 4 5 6 
#
# 1 70.6571 47.5199 31.0582 0.0000 0.0000 0.0000
# 2 47.5199 115.9290 56.2447 0.0000 0.0000 0.0000
# 3 31.0582 56.2447 76.7995 0.0000 0.0000 0.0000
# 4 0.0000 0.0000 0.0000 30.1745 0.0000 0.0000
# 5 0.0000 0.0000 0.0000 0.0000 15.0108 0.0000
# 6 0.0000 0.0000 0.0000 0.0000 0.0000 27.6290
#
#
#
# Elastic Compliance Matrix: (Units=1/GPa)
#
#
# Indices 1 2 3 4 5 6 
#
# 1 0.020046 -0.006645 -0.003240 0.000000 0.000000 0.000000
# 2 -0.006645 0.015583 -0.008725 0.000000 0.000000 0.000000
# 3 -0.003240 -0.008725 0.020721 0.000000 0.000000 0.000000
# 4 0.000000 0.000000 0.000000 0.033141 0.000000 0.000000
# 5 0.000000 0.000000 0.000000 0.000000 0.066619 0.000000
# 6 0.000000 0.000000 0.000000 0.000000 0.000000 0.036194
#
#
# Mechanical properties :
#
#
# Convention : Reuss Voigt Hill
#
# Bulk Modulus (GPa) = 52.27475 59.22569 55.75022
# Shear Modulus (GPa) = 21.19540 23.13371 22.16455
#
# Velocity S-wave (km/s) = 3.46265 3.61752 3.54093
# Velocity P-wave (km/s) = 6.74965 7.13806 6.94657
#
# Compressibility (1/GPa) = 0.01912969
#
# Stress axis : x y z
#
# Youngs Moduli (GPa) = 49.88476 64.17335 48.26001
#
# Poissons Ratio (x) = 0.42643 0.15638
# Poissons Ratio (y) = 0.33148 0.42106
# Poissons Ratio (z) = 0.16164 0.55991
#
# Static dielectric constant tensor:
#      x y z
#    x 3.436450 0.000000 0.000000 
#    y 0.000000 3.586460 0.000000 
#    z 0.000000 0.000000 2.973260 
# 
# 
# High freq. dielectric constant tensor:
#      x y z
#    x 1.691940 0.000000 0.000000 
#    y 0.000000 1.701090 0.000000 
#    z 0.000000 0.000000 1.653420 
# 
# From -- ./inp_files/28523.got.cif
#   From: 2010.06.25/outbox.cif.g09.slc.cpg/sg71_15_cif.got.tgz:28523.got - 2010.06.28 04:59:45.
