data_PCOD8289296
_publ_section_title
;
Structure prediction by ZEFSAII (Michael W. Deem and Ramdas Pophale) SiO2 
 PCOD8289296
Probable space group: I M M M
;
_chemical_formula_sum "Si O2"
_cell_formula_units_Z 64
_cell_length_a 14.108409
_cell_length_b 27.855473
_cell_length_c 8.089985
_cell_angle_alpha 90.000000
_cell_angle_beta 90.000000
_cell_angle_gamma 90.000000
_cell_volume 3179.335029
_symmetry_space_group_name_H-M "I M M M"
_symmetry_group_IT_number 71
_symmetry_cell_setting 'orthorhombic'
loop_
_space_group_symop_operation_xyz
x,y,z
-x,-y,z
x,-y,-z
-x,y,-z
-x,-y,-z
x,y,-z
-x,y,z
x,-y,z
1/2+x,1/2+y,1/2+z
1/2-x,1/2-y,1/2+z
1/2+x,1/2-y,1/2-z
1/2-x,1/2+y,1/2-z
1/2-x,1/2-y,1/2-z
1/2+x,1/2+y,1/2-z
1/2-x,1/2+y,1/2+z
1/2+x,1/2-y,1/2+z
loop_
_atom_site_type_symbol
_atom_site_label
_atom_site_fract_x
_atom_site_fract_y
_atom_site_fract_z
Si Si1 0.611517 0.212419 0.000000
Si Si2 0.613004 0.732250 0.682287
Si Si3 0.394098 0.632149 0.187286
Si Si4 0.610155 0.899489 0.000000
Si Si5 0.736988 0.446413 0.316518
O O1 0.656676 0.235364 0.831553
O O2 0.500000 0.222714 0.000000
O O3 0.633764 0.156527 0.000000
O O4 0.649501 0.749178 0.500000
O O5 0.500000 0.736374 0.690165
O O6 0.643107 0.676581 0.703232
O O7 0.500000 0.616910 0.241853
O O8 0.327085 0.586046 0.199682
O O9 0.394378 0.650714 0.000000
O O10 0.657326 0.923422 0.835898
O O11 0.500000 0.911065 0.000000
O O12 0.690203 0.447947 0.500000
O O13 0.744175 0.500000 0.240806
#
# Coordination Sequence:
#
# PCOD8289296 Si02
#       5
#     8  16  16   8  16
#     4   9  16  31  54  82 113 148 193 238 288 348
#     4   9  16  28  51  81 115 156 192 225 275 341
#     4  10  19  33  55  82 119 161 192 224 277 348
#     4   9  19  38  62  80 104 145 191 251 311 349
#     4   9  20  36  55  81 109 141 189 246 289 338
#
# _framework density 20.129995999999998
#
# number of rings (size 3 to 8) (size 9 to 14) (size 15 to 20)
#    0.750    2.000    1.250    0.750    0.000    3.500 
#    0.000    5.000    0.000    2.250    0.000    1.750 
#    0.000    0.000    0.000    0.000    0.000    0.000 
#
# Total GULP energy -396552.450246 kJ/mol
# GULP energy per Si atom -12392.264070 kJ/mol
# Density = 2.008418 g / cm^3
# Si number density = 20.129996 Si / 1000 Ang^3
#
#
#
# Elastic Constant Matrix: (Units=GPa)
#
#
# Indices 1 2 3 4 5 6 
#
# 1 60.9894 35.9506 16.0124 0.0005 -0.0004 -0.0001
# 2 35.9506 120.8277 44.9085 -0.0005 0.0000 0.0000
# 3 16.0124 44.9085 99.9020 -0.0069 -0.0013 0.0005
# 4 0.0005 -0.0005 -0.0069 28.6472 0.0000 0.0002
# 5 -0.0004 0.0000 -0.0013 0.0000 23.6655 -0.0006
# 6 -0.0001 0.0000 0.0005 0.0002 -0.0006 28.4471
#
#
#
# Elastic Compliance Matrix: (Units=1/GPa)
#
#
# Indices 1 2 3 4 5 6 
#
# 1 0.019917 -0.005690 -0.000634 -0.000001 0.000000 0.000000
# 2 -0.005690 0.011562 -0.004285 -0.000001 0.000000 0.000000
# 3 -0.000634 -0.004285 0.012038 0.000003 0.000001 0.000000
# 4 -0.000001 -0.000001 0.000003 0.034907 0.000000 0.000000
# 5 0.000000 0.000000 0.000001 0.000000 0.042256 0.000001
# 6 0.000000 0.000000 0.000000 0.000000 0.000001 0.035153
#
#
# Mechanical properties :
#
#
# Convention : Reuss Voigt Hill
#
# Bulk Modulus (GPa) = 44.84941 52.82914 48.83928
# Shear Modulus (GPa) = 27.10243 28.47514 27.78878
#
# Velocity S-wave (km/s) = 3.67327 3.76515 3.71949
# Velocity P-wave (km/s) = 6.34971 6.72330 6.53917
#
# Compressibility (1/GPa) = 0.02229684
#
# Stress axis : x y z
#
# Youngs Moduli (GPa) = 50.20839 86.48967 83.07101
#
# Poissons Ratio (x) = 0.49215 0.05270
# Poissons Ratio (y) = 0.28570 0.35599
# Poissons Ratio (z) = 0.03185 0.37064
#
# Static dielectric constant tensor:
#      x y z
#    x 3.310780 0.000000 0.000000 
#    y 0.000000 3.519060 -0.000010 
#    z 0.000000 -0.000010 3.580990 
# 
# 
# High freq. dielectric constant tensor:
#      x y z
#    x 1.767190 0.000000 0.000000 
#    y 0.000000 1.782400 0.000000 
#    z 0.000000 0.000000 1.771170 
# 
# From -- ./inp_files/5578.got.cif
#   From: 2010.06.25/outbox.cif.g09.slc.cpg/sg71_3_cif.got.tgz:5578.got - 2010.06.28 04:59:45.
