data_PCOD8289877
_publ_section_title
;
Structure prediction by ZEFSAII (Michael W. Deem and Ramdas Pophale) SiO2 
 PCOD8289877
Probable space group: I M M M
;
_chemical_formula_sum "Si O2"
_cell_formula_units_Z 104
_cell_length_a 28.426407
_cell_length_b 22.590099
_cell_length_c 8.377002
_cell_angle_alpha 90.000000
_cell_angle_beta 90.000000
_cell_angle_gamma 90.000000
_cell_volume 5379.336637
_symmetry_space_group_name_H-M "I M M M"
_symmetry_group_IT_number 71
_symmetry_cell_setting 'orthorhombic'
loop_
_space_group_symop_operation_xyz
x,y,z
-x,-y,z
x,-y,-z
-x,y,-z
-x,-y,-z
x,y,-z
-x,y,z
x,-y,z
1/2+x,1/2+y,1/2+z
1/2-x,1/2-y,1/2+z
1/2+x,1/2-y,1/2-z
1/2-x,1/2+y,1/2-z
1/2-x,1/2-y,1/2-z
1/2+x,1/2+y,1/2-z
1/2-x,1/2+y,1/2+z
1/2+x,1/2-y,1/2+z
loop_
_atom_site_type_symbol
_atom_site_label
_atom_site_fract_x
_atom_site_fract_y
_atom_site_fract_z
Si Si1 0.099010 0.569392 0.824072
Si Si2 0.228710 0.066332 0.684306
Si Si3 0.361520 0.636266 0.183833
Si Si4 0.815692 0.377362 0.319624
Si Si5 0.302271 0.254794 0.183065
Si Si6 0.947263 0.066165 0.188184
Si Si7 0.446071 0.069633 0.000000
O O1 0.090216 0.500000 0.824974
O O2 0.154047 0.583915 0.804044
O O3 0.073702 0.597615 0.666837
O O4 0.082145 0.593757 0.000000
O O5 0.242433 0.073021 0.500000
O O6 0.174422 0.082342 0.711236
O O7 0.260900 0.110751 0.785926
O O8 0.236741 0.000000 0.746483
O O9 0.336828 0.695351 0.260852
O O10 0.410945 0.617386 0.260374
O O11 0.372231 0.648564 0.000000
O O12 0.827889 0.396941 0.500000
O O13 0.827437 0.308344 0.295130
O O14 0.250000 0.250000 0.250000
O O15 0.295599 0.272921 0.000000
O O16 0.000000 0.082732 0.249128
O O17 0.933849 0.000000 0.253492
O O18 0.947195 0.063888 0.000000
O O19 0.500000 0.085416 0.000000
O O20 0.435503 0.000000 0.000000
#
# Coordination Sequence:
#
# PCOD8289877 Si02
#       7
#    16  16  16  16  16  16   8
#     4  10  20  34  54  81 112 146 184 227 280 339
#     4  10  20  32  48  73 106 143 178 218 271 327
#     4  10  20  35  54  78 109 143 184 232 277 328
#     4  11  21  33  51  75 106 144 187 228 275 331
#     4  10  21  36  54  76 105 142 188 231 269 322
#     4   9  19  36  57  82 112 144 180 227 284 343
#     4   9  18  34  56  82 112 142 176 224 276 330
#
# _framework density 19.333238999999999
#
# number of rings (size 3 to 8) (size 9 to 14) (size 15 to 20)
#    0.000    2.077    2.308    1.846    0.000    5.538 
#    0.000    2.308    0.000    0.923    0.000    0.000 
#    0.000    0.000    0.000    0.000    0.000    0.000 
#
# Total GULP energy -644366.506797 kJ/mol
# GULP energy per Si atom -12391.663592 kJ/mol
# Density = 1.928924 g / cm^3
# Si number density = 19.333239 Si / 1000 Ang^3
#
#
#
# Elastic Constant Matrix: (Units=GPa)
#
#
# Indices 1 2 3 4 5 6 
#
# 1 111.3402 39.4280 44.5178 0.0000 0.0000 0.0000
# 2 39.4280 86.8008 24.1462 0.0000 0.0000 0.0000
# 3 44.5178 24.1462 99.1299 0.0000 0.0000 0.0000
# 4 0.0000 0.0000 0.0000 20.3268 0.0000 0.0000
# 5 0.0000 0.0000 0.0000 0.0000 26.9534 0.0000
# 6 0.0000 0.0000 0.0000 0.0000 0.0000 27.3376
#
#
#
# Elastic Compliance Matrix: (Units=1/GPa)
#
#
# Indices 1 2 3 4 5 6 
#
# 1 0.012308 -0.004348 -0.004468 0.000000 0.000000 0.000000
# 2 -0.004348 0.013894 -0.001432 0.000000 0.000000 0.000000
# 3 -0.004468 -0.001432 0.012443 0.000000 0.000000 0.000000
# 4 0.000000 0.000000 0.000000 0.049196 0.000000 0.000000
# 5 0.000000 0.000000 0.000000 0.000000 0.037101 0.000000
# 6 0.000000 0.000000 0.000000 0.000000 0.000000 0.036580
#
#
# Mechanical properties :
#
#
# Convention : Reuss Voigt Hill
#
# Bulk Modulus (GPa) = 55.09848 57.05055 56.07452
# Shear Modulus (GPa) = 26.58636 27.53548 27.06092
#
# Velocity S-wave (km/s) = 3.71234 3.77803 3.74533
# Velocity P-wave (km/s) = 6.85102 6.97169 6.91162
#
# Compressibility (1/GPa) = 0.01814932
#
# Stress axis : x y z
#
# Youngs Moduli (GPa) = 81.25056 71.97474 80.36564
#
# Poissons Ratio (x) = 0.31292 0.35909
# Poissons Ratio (y) = 0.35325 0.11507
# Poissons Ratio (z) = 0.36304 0.10305
#
# Static dielectric constant tensor:
#      x y z
#    x 3.464120 0.000000 0.000000 
#    y 0.000000 3.632230 0.000000 
#    z 0.000000 0.000000 3.646850 
# 
# 
# High freq. dielectric constant tensor:
#      x y z
#    x 1.741260 0.000000 0.000000 
#    y 0.000000 1.731810 0.000000 
#    z 0.000000 0.000000 1.749920 
# 
# From -- ./inp_files/15321.got.cif
#   From: 2010.06.25/outbox.cif.g09.slc.cpg/sg71_8_cif.got.tgz:15321.got - 2010.06.28 04:59:45.
