data_PCOD8289752
_publ_section_title
;
Structure prediction by ZEFSAII (Michael W. Deem and Ramdas Pophale) SiO2 
 PCOD8289752
Probable space group: I M M M
;
_chemical_formula_sum "Si O2"
_cell_formula_units_Z 104
_cell_length_a 10.194066
_cell_length_b 17.897927
_cell_length_c 32.674809
_cell_angle_alpha 90.000000
_cell_angle_beta 90.000000
_cell_angle_gamma 90.000000
_cell_volume 5961.605461
_symmetry_space_group_name_H-M "I M M M"
_symmetry_group_IT_number 71
_symmetry_cell_setting 'orthorhombic'
loop_
_space_group_symop_operation_xyz
x,y,z
-x,-y,z
x,-y,-z
-x,y,-z
-x,-y,-z
x,y,-z
-x,y,z
x,-y,z
1/2+x,1/2+y,1/2+z
1/2-x,1/2-y,1/2+z
1/2+x,1/2-y,1/2-z
1/2-x,1/2+y,1/2-z
1/2-x,1/2-y,1/2-z
1/2+x,1/2+y,1/2-z
1/2-x,1/2+y,1/2+z
1/2+x,1/2-y,1/2+z
loop_
_atom_site_type_symbol
_atom_site_label
_atom_site_fract_x
_atom_site_fract_y
_atom_site_fract_z
Si Si1 0.656285 0.086245 0.500000
Si Si2 0.349595 0.337581 0.401409
Si Si3 0.357455 0.087594 0.044894
Si Si4 0.353590 0.088886 0.748580
Si Si5 0.155760 0.669804 0.081553
Si Si6 0.155522 0.582568 0.159054
Si Si7 0.851226 0.086306 0.816428
O O1 0.500000 0.086677 0.500000
O O2 0.709664 0.130159 0.540215
O O3 0.706525 0.000000 0.500000
O O4 0.500000 0.349590 0.414726
O O5 0.259895 0.394917 0.425074
O O6 0.300023 0.255482 0.414170
O O7 0.332531 0.356294 0.353669
O O8 0.500000 0.117162 0.060847
O O9 0.364770 0.000000 0.041018
O O10 0.329092 0.122280 0.000000
O O11 0.500000 0.117841 0.760507
O O12 0.311409 0.119046 0.703473
O O13 0.247512 0.115824 0.781606
O O14 0.356492 0.000000 0.745763
O O15 0.215567 0.629872 0.121697
O O16 0.000000 0.664441 0.081875
O O17 0.217002 0.500000 0.155626
O O18 0.000000 0.577971 0.154666
O O19 0.000000 0.091366 0.799745
O O20 0.820033 0.000000 0.829138
#
# Coordination Sequence:
#
# PCOD8289752 Si02
#       7
#     8  16  16  16  16  16  16
#     4   9  16  26  42  66  96 127 156 188 233 287
#     4  10  20  31  46  69  99 129 157 192 236 284
#     4   9  19  35  52  69  90 120 160 201 238 278
#     4   8  14  25  44  68  88 113 156 202 236 269
#     4   9  17  27  41  65  97 128 155 189 237 288
#     4   8  13  24  43  65  90 121 157 196 238 284
#     4   9  17  29  43  61  89 124 158 190 230 280
#
# _framework density 17.444965
#
# number of rings (size 3 to 8) (size 9 to 14) (size 15 to 20)
#    0.000    3.154    0.000    2.308    1.077    3.692 
#    0.000    3.077    0.000    0.923    0.000    0.000 
#    0.000    2.462    0.000    0.000    0.000    0.308 
#
# Total GULP energy -644319.229793 kJ/mol
# GULP energy per Si atom -12390.754419 kJ/mol
# Density = 1.740526 g / cm^3
# Si number density = 17.444965 Si / 1000 Ang^3
#
#
#
# Elastic Constant Matrix: (Units=GPa)
#
#
# Indices 1 2 3 4 5 6 
#
# 1 64.6367 21.9695 58.2191 0.0000 0.0000 0.0000
# 2 21.9695 56.7732 43.7017 0.0000 0.0000 0.0000
# 3 58.2191 43.7017 129.3666 0.0000 0.0000 0.0000
# 4 0.0000 0.0000 0.0000 13.3361 0.0000 0.0000
# 5 0.0000 0.0000 0.0000 0.0000 13.1363 0.0000
# 6 0.0000 0.0000 0.0000 0.0000 0.0000 7.4815
#
#
#
# Elastic Compliance Matrix: (Units=1/GPa)
#
#
# Indices 1 2 3 4 5 6 
#
# 1 0.026103 -0.001431 -0.011264 0.000000 0.000000 0.000000
# 2 -0.001431 0.023882 -0.007424 0.000000 0.000000 0.000000
# 3 -0.011264 -0.007424 0.015307 0.000000 0.000000 0.000000
# 4 0.000000 0.000000 0.000000 0.074985 0.000000 0.000000
# 5 0.000000 0.000000 0.000000 0.000000 0.076125 0.000000
# 6 0.000000 0.000000 0.000000 0.000000 0.000000 0.133664
#
#
# Mechanical properties :
#
#
# Convention : Reuss Voigt Hill
#
# Bulk Modulus (GPa) = 39.91170 55.39523 47.65347
# Shear Modulus (GPa) = 12.54222 15.24984 13.89603
#
# Velocity S-wave (km/s) = 2.68425 2.95984 2.82541
# Velocity P-wave (km/s) = 5.70397 6.59576 6.16601
#
# Compressibility (1/GPa) = 0.02505531
#
# Stress axis : x y z
#
# Youngs Moduli (GPa) = 38.31011 41.87228 65.32988
#
# Poissons Ratio (x) = 0.05990 0.73586
# Poissons Ratio (y) = 0.05480 0.48500
# Poissons Ratio (z) = 0.43152 0.31086
#
# Static dielectric constant tensor:
#      x y z
#    x 2.963750 0.000000 0.000000 
#    y 0.000000 3.134360 0.000000 
#    z 0.000000 0.000000 3.485600 
# 
# 
# High freq. dielectric constant tensor:
#      x y z
#    x 1.629790 0.000000 0.000000 
#    y 0.000000 1.653180 0.000000 
#    z 0.000000 0.000000 1.683490 
# 
# From -- ./inp_files/69445.got.cif
#   From: 2010.06.25/outbox.cif.g09.slc.cpg/sg71_35_cif.got.tgz:69445.got - 2010.06.28 04:59:45.
