data_PCOD8289179
_publ_section_title
;
Structure prediction by ZEFSAII (Michael W. Deem and Ramdas Pophale) SiO2 
 PCOD8289179
Probable space group: I M M M
;
_chemical_formula_sum "Si O2"
_cell_formula_units_Z 72
_cell_length_a 8.728445
_cell_length_b 23.955417
_cell_length_c 17.927639
_cell_angle_alpha 90.000000
_cell_angle_beta 90.000000
_cell_angle_gamma 90.000000
_cell_volume 3748.553498
_symmetry_space_group_name_H-M "I M M M"
_symmetry_group_IT_number 71
_symmetry_cell_setting 'orthorhombic'
loop_
_space_group_symop_operation_xyz
x,y,z
-x,-y,z
x,-y,-z
-x,y,-z
-x,-y,-z
x,y,-z
-x,y,z
x,-y,z
1/2+x,1/2+y,1/2+z
1/2-x,1/2-y,1/2+z
1/2+x,1/2-y,1/2-z
1/2-x,1/2+y,1/2-z
1/2-x,1/2-y,1/2-z
1/2+x,1/2+y,1/2-z
1/2-x,1/2+y,1/2+z
1/2+x,1/2-y,1/2+z
loop_
_atom_site_type_symbol
_atom_site_label
_atom_site_fract_x
_atom_site_fract_y
_atom_site_fract_z
Si Si1 0.818180 0.561675 0.500000
Si Si2 0.318691 0.256116 0.331101
Si Si3 0.182229 0.646654 0.083599
Si Si4 0.681912 0.127444 0.144219
Si Si5 0.317682 0.936996 0.291424
O O1 0.747030 0.500000 0.500000
O O2 0.760420 0.592132 0.425981
O O3 0.000000 0.558830 0.500000
O O4 0.500000 0.255331 0.324746
O O5 0.250000 0.250000 0.250000
O O6 0.259929 0.205262 0.382595
O O7 0.260979 0.313145 0.366890
O O8 0.241621 0.595651 0.135168
O O9 0.000000 0.646147 0.081674
O O10 0.248824 0.639272 0.000000
O O11 0.500000 0.135562 0.146358
O O12 0.740595 0.096208 0.218605
O O13 0.500000 0.939270 0.289887
O O14 0.250848 0.000000 0.291984
#
# Coordination Sequence:
#
# PCOD8289179 Si02
#       5
#     8  16  16  16  16
#     4   9  18  32  53  81 113 147 182 225 268 312
#     4  11  21  35  55  77 104 138 176 217 265 316
#     4   9  18  31  47  73 106 134 165 208 258 310
#     4  10  19  33  52  79 109 138 177 219 263 313
#     4   9  16  28  49  74 100 132 170 212 256 304
#
# _framework density 19.207408999999998
#
# number of rings (size 3 to 8) (size 9 to 14) (size 15 to 20)
#    0.000    2.333    2.222    1.333    1.556    3.111 
#    0.000    2.222    0.000    3.333    0.000    0.000 
#    0.000    1.778    0.000    0.000    0.000    0.000 
#
# Total GULP energy -446367.594609 kJ/mol
# GULP energy per Si atom -12399.099850 kJ/mol
# Density = 1.916369 g / cm^3
# Si number density = 19.207409 Si / 1000 Ang^3
#
#
#
# Elastic Constant Matrix: (Units=GPa)
#
#
# Indices 1 2 3 4 5 6 
#
# 1 21.1339 15.0345 11.2963 0.0000 0.0000 0.0000
# 2 15.0345 175.0672 78.6128 0.0000 0.0000 0.0000
# 3 11.2963 78.6128 175.3305 0.0002 0.0001 0.0000
# 4 0.0000 0.0000 0.0002 36.4875 0.0001 0.0000
# 5 0.0000 0.0000 0.0001 0.0001 12.1499 0.0000
# 6 0.0000 0.0000 0.0000 0.0000 0.0000 25.2425
#
#
#
# Elastic Compliance Matrix: (Units=1/GPa)
#
#
# Indices 1 2 3 4 5 6 
#
# 1 0.050774 -0.003620 -0.001648 0.000000 0.000000 0.000000
# 2 -0.003620 0.007410 -0.003089 0.000000 0.000000 0.000000
# 3 -0.001648 -0.003089 0.007195 0.000000 0.000000 0.000000
# 4 0.000000 0.000000 0.000000 0.027407 0.000000 0.000000
# 5 0.000000 0.000000 0.000000 0.000000 0.082305 0.000000
# 6 0.000000 0.000000 0.000000 0.000000 0.000000 0.039616
#
#
# Mechanical properties :
#
#
# Convention : Reuss Voigt Hill
#
# Bulk Modulus (GPa) = 20.54925 64.60210 42.57568
# Shear Modulus (GPa) = 20.19034 32.54850 26.36942
#
# Velocity S-wave (km/s) = 3.24570 4.12099 3.70926
# Velocity P-wave (km/s) = 4.97674 7.50669 6.36861
#
# Compressibility (1/GPa) = 0.04866357
#
# Stress axis : x y z
#
# Youngs Moduli (GPa) = 19.69519 134.94884 138.98886
#
# Poissons Ratio (x) = 0.48856 0.22906
# Poissons Ratio (y) = 0.07130 0.42937
# Poissons Ratio (z) = 0.03246 0.41689
#
# Static dielectric constant tensor:
#      x y z
#    x 2.956420 0.000000 0.000000 
#    y 0.000000 3.910720 0.000000 
#    z 0.000000 0.000000 3.765300 
# 
# 
# High freq. dielectric constant tensor:
#      x y z
#    x 1.684000 0.000000 0.000000 
#    y 0.000000 1.764980 0.000000 
#    z 0.000000 0.000000 1.760150 
# 
# From -- ./inp_files/7933.got.cif
#   From: 2010.06.25/outbox.cif.g09.slc.cpg/sg71_4_cif.got.tgz:7933.got - 2010.06.28 04:59:45.
