data_PCOD8289667
_publ_section_title
;
Structure prediction by ZEFSAII (Michael W. Deem and Ramdas Pophale) SiO2 
 PCOD8289667
Probable space group: I M M M
;
_chemical_formula_sum "Si O2"
_cell_formula_units_Z 64
_cell_length_a 10.797013
_cell_length_b 35.727498
_cell_length_c 7.697083
_cell_angle_alpha 90.000000
_cell_angle_beta 90.000000
_cell_angle_gamma 90.000000
_cell_volume 2969.151771
_symmetry_space_group_name_H-M "I M M M"
_symmetry_group_IT_number 71
_symmetry_cell_setting 'orthorhombic'
loop_
_space_group_symop_operation_xyz
x,y,z
-x,-y,z
x,-y,-z
-x,y,-z
-x,-y,-z
x,y,-z
-x,y,z
x,-y,z
1/2+x,1/2+y,1/2+z
1/2-x,1/2-y,1/2+z
1/2+x,1/2-y,1/2-z
1/2-x,1/2+y,1/2-z
1/2-x,1/2-y,1/2-z
1/2+x,1/2+y,1/2-z
1/2-x,1/2+y,1/2+z
1/2+x,1/2-y,1/2+z
loop_
_atom_site_type_symbol
_atom_site_label
_atom_site_fract_x
_atom_site_fract_y
_atom_site_fract_z
Si Si1 0.256015 0.416045 0.803578
Si Si2 0.359832 0.040429 0.000000
Si Si3 0.000000 0.702782 0.200508
Si Si4 0.244307 0.169731 0.294872
Si Si5 0.500000 0.711458 0.793212
Si Si6 0.500000 0.543623 0.705482
O O1 0.164037 0.436411 0.673390
O O2 0.270413 0.373386 0.742031
O O3 0.385410 0.436917 0.796441
O O4 0.203012 0.418043 0.000000
O O5 0.500000 0.029580 0.000000
O O6 0.285900 0.000000 0.000000
O O7 0.873804 0.685687 0.285115
O O8 0.000000 0.746867 0.222986
O O9 0.000000 0.691506 0.000000
O O10 0.245648 0.175185 0.500000
O O11 0.124168 0.191430 0.219399
O O12 0.500000 0.710747 0.000000
O O13 0.500000 0.500000 0.749812
O O14 0.500000 0.551250 0.500000
#
# Coordination Sequence:
#
# PCOD8289667 Si02
#       6
#    16   8   8  16   8   8
#     4  11  23  42  68  94 125 172 219 260 326 392
#     4  11  26  45  63  93 135 168 213 279 325 377
#     4  10  20  37  57  84 119 157 202 255 314 377
#     4   9  20  37  59  83 120 161 204 261 312 373
#     4  10  19  37  57  84 121 156 199 257 317 375
#     4  11  22  39  63  94 131 162 199 265 332 382
#
# _framework density 21.55498
#
# number of rings (size 3 to 8) (size 9 to 14) (size 15 to 20)
#    0.000    1.750    1.250    2.625    1.750    5.000 
#    4.500    1.250    0.000    0.000    0.000    0.000 
#    0.000    0.000    0.000    0.000    0.000    0.000 
#
# Total GULP energy -396737.828796 kJ/mol
# GULP energy per Si atom -12398.057150 kJ/mol
# Density = 2.150592 g / cm^3
# Si number density = 21.554980 Si / 1000 Ang^3
#
#
#
# Elastic Constant Matrix: (Units=GPa)
#
#
# Indices 1 2 3 4 5 6 
#
# 1 164.8774 76.2992 15.4687 0.0002 -0.0011 0.0011
# 2 76.2992 188.1451 32.0661 0.0186 -0.0026 0.0030
# 3 15.4687 32.0661 71.0635 -0.0061 0.0068 0.0040
# 4 0.0002 0.0186 -0.0061 57.0929 0.0004 0.0012
# 5 -0.0011 -0.0026 0.0068 0.0004 21.3736 0.0002
# 6 0.0011 0.0030 0.0040 0.0012 0.0002 36.1057
#
#
#
# Elastic Compliance Matrix: (Units=1/GPa)
#
#
# Indices 1 2 3 4 5 6 
#
# 1 0.007471 -0.002982 -0.000281 0.000001 0.000000 0.000000
# 2 -0.002982 0.006948 -0.002486 -0.000003 0.000001 0.000000
# 3 -0.000281 -0.002486 0.015255 0.000002 -0.000005 -0.000001
# 4 0.000001 -0.000003 0.000002 0.017515 0.000000 -0.000001
# 5 0.000000 0.000001 -0.000005 0.000000 0.046787 0.000000
# 6 0.000000 0.000000 -0.000001 -0.000001 0.000000 0.027696
#
#
# Mechanical properties :
#
#
# Convention : Reuss Voigt Hill
#
# Bulk Modulus (GPa) = 55.01583 74.63933 64.82758
# Shear Modulus (GPa) = 35.91193 42.93124 39.42158
#
# Velocity S-wave (km/s) = 4.08617 4.46770 4.28119
# Velocity P-wave (km/s) = 6.91674 7.83048 7.38775
#
# Compressibility (1/GPa) = 0.01817659
#
# Stress axis : x y z
#
# Youngs Moduli (GPa) = 133.84282 143.92449 65.55303
#
# Poissons Ratio (x) = 0.42919 0.01840
# Poissons Ratio (y) = 0.39913 0.16297
# Poissons Ratio (z) = 0.03758 0.35781
#
# Static dielectric constant tensor:
#      x y z
#    x 4.051350 0.000010 0.000020 
#    y 0.000010 3.992380 0.000000 
#    z 0.000020 0.000000 3.713760 
# 
# 
# High freq. dielectric constant tensor:
#      x y z
#    x 1.854930 0.000000 0.000000 
#    y 0.000000 1.863340 0.000000 
#    z 0.000000 0.000000 1.827540 
# 
# From -- ./inp_files/3824.got.cif
#   From: 2010.06.25/outbox.cif.g09.slc.cpg/sg71_2_cif.got.tgz:3824.got - 2010.06.28 04:59:45.
