data_PCOD8289957
_publ_section_title
;
Structure prediction by ZEFSAII (Michael W. Deem and Ramdas Pophale) SiO2 
 PCOD8289957
Probable space group: I M M M
;
_chemical_formula_sum "Si O2"
_cell_formula_units_Z 120
_cell_length_a 9.240354
_cell_length_b 26.818739
_cell_length_c 27.285907
_cell_angle_alpha 90.000000
_cell_angle_beta 90.000000
_cell_angle_gamma 90.000000
_cell_volume 6761.847280
_symmetry_space_group_name_H-M "I M M M"
_symmetry_group_IT_number 71
_symmetry_cell_setting 'orthorhombic'
loop_
_space_group_symop_operation_xyz
x,y,z
-x,-y,z
x,-y,-z
-x,y,-z
-x,-y,-z
x,y,-z
-x,y,z
x,-y,z
1/2+x,1/2+y,1/2+z
1/2-x,1/2-y,1/2+z
1/2+x,1/2-y,1/2-z
1/2-x,1/2+y,1/2-z
1/2-x,1/2-y,1/2-z
1/2+x,1/2+y,1/2-z
1/2-x,1/2+y,1/2+z
1/2+x,1/2-y,1/2+z
loop_
_atom_site_type_symbol
_atom_site_label
_atom_site_fract_x
_atom_site_fract_y
_atom_site_fract_z
Si Si1 0.835424 0.388310 0.220053
Si Si2 0.830571 0.181302 0.555506
Si Si3 0.327623 0.000000 0.555386
Si Si4 0.666327 0.795436 0.056806
Si Si5 0.669326 0.645895 0.362481
Si Si6 0.169139 0.199652 0.237666
Si Si7 0.832112 0.556642 0.682330
Si Si8 0.167426 0.403073 0.890246
O O1 0.726909 0.342246 0.225473
O O2 0.803166 0.430112 0.260797
O O3 0.809286 0.412870 0.167270
O O4 0.000000 0.368384 0.224994
O O5 0.784277 0.167800 0.500000
O O6 0.789381 0.238341 0.567073
O O7 0.746904 0.147010 0.593581
O O8 0.000000 0.172890 0.562348
O O9 0.266148 0.950770 0.581849
O O10 0.500000 0.000000 0.558444
O O11 0.270632 0.000000 0.500000
O O12 0.500000 0.804177 0.071884
O O13 0.767725 0.831410 0.087941
O O14 0.689751 0.808516 0.000000
O O15 0.500000 0.637406 0.368947
O O16 0.704007 0.683506 0.317946
O O17 0.740719 0.592189 0.353096
O O18 0.250000 0.250000 0.250000
O O19 0.000000 0.206997 0.246767
O O20 0.781280 0.500000 0.673693
O O21 0.000000 0.563443 0.669127
O O22 0.000000 0.396083 0.903574
#
# Coordination Sequence:
#
# PCOD8289957 Si02
#       8
#    16  16   8  16  16  16  16  16
#     4   9  19  33  49  75 105 133 171 216 261 306
#     4   9  19  35  52  72 100 134 173 216 262 312
#     4   9  18  32  49  71  99 133 173 219 274 323
#     4   9  19  36  57  80 107 141 177 212 255 311
#     4  10  21  35  53  80 110 139 174 216 265 313
#     4  10  21  35  51  73 105 141 175 211 254 308
#     4   9  18  34  57  79 103 139 179 215 256 313
#     4  10  20  32  51  75 101 132 172 222 269 315
#
# _framework density 17.74663
#
# number of rings (size 3 to 8) (size 9 to 14) (size 15 to 20)
#    0.000    2.600    0.000    2.000    2.800    4.000 
#    0.000    1.667    0.000    1.600    0.000    2.800 
#    0.000    0.000    0.000    0.000    0.000    0.000 
#
# Total GULP energy -744113.736475 kJ/mol
# GULP energy per Si atom -12401.895608 kJ/mol
# Density = 1.770624 g / cm^3
# Si number density = 17.746630 Si / 1000 Ang^3
#
#
#
# Elastic Constant Matrix: (Units=GPa)
#
#
# Indices 1 2 3 4 5 6 
#
# 1 70.7816 61.6859 40.2577 0.0000 0.0000 0.0000
# 2 61.6859 135.2840 60.5452 0.0000 0.0000 0.0000
# 3 40.2577 60.5452 90.7263 0.0000 0.0000 0.0000
# 4 0.0000 0.0000 0.0000 26.1933 0.0000 0.0000
# 5 0.0000 0.0000 0.0000 0.0000 26.7624 0.0000
# 6 0.0000 0.0000 0.0000 0.0000 0.0000 27.8905
#
#
#
# Elastic Compliance Matrix: (Units=1/GPa)
#
#
# Indices 1 2 3 4 5 6 
#
# 1 0.024913 -0.009143 -0.004953 0.000000 0.000000 0.000000
# 2 -0.009143 0.013895 -0.005216 0.000000 0.000000 0.000000
# 3 -0.004953 -0.005216 0.016701 0.000000 0.000000 0.000000
# 4 0.000000 0.000000 0.000000 0.038178 0.000000 0.000000
# 5 0.000000 0.000000 0.000000 0.000000 0.037366 0.000000
# 6 0.000000 0.000000 0.000000 0.000000 0.000000 0.035855
#
#
# Mechanical properties :
#
#
# Convention : Reuss Voigt Hill
#
# Bulk Modulus (GPa) = 59.22365 69.08551 64.15458
# Shear Modulus (GPa) = 23.67880 25.12277 24.40078
#
# Velocity S-wave (km/s) = 3.65673 3.76658 3.71206
# Velocity P-wave (km/s) = 7.16052 7.61114 7.38927
#
# Compressibility (1/GPa) = 0.01688515
#
# Stress axis : x y z
#
# Youngs Moduli (GPa) = 40.13933 71.96785 59.87784
#
# Poissons Ratio (x) = 0.65800 0.29658
# Poissons Ratio (y) = 0.36699 0.31231
# Poissons Ratio (z) = 0.19882 0.37537
#
# Static dielectric constant tensor:
#      x y z
#    x 3.192070 0.000000 0.000000 
#    y 0.000000 3.309220 0.000000 
#    z 0.000000 0.000000 3.239120 
# 
# 
# High freq. dielectric constant tensor:
#      x y z
#    x 1.678200 0.000000 0.000000 
#    y 0.000000 1.683380 0.000000 
#    z 0.000000 0.000000 1.682930 
# 
# From -- ./inp_files/63764.got.cif
#   From: 2010.06.25/outbox.cif.g09.slc.cpg/sg71_32_cif.got.tgz:63764.got - 2010.06.28 04:59:45.
