data_PCOD8289962
_publ_section_title
;
Structure prediction by ZEFSAII (Michael W. Deem and Ramdas Pophale) SiO2 
 PCOD8289962
Probable space group: I M M M
;
_chemical_formula_sum "Si O2"
_cell_formula_units_Z 104
_cell_length_a 27.419552
_cell_length_b 7.797241
_cell_length_c 26.179840
_cell_angle_alpha 90.000000
_cell_angle_beta 90.000000
_cell_angle_gamma 90.000000
_cell_volume 5597.167458
_symmetry_space_group_name_H-M "I M M M"
_symmetry_group_IT_number 71
_symmetry_cell_setting 'orthorhombic'
loop_
_space_group_symop_operation_xyz
x,y,z
-x,-y,z
x,-y,-z
-x,y,-z
-x,-y,-z
x,y,-z
-x,y,z
x,-y,z
1/2+x,1/2+y,1/2+z
1/2-x,1/2-y,1/2+z
1/2+x,1/2-y,1/2-z
1/2-x,1/2+y,1/2-z
1/2-x,1/2-y,1/2-z
1/2+x,1/2+y,1/2-z
1/2-x,1/2+y,1/2+z
1/2+x,1/2-y,1/2+z
loop_
_atom_site_type_symbol
_atom_site_label
_atom_site_fract_x
_atom_site_fract_y
_atom_site_fract_z
Si Si1 0.882411 0.303961 0.198352
Si Si2 0.554565 0.200022 0.392384
Si Si3 0.725625 0.698563 0.302798
Si Si4 0.054704 0.799047 0.000000
Si Si5 0.351110 0.500000 0.060380
Si Si6 0.810910 0.305759 0.377380
Si Si7 0.554536 0.500000 0.127149
Si Si8 0.404887 0.197253 0.190001
O O1 0.897505 0.500000 0.200393
O O2 0.912068 0.214192 0.151866
O O3 0.824910 0.294857 0.188848
O O4 0.899325 0.227600 0.252710
O O5 0.500000 0.281922 0.390429
O O6 0.579944 0.234219 0.447678
O O7 0.551283 0.000000 0.382863
O O8 0.713757 0.500000 0.301343
O O9 0.750000 0.750000 0.250000
O O10 0.760233 0.745231 0.350491
O O11 0.000000 0.722303 0.000000
O O12 0.055129 0.000000 0.000000
O O13 0.322313 0.329434 0.077937
O O14 0.406203 0.500000 0.081708
O O15 0.354140 0.500000 0.000000
O O16 0.808997 0.500000 0.400006
O O17 0.851265 0.294525 0.333601
O O18 0.500000 0.500000 0.103791
O O19 0.559514 0.673353 0.160503
O O20 0.424752 0.000000 0.187452
#
# Coordination Sequence:
#
# PCOD8289962 Si02
#       8
#    16  16  16   8   8  16   8  16
#     4  10  20  32  51  80 110 140 180 222 267 327
#     4   9  18  33  52  72  97 134 178 222 264 314
#     4  11  21  31  54  83 112 146 176 219 272 324
#     4   9  17  31  51  71  91 123 171 223 269 305
#     4  10  22  39  64  84 108 154 196 241 290 331
#     4   9  19  35  55  84 114 144 186 227 280 338
#     4  10  22  37  56  84 116 147 190 237 286 341
#     4   9  18  34  53  77 113 151 181 218 274 340
#
# _framework density 18.580826999999999
#
# number of rings (size 3 to 8) (size 9 to 14) (size 15 to 20)
#    0.000    2.385    1.538    0.692    3.231    2.923 
#    0.000    1.538    1.692    0.000    0.000    4.308 
#    0.000    0.000    0.000    0.000    0.000    0.000 
#
# Total GULP energy -644524.775561 kJ/mol
# GULP energy per Si atom -12394.707222 kJ/mol
# Density = 1.853854 g / cm^3
# Si number density = 18.580827 Si / 1000 Ang^3
#
#
#
# Elastic Constant Matrix: (Units=GPa)
#
#
# Indices 1 2 3 4 5 6 
#
# 1 78.3070 21.6919 53.4078 0.0000 0.0000 0.0000
# 2 21.6919 75.9600 45.5084 0.0000 0.0000 0.0000
# 3 53.4078 45.5084 156.1578 0.0000 0.0000 0.0000
# 4 0.0000 0.0000 0.0000 19.5361 0.0000 0.0000
# 5 0.0000 0.0000 0.0000 0.0000 20.8545 0.0000
# 6 0.0000 0.0000 0.0000 0.0000 0.0000 17.9297
#
#
#
# Elastic Compliance Matrix: (Units=1/GPa)
#
#
# Indices 1 2 3 4 5 6 
#
# 1 0.016823 -0.001644 -0.005275 0.000000 0.000000 0.000000
# 2 -0.001644 0.016110 -0.004133 0.000000 0.000000 0.000000
# 3 -0.005275 -0.004133 0.009412 0.000000 0.000000 0.000000
# 4 0.000000 0.000000 0.000000 0.051187 0.000000 0.000000
# 5 0.000000 0.000000 0.000000 0.000000 0.047951 0.000000
# 6 0.000000 0.000000 0.000000 0.000000 0.000000 0.055773
#
#
# Mechanical properties :
#
#
# Convention : Reuss Voigt Hill
#
# Bulk Modulus (GPa) = 49.40025 61.29341 55.34683
# Shear Modulus (GPa) = 22.11336 24.31851 23.21594
#
# Velocity S-wave (km/s) = 3.45355 3.62165 3.53860
# Velocity P-wave (km/s) = 6.52281 7.10968 6.82256
#
# Compressibility (1/GPa) = 0.02024281
#
# Stress axis : x y z
#
# Youngs Moduli (GPa) = 59.44209 62.07233 106.24632
#
# Poissons Ratio (x) = 0.10205 0.56040
# Poissons Ratio (y) = 0.09773 0.43908
# Poissons Ratio (z) = 0.31353 0.25652
#
# Static dielectric constant tensor:
#      x y z
#    x 3.380870 0.000000 0.000000 
#    y 0.000000 3.524570 0.000000 
#    z 0.000000 0.000000 3.473570 
# 
# 
# High freq. dielectric constant tensor:
#      x y z
#    x 1.700700 0.000000 0.000000 
#    y 0.000000 1.725090 0.000000 
#    z 0.000000 0.000000 1.709000 
# 
# From -- ./inp_files/56309.got.cif
#   From: 2010.06.25/outbox.cif.g09.slc.cpg/sg71_29_cif.got.tgz:56309.got - 2010.06.28 04:59:45.
