data_PCOD8289039
_publ_section_title
;
Structure prediction by ZEFSAII (Michael W. Deem and Ramdas Pophale) SiO2 
 PCOD8289039
Probable space group: I M M M
;
_chemical_formula_sum "Si O2"
_cell_formula_units_Z 120
_cell_length_a 23.175879
_cell_length_b 12.680953
_cell_length_c 22.187787
_cell_angle_alpha 90.000000
_cell_angle_beta 90.000000
_cell_angle_gamma 90.000000
_cell_volume 6520.818252
_symmetry_space_group_name_H-M "I M M M"
_symmetry_group_IT_number 71
_symmetry_cell_setting 'orthorhombic'
loop_
_space_group_symop_operation_xyz
x,y,z
-x,-y,z
x,-y,-z
-x,y,-z
-x,-y,-z
x,y,-z
-x,y,z
x,-y,z
1/2+x,1/2+y,1/2+z
1/2-x,1/2-y,1/2+z
1/2+x,1/2-y,1/2-z
1/2-x,1/2+y,1/2-z
1/2-x,1/2-y,1/2-z
1/2+x,1/2+y,1/2-z
1/2-x,1/2+y,1/2+z
1/2+x,1/2-y,1/2+z
loop_
_atom_site_type_symbol
_atom_site_label
_atom_site_fract_x
_atom_site_fract_y
_atom_site_fract_z
Si Si1 0.931674 0.500000 0.065857
Si Si2 0.241101 0.707531 0.067334
Si Si3 0.721734 0.117618 0.690355
Si Si4 0.331706 0.314664 0.744238
Si Si5 0.065648 0.271355 0.928102
Si Si6 0.164792 0.880644 0.887700
Si Si7 0.863209 0.879756 0.432962
Si Si8 0.935191 0.876053 0.319247
O O1 0.915187 0.388041 0.097801
O O2 0.000000 0.500000 0.057717
O O3 0.902542 0.500000 0.000000
O O4 0.211350 0.636046 0.118906
O O5 0.218998 0.827157 0.077923
O O6 0.309989 0.700945 0.074028
O O7 0.222568 0.669611 0.000000
O O8 0.682531 0.192714 0.731379
O O9 0.789287 0.137782 0.704996
O O10 0.703200 0.000000 0.706676
O O11 0.323707 0.382247 0.683680
O O12 0.396630 0.319374 0.768786
O O13 0.105906 0.182421 0.899905
O O14 0.000000 0.245147 0.909141
O O15 0.071833 0.271556 0.000000
O O16 0.158661 0.000000 0.911359
O O17 0.889778 0.869989 0.500000
O O18 0.912866 0.848532 0.386187
O O19 0.840926 0.000000 0.421716
O O20 0.000000 0.832433 0.313220
O O21 0.932865 0.000000 0.307296
#
# Coordination Sequence:
#
# PCOD8289039 Si02
#       8
#     8  16  16  16  16  16  16  16
#     4   7  12  28  52  72  92 122 166 218 264 316
#     4  10  20  33  52  80 110 142 177 220 274 323
#     4  10  19  35  59  79 103 141 181 223 271 319
#     4  10  21  36  53  78 108 140 184 226 260 317
#     4   9  18  34  54  74  99 137 181 225 277 329
#     4  11  23  36  50  75 113 148 183 228 270 318
#     4   9  17  31  51  77 112 144 174 220 273 328
#     4  10  19  32  54  81 110 145 180 217 266 325
#
# _framework density 18.402598999999999
#
# number of rings (size 3 to 8) (size 9 to 14) (size 15 to 20)
#    0.000    2.333    1.333    2.800    0.000    2.933 
#    6.000    2.000    0.000    0.400    0.000    0.000 
#    0.000    0.000    0.000    4.133    0.000    0.267 
#
# Total GULP energy -743707.917982 kJ/mol
# GULP energy per Si atom -12395.131966 kJ/mol
# Density = 1.836071 g / cm^3
# Si number density = 18.402599 Si / 1000 Ang^3
#
#
#
# Elastic Constant Matrix: (Units=GPa)
#
#
# Indices 1 2 3 4 5 6 
#
# 1 113.8649 49.0222 37.9046 0.0000 0.0000 0.0000
# 2 49.0222 128.8722 29.5179 0.0000 0.0000 0.0000
# 3 37.9046 29.5179 91.5653 0.0000 0.0000 0.0000
# 4 0.0000 0.0000 0.0000 16.1734 0.0000 0.0000
# 5 0.0000 0.0000 0.0000 0.0000 23.2316 0.0000
# 6 0.0000 0.0000 0.0000 0.0000 0.0000 25.4769
#
#
#
# Elastic Compliance Matrix: (Units=1/GPa)
#
#
# Indices 1 2 3 4 5 6 
#
# 1 0.011517 -0.003551 -0.003623 0.000000 0.000000 0.000000
# 2 -0.003551 0.009473 -0.001584 0.000000 0.000000 0.000000
# 3 -0.003623 -0.001584 0.012931 0.000000 0.000000 0.000000
# 4 0.000000 0.000000 0.000000 0.061830 0.000000 0.000000
# 5 0.000000 0.000000 0.000000 0.000000 0.043045 0.000000
# 6 0.000000 0.000000 0.000000 0.000000 0.000000 0.039251
#
#
# Mechanical properties :
#
#
# Convention : Reuss Voigt Hill
#
# Bulk Modulus (GPa) = 60.95301 63.02131 61.98716
# Shear Modulus (GPa) = 24.87157 27.50023 26.18590
#
# Velocity S-wave (km/s) = 3.68030 3.86990 3.77629
# Velocity P-wave (km/s) = 7.15914 7.36806 7.26435
#
# Compressibility (1/GPa) = 0.01640608
#
# Stress axis : x y z
#
# Youngs Moduli (GPa) = 86.82588 105.56007 77.33071
#
# Poissons Ratio (x) = 0.37488 0.28016
# Poissons Ratio (y) = 0.30834 0.12248
# Poissons Ratio (z) = 0.31456 0.16719
#
# Static dielectric constant tensor:
#      x y z
#    x 3.341940 0.000000 0.000000 
#    y 0.000000 3.311260 0.000000 
#    z 0.000000 0.000000 3.433620 
# 
# 
# High freq. dielectric constant tensor:
#      x y z
#    x 1.702260 0.000000 0.000000 
#    y 0.000000 1.691560 0.000000 
#    z 0.000000 0.000000 1.713770 
# 
# From -- ./inp_files/55825.got.cif
#   From: 2010.06.25/outbox.cif.g09.slc.cpg/sg71_28_cif.got.tgz:55825.got - 2010.06.28 04:59:45.
