data_PCOD8289889
_publ_section_title
;
Structure prediction by ZEFSAII (Michael W. Deem and Ramdas Pophale) SiO2 
 PCOD8289889
Probable space group: I M M M
;
_chemical_formula_sum "Si O2"
_cell_formula_units_Z 96
_cell_length_a 23.568891
_cell_length_b 23.451407
_cell_length_c 9.021786
_cell_angle_alpha 90.000000
_cell_angle_beta 90.000000
_cell_angle_gamma 90.000000
_cell_volume 4986.554536
_symmetry_space_group_name_H-M "I M M M"
_symmetry_group_IT_number 71
_symmetry_cell_setting 'orthorhombic'
loop_
_space_group_symop_operation_xyz
x,y,z
-x,-y,z
x,-y,-z
-x,y,-z
-x,-y,-z
x,y,-z
-x,y,z
x,-y,z
1/2+x,1/2+y,1/2+z
1/2-x,1/2-y,1/2+z
1/2+x,1/2-y,1/2-z
1/2-x,1/2+y,1/2-z
1/2-x,1/2-y,1/2-z
1/2+x,1/2+y,1/2-z
1/2-x,1/2+y,1/2+z
1/2+x,1/2-y,1/2+z
loop_
_atom_site_type_symbol
_atom_site_label
_atom_site_fract_x
_atom_site_fract_y
_atom_site_fract_z
Si Si1 0.378399 0.864052 0.178046
Si Si2 0.500000 0.872825 0.839170
Si Si3 0.436340 0.435598 0.172890
Si Si4 0.228088 0.564391 0.676314
Si Si5 0.337665 0.370874 0.329734
Si Si6 0.387015 0.253988 0.328230
Si Si7 0.000000 0.238106 0.664819
O O1 0.439747 0.888247 0.239204
O O2 0.330558 0.907829 0.232556
O O3 0.364677 0.802386 0.246348
O O4 0.380715 0.857437 0.000000
O O5 0.500000 0.805334 0.855840
O O6 0.500000 0.902767 0.000000
O O7 0.500000 0.413307 0.206346
O O8 0.429460 0.500000 0.232271
O O9 0.392775 0.395225 0.252985
O O10 0.423622 0.433949 0.000000
O O11 0.228221 0.564303 0.500000
O O12 0.232733 0.500000 0.738461
O O13 0.280241 0.602147 0.739076
O O14 0.341178 0.388827 0.500000
O O15 0.338183 0.302252 0.311267
O O16 0.399236 0.240073 0.500000
O O17 0.444005 0.279710 0.254860
O O18 0.000000 0.209419 0.500000
#
# Coordination Sequence:
#
# PCOD8289889 Si02
#       7
#    16   8  16  16  16  16   8
#     4   9  17  32  54  77 103 138 178 215 260 322
#     4   7  12  25  46  73  99 121 153 198 245 298
#     4   9  19  35  52  72 100 134 175 224 273 316
#     4   9  18  34  55  76 100 135 180 228 271 312
#     4  10  21  34  50  74 104 139 180 221 264 316
#     4  10  20  32  48  76 111 141 171 217 267 314
#     4   9  17  31  51  74 103 140 178 209 249 313
#
# _framework density 19.25177
#
# number of rings (size 3 to 8) (size 9 to 14) (size 15 to 20)
#    0.000    2.833    0.000    2.750    1.167    3.333 
#    0.000    2.083    0.000    4.000    0.000    0.000 
#    0.000    4.000    0.000    0.000    0.000    0.000 
#
# Total GULP energy -594857.361824 kJ/mol
# GULP energy per Si atom -12392.861705 kJ/mol
# Density = 1.920795 g / cm^3
# Si number density = 19.251770 Si / 1000 Ang^3
#
#
#
# Elastic Constant Matrix: (Units=GPa)
#
#
# Indices 1 2 3 4 5 6 
#
# 1 141.1992 67.4772 25.0085 0.0000 0.0000 0.0000
# 2 67.4772 87.6278 21.9347 0.0000 0.0000 0.0000
# 3 25.0085 21.9347 45.4424 0.0000 0.0000 0.0000
# 4 0.0000 0.0000 0.0000 21.3282 0.0000 0.0000
# 5 0.0000 0.0000 0.0000 0.0000 14.9056 0.0000
# 6 0.0000 0.0000 0.0000 0.0000 0.0000 36.0431
#
#
#
# Elastic Compliance Matrix: (Units=1/GPa)
#
#
# Indices 1 2 3 4 5 6 
#
# 1 0.011417 -0.008211 -0.002320 0.000000 0.000000 0.000000
# 2 -0.008211 0.018885 -0.004597 0.000000 0.000000 0.000000
# 3 -0.002320 -0.004597 0.025502 0.000000 0.000000 0.000000
# 4 0.000000 0.000000 0.000000 0.046886 0.000000 0.000000
# 5 0.000000 0.000000 0.000000 0.000000 0.067089 0.000000
# 6 0.000000 0.000000 0.000000 0.000000 0.000000 0.027745
#
#
# Mechanical properties :
#
#
# Convention : Reuss Voigt Hill
#
# Bulk Modulus (GPa) = 39.14153 55.90112 47.52132
# Shear Modulus (GPa) = 21.15995 25.11195 23.13595
#
# Velocity S-wave (km/s) = 3.31889 3.61556 3.47040
# Velocity P-wave (km/s) = 5.92134 6.82126 6.38717
#
# Compressibility (1/GPa) = 0.02554831
#
# Stress axis : x y z
#
# Youngs Moduli (GPa) = 87.58932 52.95115 39.21328
#
# Poissons Ratio (x) = 0.43477 0.09097
# Poissons Ratio (y) = 0.71918 0.18027
# Poissons Ratio (z) = 0.20319 0.24342
#
# Static dielectric constant tensor:
#      x y z
#    x 3.897490 0.000000 0.000000 
#    y 0.000000 3.458840 0.000000 
#    z 0.000000 0.000000 3.235950 
# 
# 
# High freq. dielectric constant tensor:
#      x y z
#    x 1.754920 0.000000 0.000000 
#    y 0.000000 1.738920 0.000000 
#    z 0.000000 0.000000 1.713990 
# 
# From -- ./inp_files/12875.got.cif
#   From: 2010.06.25/outbox.cif.g09.slc.cpg/sg71_7_cif.got.tgz:12875.got - 2010.06.28 04:59:45.
