data_PCOD8289720
_publ_section_title
;
Structure prediction by ZEFSAII (Michael W. Deem and Ramdas Pophale) SiO2 
 PCOD8289720
Probable space group: I M M M
;
_chemical_formula_sum "Si O2"
_cell_formula_units_Z 104
_cell_length_a 29.507240
_cell_length_b 20.686970
_cell_length_c 9.262960
_cell_angle_alpha 90.000000
_cell_angle_beta 90.000000
_cell_angle_gamma 90.000000
_cell_volume 5654.253329
_symmetry_space_group_name_H-M "I M M M"
_symmetry_group_IT_number 71
_symmetry_cell_setting 'orthorhombic'
loop_
_space_group_symop_operation_xyz
x,y,z
-x,-y,z
x,-y,-z
-x,y,-z
-x,-y,-z
x,y,-z
-x,y,z
x,-y,z
1/2+x,1/2+y,1/2+z
1/2-x,1/2-y,1/2+z
1/2+x,1/2-y,1/2-z
1/2-x,1/2+y,1/2-z
1/2-x,1/2-y,1/2-z
1/2+x,1/2+y,1/2-z
1/2-x,1/2+y,1/2+z
1/2+x,1/2-y,1/2+z
loop_
_atom_site_type_symbol
_atom_site_label
_atom_site_fract_x
_atom_site_fract_y
_atom_site_fract_z
Si Si1 0.949858 0.742378 0.831425
Si Si2 0.092831 0.500000 0.157261
Si Si3 0.788130 0.000000 0.657942
Si Si4 0.188261 0.500000 0.236036
Si Si5 0.136509 0.239889 0.331758
Si Si6 0.196665 0.641295 0.337527
Si Si7 0.449557 0.890232 0.837147
Si Si8 0.786838 0.860614 0.328332
O O1 0.908181 0.781249 0.759466
O O2 0.950285 0.675827 0.747364
O O3 0.000000 0.775382 0.811096
O O4 0.940038 0.731319 0.000000
O O5 0.146332 0.500000 0.126770
O O6 0.081969 0.562231 0.250165
O O7 0.068345 0.500000 0.000000
O O8 0.733608 0.000000 0.642825
O O9 0.801827 0.067871 0.734717
O O10 0.810356 0.000000 0.500000
O O11 0.184799 0.565301 0.332066
O O12 0.124873 0.231744 0.500000
O O13 0.153423 0.313172 0.295241
O O14 0.175582 0.190633 0.282593
O O15 0.210864 0.659555 0.500000
O O16 0.238761 0.660575 0.236593
O O17 0.500000 0.919733 0.844405
O O18 0.430498 0.879918 0.000000
O O19 0.780677 0.865275 0.500000
#
# Coordination Sequence:
#
# PCOD8289720 Si02
#       8
#    16   8   8   8  16  16  16  16
#     4  10  21  36  53  73  96 124 161 205 251 299
#     4  12  23  32  47  70  93 123 168 218 260 298
#     4   8  15  31  50  67  93 126 157 191 230 279
#     4  10  20  31  44  64  94 131 168 203 243 289
#     4  10  20  33  50  74 101 130 164 202 249 302
#     4  10  20  32  47  69  98 131 168 208 247 290
#     4  10  21  36  51  66  89 124 163 206 258 308
#     4   9  18  32  51  74 100 131 165 200 243 296
#
# _framework density 18.393234
#
# number of rings (size 3 to 8) (size 9 to 14) (size 15 to 20)
#    0.000    2.154    0.000    3.231    0.000    7.077 
#    0.000    0.000    0.000    0.000    0.000    0.538 
#    0.000    4.308    0.000    0.000    0.000    0.000 
#
# Total GULP energy -644332.090404 kJ/mol
# GULP energy per Si atom -12391.001739 kJ/mol
# Density = 1.835137 g / cm^3
# Si number density = 18.393234 Si / 1000 Ang^3
#
#
#
# Elastic Constant Matrix: (Units=GPa)
#
#
# Indices 1 2 3 4 5 6 
#
# 1 103.0947 32.1566 46.0600 0.0000 0.0000 0.0000
# 2 32.1566 69.1370 18.3452 0.0000 0.0000 0.0000
# 3 46.0600 18.3452 91.4356 0.0000 0.0000 0.0000
# 4 0.0000 0.0000 0.0000 17.6373 0.0000 0.0000
# 5 0.0000 0.0000 0.0000 0.0000 29.7331 0.0000
# 6 0.0000 0.0000 0.0000 0.0000 0.0000 19.8398
#
#
#
# Elastic Compliance Matrix: (Units=1/GPa)
#
#
# Indices 1 2 3 4 5 6 
#
# 1 0.013914 -0.004871 -0.006032 0.000000 0.000000 0.000000
# 2 -0.004871 0.016983 -0.000954 0.000000 0.000000 0.000000
# 3 -0.006032 -0.000954 0.014166 0.000000 0.000000 0.000000
# 4 0.000000 0.000000 0.000000 0.056698 0.000000 0.000000
# 5 0.000000 0.000000 0.000000 0.000000 0.033633 0.000000
# 6 0.000000 0.000000 0.000000 0.000000 0.000000 0.050404
#
#
# Mechanical properties :
#
#
# Convention : Reuss Voigt Hill
#
# Bulk Modulus (GPa) = 46.83776 50.75455 48.79615
# Shear Modulus (GPa) = 23.08114 24.58240 23.83177
#
# Velocity S-wave (km/s) = 3.54626 3.65977 3.60346
# Velocity P-wave (km/s) = 6.50291 6.74630 6.62573
#
# Compressibility (1/GPa) = 0.02135030
#
# Stress axis : x y z
#
# Youngs Moduli (GPa) = 71.87002 58.88354 70.58938
#
# Poissons Ratio (x) = 0.28683 0.42578
# Poissons Ratio (y) = 0.35009 0.06731
# Poissons Ratio (z) = 0.43350 0.05615
#
# Static dielectric constant tensor:
#      x y z
#    x 3.674860 0.000000 0.000000 
#    y 0.000000 3.314300 0.000000 
#    z 0.000000 0.000000 3.311340 
# 
# 
# High freq. dielectric constant tensor:
#      x y z
#    x 1.707370 0.000000 0.000000 
#    y 0.000000 1.690900 0.000000 
#    z 0.000000 0.000000 1.709450 
# 
# From -- ./inp_files/17071.got.cif
#   From: 2010.06.25/outbox.cif.g09.slc.cpg/sg71_9_cif.got.tgz:17071.got - 2010.06.28 04:59:45.
