data_PCOD8289914
_publ_section_title
;
Structure prediction by ZEFSAII (Michael W. Deem and Ramdas Pophale) SiO2 
 PCOD8289914
Probable space group: I M M M
;
_chemical_formula_sum "Si O2"
_cell_formula_units_Z 72
_cell_length_a 24.817212
_cell_length_b 18.336595
_cell_length_c 9.096730
_cell_angle_alpha 90.000000
_cell_angle_beta 90.000000
_cell_angle_gamma 90.000000
_cell_volume 4139.586749
_symmetry_space_group_name_H-M "I M M M"
_symmetry_group_IT_number 71
_symmetry_cell_setting 'orthorhombic'
loop_
_space_group_symop_operation_xyz
x,y,z
-x,-y,z
x,-y,-z
-x,y,-z
-x,-y,-z
x,y,-z
-x,y,z
x,-y,z
1/2+x,1/2+y,1/2+z
1/2-x,1/2-y,1/2+z
1/2+x,1/2-y,1/2-z
1/2-x,1/2+y,1/2-z
1/2-x,1/2-y,1/2-z
1/2+x,1/2+y,1/2-z
1/2-x,1/2+y,1/2+z
1/2+x,1/2-y,1/2+z
loop_
_atom_site_type_symbol
_atom_site_label
_atom_site_fract_x
_atom_site_fract_y
_atom_site_fract_z
Si Si1 0.744965 0.172462 0.175104
Si Si2 0.438685 0.000000 0.673173
Si Si3 0.837156 0.913378 0.667245
Si Si4 0.059341 0.086623 0.164860
Si Si5 0.645009 0.919827 0.163885
O O1 0.750000 0.250000 0.250000
O O2 0.791842 0.120024 0.229839
O O3 0.687692 0.138412 0.225672
O O4 0.748336 0.179171 0.000000
O O5 0.408550 0.926882 0.734229
O O6 0.500000 0.000000 0.729065
O O7 0.435180 0.000000 0.500000
O O8 0.829612 0.886663 0.500000
O O9 0.895182 0.884233 0.723810
O O10 0.833392 0.000000 0.678920
O O11 0.000000 0.114363 0.215805
O O12 0.059739 0.000000 0.164517
O O13 0.071664 0.115147 0.000000
O O14 0.673440 0.000000 0.160436
O O15 0.626579 0.897173 0.000000
#
# Coordination Sequence:
#
# PCOD8289914 Si02
#       5
#    16   8  16  16  16
#     4  11  22  36  52  72 101 136 174 214 261 313
#     4   9  17  29  51  83 111 133 164 211 262 309
#     4  10  20  32  49  75 103 132 169 210 254 303
#     4   8  14  26  45  69  96 127 162 200 243 288
#     4   8  17  33  52  75 102 134 170 207 251 307
#
# _framework density 17.393041
#
# number of rings (size 3 to 8) (size 9 to 14) (size 15 to 20)
#    0.667    2.111    0.000    2.667    0.000    5.333 
#    0.000    2.222    0.000    1.333    0.000    6.222 
#    0.000    0.000    0.000    0.000    0.000    0.000 
#
# Total GULP energy -446070.769118 kJ/mol
# GULP energy per Si atom -12390.854698 kJ/mol
# Density = 1.735345 g / cm^3
# Si number density = 17.393041 Si / 1000 Ang^3
#
#
#
# Elastic Constant Matrix: (Units=GPa)
#
#
# Indices 1 2 3 4 5 6 
#
# 1 154.1086 43.1360 70.4985 0.0000 0.0000 0.0000
# 2 43.1360 46.0480 32.5035 0.0000 0.0000 0.0000
# 3 70.4985 32.5035 91.6858 0.0000 0.0000 0.0000
# 4 0.0000 0.0000 0.0000 23.0563 0.0000 0.0000
# 5 0.0000 0.0000 0.0000 0.0000 32.0148 0.0000
# 6 0.0000 0.0000 0.0000 0.0000 0.0000 4.2094
#
#
#
# Elastic Compliance Matrix: (Units=1/GPa)
#
#
# Indices 1 2 3 4 5 6 
#
# 1 0.011066 -0.005815 -0.006447 0.000000 0.000000 0.000000
# 2 -0.005815 0.032020 -0.006880 0.000000 0.000000 0.000000
# 3 -0.006447 -0.006880 0.018303 0.000000 0.000000 0.000000
# 4 0.000000 0.000000 0.000000 0.043372 0.000000 0.000000
# 5 0.000000 0.000000 0.000000 0.000000 0.031236 0.000000
# 6 0.000000 0.000000 0.000000 0.000000 0.000000 0.237561
#
#
# Mechanical properties :
#
#
# Convention : Reuss Voigt Hill
#
# Bulk Modulus (GPa) = 43.28177 64.90203 54.09190
# Shear Modulus (GPa) = 11.91766 21.56974 16.74370
#
# Velocity S-wave (km/s) = 2.62047 3.52538 3.10605
# Velocity P-wave (km/s) = 5.83904 7.34622 6.63556
#
# Compressibility (1/GPa) = 0.02310442
#
# Stress axis : x y z
#
# Youngs Moduli (GPa) = 90.36650 31.23009 54.63524
#
# Poissons Ratio (x) = 0.18162 0.35225
# Poissons Ratio (y) = 0.52552 0.37589
# Poissons Ratio (z) = 0.58261 0.21486
#
# Static dielectric constant tensor:
#      x y z
#    x 3.441530 0.000000 0.000000 
#    y 0.000000 2.824130 0.000000 
#    z 0.000000 0.000000 3.312780 
# 
# 
# High freq. dielectric constant tensor:
#      x y z
#    x 1.675950 0.000000 0.000000 
#    y 0.000000 1.624350 0.000000 
#    z 0.000000 0.000000 1.678650 
# 
# From -- ./inp_files/14475.got.cif
#   From: 2010.06.25/outbox.cif.g09.slc.cpg/sg71_8_cif.got.tgz:14475.got - 2010.06.28 04:59:45.
