data_PCOD8289354
_publ_section_title
;
Structure prediction by ZEFSAII (Michael W. Deem and Ramdas Pophale) SiO2 
 PCOD8289354
Probable space group: I M M M
;
_chemical_formula_sum "Si O2"
_cell_formula_units_Z 104
_cell_length_a 24.259443
_cell_length_b 31.878715
_cell_length_c 7.669126
_cell_angle_alpha 90.000000
_cell_angle_beta 90.000000
_cell_angle_gamma 90.000000
_cell_volume 5930.994282
_symmetry_space_group_name_H-M "I M M M"
_symmetry_group_IT_number 71
_symmetry_cell_setting 'orthorhombic'
loop_
_space_group_symop_operation_xyz
x,y,z
-x,-y,z
x,-y,-z
-x,y,-z
-x,-y,-z
x,y,-z
-x,y,z
x,-y,z
1/2+x,1/2+y,1/2+z
1/2-x,1/2-y,1/2+z
1/2+x,1/2-y,1/2-z
1/2-x,1/2+y,1/2-z
1/2-x,1/2-y,1/2-z
1/2+x,1/2+y,1/2-z
1/2-x,1/2+y,1/2+z
1/2+x,1/2-y,1/2+z
loop_
_atom_site_type_symbol
_atom_site_label
_atom_site_fract_x
_atom_site_fract_y
_atom_site_fract_z
Si Si1 0.148394 0.047056 0.705644
Si Si2 0.059939 0.115276 0.798778
Si Si3 0.565401 0.764085 0.000000
Si Si4 0.939330 0.500000 0.794398
Si Si5 0.229999 0.546552 0.793768
Si Si6 0.934241 0.639675 0.500000
Si Si7 0.618895 0.914922 0.293159
Si Si8 0.434452 0.293439 0.305689
O O1 0.146776 0.047778 0.500000
O O2 0.103019 0.078391 0.775241
O O3 0.209378 0.061004 0.772101
O O4 0.135374 0.000000 0.773612
O O5 0.081770 0.160319 0.728563
O O6 0.000000 0.103381 0.714516
O O7 0.050093 0.123188 0.000000
O O8 0.589431 0.741398 0.173099
O O9 0.500000 0.760212 0.000000
O O10 0.583894 0.812080 0.000000
O O11 0.908087 0.541449 0.733684
O O12 0.000000 0.500000 0.709434
O O13 0.943411 0.500000 0.000000
O O14 0.216585 0.500000 0.718293
O O15 0.183554 0.580529 0.740909
O O16 0.230110 0.542496 0.000000
O O17 0.908934 0.621006 0.677804
O O18 0.000000 0.633471 0.500000
O O19 0.610369 0.905315 0.500000
O O20 0.409743 0.285283 0.500000
O O21 0.500000 0.290677 0.314678
#
# Coordination Sequence:
#
# PCOD8289354 Si02
#       8
#    16  16   8   8  16   8  16  16
#     4   9  18  30  46  71 102 133 169 211 248 287
#     4   9  18  31  46  69 102 134 166 204 247 299
#     4   9  18  32  49  70  98 132 159 195 254 309
#     4   9  16  27  47  71  92 127 170 196 236 298
#     4   8  14  30  52  69  91 127 173 217 246 279
#     4  11  24  35  46  77 112 129 161 205 252 321
#     4  10  19  34  53  70  97 137 172 208 251 293
#     4   8  15  29  49  71  94 123 164 207 243 292
#
# _framework density 17.535004000000001
#
# number of rings (size 3 to 8) (size 9 to 14) (size 15 to 20)
#    0.000    3.000    0.769    2.308    1.077    2.769 
#    1.385    3.846    0.000    0.000    0.000    1.077 
#    0.000    0.000    0.000    0.000    0.000    0.000 
#
# Total GULP energy -644228.703169 kJ/mol
# GULP energy per Si atom -12389.013522 kJ/mol
# Density = 1.749509 g / cm^3
# Si number density = 17.535004 Si / 1000 Ang^3
#
#
#
# Elastic Constant Matrix: (Units=GPa)
#
#
# Indices 1 2 3 4 5 6 
#
# 1 95.9583 62.0902 28.1275 0.0000 0.0000 0.0000
# 2 62.0902 131.4759 48.9618 0.0000 0.0000 0.0000
# 3 28.1275 48.9618 67.6728 0.0000 0.0000 0.0000
# 4 0.0000 0.0000 0.0000 180.5726 0.0000 0.0000
# 5 0.0000 0.0000 0.0000 0.0000 12.9476 0.0000
# 6 0.0000 0.0000 0.0000 0.0000 0.0000 3.9399
#
#
#
# Elastic Compliance Matrix: (Units=1/GPa)
#
#
# Indices 1 2 3 4 5 6 
#
# 1 0.015122 -0.006571 -0.001531 0.000000 0.000000 0.000000
# 2 -0.006571 0.013267 -0.006867 0.000000 0.000000 0.000000
# 3 -0.001531 -0.006867 0.020382 0.000000 0.000000 0.000000
# 4 0.000000 0.000000 0.000000 0.005538 0.000000 0.000000
# 5 0.000000 0.000000 0.000000 0.000000 0.077234 0.000000
# 6 0.000000 0.000000 0.000000 0.000000 0.000000 0.253814
#
#
# Mechanical properties :
#
#
# Convention : Reuss Voigt Hill
#
# Bulk Modulus (GPa) = 53.10250 63.71845 58.41047
# Shear Modulus (GPa) = 11.86036 49.88719 30.87378
#
# Velocity S-wave (km/s) = 2.60356 5.33965 4.20061
# Velocity P-wave (km/s) = 6.27594 8.62743 7.54387
#
# Compressibility (1/GPa) = 0.01883150
#
# Stress axis : x y z
#
# Youngs Moduli (GPa) = 66.12921 75.37701 49.06345
#
# Poissons Ratio (x) = 0.49532 0.07511
# Poissons Ratio (y) = 0.43455 0.33693
# Poissons Ratio (z) = 0.10124 0.51763
#
# Static dielectric constant tensor:
#      x y z
#    x 5.393320 0.000000 0.000000 
#    y 0.000000 3.501910 0.000000 
#    z 0.000000 0.000000 3.218770 
# 
# 
# High freq. dielectric constant tensor:
#      x y z
#    x 1.653260 0.000000 0.000000 
#    y 0.000000 1.657880 0.000000 
#    z 0.000000 0.000000 1.673680 
# 
# From -- ./inp_files/13678.got.cif
#   From: 2010.06.25/outbox.cif.g09.slc.cpg/sg71_7_cif.got.tgz:13678.got - 2010.06.28 04:59:45.
