data_PCOD8289472
_publ_section_title
;
Structure prediction by ZEFSAII (Michael W. Deem and Ramdas Pophale) SiO2 
 PCOD8289472
Probable space group: I M M M
;
_chemical_formula_sum "Si O2"
_cell_formula_units_Z 112
_cell_length_a 33.475351
_cell_length_b 9.587021
_cell_length_c 18.951823
_cell_angle_alpha 90.000000
_cell_angle_beta 90.000000
_cell_angle_gamma 90.000000
_cell_volume 6082.187576
_symmetry_space_group_name_H-M "I M M M"
_symmetry_group_IT_number 71
_symmetry_cell_setting 'orthorhombic'
loop_
_space_group_symop_operation_xyz
x,y,z
-x,-y,z
x,-y,-z
-x,y,-z
-x,-y,-z
x,y,-z
-x,y,z
x,-y,z
1/2+x,1/2+y,1/2+z
1/2-x,1/2-y,1/2+z
1/2+x,1/2-y,1/2-z
1/2-x,1/2+y,1/2-z
1/2-x,1/2-y,1/2-z
1/2+x,1/2+y,1/2-z
1/2-x,1/2+y,1/2+z
1/2+x,1/2-y,1/2+z
loop_
_atom_site_type_symbol
_atom_site_label
_atom_site_fract_x
_atom_site_fract_y
_atom_site_fract_z
Si Si1 0.180292 0.337375 0.292382
Si Si2 0.189079 0.836562 0.157928
Si Si3 0.107935 0.839107 0.081712
Si Si4 0.953549 0.663131 0.163020
Si Si5 0.587383 0.160538 0.193102
Si Si6 0.545337 0.659421 0.081173
Si Si7 0.232006 0.664091 0.422154
O O1 0.190585 0.500000 0.280605
O O2 0.198615 0.249662 0.228323
O O3 0.133420 0.309977 0.293146
O O4 0.199764 0.280847 0.365150
O O5 0.146746 0.790936 0.125245
O O6 0.223223 0.798020 0.101781
O O7 0.189747 0.000000 0.176489
O O8 0.069905 0.747414 0.103284
O O9 0.097831 0.000000 0.097075
O O10 0.117202 0.814106 0.000000
O O11 0.945327 0.500000 0.151232
O O12 0.938068 0.710735 0.239662
O O13 0.000000 0.700105 0.156527
O O14 0.575106 0.246648 0.125152
O O15 0.578820 0.000000 0.176446
O O16 0.500000 0.709246 0.093722
O O17 0.550177 0.500000 0.105128
O O18 0.557258 0.676941 0.000000
O O19 0.224299 0.730818 0.500000
O O20 0.227005 0.500000 0.428324
#
# Coordination Sequence:
#
# PCOD8289472 Si02
#       7
#    16  16  16  16  16  16  16
#     4  10  20  34  55  81 109 140 177 221 264 311
#     4  10  19  34  57  81 107 142 179 218 262 314
#     4  10  21  36  55  80 107 137 177 222 266 315
#     4  10  21  37  55  76 106 142 178 219 270 324
#     4  10  20  34  53  78 107 140 179 223 266 313
#     4   9  19  35  53  75 104 138 178 224 273 323
#     4   9  18  33  54  81 111 143 179 217 259 310
#
# _framework density 18.414428000000001
#
# number of rings (size 3 to 8) (size 9 to 14) (size 15 to 20)
#    0.000    2.286    1.429    1.714    0.000    5.429 
#    0.000    3.571    0.000    2.571    0.000    0.000 
#    0.000    0.000    0.000    0.000    0.000    0.000 
#
# Total GULP energy -694505.565427 kJ/mol
# GULP energy per Si atom -12401.885097 kJ/mol
# Density = 1.837252 g / cm^3
# Si number density = 18.414428 Si / 1000 Ang^3
#
#
#
# Elastic Constant Matrix: (Units=GPa)
#
#
# Indices 1 2 3 4 5 6 
#
# 1 87.0853 30.9662 50.8648 0.0000 0.0000 0.0000
# 2 30.9662 43.3882 44.5849 0.0000 0.0000 0.0000
# 3 50.8648 44.5849 131.1715 0.0000 0.0000 0.0000
# 4 0.0000 0.0000 0.0000 34.9464 0.0000 0.0000
# 5 0.0000 0.0000 0.0000 0.0000 29.7199 0.0000
# 6 0.0000 0.0000 0.0000 0.0000 0.0000 18.0929
#
#
#
# Elastic Compliance Matrix: (Units=1/GPa)
#
#
# Indices 1 2 3 4 5 6 
#
# 1 0.016465 -0.007976 -0.003674 0.000000 0.000000 0.000000
# 2 -0.007976 0.039282 -0.010259 0.000000 0.000000 0.000000
# 3 -0.003674 -0.010259 0.012535 0.000000 0.000000 0.000000
# 4 0.000000 0.000000 0.000000 0.028615 0.000000 0.000000
# 5 0.000000 0.000000 0.000000 0.000000 0.033647 0.000000
# 6 0.000000 0.000000 0.000000 0.000000 0.000000 0.055270
#
#
# Mechanical properties :
#
#
# Convention : Reuss Voigt Hill
#
# Bulk Modulus (GPa) = 40.87499 57.16410 49.01954
# Shear Modulus (GPa) = 21.02718 25.56712 23.29715
#
# Velocity S-wave (km/s) = 3.38285 3.73021 3.56076
# Velocity P-wave (km/s) = 6.12402 7.04720 6.60177
#
# Compressibility (1/GPa) = 0.02446484
#
# Stress axis : x y z
#
# Youngs Moduli (GPa) = 60.73558 25.45681 79.77582
#
# Poissons Ratio (x) = 0.20305 0.29306
# Poissons Ratio (y) = 0.48443 0.81842
# Poissons Ratio (z) = 0.22312 0.26116
#
# Static dielectric constant tensor:
#      x y z
#    x 3.421230 0.000000 0.000000 
#    y 0.000000 3.184110 0.000000 
#    z 0.000000 0.000000 3.479280 
# 
# 
# High freq. dielectric constant tensor:
#      x y z
#    x 1.721190 0.000000 0.000000 
#    y 0.000000 1.691600 0.000000 
#    z 0.000000 0.000000 1.721420 
# 
# From -- ./inp_files/40945.got.cif
#   From: 2010.06.25/outbox.cif.g09.slc.cpg/sg71_21_cif.got.tgz:40945.got - 2010.06.28 04:59:45.
