data_PCOD8289818
_publ_section_title
;
Structure prediction by ZEFSAII (Michael W. Deem and Ramdas Pophale) SiO2 
 PCOD8289818
Probable space group: I M M M
;
_chemical_formula_sum "Si O2"
_cell_formula_units_Z 80
_cell_length_a 20.133224
_cell_length_b 27.930792
_cell_length_c 9.084755
_cell_angle_alpha 90.000000
_cell_angle_beta 90.000000
_cell_angle_gamma 90.000000
_cell_volume 5108.692890
_symmetry_space_group_name_H-M "I M M M"
_symmetry_group_IT_number 71
_symmetry_cell_setting 'orthorhombic'
loop_
_space_group_symop_operation_xyz
x,y,z
-x,-y,z
x,-y,-z
-x,y,-z
-x,-y,-z
x,y,-z
-x,y,z
x,-y,z
1/2+x,1/2+y,1/2+z
1/2-x,1/2-y,1/2+z
1/2+x,1/2-y,1/2-z
1/2-x,1/2+y,1/2-z
1/2-x,1/2-y,1/2-z
1/2+x,1/2+y,1/2-z
1/2-x,1/2+y,1/2+z
1/2+x,1/2-y,1/2+z
loop_
_atom_site_type_symbol
_atom_site_label
_atom_site_fract_x
_atom_site_fract_y
_atom_site_fract_z
Si Si1 0.923680 0.684286 0.672498
Si Si2 0.816764 0.141331 0.826785
Si Si3 0.281121 0.553693 0.167384
Si Si4 0.189072 0.365159 0.832835
Si Si5 0.924168 0.781331 0.170363
O O1 0.910734 0.683704 0.500000
O O2 0.879776 0.643296 0.748689
O O3 0.902142 0.735833 0.734360
O O4 0.000000 0.673326 0.711890
O O5 0.830101 0.087178 0.765555
O O6 0.750097 0.162588 0.749030
O O7 0.879126 0.173907 0.782974
O O8 0.805141 0.139471 0.000000
O O9 0.277826 0.500000 0.232269
O O10 0.207222 0.577914 0.171711
O O11 0.307721 0.553088 0.000000
O O12 0.183293 0.346365 0.000000
O O13 0.000000 0.795778 0.204024
O O14 0.914065 0.767965 0.000000
#
# Coordination Sequence:
#
# PCOD8289818 Si02
#       5
#    16  16  16  16  16
#     4  10  20  32  47  68  94 123 156 192 227 268
#     4   9  17  29  47  72  94 117 153 194 231 268
#     4   8  16  31  49  69  92 118 150 188 232 279
#     4   9  18  31  48  69  92 122 154 187 230 275
#     4   9  18  32  48  66  93 128 159 187 225 274
#
# _framework density 15.659583
#
# number of rings (size 3 to 8) (size 9 to 14) (size 15 to 20)
#    1.200    1.800    0.000    1.200    0.000    4.000 
#    0.000    0.000    0.000    1.200    0.000    8.400 
#    0.000    0.000    0.000    0.000    0.000    0.000 
#
# Total GULP energy -495600.218407 kJ/mol
# GULP energy per Si atom -12390.005460 kJ/mol
# Density = 1.562394 g / cm^3
# Si number density = 15.659583 Si / 1000 Ang^3
#
#
#
# Elastic Constant Matrix: (Units=GPa)
#
#
# Indices 1 2 3 4 5 6 
#
# 1 44.9690 10.8922 17.6436 0.0000 0.0000 0.0000
# 2 10.8922 44.7030 13.6912 0.0000 0.0000 0.0000
# 3 17.6436 13.6912 62.5048 0.0000 0.0000 0.0000
# 4 0.0000 0.0000 0.0000 25.6011 0.0000 0.0000
# 5 0.0000 0.0000 0.0000 0.0000 22.3912 0.0000
# 6 0.0000 0.0000 0.0000 0.0000 0.0000 11.9461
#
#
#
# Elastic Compliance Matrix: (Units=1/GPa)
#
#
# Indices 1 2 3 4 5 6 
#
# 1 0.025770 -0.004343 -0.006323 0.000000 0.000000 0.000000
# 2 -0.004343 0.024710 -0.004187 0.000000 0.000000 0.000000
# 3 -0.006323 -0.004187 0.018701 0.000000 0.000000 0.000000
# 4 0.000000 0.000000 0.000000 0.039061 0.000000 0.000000
# 5 0.000000 0.000000 0.000000 0.000000 0.044660 0.000000
# 6 0.000000 0.000000 0.000000 0.000000 0.000000 0.083709
#
#
# Mechanical properties :
#
#
# Convention : Reuss Voigt Hill
#
# Bulk Modulus (GPa) = 25.33165 26.29231 25.81198
# Shear Modulus (GPa) = 17.89065 19.31766 18.60416
#
# Velocity S-wave (km/s) = 3.38372 3.51607 3.45053
# Velocity P-wave (km/s) = 5.61049 5.77149 5.69156
#
# Compressibility (1/GPa) = 0.03947631
#
# Stress axis : x y z
#
# Youngs Moduli (GPa) = 38.80449 40.46909 53.47385
#
# Poissons Ratio (x) = 0.17574 0.33812
# Poissons Ratio (y) = 0.16851 0.22388
# Poissons Ratio (z) = 0.24537 0.16944
#
# Static dielectric constant tensor:
#      x y z
#    x 2.845310 0.000000 0.000000 
#    y 0.000000 2.844420 0.000000 
#    z 0.000000 0.000000 3.039730 
# 
# 
# High freq. dielectric constant tensor:
#      x y z
#    x 1.581740 0.000000 0.000000 
#    y 0.000000 1.579320 0.000000 
#    z 0.000000 0.000000 1.613540 
# 
# From -- ./inp_files/8609.got.cif
#   From: 2010.06.25/outbox.cif.g09.slc.cpg/sg71_5_cif.got.tgz:8609.got - 2010.06.28 04:59:45.
