data_PCOD8289858
_publ_section_title
;
Structure prediction by ZEFSAII (Michael W. Deem and Ramdas Pophale) SiO2 
 PCOD8289858
Probable space group: I M M M
;
_chemical_formula_sum "Si O2"
_cell_formula_units_Z 104
_cell_length_a 7.787494
_cell_length_b 26.194121
_cell_length_c 28.806271
_cell_angle_alpha 90.000000
_cell_angle_beta 90.000000
_cell_angle_gamma 90.000000
_cell_volume 5876.092131
_symmetry_space_group_name_H-M "I M M M"
_symmetry_group_IT_number 71
_symmetry_cell_setting 'orthorhombic'
loop_
_space_group_symop_operation_xyz
x,y,z
-x,-y,z
x,-y,-z
-x,y,-z
-x,-y,-z
x,y,-z
-x,y,z
x,-y,z
1/2+x,1/2+y,1/2+z
1/2-x,1/2-y,1/2+z
1/2+x,1/2-y,1/2-z
1/2-x,1/2+y,1/2-z
1/2-x,1/2-y,1/2-z
1/2+x,1/2+y,1/2-z
1/2-x,1/2+y,1/2+z
1/2+x,1/2-y,1/2+z
loop_
_atom_site_type_symbol
_atom_site_label
_atom_site_fract_x
_atom_site_fract_y
_atom_site_fract_z
Si Si1 0.303767 0.392020 0.356733
Si Si2 0.500000 0.888677 0.700960
Si Si3 0.688427 0.560696 0.052228
Si Si4 0.302322 0.711119 0.311517
Si Si5 0.191770 0.817404 0.292807
Si Si6 0.297621 0.941708 0.947709
Si Si7 0.000000 0.558920 0.109806
Si Si8 0.000000 0.440446 0.300352
O O1 0.500000 0.400960 0.338897
O O2 0.251874 0.332709 0.348644
O O3 0.295596 0.404347 0.411473
O O4 0.172291 0.428173 0.329189
O O5 0.669701 0.856768 0.687952
O O6 0.500000 0.935380 0.665150
O O7 0.500000 0.908970 0.753024
O O8 0.500000 0.582140 0.066152
O O9 0.684292 0.500000 0.055465
O O10 0.830200 0.584233 0.086933
O O11 0.735110 0.577702 0.000000
O O12 0.500000 0.726266 0.314986
O O13 0.197719 0.763272 0.320234
O O14 0.257091 0.690057 0.260781
O O15 0.000000 0.840166 0.297960
O O16 0.500000 0.936506 0.941279
O O17 0.240773 0.000000 0.938022
O O18 0.243564 0.925939 0.000000
O O19 0.000000 0.500000 0.096829
O O20 0.000000 0.500000 0.288913
#
# Coordination Sequence:
#
# PCOD8289858 Si02
#       8
#    16   8  16  16  16  16   8   8
#     4  11  22  35  55  81 104 135 180 224 271 326
#     4  12  23  37  50  73 111 150 182 217 260 314
#     4   8  14  27  49  76 101 127 169 225 270 297
#     4   9  18  33  54  80 102 124 163 223 279 318
#     4  10  20  33  54  77 101 130 169 221 275 314
#     4   9  18  33  52  75 105 140 176 217 268 324
#     4  10  20  32  48  71 105 150 186 209 244 310
#     4  12  25  38  52  72 108 154 190 220 254 306
#
# _framework density 17.698836
#
# number of rings (size 3 to 8) (size 9 to 14) (size 15 to 20)
#    0.000    2.154    3.077    1.846    2.154    3.077 
#    0.000    0.769    0.000    2.769    0.000    2.154 
#    0.000    4.923    0.000    0.000    0.000    0.000 
#
# Total GULP energy -644586.189499 kJ/mol
# GULP energy per Si atom -12395.888260 kJ/mol
# Density = 1.765855 g / cm^3
# Si number density = 17.698836 Si / 1000 Ang^3
#
#
#
# Elastic Constant Matrix: (Units=GPa)
#
#
# Indices 1 2 3 4 5 6 
#
# 1 104.5859 30.8744 35.8160 0.0000 0.0000 0.0000
# 2 30.8744 70.9414 36.1751 0.0000 0.0000 0.0000
# 3 35.8160 36.1751 93.8166 0.0000 0.0000 0.0000
# 4 0.0000 0.0000 0.0000 23.6680 0.0000 0.0000
# 5 0.0000 0.0000 0.0000 0.0000 17.1291 0.0000
# 6 0.0000 0.0000 0.0000 0.0000 0.0000 20.0430
#
#
#
# Elastic Compliance Matrix: (Units=1/GPa)
#
#
# Indices 1 2 3 4 5 6 
#
# 1 0.011655 -0.003489 -0.003104 0.000000 0.000000 0.000000
# 2 -0.003489 0.018591 -0.005836 0.000000 0.000000 0.000000
# 3 -0.003104 -0.005836 0.014094 0.000000 0.000000 0.000000
# 4 0.000000 0.000000 0.000000 0.042251 0.000000 0.000000
# 5 0.000000 0.000000 0.000000 0.000000 0.058380 0.000000
# 6 0.000000 0.000000 0.000000 0.000000 0.000000 0.049893
#
#
# Mechanical properties :
#
#
# Convention : Reuss Voigt Hill
#
# Bulk Modulus (GPa) = 51.33289 52.78608 52.05949
# Shear Modulus (GPa) = 22.10268 23.26657 22.68463
#
# Velocity S-wave (km/s) = 3.53770 3.62965 3.58397
# Velocity P-wave (km/s) = 6.76414 6.88877 6.82674
#
# Compressibility (1/GPa) = 0.01948069
#
# Stress axis : x y z
#
# Youngs Moduli (GPa) = 85.80348 53.78966 70.94968
#
# Poissons Ratio (x) = 0.18770 0.22021
# Poissons Ratio (y) = 0.29941 0.41409
# Poissons Ratio (z) = 0.26632 0.31394
#
# Static dielectric constant tensor:
#      x y z
#    x 3.577150 0.000000 0.000000 
#    y 0.000000 3.031720 0.000000 
#    z 0.000000 0.000000 3.170760 
# 
# 
# High freq. dielectric constant tensor:
#      x y z
#    x 1.701160 0.000000 0.000000 
#    y 0.000000 1.649280 0.000000 
#    z 0.000000 0.000000 1.663080 
# 
# From -- ./inp_files/63729.got.cif
#   From: 2010.06.25/outbox.cif.g09.slc.cpg/sg71_32_cif.got.tgz:63729.got - 2010.06.28 04:59:45.
