data_PCOD8289198
_publ_section_title
;
Structure prediction by ZEFSAII (Michael W. Deem and Ramdas Pophale) SiO2 
 PCOD8289198
Probable space group: I M M M
;
_chemical_formula_sum "Si O2"
_cell_formula_units_Z 88
_cell_length_a 18.930641
_cell_length_b 9.337003
_cell_length_c 26.981819
_cell_angle_alpha 90.000000
_cell_angle_beta 90.000000
_cell_angle_gamma 90.000000
_cell_volume 4769.183608
_symmetry_space_group_name_H-M "I M M M"
_symmetry_group_IT_number 71
_symmetry_cell_setting 'orthorhombic'
loop_
_space_group_symop_operation_xyz
x,y,z
-x,-y,z
x,-y,-z
-x,y,-z
-x,-y,-z
x,y,-z
-x,y,z
x,-y,z
1/2+x,1/2+y,1/2+z
1/2-x,1/2-y,1/2+z
1/2+x,1/2-y,1/2-z
1/2-x,1/2+y,1/2-z
1/2-x,1/2-y,1/2-z
1/2+x,1/2+y,1/2-z
1/2-x,1/2+y,1/2+z
1/2+x,1/2-y,1/2+z
loop_
_atom_site_type_symbol
_atom_site_label
_atom_site_fract_x
_atom_site_fract_y
_atom_site_fract_z
Si Si1 0.421456 0.169766 0.500000
Si Si2 0.167746 0.330361 0.906265
Si Si3 0.798763 0.666784 0.442528
Si Si4 0.583869 0.341916 0.217336
Si Si5 0.081900 0.167727 0.606864
Si Si6 0.919343 0.332279 0.810251
O O1 0.500000 0.236570 0.500000
O O2 0.381050 0.223042 0.451313
O O3 0.426653 0.000000 0.500000
O O4 0.181875 0.500000 0.908740
O O5 0.241488 0.247652 0.908780
O O6 0.128703 0.284292 0.856043
O O7 0.780512 0.690686 0.500000
O O8 0.800101 0.500000 0.428662
O O9 0.874724 0.736201 0.431547
O O10 0.500000 0.347186 0.217936
O O11 0.614608 0.500000 0.227851
O O12 0.607101 0.290472 0.162621
O O13 0.612133 0.237699 0.260278
O O14 0.000000 0.204581 0.598718
O O15 0.095766 0.000000 0.597117
O O16 0.916003 0.500000 0.802136
O O17 0.000000 0.283105 0.820633
#
# Coordination Sequence:
#
# PCOD8289198 Si02
#       6
#     8  16  16  16  16  16
#     4   9  16  28  51  79 102 131 178 229 265 296
#     4  10  19  33  53  76 104 142 183 219 259 309
#     4  11  24  39  54  75 107 142 174 215 268 321
#     4   8  15  30  52  78 107 137 168 207 259 314
#     4   9  19  37  61  85 105 130 172 219 259 313
#     4   9  17  29  49  80 112 139 174 220 263 306
#
# _framework density 18.451796999999999
#
# number of rings (size 3 to 8) (size 9 to 14) (size 15 to 20)
#    0.000    2.636    0.909    2.182    0.000    5.455 
#    0.000    4.545    0.000    2.182    0.000    0.000 
#    0.000    0.000    0.000    0.000    0.000    0.000 
#
# Total GULP energy -545558.248948 kJ/mol
# GULP energy per Si atom -12399.051112 kJ/mol
# Density = 1.840980 g / cm^3
# Si number density = 18.451797 Si / 1000 Ang^3
#
#
#
# Elastic Constant Matrix: (Units=GPa)
#
#
# Indices 1 2 3 4 5 6 
#
# 1 84.6008 41.3467 28.3028 0.0000 0.0000 0.0000
# 2 41.3467 60.0058 34.8467 0.0000 0.0000 0.0000
# 3 28.3028 34.8467 62.8623 0.0000 0.0000 0.0000
# 4 0.0000 0.0000 0.0000 32.7522 0.0000 0.0000
# 5 0.0000 0.0000 0.0000 0.0000 18.9342 0.0000
# 6 0.0000 0.0000 0.0000 0.0000 0.0000 20.6525
#
#
#
# Elastic Compliance Matrix: (Units=1/GPa)
#
#
# Indices 1 2 3 4 5 6 
#
# 1 0.017960 -0.011325 -0.001808 0.000000 0.000000 0.000000
# 2 -0.011325 0.031718 -0.012483 0.000000 0.000000 0.000000
# 3 -0.001808 -0.012483 0.023642 0.000000 0.000000 0.000000
# 4 0.000000 0.000000 0.000000 0.030532 0.000000 0.000000
# 5 0.000000 0.000000 0.000000 0.000000 0.052815 0.000000
# 6 0.000000 0.000000 0.000000 0.000000 0.000000 0.048420
#
#
# Mechanical properties :
#
#
# Convention : Reuss Voigt Hill
#
# Bulk Modulus (GPa) = 45.27704 46.27347 45.77525
# Shear Modulus (GPa) = 18.96218 21.33262 20.14740
#
# Velocity S-wave (km/s) = 3.20919 3.40388 3.30797
# Velocity P-wave (km/s) = 6.19057 6.37032 6.28109
#
# Compressibility (1/GPa) = 0.02208625
#
# Stress axis : x y z
#
# Youngs Moduli (GPa) = 55.67896 31.52791 42.29783
#
# Poissons Ratio (x) = 0.35706 0.07649
# Poissons Ratio (y) = 0.63057 0.52802
# Poissons Ratio (z) = 0.10069 0.39357
#
# Static dielectric constant tensor:
#      x y z
#    x 3.230480 0.000000 0.000000 
#    y 0.000000 3.268550 0.000000 
#    z 0.000000 0.000000 3.553050 
# 
# 
# High freq. dielectric constant tensor:
#      x y z
#    x 1.700010 0.000000 0.000000 
#    y 0.000000 1.697350 0.000000 
#    z 0.000000 0.000000 1.722180 
# 
# From -- ./inp_files/10381.got.cif
#   From: 2010.06.25/outbox.cif.g09.slc.cpg/sg71_6_cif.got.tgz:10381.got - 2010.06.28 04:59:45.
