data_PCOD8289712
_publ_section_title
;
Structure prediction by ZEFSAII (Michael W. Deem and Ramdas Pophale) SiO2 
 PCOD8289712
Probable space group: I M M M
;
_chemical_formula_sum "Si O2"
_cell_formula_units_Z 88
_cell_length_a 32.661153
_cell_length_b 9.022595
_cell_length_c 19.951939
_cell_angle_alpha 90.000000
_cell_angle_beta 90.000000
_cell_angle_gamma 90.000000
_cell_volume 5879.604098
_symmetry_space_group_name_H-M "I M M M"
_symmetry_group_IT_number 71
_symmetry_cell_setting 'orthorhombic'
loop_
_space_group_symop_operation_xyz
x,y,z
-x,-y,z
x,-y,-z
-x,y,-z
-x,-y,-z
x,y,-z
-x,y,z
x,-y,z
1/2+x,1/2+y,1/2+z
1/2-x,1/2-y,1/2+z
1/2+x,1/2-y,1/2-z
1/2-x,1/2+y,1/2-z
1/2-x,1/2-y,1/2-z
1/2+x,1/2+y,1/2-z
1/2-x,1/2+y,1/2+z
1/2+x,1/2-y,1/2+z
loop_
_atom_site_type_symbol
_atom_site_label
_atom_site_fract_x
_atom_site_fract_y
_atom_site_fract_z
Si Si1 0.621204 0.675883 0.684537
Si Si2 0.451741 0.665556 0.500000
Si Si3 0.746118 0.665021 0.647191
Si Si4 0.309215 0.664261 0.778627
Si Si5 0.322397 0.171621 0.577827
Si Si6 0.952959 0.325319 0.864808
O O1 0.617312 0.500000 0.676476
O O2 0.646209 0.717430 0.752243
O O3 0.643833 0.738716 0.619059
O O4 0.576360 0.751250 0.691107
O O5 0.432216 0.500000 0.500000
O O6 0.500000 0.651184 0.500000
O O7 0.438005 0.756818 0.435082
O O8 0.751382 0.500000 0.617814
O O9 0.720110 0.661851 0.714671
O O10 0.791349 0.728890 0.663896
O O11 0.723166 0.766662 0.592843
O O12 0.312227 0.500000 0.809577
O O13 0.332404 0.193422 0.500000
O O14 0.323823 0.000000 0.599082
O O15 0.946240 0.500000 0.867918
O O16 0.000000 0.285578 0.847992
#
# Coordination Sequence:
#
# PCOD8289712 Si02
#       6
#    16   8  16  16  16  16
#     4  10  20  31  44  60  77 100 130 167 203 236
#     4   9  17  29  43  55  67  89 123 159 193 233
#     4   9  16  26  42  60  77  99 125 156 192 230
#     4   8  15  27  41  58  77  97 124 156 193 233
#     4  10  20  31  42  57  79 106 132 161 199 238
#     4  10  20  32  44  57  75  99 127 161 202 245
#
# _framework density 14.966995000000001
#
# number of rings (size 3 to 8) (size 9 to 14) (size 15 to 20)
#    0.000    2.636    0.000    3.545    1.273    8.727 
#    0.000    0.000    0.000    0.000    0.000    0.000 
#    0.000    0.000    0.000    0.000    0.000    0.909 
#
# Total GULP energy -545411.593384 kJ/mol
# GULP energy per Si atom -12395.718031 kJ/mol
# Density = 1.493293 g / cm^3
# Si number density = 14.966995 Si / 1000 Ang^3
#
#
#
# Elastic Constant Matrix: (Units=GPa)
#
#
# Indices 1 2 3 4 5 6 
#
# 1 93.1977 45.6675 21.0656 0.0000 0.0000 0.0000
# 2 45.6675 93.7569 15.7994 0.0000 0.0000 0.0000
# 3 21.0656 15.7994 12.9326 0.0000 0.0000 0.0000
# 4 0.0000 0.0000 0.0000 17.9496 0.0000 0.0000
# 5 0.0000 0.0000 0.0000 0.0000 21.8519 0.0000
# 6 0.0000 0.0000 0.0000 0.0000 0.0000 26.9170
#
#
#
# Elastic Compliance Matrix: (Units=1/GPa)
#
#
# Indices 1 2 3 4 5 6 
#
# 1 0.018675 -0.004999 -0.024311 0.000000 0.000000 0.000000
# 2 -0.004999 0.014769 -0.009900 0.000000 0.000000 0.000000
# 3 -0.024311 -0.009900 0.129018 0.000000 0.000000 0.000000
# 4 0.000000 0.000000 0.000000 0.055712 0.000000 0.000000
# 5 0.000000 0.000000 0.000000 0.000000 0.045763 0.000000
# 6 0.000000 0.000000 0.000000 0.000000 0.000000 0.037151
#
#
# Mechanical properties :
#
#
# Convention : Reuss Voigt Hill
#
# Bulk Modulus (GPa) = 11.89894 40.55024 26.22459
# Shear Modulus (GPa) = 12.26930 21.16735 16.71832
#
# Velocity S-wave (km/s) = 2.86625 3.76476 3.34580
# Velocity P-wave (km/s) = 4.34985 6.78600 5.69960
#
# Compressibility (1/GPa) = 0.08404112
#
# Stress axis : x y z
#
# Youngs Moduli (GPa) = 53.54838 67.70828 7.75087
#
# Poissons Ratio (x) = 0.33850 0.18843
# Poissons Ratio (y) = 0.26771 0.07673
# Poissons Ratio (z) = 1.30182 0.67029
#
# Static dielectric constant tensor:
#      x y z
#    x 3.023760 0.000000 0.000000 
#    y 0.000000 3.114900 0.000000 
#    z 0.000000 0.000000 2.555120 
# 
# 
# High freq. dielectric constant tensor:
#      x y z
#    x 1.562620 0.000000 0.000000 
#    y 0.000000 1.593700 0.000000 
#    z 0.000000 0.000000 1.509380 
# 
# From -- ./inp_files/13533.got.cif
#   From: 2010.06.25/outbox.cif.g09.slc.cpg/sg71_7_cif.got.tgz:13533.got - 2010.06.28 04:59:45.
