data_PCOD8289138
_publ_section_title
;
Structure prediction by ZEFSAII (Michael W. Deem and Ramdas Pophale) SiO2 
 PCOD8289138
Probable space group: I M M M
;
_chemical_formula_sum "Si O2"
_cell_formula_units_Z 88
_cell_length_a 8.958591
_cell_length_b 18.327504
_cell_length_c 29.070181
_cell_angle_alpha 90.000000
_cell_angle_beta 90.000000
_cell_angle_gamma 90.000000
_cell_volume 4772.992680
_symmetry_space_group_name_H-M "I M M M"
_symmetry_group_IT_number 71
_symmetry_cell_setting 'orthorhombic'
loop_
_space_group_symop_operation_xyz
x,y,z
-x,-y,z
x,-y,-z
-x,y,-z
-x,-y,-z
x,y,-z
-x,y,z
x,-y,z
1/2+x,1/2+y,1/2+z
1/2-x,1/2-y,1/2+z
1/2+x,1/2-y,1/2-z
1/2-x,1/2+y,1/2-z
1/2-x,1/2-y,1/2-z
1/2+x,1/2+y,1/2-z
1/2-x,1/2+y,1/2+z
1/2+x,1/2-y,1/2+z
loop_
_atom_site_type_symbol
_atom_site_label
_atom_site_fract_x
_atom_site_fract_y
_atom_site_fract_z
Si Si1 0.676401 0.814169 0.278412
Si Si2 0.322389 0.918937 0.551622
Si Si3 0.321727 0.500000 0.552159
Si Si4 0.322723 0.367592 0.386075
Si Si5 0.668598 0.414221 0.286895
Si Si6 0.822611 0.294774 0.117949
O O1 0.500000 0.806948 0.276415
O O2 0.750000 0.750000 0.250000
O O3 0.728846 0.889826 0.255683
O O4 0.734943 0.810384 0.330649
O O5 0.264515 0.903847 0.500000
O O6 0.500000 0.915103 0.552550
O O7 0.253350 0.856955 0.584820
O O8 0.270788 0.000000 0.567744
O O9 0.500000 0.500000 0.552389
O O10 0.260606 0.500000 0.500000
O O11 0.259699 0.572658 0.577854
O O12 0.500000 0.374272 0.385515
O O13 0.263999 0.383505 0.334624
O O14 0.270791 0.285599 0.399523
O O15 0.500000 0.384721 0.279656
O O16 0.670495 0.500000 0.289532
O O17 0.000000 0.298727 0.116860
#
# Coordination Sequence:
#
# PCOD8289138 Si02
#       6
#    16  16   8  16  16  16
#     4  11  21  33  50  73 102 134 170 211 251 295
#     4   8  14  25  40  59  88 125 157 187 235 298
#     4   9  16  24  38  64  95 125 161 207 250 295
#     4   9  15  26  42  61  89 127 163 195 244 300
#     4  10  19  33  52  70  96 137 174 203 247 305
#     4   9  17  27  43  65  91 124 160 199 243 293
#
# _framework density 18.437071
#
# number of rings (size 3 to 8) (size 9 to 14) (size 15 to 20)
#    0.000    2.636    2.727    1.091    0.000    1.818 
#    0.000    5.455    0.000    0.000    0.000    0.000 
#    0.000    5.818    0.000   10.000    0.000    8.727 
#
# Total GULP energy -545379.189672 kJ/mol
# GULP energy per Si atom -12394.981583 kJ/mol
# Density = 1.839511 g / cm^3
# Si number density = 18.437071 Si / 1000 Ang^3
#
#
#
# Elastic Constant Matrix: (Units=GPa)
#
#
# Indices 1 2 3 4 5 6 
#
# 1 19.7852 12.7068 15.2569 0.0000 0.0000 0.0000
# 2 12.7068 158.5594 97.0342 0.0000 0.0000 0.0000
# 3 15.2569 97.0342 146.2432 0.0000 0.0000 0.0000
# 4 0.0000 0.0000 0.0000 41.3077 0.0000 0.0000
# 5 0.0000 0.0000 0.0000 0.0000 16.0505 0.0000
# 6 0.0000 0.0000 0.0000 0.0000 0.0000 16.0259
#
#
#
# Elastic Compliance Matrix: (Units=1/GPa)
#
#
# Indices 1 2 3 4 5 6 
#
# 1 0.055180 -0.001514 -0.004752 0.000000 0.000000 0.000000
# 2 -0.001514 0.010660 -0.006915 0.000000 0.000000 0.000000
# 3 -0.004752 -0.006915 0.011922 0.000000 0.000000 0.000000
# 4 0.000000 0.000000 0.000000 0.024209 0.000000 0.000000
# 5 0.000000 0.000000 0.000000 0.000000 0.062303 0.000000
# 6 0.000000 0.000000 0.000000 0.000000 0.000000 0.062399
#
#
# Mechanical properties :
#
#
# Convention : Reuss Voigt Hill
#
# Bulk Modulus (GPa) = 19.45547 63.84262 41.64905
# Shear Modulus (GPa) = 18.50700 27.98280 23.24490
#
# Velocity S-wave (km/s) = 3.17171 3.90005 3.55458
# Velocity P-wave (km/s) = 4.89778 7.41505 6.28376
#
# Compressibility (1/GPa) = 0.05139942
#
# Stress axis : x y z
#
# Youngs Moduli (GPa) = 18.12258 93.80909 83.87883
#
# Poissons Ratio (x) = 0.14201 0.39861
# Poissons Ratio (y) = 0.02743 0.58003
# Poissons Ratio (z) = 0.08612 0.64870
#
# Static dielectric constant tensor:
#      x y z
#    x 3.048090 0.000000 0.000000 
#    y 0.000000 3.766380 0.000000 
#    z 0.000000 0.000000 3.803020 
# 
# 
# High freq. dielectric constant tensor:
#      x y z
#    x 1.639780 0.000000 0.000000 
#    y 0.000000 1.732960 0.000000 
#    z 0.000000 0.000000 1.717050 
# 
# From -- ./inp_files/10442.got.cif
#   From: 2010.06.25/outbox.cif.g09.slc.cpg/sg71_6_cif.got.tgz:10442.got - 2010.06.28 04:59:45.
