data_PCOD8289057
_publ_section_title
;
Structure prediction by ZEFSAII (Michael W. Deem and Ramdas Pophale) SiO2 
 PCOD8289057
Probable space group: I M M M
;
_chemical_formula_sum "Si O2"
_cell_formula_units_Z 80
_cell_length_a 19.152744
_cell_length_b 21.711149
_cell_length_c 11.498604
_cell_angle_alpha 90.000000
_cell_angle_beta 90.000000
_cell_angle_gamma 90.000000
_cell_volume 4781.442410
_symmetry_space_group_name_H-M "I M M M"
_symmetry_group_IT_number 71
_symmetry_cell_setting 'orthorhombic'
loop_
_space_group_symop_operation_xyz
x,y,z
-x,-y,z
x,-y,-z
-x,y,-z
-x,-y,-z
x,y,-z
-x,y,z
x,-y,z
1/2+x,1/2+y,1/2+z
1/2-x,1/2-y,1/2+z
1/2+x,1/2-y,1/2-z
1/2-x,1/2+y,1/2-z
1/2-x,1/2-y,1/2-z
1/2+x,1/2+y,1/2-z
1/2-x,1/2+y,1/2+z
1/2+x,1/2-y,1/2+z
loop_
_atom_site_type_symbol
_atom_site_label
_atom_site_fract_x
_atom_site_fract_y
_atom_site_fract_z
Si Si1 0.803648 0.070507 0.000000
Si Si2 0.079839 0.653879 0.366334
Si Si3 0.858309 0.240670 0.790046
Si Si4 0.239857 0.170931 0.367436
Si Si5 0.798796 0.428467 0.289258
Si Si6 0.920825 0.828672 0.000000
O O1 0.757569 0.085850 0.111895
O O2 0.871851 0.111963 0.000000
O O3 0.828310 0.000000 0.000000
O O4 0.093678 0.672042 0.500000
O O5 0.098404 0.712347 0.288417
O O6 0.125969 0.595028 0.331671
O O7 0.000000 0.634725 0.345185
O O8 0.828517 0.186539 0.708059
O O9 0.794677 0.273420 0.856631
O O10 0.909281 0.212151 0.885442
O O11 0.216710 0.162785 0.500000
O O12 0.274569 0.107215 0.325829
O O13 0.805032 0.500000 0.259389
O O14 0.000000 0.852394 0.000000
#
# Coordination Sequence:
#
# PCOD8289057 Si02
#       6
#     8  16  16  16  16   8
#     4  10  20  37  55  78 104 134 174 221 271 307
#     4  10  20  33  51  77 109 144 178 215 265 320
#     4  10  20  33  50  79 110 135 171 216 268 311
#     4  10  19  32  55  78 103 137 178 217 261 312
#     4  10  20  34  54  76 105 138 177 226 265 307
#     4  12  22  35  56  81 108 140 174 211 267 327
#
# _framework density 16.731352999999999
#
# number of rings (size 3 to 8) (size 9 to 14) (size 15 to 20)
#    0.000    1.800    4.000    1.200    0.000    1.000 
#    0.000    1.000    0.000    0.000    0.000    2.800 
#    0.000    3.200    0.000    0.000    0.000    0.000 
#
# Total GULP energy -496127.461573 kJ/mol
# GULP energy per Si atom -12403.186539 kJ/mol
# Density = 1.669327 g / cm^3
# Si number density = 16.731353 Si / 1000 Ang^3
#
#
#
# Elastic Constant Matrix: (Units=GPa)
#
#
# Indices 1 2 3 4 5 6 
#
# 1 105.6122 54.2629 42.8185 0.0000 0.0000 0.0000
# 2 54.2629 97.9515 47.7062 0.0000 0.0000 0.0000
# 3 42.8185 47.7062 113.8837 0.0000 0.0000 0.0000
# 4 0.0000 0.0000 0.0000 16.6319 0.0000 0.0000
# 5 0.0000 0.0000 0.0000 0.0000 29.2336 0.0000
# 6 0.0000 0.0000 0.0000 0.0000 0.0000 17.9661
#
#
#
# Elastic Compliance Matrix: (Units=1/GPa)
#
#
# Indices 1 2 3 4 5 6 
#
# 1 0.013776 -0.006419 -0.002491 0.000000 0.000000 0.000000
# 2 -0.006419 0.015816 -0.004212 0.000000 0.000000 0.000000
# 3 -0.002491 -0.004212 0.011482 0.000000 0.000000 0.000000
# 4 0.000000 0.000000 0.000000 0.060126 0.000000 0.000000
# 5 0.000000 0.000000 0.000000 0.000000 0.034207 0.000000
# 6 0.000000 0.000000 0.000000 0.000000 0.000000 0.055661
#
#
# Mechanical properties :
#
#
# Convention : Reuss Voigt Hill
#
# Bulk Modulus (GPa) = 67.42551 67.44694 67.43623
# Shear Modulus (GPa) = 22.49666 24.27696 23.38681
#
# Velocity S-wave (km/s) = 3.67083 3.81331 3.74275
# Velocity P-wave (km/s) = 7.63892 7.73225 7.68573
#
# Compressibility (1/GPa) = 0.01483118
#
# Stress axis : x y z
#
# Youngs Moduli (GPa) = 72.58822 63.22535 87.09319
#
# Poissons Ratio (x) = 0.40582 0.21694
# Poissons Ratio (y) = 0.46592 0.36686
# Poissons Ratio (z) = 0.18081 0.26632
#
# Static dielectric constant tensor:
#      x y z
#    x 3.065450 0.000000 0.000000 
#    y 0.000000 3.031410 0.000000 
#    z 0.000000 0.000000 3.165040 
# 
# 
# High freq. dielectric constant tensor:
#      x y z
#    x 1.636910 0.000000 0.000000 
#    y 0.000000 1.638260 0.000000 
#    z 0.000000 0.000000 1.651340 
# 
# From -- ./inp_files/10308.got.cif
#   From: 2010.06.25/outbox.cif.g09.slc.cpg/sg71_6_cif.got.tgz:10308.got - 2010.06.28 04:59:45.
