data_PCOD8289915
_publ_section_title
;
Structure prediction by ZEFSAII (Michael W. Deem and Ramdas Pophale) SiO2 
 PCOD8289915
Probable space group: I M M M
;
_chemical_formula_sum "Si O2"
_cell_formula_units_Z 104
_cell_length_a 21.958523
_cell_length_b 26.737589
_cell_length_c 9.660281
_cell_angle_alpha 90.000000
_cell_angle_beta 90.000000
_cell_angle_gamma 90.000000
_cell_volume 5671.724503
_symmetry_space_group_name_H-M "I M M M"
_symmetry_group_IT_number 71
_symmetry_cell_setting 'orthorhombic'
loop_
_space_group_symop_operation_xyz
x,y,z
-x,-y,z
x,-y,-z
-x,y,-z
-x,-y,-z
x,y,-z
-x,y,z
x,-y,z
1/2+x,1/2+y,1/2+z
1/2-x,1/2-y,1/2+z
1/2+x,1/2-y,1/2-z
1/2-x,1/2+y,1/2-z
1/2-x,1/2-y,1/2-z
1/2+x,1/2+y,1/2-z
1/2-x,1/2+y,1/2+z
1/2+x,1/2-y,1/2+z
loop_
_atom_site_type_symbol
_atom_site_label
_atom_site_fract_x
_atom_site_fract_y
_atom_site_fract_z
Si Si1 0.568646 0.225399 0.335841
Si Si2 0.724243 0.612229 0.657559
Si Si3 0.000000 0.940172 0.653417
Si Si4 0.804898 0.773910 0.161999
Si Si5 0.434070 0.886659 0.336274
Si Si6 0.396351 0.558906 0.652088
Si Si7 0.317907 0.943287 0.336428
O O1 0.567756 0.227531 0.500000
O O2 0.500000 0.243058 0.284245
O O3 0.627276 0.257693 0.283798
O O4 0.580989 0.169064 0.280633
O O5 0.747593 0.606561 0.500000
O O6 0.698792 0.667084 0.685702
O O7 0.671578 0.572920 0.692283
O O8 0.776997 0.597997 0.762623
O O9 0.058510 0.918745 0.733543
O O10 0.000000 0.917435 0.500000
O O11 0.000000 0.000000 0.648201
O O12 0.750000 0.750000 0.250000
O O13 0.796323 0.759564 0.000000
O O14 0.435370 0.882940 0.500000
O O15 0.500000 0.903946 0.279722
O O16 0.385950 0.928446 0.290041
O O17 0.412884 0.580979 0.500000
O O18 0.403102 0.500000 0.648715
O O19 0.308030 0.938281 0.500000
O O20 0.304797 0.000000 0.286980
#
# Coordination Sequence:
#
# PCOD8289915 Si02
#       7
#    16  16   8  16  16  16  16
#     4   8  14  27  48  73 100 130 166 208 253 301
#     4  10  21  35  50  73 101 133 173 211 253 304
#     4   9  17  29  47  71  95 121 157 201 245 289
#     4  10  20  34  53  78 104 133 171 212 258 308
#     4   8  14  26  46  72 101 131 162 200 249 304
#     4   9  17  31  49  67  92 128 167 204 244 293
#     4  10  20  32  49  75 103 133 171 213 258 306
#
# _framework density 18.336575
#
# number of rings (size 3 to 8) (size 9 to 14) (size 15 to 20)
#    0.000    2.846    0.000    2.538    0.000    4.615 
#    1.385    3.077    0.000    0.923    0.000    5.385 
#    0.000    0.000    0.000    0.000    0.000    0.000 
#
# Total GULP energy -644289.339046 kJ/mol
# GULP energy per Si atom -12390.179597 kJ/mol
# Density = 1.829484 g / cm^3
# Si number density = 18.336575 Si / 1000 Ang^3
#
#
#
# Elastic Constant Matrix: (Units=GPa)
#
#
# Indices 1 2 3 4 5 6 
#
# 1 131.7774 40.5652 50.4912 0.0000 0.0000 0.0000
# 2 40.5652 57.3650 24.0292 0.0000 0.0000 0.0000
# 3 50.4912 24.0292 58.4593 0.0000 0.0000 0.0000
# 4 0.0000 0.0000 0.0000 19.5817 0.0000 0.0000
# 5 0.0000 0.0000 0.0000 0.0000 25.1518 0.0000
# 6 0.0000 0.0000 0.0000 0.0000 0.0000 28.8076
#
#
#
# Elastic Compliance Matrix: (Units=1/GPa)
#
#
# Indices 1 2 3 4 5 6 
#
# 1 0.012515 -0.005221 -0.008663 0.000000 0.000000 0.000000
# 2 -0.005221 0.023236 -0.005042 0.000000 0.000000 0.000000
# 3 -0.008663 -0.005042 0.026661 0.000000 0.000000 0.000000
# 4 0.000000 0.000000 0.000000 0.051068 0.000000 0.000000
# 5 0.000000 0.000000 0.000000 0.000000 0.039759 0.000000
# 6 0.000000 0.000000 0.000000 0.000000 0.000000 0.034713
#
#
# Mechanical properties :
#
#
# Convention : Reuss Voigt Hill
#
# Bulk Modulus (GPa) = 40.71642 53.08590 46.90116
# Shear Modulus (GPa) = 21.36843 23.54262 22.45553
#
# Velocity S-wave (km/s) = 3.41742 3.58706 3.50327
# Velocity P-wave (km/s) = 6.15019 6.79483 6.48053
#
# Compressibility (1/GPa) = 0.02456012
#
# Stress axis : x y z
#
# Youngs Moduli (GPa) = 79.90324 43.03644 37.50854
#
# Poissons Ratio (x) = 0.22470 0.32494
# Poissons Ratio (y) = 0.41718 0.18910
# Poissons Ratio (z) = 0.69222 0.21697
#
# Static dielectric constant tensor:
#      x y z
#    x 3.888160 0.000000 0.000000 
#    y 0.000000 3.361040 0.000000 
#    z 0.000000 0.000000 3.182030 
# 
# 
# High freq. dielectric constant tensor:
#      x y z
#    x 1.725170 0.000000 0.000000 
#    y 0.000000 1.698450 0.000000 
#    z 0.000000 0.000000 1.670950 
# 
# From -- ./inp_files/11496.got.cif
#   From: 2010.06.25/outbox.cif.g09.slc.cpg/sg71_6_cif.got.tgz:11496.got - 2010.06.28 04:59:45.
