data_PCOD8289254
_publ_section_title
;
Structure prediction by ZEFSAII (Michael W. Deem and Ramdas Pophale) SiO2 
 PCOD8289254
Probable space group: I M M M
;
_chemical_formula_sum "Si O2"
_cell_formula_units_Z 88
_cell_length_a 10.336579
_cell_length_b 22.845090
_cell_length_c 18.657801
_cell_angle_alpha 90.000000
_cell_angle_beta 90.000000
_cell_angle_gamma 90.000000
_cell_volume 4405.854575
_symmetry_space_group_name_H-M "I M M M"
_symmetry_group_IT_number 71
_symmetry_cell_setting 'orthorhombic'
loop_
_space_group_symop_operation_xyz
x,y,z
-x,-y,z
x,-y,-z
-x,y,-z
-x,-y,-z
x,y,-z
-x,y,z
x,-y,z
1/2+x,1/2+y,1/2+z
1/2-x,1/2-y,1/2+z
1/2+x,1/2-y,1/2-z
1/2-x,1/2+y,1/2-z
1/2-x,1/2-y,1/2-z
1/2+x,1/2+y,1/2-z
1/2-x,1/2+y,1/2+z
1/2+x,1/2-y,1/2+z
loop_
_atom_site_type_symbol
_atom_site_label
_atom_site_fract_x
_atom_site_fract_y
_atom_site_fract_z
Si Si1 0.353768 0.728231 0.916158
Si Si2 0.857532 0.566782 0.729087
Si Si3 0.240895 0.564916 0.420625
Si Si4 0.652754 0.500000 0.079040
Si Si5 0.361370 0.684530 0.417160
Si Si6 0.349639 0.389431 0.829564
O O1 0.500000 0.750448 0.902945
O O2 0.257777 0.778151 0.884795
O O3 0.325772 0.669891 0.872100
O O4 0.332395 0.714469 0.000000
O O5 0.827085 0.500000 0.751797
O O6 0.863644 0.571541 0.642505
O O7 0.744488 0.608638 0.760351
O O8 0.000000 0.585532 0.757315
O O9 0.176463 0.573705 0.500000
O O10 0.305703 0.500000 0.416527
O O11 0.347383 0.614821 0.407483
O O12 0.500000 0.500000 0.071799
O O13 0.697699 0.441953 0.119817
O O14 0.716272 0.500000 0.000000
O O15 0.365902 0.700946 0.500000
O O16 0.500000 0.701982 0.381627
O O17 0.500000 0.396079 0.805868
#
# Coordination Sequence:
#
# PCOD8289254 Si02
#       6
#    16  16  16   8  16  16
#     4   9  18  33  54  80 110 146 188 229 266 311
#     4  10  21  36  54  79 113 147 176 218 279 336
#     4   9  19  36  58  83 107 134 176 227 274 326
#     4   9  16  28  51  81 108 137 182 234 269 301
#     4   9  18  33  54  82 113 142 174 219 278 332
#     4  10  19  33  54  80 109 146 188 226 268 318
#
# _framework density 19.973423
#
# number of rings (size 3 to 8) (size 9 to 14) (size 15 to 20)
#    0.000    2.636    0.909    0.545    0.000    5.091 
#    0.000    8.182    0.000    2.182    0.000    0.000 
#    0.000    0.000    0.000    0.000    0.000    0.000 
#
# Total GULP energy -545152.234993 kJ/mol
# GULP energy per Si atom -12389.823523 kJ/mol
# Density = 1.992796 g / cm^3
# Si number density = 19.973423 Si / 1000 Ang^3
#
#
#
# Elastic Constant Matrix: (Units=GPa)
#
#
# Indices 1 2 3 4 5 6 
#
# 1 141.0280 74.7938 46.9865 0.0000 0.0000 0.0000
# 2 74.7938 128.2797 35.2672 0.0000 0.0000 0.0000
# 3 46.9865 35.2672 83.3801 -0.0001 0.0000 0.0000
# 4 0.0000 0.0000 -0.0001 14.7348 0.0000 0.0000
# 5 0.0000 0.0000 0.0000 0.0000 16.6737 0.0000
# 6 0.0000 0.0000 0.0000 0.0000 0.0000 18.4553
#
#
#
# Elastic Compliance Matrix: (Units=1/GPa)
#
#
# Indices 1 2 3 4 5 6 
#
# 1 0.011371 -0.005509 -0.004078 0.000000 0.000000 0.000000
# 2 -0.005509 0.011490 -0.001756 0.000000 0.000000 0.000000
# 3 -0.004078 -0.001756 0.015034 0.000000 0.000000 0.000000
# 4 0.000000 0.000000 0.000000 0.067867 0.000000 0.000000
# 5 0.000000 0.000000 0.000000 0.000000 0.059975 0.000000
# 6 0.000000 0.000000 0.000000 0.000000 0.000000 0.054185
#
#
# Mechanical properties :
#
#
# Convention : Reuss Voigt Hill
#
# Bulk Modulus (GPa) = 65.74423 74.08697 69.91560
# Shear Modulus (GPa) = 20.18770 23.01544 21.60157
#
# Velocity S-wave (km/s) = 3.18264 3.39824 3.29221
# Velocity P-wave (km/s) = 6.81857 7.25057 7.03788
#
# Compressibility (1/GPa) = 0.01521046
#
# Stress axis : x y z
#
# Youngs Moduli (GPa) = 87.94344 87.03187 66.51717
#
# Poissons Ratio (x) = 0.47944 0.27124
# Poissons Ratio (y) = 0.48446 0.11678
# Poissons Ratio (z) = 0.35861 0.15279
#
# Static dielectric constant tensor:
#      x y z
#    x 3.553370 0.000000 0.000000 
#    y 0.000000 3.620820 0.000000 
#    z 0.000000 0.000000 3.554080 
# 
# 
# High freq. dielectric constant tensor:
#      x y z
#    x 1.757470 0.000000 0.000000 
#    y 0.000000 1.776680 0.000000 
#    z 0.000000 0.000000 1.763020 
# 
# From -- ./inp_files/43340.got.cif
#   From: 2010.06.25/outbox.cif.g09.slc.cpg/sg71_22_cif.got.tgz:43340.got - 2010.06.28 04:59:45.
