data_PCOD8289989
_publ_section_title
;
Structure prediction by ZEFSAII (Michael W. Deem and Ramdas Pophale) SiO2 
 PCOD8289989
Probable space group: I M M M
;
_chemical_formula_sum "Si O2"
_cell_formula_units_Z 88
_cell_length_a 27.723522
_cell_length_b 9.488195
_cell_length_c 18.776399
_cell_angle_alpha 90.000000
_cell_angle_beta 90.000000
_cell_angle_gamma 90.000000
_cell_volume 4939.060084
_symmetry_space_group_name_H-M "I M M M"
_symmetry_group_IT_number 71
_symmetry_cell_setting 'orthorhombic'
loop_
_space_group_symop_operation_xyz
x,y,z
-x,-y,z
x,-y,-z
-x,y,-z
-x,-y,-z
x,y,-z
-x,y,z
x,-y,z
1/2+x,1/2+y,1/2+z
1/2-x,1/2-y,1/2+z
1/2+x,1/2-y,1/2-z
1/2-x,1/2+y,1/2-z
1/2-x,1/2-y,1/2-z
1/2+x,1/2+y,1/2-z
1/2-x,1/2+y,1/2+z
1/2+x,1/2-y,1/2+z
loop_
_atom_site_type_symbol
_atom_site_label
_atom_site_fract_x
_atom_site_fract_y
_atom_site_fract_z
Si Si1 0.342658 0.330986 0.658963
Si Si2 0.181534 0.166668 0.316054
Si Si3 0.234084 0.664633 0.081694
Si Si4 0.000000 0.347211 0.581893
Si Si5 0.076826 0.160377 0.649935
Si Si6 0.448054 0.339018 0.687375
O O1 0.340461 0.500000 0.650830
O O2 0.317823 0.282205 0.733742
O O3 0.314382 0.253613 0.595757
O O4 0.398520 0.275491 0.654429
O O5 0.225171 0.225306 0.364358
O O6 0.131706 0.215462 0.351871
O O7 0.182902 0.000000 0.315717
O O8 0.223962 0.500000 0.095905
O O9 0.250282 0.689008 0.000000
O O10 0.047889 0.261233 0.598659
O O11 0.000000 0.500000 0.621532
O O12 0.000000 0.377606 0.500000
O O13 0.054751 0.171484 0.728087
O O14 0.073066 0.000000 0.622194
O O15 0.500000 0.268310 0.663570
O O16 0.449788 0.500000 0.663168
#
# Coordination Sequence:
#
# PCOD8289989 Si02
#       6
#    16  16  16   8  16  16
#     4   9  17  30  51  76  98 123 158 201 243 288
#     4   8  16  31  52  76  96 119 159 208 249 281
#     4  10  20  33  48  68 100 136 163 195 243 293
#     4  11  23  33  39  57  97 137 160 189 238 285
#     4   9  16  30  52  71  86 113 160 205 235 277
#     4   8  13  25  49  76  97 114 142 194 250 284
#
# _framework density 17.817155
#
# number of rings (size 3 to 8) (size 9 to 14) (size 15 to 20)
#    0.000    3.000    0.909    3.000    0.000    1.818 
#    0.000    6.364    0.000    0.545    0.000    3.818 
#    0.000    0.000    0.000    0.000    0.000    0.000 
#
# Total GULP energy -545096.119965 kJ/mol
# GULP energy per Si atom -12388.548181 kJ/mol
# Density = 1.777660 g / cm^3
# Si number density = 17.817155 Si / 1000 Ang^3
#
#
#
# Elastic Constant Matrix: (Units=GPa)
#
#
# Indices 1 2 3 4 5 6 
#
# 1 135.1321 27.3775 35.5152 0.0000 0.0000 0.0000
# 2 27.3775 47.2625 18.7004 0.0000 0.0000 0.0000
# 3 35.5152 18.7004 45.5655 0.0000 0.0000 0.0000
# 4 0.0000 0.0000 0.0000 20.4128 0.0000 0.0000
# 5 0.0000 0.0000 0.0000 0.0000 -16.8760 0.0000
# 6 0.0000 0.0000 0.0000 0.0000 0.0000 16.0456
#
#
#
# Elastic Compliance Matrix: (Units=1/GPa)
#
#
# Indices 1 2 3 4 5 6 
#
# 1 0.009680 -0.003130 -0.006260 0.000000 0.000000 0.000000
# 2 -0.003130 0.026273 -0.008343 0.000000 0.000000 0.000000
# 3 -0.006260 -0.008343 0.030250 0.000000 0.000000 0.000000
# 4 0.000000 0.000000 0.000000 0.048989 0.000000 0.000000
# 5 0.000000 0.000000 0.000000 0.000000 -0.059256 0.000000
# 6 0.000000 0.000000 0.000000 0.000000 0.000000 0.062322
#
#
# Mechanical properties :
#
#
# Convention : Reuss Voigt Hill
#
# Bulk Modulus (GPa) = 32.53505 43.46071 37.99788
# Shear Modulus (GPa) = 30.49370 13.67427 22.08399
#
# Velocity S-wave (km/s) = 4.14149 2.77334 3.52444
# Velocity P-wave (km/s) = 6.41634 5.89074 6.15915
#
# Compressibility (1/GPa) = 0.03073608
#
# Stress axis : x y z
#
# Youngs Moduli (GPa) = 103.31057 38.06245 33.05831
#
# Poissons Ratio (x) = 0.11914 0.20694
# Poissons Ratio (y) = 0.32338 0.27580
# Poissons Ratio (z) = 0.64672 0.31755
#
# Static dielectric constant tensor:
#      x y z
#    x 3.642630 0.000000 0.000000 
#    y 0.000000 2.918110 0.000000 
#    z 0.000000 0.000000 3.046250 
# 
# 
# High freq. dielectric constant tensor:
#      x y z
#    x 1.708610 0.000000 0.000000 
#    y 0.000000 1.646270 0.000000 
#    z 0.000000 0.000000 1.658680 
# 
# From -- ./inp_files/10959.got.cif
#   From: 2010.06.25/outbox.cif.g09.slc.cpg/sg71_6_cif.got.tgz:10959.got - 2010.06.28 04:59:45.
