data_PCOD8289475
_publ_section_title
;
Structure prediction by ZEFSAII (Michael W. Deem and Ramdas Pophale) SiO2 
 PCOD8289475
Probable space group: I M M M
;
_chemical_formula_sum "Si O2"
_cell_formula_units_Z 104
_cell_length_a 22.509997
_cell_length_b 11.618432
_cell_length_c 23.525963
_cell_angle_alpha 90.000000
_cell_angle_beta 90.000000
_cell_angle_gamma 90.000000
_cell_volume 6152.765558
_symmetry_space_group_name_H-M "I M M M"
_symmetry_group_IT_number 71
_symmetry_cell_setting 'orthorhombic'
loop_
_space_group_symop_operation_xyz
x,y,z
-x,-y,z
x,-y,-z
-x,y,-z
-x,-y,-z
x,y,-z
-x,y,z
x,-y,z
1/2+x,1/2+y,1/2+z
1/2-x,1/2-y,1/2+z
1/2+x,1/2-y,1/2-z
1/2-x,1/2+y,1/2-z
1/2-x,1/2-y,1/2-z
1/2+x,1/2+y,1/2-z
1/2-x,1/2+y,1/2+z
1/2+x,1/2-y,1/2+z
loop_
_atom_site_type_symbol
_atom_site_label
_atom_site_fract_x
_atom_site_fract_y
_atom_site_fract_z
Si Si1 0.161481 0.248589 0.566879
Si Si2 0.065793 0.863812 0.645200
Si Si3 0.569267 0.366538 0.272098
Si Si4 0.317644 0.000000 0.933061
Si Si5 0.500000 0.632411 0.433181
Si Si6 0.186025 0.000000 0.932267
Si Si7 0.619125 0.714729 0.383356
Si Si8 0.785513 0.633253 0.066023
O O1 0.151765 0.229912 0.500000
O O2 0.112581 0.175457 0.598949
O O3 0.150260 0.381749 0.585585
O O4 0.227470 0.206723 0.584088
O O5 0.083273 0.821177 0.708543
O O6 0.000000 0.816934 0.629243
O O7 0.063987 0.000000 0.646275
O O8 0.500000 0.348805 0.286912
O O9 0.586338 0.500000 0.278740
O O10 0.609735 0.293235 0.315404
O O11 0.252078 0.000000 0.907767
O O12 0.310835 0.000000 0.000000
O O13 0.500000 0.500000 0.407835
O O14 0.500000 0.621600 0.500000
O O15 0.555595 0.708150 0.413543
O O16 0.156517 0.888484 0.907816
O O17 0.181198 0.000000 0.000000
O O18 0.656313 0.829830 0.397918
O O19 0.772152 0.500000 0.078631
O O20 0.799756 0.654949 0.000000
#
# Coordination Sequence:
#
# PCOD8289475 Si02
#       8
#    16  16  16   8   8   8  16  16
#     4  10  19  34  57  82 106 133 164 206 258 308
#     4   9  19  35  56  79 106 135 170 209 250 303
#     4   9  17  32  51  75 101 135 172 212 262 305
#     4   9  18  32  52  80 110 136 161 198 256 318
#     4  11  20  26  41  75 107 127 163 222 269 296
#     4  11  18  27  48  78 108 135 164 209 261 302
#     4  12  19  30  50  74 104 135 174 215 258 304
#     4  10  21  35  51  72 104 143 176 207 252 310
#
# _framework density 16.902968999999999
#
# number of rings (size 3 to 8) (size 9 to 14) (size 15 to 20)
#    0.000    1.923    3.846    2.769    0.000    1.231 
#    0.000    2.308    1.692    2.769    0.000    0.000 
#    0.000    0.000    0.000    0.000    0.000    0.000 
#
# Total GULP energy -644574.956078 kJ/mol
# GULP energy per Si atom -12395.672232 kJ/mol
# Density = 1.686450 g / cm^3
# Si number density = 16.902969 Si / 1000 Ang^3
#
#
#
# Elastic Constant Matrix: (Units=GPa)
#
#
# Indices 1 2 3 4 5 6 
#
# 1 89.1479 23.3534 51.3094 0.0000 0.0000 0.0000
# 2 23.3534 60.4652 27.0850 0.0000 0.0000 0.0000
# 3 51.3094 27.0850 76.7659 0.0000 0.0000 0.0000
# 4 0.0000 0.0000 0.0000 21.5630 0.0000 0.0000
# 5 0.0000 0.0000 0.0000 0.0000 53.8529 0.0000
# 6 0.0000 0.0000 0.0000 0.0000 0.0000 30.0898
#
#
#
# Elastic Compliance Matrix: (Units=1/GPa)
#
#
# Indices 1 2 3 4 5 6 
#
# 1 0.018412 -0.001899 -0.011637 0.000000 0.000000 0.000000
# 2 -0.001899 0.019839 -0.005731 0.000000 0.000000 0.000000
# 3 -0.011637 -0.005731 0.022826 0.000000 0.000000 0.000000
# 4 0.000000 0.000000 0.000000 0.046376 0.000000 0.000000
# 5 0.000000 0.000000 0.000000 0.000000 0.018569 0.000000
# 6 0.000000 0.000000 0.000000 0.000000 0.000000 0.033234
#
#
# Mechanical properties :
#
#
# Convention : Reuss Voigt Hill
#
# Bulk Modulus (GPa) = 44.35479 47.76384 46.05932
# Shear Modulus (GPa) = 24.35429 29.40988 26.88208
#
# Velocity S-wave (km/s) = 3.79994 4.17576 3.99228
# Velocity P-wave (km/s) = 6.74911 7.18111 6.96846
#
# Compressibility (1/GPa) = 0.02254548
#
# Stress axis : x y z
#
# Youngs Moduli (GPa) = 54.31194 50.40640 43.80933
#
# Poissons Ratio (x) = 0.09571 0.50979
# Poissons Ratio (y) = 0.10313 0.25105
# Poissons Ratio (z) = 0.63200 0.28885
#
# Static dielectric constant tensor:
#      x y z
#    x 3.022140 0.000000 0.000000 
#    y 0.000000 3.013260 0.000000 
#    z 0.000000 0.000000 3.135890 
# 
# 
# High freq. dielectric constant tensor:
#      x y z
#    x 1.649830 0.000000 0.000000 
#    y 0.000000 1.632290 0.000000 
#    z 0.000000 0.000000 1.640050 
# 
# From -- ./inp_files/66054.got.cif
#   From: 2010.06.25/outbox.cif.g09.slc.cpg/sg71_34_cif.got.tgz:66054.got - 2010.06.28 04:59:45.
