data_PCOD8289567
_publ_section_title
;
Structure prediction by ZEFSAII (Michael W. Deem and Ramdas Pophale) SiO2 
 PCOD8289567
Probable space group: I M M M
;
_chemical_formula_sum "Si O2"
_cell_formula_units_Z 88
_cell_length_a 17.460249
_cell_length_b 7.816504
_cell_length_c 30.952077
_cell_angle_alpha 90.000000
_cell_angle_beta 90.000000
_cell_angle_gamma 90.000000
_cell_volume 4224.280850
_symmetry_space_group_name_H-M "I M M M"
_symmetry_group_IT_number 71
_symmetry_cell_setting 'orthorhombic'
loop_
_space_group_symop_operation_xyz
x,y,z
-x,-y,z
x,-y,-z
-x,y,-z
-x,-y,-z
x,y,-z
-x,y,z
x,-y,z
1/2+x,1/2+y,1/2+z
1/2-x,1/2-y,1/2+z
1/2+x,1/2-y,1/2-z
1/2-x,1/2+y,1/2-z
1/2-x,1/2-y,1/2-z
1/2+x,1/2+y,1/2-z
1/2-x,1/2+y,1/2+z
1/2+x,1/2-y,1/2+z
loop_
_atom_site_type_symbol
_atom_site_label
_atom_site_fract_x
_atom_site_fract_y
_atom_site_fract_z
Si Si1 0.304306 0.192648 0.183952
Si Si2 0.910194 0.500000 0.449049
Si Si3 0.186721 0.194958 0.590538
Si Si4 0.845553 0.698624 0.950953
Si Si5 0.000000 0.188545 0.089929
Si Si6 0.000000 0.691975 0.818041
Si Si7 0.350167 0.797059 0.275910
O O1 0.320418 0.309798 0.142481
O O2 0.355872 0.249600 0.224958
O O3 0.217550 0.200067 0.200136
O O4 0.323646 0.000000 0.169611
O O5 0.896447 0.500000 0.500000
O O6 0.873624 0.326477 0.429896
O O7 0.000000 0.500000 0.437358
O O8 0.272914 0.254743 0.578010
O O9 0.171200 0.000000 0.573774
O O10 0.862320 0.500000 0.945035
O O11 0.923699 0.792606 0.938436
O O12 0.824802 0.746512 0.000000
O O13 0.000000 0.316262 0.130180
O O14 0.000000 0.000000 0.110002
O O15 0.924806 0.780742 0.798917
O O16 0.000000 0.500000 0.800066
O O17 0.338472 0.000000 0.282433
#
# Coordination Sequence:
#
# PCOD8289567 Si02
#       7
#    16   8  16  16   8   8  16
#     4  10  19  35  57  88 122 160 205 256 312 366
#     4  11  26  48  72  99 129 163 203 264 336 396
#     4  11  23  42  69  99 128 167 214 263 318 389
#     4  10  22  40  61  86 120 165 212 259 309 369
#     4  12  25  35  52  87 128 168 210 262 313 365
#     4  10  20  37  55  76 108 159 208 245 297 360
#     4   9  19  34  55  82 116 161 209 258 309 368
#
# _framework density 20.831949000000002
#
# number of rings (size 3 to 8) (size 9 to 14) (size 15 to 20)
#    0.000    1.727    0.909    3.273    1.273    8.727 
#    1.636    0.909    0.000    0.000    0.000    0.000 
#    0.000    0.000    0.000    0.000    0.000    0.000 
#
# Total GULP energy -545551.587609 kJ/mol
# GULP energy per Si atom -12398.899718 kJ/mol
# Density = 2.078453 g / cm^3
# Si number density = 20.831949 Si / 1000 Ang^3
#
#
#
# Elastic Constant Matrix: (Units=GPa)
#
#
# Indices 1 2 3 4 5 6 
#
# 1 95.5933 39.4291 37.2399 0.0000 0.0000 0.0000
# 2 39.4291 76.7692 27.7475 0.0000 0.0000 0.0000
# 3 37.2399 27.7475 123.0427 0.0000 0.0000 0.0000
# 4 0.0000 0.0000 0.0000 26.3386 0.0000 0.0000
# 5 0.0000 0.0000 0.0000 0.0000 20.8783 0.0000
# 6 0.0000 0.0000 0.0000 0.0000 0.0000 26.0537
#
#
#
# Elastic Compliance Matrix: (Units=1/GPa)
#
#
# Indices 1 2 3 4 5 6 
#
# 1 0.014151 -0.006228 -0.002879 0.000000 0.000000 0.000000
# 2 -0.006228 0.016923 -0.001931 0.000000 0.000000 0.000000
# 3 -0.002879 -0.001931 0.009434 0.000000 0.000000 0.000000
# 4 0.000000 0.000000 0.000000 0.037967 0.000000 0.000000
# 5 0.000000 0.000000 0.000000 0.000000 0.047897 0.000000
# 6 0.000000 0.000000 0.000000 0.000000 0.000000 0.038382
#
#
# Mechanical properties :
#
#
# Convention : Reuss Voigt Hill
#
# Bulk Modulus (GPa) = 54.25167 56.02647 55.13907
# Shear Modulus (GPa) = 25.91035 27.38671 26.64853
#
# Velocity S-wave (km/s) = 3.53055 3.62974 3.58049
# Velocity P-wave (km/s) = 6.53596 6.67230 6.60448
#
# Compressibility (1/GPa) = 0.01843261
#
# Stress axis : x y z
#
# Youngs Moduli (GPa) = 70.66614 59.09223 105.99929
#
# Poissons Ratio (x) = 0.36800 0.30512
# Poissons Ratio (y) = 0.44008 0.20473
# Poissons Ratio (z) = 0.20341 0.11413
#
# Static dielectric constant tensor:
#      x y z
#    x 3.766480 0.000000 0.000000 
#    y 0.000000 3.618860 0.000000 
#    z 0.000000 0.000000 3.848190 
# 
# 
# High freq. dielectric constant tensor:
#      x y z
#    x 1.803330 0.000000 0.000000 
#    y 0.000000 1.811810 0.000000 
#    z 0.000000 0.000000 1.825190 
# 
# From -- ./inp_files/70393.got.cif
#   From: 2010.06.25/outbox.cif.g09.slc.cpg/sg71_36_cif.got.tgz:70393.got - 2010.06.28 04:59:45.
