data_PCOD8289207
_publ_section_title
;
Structure prediction by ZEFSAII (Michael W. Deem and Ramdas Pophale) SiO2 
 PCOD8289207
Probable space group: I M M M
;
_chemical_formula_sum "Si O2"
_cell_formula_units_Z 72
_cell_length_a 10.815388
_cell_length_b 19.160813
_cell_length_c 18.196221
_cell_angle_alpha 90.000000
_cell_angle_beta 90.000000
_cell_angle_gamma 90.000000
_cell_volume 3770.832483
_symmetry_space_group_name_H-M "I M M M"
_symmetry_group_IT_number 71
_symmetry_cell_setting 'orthorhombic'
loop_
_space_group_symop_operation_xyz
x,y,z
-x,-y,z
x,-y,-z
-x,y,-z
-x,-y,-z
x,y,-z
-x,y,z
x,-y,z
1/2+x,1/2+y,1/2+z
1/2-x,1/2-y,1/2+z
1/2+x,1/2-y,1/2-z
1/2-x,1/2+y,1/2-z
1/2-x,1/2-y,1/2-z
1/2+x,1/2+y,1/2-z
1/2-x,1/2+y,1/2+z
1/2+x,1/2-y,1/2+z
loop_
_atom_site_type_symbol
_atom_site_label
_atom_site_fract_x
_atom_site_fract_y
_atom_site_fract_z
Si Si1 0.500000 0.420158 0.587464
Si Si2 0.500000 0.082543 0.154976
Si Si3 0.633788 0.285927 0.913513
Si Si4 0.728972 0.079275 0.585307
Si Si5 0.500000 0.917842 0.319138
Si Si6 0.745282 0.146524 0.087087
O O1 0.500000 0.500000 0.614633
O O2 0.500000 0.415840 0.500000
O O3 0.624749 0.383220 0.618965
O O4 0.500000 0.114473 0.237591
O O5 0.625377 0.105166 0.114776
O O6 0.500000 0.000000 0.157468
O O7 0.500000 0.269133 0.877897
O O8 0.664495 0.366006 0.893965
O O9 0.732549 0.227624 0.886787
O O10 0.623906 0.278062 0.000000
O O11 0.689754 0.084546 0.500000
O O12 0.617685 0.106399 0.634927
O O13 0.771729 0.000000 0.603819
O O14 0.500000 0.000000 0.314049
O O15 0.747345 0.138510 0.000000
#
# Coordination Sequence:
#
# PCOD8289207 Si02
#       6
#     8   8  16  16   8  16
#     4   9  18  31  48  74 103 129 174 232 263 294
#     4  11  21  33  54  76 103 143 180 216 260 315
#     4   9  17  30  50  77 107 134 168 218 264 310
#     4   9  17  31  54  78 101 134 174 217 267 321
#     4   9  19  34  50  74 106 132 170 223 267 309
#     4  10  19  33  53  77 107 142 176 215 264 310
#
# _framework density 19.093927999999998
#
# number of rings (size 3 to 8) (size 9 to 14) (size 15 to 20)
#    0.000    2.556    1.111    1.333    0.000    4.444 
#    0.000    6.667    2.444    0.000    0.000    0.000 
#    0.000    0.000    0.000    0.000    0.000    0.000 
#
# Total GULP energy -446040.387121 kJ/mol
# GULP energy per Si atom -12390.010753 kJ/mol
# Density = 1.905047 g / cm^3
# Si number density = 19.093928 Si / 1000 Ang^3
#
#
#
# Elastic Constant Matrix: (Units=GPa)
#
#
# Indices 1 2 3 4 5 6 
#
# 1 162.2302 77.5580 22.0265 0.0000 0.0000 0.0000
# 2 77.5580 137.3370 18.0573 0.0000 0.0000 0.0000
# 3 22.0265 18.0573 34.6169 0.0000 0.0000 0.0000
# 4 0.0000 0.0000 0.0000 10.6458 0.0000 0.0000
# 5 0.0000 0.0000 0.0000 0.0000 -7.9824 0.0000
# 6 0.0000 0.0000 0.0000 0.0000 0.0000 25.5644
#
#
#
# Elastic Compliance Matrix: (Units=1/GPa)
#
#
# Indices 1 2 3 4 5 6 
#
# 1 0.008765 -0.004527 -0.003216 0.000000 0.000000 0.000000
# 2 -0.004527 0.010156 -0.002417 0.000000 0.000000 0.000000
# 3 -0.003216 -0.002417 0.032195 0.000000 0.000000 0.000000
# 4 0.000000 0.000000 0.000000 0.093933 0.000000 0.000000
# 5 0.000000 0.000000 0.000000 0.000000 -0.125276 0.000000
# 6 0.000000 0.000000 0.000000 0.000000 0.000000 0.039117
#
#
# Mechanical properties :
#
#
# Convention : Reuss Voigt Hill
#
# Bulk Modulus (GPa) = 32.47196 63.27420 47.87308
# Shear Modulus (GPa) = 55.88210 20.08172 37.98191
#
# Velocity S-wave (km/s) = 5.41576 3.24656 4.46490
# Velocity P-wave (km/s) = 7.49337 6.87487 7.19078
#
# Compressibility (1/GPa) = 0.03079580
#
# Stress axis : x y z
#
# Youngs Moduli (GPa) = 114.09120 98.46707 31.06115
#
# Poissons Ratio (x) = 0.44576 0.09988
# Poissons Ratio (y) = 0.51649 0.07508
# Poissons Ratio (z) = 0.36688 0.23800
#
# Static dielectric constant tensor:
#      x y z
#    x 3.796640 0.000000 0.000000 
#    y 0.000000 3.654030 0.000000 
#    z 0.000000 0.000000 3.328740 
# 
# 
# High freq. dielectric constant tensor:
#      x y z
#    x 1.744020 0.000000 0.000000 
#    y 0.000000 1.750560 0.000000 
#    z 0.000000 0.000000 1.696240 
# 
# From -- ./inp_files/50224.got.cif
#   From: 2010.06.25/outbox.cif.g09.slc.cpg/sg71_26_cif.got.tgz:50224.got - 2010.06.28 04:59:45.
