data_PCOD8289226
_publ_section_title
;
Structure prediction by ZEFSAII (Michael W. Deem and Ramdas Pophale) SiO2 
 PCOD8289226
Probable space group: I M M M
;
_chemical_formula_sum "Si O2"
_cell_formula_units_Z 80
_cell_length_a 19.576981
_cell_length_b 8.827373
_cell_length_c 25.426597
_cell_angle_alpha 90.000000
_cell_angle_beta 90.000000
_cell_angle_gamma 90.000000
_cell_volume 4394.054479
_symmetry_space_group_name_H-M "I M M M"
_symmetry_group_IT_number 71
_symmetry_cell_setting 'orthorhombic'
loop_
_space_group_symop_operation_xyz
x,y,z
-x,-y,z
x,-y,-z
-x,y,-z
-x,-y,-z
x,y,-z
-x,y,z
x,-y,z
1/2+x,1/2+y,1/2+z
1/2-x,1/2-y,1/2+z
1/2+x,1/2-y,1/2-z
1/2-x,1/2+y,1/2-z
1/2-x,1/2-y,1/2-z
1/2+x,1/2+y,1/2-z
1/2-x,1/2+y,1/2+z
1/2+x,1/2-y,1/2+z
loop_
_atom_site_type_symbol
_atom_site_label
_atom_site_fract_x
_atom_site_fract_y
_atom_site_fract_z
Si Si1 0.822560 0.177494 0.393229
Si Si2 0.822430 0.179969 0.887874
Si Si3 0.832945 0.165092 0.000000
Si Si4 0.328848 0.832497 0.000000
Si Si5 0.078518 0.673853 0.192527
Si Si6 0.420803 0.826861 0.186165
O O1 0.750721 0.248412 0.375333
O O2 0.852001 0.243843 0.447778
O O3 0.876991 0.211569 0.347992
O O4 0.812617 0.000000 0.399836
O O5 0.851896 0.245528 0.944355
O O6 0.875025 0.217502 0.842234
O O7 0.812696 0.000000 0.892564
O O8 0.751771 0.151450 0.000000
O O9 0.867871 0.000000 0.000000
O O10 0.362597 0.000000 0.000000
O O11 0.093755 0.500000 0.177992
O O12 0.096102 0.704886 0.253047
O O13 0.000000 0.713502 0.180926
O O14 0.500000 0.795860 0.174886
O O15 0.402069 0.000000 0.171864
#
# Coordination Sequence:
#
# PCOD8289226 Si02
#       6
#    16  16   8   8  16  16
#     4  11  21  33  53  81 109 135 169 215 260 302
#     4  10  19  33  54  77 103 137 176 215 256 307
#     4   7  14  29  48  71  98 130 166 204 246 293
#     4   9  17  33  54  75 104 139 172 206 252 310
#     4   9  19  36  55  75 102 135 172 217 267 314
#     4   9  19  37  57  74  99 138 176 211 260 318
#
# _framework density 18.206419
#
# number of rings (size 3 to 8) (size 9 to 14) (size 15 to 20)
#    0.000    2.600    0.000    5.100    0.000    2.400 
#    0.000    4.500    0.000    6.000    0.000    0.000 
#    0.000    0.000    0.000    0.000    0.000    0.000 
#
# Total GULP energy -495817.302860 kJ/mol
# GULP energy per Si atom -12395.432572 kJ/mol
# Density = 1.816498 g / cm^3
# Si number density = 18.206419 Si / 1000 Ang^3
#
#
#
# Elastic Constant Matrix: (Units=GPa)
#
#
# Indices 1 2 3 4 5 6 
#
# 1 64.8488 38.1203 59.5790 0.0000 0.0000 0.0000
# 2 38.1203 101.9061 51.1731 0.0000 0.0000 0.0000
# 3 59.5790 51.1731 118.6277 0.0000 0.0000 0.0000
# 4 0.0000 0.0000 0.0000 33.1705 0.0000 0.0000
# 5 0.0000 0.0000 0.0000 0.0000 -19.7046 0.0000
# 6 0.0000 0.0000 0.0000 0.0000 0.0000 28.2817
#
#
#
# Elastic Compliance Matrix: (Units=1/GPa)
#
#
# Indices 1 2 3 4 5 6 
#
# 1 0.030308 -0.004715 -0.013188 0.000000 0.000000 0.000000
# 2 -0.004715 0.013260 -0.003352 0.000000 0.000000 0.000000
# 3 -0.013188 -0.003352 0.016499 0.000000 0.000000 0.000000
# 4 0.000000 0.000000 0.000000 0.030147 0.000000 0.000000
# 5 0.000000 0.000000 0.000000 0.000000 -0.050750 0.000000
# 6 0.000000 0.000000 0.000000 0.000000 0.000000 0.035359
#
#
# Mechanical properties :
#
#
# Convention : Reuss Voigt Hill
#
# Bulk Modulus (GPa) = 56.95568 64.79192 60.87380
# Shear Modulus (GPa) = 40.58896 17.45021 29.01958
#
# Velocity S-wave (km/s) = 4.72675 3.09927 3.99672
# Velocity P-wave (km/s) = 7.81926 6.96218 7.40313
#
# Compressibility (1/GPa) = 0.01755751
#
# Stress axis : x y z
#
# Youngs Moduli (GPa) = 32.99415 75.41511 60.60930
#
# Poissons Ratio (x) = 0.35559 0.79931
# Poissons Ratio (y) = 0.15557 0.20316
# Poissons Ratio (z) = 0.43513 0.25279
#
# Static dielectric constant tensor:
#      x y z
#    x 3.029840 0.000000 0.000000 
#    y 0.000000 3.248330 0.000000 
#    z 0.000000 0.000000 3.665390 
# 
# 
# High freq. dielectric constant tensor:
#      x y z
#    x 1.677730 0.000000 0.000000 
#    y 0.000000 1.698060 0.000000 
#    z 0.000000 0.000000 1.721180 
# 
# From -- ./inp_files/14622.got.cif
#   From: 2010.06.25/outbox.cif.g09.slc.cpg/sg71_8_cif.got.tgz:14622.got - 2010.06.28 04:59:45.
