data_PCOD8289910
_publ_section_title
;
Structure prediction by ZEFSAII (Michael W. Deem and Ramdas Pophale) SiO2 
 PCOD8289910
Probable space group: I M M M
;
_chemical_formula_sum "Si O2"
_cell_formula_units_Z 88
_cell_length_a 26.984821
_cell_length_b 18.277089
_cell_length_c 9.975926
_cell_angle_alpha 90.000000
_cell_angle_beta 90.000000
_cell_angle_gamma 90.000000
_cell_volume 4920.166358
_symmetry_space_group_name_H-M "I M M M"
_symmetry_group_IT_number 71
_symmetry_cell_setting 'orthorhombic'
loop_
_space_group_symop_operation_xyz
x,y,z
-x,-y,z
x,-y,-z
-x,y,-z
-x,-y,-z
x,y,-z
-x,y,z
x,-y,z
1/2+x,1/2+y,1/2+z
1/2-x,1/2-y,1/2+z
1/2+x,1/2-y,1/2-z
1/2-x,1/2+y,1/2-z
1/2-x,1/2-y,1/2-z
1/2+x,1/2+y,1/2-z
1/2-x,1/2+y,1/2+z
1/2+x,1/2-y,1/2+z
loop_
_atom_site_type_symbol
_atom_site_label
_atom_site_fract_x
_atom_site_fract_y
_atom_site_fract_z
Si Si1 0.713069 0.415103 0.154496
Si Si2 0.000000 0.415759 0.660014
Si Si3 0.399678 0.841322 0.841724
Si Si4 0.058322 0.080847 0.146706
Si Si5 0.615565 0.324475 0.155985
Si Si6 0.199871 0.586102 0.650450
O O1 0.698833 0.500000 0.183417
O O2 0.667990 0.361441 0.190306
O O3 0.757551 0.387230 0.248576
O O4 0.729148 0.405801 0.000000
O O5 0.048816 0.373825 0.717630
O O6 0.000000 0.500000 0.710279
O O7 0.000000 0.414054 0.500000
O O8 0.387727 0.759037 0.795409
O O9 0.353169 0.888970 0.791719
O O10 0.403842 0.846014 0.000000
O O11 0.073249 0.134857 0.263508
O O12 0.000000 0.077740 0.143685
O O13 0.079727 0.000000 0.177351
O O14 0.078013 0.106745 0.000000
O O15 0.603179 0.332325 0.000000
O O16 0.209284 0.618273 0.500000
O O17 0.199369 0.500000 0.643707
#
# Coordination Sequence:
#
# PCOD8289910 Si02
#       6
#    16   8  16  16  16  16
#     4   9  18  32  48  68  97 132 166 202 248 300
#     4   9  16  28  48  72 100 133 164 200 253 307
#     4   9  18  30  46  73 104 130 161 207 257 299
#     4   9  19  35  52  70  96 132 171 209 248 293
#     4  10  20  32  49  74 104 133 164 206 251 298
#     4   9  17  31  51  73  97 128 169 212 250 295
#
# _framework density 17.885574999999999
#
# number of rings (size 3 to 8) (size 9 to 14) (size 15 to 20)
#    0.000    2.818    0.000    1.636    1.273    5.091 
#    0.000    3.636    0.000    0.000    0.000    0.000 
#    0.000    4.364    0.000    0.000    0.000    0.000 
#
# Total GULP energy -545380.831684 kJ/mol
# GULP energy per Si atom -12395.018902 kJ/mol
# Density = 1.784487 g / cm^3
# Si number density = 17.885575 Si / 1000 Ang^3
#
#
#
# Elastic Constant Matrix: (Units=GPa)
#
#
# Indices 1 2 3 4 5 6 
#
# 1 110.2181 61.4852 40.6204 0.0000 0.0000 0.0000
# 2 61.4852 76.4942 27.7014 0.0000 0.0000 0.0000
# 3 40.6204 27.7014 48.4383 0.0000 0.0000 0.0000
# 4 0.0000 0.0000 0.0000 12.8368 0.0000 0.0000
# 5 0.0000 0.0000 0.0000 0.0000 27.9816 0.0000
# 6 0.0000 0.0000 0.0000 0.0000 0.0000 7.1084
#
#
#
# Elastic Compliance Matrix: (Units=1/GPa)
#
#
# Indices 1 2 3 4 5 6 
#
# 1 0.019221 -0.012123 -0.009186 0.000000 0.000000 0.000000
# 2 -0.012123 0.024134 -0.003635 0.000000 0.000000 0.000000
# 3 -0.009186 -0.003635 0.030427 0.000000 0.000000 0.000000
# 4 0.000000 0.000000 0.000000 0.077901 0.000000 0.000000
# 5 0.000000 0.000000 0.000000 0.000000 0.035738 0.000000
# 6 0.000000 0.000000 0.000000 0.000000 0.000000 0.140678
#
#
# Mechanical properties :
#
#
# Convention : Reuss Voigt Hill
#
# Bulk Modulus (GPa) = 41.85258 54.97383 48.41321
# Shear Modulus (GPa) = 12.95495 16.60827 14.78161
#
# Velocity S-wave (km/s) = 2.69425 3.05057 2.87793
# Velocity P-wave (km/s) = 5.75583 6.57352 6.17822
#
# Compressibility (1/GPa) = 0.02389339
#
# Stress axis : x y z
#
# Youngs Moduli (GPa) = 52.02554 41.43532 32.86556
#
# Poissons Ratio (x) = 0.50234 0.30190
# Poissons Ratio (y) = 0.63073 0.11948
# Poissons Ratio (z) = 0.47789 0.15063
#
# Static dielectric constant tensor:
#      x y z
#    x 3.370220 0.000000 0.000000 
#    y 0.000000 3.418120 0.000000 
#    z 0.000000 0.000000 3.221340 
# 
# 
# High freq. dielectric constant tensor:
#      x y z
#    x 1.694800 0.000000 0.000000 
#    y 0.000000 1.692300 0.000000 
#    z 0.000000 0.000000 1.660840 
# 
# From -- ./inp_files/16625.got.cif
#   From: 2010.06.25/outbox.cif.g09.slc.cpg/sg71_9_cif.got.tgz:16625.got - 2010.06.28 04:59:45.
