data_PCOD8289128
_publ_section_title
;
Structure prediction by ZEFSAII (Michael W. Deem and Ramdas Pophale) SiO2 
 PCOD8289128
Probable space group: I M M M
;
_chemical_formula_sum "Si O2"
_cell_formula_units_Z 80
_cell_length_a 26.739142
_cell_length_b 9.443233
_cell_length_c 17.088057
_cell_angle_alpha 90.000000
_cell_angle_beta 90.000000
_cell_angle_gamma 90.000000
_cell_volume 4314.801858
_symmetry_space_group_name_H-M "I M M M"
_symmetry_group_IT_number 71
_symmetry_cell_setting 'orthorhombic'
loop_
_space_group_symop_operation_xyz
x,y,z
-x,-y,z
x,-y,-z
-x,y,-z
-x,-y,-z
x,y,-z
-x,y,z
x,-y,z
1/2+x,1/2+y,1/2+z
1/2-x,1/2-y,1/2+z
1/2+x,1/2-y,1/2-z
1/2-x,1/2+y,1/2-z
1/2-x,1/2-y,1/2-z
1/2+x,1/2+y,1/2-z
1/2-x,1/2+y,1/2+z
1/2+x,1/2-y,1/2+z
loop_
_atom_site_type_symbol
_atom_site_label
_atom_site_fract_x
_atom_site_fract_y
_atom_site_fract_z
Si Si1 0.324322 0.838460 0.911882
Si Si2 0.443079 0.669486 0.500000
Si Si3 0.000000 0.831403 0.588429
Si Si4 0.096485 0.165835 0.678996
Si Si5 0.117733 0.834492 0.852308
Si Si6 0.727804 0.662619 0.321172
O O1 0.354030 0.741582 0.851505
O O2 0.265383 0.826381 0.894244
O O3 0.342397 0.000000 0.901809
O O4 0.333772 0.784932 0.000000
O O5 0.443750 0.500000 0.500000
O O6 0.500000 0.726764 0.500000
O O7 0.414340 0.731282 0.423544
O O8 0.951335 0.773142 0.633006
O O9 0.000000 0.772787 0.500000
O O10 0.000000 0.000000 0.589785
O O11 0.089340 0.198016 0.770877
O O12 0.103444 0.000000 0.663539
O O13 0.174314 0.773364 0.848364
O O14 0.121693 0.000000 0.868030
O O15 0.721062 0.500000 0.293289
O O16 0.750000 0.750000 0.250000
#
# Coordination Sequence:
#
# PCOD8289128 Si02
#       6
#    16   8   8  16  16  16
#     4  10  21  34  50  74 105 138 172 210 254 306
#     4   9  18  30  48  76 109 139 173 220 273 320
#     4   9  18  30  47  72 100 128 161 207 259 303
#     4  10  19  33  53  75 101 134 173 213 256 306
#     4   9  18  30  47  72 102 136 170 209 259 310
#     4  10  19  33  51  73 102 135 171 211 256 308
#
# _framework density 18.540828000000001
#
# number of rings (size 3 to 8) (size 9 to 14) (size 15 to 20)
#    0.000    2.400    2.000    0.600    2.800    1.200 
#    0.000    0.500    0.000    1.800    0.000    2.100 
#    0.000    3.200    0.000    0.000    0.000    0.000 
#
# Total GULP energy -495941.132803 kJ/mol
# GULP energy per Si atom -12398.528320 kJ/mol
# Density = 1.849863 g / cm^3
# Si number density = 18.540828 Si / 1000 Ang^3
#
#
#
# Elastic Constant Matrix: (Units=GPa)
#
#
# Indices 1 2 3 4 5 6 
#
# 1 149.4978 21.0777 74.1857 0.0000 0.0000 0.0000
# 2 21.0777 28.3515 27.6316 0.0000 0.0000 0.0000
# 3 74.1857 27.6316 144.3767 0.0000 0.0000 0.0000
# 4 0.0000 0.0000 0.0000 17.1151 0.0000 0.0000
# 5 0.0000 0.0000 0.0000 0.0000 39.4084 0.0000
# 6 0.0000 0.0000 0.0000 0.0000 0.0000 19.2833
#
#
#
# Elastic Compliance Matrix: (Units=1/GPa)
#
#
# Indices 1 2 3 4 5 6 
#
# 1 0.009147 -0.002728 -0.004178 0.000000 0.000000 0.000000
# 2 -0.002728 0.044173 -0.007052 0.000000 0.000000 0.000000
# 3 -0.004178 -0.007052 0.010423 0.000000 0.000000 0.000000
# 4 0.000000 0.000000 0.000000 0.058428 0.000000 0.000000
# 5 0.000000 0.000000 0.000000 0.000000 0.025375 0.000000
# 6 0.000000 0.000000 0.000000 0.000000 0.000000 0.051858
#
#
# Mechanical properties :
#
#
# Convention : Reuss Voigt Hill
#
# Bulk Modulus (GPa) = 27.91279 63.11289 45.51284
# Shear Modulus (GPa) = 20.89753 28.45010 24.67382
#
# Velocity S-wave (km/s) = 3.36089 3.92146 3.65195
# Velocity P-wave (km/s) = 5.49074 7.39038 6.51022
#
# Compressibility (1/GPa) = 0.03582587
#
# Stress axis : x y z
#
# Youngs Moduli (GPa) = 109.32648 22.63826 95.94442
#
# Poissons Ratio (x) = 0.06177 0.40084
# Poissons Ratio (y) = 0.29829 0.67661
# Poissons Ratio (z) = 0.45675 0.15965
#
# Static dielectric constant tensor:
#      x y z
#    x 3.684730 0.000000 0.000000 
#    y 0.000000 2.928560 0.000000 
#    z 0.000000 0.000000 3.568760 
# 
# 
# High freq. dielectric constant tensor:
#      x y z
#    x 1.731330 0.000000 0.000000 
#    y 0.000000 1.661420 0.000000 
#    z 0.000000 0.000000 1.729780 
# 
# From -- ./inp_files/8387.got.cif
#   From: 2010.06.25/outbox.cif.g09.slc.cpg/sg71_5_cif.got.tgz:8387.got - 2010.06.28 04:59:45.
