data_PCOD8289030
_publ_section_title
;
Structure prediction by ZEFSAII (Michael W. Deem and Ramdas Pophale) SiO2 
 PCOD8289030
Probable space group: I M M M
;
_chemical_formula_sum "Si O2"
_cell_formula_units_Z 88
_cell_length_a 18.097715
_cell_length_b 30.682352
_cell_length_c 8.633615
_cell_angle_alpha 90.000000
_cell_angle_beta 90.000000
_cell_angle_gamma 90.000000
_cell_volume 4794.077726
_symmetry_space_group_name_H-M "I M M M"
_symmetry_group_IT_number 71
_symmetry_cell_setting 'orthorhombic'
loop_
_space_group_symop_operation_xyz
x,y,z
-x,-y,z
x,-y,-z
-x,y,-z
-x,-y,-z
x,y,-z
-x,y,z
x,-y,z
1/2+x,1/2+y,1/2+z
1/2-x,1/2-y,1/2+z
1/2+x,1/2-y,1/2-z
1/2-x,1/2+y,1/2-z
1/2-x,1/2-y,1/2-z
1/2+x,1/2+y,1/2-z
1/2-x,1/2+y,1/2+z
1/2+x,1/2-y,1/2+z
loop_
_atom_site_type_symbol
_atom_site_label
_atom_site_fract_x
_atom_site_fract_y
_atom_site_fract_z
Si Si1 0.913160 0.000000 0.826953
Si Si2 0.079366 0.828557 0.322322
Si Si3 0.296070 0.881991 0.818875
Si Si4 0.583683 0.950973 0.816005
Si Si5 0.651799 0.583348 0.823434
Si Si6 0.766216 0.796942 0.684521
O O1 0.886566 0.040031 0.728049
O O2 0.000000 0.000000 0.838759
O O3 0.878862 0.000000 0.000000
O O4 0.075768 0.814091 0.500000
O O5 0.088958 0.880223 0.306792
O O6 0.151558 0.806363 0.247137
O O7 0.000000 0.815732 0.243440
O O8 0.362466 0.912636 0.751609
O O9 0.220759 0.907501 0.787296
O O10 0.292169 0.833932 0.739923
O O11 0.307179 0.874250 0.000000
O O12 0.500000 0.940643 0.760832
O O13 0.606572 0.000000 0.757700
O O14 0.588048 0.950926 0.000000
O O15 0.680723 0.580870 0.000000
O O16 0.765201 0.797450 0.500000
O O17 0.750000 0.750000 0.750000
#
# Coordination Sequence:
#
# PCOD8289030 Si02
#       6
#     8  16  16  16  16  16
#     4  11  23  35  47  69 102 137 176 221 261 294
#     4   8  15  30  52  74  94 122 165 210 249 297
#     4  10  19  32  54  80 106 137 174 218 267 316
#     4   8  15  29  50  77 107 140 181 226 267 311
#     4  10  20  33  50  73 102 138 174 211 256 311
#     4  10  20  35  55  77 104 135 171 217 270 324
#
# _framework density 18.355981
#
# number of rings (size 3 to 8) (size 9 to 14) (size 15 to 20)
#    0.000    2.636    0.000    4.091    1.273    1.455 
#    0.000    0.909    0.000   18.545    0.000    5.091 
#    0.000    0.000    0.000    0.000    0.000    0.000 
#
# Total GULP energy -545142.327408 kJ/mol
# GULP energy per Si atom -12389.598350 kJ/mol
# Density = 1.831420 g / cm^3
# Si number density = 18.355981 Si / 1000 Ang^3
#
#
#
# Elastic Constant Matrix: (Units=GPa)
#
#
# Indices 1 2 3 4 5 6 
#
# 1 109.9799 70.9989 20.8294 -0.0003 -0.0015 -0.0011
# 2 70.9989 156.3737 33.5895 0.0012 0.0012 0.0017
# 3 20.8294 33.5895 45.4300 0.0152 0.0046 0.0078
# 4 -0.0003 0.0012 0.0152 28.0379 0.0019 0.0022
# 5 -0.0015 0.0012 0.0046 0.0019 18.4025 -0.0031
# 6 -0.0011 0.0017 0.0078 0.0022 -0.0031 33.1169
#
#
#
# Elastic Compliance Matrix: (Units=1/GPa)
#
#
# Indices 1 2 3 4 5 6 
#
# 1 0.012999 -0.005494 -0.001898 0.000001 0.000002 0.000001
# 2 -0.005494 0.009925 -0.004819 0.000002 0.000000 0.000000
# 3 -0.001898 -0.004819 0.026445 -0.000014 -0.000006 -0.000006
# 4 0.000001 0.000002 -0.000014 0.035666 -0.000004 -0.000002
# 5 0.000002 0.000000 -0.000006 -0.000004 0.054340 0.000005
# 6 0.000001 0.000000 -0.000006 -0.000002 0.000005 0.030196
#
#
# Mechanical properties :
#
#
# Convention : Reuss Voigt Hill
#
# Bulk Modulus (GPa) = 40.08523 62.51324 51.29924
# Shear Modulus (GPa) = 24.71480 28.33586 26.52533
#
# Velocity S-wave (km/s) = 3.67334 3.93324 3.80551
# Velocity P-wave (km/s) = 6.31477 7.39981 6.87872
#
# Compressibility (1/GPa) = 0.02494684
#
# Stress axis : x y z
#
# Youngs Moduli (GPa) = 76.92965 100.75922 37.81454
#
# Poissons Ratio (x) = 0.55360 0.07176
# Poissons Ratio (y) = 0.42268 0.18222
# Poissons Ratio (z) = 0.14598 0.48554
#
# Static dielectric constant tensor:
#      x y z
#    x 3.667070 -0.000010 -0.000020 
#    y -0.000010 3.514480 -0.000030 
#    z -0.000020 -0.000030 3.186680 
# 
# 
# High freq. dielectric constant tensor:
#      x y z
#    x 1.711320 0.000000 0.000000 
#    y 0.000000 1.710130 0.000000 
#    z 0.000000 0.000000 1.686680 
# 
# From -- ./inp_files/8789.got.cif
#   From: 2010.06.25/outbox.cif.g09.slc.cpg/sg71_5_cif.got.tgz:8789.got - 2010.06.28 04:59:45.
