data_PCOD8289538
_publ_section_title
;
Structure prediction by ZEFSAII (Michael W. Deem and Ramdas Pophale) SiO2 
 PCOD8289538
Probable space group: I M M M
;
_chemical_formula_sum "Si O2"
_cell_formula_units_Z 96
_cell_length_a 23.568008
_cell_length_b 25.117509
_cell_length_c 8.864574
_cell_angle_alpha 90.000000
_cell_angle_beta 90.000000
_cell_angle_gamma 90.000000
_cell_volume 5247.558795
_symmetry_space_group_name_H-M "I M M M"
_symmetry_group_IT_number 71
_symmetry_cell_setting 'orthorhombic'
loop_
_space_group_symop_operation_xyz
x,y,z
-x,-y,z
x,-y,-z
-x,y,-z
-x,-y,-z
x,y,-z
-x,y,z
x,-y,z
1/2+x,1/2+y,1/2+z
1/2-x,1/2-y,1/2+z
1/2+x,1/2-y,1/2-z
1/2-x,1/2+y,1/2-z
1/2-x,1/2-y,1/2-z
1/2+x,1/2+y,1/2-z
1/2-x,1/2+y,1/2+z
1/2+x,1/2-y,1/2+z
loop_
_atom_site_type_symbol
_atom_site_label
_atom_site_fract_x
_atom_site_fract_y
_atom_site_fract_z
Si Si1 0.687473 0.312667 0.824245
Si Si2 0.000000 0.060834 0.678764
Si Si3 0.809147 0.000000 0.825296
Si Si4 0.500000 0.059940 0.178870
Si Si5 0.879179 0.593919 0.324142
Si Si6 0.386807 0.599992 0.676567
Si Si7 0.310819 0.000000 0.677108
Si Si8 0.196195 0.308775 0.326308
O O1 0.641188 0.345324 0.731415
O O2 0.751013 0.328105 0.774065
O O3 0.676638 0.250748 0.786075
O O4 0.680585 0.325491 0.000000
O O5 0.945529 0.091994 0.737965
O O6 0.000000 0.061934 0.500000
O O7 0.000000 0.000000 0.739438
O O8 0.845274 0.051684 0.783472
O O9 0.754582 0.000000 0.721320
O O10 0.790768 0.000000 0.000000
O O11 0.556228 0.090340 0.236811
O O12 0.500000 0.000000 0.244060
O O13 0.500000 0.058369 0.000000
O O14 0.876398 0.579316 0.500000
O O15 0.839840 0.552620 0.239266
O O16 0.857129 0.653343 0.292194
O O17 0.399311 0.603158 0.500000
O O18 0.316533 0.000000 0.500000
O O19 0.215718 0.312630 0.500000
#
# Coordination Sequence:
#
# PCOD8289538 Si02
#       8
#    16   8   8   8  16  16   8  16
#     4  10  20  35  55  82 114 145 182 229 279 330
#     4  11  23  39  60  85 114 148 185 231 285 332
#     4  10  22  37  54  77 107 142 180 222 267 324
#     4   9  16  30  55  80  97 129 178 220 258 303
#     4  10  19  35  56  76 103 139 182 223 265 326
#     4  11  22  38  59  82 110 147 189 227 272 333
#     4  12  24  33  48  79 113 140 172 222 281 328
#     4   9  19  35  56  81 109 145 185 227 279 333
#
# _framework density 18.294222000000001
#
# number of rings (size 3 to 8) (size 9 to 14) (size 15 to 20)
#    0.000    1.833    1.667    3.000    0.000    7.000 
#    0.000    1.667    0.000    3.000    0.000    0.000 
#    0.000    0.000    0.000    0.000    0.000    0.000 
#
# Total GULP energy -595377.242276 kJ/mol
# GULP energy per Si atom -12403.692547 kJ/mol
# Density = 1.825258 g / cm^3
# Si number density = 18.294222 Si / 1000 Ang^3
#
#
#
# Elastic Constant Matrix: (Units=GPa)
#
#
# Indices 1 2 3 4 5 6 
#
# 1 144.4684 73.9853 45.5801 0.0000 0.0000 0.0000
# 2 73.9853 109.2104 37.7907 0.0000 0.0000 0.0000
# 3 45.5801 37.7907 65.7180 0.0000 0.0000 0.0000
# 4 0.0000 0.0000 0.0000 25.3492 0.0000 0.0000
# 5 0.0000 0.0000 0.0000 0.0000 18.2791 0.0000
# 6 0.0000 0.0000 0.0000 0.0000 0.0000 18.6418
#
#
#
# Elastic Compliance Matrix: (Units=1/GPa)
#
#
# Indices 1 2 3 4 5 6 
#
# 1 0.011525 -0.006294 -0.004374 0.000000 0.000000 0.000000
# 2 -0.006294 0.014869 -0.004185 0.000000 0.000000 0.000000
# 3 -0.004374 -0.004185 0.020657 0.000000 0.000000 0.000000
# 4 0.000000 0.000000 0.000000 0.039449 0.000000 0.000000
# 5 0.000000 0.000000 0.000000 0.000000 0.054707 0.000000
# 6 0.000000 0.000000 0.000000 0.000000 0.000000 0.053643
#
#
# Mechanical properties :
#
#
# Convention : Reuss Voigt Hill
#
# Bulk Modulus (GPa) = 57.65485 70.45657 64.05571
# Shear Modulus (GPa) = 21.70721 23.25673 22.48197
#
# Velocity S-wave (km/s) = 3.44839 3.56934 3.50939
# Velocity P-wave (km/s) = 6.88759 7.45544 7.17713
#
# Compressibility (1/GPa) = 0.01734460
#
# Stress axis : x y z
#
# Youngs Moduli (GPa) = 86.76426 67.25474 48.41049
#
# Poissons Ratio (x) = 0.42333 0.21176
# Poissons Ratio (y) = 0.54613 0.20258
# Poissons Ratio (z) = 0.37952 0.28144
#
# Static dielectric constant tensor:
#      x y z
#    x 3.487260 0.000000 0.000000 
#    y 0.000000 3.498830 0.000000 
#    z 0.000000 0.000000 3.310220 
# 
# 
# High freq. dielectric constant tensor:
#      x y z
#    x 1.711320 0.000000 0.000000 
#    y 0.000000 1.711280 0.000000 
#    z 0.000000 0.000000 1.703310 
# 
# From -- ./inp_files/12968.got.cif
#   From: 2010.06.25/outbox.cif.g09.slc.cpg/sg71_7_cif.got.tgz:12968.got - 2010.06.28 04:59:45.
