data_PCOD8289173
_publ_section_title
;
Structure prediction by ZEFSAII (Michael W. Deem and Ramdas Pophale) SiO2 
 PCOD8289173
Probable space group: I M M M
;
_chemical_formula_sum "Si O2"
_cell_formula_units_Z 80
_cell_length_a 12.607781
_cell_length_b 23.809382
_cell_length_c 14.067971
_cell_angle_alpha 90.000000
_cell_angle_beta 90.000000
_cell_angle_gamma 90.000000
_cell_volume 4222.972407
_symmetry_space_group_name_H-M "I M M M"
_symmetry_group_IT_number 71
_symmetry_cell_setting 'orthorhombic'
loop_
_space_group_symop_operation_xyz
x,y,z
-x,-y,z
x,-y,-z
-x,y,-z
-x,-y,-z
x,y,-z
-x,y,z
x,-y,z
1/2+x,1/2+y,1/2+z
1/2-x,1/2-y,1/2+z
1/2+x,1/2-y,1/2-z
1/2-x,1/2+y,1/2-z
1/2-x,1/2-y,1/2-z
1/2+x,1/2+y,1/2-z
1/2-x,1/2+y,1/2+z
1/2+x,1/2-y,1/2+z
loop_
_atom_site_type_symbol
_atom_site_label
_atom_site_fract_x
_atom_site_fract_y
_atom_site_fract_z
Si Si1 0.380478 0.362969 0.798368
Si Si2 0.798858 0.565830 0.892110
Si Si3 0.826549 0.747790 0.391954
Si Si4 0.000000 0.342507 0.610102
Si Si5 0.380624 0.683673 0.605655
Si Si6 0.500000 0.066052 0.267526
O O1 0.500000 0.379173 0.826972
O O2 0.305963 0.405949 0.851606
O O3 0.356753 0.298771 0.824805
O O4 0.364320 0.365583 0.683771
O O5 0.779694 0.500000 0.888384
O O6 0.898780 0.583649 0.829533
O O7 0.818672 0.586115 0.000000
O O8 0.852257 0.765544 0.500000
O O9 0.895529 0.693334 0.364101
O O10 0.702333 0.734185 0.378232
O O11 0.000000 0.360350 0.500000
O O12 0.000000 0.399730 0.669901
O O13 0.363184 0.657531 0.500000
O O14 0.500000 0.708675 0.615564
O O15 0.500000 0.000000 0.243215
#
# Coordination Sequence:
#
# PCOD8289173 Si02
#       6
#    16  16  16   8  16   8
#     4  11  21  35  57  80 110 147 183 226 277 333
#     4  10  22  40  60  82 109 143 185 234 284 331
#     4  10  19  33  52  77 112 147 182 224 273 327
#     4  10  20  34  57  86 115 151 187 225 275 326
#     4   9  19  34  51  75 108 146 183 223 270 322
#     4  10  21  39  60  81 111 149 188 229 277 330
#
# _framework density 18.944002000000001
#
# number of rings (size 3 to 8) (size 9 to 14) (size 15 to 20)
#    0.000    2.000    1.000    2.700    0.000    3.000 
#    1.800    1.000    0.000    1.800    0.000    2.800 
#    0.000    0.000    0.000    0.000    0.000    0.000 
#
# Total GULP energy -496001.140964 kJ/mol
# GULP energy per Si atom -12400.028524 kJ/mol
# Density = 1.890088 g / cm^3
# Si number density = 18.944002 Si / 1000 Ang^3
#
#
#
# Elastic Constant Matrix: (Units=GPa)
#
#
# Indices 1 2 3 4 5 6 
#
# 1 132.3039 45.0189 56.9602 0.0000 0.0000 0.0000
# 2 45.0189 37.1791 45.0241 0.0002 0.0000 -0.0001
# 3 56.9602 45.0241 118.4116 0.0005 -0.0001 -0.0001
# 4 0.0000 0.0002 0.0005 25.0125 0.0000 -0.0001
# 5 0.0000 0.0000 -0.0001 0.0000 29.9495 0.0000
# 6 0.0000 -0.0001 -0.0001 -0.0001 0.0000 28.4148
#
#
#
# Elastic Compliance Matrix: (Units=1/GPa)
#
#
# Indices 1 2 3 4 5 6 
#
# 1 0.012870 -0.014988 -0.000492 0.000000 0.000000 0.000000
# 2 -0.014988 0.067307 -0.018382 0.000000 0.000000 0.000000
# 3 -0.000492 -0.018382 0.015671 0.000000 0.000000 0.000000
# 4 0.000000 0.000000 0.000000 0.039980 0.000000 0.000000
# 5 0.000000 0.000000 0.000000 0.000000 0.033390 0.000000
# 6 0.000000 0.000000 0.000000 0.000000 0.000000 0.035193
#
#
# Mechanical properties :
#
#
# Convention : Reuss Voigt Hill
#
# Bulk Modulus (GPa) = 35.55806 64.65566 50.10686
# Shear Modulus (GPa) = 17.76133 26.06813 21.91473
#
# Velocity S-wave (km/s) = 3.06530 3.71356 3.40489
# Velocity P-wave (km/s) = 5.59812 7.25199 6.47805
#
# Compressibility (1/GPa) = 0.02812302
#
# Stress axis : x y z
#
# Youngs Moduli (GPa) = 77.69872 14.85735 63.81065
#
# Poissons Ratio (x) = 0.22269 0.03139
# Poissons Ratio (y) = 1.16457 1.17299
# Poissons Ratio (z) = 0.03823 0.27311
#
# Static dielectric constant tensor:
#      x y z
#    x 3.736150 0.000000 0.000000 
#    y 0.000000 3.048220 0.000000 
#    z 0.000000 0.000000 3.785380 
# 
# 
# High freq. dielectric constant tensor:
#      x y z
#    x 1.757600 0.000000 0.000000 
#    y 0.000000 1.692020 0.000000 
#    z 0.000000 0.000000 1.756270 
# 
# From -- ./inp_files/32692.got.cif
#   From: 2010.06.25/outbox.cif.g09.slc.cpg/sg71_17_cif.got.tgz:32692.got - 2010.06.28 04:59:45.
