data_PCOD8289625
_publ_section_title
;
Structure prediction by ZEFSAII (Michael W. Deem and Ramdas Pophale) SiO2 
 PCOD8289625
Probable space group: I M M M
;
_chemical_formula_sum "Si O2"
_cell_formula_units_Z 64
_cell_length_a 8.654582
_cell_length_b 20.749024
_cell_length_c 17.830785
_cell_angle_alpha 90.000000
_cell_angle_beta 90.000000
_cell_angle_gamma 90.000000
_cell_volume 3201.947697
_symmetry_space_group_name_H-M "I M M M"
_symmetry_group_IT_number 71
_symmetry_cell_setting 'orthorhombic'
loop_
_space_group_symop_operation_xyz
x,y,z
-x,-y,z
x,-y,-z
-x,y,-z
-x,-y,-z
x,y,-z
-x,y,z
x,-y,z
1/2+x,1/2+y,1/2+z
1/2-x,1/2-y,1/2+z
1/2+x,1/2-y,1/2-z
1/2-x,1/2+y,1/2-z
1/2-x,1/2-y,1/2-z
1/2+x,1/2+y,1/2-z
1/2-x,1/2+y,1/2+z
1/2+x,1/2-y,1/2+z
loop_
_atom_site_type_symbol
_atom_site_label
_atom_site_fract_x
_atom_site_fract_y
_atom_site_fract_z
Si Si1 0.677501 0.374755 0.911527
Si Si2 0.683222 0.248383 0.332451
Si Si3 0.317799 0.000000 0.339413
Si Si4 0.816215 0.123880 0.915663
Si Si5 0.183727 0.000000 0.174211
O O1 0.500000 0.378205 0.885496
O O2 0.757697 0.313640 0.875366
O O3 0.763756 0.438137 0.884832
O O4 0.692857 0.368888 0.000000
O O5 0.500000 0.246912 0.328623
O O6 0.750000 0.250000 0.250000
O O7 0.743985 0.311284 0.376258
O O8 0.247659 0.000000 0.257237
O O9 0.500000 0.000000 0.332908
O O10 0.753665 0.062803 0.869249
O O11 0.000000 0.122742 0.917863
O O12 0.749415 0.120865 0.000000
O O13 0.000000 0.000000 0.177866
#
# Coordination Sequence:
#
# PCOD8289625 Si02
#       5
#    16  16   8  16   8
#     4  11  24  42  63  87 117 154 198 249 303 358
#     4  11  22  37  59  87 122 161 202 248 297 354
#     4  12  25  40  61  88 119 154 193 240 296 364
#     4   9  18  33  56  86 116 150 195 243 288 338
#     4  10  19  35  61  88 117 153 193 240 292 348
#
# _framework density 19.987835
#
# number of rings (size 3 to 8) (size 9 to 14) (size 15 to 20)
#    0.000    1.500    0.000    5.625    0.000    8.000 
#    0.000    1.250    0.000    4.500    0.000    0.000 
#    0.000    0.000    0.000    0.000    0.000    0.000 
#
# Total GULP energy -396938.627791 kJ/mol
# GULP energy per Si atom -12404.332118 kJ/mol
# Density = 1.994234 g / cm^3
# Si number density = 19.987835 Si / 1000 Ang^3
#
#
#
# Elastic Constant Matrix: (Units=GPa)
#
#
# Indices 1 2 3 4 5 6 
#
# 1 103.8771 51.9226 35.6192 0.0000 0.0000 0.0000
# 2 51.9226 190.4680 56.5133 0.0000 0.0000 0.0000
# 3 35.6192 56.5133 114.5821 0.0000 0.0000 0.0000
# 4 0.0000 0.0000 0.0000 81.5354 0.0000 0.0000
# 5 0.0000 0.0000 0.0000 0.0000 27.4544 0.0000
# 6 0.0000 0.0000 0.0000 0.0000 0.0000 39.9722
#
#
#
# Elastic Compliance Matrix: (Units=1/GPa)
#
#
# Indices 1 2 3 4 5 6 
#
# 1 0.011690 -0.002470 -0.002416 0.000000 0.000000 0.000000
# 2 -0.002470 0.006672 -0.002523 0.000000 0.000000 0.000000
# 3 -0.002416 -0.002523 0.010723 0.000000 0.000000 0.000000
# 4 0.000000 0.000000 0.000000 0.012265 0.000000 0.000000
# 5 0.000000 0.000000 0.000000 0.000000 0.036424 0.000000
# 6 0.000000 0.000000 0.000000 0.000000 0.000000 0.025017
#
#
# Mechanical properties :
#
#
# Convention : Reuss Voigt Hill
#
# Bulk Modulus (GPa) = 70.09022 77.44861 73.76941
# Shear Modulus (GPa) = 40.86188 47.45053 44.15621
#
# Velocity S-wave (km/s) = 4.52634 4.87763 4.70526
# Velocity P-wave (km/s) = 7.90314 8.39962 8.15516
#
# Compressibility (1/GPa) = 0.01426733
#
# Stress axis : x y z
#
# Youngs Moduli (GPa) = 85.54562 149.87732 93.26033
#
# Poissons Ratio (x) = 0.37018 0.22529
# Poissons Ratio (y) = 0.21129 0.23529
# Poissons Ratio (z) = 0.20665 0.37814
#
# Static dielectric constant tensor:
#      x y z
#    x 3.533680 0.000000 0.000000 
#    y 0.000000 3.964240 0.000000 
#    z 0.000000 0.000000 3.857610 
# 
# 
# High freq. dielectric constant tensor:
#      x y z
#    x 1.761650 0.000000 0.000000 
#    y 0.000000 1.803560 0.000000 
#    z 0.000000 0.000000 1.802100 
# 
# From -- ./inp_files/41862.got.cif
#   From: 2010.06.25/outbox.cif.g09.slc.cpg/sg71_21_cif.got.tgz:41862.got - 2010.06.28 04:59:45.
