data_PCOD8289379
_publ_section_title
;
Structure prediction by ZEFSAII (Michael W. Deem and Ramdas Pophale) SiO2 
 PCOD8289379
Probable space group: I M M M
;
_chemical_formula_sum "Si O2"
_cell_formula_units_Z 88
_cell_length_a 16.883901
_cell_length_b 21.843780
_cell_length_c 13.776744
_cell_angle_alpha 90.000000
_cell_angle_beta 90.000000
_cell_angle_gamma 90.000000
_cell_volume 5080.976418
_symmetry_space_group_name_H-M "I M M M"
_symmetry_group_IT_number 71
_symmetry_cell_setting 'orthorhombic'
loop_
_space_group_symop_operation_xyz
x,y,z
-x,-y,z
x,-y,-z
-x,y,-z
-x,-y,-z
x,y,-z
-x,y,z
x,-y,z
1/2+x,1/2+y,1/2+z
1/2-x,1/2-y,1/2+z
1/2+x,1/2-y,1/2-z
1/2-x,1/2+y,1/2-z
1/2-x,1/2-y,1/2-z
1/2+x,1/2+y,1/2-z
1/2-x,1/2+y,1/2+z
1/2+x,1/2-y,1/2+z
loop_
_atom_site_type_symbol
_atom_site_label
_atom_site_fract_x
_atom_site_fract_y
_atom_site_fract_z
Si Si1 0.000000 0.072467 0.892196
Si Si2 0.151394 0.071685 0.227942
Si Si3 0.322014 0.233010 0.391020
Si Si4 0.909381 0.287301 0.700962
Si Si5 0.729564 0.856792 0.887264
Si Si6 0.659934 0.667660 0.111005
O O1 0.078342 0.095096 0.837503
O O2 0.000000 0.000000 0.899556
O O3 0.000000 0.101564 0.000000
O O4 0.233022 0.086495 0.171342
O O5 0.144391 0.105730 0.330381
O O6 0.147421 0.000000 0.249522
O O7 0.356837 0.230336 0.500000
O O8 0.391050 0.218118 0.315540
O O9 0.286789 0.299476 0.367433
O O10 0.252149 0.184040 0.377828
O O11 0.857630 0.341041 0.652159
O O12 0.894218 0.222895 0.648704
O O13 0.000000 0.306508 0.688064
O O14 0.723527 0.873780 0.000000
O O15 0.637046 0.655089 0.000000
#
# Coordination Sequence:
#
# PCOD8289379 Si02
#       6
#     8  16  16  16  16  16
#     4   9  20  36  51  73 103 135 176 222 262 303
#     4  11  21  35  55  78 106 143 182 219 263 314
#     4   9  17  33  55  76 102 136 172 219 274 318
#     4  11  20  33  54  81 111 140 175 219 270 323
#     4  10  19  34  54  76 106 140 178 220 264 319
#     4  10  20  35  54  75 105 141 177 216 260 317
#
# _framework density 17.319506000000001
#
# number of rings (size 3 to 8) (size 9 to 14) (size 15 to 20)
#    0.000    1.909    3.636    3.273    1.273    3.273 
#    0.000    0.000    0.000    2.182    0.000    1.273 
#    0.000    2.909    0.000    0.000    0.000    0.000 
#
# Total GULP energy -545701.455544 kJ/mol
# GULP energy per Si atom -12402.305808 kJ/mol
# Density = 1.728009 g / cm^3
# Si number density = 17.319506 Si / 1000 Ang^3
#
#
#
# Elastic Constant Matrix: (Units=GPa)
#
#
# Indices 1 2 3 4 5 6 
#
# 1 106.6511 29.8901 48.6967 0.0000 0.0000 0.0000
# 2 29.8901 59.5706 34.8158 0.0000 0.0000 0.0000
# 3 48.6967 34.8158 132.7969 0.0000 0.0000 0.0000
# 4 0.0000 0.0000 0.0000 24.9504 0.0000 0.0000
# 5 0.0000 0.0000 0.0000 0.0000 23.1258 0.0000
# 6 0.0000 0.0000 0.0000 0.0000 0.0000 16.5491
#
#
#
# Elastic Compliance Matrix: (Units=1/GPa)
#
#
# Indices 1 2 3 4 5 6 
#
# 1 0.012051 -0.004091 -0.003347 0.000000 0.000000 0.000000
# 2 -0.004091 0.021213 -0.004061 0.000000 0.000000 0.000000
# 3 -0.003347 -0.004061 0.009822 0.000000 0.000000 0.000000
# 4 0.000000 0.000000 0.000000 0.040080 0.000000 0.000000
# 5 0.000000 0.000000 0.000000 0.000000 0.043242 0.000000
# 6 0.000000 0.000000 0.000000 0.000000 0.000000 0.060426
#
#
# Mechanical properties :
#
#
# Convention : Reuss Voigt Hill
#
# Bulk Modulus (GPa) = 49.77916 58.42487 54.10201
# Shear Modulus (GPa) = 23.09175 25.29945 24.19560
#
# Velocity S-wave (km/s) = 3.65537 3.82612 3.74172
# Velocity P-wave (km/s) = 6.82786 7.30245 7.06914
#
# Compressibility (1/GPa) = 0.02008873
#
# Stress axis : x y z
#
# Youngs Moduli (GPa) = 82.98151 47.14081 101.80929
#
# Poissons Ratio (x) = 0.19284 0.34071
# Poissons Ratio (y) = 0.33946 0.41349
# Poissons Ratio (z) = 0.27770 0.19146
#
# Static dielectric constant tensor:
#      x y z
#    x 3.098550 0.000000 0.000000 
#    y 0.000000 2.905380 0.000000 
#    z 0.000000 0.000000 3.451980 
# 
# 
# High freq. dielectric constant tensor:
#      x y z
#    x 1.653610 0.000000 0.000000 
#    y 0.000000 1.633620 0.000000 
#    z 0.000000 0.000000 1.689880 
# 
# From -- ./inp_files/34386.got.cif
#   From: 2010.06.25/outbox.cif.g09.slc.cpg/sg71_18_cif.got.tgz:34386.got - 2010.06.28 04:59:45.
