data_PCOD8289060
_publ_section_title
;
Structure prediction by ZEFSAII (Michael W. Deem and Ramdas Pophale) SiO2 
 PCOD8289060
Probable space group: I M M M
;
_chemical_formula_sum "Si O2"
_cell_formula_units_Z 72
_cell_length_a 19.730281
_cell_length_b 9.553004
_cell_length_c 20.314509
_cell_angle_alpha 90.000000
_cell_angle_beta 90.000000
_cell_angle_gamma 90.000000
_cell_volume 3828.948809
_symmetry_space_group_name_H-M "I M M M"
_symmetry_group_IT_number 71
_symmetry_cell_setting 'orthorhombic'
loop_
_space_group_symop_operation_xyz
x,y,z
-x,-y,z
x,-y,-z
-x,y,-z
-x,-y,-z
x,y,-z
-x,y,z
x,-y,z
1/2+x,1/2+y,1/2+z
1/2-x,1/2-y,1/2+z
1/2+x,1/2-y,1/2-z
1/2-x,1/2+y,1/2-z
1/2-x,1/2-y,1/2-z
1/2+x,1/2+y,1/2-z
1/2-x,1/2+y,1/2+z
1/2+x,1/2-y,1/2+z
loop_
_atom_site_type_symbol
_atom_site_label
_atom_site_fract_x
_atom_site_fract_y
_atom_site_fract_z
Si Si1 0.424504 0.834128 0.361772
Si Si2 0.624332 0.843856 0.887399
Si Si3 0.816612 0.341703 0.756309
Si Si4 0.863574 0.335109 0.000000
Si Si5 0.500000 0.339605 0.077434
Si Si6 0.228005 0.661635 0.500000
O O1 0.500000 0.774558 0.345764
O O2 0.368358 0.776106 0.310422
O O3 0.405456 0.788550 0.435760
O O4 0.426270 0.000000 0.355233
O O5 0.646524 0.841648 0.812763
O O6 0.565612 0.732220 0.893186
O O7 0.598779 0.000000 0.906994
O O8 0.685676 0.800488 0.934897
O O9 0.795841 0.500000 0.776401
O O10 0.750000 0.250000 0.750000
O O11 0.792321 0.259398 0.000000
O O12 0.849605 0.500000 0.000000
O O13 0.500000 0.500000 0.099648
O O14 0.500000 0.321715 0.000000
O O15 0.250721 0.500000 0.500000
#
# Coordination Sequence:
#
# PCOD8289060 Si02
#       6
#    16  16  16   8   8   8
#     4   9  18  33  54  81 108 138 181 227 272 324
#     4  10  21  36  56  79 107 148 189 223 271 334
#     4  10  21  36  57  82 110 147 186 230 278 328
#     4  10  19  32  55  81 106 137 175 227 281 318
#     4  11  23  37  55  83 113 142 179 234 288 327
#     4  10  20  34  52  77 107 141 180 219 264 326
#
# _framework density 18.804117000000002
#
# number of rings (size 3 to 8) (size 9 to 14) (size 15 to 20)
#    0.000    2.111    1.111    2.000    1.556    3.556 
#    0.000    0.000    0.000    2.667    0.000    0.000 
#    0.000    0.000    0.000    0.000    0.000    0.000 
#
# Total GULP energy -446406.303394 kJ/mol
# GULP energy per Si atom -12400.175094 kJ/mol
# Density = 1.876132 g / cm^3
# Si number density = 18.804117 Si / 1000 Ang^3
#
#
#
# Elastic Constant Matrix: (Units=GPa)
#
#
# Indices 1 2 3 4 5 6 
#
# 1 161.9100 63.1865 60.6746 0.0000 0.0000 0.0000
# 2 63.1865 70.6474 24.7392 0.0000 0.0000 0.0000
# 3 60.6746 24.7392 119.8613 0.0000 0.0000 0.0000
# 4 0.0000 0.0000 0.0000 -1.8042 0.0000 0.0000
# 5 0.0000 0.0000 0.0000 0.0000 32.5647 0.0000
# 6 0.0000 0.0000 0.0000 0.0000 0.0000 37.7356
#
#
#
# Elastic Compliance Matrix: (Units=1/GPa)
#
#
# Indices 1 2 3 4 5 6 
#
# 1 0.010866 -0.008399 -0.003767 0.000000 0.000000 0.000000
# 2 -0.008399 0.021750 -0.000238 0.000000 0.000000 0.000000
# 3 -0.003767 -0.000238 0.010299 0.000000 0.000000 0.000000
# 4 0.000000 0.000000 0.000000 -0.554271 0.000000 0.000000
# 5 0.000000 0.000000 0.000000 0.000000 0.030708 0.000000
# 6 0.000000 0.000000 0.000000 0.000000 0.000000 0.026500
#
#
# Mechanical properties :
#
#
# Convention : Reuss Voigt Hill
#
# Bulk Modulus (GPa) = 55.22476 72.17992 63.70234
# Shear Modulus (GPa) = -11.81180 27.28711 7.73765
#
# Velocity S-wave (km/s) = -2.50901 3.81349 2.03072
# Velocity P-wave (km/s) = 4.58679 7.60650 6.28082
#
# Compressibility (1/GPa) = 0.01810782
#
# Stress axis : x y z
#
# Youngs Moduli (GPa) = 92.03347 45.97683 97.09950
#
# Poissons Ratio (x) = 0.38616 0.36574
# Poissons Ratio (y) = 0.77300 0.02306
# Poissons Ratio (z) = 0.34666 0.01092
#
# Static dielectric constant tensor:
#      x y z
#    x 3.487780 0.000000 0.000000 
#    y 0.000000 3.380440 0.000000 
#    z 0.000000 0.000000 3.688330 
# 
# 
# High freq. dielectric constant tensor:
#      x y z
#    x 1.737100 0.000000 0.000000 
#    y 0.000000 1.701020 0.000000 
#    z 0.000000 0.000000 1.747120 
# 
# From -- ./inp_files/54692.got.cif
#   From: 2010.06.25/outbox.cif.g09.slc.cpg/sg71_28_cif.got.tgz:54692.got - 2010.06.28 04:59:45.
