data_PCOD8289159
_publ_section_title
;
Structure prediction by ZEFSAII (Michael W. Deem and Ramdas Pophale) SiO2 
 PCOD8289159
Probable space group: I M M M
;
_chemical_formula_sum "Si O2"
_cell_formula_units_Z 88
_cell_length_a 27.064054
_cell_length_b 14.414469
_cell_length_c 12.564984
_cell_angle_alpha 90.000000
_cell_angle_beta 90.000000
_cell_angle_gamma 90.000000
_cell_volume 4901.775759
_symmetry_space_group_name_H-M "I M M M"
_symmetry_group_IT_number 71
_symmetry_cell_setting 'orthorhombic'
loop_
_space_group_symop_operation_xyz
x,y,z
-x,-y,z
x,-y,-z
-x,y,-z
-x,-y,-z
x,y,-z
-x,y,z
x,-y,z
1/2+x,1/2+y,1/2+z
1/2-x,1/2-y,1/2+z
1/2+x,1/2-y,1/2-z
1/2-x,1/2+y,1/2-z
1/2-x,1/2-y,1/2-z
1/2+x,1/2+y,1/2-z
1/2-x,1/2+y,1/2+z
1/2+x,1/2-y,1/2+z
loop_
_atom_site_type_symbol
_atom_site_label
_atom_site_fract_x
_atom_site_fract_y
_atom_site_fract_z
Si Si1 0.183593 0.000000 0.874414
Si Si2 0.941289 0.000000 0.373344
Si Si3 0.622230 0.351861 0.252158
Si Si4 0.798781 0.500000 0.624582
Si Si5 0.055270 0.606080 0.318536
Si Si6 0.556164 0.218448 0.381628
Si Si7 0.349005 0.186326 0.881654
O O1 0.160621 0.089255 0.819498
O O2 0.241380 0.000000 0.849428
O O3 0.172694 0.000000 0.000000
O O4 0.913544 0.909823 0.326208
O O5 0.934471 0.000000 0.500000
O O6 0.000000 0.000000 0.343657
O O7 0.588104 0.302916 0.338550
O O8 0.657040 0.278989 0.188199
O O9 0.810716 0.500000 0.500000
O O10 0.822534 0.404377 0.671421
O O11 0.068204 0.500000 0.337716
O O12 0.062145 0.628511 0.193335
O O13 0.092165 0.667194 0.388765
O O14 0.000000 0.630041 0.356758
O O15 0.573858 0.190649 0.500000
O O16 0.500000 0.253669 0.382941
O O17 0.328075 0.205286 0.000000
#
# Coordination Sequence:
#
# PCOD8289159 Si02
#       7
#     8   8  16   8  16  16  16
#     4  10  21  37  55  75  97 124 166 217 263 306
#     4  10  20  34  51  74 107 141 170 204 248 298
#     4  10  20  33  52  76  99 130 171 208 249 300
#     4   9  19  35  54  75  99 129 165 206 258 311
#     4   9  17  28  44  70 101 133 169 202 235 285
#     4   9  17  29  45  67  97 130 162 199 242 287
#     4  10  19  33  52  75 104 135 166 205 250 302
#
# _framework density 17.952677000000001
#
# number of rings (size 3 to 8) (size 9 to 14) (size 15 to 20)
#    0.000    2.455    0.909    1.636    0.000    2.182 
#    0.000    2.727    0.000    4.364    0.000   17.818 
#    0.000    0.000    0.000    0.000    0.000    0.000 
#
# Total GULP energy -545368.122421 kJ/mol
# GULP energy per Si atom -12394.730055 kJ/mol
# Density = 1.791182 g / cm^3
# Si number density = 17.952677 Si / 1000 Ang^3
#
#
#
# Elastic Constant Matrix: (Units=GPa)
#
#
# Indices 1 2 3 4 5 6 
#
# 1 76.6843 38.4916 28.3242 0.0000 0.0000 0.0000
# 2 38.4916 94.6884 24.2230 0.0000 0.0000 0.0000
# 3 28.3242 24.2230 73.3091 0.0000 0.0000 0.0000
# 4 0.0000 0.0000 0.0000 17.9208 0.0000 0.0000
# 5 0.0000 0.0000 0.0000 0.0000 22.5207 0.0000
# 6 0.0000 0.0000 0.0000 0.0000 0.0000 20.9456
#
#
#
# Elastic Compliance Matrix: (Units=1/GPa)
#
#
# Indices 1 2 3 4 5 6 
#
# 1 0.017873 -0.006007 -0.004921 0.000000 0.000000 0.000000
# 2 -0.006007 0.013555 -0.002158 0.000000 0.000000 0.000000
# 3 -0.004921 -0.002158 0.016255 0.000000 0.000000 0.000000
# 4 0.000000 0.000000 0.000000 0.055801 0.000000 0.000000
# 5 0.000000 0.000000 0.000000 0.000000 0.044404 0.000000
# 6 0.000000 0.000000 0.000000 0.000000 0.000000 0.047743
#
#
# Mechanical properties :
#
#
# Convention : Reuss Voigt Hill
#
# Bulk Modulus (GPa) = 46.48578 47.41772 46.95175
# Shear Modulus (GPa) = 21.83669 22.52027 22.17848
#
# Velocity S-wave (km/s) = 3.49140 3.54563 3.51862
# Velocity P-wave (km/s) = 6.49638 6.57510 6.53586
#
# Compressibility (1/GPa) = 0.02151195
#
# Stress axis : x y z
#
# Youngs Moduli (GPa) = 55.94991 73.77461 61.51889
#
# Poissons Ratio (x) = 0.44314 0.30272
# Poissons Ratio (y) = 0.33608 0.13276
# Poissons Ratio (z) = 0.27532 0.15921
#
# Static dielectric constant tensor:
#      x y z
#    x 3.225850 0.000000 0.000000 
#    y 0.000000 3.409660 0.000000 
#    z 0.000000 0.000000 3.317730 
# 
# 
# High freq. dielectric constant tensor:
#      x y z
#    x 1.684460 0.000000 0.000000 
#    y 0.000000 1.698340 0.000000 
#    z 0.000000 0.000000 1.687260 
# 
# From -- ./inp_files/28660.got.cif
#   From: 2010.06.25/outbox.cif.g09.slc.cpg/sg71_15_cif.got.tgz:28660.got - 2010.06.28 04:59:45.
