data_PCOD8289735
_publ_section_title
;
Structure prediction by ZEFSAII (Michael W. Deem and Ramdas Pophale) SiO2 
 PCOD8289735
Probable space group: I M M M
;
_chemical_formula_sum "Si O2"
_cell_formula_units_Z 96
_cell_length_a 19.697629
_cell_length_b 25.810155
_cell_length_c 10.482186
_cell_angle_alpha 90.000000
_cell_angle_beta 90.000000
_cell_angle_gamma 90.000000
_cell_volume 5329.131388
_symmetry_space_group_name_H-M "I M M M"
_symmetry_group_IT_number 71
_symmetry_cell_setting 'orthorhombic'
loop_
_space_group_symop_operation_xyz
x,y,z
-x,-y,z
x,-y,-z
-x,y,-z
-x,-y,-z
x,y,-z
-x,y,z
x,-y,z
1/2+x,1/2+y,1/2+z
1/2-x,1/2-y,1/2+z
1/2+x,1/2-y,1/2-z
1/2-x,1/2+y,1/2-z
1/2-x,1/2-y,1/2-z
1/2+x,1/2+y,1/2-z
1/2-x,1/2+y,1/2+z
1/2+x,1/2-y,1/2+z
loop_
_atom_site_type_symbol
_atom_site_label
_atom_site_fract_x
_atom_site_fract_y
_atom_site_fract_z
Si Si1 0.576388 0.750802 0.747229
Si Si2 0.424830 0.361576 0.350492
Si Si3 0.422324 0.861863 0.356953
Si Si4 0.819456 0.390805 0.644905
Si Si5 0.683373 0.442428 0.651356
Si Si6 0.709173 0.225603 0.863714
O O1 0.500000 0.748964 0.803466
O O2 0.595389 0.697966 0.674521
O O3 0.585023 0.799600 0.652438
O O4 0.629739 0.758576 0.861141
O O5 0.426392 0.370381 0.500000
O O6 0.500000 0.373318 0.293579
O O7 0.370185 0.401234 0.288284
O O8 0.398195 0.877536 0.500000
O O9 0.500000 0.878580 0.335674
O O10 0.379889 0.892286 0.248453
O O11 0.846233 0.403155 0.500000
O O12 0.761130 0.430442 0.690331
O O13 0.782459 0.335637 0.645006
O O14 0.678171 0.439530 0.500000
O O15 0.665079 0.500000 0.701292
O O16 0.750000 0.250000 0.750000
O O17 0.738089 0.245099 0.000000
#
# Coordination Sequence:
#
# PCOD8289735 Si02
#       6
#    16  16  16  16  16  16
#     4   9  17  29  45  66  95 128 158 186 221 271
#     4   9  16  26  42  65  94 126 157 191 233 277
#     4   9  17  29  47  72  99 125 153 185 223 272
#     4   9  18  31  46  66  92 123 157 191 231 277
#     4   9  17  29  45  64  87 118 158 202 241 276
#     4  10  20  31  45  67  95 126 157 191 230 274
#
# _framework density 18.014192999999999
#
# number of rings (size 3 to 8) (size 9 to 14) (size 15 to 20)
#    0.000    2.833    0.000    1.500    0.000    7.667 
#    0.000    5.000    0.000    1.000    0.000    3.500 
#    0.000    0.000    0.000   10.167    0.000    3.167 
#
# Total GULP energy -594782.305279 kJ/mol
# GULP energy per Si atom -12391.298027 kJ/mol
# Density = 1.797319 g / cm^3
# Si number density = 18.014193 Si / 1000 Ang^3
#
#
#
# Elastic Constant Matrix: (Units=GPa)
#
#
# Indices 1 2 3 4 5 6 
#
# 1 74.3464 36.3897 33.6194 0.0000 0.0000 0.0000
# 2 36.3897 57.6396 2.2908 0.0000 0.0000 0.0000
# 3 33.6194 2.2908 82.2749 0.0000 0.0000 0.0000
# 4 0.0000 0.0000 0.0000 12.0042 0.0000 0.0000
# 5 0.0000 0.0000 0.0000 0.0000 25.2486 0.0000
# 6 0.0000 0.0000 0.0000 0.0000 0.0000 26.1414
#
#
#
# Elastic Compliance Matrix: (Units=1/GPa)
#
#
# Indices 1 2 3 4 5 6 
#
# 1 0.025788 -0.015880 -0.010095 0.000000 0.000000 0.000000
# 2 -0.015880 0.027147 0.005733 0.000000 0.000000 0.000000
# 3 -0.010095 0.005733 0.016120 0.000000 0.000000 0.000000
# 4 0.000000 0.000000 0.000000 0.083304 0.000000 0.000000
# 5 0.000000 0.000000 0.000000 0.000000 0.039606 0.000000
# 6 0.000000 0.000000 0.000000 0.000000 0.000000 0.038253
#
#
# Mechanical properties :
#
#
# Convention : Reuss Voigt Hill
#
# Bulk Modulus (GPa) = 35.00125 39.87340 37.43733
# Shear Modulus (GPa) = 17.84272 22.14291 19.99281
#
# Velocity S-wave (km/s) = 3.15061 3.50979 3.33504
# Velocity P-wave (km/s) = 5.71901 6.21348 5.97136
#
# Compressibility (1/GPa) = 0.02857041
#
# Stress axis : x y z
#
# Youngs Moduli (GPa) = 38.77751 36.83698 62.03481
#
# Poissons Ratio (x) = 0.58496 0.62627
# Poissons Ratio (y) = 0.61577 -0.35564
# Poissons Ratio (z) = 0.39148 -0.21118
#
# Static dielectric constant tensor:
#      x y z
#    x 3.610150 0.000000 0.000000 
#    y 0.000000 3.273230 0.000000 
#    z 0.000000 0.000000 3.075260 
# 
# 
# High freq. dielectric constant tensor:
#      x y z
#    x 1.707190 0.000000 0.000000 
#    y 0.000000 1.674430 0.000000 
#    z 0.000000 0.000000 1.658720 
# 
# From -- ./inp_files/24424.got.cif
#   From: 2010.06.25/outbox.cif.g09.slc.cpg/sg71_13_cif.got.tgz:24424.got - 2010.06.28 04:59:45.
