data_PCOD8289940
_publ_section_title
;
Structure prediction by ZEFSAII (Michael W. Deem and Ramdas Pophale) SiO2 
 PCOD8289940
Probable space group: I M M M
;
_chemical_formula_sum "Si O2"
_cell_formula_units_Z 72
_cell_length_a 28.695699
_cell_length_b 9.218251
_cell_length_c 15.251909
_cell_angle_alpha 90.000000
_cell_angle_beta 90.000000
_cell_angle_gamma 90.000000
_cell_volume 4034.498356
_symmetry_space_group_name_H-M "I M M M"
_symmetry_group_IT_number 71
_symmetry_cell_setting 'orthorhombic'
loop_
_space_group_symop_operation_xyz
x,y,z
-x,-y,z
x,-y,-z
-x,y,-z
-x,-y,-z
x,y,-z
-x,y,z
x,-y,z
1/2+x,1/2+y,1/2+z
1/2-x,1/2-y,1/2+z
1/2+x,1/2-y,1/2-z
1/2-x,1/2+y,1/2-z
1/2-x,1/2-y,1/2-z
1/2+x,1/2+y,1/2-z
1/2-x,1/2+y,1/2+z
1/2+x,1/2-y,1/2+z
loop_
_atom_site_type_symbol
_atom_site_label
_atom_site_fract_x
_atom_site_fract_y
_atom_site_fract_z
Si Si1 0.703625 0.168613 0.099421
Si Si2 0.445096 0.838027 0.000000
Si Si3 0.946081 0.169913 0.326779
Si Si4 0.797026 0.668655 0.900574
Si Si5 0.133227 0.330171 0.249307
O O1 0.750433 0.249722 0.127941
O O2 0.662846 0.214646 0.165129
O O3 0.714796 0.000000 0.108327
O O4 0.688595 0.209782 0.000000
O O5 0.429251 0.750007 0.085035
O O6 0.500000 0.854271 0.000000
O O7 0.422091 0.000000 0.000000
O O8 0.914578 0.237501 0.249431
O O9 0.000000 0.201389 0.304963
O O10 0.936942 0.000000 0.337838
O O11 0.786264 0.500000 0.888738
O O12 0.839272 0.716065 0.838037
O O13 0.811435 0.707513 0.000000
O O14 0.120863 0.500000 0.249338
#
# Coordination Sequence:
#
# PCOD8289940 Si02
#       5
#    16   8  16  16  16
#     4   9  18  31  47  71 102 131 162 202 246 297
#     4   9  17  31  51  71  95 131 167 197 237 291
#     4  10  21  35  50  72 102 132 166 209 252 295
#     4   9  18  33  51  72  99 130 167 211 255 299
#     4  10  20  32  50  74  99 132 171 208 250 302
#
# _framework density 17.846084999999999
#
# number of rings (size 3 to 8) (size 9 to 14) (size 15 to 20)
#    0.000    2.556    0.000    1.667    1.556    4.444 
#    0.000    0.000    0.000    0.667    0.000    4.667 
#    0.000    0.000    0.000    0.000    0.000    0.000 
#
# Total GULP energy -446431.387107 kJ/mol
# GULP energy per Si atom -12400.871864 kJ/mol
# Density = 1.780547 g / cm^3
# Si number density = 17.846085 Si / 1000 Ang^3
#
#
#
# Elastic Constant Matrix: (Units=GPa)
#
#
# Indices 1 2 3 4 5 6 
#
# 1 101.9601 54.3180 54.0926 0.0000 0.0000 0.0000
# 2 54.3180 74.0562 35.7926 0.0000 0.0000 0.0000
# 3 54.0926 35.7926 76.5028 0.0000 0.0000 0.0000
# 4 0.0000 0.0000 0.0000 20.9897 0.0000 0.0000
# 5 0.0000 0.0000 0.0000 0.0000 29.4615 0.0000
# 6 0.0000 0.0000 0.0000 0.0000 0.0000 33.5207
#
#
#
# Elastic Compliance Matrix: (Units=1/GPa)
#
#
# Indices 1 2 3 4 5 6 
#
# 1 0.020396 -0.010325 -0.009591 0.000000 0.000000 0.000000
# 2 -0.010325 0.022675 -0.003309 0.000000 0.000000 0.000000
# 3 -0.009591 -0.003309 0.021401 0.000000 0.000000 0.000000
# 4 0.000000 0.000000 0.000000 0.047642 0.000000 0.000000
# 5 0.000000 0.000000 0.000000 0.000000 0.033943 0.000000
# 6 0.000000 0.000000 0.000000 0.000000 0.000000 0.029832
#
#
# Mechanical properties :
#
#
# Convention : Reuss Voigt Hill
#
# Bulk Modulus (GPa) = 55.48224 60.10284 57.79254
# Shear Modulus (GPa) = 21.89654 24.01544 22.95599
#
# Velocity S-wave (km/s) = 3.50661 3.67236 3.59044
# Velocity P-wave (km/s) = 6.89579 7.19258 7.04574
#
# Compressibility (1/GPa) = 0.01802379
#
# Stress axis : x y z
#
# Youngs Moduli (GPa) = 49.02817 44.10111 46.72685
#
# Poissons Ratio (x) = 0.45533 0.44816
# Poissons Ratio (y) = 0.50620 0.15460
# Poissons Ratio (z) = 0.47024 0.14591
#
# Static dielectric constant tensor:
#      x y z
#    x 3.221890 0.000000 0.000000 
#    y 0.000000 3.293910 0.000000 
#    z 0.000000 0.000000 3.358700 
# 
# 
# High freq. dielectric constant tensor:
#      x y z
#    x 1.683930 0.000000 0.000000 
#    y 0.000000 1.691250 0.000000 
#    z 0.000000 0.000000 1.675940 
# 
# From -- ./inp_files/6021.got.cif
#   From: 2010.06.25/outbox.cif.g09.slc.cpg/sg71_4_cif.got.tgz:6021.got - 2010.06.28 04:59:45.
