data_PCOD8289032
_publ_section_title
;
Structure prediction by ZEFSAII (Michael W. Deem and Ramdas Pophale) SiO2 
 PCOD8289032
Probable space group: I M M M
;
_chemical_formula_sum "Si O2"
_cell_formula_units_Z 104
_cell_length_a 27.634435
_cell_length_b 12.473578
_cell_length_c 16.988457
_cell_angle_alpha 90.000000
_cell_angle_beta 90.000000
_cell_angle_gamma 90.000000
_cell_volume 5855.925892
_symmetry_space_group_name_H-M "I M M M"
_symmetry_group_IT_number 71
_symmetry_cell_setting 'orthorhombic'
loop_
_space_group_symop_operation_xyz
x,y,z
-x,-y,z
x,-y,-z
-x,y,-z
-x,-y,-z
x,y,-z
-x,y,z
x,-y,z
1/2+x,1/2+y,1/2+z
1/2-x,1/2-y,1/2+z
1/2+x,1/2-y,1/2-z
1/2-x,1/2+y,1/2-z
1/2-x,1/2-y,1/2-z
1/2+x,1/2+y,1/2-z
1/2-x,1/2+y,1/2+z
1/2+x,1/2-y,1/2+z
loop_
_atom_site_type_symbol
_atom_site_label
_atom_site_fract_x
_atom_site_fract_y
_atom_site_fract_z
Si Si1 0.055598 0.376724 0.261896
Si Si2 0.387116 0.877068 0.911073
Si Si3 0.948129 0.382343 0.000000
Si Si4 0.216215 0.375488 0.818831
Si Si5 0.127785 0.873619 0.000000
Si Si6 0.114555 0.287680 0.128418
Si Si7 0.790396 0.297807 0.355124
Si Si8 0.232734 0.120259 0.000000
O O1 0.067221 0.500000 0.237369
O O2 0.066804 0.361531 0.354518
O O3 0.089103 0.292776 0.213902
O O4 0.000000 0.348348 0.246625
O O5 0.345914 0.793297 0.882936
O O6 0.367517 0.000000 0.905661
O O7 0.403198 0.849853 0.000000
O O8 0.914885 0.371260 0.923514
O O9 0.967598 0.500000 0.000000
O O10 0.000000 0.315137 0.000000
O O11 0.218081 0.500000 0.842599
O O12 0.170971 0.318270 0.861515
O O13 0.212462 0.364540 0.725198
O O14 0.266517 0.320086 0.846519
O O15 0.106277 0.825583 0.081960
O O16 0.181378 0.820693 0.000000
O O17 0.119301 0.000000 0.000000
O O18 0.762418 0.360902 0.421919
O O19 0.214763 0.000000 0.000000
#
# Coordination Sequence:
#
# PCOD8289032 Si02
#       8
#    16  16   8  16   8  16  16   8
#     4  10  20  34  55  83 113 144 180 225 277 334
#     4  10  19  32  54  80 111 149 184 221 269 327
#     4  10  20  32  51  78 105 139 181 220 266 331
#     4  11  22  35  51  78 111 144 181 223 270 321
#     4  10  23  39  54  79 110 141 184 232 273 323
#     4  11  20  35  55  77 107 144 179 223 277 326
#     4  11  21  33  51  77 105 143 185 221 261 320
#     4  11  19  33  53  74 102 141 184 219 258 311
#
# _framework density 17.759786999999999
#
# number of rings (size 3 to 8) (size 9 to 14) (size 15 to 20)
#    0.000    1.462    3.846    3.231    0.000    1.538 
#    0.000    2.692    0.000    8.308    0.000    0.000 
#    0.000    0.000    0.000    2.769    0.000    0.308 
#
# Total GULP energy -644252.528706 kJ/mol
# GULP energy per Si atom -12389.471706 kJ/mol
# Density = 1.771937 g / cm^3
# Si number density = 17.759787 Si / 1000 Ang^3
#
#
#
# Elastic Constant Matrix: (Units=GPa)
#
#
# Indices 1 2 3 4 5 6 
#
# 1 67.9719 29.0865 27.7408 0.0000 0.0000 0.0000
# 2 29.0865 87.1842 36.6643 0.0000 0.0000 0.0000
# 3 27.7408 36.6643 116.2544 0.0000 0.0000 0.0000
# 4 0.0000 0.0000 0.0000 26.2776 0.0000 0.0000
# 5 0.0000 0.0000 0.0000 0.0000 33.1390 0.0000
# 6 0.0000 0.0000 0.0000 0.0000 0.0000 19.4479
#
#
#
# Elastic Compliance Matrix: (Units=1/GPa)
#
#
# Indices 1 2 3 4 5 6 
#
# 1 0.017895 -0.004813 -0.002752 0.000000 0.000000 0.000000
# 2 -0.004813 0.014518 -0.003430 0.000000 0.000000 0.000000
# 3 -0.002752 -0.003430 0.010340 0.000000 0.000000 0.000000
# 4 0.000000 0.000000 0.000000 0.038055 0.000000 0.000000
# 5 0.000000 0.000000 0.000000 0.000000 0.030176 0.000000
# 6 0.000000 0.000000 0.000000 0.000000 0.000000 0.051420
#
#
# Mechanical properties :
#
#
# Convention : Reuss Voigt Hill
#
# Bulk Modulus (GPa) = 48.16302 50.93264 49.54783
# Shear Modulus (GPa) = 26.13488 27.63416 26.88452
#
# Velocity S-wave (km/s) = 3.84027 3.94889 3.89496
# Velocity P-wave (km/s) = 6.84409 7.03794 6.94169
#
# Compressibility (1/GPa) = 0.02076282
#
# Stress axis : x y z
#
# Youngs Moduli (GPa) = 55.88272 68.87935 96.70783
#
# Poissons Ratio (x) = 0.33149 0.26616
# Poissons Ratio (y) = 0.26894 0.33174
# Poissons Ratio (z) = 0.15380 0.23628
#
# Static dielectric constant tensor:
#      x y z
#    x 3.296720 0.000000 0.000000 
#    y 0.000000 3.012560 0.000000 
#    z 0.000000 0.000000 3.488260 
# 
# 
# High freq. dielectric constant tensor:
#      x y z
#    x 1.689870 0.000000 0.000000 
#    y 0.000000 1.642000 0.000000 
#    z 0.000000 0.000000 1.704670 
# 
# From -- ./inp_files/48906.got.cif
#   From: 2010.06.25/outbox.cif.g09.slc.cpg/sg71_25_cif.got.tgz:48906.got - 2010.06.28 04:59:45.
