data_PCOD8289842
_publ_section_title
;
Structure prediction by ZEFSAII (Michael W. Deem and Ramdas Pophale) SiO2 
 PCOD8289842
Probable space group: I M M M
;
_chemical_formula_sum "Si O2"
_cell_formula_units_Z 80
_cell_length_a 14.537778
_cell_length_b 21.901304
_cell_length_c 13.058588
_cell_angle_alpha 90.000000
_cell_angle_beta 90.000000
_cell_angle_gamma 90.000000
_cell_volume 4157.806043
_symmetry_space_group_name_H-M "I M M M"
_symmetry_group_IT_number 71
_symmetry_cell_setting 'orthorhombic'
loop_
_space_group_symop_operation_xyz
x,y,z
-x,-y,z
x,-y,-z
-x,y,-z
-x,-y,-z
x,y,-z
-x,y,z
x,-y,z
1/2+x,1/2+y,1/2+z
1/2-x,1/2-y,1/2+z
1/2+x,1/2-y,1/2-z
1/2-x,1/2+y,1/2-z
1/2-x,1/2-y,1/2-z
1/2+x,1/2+y,1/2-z
1/2-x,1/2+y,1/2+z
1/2+x,1/2-y,1/2+z
loop_
_atom_site_type_symbol
_atom_site_label
_atom_site_fract_x
_atom_site_fract_y
_atom_site_fract_z
Si Si1 0.760953 0.312331 0.381013
Si Si2 0.893179 0.264119 0.214502
Si Si3 0.895364 0.606441 0.114951
Si Si4 0.102306 0.927424 0.613047
Si Si5 0.252402 0.931503 0.231881
O O1 0.774128 0.299299 0.500000
O O2 0.843956 0.277670 0.323094
O O3 0.660950 0.289930 0.342940
O O4 0.767650 0.385462 0.362134
O O5 0.884881 0.322613 0.141909
O O6 0.000000 0.245851 0.232670
O O7 0.840456 0.564562 0.194249
O O8 0.000000 0.585069 0.122858
O O9 0.857692 0.596088 0.000000
O O10 0.130012 0.902839 0.500000
O O11 0.170342 0.902407 0.699570
O O12 0.000000 0.904780 0.640729
O O13 0.107001 0.000000 0.612316
O O14 0.231679 0.000000 0.190492
#
# Coordination Sequence:
#
# PCOD8289842 Si02
#       5
#    16  16  16  16  16
#     4  10  21  36  56  81 106 136 176 217 260 315
#     4   9  19  37  59  81 105 132 168 220 275 319
#     4   9  17  30  51  78 104 131 167 214 267 317
#     4   8  14  26  44  64  89 127 173 215 253 292
#     4  10  20  32  47  71 107 146 179 211 248 297
#
# _framework density 19.240915999999999
#
# number of rings (size 3 to 8) (size 9 to 14) (size 15 to 20)
#    0.000    2.800    0.000    1.800    0.000    4.400 
#    0.000    2.000    0.000    0.000    0.000    9.800 
#    0.000    0.000    0.000    0.000    0.000    0.000 
#
# Total GULP energy -495868.357700 kJ/mol
# GULP energy per Si atom -12396.708943 kJ/mol
# Density = 1.919712 g / cm^3
# Si number density = 19.240916 Si / 1000 Ang^3
#
#
#
# Elastic Constant Matrix: (Units=GPa)
#
#
# Indices 1 2 3 4 5 6 
#
# 1 107.4740 14.5034 37.2405 0.0000 0.0000 0.0000
# 2 14.5034 53.9509 24.1369 0.0000 0.0000 0.0000
# 3 37.2405 24.1369 106.3447 -0.0001 0.0000 0.0000
# 4 0.0000 0.0000 -0.0001 14.9120 0.0000 0.0000
# 5 0.0000 0.0000 0.0000 0.0000 20.0806 0.0000
# 6 0.0000 0.0000 0.0000 0.0000 0.0000 22.4123
#
#
#
# Elastic Compliance Matrix: (Units=1/GPa)
#
#
# Indices 1 2 3 4 5 6 
#
# 1 0.010675 -0.001333 -0.003436 0.000000 0.000000 0.000000
# 2 -0.001333 0.020797 -0.004254 0.000000 0.000000 0.000000
# 3 -0.003436 -0.004254 0.011572 0.000000 0.000000 0.000000
# 4 0.000000 0.000000 0.000000 0.067060 0.000000 0.000000
# 5 0.000000 0.000000 0.000000 0.000000 0.049799 0.000000
# 6 0.000000 0.000000 0.000000 0.000000 0.000000 0.044618
#
#
# Mechanical properties :
#
#
# Convention : Reuss Voigt Hill
#
# Bulk Modulus (GPa) = 40.00042 46.61456 43.30749
# Shear Modulus (GPa) = 21.65457 24.27356 22.96406
#
# Velocity S-wave (km/s) = 3.35840 3.55570 3.45846
# Velocity P-wave (km/s) = 5.98940 6.41379 6.20522
#
# Compressibility (1/GPa) = 0.02499974
#
# Stress axis : x y z
#
# Youngs Moduli (GPa) = 93.67753 48.08486 86.41581
#
# Poissons Ratio (x) = 0.06408 0.29690
# Poissons Ratio (y) = 0.12483 0.36757
# Poissons Ratio (z) = 0.32185 0.20453
#
# Static dielectric constant tensor:
#      x y z
#    x 3.782390 0.000000 0.000000 
#    y 0.000000 3.238510 0.000000 
#    z 0.000000 0.000000 3.368320 
# 
# 
# High freq. dielectric constant tensor:
#      x y z
#    x 1.755330 0.000000 0.000000 
#    y 0.000000 1.733540 0.000000 
#    z 0.000000 0.000000 1.727540 
# 
# From -- ./inp_files/21861.got.cif
#   From: 2010.06.25/outbox.cif.g09.slc.cpg/sg71_11_cif.got.tgz:21861.got - 2010.06.28 04:59:45.
