data_PCOD8289913
_publ_section_title
;
Structure prediction by ZEFSAII (Michael W. Deem and Ramdas Pophale) SiO2 
 PCOD8289913
Probable space group: I M M M
;
_chemical_formula_sum "Si O2"
_cell_formula_units_Z 104
_cell_length_a 31.751103
_cell_length_b 9.581037
_cell_length_c 18.780885
_cell_angle_alpha 90.000000
_cell_angle_beta 90.000000
_cell_angle_gamma 90.000000
_cell_volume 5713.304716
_symmetry_space_group_name_H-M "I M M M"
_symmetry_group_IT_number 71
_symmetry_cell_setting 'orthorhombic'
loop_
_space_group_symop_operation_xyz
x,y,z
-x,-y,z
x,-y,-z
-x,y,-z
-x,-y,-z
x,y,-z
-x,y,z
x,-y,z
1/2+x,1/2+y,1/2+z
1/2-x,1/2-y,1/2+z
1/2+x,1/2-y,1/2-z
1/2-x,1/2+y,1/2-z
1/2-x,1/2-y,1/2-z
1/2+x,1/2+y,1/2-z
1/2-x,1/2+y,1/2+z
1/2+x,1/2-y,1/2+z
loop_
_atom_site_type_symbol
_atom_site_label
_atom_site_fract_x
_atom_site_fract_y
_atom_site_fract_z
Si Si1 0.916031 0.161907 0.081944
Si Si2 0.168274 0.334197 0.418742
Si Si3 0.678138 0.334591 0.577965
Si Si4 0.747319 0.833823 0.822736
Si Si5 0.500000 0.165980 0.919535
Si Si6 0.416615 0.834403 0.846301
Si Si7 0.547795 0.841943 0.700200
O O1 0.868693 0.214305 0.099152
O O2 0.947787 0.246451 0.131135
O O3 0.921244 0.000000 0.099972
O O4 0.927499 0.191040 0.000000
O O5 0.172598 0.276780 0.500000
O O6 0.166610 0.500000 0.421596
O O7 0.207357 0.286519 0.369927
O O8 0.125862 0.273190 0.381943
O O9 0.690102 0.274141 0.500000
O O10 0.678901 0.500000 0.572976
O O11 0.711434 0.282194 0.635320
O O12 0.750000 0.750000 0.750000
O O13 0.746791 0.000000 0.808348
O O14 0.542375 0.228939 0.885002
O O15 0.500000 0.000000 0.911284
O O16 0.500000 0.215545 0.000000
O O17 0.420232 0.793844 0.762845
O O18 0.416494 0.000000 0.854934
O O19 0.500000 0.830544 0.729242
O O20 0.557933 0.000000 0.677482
#
# Coordination Sequence:
#
# PCOD8289913 Si02
#       7
#    16  16  16  16   8  16  16
#     4   9  19  35  54  74  94 123 168 214 249 287
#     4   9  17  29  47  71  97 128 167 206 241 282
#     4   8  15  31  53  72  93 125 164 203 242 287
#     4  10  20  32  49  75 103 130 161 199 244 293
#     4   9  14  22  40  64  94 131 164 194 233 281
#     4   9  16  27  42  66  99 131 162 197 239 285
#     4  10  20  33  49  71 104 139 162 192 247 306
#
# _framework density 18.203123999999999
#
# number of rings (size 3 to 8) (size 9 to 14) (size 15 to 20)
#    0.000    2.846    0.769    1.846    2.154    4.615 
#    0.000    1.538    0.000    2.769    0.000    0.000 
#    0.000    2.462    0.000    0.000    0.000    0.000 
#
# Total GULP energy -644532.239790 kJ/mol
# GULP energy per Si atom -12394.850765 kJ/mol
# Density = 1.816169 g / cm^3
# Si number density = 18.203124 Si / 1000 Ang^3
#
#
#
# Elastic Constant Matrix: (Units=GPa)
#
#
# Indices 1 2 3 4 5 6 
#
# 1 84.9348 20.1273 59.5506 0.0000 0.0000 0.0000
# 2 20.1273 27.6468 39.9967 0.0000 0.0000 0.0000
# 3 59.5506 39.9967 138.3836 0.0000 0.0000 0.0000
# 4 0.0000 0.0000 0.0000 22.6514 0.0000 0.0000
# 5 0.0000 0.0000 0.0000 0.0000 36.8327 0.0000
# 6 0.0000 0.0000 0.0000 0.0000 0.0000 13.5055
#
#
#
# Elastic Compliance Matrix: (Units=1/GPa)
#
#
# Indices 1 2 3 4 5 6 
#
# 1 0.017013 -0.003083 -0.006430 0.000000 0.000000 0.000000
# 2 -0.003083 0.062722 -0.016802 0.000000 0.000000 0.000000
# 3 -0.006430 -0.016802 0.014849 0.000000 0.000000 0.000000
# 4 0.000000 0.000000 0.000000 0.044147 0.000000 0.000000
# 5 0.000000 0.000000 0.000000 0.000000 0.027150 0.000000
# 6 0.000000 0.000000 0.000000 0.000000 0.000000 0.074044
#
#
# Mechanical properties :
#
#
# Convention : Reuss Voigt Hill
#
# Bulk Modulus (GPa) = 23.83530 54.47936 39.15733
# Shear Modulus (GPa) = 16.31109 23.35063 19.83086
#
# Velocity S-wave (km/s) = 2.99667 3.58548 3.30422
# Velocity P-wave (km/s) = 5.00958 6.86545 6.00959
#
# Compressibility (1/GPa) = 0.04195459
#
# Stress axis : x y z
#
# Youngs Moduli (GPa) = 58.78000 15.94330 67.34290
#
# Poissons Ratio (x) = 0.04916 0.43300
# Poissons Ratio (y) = 0.18124 1.13147
# Poissons Ratio (z) = 0.37795 0.26787
#
# Static dielectric constant tensor:
#      x y z
#    x 3.642780 0.000000 0.000000 
#    y 0.000000 2.708300 0.000000 
#    z 0.000000 0.000000 3.481580 
# 
# 
# High freq. dielectric constant tensor:
#      x y z
#    x 1.717970 0.000000 0.000000 
#    y 0.000000 1.633220 0.000000 
#    z 0.000000 0.000000 1.718190 
# 
# From -- ./inp_files/48819.got.cif
#   From: 2010.06.25/outbox.cif.g09.slc.cpg/sg71_25_cif.got.tgz:48819.got - 2010.06.28 04:59:45.
