data_PCOD8289824
_publ_section_title
;
Structure prediction by ZEFSAII (Michael W. Deem and Ramdas Pophale) SiO2 
 PCOD8289824
Probable space group: I M M M
;
_chemical_formula_sum "Si O2"
_cell_formula_units_Z 72
_cell_length_a 19.020126
_cell_length_b 8.639950
_cell_length_c 27.773193
_cell_angle_alpha 90.000000
_cell_angle_beta 90.000000
_cell_angle_gamma 90.000000
_cell_volume 4564.050393
_symmetry_space_group_name_H-M "I M M M"
_symmetry_group_IT_number 71
_symmetry_cell_setting 'orthorhombic'
loop_
_space_group_symop_operation_xyz
x,y,z
-x,-y,z
x,-y,-z
-x,y,-z
-x,-y,-z
x,y,-z
-x,y,z
x,-y,z
1/2+x,1/2+y,1/2+z
1/2-x,1/2-y,1/2+z
1/2+x,1/2-y,1/2-z
1/2-x,1/2+y,1/2-z
1/2-x,1/2-y,1/2-z
1/2+x,1/2+y,1/2-z
1/2-x,1/2+y,1/2+z
1/2+x,1/2-y,1/2+z
loop_
_atom_site_type_symbol
_atom_site_label
_atom_site_fract_x
_atom_site_fract_y
_atom_site_fract_z
Si Si1 0.353242 0.682887 0.273755
Si Si2 0.777414 0.817604 0.323548
Si Si3 0.632657 0.816692 0.902872
Si Si4 0.500000 0.816605 0.155551
Si Si5 0.419139 0.317106 0.000000
Si Si6 0.500000 0.184150 0.736507
O O1 0.351347 0.500000 0.279804
O O2 0.300305 0.758535 0.311713
O O3 0.330669 0.732626 0.219503
O O4 0.429871 0.748150 0.287753
O O5 0.798538 0.739020 0.374131
O O6 0.776526 0.000000 0.330134
O O7 0.567483 0.752802 0.872020
O O8 0.626069 0.741687 0.955040
O O9 0.633167 0.000000 0.908501
O O10 0.500000 0.751099 0.209182
O O11 0.500000 0.000000 0.156556
O O12 0.421521 0.500000 0.000000
O O13 0.500000 0.251687 0.000000
O O14 0.500000 0.000000 0.732844
#
# Coordination Sequence:
#
# PCOD8289824 Si02
#       6
#    16  16  16   8   8   8
#     4  10  20  32  47  69  95 126 162 199 239 289
#     4  10  20  33  48  68  94 126 161 201 244 287
#     4  11  20  34  51  68  92 127 166 205 245 289
#     4   9  18  28  44  67  92 124 162 200 239 284
#     4  11  23  35  47  69  97 126 163 208 247 283
#     4  11  19  31  48  70  97 127 162 202 244 287
#
# _framework density 15.775461999999999
#
# number of rings (size 3 to 8) (size 9 to 14) (size 15 to 20)
#    0.000    1.667    3.333    2.667    0.000    2.222 
#    0.000    0.000    0.000    0.000    0.000    0.000 
#    0.000    0.889    0.000    8.889    0.000    5.333 
#
# Total GULP energy -446457.972735 kJ/mol
# GULP energy per Si atom -12401.610354 kJ/mol
# Density = 1.573956 g / cm^3
# Si number density = 15.775462 Si / 1000 Ang^3
#
#
#
# Elastic Constant Matrix: (Units=GPa)
#
#
# Indices 1 2 3 4 5 6 
#
# 1 104.0339 24.3997 44.8368 0.0000 0.0000 0.0000
# 2 24.3997 61.8536 27.6020 0.0000 0.0000 0.0000
# 3 44.8368 27.6020 93.5433 0.0000 0.0000 0.0000
# 4 0.0000 0.0000 0.0000 24.0074 0.0000 0.0000
# 5 0.0000 0.0000 0.0000 0.0000 27.5553 0.0000
# 6 0.0000 0.0000 0.0000 0.0000 0.0000 27.3498
#
#
#
# Elastic Compliance Matrix: (Units=1/GPa)
#
#
# Indices 1 2 3 4 5 6 
#
# 1 0.012466 -0.002592 -0.005210 0.000000 0.000000 0.000000
# 2 -0.002592 0.019158 -0.004410 0.000000 0.000000 0.000000
# 3 -0.005210 -0.004410 0.014489 0.000000 0.000000 0.000000
# 4 0.000000 0.000000 0.000000 0.041654 0.000000 0.000000
# 5 0.000000 0.000000 0.000000 0.000000 0.036291 0.000000
# 6 0.000000 0.000000 0.000000 0.000000 0.000000 0.036563
#
#
# Mechanical properties :
#
#
# Convention : Reuss Voigt Hill
#
# Bulk Modulus (GPa) = 46.11097 50.34530 48.22814
# Shear Modulus (GPa) = 26.00439 26.62197 26.31318
#
# Velocity S-wave (km/s) = 4.06446 4.11244 4.08852
# Velocity P-wave (km/s) = 7.16376 7.38462 7.27503
#
# Compressibility (1/GPa) = 0.02168681
#
# Stress axis : x y z
#
# Youngs Moduli (GPa) = 80.22001 52.19759 69.01845
#
# Poissons Ratio (x) = 0.13532 0.35959
# Poissons Ratio (y) = 0.20797 0.30440
# Poissons Ratio (z) = 0.41795 0.23021
#
# Static dielectric constant tensor:
#      x y z
#    x 3.105590 0.000000 0.000000 
#    y 0.000000 2.946420 0.000000 
#    z 0.000000 0.000000 2.840620 
# 
# 
# High freq. dielectric constant tensor:
#      x y z
#    x 1.594610 0.000000 0.000000 
#    y 0.000000 1.617000 0.000000 
#    z 0.000000 0.000000 1.574540 
# 
# From -- ./inp_files/8204.got.cif
#   From: 2010.06.25/outbox.cif.g09.slc.cpg/sg71_5_cif.got.tgz:8204.got - 2010.06.28 04:59:45.
