data_PCOD8290475
_publ_section_title
;
Structure prediction by ZEFSAII (Michael W. Deem and Ramdas Pophale) SiO2 
 PCOD8290475
Probable space group: I M M M
;
_chemical_formula_sum "Si O2"
_cell_formula_units_Z 56
_cell_length_a 9.058360
_cell_length_b 9.226909
_cell_length_c 36.374125
_cell_angle_alpha 90.000000
_cell_angle_beta 90.000000
_cell_angle_gamma 90.000000
_cell_volume 3040.173498
_symmetry_space_group_name_H-M "I M M M"
_symmetry_group_IT_number 71
_symmetry_cell_setting 'orthorhombic'
loop_
_space_group_symop_operation_xyz
x,y,z
-x,-y,z
x,-y,-z
-x,y,-z
-x,-y,-z
x,y,-z
-x,y,z
x,-y,z
1/2+x,1/2+y,1/2+z
1/2-x,1/2-y,1/2+z
1/2+x,1/2-y,1/2-z
1/2-x,1/2+y,1/2-z
1/2-x,1/2-y,1/2-z
1/2+x,1/2+y,1/2-z
1/2-x,1/2+y,1/2+z
1/2+x,1/2-y,1/2+z
loop_
_atom_site_type_symbol
_atom_site_label
_atom_site_fract_x
_atom_site_fract_y
_atom_site_fract_z
Si Si1 0.827523 0.831389 0.928659
Si Si2 0.824381 0.663610 0.000000
Si Si3 0.828826 0.170723 0.783145
Si Si4 0.833584 0.672269 0.644025
O O1 0.765619 0.745073 0.963804
O O2 0.742915 0.770109 0.893054
O O3 0.000000 0.803658 0.922193
O O4 0.794822 0.000000 0.935495
O O5 0.763858 0.500000 0.000000
O O6 0.000000 0.667890 0.000000
O O7 0.750000 0.250000 0.750000
O O8 0.757227 0.228799 0.820898
O O9 0.000000 0.212509 0.783534
O O10 0.804649 0.000000 0.778596
O O11 0.831793 0.500000 0.643583
O O12 0.000000 0.732741 0.646243
#
# Coordination Sequence:
#
# PCOD8290475 Si02
#       4
#    16   8  16  16
#     4   9  16  28  48  71  92 118 157 201 240 282
#     4   9  17  29  46  69  96 124 154 191 238 290
#     4  10  20  34  53  77 104 134 168 206 249 297
#     4   9  17  30  49  72  97 126 162 204 246 287
#
# _framework density 18.420000999999999
#
# number of rings (size 3 to 8) (size 9 to 14) (size 15 to 20)
#    0.000    2.714    0.000    2.143    0.000    6.857 
#    0.000    2.143    0.000   10.286    0.000    0.000 
#    0.000    0.000    0.000    0.000    0.000    0.000 
#
# Total GULP energy -347216.624158 kJ/mol
# GULP energy per Si atom -12400.593720 kJ/mol
# Density = 1.837808 g / cm^3
# Si number density = 18.420001 Si / 1000 Ang^3
#
#
#
# Elastic Constant Matrix: (Units=GPa)
#
#
# Indices 1 2 3 4 5 6 
#
# 1 117.9060 38.8175 92.3805 0.0000 0.0000 0.0000
# 2 38.8175 49.5253 59.3020 0.0000 0.0000 0.0000
# 3 92.3805 59.3020 218.4262 0.0000 0.0000 0.0000
# 4 0.0000 0.0000 0.0000 27.9566 0.0000 0.0000
# 5 0.0000 0.0000 0.0000 0.0000 34.3454 0.0000
# 6 0.0000 0.0000 0.0000 0.0000 0.0000 16.3921
#
#
#
# Elastic Compliance Matrix: (Units=1/GPa)
#
#
# Indices 1 2 3 4 5 6 
#
# 1 0.013663 -0.005615 -0.004254 0.000000 0.000000 0.000000
# 2 -0.005615 0.032225 -0.006374 0.000000 0.000000 0.000000
# 3 -0.004254 -0.006374 0.008108 0.000000 0.000000 0.000000
# 4 0.000000 0.000000 0.000000 0.035770 0.000000 0.000000
# 5 0.000000 0.000000 0.000000 0.000000 0.029116 0.000000
# 6 0.000000 0.000000 0.000000 0.000000 0.000000 0.061005
#
#
# Mechanical properties :
#
#
# Convention : Reuss Voigt Hill
#
# Bulk Modulus (GPa) = 46.49102 85.20637 65.84869
# Shear Modulus (GPa) = 22.77447 28.76265 25.76856
#
# Velocity S-wave (km/s) = 3.52006 3.95586 3.74430
# Velocity P-wave (km/s) = 6.46648 8.19896 7.38371
#
# Compressibility (1/GPa) = 0.02150953
#
# Stress axis : x y z
#
# Youngs Moduli (GPa) = 73.18967 31.03150 123.33438
#
# Poissons Ratio (x) = 0.17424 0.52469
# Poissons Ratio (y) = 0.41096 0.78616
# Poissons Ratio (z) = 0.31136 0.19780
#
# Static dielectric constant tensor:
#      x y z
#    x 3.393540 0.000000 0.000000 
#    y 0.000000 3.096420 0.000000 
#    z 0.000000 0.000000 3.682780 
# 
# 
# High freq. dielectric constant tensor:
#      x y z
#    x 1.705690 0.000000 0.000000 
#    y 0.000000 1.675210 0.000000 
#    z 0.000000 0.000000 1.734120 
# 
# From -- ./inp_files/18413.got.cif
#   From: 2010.06.25/outbox.cif.g09.slc.cpg/sg71_10_cif.got.tgz:18413.got - 2010.06.28 04:59:45.
