data_PCOD8290560
_publ_section_title
;
Structure prediction by ZEFSAII (Michael W. Deem and Ramdas Pophale) SiO2 
 PCOD8290560
Probable space group: I M M M
;
_chemical_formula_sum "Si O2"
_cell_formula_units_Z 72
_cell_length_a 15.537828
_cell_length_b 12.562806
_cell_length_c 20.318067
_cell_angle_alpha 90.000000
_cell_angle_beta 90.000000
_cell_angle_gamma 90.000000
_cell_volume 3966.060647
_symmetry_space_group_name_H-M "I M M M"
_symmetry_group_IT_number 71
_symmetry_cell_setting 'orthorhombic'
loop_
_space_group_symop_operation_xyz
x,y,z
-x,-y,z
x,-y,-z
-x,y,-z
-x,-y,-z
x,y,-z
-x,y,z
x,-y,z
1/2+x,1/2+y,1/2+z
1/2-x,1/2-y,1/2+z
1/2+x,1/2-y,1/2-z
1/2-x,1/2+y,1/2-z
1/2-x,1/2-y,1/2-z
1/2+x,1/2+y,1/2-z
1/2-x,1/2+y,1/2+z
1/2+x,1/2-y,1/2+z
loop_
_atom_site_type_symbol
_atom_site_label
_atom_site_fract_x
_atom_site_fract_y
_atom_site_fract_z
Si Si1 0.403820 0.245264 0.000000
Si Si2 0.000000 0.622318 0.922285
Si Si3 0.732332 0.624925 0.500000
Si Si4 0.156810 0.875400 0.622364
Si Si5 0.668167 0.243185 0.620622
Si Si6 0.098905 0.877927 0.765742
O O1 0.393159 0.317279 0.935742
O O2 0.500000 0.196091 0.000000
O O3 0.334158 0.150602 0.000000
O O4 0.917054 0.677660 0.892721
O O5 0.000000 0.500000 0.900228
O O6 0.000000 0.634286 0.000000
O O7 0.718774 0.500000 0.500000
O O8 0.685515 0.671839 0.436383
O O9 0.255895 0.841730 0.625334
O O10 0.110674 0.843459 0.690200
O O11 0.151809 0.000000 0.608300
O O12 0.659743 0.306027 0.689013
O O13 0.000000 0.862016 0.786457
O O14 0.127581 0.000000 0.774933
#
# Coordination Sequence:
#
# PCOD8290560 Si02
#       6
#     8   8   8  16  16  16
#     4  10  21  37  59  83 109 141 180 225 280 322
#     4  11  22  36  56  82 114 147 184 227 273 328
#     4  10  22  37  56  81 109 141 183 223 268 324
#     4  10  21  35  55  82 110 143 182 228 276 329
#     4  11  20  37  54  80 110 148 183 225 274 324
#     4  10  20  34  54  79 108 142 183 228 277 325
#
# _framework density 18.154033999999999
#
# number of rings (size 3 to 8) (size 9 to 14) (size 15 to 20)
#    0.000    1.667    2.222    3.000    0.000    2.000 
#    0.000    0.556    0.000    1.333    0.000    0.000 
#    0.000    0.000    0.000    0.000    0.000    0.000 
#
# Total GULP energy -446543.568765 kJ/mol
# GULP energy per Si atom -12403.988021 kJ/mol
# Density = 1.811271 g / cm^3
# Si number density = 18.154034 Si / 1000 Ang^3
#
#
#
# Elastic Constant Matrix: (Units=GPa)
#
#
# Indices 1 2 3 4 5 6 
#
# 1 92.3493 20.2870 16.6776 0.0000 0.0000 0.0000
# 2 20.2870 75.6108 34.4626 0.0000 0.0000 0.0000
# 3 16.6776 34.4626 100.4126 0.0000 0.0000 0.0000
# 4 0.0000 0.0000 0.0000 28.1852 0.0000 0.0000
# 5 0.0000 0.0000 0.0000 0.0000 33.7193 0.0000
# 6 0.0000 0.0000 0.0000 0.0000 0.0000 20.0376
#
#
#
# Elastic Compliance Matrix: (Units=1/GPa)
#
#
# Indices 1 2 3 4 5 6 
#
# 1 0.011594 -0.002647 -0.001017 0.000000 0.000000 0.000000
# 2 -0.002647 0.016283 -0.005149 0.000000 0.000000 0.000000
# 3 -0.001017 -0.005149 0.011895 0.000000 0.000000 0.000000
# 4 0.000000 0.000000 0.000000 0.035480 0.000000 0.000000
# 5 0.000000 0.000000 0.000000 0.000000 0.029657 0.000000
# 6 0.000000 0.000000 0.000000 0.000000 0.000000 0.049906
#
#
# Mechanical properties :
#
#
# Convention : Reuss Voigt Hill
#
# Bulk Modulus (GPa) = 45.15608 45.69189 45.42399
# Shear Modulus (GPa) = 27.80541 29.51812 28.66177
#
# Velocity S-wave (km/s) = 3.91786 4.03672 3.97773
# Velocity P-wave (km/s) = 6.73751 6.85204 6.79502
#
# Compressibility (1/GPa) = 0.02214541
#
# Stress axis : x y z
#
# Youngs Moduli (GPa) = 86.25421 61.41531 84.06952
#
# Poissons Ratio (x) = 0.16257 0.08551
# Poissons Ratio (y) = 0.22832 0.43285
# Poissons Ratio (z) = 0.08773 0.31621
#
# Static dielectric constant tensor:
#      x y z
#    x 3.428090 0.000000 0.000000 
#    y 0.000000 3.258390 0.000000 
#    z 0.000000 0.000000 3.479770 
# 
# 
# High freq. dielectric constant tensor:
#      x y z
#    x 1.712950 0.000000 0.000000 
#    y 0.000000 1.698060 0.000000 
#    z 0.000000 0.000000 1.715530 
# 
# From -- ./inp_files/36090.got.cif
#   From: 2010.06.25/outbox.cif.g09.slc.cpg/sg71_19_cif.got.tgz:36090.got - 2010.06.28 04:59:45.
