data_PCOD8290622
_publ_section_title
;
Structure prediction by ZEFSAII (Michael W. Deem and Ramdas Pophale) SiO2 
 PCOD8290622
Probable space group: I M M M
;
_chemical_formula_sum "Si O2"
_cell_formula_units_Z 96
_cell_length_a 15.456920
_cell_length_b 14.291979
_cell_length_c 23.233698
_cell_angle_alpha 90.000000
_cell_angle_beta 90.000000
_cell_angle_gamma 90.000000
_cell_volume 5132.555669
_symmetry_space_group_name_H-M "I M M M"
_symmetry_group_IT_number 71
_symmetry_cell_setting 'orthorhombic'
loop_
_space_group_symop_operation_xyz
x,y,z
-x,-y,z
x,-y,-z
-x,y,-z
-x,-y,-z
x,y,-z
-x,y,z
x,-y,z
1/2+x,1/2+y,1/2+z
1/2-x,1/2-y,1/2+z
1/2+x,1/2-y,1/2-z
1/2-x,1/2+y,1/2-z
1/2-x,1/2-y,1/2-z
1/2+x,1/2+y,1/2-z
1/2-x,1/2+y,1/2+z
1/2+x,1/2-y,1/2+z
loop_
_atom_site_type_symbol
_atom_site_label
_atom_site_fract_x
_atom_site_fract_y
_atom_site_fract_z
Si Si1 0.100170 0.500000 0.672519
Si Si2 0.334575 0.500000 0.186287
Si Si3 0.400967 0.802715 0.125312
Si Si4 0.358671 0.000000 0.301825
Si Si5 0.252806 0.200207 0.563885
Si Si6 0.675179 0.500000 0.062779
Si Si7 0.402194 0.801175 0.346282
Si Si8 0.598159 0.684560 0.762163
O O1 0.122571 0.588432 0.632522
O O2 0.151741 0.500000 0.732575
O O3 0.000000 0.500000 0.690968
O O4 0.234896 0.500000 0.169101
O O5 0.382941 0.500000 0.122525
O O6 0.350432 0.590653 0.224457
O O7 0.500000 0.789104 0.102639
O O8 0.333910 0.755046 0.082199
O O9 0.389807 0.758482 0.187650
O O10 0.407000 0.907654 0.324062
O O11 0.276152 0.234592 0.500000
O O12 0.336516 0.219943 0.602361
O O13 0.235612 0.090246 0.564867
O O14 0.624200 0.500000 0.000000
O O15 0.500000 0.774448 0.365216
O O16 0.367717 0.733598 0.295499
O O17 0.500000 0.653328 0.754740
#
# Coordination Sequence:
#
# PCOD8290622 Si02
#       8
#     8   8  16   8  16   8  16  16
#     4  10  20  34  54  86 120 143 171 220 286 350
#     4  12  21  34  55  84 115 155 187 230 283 341
#     4  10  20  36  59  86 116 148 182 230 289 348
#     4  12  20  30  56  88 116 148 181 226 283 347
#     4  11  23  40  58  79 112 152 199 240 277 332
#     4  10  20  36  53  79 116 151 186 230 274 326
#     4  11  22  37  57  84 117 151 191 236 287 337
#     4  10  21  35  54  82 117 149 184 232 286 344
#
# _framework density 18.704132000000001
#
# number of rings (size 3 to 8) (size 9 to 14) (size 15 to 20)
#    0.000    1.333    5.000    1.000    2.333    2.000 
#    0.000    0.833    0.000    6.500    0.000    0.000 
#    0.000    4.000    0.000    0.000    0.000    0.000 
#
# Total GULP energy -595007.931297 kJ/mol
# GULP energy per Si atom -12395.998569 kJ/mol
# Density = 1.866156 g / cm^3
# Si number density = 18.704132 Si / 1000 Ang^3
#
#
#
# Elastic Constant Matrix: (Units=GPa)
#
#
# Indices 1 2 3 4 5 6 
#
# 1 80.2338 50.7672 58.4128 0.0000 0.0000 0.0000
# 2 50.7672 113.6262 54.6560 0.0000 0.0000 0.0000
# 3 58.4128 54.6560 142.0741 0.0000 0.0000 0.0000
# 4 0.0000 0.0000 0.0000 17.7116 0.0000 0.0000
# 5 0.0000 0.0000 0.0000 0.0000 26.0711 0.0000
# 6 0.0000 0.0000 0.0000 0.0000 0.0000 19.6619
#
#
#
# Elastic Compliance Matrix: (Units=1/GPa)
#
#
# Indices 1 2 3 4 5 6 
#
# 1 0.021021 -0.006423 -0.006172 0.000000 0.000000 0.000000
# 2 -0.006423 0.012762 -0.002269 0.000000 0.000000 0.000000
# 3 -0.006172 -0.002269 0.010449 0.000000 0.000000 0.000000
# 4 0.000000 0.000000 0.000000 0.056460 0.000000 0.000000
# 5 0.000000 0.000000 0.000000 0.000000 0.038357 0.000000
# 6 0.000000 0.000000 0.000000 0.000000 0.000000 0.050860
#
#
# Mechanical properties :
#
#
# Convention : Reuss Voigt Hill
#
# Bulk Modulus (GPa) = 68.94383 73.73400 71.33892
# Shear Modulus (GPa) = 22.27469 24.16214 23.21842
#
# Velocity S-wave (km/s) = 3.45468 3.59807 3.52711
# Velocity P-wave (km/s) = 7.27003 7.53448 7.40343
#
# Compressibility (1/GPa) = 0.01450456
#
# Stress axis : x y z
#
# Youngs Moduli (GPa) = 47.57151 78.35812 95.70570
#
# Poissons Ratio (x) = 0.50332 0.59065
# Poissons Ratio (y) = 0.30557 0.21712
# Poissons Ratio (z) = 0.29359 0.17776
#
# Static dielectric constant tensor:
#      x y z
#    x 3.326280 0.000000 0.000000 
#    y 0.000000 -0.836690 0.000000 
#    z 0.000000 0.000000 3.543670 
# 
# 
# High freq. dielectric constant tensor:
#      x y z
#    x 1.712960 0.000000 0.000000 
#    y 0.000000 1.730240 0.000000 
#    z 0.000000 0.000000 1.717600 
# 
# From -- ./inp_files/34575.got.cif
#   From: 2010.06.25/outbox.cif.g09.slc.cpg/sg71_18_cif.got.tgz:34575.got - 2010.06.28 04:59:45.
