data_PCOD8290875
_publ_section_title
;
Structure prediction by ZEFSAII (Michael W. Deem and Ramdas Pophale) SiO2 
 PCOD8290875
Probable space group: I M M M
;
_chemical_formula_sum "Si O2"
_cell_formula_units_Z 72
_cell_length_a 7.938611
_cell_length_b 14.895353
_cell_length_c 30.466072
_cell_angle_alpha 90.000000
_cell_angle_beta 90.000000
_cell_angle_gamma 90.000000
_cell_volume 3602.564670
_symmetry_space_group_name_H-M "I M M M"
_symmetry_group_IT_number 71
_symmetry_cell_setting 'orthorhombic'
loop_
_space_group_symop_operation_xyz
x,y,z
-x,-y,z
x,-y,-z
-x,y,-z
-x,-y,-z
x,y,-z
-x,y,z
x,-y,z
1/2+x,1/2+y,1/2+z
1/2-x,1/2-y,1/2+z
1/2+x,1/2-y,1/2-z
1/2-x,1/2+y,1/2-z
1/2-x,1/2-y,1/2-z
1/2+x,1/2+y,1/2-z
1/2-x,1/2+y,1/2+z
1/2+x,1/2-y,1/2+z
loop_
_atom_site_type_symbol
_atom_site_label
_atom_site_fract_x
_atom_site_fract_y
_atom_site_fract_z
Si Si1 0.799784 0.500000 0.232486
Si Si2 0.800985 0.306104 0.792386
Si Si3 0.804233 0.814396 0.871548
Si Si4 0.188812 0.216910 0.549945
Si Si5 0.199558 0.500000 0.332499
Si Si6 0.000000 0.598092 0.948183
O O1 0.729849 0.591305 0.209623
O O2 0.736935 0.500000 0.282568
O O3 0.000000 0.500000 0.231217
O O4 0.750000 0.250000 0.750000
O O5 0.730351 0.255655 0.835444
O O6 0.000000 0.309115 0.794369
O O7 0.704581 0.801379 0.917391
O O8 0.000000 0.796556 0.879805
O O9 0.775972 0.914764 0.856365
O O10 0.227972 0.247829 0.500000
O O11 0.327859 0.145959 0.567041
O O12 0.000000 0.175762 0.552567
O O13 0.000000 0.500000 0.335730
O O14 0.000000 0.500000 0.926002
O O15 0.000000 0.589480 0.000000
#
# Coordination Sequence:
#
# PCOD8290875 Si02
#       6
#     8  16  16  16   8   8
#     4   9  18  35  55  80 113 156 197 240 297 355
#     4  10  20  35  56  81 113 151 194 240 293 355
#     4  11  22  37  58  89 120 157 201 252 307 365
#     4  10  21  39  63  89 122 163 206 253 307 365
#     4  11  21  35  60  84 113 154 202 251 300 367
#     4   9  18  36  62  89 119 157 201 250 304 359
#
# _framework density 19.985762999999999
#
# number of rings (size 3 to 8) (size 9 to 14) (size 15 to 20)
#    0.000    1.889    3.333    1.000    0.000    1.333 
#    2.000    3.333    0.000    3.333    0.000    0.000 
#    0.000    0.000    0.000    0.000    0.000    0.000 
#
# Total GULP energy -446282.104004 kJ/mol
# GULP energy per Si atom -12396.725111 kJ/mol
# Density = 1.994027 g / cm^3
# Si number density = 19.985763 Si / 1000 Ang^3
#
#
#
# Elastic Constant Matrix: (Units=GPa)
#
#
# Indices 1 2 3 4 5 6 
#
# 1 82.3332 27.4325 33.2523 0.0000 0.0000 0.0000
# 2 27.4325 167.5984 69.0522 0.0001 0.0000 0.0000
# 3 33.2523 69.0522 118.0602 0.0000 0.0000 0.0000
# 4 0.0000 0.0001 0.0000 27.9205 0.0000 0.0000
# 5 0.0000 0.0000 0.0000 0.0000 24.2207 0.0000
# 6 0.0000 0.0000 0.0000 0.0000 0.0000 19.8204
#
#
#
# Elastic Compliance Matrix: (Units=1/GPa)
#
#
# Indices 1 2 3 4 5 6 
#
# 1 0.013799 -0.000866 -0.003380 0.000000 0.000000 0.000000
# 2 -0.000866 0.007915 -0.004386 0.000000 0.000000 0.000000
# 3 -0.003380 -0.004386 0.011987 0.000000 0.000000 0.000000
# 4 0.000000 0.000000 0.000000 0.035816 0.000000 0.000000
# 5 0.000000 0.000000 0.000000 0.000000 0.041287 0.000000
# 6 0.000000 0.000000 0.000000 0.000000 0.000000 0.050453
#
#
# Mechanical properties :
#
#
# Convention : Reuss Voigt Hill
#
# Bulk Modulus (GPa) = 60.83279 69.71842 65.27561
# Shear Modulus (GPa) = 27.17366 30.27596 28.72481
#
# Velocity S-wave (km/s) = 3.69134 3.89636 3.79524
# Velocity P-wave (km/s) = 6.97654 7.42980 7.20674
#
# Compressibility (1/GPa) = 0.01643850
#
# Stress axis : x y z
#
# Youngs Moduli (GPa) = 72.46646 126.33705 83.42068
#
# Poissons Ratio (x) = 0.10941 0.28198
# Poissons Ratio (y) = 0.06276 0.36586
# Poissons Ratio (z) = 0.24495 0.55407
#
# Static dielectric constant tensor:
#      x y z
#    x 3.604340 0.000000 0.000000 
#    y 0.000000 3.828680 0.000000 
#    z 0.000000 0.000000 3.685580 
# 
# 
# High freq. dielectric constant tensor:
#      x y z
#    x 1.776770 0.000000 0.000000 
#    y 0.000000 1.773490 0.000000 
#    z 0.000000 0.000000 1.776050 
# 
# From -- ./inp_files/67881.got.cif
#   From: 2010.06.25/outbox.cif.g09.slc.cpg/sg71_34_cif.got.tgz:67881.got - 2010.06.28 04:59:45.
