data_PCOD8290676
_publ_section_title
;
Structure prediction by ZEFSAII (Michael W. Deem and Ramdas Pophale) SiO2 
 PCOD8290676
Probable space group: I M M M
;
_chemical_formula_sum "Si O2"
_cell_formula_units_Z 104
_cell_length_a 8.644085
_cell_length_b 28.198351
_cell_length_c 22.677959
_cell_angle_alpha 90.000000
_cell_angle_beta 90.000000
_cell_angle_gamma 90.000000
_cell_volume 5527.728533
_symmetry_space_group_name_H-M "I M M M"
_symmetry_group_IT_number 71
_symmetry_cell_setting 'orthorhombic'
loop_
_space_group_symop_operation_xyz
x,y,z
-x,-y,z
x,-y,-z
-x,y,-z
-x,-y,-z
x,y,-z
-x,y,z
x,-y,z
1/2+x,1/2+y,1/2+z
1/2-x,1/2-y,1/2+z
1/2+x,1/2-y,1/2-z
1/2-x,1/2+y,1/2-z
1/2-x,1/2-y,1/2-z
1/2+x,1/2+y,1/2-z
1/2-x,1/2+y,1/2+z
1/2+x,1/2-y,1/2+z
loop_
_atom_site_type_symbol
_atom_site_label
_atom_site_fract_x
_atom_site_fract_y
_atom_site_fract_z
Si Si1 0.816394 0.947440 0.229420
Si Si2 0.816621 0.555480 0.500000
Si Si3 0.826506 0.444957 0.933691
Si Si4 0.820012 0.705481 0.189642
Si Si5 0.818423 0.697400 0.324440
Si Si6 0.316924 0.392687 0.385651
Si Si7 0.678440 0.612920 0.838236
O O1 0.761750 0.926135 0.167544
O O2 0.752042 0.915210 0.282155
O O3 0.000000 0.949572 0.233075
O O4 0.745354 0.000000 0.235475
O O5 0.757226 0.500000 0.500000
O O6 0.758594 0.585135 0.443773
O O7 0.000000 0.555499 0.500000
O O8 0.787893 0.500000 0.931177
O O9 0.697205 0.418964 0.895665
O O10 0.000000 0.435203 0.909666
O O11 0.812534 0.425959 0.000000
O O12 0.763479 0.692401 0.256205
O O13 0.729456 0.749014 0.159242
O O14 0.778757 0.659949 0.150797
O O15 0.000000 0.717781 0.188834
O O16 0.736220 0.660683 0.369099
O O17 0.000000 0.689870 0.331466
O O18 0.500000 0.392381 0.394463
O O19 0.500000 0.626238 0.828582
#
# Coordination Sequence:
#
# PCOD8290676 Si02
#       7
#    16   8  16  16  16  16  16
#     4   9  18  31  49  78 114 146 179 225 277 331
#     4  11  25  43  61  85 119 157 201 251 298 347
#     4   9  19  36  55  75 105 147 190 228 270 326
#     4  10  20  34  55  83 116 150 187 225 275 339
#     4  10  20  35  57  84 115 147 184 230 281 335
#     4  11  21  37  61  85 114 152 195 237 289 352
#     4  11  20  32  53  82 115 146 182 230 283 332
#
# _framework density 18.814238
#
# number of rings (size 3 to 8) (size 9 to 14) (size 15 to 20)
#    0.000    1.923    1.538    3.462    0.000    3.692 
#    0.000    0.769    1.692    3.692    0.000    0.000 
#    0.000    0.000    0.000    0.000    0.000    0.000 
#
# Total GULP energy -644740.012979 kJ/mol
# GULP energy per Si atom -12398.846403 kJ/mol
# Density = 1.877142 g / cm^3
# Si number density = 18.814238 Si / 1000 Ang^3
#
#
#
# Elastic Constant Matrix: (Units=GPa)
#
#
# Indices 1 2 3 4 5 6 
#
# 1 56.0667 31.6559 27.1718 0.0000 0.0000 0.0000
# 2 31.6559 135.4594 59.9657 0.0000 0.0000 0.0000
# 3 27.1718 59.9657 91.8875 0.0000 0.0000 0.0000
# 4 0.0000 0.0000 0.0000 26.7112 0.0000 0.0000
# 5 0.0000 0.0000 0.0000 0.0000 27.8732 0.0000
# 6 0.0000 0.0000 0.0000 0.0000 0.0000 30.7970
#
#
#
# Elastic Compliance Matrix: (Units=1/GPa)
#
#
# Indices 1 2 3 4 5 6 
#
# 1 0.021730 -0.003141 -0.004376 0.000000 0.000000 0.000000
# 2 -0.003141 0.010835 -0.006142 0.000000 0.000000 0.000000
# 3 -0.004376 -0.006142 0.016185 0.000000 0.000000 0.000000
# 4 0.000000 0.000000 0.000000 0.037437 0.000000 0.000000
# 5 0.000000 0.000000 0.000000 0.000000 0.035877 0.000000
# 6 0.000000 0.000000 0.000000 0.000000 0.000000 0.032471
#
#
# Mechanical properties :
#
#
# Convention : Reuss Voigt Hill
#
# Bulk Modulus (GPa) = 46.65863 57.88895 52.27379
# Shear Modulus (GPa) = 26.45523 28.05096 27.25310
#
# Velocity S-wave (km/s) = 3.75391 3.86546 3.81009
# Velocity P-wave (km/s) = 6.60625 7.12446 6.87024
#
# Compressibility (1/GPa) = 0.02143226
#
# Stress axis : x y z
#
# Youngs Moduli (GPa) = 46.01921 92.28963 61.78418
#
# Poissons Ratio (x) = 0.28988 0.27036
# Poissons Ratio (y) = 0.14455 0.37950
# Poissons Ratio (z) = 0.20138 0.56688
#
# Static dielectric constant tensor:
#      x y z
#    x 3.285180 0.000000 0.000000 
#    y 0.000000 3.581500 0.000000 
#    z 0.000000 0.000000 3.311640 
# 
# 
# High freq. dielectric constant tensor:
#      x y z
#    x 1.724460 0.000000 0.000000 
#    y 0.000000 1.741140 0.000000 
#    z 0.000000 0.000000 1.710020 
# 
# From -- ./inp_files/16955.got.cif
#   From: 2010.06.25/outbox.cif.g09.slc.cpg/sg71_9_cif.got.tgz:16955.got - 2010.06.28 04:59:45.
