data_PCOD8290515
_publ_section_title
;
Structure prediction by ZEFSAII (Michael W. Deem and Ramdas Pophale) SiO2 
 PCOD8290515
Probable space group: I M M M
;
_chemical_formula_sum "Si O2"
_cell_formula_units_Z 104
_cell_length_a 23.517506
_cell_length_b 29.228483
_cell_length_c 8.225683
_cell_angle_alpha 90.000000
_cell_angle_beta 90.000000
_cell_angle_gamma 90.000000
_cell_volume 5654.178406
_symmetry_space_group_name_H-M "I M M M"
_symmetry_group_IT_number 71
_symmetry_cell_setting 'orthorhombic'
loop_
_space_group_symop_operation_xyz
x,y,z
-x,-y,z
x,-y,-z
-x,y,-z
-x,-y,-z
x,y,-z
-x,y,z
x,-y,z
1/2+x,1/2+y,1/2+z
1/2-x,1/2-y,1/2+z
1/2+x,1/2-y,1/2-z
1/2-x,1/2+y,1/2-z
1/2-x,1/2-y,1/2-z
1/2+x,1/2+y,1/2-z
1/2-x,1/2+y,1/2+z
1/2+x,1/2-y,1/2+z
loop_
_atom_site_type_symbol
_atom_site_label
_atom_site_fract_x
_atom_site_fract_y
_atom_site_fract_z
Si Si1 0.566712 0.285082 0.683378
Si Si2 0.437204 0.946315 0.500000
Si Si3 0.434908 0.379560 0.813601
Si Si4 0.153831 0.948674 0.186056
Si Si5 0.379637 0.096344 0.187379
Si Si6 0.726405 0.947240 0.687135
Si Si7 0.935996 0.690734 0.688581
O O1 0.583463 0.296448 0.500000
O O2 0.500000 0.279506 0.711048
O O3 0.588945 0.327915 0.789442
O O4 0.592818 0.236042 0.733432
O O5 0.500000 0.924696 0.500000
O O6 0.408595 0.933265 0.671392
O O7 0.438930 0.000000 0.500000
O O8 0.500000 0.382156 0.751279
O O9 0.399051 0.415410 0.710936
O O10 0.430073 0.393452 0.000000
O O11 0.208027 0.932562 0.291246
O O12 0.135289 0.000000 0.237300
O O13 0.172904 0.947328 0.000000
O O14 0.312431 0.086016 0.202302
O O15 0.393830 0.148972 0.227559
O O16 0.399523 0.084824 0.000000
O O17 0.708503 0.941194 0.500000
O O18 0.718306 0.000000 0.742796
O O19 0.940465 0.700457 0.500000
O O20 0.000000 0.680290 0.756664
#
# Coordination Sequence:
#
# PCOD8290515 Si02
#       7
#    16   8  16  16  16  16  16
#     4   9  17  29  49  76 104 138 177 218 265 320
#     4  11  24  38  52  76 110 146 185 229 282 342
#     4  10  20  34  53  78 111 147 179 215 264 326
#     4  10  21  36  55  80 108 140 180 226 272 320
#     4  11  22  36  56  80 108 145 187 235 283 335
#     4  10  20  36  57  79 104 137 183 233 277 326
#     4   9  18  32  50  75 106 139 178 224 274 327
#
# _framework density 18.393476
#
# number of rings (size 3 to 8) (size 9 to 14) (size 15 to 20)
#    0.000    2.077    0.769    2.769    1.077    6.769 
#    0.000    2.308    0.000    0.923    0.000    0.000 
#    0.000    0.000    0.000    0.000    0.000    0.000 
#
# Total GULP energy -644591.529556 kJ/mol
# GULP energy per Si atom -12395.990953 kJ/mol
# Density = 1.835161 g / cm^3
# Si number density = 18.393476 Si / 1000 Ang^3
#
#
#
# Elastic Constant Matrix: (Units=GPa)
#
#
# Indices 1 2 3 4 5 6 
#
# 1 76.0454 56.6253 23.7038 0.0000 0.0000 0.0000
# 2 56.6253 113.7989 32.5426 0.0000 0.0000 0.0000
# 3 23.7038 32.5426 74.3688 0.0000 0.0000 0.0000
# 4 0.0000 0.0000 0.0000 31.8000 0.0000 0.0000
# 5 0.0000 0.0000 0.0000 0.0000 25.5708 0.0000
# 6 0.0000 0.0000 0.0000 0.0000 0.0000 19.6656
#
#
#
# Elastic Compliance Matrix: (Units=1/GPa)
#
#
# Indices 1 2 3 4 5 6 
#
# 1 0.021276 -0.009884 -0.002456 0.000000 0.000000 0.000000
# 2 -0.009884 0.014636 -0.003254 0.000000 0.000000 0.000000
# 3 -0.002456 -0.003254 0.015653 0.000000 0.000000 0.000000
# 4 0.000000 0.000000 0.000000 0.031447 0.000000 0.000000
# 5 0.000000 0.000000 0.000000 0.000000 0.039107 0.000000
# 6 0.000000 0.000000 0.000000 0.000000 0.000000 0.050850
#
#
# Mechanical properties :
#
#
# Convention : Reuss Voigt Hill
#
# Bulk Modulus (GPa) = 49.07662 54.43962 51.75812
# Shear Modulus (GPa) = 23.70228 25.49670 24.59949
#
# Velocity S-wave (km/s) = 3.59364 3.72719 3.66102
# Velocity P-wave (km/s) = 6.63011 6.94147 6.78758
#
# Compressibility (1/GPa) = 0.02037630
#
# Stress axis : x y z
#
# Youngs Moduli (GPa) = 47.00212 68.32320 63.88421
#
# Poissons Ratio (x) = 0.67532 0.15690
# Poissons Ratio (y) = 0.46458 0.20789
# Poissons Ratio (z) = 0.11544 0.22234
#
# Static dielectric constant tensor:
#      x y z
#    x 3.199230 0.000000 0.000000 
#    y 0.000000 3.439860 0.000000 
#    z 0.000000 0.000000 3.471370 
# 
# 
# High freq. dielectric constant tensor:
#      x y z
#    x 1.679840 0.000000 0.000000 
#    y 0.000000 1.712460 0.000000 
#    z 0.000000 0.000000 1.724960 
# 
# From -- ./inp_files/13268.got.cif
#   From: 2010.06.25/outbox.cif.g09.slc.cpg/sg71_7_cif.got.tgz:13268.got - 2010.06.28 04:59:45.
