data_PCOD8290451
_publ_section_title
;
Structure prediction by ZEFSAII (Michael W. Deem and Ramdas Pophale) SiO2 
 PCOD8290451
Probable space group: I M M M
;
_chemical_formula_sum "Si O2"
_cell_formula_units_Z 96
_cell_length_a 12.158836
_cell_length_b 33.798708
_cell_length_c 13.572834
_cell_angle_alpha 90.000000
_cell_angle_beta 90.000000
_cell_angle_gamma 90.000000
_cell_volume 5577.796139
_symmetry_space_group_name_H-M "I M M M"
_symmetry_group_IT_number 71
_symmetry_cell_setting 'orthorhombic'
loop_
_space_group_symop_operation_xyz
x,y,z
-x,-y,z
x,-y,-z
-x,y,-z
-x,-y,-z
x,y,-z
-x,y,z
x,-y,z
1/2+x,1/2+y,1/2+z
1/2-x,1/2-y,1/2+z
1/2+x,1/2-y,1/2-z
1/2-x,1/2+y,1/2-z
1/2-x,1/2-y,1/2-z
1/2+x,1/2+y,1/2-z
1/2-x,1/2+y,1/2+z
1/2+x,1/2-y,1/2+z
loop_
_atom_site_type_symbol
_atom_site_label
_atom_site_fract_x
_atom_site_fract_y
_atom_site_fract_z
Si Si1 0.631335 0.199776 0.717608
Si Si2 0.207928 0.954852 0.889562
Si Si3 0.871719 0.544320 0.220420
Si Si4 0.369851 0.120868 0.609012
Si Si5 0.000000 0.180007 0.116844
Si Si6 0.284853 0.274539 0.615727
Si Si7 0.000000 0.091572 0.882381
O O1 0.500000 0.205700 0.717975
O O2 0.665517 0.155598 0.684009
O O3 0.689939 0.228837 0.639364
O O4 0.678373 0.208863 0.826559
O O5 0.316634 0.948688 0.825913
O O6 0.108919 0.929743 0.842048
O O7 0.168312 0.000000 0.890058
O O8 0.236278 0.940368 0.000000
O O9 0.845038 0.500000 0.179197
O O10 0.827731 0.577856 0.145767
O O11 0.000000 0.549506 0.239574
O O12 0.319890 0.128369 0.500000
O O13 0.500000 0.120245 0.601406
O O14 0.890680 0.201471 0.154924
O O15 0.000000 0.135846 0.159062
O O16 0.000000 0.180419 0.000000
O O17 0.262288 0.279952 0.500000
O O18 0.000000 0.089366 0.000000
#
# Coordination Sequence:
#
# PCOD8290451 Si02
#       7
#    16  16  16  16   8  16   8
#     4  10  20  34  53  77 102 132 169 206 246 293
#     4   9  17  29  46  68  96 130 164 199 240 287
#     4   9  18  31  46  69  99 127 159 199 246 299
#     4   9  18  32  51  72  94 124 162 204 247 292
#     4   9  18  31  48  71  96 129 166 201 244 289
#     4  10  20  34  53  75 103 136 168 204 245 292
#     4   9  17  28  45  68  94 126 164 203 236 275
#
# _framework density 17.211098
#
# number of rings (size 3 to 8) (size 9 to 14) (size 15 to 20)
#    0.000    2.667    0.833    0.750    2.333    2.667 
#    0.000    3.333    0.000    3.000    0.000    1.750 
#    0.000    2.667    0.000    0.000    0.000    0.000 
#
# Total GULP energy -595037.210390 kJ/mol
# GULP energy per Si atom -12396.608550 kJ/mol
# Density = 1.717192 g / cm^3
# Si number density = 17.211098 Si / 1000 Ang^3
#
#
#
# Elastic Constant Matrix: (Units=GPa)
#
#
# Indices 1 2 3 4 5 6 
#
# 1 48.4446 35.2948 33.2352 0.0001 0.0001 0.0000
# 2 35.2948 127.6847 48.9282 0.0004 -0.0001 -0.0001
# 3 33.2352 48.9282 89.8622 0.0025 0.0028 0.0011
# 4 0.0001 0.0004 0.0025 24.3037 0.0010 0.0004
# 5 0.0001 -0.0001 0.0028 0.0010 11.8850 0.0002
# 6 0.0000 -0.0001 0.0011 0.0004 0.0002 18.9260
#
#
#
# Elastic Compliance Matrix: (Units=1/GPa)
#
#
# Indices 1 2 3 4 5 6 
#
# 1 0.030098 -0.005123 -0.008342 0.000001 0.000002 0.000001
# 2 -0.005123 0.010769 -0.003969 0.000000 0.000001 0.000000
# 3 -0.008342 -0.003969 0.016374 -0.000002 -0.000004 -0.000001
# 4 0.000001 0.000000 -0.000002 0.041146 -0.000004 -0.000001
# 5 0.000002 0.000001 -0.000004 -0.000004 0.084139 -0.000001
# 6 0.000001 0.000000 -0.000001 -0.000001 -0.000001 0.052837
#
#
# Mechanical properties :
#
#
# Convention : Reuss Voigt Hill
#
# Bulk Modulus (GPa) = 44.69647 55.65642 50.17644
# Shear Modulus (GPa) = 18.00579 20.92516 19.46548
#
# Velocity S-wave (km/s) = 3.23797 3.49061 3.36666
# Velocity P-wave (km/s) = 6.32497 6.97521 6.65803
#
# Compressibility (1/GPa) = 0.02237313
#
# Stress axis : x y z
#
# Youngs Moduli (GPa) = 33.22525 92.86227 61.07135
#
# Poissons Ratio (x) = 0.47573 0.50947
# Poissons Ratio (y) = 0.17021 0.24237
# Poissons Ratio (z) = 0.27717 0.36853
#
# Static dielectric constant tensor:
#      x y z
#    x 3.045180 0.000000 0.000000 
#    y 0.000000 3.497770 0.000000 
#    z 0.000000 0.000000 3.066900 
# 
# 
# High freq. dielectric constant tensor:
#      x y z
#    x 1.643510 0.000000 0.000000 
#    y 0.000000 1.680720 0.000000 
#    z 0.000000 0.000000 1.640390 
# 
# From -- ./inp_files/33205.got.cif
#   From: 2010.06.25/outbox.cif.g09.slc.cpg/sg71_17_cif.got.tgz:33205.got - 2010.06.28 04:59:45.
