data_PCOD8290620
_publ_section_title
;
Structure prediction by ZEFSAII (Michael W. Deem and Ramdas Pophale) SiO2 
 PCOD8290620
Probable space group: I M M M
;
_chemical_formula_sum "Si O2"
_cell_formula_units_Z 72
_cell_length_a 14.576918
_cell_length_b 27.527409
_cell_length_c 8.825765
_cell_angle_alpha 90.000000
_cell_angle_beta 90.000000
_cell_angle_gamma 90.000000
_cell_volume 3541.468684
_symmetry_space_group_name_H-M "I M M M"
_symmetry_group_IT_number 71
_symmetry_cell_setting 'orthorhombic'
loop_
_space_group_symop_operation_xyz
x,y,z
-x,-y,z
x,-y,-z
-x,y,-z
-x,-y,-z
x,y,-z
-x,y,z
x,-y,z
1/2+x,1/2+y,1/2+z
1/2-x,1/2-y,1/2+z
1/2+x,1/2-y,1/2-z
1/2-x,1/2+y,1/2-z
1/2-x,1/2-y,1/2-z
1/2+x,1/2+y,1/2-z
1/2-x,1/2+y,1/2+z
1/2+x,1/2-y,1/2+z
loop_
_atom_site_type_symbol
_atom_site_label
_atom_site_fract_x
_atom_site_fract_y
_atom_site_fract_z
Si Si1 0.344406 0.733069 0.322200
Si Si2 0.604317 0.631653 0.823650
Si Si3 0.598824 0.176725 0.829258
Si Si4 0.895076 0.500000 0.319677
Si Si5 0.773806 0.589965 0.679141
O O1 0.334878 0.726192 0.500000
O O2 0.250000 0.750000 0.250000
O O3 0.381379 0.683024 0.256434
O O4 0.412314 0.776909 0.280054
O O5 0.500000 0.613877 0.794715
O O6 0.673525 0.590819 0.756653
O O7 0.624619 0.638228 0.000000
O O8 0.500000 0.149618 0.827333
O O9 0.677098 0.140126 0.773275
O O10 0.622172 0.194178 0.000000
O O11 0.900064 0.500000 0.500000
O O12 0.837789 0.453574 0.260100
O O13 0.000000 0.500000 0.255331
O O14 0.761011 0.585405 0.500000
#
# Coordination Sequence:
#
# PCOD8290620 Si02
#       5
#    16  16  16   8  16
#     4  12  23  36  56  83 117 157 199 243 291 344
#     4  11  24  41  60  83 116 159 202 247 298 349
#     4  10  20  34  54  83 118 155 193 235 287 346
#     4   9  18  36  64  97 126 152 187 235 296 359
#     4  10  20  36  61  89 118 154 195 242 292 349
#
# _framework density 20.330546999999999
#
# number of rings (size 3 to 8) (size 9 to 14) (size 15 to 20)
#    0.000    1.444    2.222    4.000    0.000    7.556 
#    0.000    1.111    0.000    6.000    0.000    0.000 
#    0.000    0.000    0.000    0.000    0.000    0.000 
#
# Total GULP energy -446287.415923 kJ/mol
# GULP energy per Si atom -12396.872665 kJ/mol
# Density = 2.028427 g / cm^3
# Si number density = 20.330547 Si / 1000 Ang^3
#
#
#
# Elastic Constant Matrix: (Units=GPa)
#
#
# Indices 1 2 3 4 5 6 
#
# 1 161.7061 59.7903 54.0714 0.0001 0.0000 0.0000
# 2 59.7903 97.6078 40.9710 0.0000 -0.0001 -0.0001
# 3 54.0714 40.9710 90.2554 -0.0071 -0.0015 0.0004
# 4 0.0001 0.0000 -0.0071 21.6468 -0.0002 0.0000
# 5 0.0000 -0.0001 -0.0015 -0.0002 29.7441 -0.0001
# 6 0.0000 -0.0001 0.0004 0.0000 -0.0001 34.8648
#
#
#
# Elastic Compliance Matrix: (Units=1/GPa)
#
#
# Indices 1 2 3 4 5 6 
#
# 1 0.008804 -0.003927 -0.003491 -0.000001 0.000000 0.000000
# 2 -0.003927 0.014409 -0.004188 -0.000001 0.000000 0.000000
# 3 -0.003491 -0.004188 0.015072 0.000005 0.000001 0.000000
# 4 -0.000001 -0.000001 0.000005 0.046196 0.000000 0.000000
# 5 0.000000 0.000000 0.000001 0.000000 0.033620 0.000000
# 6 0.000000 0.000000 0.000000 0.000000 0.000000 0.028682
#
#
# Mechanical properties :
#
#
# Convention : Reuss Voigt Hill
#
# Bulk Modulus (GPa) = 66.35043 73.24830 69.79936
# Shear Modulus (GPa) = 28.56815 30.23360 29.40087
#
# Velocity S-wave (km/s) = 3.75264 3.86048 3.80694
# Velocity P-wave (km/s) = 7.17517 7.48184 7.33011
#
# Compressibility (1/GPa) = 0.01507149
#
# Stress axis : x y z
#
# Youngs Moduli (GPa) = 113.59014 69.40306 66.34603
#
# Poissons Ratio (x) = 0.27256 0.23164
# Poissons Ratio (y) = 0.44609 0.27786
# Poissons Ratio (z) = 0.39659 0.29066
#
# Static dielectric constant tensor:
#      x y z
#    x 4.062180 -0.000020 0.000000 
#    y -0.000020 3.501750 -0.000010 
#    z 0.000000 -0.000010 3.668410 
# 
# 
# High freq. dielectric constant tensor:
#      x y z
#    x 1.818170 0.000000 0.000000 
#    y 0.000000 1.772370 0.000000 
#    z 0.000000 0.000000 1.774670 
# 
# From -- ./inp_files/6065.got.cif
#   From: 2010.06.25/outbox.cif.g09.slc.cpg/sg71_4_cif.got.tgz:6065.got - 2010.06.28 04:59:45.
