data_PCOD8290913
_publ_section_title
;
Structure prediction by ZEFSAII (Michael W. Deem and Ramdas Pophale) SiO2 
 PCOD8290913
Probable space group: I M M M
;
_chemical_formula_sum "Si O2"
_cell_formula_units_Z 96
_cell_length_a 19.989858
_cell_length_b 21.994345
_cell_length_c 11.375281
_cell_angle_alpha 90.000000
_cell_angle_beta 90.000000
_cell_angle_gamma 90.000000
_cell_volume 5001.299650
_symmetry_space_group_name_H-M "I M M M"
_symmetry_group_IT_number 71
_symmetry_cell_setting 'orthorhombic'
loop_
_space_group_symop_operation_xyz
x,y,z
-x,-y,z
x,-y,-z
-x,y,-z
-x,-y,-z
x,y,-z
-x,y,z
x,-y,z
1/2+x,1/2+y,1/2+z
1/2-x,1/2-y,1/2+z
1/2+x,1/2-y,1/2-z
1/2-x,1/2+y,1/2-z
1/2-x,1/2-y,1/2-z
1/2+x,1/2+y,1/2-z
1/2-x,1/2+y,1/2+z
1/2+x,1/2-y,1/2+z
loop_
_atom_site_type_symbol
_atom_site_label
_atom_site_fract_x
_atom_site_fract_y
_atom_site_fract_z
Si Si1 0.324045 0.120830 0.752410
Si Si2 0.782984 0.571448 0.500000
Si Si3 0.317098 0.629858 0.859017
Si Si4 0.336884 0.000000 0.372187
Si Si5 0.424265 0.202451 0.630417
Si Si6 0.424518 0.662514 0.693674
Si Si7 0.321047 0.500000 0.873194
Si Si8 0.624137 0.428637 0.500000
O O1 0.256026 0.144320 0.690810
O O2 0.357154 0.060642 0.696620
O O3 0.376940 0.174630 0.731336
O O4 0.312617 0.107357 0.889049
O O5 0.803703 0.500000 0.500000
O O6 0.703714 0.577220 0.500000
O O7 0.374671 0.671799 0.805159
O O8 0.339566 0.562602 0.809340
O O9 0.315148 0.633789 0.000000
O O10 0.372131 0.000000 0.500000
O O11 0.258108 0.000000 0.388547
O O12 0.404766 0.177891 0.500000
O O13 0.500000 0.183904 0.662184
O O14 0.417832 0.275174 0.622533
O O15 0.500000 0.652877 0.740295
O O16 0.405019 0.605090 0.613848
O O17 0.356451 0.500000 0.000000
O O18 0.602870 0.500000 0.500000
#
# Coordination Sequence:
#
# PCOD8290913 Si02
#       8
#    16   8  16   8  16  16   8   8
#     4  11  20  37  62  90 119 158 199 245 308 368
#     4  11  22  39  63  97 131 157 195 263 321 368
#     4  10  20  35  56  87 116 151 197 252 300 359
#     4   9  16  29  56  88 116 145 186 236 291 355
#     4  10  22  42  64  85 118 160 202 250 308 368
#     4  11  23  40  59  83 120 162 203 254 309 359
#     4   7  14  28  48  74 110 143 178 222 289 346
#     4  11  23  40  63  91 122 161 209 253 305 373
#
# _framework density 19.195011000000001
#
# number of rings (size 3 to 8) (size 9 to 14) (size 15 to 20)
#    0.000    1.833    3.333    2.750    1.167    1.667 
#    1.500    0.833    0.000    3.500    0.000    0.000 
#    0.000    0.000    0.000    0.000    0.000    0.000 
#
# Total GULP energy -594799.688387 kJ/mol
# GULP energy per Si atom -12391.660175 kJ/mol
# Density = 1.915132 g / cm^3
# Si number density = 19.195011 Si / 1000 Ang^3
#
#
#
# Elastic Constant Matrix: (Units=GPa)
#
#
# Indices 1 2 3 4 5 6 
#
# 1 107.4902 50.4255 58.7878 0.0000 0.0000 0.0000
# 2 50.4255 83.0520 38.5133 0.0000 0.0000 0.0000
# 3 58.7878 38.5133 124.2640 0.0000 0.0000 0.0000
# 4 0.0000 0.0000 0.0000 28.1960 0.0000 0.0000
# 5 0.0000 0.0000 0.0000 0.0000 25.5000 0.0000
# 6 0.0000 0.0000 0.0000 0.0000 0.0000 26.7226
#
#
#
# Elastic Compliance Matrix: (Units=1/GPa)
#
#
# Indices 1 2 3 4 5 6 
#
# 1 0.015362 -0.006957 -0.005112 0.000000 0.000000 0.000000
# 2 -0.006957 0.017212 -0.002043 0.000000 0.000000 0.000000
# 3 -0.005112 -0.002043 0.011099 0.000000 0.000000 0.000000
# 4 0.000000 0.000000 0.000000 0.035466 0.000000 0.000000
# 5 0.000000 0.000000 0.000000 0.000000 0.039216 0.000000
# 6 0.000000 0.000000 0.000000 0.000000 0.000000 0.037422
#
#
# Mechanical properties :
#
#
# Convention : Reuss Voigt Hill
#
# Bulk Modulus (GPa) = 64.72626 67.80660 66.26643
# Shear Modulus (GPa) = 26.43398 27.22235 26.82817
#
# Velocity S-wave (km/s) = 3.71499 3.76998 3.74259
# Velocity P-wave (km/s) = 7.22462 7.37239 7.29888
#
# Compressibility (1/GPa) = 0.01544968
#
# Stress axis : x y z
#
# Youngs Moduli (GPa) = 65.09385 58.09844 90.09896
#
# Poissons Ratio (x) = 0.40419 0.46055
# Poissons Ratio (y) = 0.45286 0.18410
# Poissons Ratio (z) = 0.33273 0.11871
#
# Static dielectric constant tensor:
#      x y z
#    x 3.278600 0.000000 0.000000 
#    y 0.000000 3.678810 0.000000 
#    z 0.000000 0.000000 3.515930 
# 
# 
# High freq. dielectric constant tensor:
#      x y z
#    x 1.722450 0.000000 0.000000 
#    y 0.000000 1.744630 0.000000 
#    z 0.000000 0.000000 1.745810 
# 
# From -- ./inp_files/26048.got.cif
#   From: 2010.06.25/outbox.cif.g09.slc.cpg/sg71_14_cif.got.tgz:26048.got - 2010.06.28 04:59:45.
