data_PCOD8290100
_publ_section_title
;
Structure prediction by ZEFSAII (Michael W. Deem and Ramdas Pophale) SiO2 
 PCOD8290100
Probable space group: I M M M
;
_chemical_formula_sum "Si O2"
_cell_formula_units_Z 120
_cell_length_a 9.050565
_cell_length_b 27.872840
_cell_length_c 26.572878
_cell_angle_alpha 90.000000
_cell_angle_beta 90.000000
_cell_angle_gamma 90.000000
_cell_volume 6703.405744
_symmetry_space_group_name_H-M "I M M M"
_symmetry_group_IT_number 71
_symmetry_cell_setting 'orthorhombic'
loop_
_space_group_symop_operation_xyz
x,y,z
-x,-y,z
x,-y,-z
-x,y,-z
-x,-y,-z
x,y,-z
-x,y,z
x,-y,z
1/2+x,1/2+y,1/2+z
1/2-x,1/2-y,1/2+z
1/2+x,1/2-y,1/2-z
1/2-x,1/2+y,1/2-z
1/2-x,1/2-y,1/2-z
1/2+x,1/2+y,1/2-z
1/2-x,1/2+y,1/2+z
1/2+x,1/2-y,1/2+z
loop_
_atom_site_type_symbol
_atom_site_label
_atom_site_fract_x
_atom_site_fract_y
_atom_site_fract_z
Si Si1 0.326361 0.447127 0.287492
Si Si2 0.330189 0.304042 0.443714
Si Si3 0.671191 0.355969 0.345863
Si Si4 0.332373 0.292518 0.940929
Si Si5 0.169945 0.607148 0.797210
Si Si6 0.673328 0.200290 0.238196
Si Si7 0.827630 0.385912 0.087690
Si Si8 0.173393 0.943634 0.500000
O O1 0.500000 0.448259 0.280841
O O2 0.266201 0.500000 0.301881
O O3 0.279651 0.410108 0.331665
O O4 0.262262 0.431393 0.233910
O O5 0.288923 0.321713 0.500000
O O6 0.500000 0.287114 0.441384
O O7 0.300627 0.347784 0.405293
O O8 0.230407 0.259444 0.427082
O O9 0.500000 0.347485 0.331831
O O10 0.768381 0.318108 0.315356
O O11 0.500000 0.296028 0.921117
O O12 0.232157 0.332014 0.914438
O O13 0.324649 0.302115 0.000000
O O14 0.214382 0.661492 0.781485
O O15 0.200595 0.596588 0.855606
O O16 0.000000 0.599039 0.783466
O O17 0.500000 0.209164 0.234534
O O18 0.750000 0.250000 0.250000
O O19 0.000000 0.386015 0.073636
O O20 0.742696 0.421049 0.050054
O O21 0.000000 0.932158 0.500000
O O22 0.206577 0.000000 0.500000
#
# Coordination Sequence:
#
# PCOD8290100 Si02
#       8
#    16  16  16  16  16  16  16   8
#     4   9  18  34  56  79 102 132 172 217 266 316
#     4   9  18  32  51  75 105 143 182 214 251 304
#     4   9  18  33  52  75 105 139 175 216 258 308
#     4  10  20  33  50  74 104 136 172 213 258 304
#     4   9  21  37  52  75 104 134 171 216 261 311
#     4  10  20  34  50  73 105 139 174 211 259 313
#     4  11  22  37  57  77 101 135 174 217 264 318
#     4  11  25  43  59  77 103 135 173 223 276 317
#
# _framework density 17.901347999999999
#
# number of rings (size 3 to 8) (size 9 to 14) (size 15 to 20)
#    0.000    2.333    0.667    1.400    1.867    4.000 
#    0.000    2.667    0.000    0.400    0.000    2.800 
#    0.000    0.000    0.000   10.000    0.000   10.400 
#
# Total GULP energy -743999.720191 kJ/mol
# GULP energy per Si atom -12399.995337 kJ/mol
# Density = 1.786060 g / cm^3
# Si number density = 17.901348 Si / 1000 Ang^3
#
#
#
# Elastic Constant Matrix: (Units=GPa)
#
#
# Indices 1 2 3 4 5 6 
#
# 1 74.4382 53.0285 45.5755 0.0000 0.0000 0.0000
# 2 53.0285 137.1603 70.3537 0.0000 0.0000 0.0000
# 3 45.5755 70.3537 108.3106 0.0000 0.0000 0.0000
# 4 0.0000 0.0000 0.0000 19.3252 0.0000 0.0000
# 5 0.0000 0.0000 0.0000 0.0000 25.1021 0.0000
# 6 0.0000 0.0000 0.0000 0.0000 0.0000 24.7708
#
#
#
# Elastic Compliance Matrix: (Units=1/GPa)
#
#
# Indices 1 2 3 4 5 6 
#
# 1 0.020300 -0.005199 -0.005165 0.000000 0.000000 0.000000
# 2 -0.005199 0.012265 -0.005779 0.000000 0.000000 0.000000
# 3 -0.005165 -0.005779 0.015160 0.000000 0.000000 0.000000
# 4 0.000000 0.000000 0.000000 0.051746 0.000000 0.000000
# 5 0.000000 0.000000 0.000000 0.000000 0.039837 0.000000
# 6 0.000000 0.000000 0.000000 0.000000 0.000000 0.040370
#
#
# Mechanical properties :
#
#
# Convention : Reuss Voigt Hill
#
# Bulk Modulus (GPa) = 64.77204 73.09161 68.93182
# Shear Modulus (GPa) = 23.02973 23.90304 23.46639
#
# Velocity S-wave (km/s) = 3.59065 3.65809 3.62453
# Velocity P-wave (km/s) = 7.31106 7.66558 7.49042
#
# Compressibility (1/GPa) = 0.01543876
#
# Stress axis : x y z
#
# Youngs Moduli (GPa) = 49.26133 81.53215 65.96370
#
# Poissons Ratio (x) = 0.42389 0.34069
# Poissons Ratio (y) = 0.25611 0.38121
# Poissons Ratio (z) = 0.25442 0.47119
#
# Static dielectric constant tensor:
#      x y z
#    x 3.408330 0.000000 0.000000 
#    y 0.000000 3.437420 0.000000 
#    z 0.000000 0.000000 3.357490 
# 
# 
# High freq. dielectric constant tensor:
#      x y z
#    x 1.698780 0.000000 0.000000 
#    y 0.000000 1.683470 0.000000 
#    z 0.000000 0.000000 1.687380 
# 
# From -- ./inp_files/63856.got.cif
#   From: 2010.06.25/outbox.cif.g09.slc.cpg/sg71_32_cif.got.tgz:63856.got - 2010.06.28 04:59:45.
