data_PCOD8290164
_publ_section_title
;
Structure prediction by ZEFSAII (Michael W. Deem and Ramdas Pophale) SiO2 
 PCOD8290164
Probable space group: I M M M
;
_chemical_formula_sum "Si O2"
_cell_formula_units_Z 120
_cell_length_a 11.915519
_cell_length_b 21.669495
_cell_length_c 26.382566
_cell_angle_alpha 90.000000
_cell_angle_beta 90.000000
_cell_angle_gamma 90.000000
_cell_volume 6812.065060
_symmetry_space_group_name_H-M "I M M M"
_symmetry_group_IT_number 71
_symmetry_cell_setting 'orthorhombic'
loop_
_space_group_symop_operation_xyz
x,y,z
-x,-y,z
x,-y,-z
-x,y,-z
-x,-y,-z
x,y,-z
-x,y,z
x,-y,z
1/2+x,1/2+y,1/2+z
1/2-x,1/2-y,1/2+z
1/2+x,1/2-y,1/2-z
1/2-x,1/2+y,1/2-z
1/2-x,1/2-y,1/2-z
1/2+x,1/2+y,1/2-z
1/2-x,1/2+y,1/2+z
1/2+x,1/2-y,1/2+z
loop_
_atom_site_type_symbol
_atom_site_label
_atom_site_fract_x
_atom_site_fract_y
_atom_site_fract_z
Si Si1 0.500000 0.573227 0.059807
Si Si2 0.132857 0.569322 0.605644
Si Si3 0.220081 0.870888 0.613702
Si Si4 0.133059 0.366235 0.293630
Si Si5 0.376226 0.252568 0.846121
Si Si6 0.878484 0.283586 0.941694
Si Si7 0.695552 0.189323 0.942116
Si Si8 0.371619 0.070476 0.692552
O O1 0.500000 0.500000 0.067607
O O2 0.389543 0.601158 0.086556
O O3 0.500000 0.590086 0.000000
O O4 0.172014 0.500000 0.592946
O O5 0.168960 0.584880 0.663253
O O6 0.195896 0.615727 0.567118
O O7 0.000000 0.576772 0.598012
O O8 0.191948 0.816067 0.653295
O O9 0.303100 0.842389 0.572426
O O10 0.288857 0.922133 0.644797
O O11 0.180761 0.298027 0.308391
O O12 0.176159 0.388378 0.238982
O O13 0.000000 0.362169 0.292979
O O14 0.500000 0.268808 0.826931
O O15 0.388002 0.222785 0.902691
O O16 0.818200 0.218199 0.930279
O O17 0.000000 0.284104 0.913392
O O18 0.901458 0.290999 0.000000
O O19 0.658672 0.203689 0.000000
O O20 0.500000 0.089124 0.678326
O O21 0.368363 0.000000 0.710383
#
# Coordination Sequence:
#
# PCOD8290164 Si02
#       8
#     8  16  16  16  16  16  16  16
#     4  11  24  40  56  76 108 148 179 203 242 308
#     4   9  16  26  42  66  99 137 172 208 253 309
#     4  11  20  34  53  77 103 129 166 211 253 297
#     4   8  15  29  48  69  98 128 165 206 255 308
#     4   9  17  30  46  71 100 131 162 204 253 309
#     4   9  18  33  52  72  95 125 162 207 259 307
#     4   9  17  27  42  67  97 130 166 209 255 303
#     4  10  20  33  51  75  99 128 167 211 254 298
#
# _framework density 17.615803
#
# number of rings (size 3 to 8) (size 9 to 14) (size 15 to 20)
#    0.000    2.600    0.667    2.800    0.000    4.000 
#    0.000    0.667    0.000    0.400    6.933    7.467 
#    0.000    0.000    0.000    0.000    0.000    0.000 
#
# Total GULP energy -743452.447106 kJ/mol
# GULP energy per Si atom -12390.874118 kJ/mol
# Density = 1.757571 g / cm^3
# Si number density = 17.615803 Si / 1000 Ang^3
#
#
#
# Elastic Constant Matrix: (Units=GPa)
#
#
# Indices 1 2 3 4 5 6 
#
# 1 87.0759 38.4064 35.2618 0.0000 0.0000 0.0000
# 2 38.4064 100.2175 32.8431 0.0000 0.0000 0.0000
# 3 35.2618 32.8431 72.4565 0.0000 0.0000 0.0000
# 4 0.0000 0.0000 0.0000 25.1753 0.0000 0.0000
# 5 0.0000 0.0000 0.0000 0.0000 18.7034 0.0000
# 6 0.0000 0.0000 0.0000 0.0000 0.0000 21.6348
#
#
#
# Elastic Compliance Matrix: (Units=1/GPa)
#
#
# Indices 1 2 3 4 5 6 
#
# 1 0.015619 -0.004104 -0.005741 0.000000 0.000000 0.000000
# 2 -0.004104 0.012798 -0.003803 0.000000 0.000000 0.000000
# 3 -0.005741 -0.003803 0.018319 0.000000 0.000000 0.000000
# 4 0.000000 0.000000 0.000000 0.039721 0.000000 0.000000
# 5 0.000000 0.000000 0.000000 0.000000 0.053466 0.000000
# 6 0.000000 0.000000 0.000000 0.000000 0.000000 0.046222
#
#
# Mechanical properties :
#
#
# Convention : Reuss Voigt Hill
#
# Bulk Modulus (GPa) = 51.44357 52.53028 51.98692
# Shear Modulus (GPa) = 22.73524 23.31863 23.02693
#
# Velocity S-wave (km/s) = 3.59641 3.64226 3.61941
# Velocity P-wave (km/s) = 6.81997 6.89730 6.85875
#
# Compressibility (1/GPa) = 0.01943878
#
# Stress axis : x y z
#
# Youngs Moduli (GPa) = 64.02307 78.13898 54.58721
#
# Poissons Ratio (x) = 0.32072 0.31338
# Poissons Ratio (y) = 0.26278 0.20762
# Poissons Ratio (z) = 0.36755 0.29720
#
# Static dielectric constant tensor:
#      x y z
#    x 3.123200 0.000000 0.000000 
#    y 0.000000 3.366290 0.000000 
#    z 0.000000 0.000000 3.241480 
# 
# 
# High freq. dielectric constant tensor:
#      x y z
#    x 1.651690 0.000000 0.000000 
#    y 0.000000 1.684760 0.000000 
#    z 0.000000 0.000000 1.671640 
# 
# From -- ./inp_files/64842.got.cif
#   From: 2010.06.25/outbox.cif.g09.slc.cpg/sg71_33_cif.got.tgz:64842.got - 2010.06.28 04:59:45.
