data_PCOD8290392
_publ_section_title
;
Structure prediction by ZEFSAII (Michael W. Deem and Ramdas Pophale) SiO2 
 PCOD8290392
Probable space group: I M M M
;
_chemical_formula_sum "Si O2"
_cell_formula_units_Z 112
_cell_length_a 13.970328
_cell_length_b 31.190765
_cell_length_c 13.336644
_cell_angle_alpha 90.000000
_cell_angle_beta 90.000000
_cell_angle_gamma 90.000000
_cell_volume 5811.378842
_symmetry_space_group_name_H-M "I M M M"
_symmetry_group_IT_number 71
_symmetry_cell_setting 'orthorhombic'
loop_
_space_group_symop_operation_xyz
x,y,z
-x,-y,z
x,-y,-z
-x,y,-z
-x,-y,-z
x,y,-z
-x,y,z
x,-y,z
1/2+x,1/2+y,1/2+z
1/2-x,1/2-y,1/2+z
1/2+x,1/2-y,1/2-z
1/2-x,1/2+y,1/2-z
1/2-x,1/2-y,1/2-z
1/2+x,1/2+y,1/2-z
1/2-x,1/2+y,1/2+z
1/2+x,1/2-y,1/2+z
loop_
_atom_site_type_symbol
_atom_site_label
_atom_site_fract_x
_atom_site_fract_y
_atom_site_fract_z
Si Si1 0.832792 0.719965 0.286957
Si Si2 0.277586 0.548118 0.884192
Si Si3 0.609109 0.166599 0.608688
Si Si4 0.113556 0.414944 0.226672
Si Si5 0.725832 0.868433 0.881830
Si Si6 0.385697 0.379679 0.768961
Si Si7 0.106630 0.200112 0.608250
O O1 0.750000 0.750000 0.250000
O O2 0.883568 0.706212 0.184104
O O3 0.802044 0.680522 0.356785
O O4 0.900095 0.751530 0.350236
O O5 0.319348 0.500000 0.877128
O O6 0.177435 0.547139 0.820253
O O7 0.356918 0.579994 0.837812
O O8 0.257550 0.560527 0.000000
O O9 0.656732 0.176829 0.500000
O O10 0.500000 0.155277 0.591578
O O11 0.653355 0.124375 0.658616
O O12 0.144684 0.401409 0.339386
O O13 0.000000 0.425045 0.222752
O O14 0.829682 0.881272 0.836724
O O15 0.730785 0.874705 0.000000
O O16 0.500000 0.379645 0.749530
O O17 0.344868 0.335326 0.819520
O O18 0.159373 0.200241 0.500000
O O19 0.000000 0.182939 0.593732
#
# Coordination Sequence:
#
# PCOD8290392 Si02
#       7
#    16  16  16  16  16  16  16
#     4  11  20  33  47  73 108 142 179 228 279 325
#     4  10  21  36  58  91 123 148 177 219 275 339
#     4   9  18  32  50  71  99 139 181 216 256 313
#     4   9  19  36  57  83 116 151 185 222 269 333
#     4  10  21  37  56  82 112 147 193 242 286 329
#     4  10  21  39  58  79 110 148 190 235 282 334
#     4  10  20  34  52  73 101 141 186 227 271 328
#
# _framework density 19.272535000000001
#
# number of rings (size 3 to 8) (size 9 to 14) (size 15 to 20)
#    0.000    2.143    1.429    1.714    0.000    4.571 
#    0.000    1.429    0.000    6.857    0.000    8.000 
#    0.000    0.000    0.000    0.000    0.000    0.000 
#
# Total GULP energy -693849.695824 kJ/mol
# GULP energy per Si atom -12390.173140 kJ/mol
# Density = 1.922867 g / cm^3
# Si number density = 19.272535 Si / 1000 Ang^3
#
#
#
# Elastic Constant Matrix: (Units=GPa)
#
#
# Indices 1 2 3 4 5 6 
#
# 1 68.9592 16.0828 25.5420 0.0002 0.0000 -0.0001
# 2 16.0828 85.1124 39.7776 0.0001 -0.0003 -0.0001
# 3 25.5420 39.7776 157.9521 0.0081 -0.0047 -0.0009
# 4 0.0002 0.0001 0.0081 24.3652 -0.0018 -0.0003
# 5 0.0000 -0.0003 -0.0047 -0.0018 18.7274 0.0003
# 6 -0.0001 -0.0001 -0.0009 -0.0003 0.0003 22.8792
#
#
#
# Elastic Compliance Matrix: (Units=1/GPa)
#
#
# Indices 1 2 3 4 5 6 
#
# 1 0.015726 -0.002021 -0.002034 0.000001 -0.000001 0.000000
# 2 -0.002021 0.013576 -0.003092 0.000001 -0.000001 0.000000
# 3 -0.002034 -0.003092 0.007439 -0.000002 0.000002 0.000000
# 4 0.000001 0.000001 -0.000002 0.041042 0.000004 0.000001
# 5 -0.000001 -0.000001 0.000002 0.000004 0.053398 -0.000001
# 6 0.000000 0.000000 0.000000 0.000001 -0.000001 0.043708
#
#
# Mechanical properties :
#
#
# Convention : Reuss Voigt Hill
#
# Bulk Modulus (GPa) = 44.55023 52.75871 48.65447
# Shear Modulus (GPa) = 25.42393 28.56911 26.99652
#
# Velocity S-wave (km/s) = 3.63599 3.85434 3.74676
# Velocity P-wave (km/s) = 6.38697 6.87331 6.63460
#
# Compressibility (1/GPa) = 0.02244657
#
# Stress axis : x y z
#
# Youngs Moduli (GPa) = 63.58869 73.65855 134.43283
#
# Poissons Ratio (x) = 0.14886 0.27345
# Poissons Ratio (y) = 0.12851 0.41568
# Poissons Ratio (z) = 0.12934 0.22776
#
# Static dielectric constant tensor:
#      x y z
#    x 3.521580 -0.000010 0.000000 
#    y -0.000010 3.438870 0.000000 
#    z 0.000000 0.000000 3.668320 
# 
# 
# High freq. dielectric constant tensor:
#      x y z
#    x 1.751020 0.000000 0.000000 
#    y 0.000000 1.736510 0.000000 
#    z 0.000000 0.000000 1.746740 
# 
# From -- ./inp_files/22666.got.cif
#   From: 2010.06.25/outbox.cif.g09.slc.cpg/sg71_12_cif.got.tgz:22666.got - 2010.06.28 04:59:45.
