data_PCOD8290910
_publ_section_title
;
Structure prediction by ZEFSAII (Michael W. Deem and Ramdas Pophale) SiO2 
 PCOD8290910
Probable space group: I M M M
;
_chemical_formula_sum "Si O2"
_cell_formula_units_Z 56
_cell_length_a 9.995999
_cell_length_b 28.044748
_cell_length_c 8.383937
_cell_angle_alpha 90.000000
_cell_angle_beta 90.000000
_cell_angle_gamma 90.000000
_cell_volume 2350.313267
_symmetry_space_group_name_H-M "I M M M"
_symmetry_group_IT_number 71
_symmetry_cell_setting 'orthorhombic'
loop_
_space_group_symop_operation_xyz
x,y,z
-x,-y,z
x,-y,-z
-x,y,-z
-x,-y,-z
x,y,-z
-x,y,z
x,-y,z
1/2+x,1/2+y,1/2+z
1/2-x,1/2-y,1/2+z
1/2+x,1/2-y,1/2-z
1/2-x,1/2+y,1/2-z
1/2-x,1/2-y,1/2-z
1/2+x,1/2+y,1/2-z
1/2-x,1/2+y,1/2+z
1/2+x,1/2-y,1/2+z
loop_
_atom_site_type_symbol
_atom_site_label
_atom_site_fract_x
_atom_site_fract_y
_atom_site_fract_z
Si Si1 0.000000 0.178209 0.685948
Si Si2 0.500000 0.218669 0.317062
Si Si3 0.220025 0.446696 0.185255
Si Si4 0.215774 0.349857 0.684789
Si Si5 0.000000 0.053760 0.174052
O O1 0.000000 0.234738 0.708436
O O2 0.128734 0.153801 0.767198
O O3 0.000000 0.166397 0.500000
O O4 0.500000 0.234937 0.500000
O O5 0.366309 0.188945 0.283667
O O6 0.178341 0.500000 0.248557
O O7 0.151506 0.402494 0.277736
O O8 0.375206 0.435910 0.213331
O O9 0.184347 0.443465 0.000000
O O10 0.196183 0.338855 0.500000
O O11 0.000000 0.000000 0.120919
O O12 0.000000 0.081508 0.000000
#
# Coordination Sequence:
#
# PCOD8290910 Si02
#       5
#     8   8  16  16   8
#     4  12  25  45  71 100 132 169 215 267 325 386
#     4  12  26  47  70  96 131 170 214 267 328 390
#     4  10  20  35  56  85 123 167 213 262 317 377
#     4  12  25  43  67  98 133 172 218 267 323 385
#     4   9  16  27  46  75 112 154 200 253 310 365
#
# _framework density 23.826611
#
# number of rings (size 3 to 8) (size 9 to 14) (size 15 to 20)
#    0.000    1.000    0.000    8.143    0.000    3.429 
#    0.000    0.714    0.000    4.286    0.000    0.000 
#    0.000    0.000    0.000    0.000    0.000    0.000 
#
# Total GULP energy -347002.723082 kJ/mol
# GULP energy per Si atom -12392.954396 kJ/mol
# Density = 2.377238 g / cm^3
# Si number density = 23.826611 Si / 1000 Ang^3
#
#
#
# Elastic Constant Matrix: (Units=GPa)
#
#
# Indices 1 2 3 4 5 6 
#
# 1 72.8470 13.3241 11.6328 -0.0005 -0.0004 -0.0012
# 2 13.3241 166.8876 12.7195 0.0002 0.0003 -0.0006
# 3 11.6328 12.7195 108.0838 -0.0033 0.0040 -0.0009
# 4 -0.0005 0.0002 -0.0033 43.0472 0.0003 0.0012
# 5 -0.0004 0.0003 0.0040 0.0003 26.1336 0.0006
# 6 -0.0012 -0.0006 -0.0009 0.0012 0.0006 -99.8874
#
#
#
# Elastic Compliance Matrix: (Units=1/GPa)
#
#
# Indices 1 2 3 4 5 6 
#
# 1 0.014138 -0.001022 -0.001401 0.000000 0.000000 0.000000
# 2 -0.001022 0.006120 -0.000610 0.000000 0.000000 0.000000
# 3 -0.001401 -0.000610 0.009475 0.000001 -0.000001 0.000000
# 4 0.000000 0.000000 0.000001 0.023230 0.000000 0.000000
# 5 0.000000 0.000000 -0.000001 0.000000 0.038265 0.000000
# 6 0.000000 0.000000 0.000000 0.000000 0.000000 -0.010011
#
#
# Mechanical properties :
#
#
# Convention : Reuss Voigt Hill
#
# Bulk Modulus (GPa) = 42.25503 47.01901 44.63702
# Shear Modulus (GPa) = 52.53610 14.53483 33.53546
#
# Velocity S-wave (km/s) = 4.70077 2.47255 3.75571
# Velocity P-wave (km/s) = 6.87283 5.28469 6.13041
#
# Compressibility (1/GPa) = 0.02366582
#
# Stress axis : x y z
#
# Youngs Moduli (GPa) = 70.73083 163.39451 105.54402
#
# Poissons Ratio (x) = 0.16698 0.14791
# Poissons Ratio (y) = 0.07228 0.06441
# Poissons Ratio (z) = 0.09912 0.09971
#
# Static dielectric constant tensor:
#      x y z
#    x 3.973590 0.000000 0.000000 
#    y 0.000000 4.826200 0.000000 
#    z 0.000000 0.000000 4.088430 
# 
# 
# High freq. dielectric constant tensor:
#      x y z
#    x 1.921610 0.000000 0.000000 
#    y 0.000000 1.974760 0.000000 
#    z 0.000000 0.000000 1.946200 
# 
# From -- ./inp_files/3404.got.cif
#   From: 2010.06.25/outbox.cif.g09.slc.cpg/sg71_2_cif.got.tgz:3404.got - 2010.06.28 04:59:45.
