data_PCOD8290998
_publ_section_title
;
Structure prediction by ZEFSAII (Michael W. Deem and Ramdas Pophale) SiO2 
 PCOD8290998
Probable space group: I M M M
;
_chemical_formula_sum "Si O2"
_cell_formula_units_Z 88
_cell_length_a 23.529784
_cell_length_b 16.796988
_cell_length_c 11.382474
_cell_angle_alpha 90.000000
_cell_angle_beta 90.000000
_cell_angle_gamma 90.000000
_cell_volume 4498.689502
_symmetry_space_group_name_H-M "I M M M"
_symmetry_group_IT_number 71
_symmetry_cell_setting 'orthorhombic'
loop_
_space_group_symop_operation_xyz
x,y,z
-x,-y,z
x,-y,-z
-x,y,-z
-x,-y,-z
x,y,-z
-x,y,z
x,-y,z
1/2+x,1/2+y,1/2+z
1/2-x,1/2-y,1/2+z
1/2+x,1/2-y,1/2-z
1/2-x,1/2+y,1/2-z
1/2-x,1/2-y,1/2-z
1/2+x,1/2+y,1/2-z
1/2-x,1/2+y,1/2+z
1/2+x,1/2-y,1/2+z
loop_
_atom_site_type_symbol
_atom_site_label
_atom_site_fract_x
_atom_site_fract_y
_atom_site_fract_z
Si Si1 0.631054 0.634058 0.767006
Si Si2 0.065296 0.409001 0.748385
Si Si3 0.750910 0.089436 0.635415
Si Si4 0.433691 0.670849 0.000000
Si Si5 0.935615 0.000000 0.138377
Si Si6 0.434333 0.142547 0.000000
Si Si7 0.351251 0.201929 0.635826
O O1 0.693038 0.597784 0.786999
O O2 0.595358 0.633644 0.886310
O O3 0.596982 0.579312 0.677198
O O4 0.639044 0.721671 0.715601
O O5 0.072170 0.500000 0.785276
O O6 0.092768 0.394576 0.618551
O O7 0.095661 0.356615 0.846918
O O8 0.000000 0.381505 0.746804
O O9 0.766738 0.104708 0.500000
O O10 0.704910 0.154319 0.677348
O O11 0.726283 0.000000 0.652773
O O12 0.423494 0.764327 0.000000
O O13 0.500000 0.648718 0.000000
O O14 0.000000 0.000000 0.188607
O O15 0.937005 0.000000 0.000000
O O16 0.500000 0.118568 0.000000
O O17 0.347225 0.226923 0.500000
#
# Coordination Sequence:
#
# PCOD8290998 Si02
#       7
#    16  16  16   8   8   8  16
#     4  12  22  42  66  90 125 161 209 261 315 376
#     4  10  20  35  58  86 119 159 202 255 311 370
#     4  10  21  40  64  91 120 158 203 261 318 362
#     4  11  22  36  64 100 125 155 204 265 318 371
#     4  11  26  45  67  95 131 170 206 253 316 386
#     4   9  17  34  56  84 120 155 195 247 312 369
#     4  11  24  39  60  88 122 169 213 251 306 378
#
# _framework density 19.561252
#
# number of rings (size 3 to 8) (size 9 to 14) (size 15 to 20)
#    0.000    1.364    3.636    2.455    0.000    3.636 
#    0.000    1.818    2.000    0.000    0.000    0.000 
#    0.000    0.000    0.000    0.000    0.000    0.000 
#
# Total GULP energy -545705.016535 kJ/mol
# GULP energy per Si atom -12402.386739 kJ/mol
# Density = 1.951673 g / cm^3
# Si number density = 19.561252 Si / 1000 Ang^3
#
#
#
# Elastic Constant Matrix: (Units=GPa)
#
#
# Indices 1 2 3 4 5 6 
#
# 1 108.2800 52.7077 35.1683 0.0000 0.0000 0.0000
# 2 52.7077 100.8127 29.3845 0.0000 0.0000 0.0000
# 3 35.1683 29.3845 69.4012 0.0000 0.0000 0.0000
# 4 0.0000 0.0000 0.0000 21.4168 0.0000 0.0000
# 5 0.0000 0.0000 0.0000 0.0000 27.2027 0.0000
# 6 0.0000 0.0000 0.0000 0.0000 0.0000 35.1611
#
#
#
# Elastic Compliance Matrix: (Units=1/GPa)
#
#
# Indices 1 2 3 4 5 6 
#
# 1 0.013463 -0.005762 -0.004383 0.000000 0.000000 0.000000
# 2 -0.005762 0.013781 -0.002915 0.000000 0.000000 0.000000
# 3 -0.004383 -0.002915 0.017864 0.000000 0.000000 0.000000
# 4 0.000000 0.000000 0.000000 0.046692 0.000000 0.000000
# 5 0.000000 0.000000 0.000000 0.000000 0.036761 0.000000
# 6 0.000000 0.000000 0.000000 0.000000 0.000000 0.028441
#
#
# Mechanical properties :
#
#
# Convention : Reuss Voigt Hill
#
# Bulk Modulus (GPa) = 52.66129 57.00165 54.83147
# Shear Modulus (GPa) = 26.39176 27.50501 26.94838
#
# Velocity S-wave (km/s) = 3.67711 3.75386 3.71569
# Velocity P-wave (km/s) = 6.70879 6.92763 6.81909
#
# Compressibility (1/GPa) = 0.01898928
#
# Stress axis : x y z
#
# Youngs Moduli (GPa) = 74.27533 72.56124 55.97714
#
# Poissons Ratio (x) = 0.41806 0.24535
# Poissons Ratio (y) = 0.42794 0.16320
# Poissons Ratio (z) = 0.32555 0.21155
#
# Static dielectric constant tensor:
#      x y z
#    x 3.573510 0.000000 0.000000 
#    y 0.000000 3.570480 0.000000 
#    z 0.000000 0.000000 3.568730 
# 
# 
# High freq. dielectric constant tensor:
#      x y z
#    x 1.757860 0.000000 0.000000 
#    y 0.000000 1.771940 0.000000 
#    z 0.000000 0.000000 1.760020 
# 
# From -- ./inp_files/25697.got.cif
#   From: 2010.06.25/outbox.cif.g09.slc.cpg/sg71_13_cif.got.tgz:25697.got - 2010.06.28 04:59:45.
