data_PCOD8290681
_publ_section_title
;
Structure prediction by ZEFSAII (Michael W. Deem and Ramdas Pophale) SiO2 
 PCOD8290681
Probable space group: I M M M
;
_chemical_formula_sum "Si O2"
_cell_formula_units_Z 88
_cell_length_a 32.236159
_cell_length_b 12.752041
_cell_length_c 11.165774
_cell_angle_alpha 90.000000
_cell_angle_beta 90.000000
_cell_angle_gamma 90.000000
_cell_volume 4589.990883
_symmetry_space_group_name_H-M "I M M M"
_symmetry_group_IT_number 71
_symmetry_cell_setting 'orthorhombic'
loop_
_space_group_symop_operation_xyz
x,y,z
-x,-y,z
x,-y,-z
-x,y,-z
-x,-y,-z
x,y,-z
-x,y,z
x,-y,z
1/2+x,1/2+y,1/2+z
1/2-x,1/2-y,1/2+z
1/2+x,1/2-y,1/2-z
1/2-x,1/2+y,1/2-z
1/2-x,1/2-y,1/2-z
1/2+x,1/2+y,1/2-z
1/2-x,1/2+y,1/2+z
1/2+x,1/2-y,1/2+z
loop_
_atom_site_type_symbol
_atom_site_label
_atom_site_fract_x
_atom_site_fract_y
_atom_site_fract_z
Si Si1 0.952919 0.120835 0.742417
Si Si2 0.834339 0.879858 0.000000
Si Si3 0.046892 0.500000 0.641706
Si Si4 0.067783 0.117644 0.000000
Si Si5 0.683715 0.250165 0.264458
Si Si6 0.253850 0.382514 0.863199
Si Si7 0.599379 0.201177 0.861038
O O1 0.949295 0.169089 0.877349
O O2 0.925512 0.190058 0.653070
O O3 0.000000 0.127191 0.697698
O O4 0.936702 0.000000 0.738785
O O5 0.818407 0.821107 0.882682
O O6 0.883343 0.877026 0.000000
O O7 0.818068 0.000000 0.000000
O O8 0.043667 0.500000 0.500000
O O9 0.071339 0.396064 0.684611
O O10 0.000000 0.500000 0.695799
O O11 0.050383 0.000000 0.000000
O O12 0.703862 0.319100 0.159520
O O13 0.714564 0.153677 0.285753
O O14 0.639956 0.204410 0.221801
O O15 0.263786 0.500000 0.825475
O O16 0.240986 0.371118 0.000000
O O17 0.611702 0.187386 0.000000
#
# Coordination Sequence:
#
# PCOD8290681 Si02
#       7
#    16   8   8   8  16  16  16
#     4  10  20  34  55  84 116 150 188 234 288 345
#     4  11  20  35  59  86 117 153 196 236 284 349
#     4   9  20  40  62  83 113 159 205 246 295 349
#     4   9  17  32  53  80 112 150 186 228 280 344
#     4  11  22  38  60  87 117 149 195 240 291 350
#     4  10  22  40  61  85 117 152 187 236 298 358
#     4  11  23  38  59  85 116 152 197 246 293 352
#
# _framework density 19.172150999999999
#
# number of rings (size 3 to 8) (size 9 to 14) (size 15 to 20)
#    0.000    1.727    2.727    1.909    1.273    3.273 
#    0.000    0.909    0.000    1.636    0.000    3.818 
#    0.000    0.000    0.000    0.000    0.000    0.000 
#
# Total GULP energy -545594.686935 kJ/mol
# GULP energy per Si atom -12399.879249 kJ/mol
# Density = 1.912851 g / cm^3
# Si number density = 19.172151 Si / 1000 Ang^3
#
#
#
# Elastic Constant Matrix: (Units=GPa)
#
#
# Indices 1 2 3 4 5 6 
#
# 1 116.2328 51.9988 20.3034 0.0000 0.0000 0.0000
# 2 51.9988 108.9875 32.0820 0.0000 0.0000 0.0000
# 3 20.3034 32.0820 59.6348 0.0000 0.0000 0.0000
# 4 0.0000 0.0000 0.0000 22.5121 0.0000 0.0000
# 5 0.0000 0.0000 0.0000 0.0000 19.4756 0.0000
# 6 0.0000 0.0000 0.0000 0.0000 0.0000 26.5885
#
#
#
# Elastic Compliance Matrix: (Units=1/GPa)
#
#
# Indices 1 2 3 4 5 6 
#
# 1 0.010998 -0.004925 -0.001095 0.000000 0.000000 0.000000
# 2 -0.004925 0.013107 -0.005375 0.000000 0.000000 0.000000
# 3 -0.001095 -0.005375 0.020033 0.000000 0.000000 0.000000
# 4 0.000000 0.000000 0.000000 0.044420 0.000000 0.000000
# 5 0.000000 0.000000 0.000000 0.000000 0.051346 0.000000
# 6 0.000000 0.000000 0.000000 0.000000 0.000000 0.037610
#
#
# Mechanical properties :
#
#
# Convention : Reuss Voigt Hill
#
# Bulk Modulus (GPa) = 46.84014 54.84707 50.84360
# Shear Modulus (GPa) = 24.10567 25.74665 24.92616
#
# Velocity S-wave (km/s) = 3.54973 3.66856 3.60963
# Velocity P-wave (km/s) = 6.42535 6.82746 6.62946
#
# Compressibility (1/GPa) = 0.02134921
#
# Stress axis : x y z
#
# Youngs Moduli (GPa) = 90.92626 76.29419 49.91785
#
# Poissons Ratio (x) = 0.37574 0.05466
# Poissons Ratio (y) = 0.44780 0.26829
# Poissons Ratio (z) = 0.09956 0.41005
#
# Static dielectric constant tensor:
#      x y z
#    x 3.492350 0.000000 0.000000 
#    y 0.000000 3.532230 0.000000 
#    z 0.000000 0.000000 3.439750 
# 
# 
# High freq. dielectric constant tensor:
#      x y z
#    x 1.752490 0.000000 0.000000 
#    y 0.000000 1.738210 0.000000 
#    z 0.000000 0.000000 1.738410 
# 
# From -- ./inp_files/29785.got.cif
#   From: 2010.06.25/outbox.cif.g09.slc.cpg/sg71_15_cif.got.tgz:29785.got - 2010.06.28 04:59:45.
