data_PCOD8290086
_publ_section_title
;
Structure prediction by ZEFSAII (Michael W. Deem and Ramdas Pophale) SiO2 
 PCOD8290086
Probable space group: I M M M
;
_chemical_formula_sum "Si O2"
_cell_formula_units_Z 104
_cell_length_a 25.652804
_cell_length_b 23.951917
_cell_length_c 9.289898
_cell_angle_alpha 90.000000
_cell_angle_beta 90.000000
_cell_angle_gamma 90.000000
_cell_volume 5708.027629
_symmetry_space_group_name_H-M "I M M M"
_symmetry_group_IT_number 71
_symmetry_cell_setting 'orthorhombic'
loop_
_space_group_symop_operation_xyz
x,y,z
-x,-y,z
x,-y,-z
-x,y,-z
-x,-y,-z
x,y,-z
-x,y,z
x,-y,z
1/2+x,1/2+y,1/2+z
1/2-x,1/2-y,1/2+z
1/2+x,1/2-y,1/2-z
1/2-x,1/2+y,1/2-z
1/2-x,1/2-y,1/2-z
1/2+x,1/2+y,1/2-z
1/2-x,1/2+y,1/2+z
1/2+x,1/2-y,1/2+z
loop_
_atom_site_type_symbol
_atom_site_label
_atom_site_fract_x
_atom_site_fract_y
_atom_site_fract_z
Si Si1 0.393021 0.723017 0.659067
Si Si2 0.800524 0.500000 0.669862
Si Si3 0.317126 0.500000 0.328050
Si Si4 0.340622 0.118227 0.830050
Si Si5 0.787495 0.289409 0.838605
Si Si6 0.500000 0.565515 0.339571
Si Si7 0.441883 0.815682 0.832899
Si Si8 0.610006 0.401079 0.328551
O O1 0.417764 0.715901 0.500000
O O2 0.341889 0.759130 0.649975
O O3 0.434340 0.755827 0.756823
O O4 0.377319 0.662094 0.720962
O O5 0.795325 0.500000 0.500000
O O6 0.741803 0.500000 0.734451
O O7 0.833170 0.445755 0.719689
O O8 0.316139 0.500000 0.500000
O O9 0.346859 0.555419 0.268997
O O10 0.296003 0.153099 0.747728
O O11 0.398969 0.138161 0.785223
O O12 0.331160 0.125858 0.000000
O O13 0.750000 0.250000 0.750000
O O14 0.765583 0.301047 0.000000
O O15 0.500000 0.500000 0.345949
O O16 0.500000 0.591074 0.500000
O O17 0.447088 0.585594 0.261357
O O18 0.500000 0.838482 0.796411
O O19 0.435565 0.803253 0.000000
O O20 0.609059 0.408097 0.500000
#
# Coordination Sequence:
#
# PCOD8290086 Si02
#       8
#    16   8   8  16  16   8  16  16
#     4   9  19  31  47  72  98 124 163 209 246 291
#     4   9  18  30  51  75  97 130 169 212 260 302
#     4   9  16  25  40  63  95 127 157 200 252 296
#     4   9  18  34  53  75 101 131 171 211 255 312
#     4  10  20  33  50  73 101 134 169 208 257 305
#     4   9  14  22  34  52  87 125 147 178 237 290
#     4   9  18  33  51  71 100 134 163 200 255 313
#     4   9  16  25  38  62  92 121 155 197 243 285
#
# _framework density 18.219953
#
# number of rings (size 3 to 8) (size 9 to 14) (size 15 to 20)
#    0.000    2.846    0.769    0.462    3.231    0.923 
#    0.000    0.769    0.000    2.308    0.000    0.538 
#    0.000    6.769    0.000    0.000    0.000    0.000 
#
# Total GULP energy -644417.398892 kJ/mol
# GULP energy per Si atom -12392.642286 kJ/mol
# Density = 1.817848 g / cm^3
# Si number density = 18.219953 Si / 1000 Ang^3
#
#
#
# Elastic Constant Matrix: (Units=GPa)
#
#
# Indices 1 2 3 4 5 6 
#
# 1 92.2414 57.9302 27.4842 0.0000 0.0000 0.0000
# 2 57.9302 155.9357 32.4397 0.0000 0.0000 0.0000
# 3 27.4842 32.4397 46.7946 0.0000 0.0000 0.0000
# 4 0.0000 0.0000 0.0000 19.5399 0.0000 0.0000
# 5 0.0000 0.0000 0.0000 0.0000 15.6492 0.0000
# 6 0.0000 0.0000 0.0000 0.0000 0.0000 18.5720
#
#
#
# Elastic Compliance Matrix: (Units=1/GPa)
#
#
# Indices 1 2 3 4 5 6 
#
# 1 0.015439 -0.004498 -0.005950 0.000000 0.000000 0.000000
# 2 -0.004498 0.008804 -0.003462 0.000000 0.000000 0.000000
# 3 -0.005950 -0.003462 0.027264 0.000000 0.000000 0.000000
# 4 0.000000 0.000000 0.000000 0.051177 0.000000 0.000000
# 5 0.000000 0.000000 0.000000 0.000000 0.063901 0.000000
# 6 0.000000 0.000000 0.000000 0.000000 0.000000 0.053845
#
#
# Mechanical properties :
#
#
# Convention : Reuss Voigt Hill
#
# Bulk Modulus (GPa) = 42.21404 58.96444 50.58924
# Shear Modulus (GPa) = 19.52029 22.56004 21.04016
#
# Velocity S-wave (km/s) = 3.27673 3.52263 3.40190
# Velocity P-wave (km/s) = 6.12661 6.99843 6.57698
#
# Compressibility (1/GPa) = 0.02368880
#
# Stress axis : x y z
#
# Youngs Moduli (GPa) = 64.77283 113.58590 36.67822
#
# Poissons Ratio (x) = 0.51088 0.21822
# Poissons Ratio (y) = 0.29133 0.12696
# Poissons Ratio (z) = 0.38538 0.39318
#
# Static dielectric constant tensor:
#      x y z
#    x 31.032120 0.000000 0.000000 
#    y 0.000000 3.494790 0.000000 
#    z 0.000000 0.000000 3.199080 
# 
# 
# High freq. dielectric constant tensor:
#      x y z
#    x 1.708080 0.000000 0.000000 
#    y 0.000000 1.708070 0.000000 
#    z 0.000000 0.000000 1.656100 
# 
# From -- ./inp_files/15353.got.cif
#   From: 2010.06.25/outbox.cif.g09.slc.cpg/sg71_8_cif.got.tgz:15353.got - 2010.06.28 04:59:45.
