data_PCOD8290928
_publ_section_title
;
Structure prediction by ZEFSAII (Michael W. Deem and Ramdas Pophale) SiO2 
 PCOD8290928
Probable space group: I M M M
;
_chemical_formula_sum "Si O2"
_cell_formula_units_Z 88
_cell_length_a 9.324673
_cell_length_b 27.901974
_cell_length_c 18.650332
_cell_angle_alpha 90.000000
_cell_angle_beta 90.000000
_cell_angle_gamma 90.000000
_cell_volume 4852.383393
_symmetry_space_group_name_H-M "I M M M"
_symmetry_group_IT_number 71
_symmetry_cell_setting 'orthorhombic'
loop_
_space_group_symop_operation_xyz
x,y,z
-x,-y,z
x,-y,-z
-x,y,-z
-x,-y,-z
x,y,-z
-x,y,z
x,-y,z
1/2+x,1/2+y,1/2+z
1/2-x,1/2-y,1/2+z
1/2+x,1/2-y,1/2-z
1/2-x,1/2+y,1/2-z
1/2-x,1/2-y,1/2-z
1/2+x,1/2+y,1/2-z
1/2-x,1/2+y,1/2+z
1/2+x,1/2-y,1/2+z
loop_
_atom_site_type_symbol
_atom_site_label
_atom_site_fract_x
_atom_site_fract_y
_atom_site_fract_z
Si Si1 0.162712 0.000000 0.257073
Si Si2 0.332589 0.820046 0.281463
Si Si3 0.169713 0.053365 0.500000
Si Si4 0.831499 0.500000 0.612197
Si Si5 0.833384 0.906683 0.650124
Si Si6 0.834305 0.781316 0.847853
Si Si7 0.166940 0.177525 0.000000
Si Si8 0.668821 0.078276 0.000000
O O1 0.195889 0.046223 0.304012
O O2 0.262988 0.000000 0.189179
O O3 0.000000 0.000000 0.229852
O O4 0.500000 0.829037 0.269480
O O5 0.264575 0.864641 0.321137
O O6 0.260994 0.814554 0.203507
O O7 0.302409 0.774087 0.331285
O O8 0.218884 0.082830 0.569491
O O9 0.000000 0.047237 0.500000
O O10 0.238321 0.000000 0.500000
O O11 0.784601 0.452187 0.569702
O O12 0.000000 0.500000 0.621572
O O13 0.000000 0.891500 0.653053
O O14 0.791328 0.791465 0.930097
O O15 0.000000 0.793911 0.833085
O O16 0.250856 0.128153 0.000000
O O17 0.000000 0.164851 0.000000
O O18 0.500000 0.088063 0.000000
#
# Coordination Sequence:
#
# PCOD8290928 Si02
#       8
#     8  16   8   8  16  16   8   8
#     4  10  21  34  53  82 111 142 182 227 267 315
#     4  10  21  37  58  82 110 147 181 219 273 326
#     4   9  16  33  57  77 103 143 184 222 265 314
#     4   9  20  38  55  73 110 150 182 220 271 325
#     4  10  20  35  57  83 110 141 183 228 269 319
#     4   9  20  39  58  79 110 143 182 226 269 321
#     4  10  21  36  58  83 107 141 181 227 275 318
#     4   9  20  38  55  77 109 148 182 221 272 322
#
# _framework density 18.135418000000001
#
# number of rings (size 3 to 8) (size 9 to 14) (size 15 to 20)
#    0.000    2.455    0.909    1.091    2.545    3.636 
#    0.000    2.273    0.000    0.545    0.000    0.000 
#    0.000    0.000    0.000    0.000    0.000    0.000 
#
# Total GULP energy -545661.974931 kJ/mol
# GULP energy per Si atom -12401.408521 kJ/mol
# Density = 1.809414 g / cm^3
# Si number density = 18.135418 Si / 1000 Ang^3
#
#
#
# Elastic Constant Matrix: (Units=GPa)
#
#
# Indices 1 2 3 4 5 6 
#
# 1 64.2688 54.0285 56.8085 0.0000 0.0000 0.0000
# 2 54.0285 112.4490 65.3598 0.0000 -0.0001 0.0000
# 3 56.8085 65.3598 155.0505 0.0003 -0.0003 0.0003
# 4 0.0000 0.0000 0.0003 4.5812 -0.0001 0.0001
# 5 0.0000 -0.0001 -0.0003 -0.0001 19.6432 0.0000
# 6 0.0000 0.0000 0.0003 0.0001 0.0000 46.8071
#
#
#
# Elastic Compliance Matrix: (Units=1/GPa)
#
#
# Indices 1 2 3 4 5 6 
#
# 1 0.030491 -0.010804 -0.006617 0.000001 0.000000 0.000000
# 2 -0.010804 0.015607 -0.002621 0.000000 0.000000 0.000000
# 3 -0.006617 -0.002621 0.009979 -0.000001 0.000000 0.000000
# 4 0.000001 0.000000 -0.000001 0.218284 0.000001 0.000000
# 5 0.000000 0.000000 0.000000 0.000001 0.050908 0.000000
# 6 0.000000 0.000000 0.000000 0.000000 0.000000 0.021364
#
#
# Mechanical properties :
#
#
# Convention : Reuss Voigt Hill
#
# Bulk Modulus (GPa) = 62.52576 76.01799 69.27188
# Shear Modulus (GPa) = 12.75353 24.57773 18.66563
#
# Velocity S-wave (km/s) = 2.65474 3.68534 3.21165
# Velocity P-wave (km/s) = 6.62939 7.75351 7.21338
#
# Compressibility (1/GPa) = 0.01599341
#
# Stress axis : x y z
#
# Youngs Moduli (GPa) = 32.79614 64.07351 100.21348
#
# Poissons Ratio (x) = 0.69225 0.66315
# Poissons Ratio (y) = 0.35433 0.26262
# Poissons Ratio (z) = 0.21702 0.16791
#
# Static dielectric constant tensor:
#      x y z
#    x 3.225330 0.000000 0.000000 
#    y 0.000000 3.343050 0.000000 
#    z 0.000000 0.000000 3.612990 
# 
# 
# High freq. dielectric constant tensor:
#      x y z
#    x 1.690430 0.000000 0.000000 
#    y 0.000000 1.706660 0.000000 
#    z 0.000000 0.000000 1.713860 
# 
# From -- ./inp_files/42575.got.cif
#   From: 2010.06.25/outbox.cif.g09.slc.cpg/sg71_22_cif.got.tgz:42575.got - 2010.06.28 04:59:45.
