data_PCOD8290442
_publ_section_title
;
Structure prediction by ZEFSAII (Michael W. Deem and Ramdas Pophale) SiO2 
 PCOD8290442
Probable space group: I M M M
;
_chemical_formula_sum "Si O2"
_cell_formula_units_Z 120
_cell_length_a 24.494062
_cell_length_b 28.263697
_cell_length_c 8.860004
_cell_angle_alpha 90.000000
_cell_angle_beta 90.000000
_cell_angle_gamma 90.000000
_cell_volume 6133.716505
_symmetry_space_group_name_H-M "I M M M"
_symmetry_group_IT_number 71
_symmetry_cell_setting 'orthorhombic'
loop_
_space_group_symop_operation_xyz
x,y,z
-x,-y,z
x,-y,-z
-x,y,-z
-x,-y,-z
x,y,-z
-x,y,z
x,-y,z
1/2+x,1/2+y,1/2+z
1/2-x,1/2-y,1/2+z
1/2+x,1/2-y,1/2-z
1/2-x,1/2+y,1/2-z
1/2-x,1/2-y,1/2-z
1/2+x,1/2+y,1/2-z
1/2-x,1/2+y,1/2+z
1/2+x,1/2-y,1/2+z
loop_
_atom_site_type_symbol
_atom_site_label
_atom_site_fract_x
_atom_site_fract_y
_atom_site_fract_z
Si Si1 0.935804 0.282149 0.671193
Si Si2 0.262213 0.701480 0.832280
Si Si3 0.371283 0.586396 0.181442
Si Si4 0.889557 0.811838 0.665840
Si Si5 0.145488 0.554746 0.325770
Si Si6 0.756781 0.105321 0.822830
Si Si7 0.935805 0.000000 0.822309
Si Si8 0.937887 0.376742 0.177391
O O1 0.913157 0.284482 0.500000
O O2 0.916104 0.233135 0.752532
O O3 0.912841 0.327789 0.757978
O O4 0.000000 0.283166 0.677020
O O5 0.250000 0.750000 0.750000
O O6 0.326093 0.696591 0.847658
O O7 0.239931 0.657253 0.736530
O O8 0.235684 0.701294 0.000000
O O9 0.398117 0.636251 0.239714
O O10 0.309281 0.582757 0.240338
O O11 0.408663 0.545699 0.248441
O O12 0.369965 0.584058 0.000000
O O13 0.916894 0.813015 0.500000
O O14 0.132898 0.565091 0.500000
O O15 0.141682 0.500000 0.285446
O O16 0.206176 0.571600 0.284315
O O17 0.099345 0.580151 0.228613
O O18 0.769338 0.108087 0.000000
O O19 0.000000 0.000000 0.785713
O O20 0.924419 0.000000 0.000000
O O21 0.000000 0.385075 0.235272
O O22 0.936685 0.372770 0.000000
#
# Coordination Sequence:
#
# PCOD8290442 Si02
#       8
#    16  16  16  16  16  16   8  16
#     4   9  17  32  56  82 108 146 190 228 276 340
#     4  10  20  34  52  79 116 154 195 238 285 342
#     4  10  21  39  62  89 120 156 197 247 301 356
#     4   8  17  33  53  79 112 145 184 233 284 341
#     4  10  23  41  61  86 112 147 197 245 292 353
#     4  10  21  38  60  86 119 157 194 239 298 356
#     4  11  25  43  63  89 121 161 206 249 298 355
#     4  10  22  39  57  82 117 152 187 236 297 352
#
# _framework density 19.563995999999999
#
# number of rings (size 3 to 8) (size 9 to 14) (size 15 to 20)
#    0.000    2.333    0.000    2.600    2.800    3.467 
#    0.000    6.000    0.000    1.600    0.000    0.000 
#    0.000    0.000    0.000    0.000    0.000    0.000 
#
# Total GULP energy -743764.866972 kJ/mol
# GULP energy per Si atom -12396.081116 kJ/mol
# Density = 1.951947 g / cm^3
# Si number density = 19.563996 Si / 1000 Ang^3
#
#
#
# Elastic Constant Matrix: (Units=GPa)
#
#
# Indices 1 2 3 4 5 6 
#
# 1 73.4062 69.6971 46.0709 0.0000 0.0000 0.0000
# 2 69.6971 172.7703 57.6199 0.0000 0.0000 0.0000
# 3 46.0709 57.6199 89.4575 0.0000 0.0000 0.0000
# 4 0.0000 0.0000 0.0000 27.1208 0.0000 0.0000
# 5 0.0000 0.0000 0.0000 0.0000 26.2912 0.0000
# 6 0.0000 0.0000 0.0000 0.0000 0.0000 38.3907
#
#
#
# Elastic Compliance Matrix: (Units=1/GPa)
#
#
# Indices 1 2 3 4 5 6 
#
# 1 0.026405 -0.007790 -0.008581 0.000000 0.000000 0.000000
# 2 -0.007790 0.009670 -0.002216 0.000000 0.000000 0.000000
# 3 -0.008581 -0.002216 0.017025 0.000000 0.000000 0.000000
# 4 0.000000 0.000000 0.000000 0.036872 0.000000 0.000000
# 5 0.000000 0.000000 0.000000 0.000000 0.038036 0.000000
# 6 0.000000 0.000000 0.000000 0.000000 0.000000 0.026048
#
#
# Mechanical properties :
#
#
# Convention : Reuss Voigt Hill
#
# Bulk Modulus (GPa) = 62.79436 75.82333 69.30885
# Shear Modulus (GPa) = 25.44023 29.17694 27.30859
#
# Velocity S-wave (km/s) = 3.60996 3.86600 3.74017
# Velocity P-wave (km/s) = 7.03863 7.66607 7.35904
#
# Compressibility (1/GPa) = 0.01592500
#
# Stress axis : x y z
#
# Youngs Moduli (GPa) = 37.87175 103.41423 58.73608
#
# Poissons Ratio (x) = 0.80562 0.50401
# Poissons Ratio (y) = 0.29503 0.13018
# Poissons Ratio (z) = 0.32498 0.22921
#
# Static dielectric constant tensor:
#      x y z
#    x 3.426850 0.000000 0.000000 
#    y 0.000000 3.490710 0.000000 
#    z 0.000000 0.000000 3.551400 
# 
# 
# High freq. dielectric constant tensor:
#      x y z
#    x 1.754480 0.000000 0.000000 
#    y 0.000000 1.779650 0.000000 
#    z 0.000000 0.000000 1.751340 
# 
# From -- ./inp_files/15623.got.cif
#   From: 2010.06.25/outbox.cif.g09.slc.cpg/sg71_8_cif.got.tgz:15623.got - 2010.06.28 04:59:45.
