data_PCOD8290830
_publ_section_title
;
Structure prediction by ZEFSAII (Michael W. Deem and Ramdas Pophale) SiO2 
 PCOD8290830
Probable space group: I M M M
;
_chemical_formula_sum "Si O2"
_cell_formula_units_Z 88
_cell_length_a 17.764457
_cell_length_b 13.416840
_cell_length_c 18.972463
_cell_angle_alpha 90.000000
_cell_angle_beta 90.000000
_cell_angle_gamma 90.000000
_cell_volume 4521.951420
_symmetry_space_group_name_H-M "I M M M"
_symmetry_group_IT_number 71
_symmetry_cell_setting 'orthorhombic'
loop_
_space_group_symop_operation_xyz
x,y,z
-x,-y,z
x,-y,-z
-x,y,-z
-x,-y,-z
x,y,-z
-x,y,z
x,-y,z
1/2+x,1/2+y,1/2+z
1/2-x,1/2-y,1/2+z
1/2+x,1/2-y,1/2-z
1/2-x,1/2+y,1/2-z
1/2-x,1/2-y,1/2-z
1/2+x,1/2+y,1/2-z
1/2-x,1/2+y,1/2+z
1/2+x,1/2-y,1/2+z
loop_
_atom_site_type_symbol
_atom_site_label
_atom_site_fract_x
_atom_site_fract_y
_atom_site_fract_z
Si Si1 0.000000 0.111099 0.083469
Si Si2 0.913196 0.386748 0.812830
Si Si3 0.357266 0.737889 0.416661
Si Si4 0.589047 0.609929 0.921176
Si Si5 0.412923 0.199512 0.162928
Si Si6 0.215407 0.388347 0.580034
O O1 0.073979 0.168776 0.109549
O O2 0.000000 0.000000 0.116447
O O3 0.000000 0.103416 0.000000
O O4 0.887131 0.500000 0.796353
O O5 0.863718 0.343778 0.877129
O O6 0.900519 0.314608 0.745917
O O7 0.000000 0.386284 0.835758
O O8 0.360412 0.756667 0.500000
O O9 0.279955 0.686096 0.392775
O O10 0.500000 0.605494 0.923029
O O11 0.620490 0.500000 0.900285
O O12 0.614700 0.690893 0.863024
O O13 0.618441 0.638992 0.000000
O O14 0.500000 0.179677 0.142532
O O15 0.361299 0.119315 0.123857
O O16 0.194935 0.363013 0.500000
O O17 0.247460 0.500000 0.587173
#
# Coordination Sequence:
#
# PCOD8290830 Si02
#       6
#     8  16  16  16  16  16
#     4   9  16  30  55  81 103 131 169 218 278 341
#     4  10  21  37  57  81 112 148 189 237 285 333
#     4  10  20  36  57  81 108 141 184 233 290 347
#     4   8  14  27  49  75 103 139 183 229 272 312
#     4  10  20  35  55  79 114 155 194 227 271 329
#     4  10  21  36  55  82 114 145 182 232 282 330
#
# _framework density 19.460626000000001
#
# number of rings (size 3 to 8) (size 9 to 14) (size 15 to 20)
#    0.000    2.455    0.909    2.182    0.000    5.455 
#    0.000    4.545    0.000    1.091    0.000    0.000 
#    0.000    0.000    0.000    0.000    0.000    0.000 
#
# Total GULP energy -545471.748016 kJ/mol
# GULP energy per Si atom -12397.085182 kJ/mol
# Density = 1.941633 g / cm^3
# Si number density = 19.460626 Si / 1000 Ang^3
#
#
#
# Elastic Constant Matrix: (Units=GPa)
#
#
# Indices 1 2 3 4 5 6 
#
# 1 80.5702 31.1494 37.8676 0.0000 0.0000 0.0000
# 2 31.1494 127.2457 60.0419 0.0000 0.0000 0.0000
# 3 37.8676 60.0419 78.2371 0.0000 0.0000 0.0000
# 4 0.0000 0.0000 0.0000 34.0372 0.0000 0.0000
# 5 0.0000 0.0000 0.0000 0.0000 23.2523 0.0000
# 6 0.0000 0.0000 0.0000 0.0000 0.0000 28.3362
#
#
#
# Elastic Compliance Matrix: (Units=1/GPa)
#
#
# Indices 1 2 3 4 5 6 
#
# 1 0.016080 -0.000414 -0.007465 0.000000 0.000000 0.000000
# 2 -0.000414 0.012331 -0.009263 0.000000 0.000000 0.000000
# 3 -0.007465 -0.009263 0.023504 0.000000 0.000000 0.000000
# 4 0.000000 0.000000 0.000000 0.029380 0.000000 0.000000
# 5 0.000000 0.000000 0.000000 0.000000 0.043006 0.000000
# 6 0.000000 0.000000 0.000000 0.000000 0.000000 0.035290
#
#
# Mechanical properties :
#
#
# Convention : Reuss Voigt Hill
#
# Bulk Modulus (GPa) = 56.71964 60.46341 58.59152
# Shear Modulus (GPa) = 25.03098 27.59142 26.31120
#
# Velocity S-wave (km/s) = 3.59031 3.76946 3.68097
# Velocity P-wave (km/s) = 6.81147 7.07688 6.94544
#
# Compressibility (1/GPa) = 0.01763058
#
# Stress axis : x y z
#
# Youngs Moduli (GPa) = 62.18814 81.09730 42.54649
#
# Poissons Ratio (x) = 0.03355 0.31763
# Poissons Ratio (y) = 0.02573 0.39410
# Poissons Ratio (z) = 0.46426 0.75119
#
# Static dielectric constant tensor:
#      x y z
#    x 3.348830 0.000000 0.000000 
#    y 0.000000 3.775840 0.000000 
#    z 0.000000 0.000000 3.314370 
# 
# 
# High freq. dielectric constant tensor:
#      x y z
#    x 1.737930 0.000000 0.000000 
#    y 0.000000 1.763240 0.000000 
#    z 0.000000 0.000000 1.737250 
# 
# From -- ./inp_files/45859.got.cif
#   From: 2010.06.25/outbox.cif.g09.slc.cpg/sg71_23_cif.got.tgz:45859.got - 2010.06.28 04:59:45.
