data_PCOD8290538
_publ_section_title
;
Structure prediction by ZEFSAII (Michael W. Deem and Ramdas Pophale) SiO2 
 PCOD8290538
Probable space group: I M M M
;
_chemical_formula_sum "Si O2"
_cell_formula_units_Z 72
_cell_length_a 14.749813
_cell_length_b 27.405374
_cell_length_c 8.983946
_cell_angle_alpha 90.000000
_cell_angle_beta 90.000000
_cell_angle_gamma 90.000000
_cell_volume 3631.527861
_symmetry_space_group_name_H-M "I M M M"
_symmetry_group_IT_number 71
_symmetry_cell_setting 'orthorhombic'
loop_
_space_group_symop_operation_xyz
x,y,z
-x,-y,z
x,-y,-z
-x,y,-z
-x,-y,-z
x,y,-z
-x,y,z
x,-y,z
1/2+x,1/2+y,1/2+z
1/2-x,1/2-y,1/2+z
1/2+x,1/2-y,1/2-z
1/2-x,1/2+y,1/2-z
1/2-x,1/2-y,1/2-z
1/2+x,1/2+y,1/2-z
1/2-x,1/2+y,1/2+z
1/2+x,1/2-y,1/2+z
loop_
_atom_site_type_symbol
_atom_site_label
_atom_site_fract_x
_atom_site_fract_y
_atom_site_fract_z
Si Si1 0.902113 0.176846 0.333552
Si Si2 0.604988 0.500000 0.323564
Si Si3 0.342833 0.234574 0.324505
Si Si4 0.899881 0.371529 0.823443
Si Si5 0.715049 0.413985 0.174810
O O1 0.879236 0.195661 0.500000
O O2 0.911109 0.222639 0.222781
O O3 0.825676 0.138728 0.284568
O O4 0.000000 0.150153 0.330628
O O5 0.500000 0.500000 0.266241
O O6 0.605828 0.500000 0.500000
O O7 0.660060 0.453420 0.267186
O O8 0.332011 0.232258 0.500000
O O9 0.250000 0.250000 0.250000
O O10 0.377613 0.182584 0.262099
O O11 0.821536 0.410551 0.776632
O O12 0.000000 0.387947 0.764435
O O13 0.901331 0.368596 0.000000
O O14 0.704644 0.426041 0.000000
#
# Coordination Sequence:
#
# PCOD8290538 Si02
#       5
#    16   8  16  16  16
#     4  10  20  34  53  81 115 149 190 237 283 337
#     4  11  25  43  62  87 116 142 177 231 292 349
#     4  11  20  33  53  79 116 157 198 237 280 330
#     4   9  18  34  57  84 114 150 194 238 275 322
#     4  10  20  38  62  85 111 147 190 233 282 342
#
# _framework density 19.826364999999999
#
# number of rings (size 3 to 8) (size 9 to 14) (size 15 to 20)
#    0.000    1.889    2.222    2.333    0.000    4.000 
#    0.000    0.556    0.000    6.667    0.000    0.000 
#    0.000    0.000    0.000    0.000    0.000    0.000 
#
# Total GULP energy -446112.146683 kJ/mol
# GULP energy per Si atom -12392.004075 kJ/mol
# Density = 1.978124 g / cm^3
# Si number density = 19.826365 Si / 1000 Ang^3
#
#
#
# Elastic Constant Matrix: (Units=GPa)
#
#
# Indices 1 2 3 4 5 6 
#
# 1 182.3306 61.0468 32.9202 -0.0001 0.0004 0.0001
# 2 61.0468 82.9982 32.3312 -0.0003 -0.0001 -0.0001
# 3 32.9202 32.3312 50.1072 -0.0023 -0.0005 0.0003
# 4 -0.0001 -0.0003 -0.0023 31.3610 -0.0004 -0.0003
# 5 0.0004 -0.0001 -0.0005 -0.0004 23.3672 -0.0005
# 6 0.0001 -0.0001 0.0003 -0.0003 -0.0005 30.7832
#
#
#
# Elastic Compliance Matrix: (Units=1/GPa)
#
#
# Indices 1 2 3 4 5 6 
#
# 1 0.007396 -0.004738 -0.001802 0.000000 0.000000 0.000000
# 2 -0.004738 0.019129 -0.009230 -0.000001 0.000000 0.000000
# 3 -0.001802 -0.009230 0.027097 0.000002 0.000001 0.000000
# 4 0.000000 -0.000001 0.000002 0.031887 0.000001 0.000000
# 5 0.000000 0.000000 0.000001 0.000001 0.042795 0.000001
# 6 0.000000 0.000000 0.000000 0.000000 0.000001 0.032485
#
#
# Mechanical properties :
#
#
# Convention : Reuss Voigt Hill
#
# Bulk Modulus (GPa) = 45.28631 63.11473 54.20052
# Shear Modulus (GPa) = 25.03890 29.71148 27.37519
#
# Velocity S-wave (km/s) = 3.55760 3.87536 3.71987
# Velocity P-wave (km/s) = 6.30606 7.20606 6.77103
#
# Compressibility (1/GPa) = 0.02208173
#
# Stress axis : x y z
#
# Youngs Moduli (GPa) = 135.20248 52.27707 36.90497
#
# Poissons Ratio (x) = 0.24770 0.06651
# Poissons Ratio (y) = 0.64061 0.34062
# Poissons Ratio (z) = 0.24365 0.48251
#
# Static dielectric constant tensor:
#      x y z
#    x 4.263610 0.000000 0.000000 
#    y 0.000000 3.681880 0.000000 
#    z 0.000000 0.000000 3.502270 
# 
# 
# High freq. dielectric constant tensor:
#      x y z
#    x 1.801300 0.000000 0.000000 
#    y 0.000000 1.751620 0.000000 
#    z 0.000000 0.000000 1.738480 
# 
# From -- ./inp_files/6028.got.cif
#   From: 2010.06.25/outbox.cif.g09.slc.cpg/sg71_4_cif.got.tgz:6028.got - 2010.06.28 04:59:45.
