data_PCOD8290946
_publ_section_title
;
Structure prediction by ZEFSAII (Michael W. Deem and Ramdas Pophale) SiO2 
 PCOD8290946
Probable space group: I M M M
;
_chemical_formula_sum "Si O2"
_cell_formula_units_Z 80
_cell_length_a 11.622991
_cell_length_b 24.220308
_cell_length_c 14.823927
_cell_angle_alpha 90.000000
_cell_angle_beta 90.000000
_cell_angle_gamma 90.000000
_cell_volume 4173.119592
_symmetry_space_group_name_H-M "I M M M"
_symmetry_group_IT_number 71
_symmetry_cell_setting 'orthorhombic'
loop_
_space_group_symop_operation_xyz
x,y,z
-x,-y,z
x,-y,-z
-x,y,-z
-x,-y,-z
x,y,-z
-x,y,z
x,-y,z
1/2+x,1/2+y,1/2+z
1/2-x,1/2-y,1/2+z
1/2+x,1/2-y,1/2-z
1/2-x,1/2+y,1/2-z
1/2-x,1/2-y,1/2-z
1/2+x,1/2+y,1/2-z
1/2-x,1/2+y,1/2+z
1/2+x,1/2-y,1/2+z
loop_
_atom_site_type_symbol
_atom_site_label
_atom_site_fract_x
_atom_site_fract_y
_atom_site_fract_z
Si Si1 0.207004 0.357718 0.898851
Si Si2 0.254264 0.936058 0.898489
Si Si3 0.634751 0.357354 0.269500
Si Si4 0.866774 0.235899 0.900495
Si Si5 0.000000 0.563306 0.861050
Si Si6 0.000000 0.562257 0.648475
O O1 0.307830 0.367076 0.827376
O O2 0.148332 0.299561 0.874252
O O3 0.113378 0.406249 0.896635
O O4 0.259586 0.356451 0.000000
O O5 0.161639 0.909526 0.832253
O O6 0.382534 0.909188 0.887301
O O7 0.260962 0.000000 0.871651
O O8 0.210527 0.927019 0.000000
O O9 0.500000 0.352482 0.251320
O O10 0.685608 0.303478 0.322373
O O11 0.000000 0.221674 0.906324
O O12 0.811571 0.223606 0.000000
O O13 0.000000 0.565372 0.754746
O O14 0.000000 0.500000 0.896076
O O15 0.000000 0.500000 0.611048
#
# Coordination Sequence:
#
# PCOD8290946 Si02
#       6
#    16  16  16  16   8   8
#     4  11  22  38  60  83 111 148 189 239 293 338
#     4  10  20  35  57  84 114 148 186 232 286 342
#     4  11  23  37  55  81 114 156 197 230 271 329
#     4   9  18  35  59  85 111 142 185 235 287 340
#     4  11  21  37  63  92 115 141 185 243 303 352
#     4   9  17  33  57  84 115 145 178 230 295 346
#
# _framework density 19.170311999999999
#
# number of rings (size 3 to 8) (size 9 to 14) (size 15 to 20)
#    0.000    1.800    3.000    1.800    0.000    4.000 
#    0.000    1.000    0.000    0.000    0.000    2.800 
#    0.000    0.000    0.000    0.000    0.000    0.000 
#
# Total GULP energy -495852.907346 kJ/mol
# GULP energy per Si atom -12396.322684 kJ/mol
# Density = 1.912668 g / cm^3
# Si number density = 19.170312 Si / 1000 Ang^3
#
#
#
# Elastic Constant Matrix: (Units=GPa)
#
#
# Indices 1 2 3 4 5 6 
#
# 1 74.0101 36.9940 47.9923 0.0000 0.0000 0.0000
# 2 36.9940 102.1689 53.9317 -0.0001 0.0000 0.0000
# 3 47.9923 53.9317 132.2074 -0.0005 0.0001 0.0000
# 4 0.0000 -0.0001 -0.0005 25.1756 0.0001 0.0000
# 5 0.0000 0.0000 0.0001 0.0001 38.8476 0.0000
# 6 0.0000 0.0000 0.0000 0.0000 0.0000 20.9452
#
#
#
# Elastic Compliance Matrix: (Units=1/GPa)
#
#
# Indices 1 2 3 4 5 6 
#
# 1 0.018938 -0.004114 -0.005196 0.000000 0.000000 0.000000
# 2 -0.004114 0.013368 -0.003960 0.000000 0.000000 0.000000
# 3 -0.005196 -0.003960 0.011065 0.000000 0.000000 0.000000
# 4 0.000000 0.000000 0.000000 0.039721 0.000000 0.000000
# 5 0.000000 0.000000 0.000000 0.000000 0.025742 0.000000
# 6 0.000000 0.000000 0.000000 0.000000 0.000000 0.047744
#
#
# Mechanical properties :
#
#
# Convention : Reuss Voigt Hill
#
# Bulk Modulus (GPa) = 59.41537 65.13582 62.27560
# Shear Modulus (GPa) = 26.49329 28.29157 27.39243
#
# Velocity S-wave (km/s) = 3.72155 3.84578 3.78418
# Velocity P-wave (km/s) = 7.03757 7.33289 7.18674
#
# Compressibility (1/GPa) = 0.01683066
#
# Stress axis : x y z
#
# Youngs Moduli (GPa) = 52.80484 74.80814 90.37187
#
# Poissons Ratio (x) = 0.30777 0.46959
# Poissons Ratio (y) = 0.21725 0.35783
# Poissons Ratio (z) = 0.27439 0.29621
#
# Static dielectric constant tensor:
#      x y z
#    x 3.313990 0.000000 0.000000 
#    y 0.000000 3.528170 0.000000 
#    z 0.000000 0.000000 3.680300 
# 
# 
# High freq. dielectric constant tensor:
#      x y z
#    x 1.720410 0.000000 0.000000 
#    y 0.000000 1.737450 0.000000 
#    z 0.000000 0.000000 1.759510 
# 
# From -- ./inp_files/27126.got.cif
#   From: 2010.06.25/outbox.cif.g09.slc.cpg/sg71_14_cif.got.tgz:27126.got - 2010.06.28 04:59:45.
