data_PCOD8290094
_publ_section_title
;
Structure prediction by ZEFSAII (Michael W. Deem and Ramdas Pophale) SiO2 
 PCOD8290094
Probable space group: I M M M
;
_chemical_formula_sum "Si O2"
_cell_formula_units_Z 104
_cell_length_a 9.123745
_cell_length_b 33.813865
_cell_length_c 16.994894
_cell_angle_alpha 90.000000
_cell_angle_beta 90.000000
_cell_angle_gamma 90.000000
_cell_volume 5243.079142
_symmetry_space_group_name_H-M "I M M M"
_symmetry_group_IT_number 71
_symmetry_cell_setting 'orthorhombic'
loop_
_space_group_symop_operation_xyz
x,y,z
-x,-y,z
x,-y,-z
-x,y,-z
-x,-y,-z
x,y,-z
-x,y,z
x,-y,z
1/2+x,1/2+y,1/2+z
1/2-x,1/2-y,1/2+z
1/2+x,1/2-y,1/2-z
1/2-x,1/2+y,1/2-z
1/2-x,1/2-y,1/2-z
1/2+x,1/2+y,1/2-z
1/2-x,1/2+y,1/2+z
1/2+x,1/2-y,1/2+z
loop_
_atom_site_type_symbol
_atom_site_label
_atom_site_fract_x
_atom_site_fract_y
_atom_site_fract_z
Si Si1 0.335417 0.000000 0.093753
Si Si2 0.669573 0.299107 0.828837
Si Si3 0.326217 0.957933 0.411711
Si Si4 0.170741 0.628332 0.093441
Si Si5 0.331014 0.279240 0.351808
Si Si6 0.664375 0.423837 0.405923
Si Si7 0.339178 0.149763 0.910188
O O1 0.251379 0.038257 0.126019
O O2 0.500000 0.000000 0.127763
O O3 0.338494 0.000000 0.000000
O O4 0.500000 0.295467 0.853028
O O5 0.732712 0.340339 0.859254
O O6 0.690379 0.295924 0.735632
O O7 0.759408 0.263303 0.867499
O O8 0.264316 0.959381 0.500000
O O9 0.500000 0.956608 0.414526
O O10 0.276712 0.915531 0.375241
O O11 0.276144 0.000000 0.369639
O O12 0.000000 0.635723 0.112574
O O13 0.198305 0.632275 0.000000
O O14 0.500000 0.276418 0.376009
O O15 0.248174 0.309432 0.408163
O O16 0.659833 0.423419 0.500000
O O17 0.500000 0.424772 0.372001
O O18 0.745148 0.385295 0.370394
O O19 0.500000 0.153393 0.869363
O O20 0.362965 0.137855 0.000000
#
# Coordination Sequence:
#
# PCOD8290094 Si02
#       7
#     8  16  16  16  16  16  16
#     4   9  15  23  37  59  89 123 157 195 238 281
#     4  10  21  36  53  73  97 127 164 205 248 296
#     4   7  10  19  38  66  99 131 163 199 235 273
#     4   9  17  29  48  76 106 135 168 205 246 292
#     4  10  21  37  55  72  92 124 166 208 247 297
#     4   9  16  26  41  63  92 124 157 192 233 285
#     4  10  20  33  50  74 101 126 155 196 249 302
#
# _framework density 19.835673
#
# number of rings (size 3 to 8) (size 9 to 14) (size 15 to 20)
#    0.000    2.846    0.000    3.462    0.000    6.462 
#    0.000    0.000    0.000    0.462    2.000    2.154 
#    0.000    0.000    0.000    0.000    0.000    0.000 
#
# Total GULP energy -644314.608247 kJ/mol
# GULP energy per Si atom -12390.665543 kJ/mol
# Density = 1.979053 g / cm^3
# Si number density = 19.835673 Si / 1000 Ang^3
#
#
#
# Elastic Constant Matrix: (Units=GPa)
#
#
# Indices 1 2 3 4 5 6 
#
# 1 154.2158 86.8741 14.6502 -0.0001 0.0000 0.0000
# 2 86.8741 198.7738 17.5750 -0.0001 -0.0001 0.0000
# 3 14.6502 17.5750 11.0844 0.0000 -0.0001 -0.0001
# 4 -0.0001 -0.0001 0.0000 11.8289 -0.0001 0.0000
# 5 0.0000 -0.0001 -0.0001 -0.0001 16.9840 0.0000
# 6 0.0000 0.0000 -0.0001 0.0000 0.0000 35.5172
#
#
#
# Elastic Compliance Matrix: (Units=1/GPa)
#
#
# Indices 1 2 3 4 5 6 
#
# 1 0.008997 -0.003350 -0.006579 0.000000 0.000000 0.000000
# 2 -0.003350 0.007099 -0.006827 0.000000 0.000000 0.000000
# 3 -0.006579 -0.006827 0.109738 0.000000 0.000001 0.000000
# 4 0.000000 0.000000 0.000000 0.084538 0.000000 0.000000
# 5 0.000000 0.000000 0.000001 0.000000 0.058879 0.000000
# 6 0.000000 0.000000 0.000000 0.000000 0.000000 0.028155
#
#
# Mechanical properties :
#
#
# Convention : Reuss Voigt Hill
#
# Bulk Modulus (GPa) = 10.83188 66.91917 38.87552
# Shear Modulus (GPa) = 13.82390 29.19768 21.51079
#
# Velocity S-wave (km/s) = 2.64279 3.84080 3.29667
# Velocity P-wave (km/s) = 3.84514 7.31293 5.84226
#
# Compressibility (1/GPa) = 0.09232009
#
# Stress axis : x y z
#
# Youngs Moduli (GPa) = 111.15149 140.86936 9.11264
#
# Poissons Ratio (x) = 0.47196 0.05995
# Poissons Ratio (y) = 0.37240 0.06222
# Poissons Ratio (z) = 0.73124 0.96178
#
# Static dielectric constant tensor:
#      x y z
#    x 3.636620 0.000000 0.000000 
#    y 0.000000 3.999740 0.000000 
#    z 0.000000 0.000000 2.976760 
# 
# 
# High freq. dielectric constant tensor:
#      x y z
#    x 1.767300 0.000000 0.000000 
#    y 0.000000 1.798910 0.000000 
#    z 0.000000 0.000000 1.707730 
# 
# From -- ./inp_files/51182.got.cif
#   From: 2010.06.25/outbox.cif.g09.slc.cpg/sg71_26_cif.got.tgz:51182.got - 2010.06.28 04:59:45.
