data_PCOD8290805
_publ_section_title
;
Structure prediction by ZEFSAII (Michael W. Deem and Ramdas Pophale) SiO2 
 PCOD8290805
Probable space group: I M M M
;
_chemical_formula_sum "Si O2"
_cell_formula_units_Z 104
_cell_length_a 20.825170
_cell_length_b 28.727264
_cell_length_c 9.416683
_cell_angle_alpha 90.000000
_cell_angle_beta 90.000000
_cell_angle_gamma 90.000000
_cell_volume 5633.532078
_symmetry_space_group_name_H-M "I M M M"
_symmetry_group_IT_number 71
_symmetry_cell_setting 'orthorhombic'
loop_
_space_group_symop_operation_xyz
x,y,z
-x,-y,z
x,-y,-z
-x,y,-z
-x,-y,-z
x,y,-z
-x,y,z
x,-y,z
1/2+x,1/2+y,1/2+z
1/2-x,1/2-y,1/2+z
1/2+x,1/2-y,1/2-z
1/2-x,1/2+y,1/2-z
1/2-x,1/2-y,1/2-z
1/2+x,1/2+y,1/2-z
1/2-x,1/2+y,1/2+z
1/2+x,1/2-y,1/2+z
loop_
_atom_site_type_symbol
_atom_site_label
_atom_site_fract_x
_atom_site_fract_y
_atom_site_fract_z
Si Si1 0.571822 0.853628 0.337128
Si Si2 0.319183 0.702257 0.663950
Si Si3 0.500000 0.446313 0.330404
Si Si4 0.626087 0.395109 0.667440
Si Si5 0.750553 0.054342 0.160162
Si Si6 0.171800 0.705698 0.665424
Si Si7 0.872060 0.551489 0.838046
O O1 0.588305 0.840541 0.500000
O O2 0.500000 0.836888 0.298164
O O3 0.623135 0.830596 0.234120
O O4 0.573155 0.909772 0.316871
O O5 0.328095 0.717127 0.500000
O O6 0.366368 0.659549 0.703611
O O7 0.244745 0.688286 0.691137
O O8 0.339972 0.744350 0.763654
O O9 0.500000 0.500000 0.276471
O O10 0.500000 0.445671 0.500000
O O11 0.438482 0.418148 0.269030
O O12 0.625511 0.403031 0.500000
O O13 0.687712 0.421487 0.731279
O O14 0.688551 0.068289 0.248262
O O15 0.763977 0.000000 0.162431
O O16 0.739326 0.072673 0.000000
O O17 0.155935 0.710153 0.500000
O O18 0.896804 0.500000 0.789515
O O19 0.849162 0.549256 0.000000
#
# Coordination Sequence:
#
# PCOD8290805 Si02
#       7
#    16  16   8  16  16  16  16
#     4  10  21  36  53  74 101 135 170 203 246 301
#     4   9  18  33  53  76 103 132 167 211 259 308
#     4   9  16  26  42  68 103 137 169 207 250 297
#     4   9  16  27  44  69 100 134 169 207 250 297
#     4   9  16  27  46  72 101 132 166 206 252 296
#     4  10  20  35  55  77 101 131 167 212 261 307
#     4   9  18  32  50  74 102 130 164 206 247 292
#
# _framework density 18.460888000000001
#
# number of rings (size 3 to 8) (size 9 to 14) (size 15 to 20)
#    0.000    2.692    0.000    1.846    0.000    4.923 
#    1.385    2.308    0.000    0.000    0.000    4.846 
#    0.000    4.923    0.000    0.000    0.000    0.000 
#
# Total GULP energy -644612.855076 kJ/mol
# GULP energy per Si atom -12396.401059 kJ/mol
# Density = 1.841887 g / cm^3
# Si number density = 18.460888 Si / 1000 Ang^3
#
#
#
# Elastic Constant Matrix: (Units=GPa)
#
#
# Indices 1 2 3 4 5 6 
#
# 1 80.9640 58.9198 36.2645 0.0000 0.0000 0.0000
# 2 58.9198 100.3889 40.8157 0.0000 0.0000 0.0000
# 3 36.2645 40.8157 61.6840 0.0000 0.0000 0.0000
# 4 0.0000 0.0000 0.0000 22.1698 0.0000 0.0000
# 5 0.0000 0.0000 0.0000 0.0000 17.4231 0.0000
# 6 0.0000 0.0000 0.0000 0.0000 0.0000 30.2223
#
#
#
# Elastic Compliance Matrix: (Units=1/GPa)
#
#
# Indices 1 2 3 4 5 6 
#
# 1 0.023244 -0.011062 -0.006345 0.000000 0.000000 0.000000
# 2 -0.011062 0.018892 -0.005997 0.000000 0.000000 0.000000
# 3 -0.006345 -0.005997 0.023910 0.000000 0.000000 0.000000
# 4 0.000000 0.000000 0.000000 0.045106 0.000000 0.000000
# 5 0.000000 0.000000 0.000000 0.000000 0.057395 0.000000
# 6 0.000000 0.000000 0.000000 0.000000 0.000000 0.033088
#
#
# Mechanical properties :
#
#
# Convention : Reuss Voigt Hill
#
# Bulk Modulus (GPa) = 51.98400 57.22634 54.60517
# Shear Modulus (GPa) = 19.61880 21.09882 20.35881
#
# Velocity S-wave (km/s) = 3.26348 3.38434 3.32446
# Velocity P-wave (km/s) = 6.51310 6.80718 6.66176
#
# Compressibility (1/GPa) = 0.01923669
#
# Stress axis : x y z
#
# Youngs Moduli (GPa) = 43.02267 52.93207 41.82272
#
# Poissons Ratio (x) = 0.58554 0.26538
# Poissons Ratio (y) = 0.47592 0.25082
# Poissons Ratio (z) = 0.27299 0.31745
#
# Static dielectric constant tensor:
#      x y z
#    x 3.390700 0.000000 0.000000 
#    y 0.000000 3.455300 0.000000 
#    z 0.000000 0.000000 3.194880 
# 
# 
# High freq. dielectric constant tensor:
#      x y z
#    x 1.706690 0.000000 0.000000 
#    y 0.000000 1.726060 0.000000 
#    z 0.000000 0.000000 1.683500 
# 
# From -- ./inp_files/11525.got.cif
#   From: 2010.06.25/outbox.cif.g09.slc.cpg/sg71_6_cif.got.tgz:11525.got - 2010.06.28 04:59:45.
