data_PCOD8290727
_publ_section_title
;
Structure prediction by ZEFSAII (Michael W. Deem and Ramdas Pophale) SiO2 
 PCOD8290727
Probable space group: I M M M
;
_chemical_formula_sum "Si O2"
_cell_formula_units_Z 88
_cell_length_a 20.469751
_cell_length_b 11.923659
_cell_length_c 19.750223
_cell_angle_alpha 90.000000
_cell_angle_beta 90.000000
_cell_angle_gamma 90.000000
_cell_volume 4820.522461
_symmetry_space_group_name_H-M "I M M M"
_symmetry_group_IT_number 71
_symmetry_cell_setting 'orthorhombic'
loop_
_space_group_symop_operation_xyz
x,y,z
-x,-y,z
x,-y,-z
-x,y,-z
-x,-y,-z
x,y,-z
-x,y,z
x,-y,z
1/2+x,1/2+y,1/2+z
1/2-x,1/2-y,1/2+z
1/2+x,1/2-y,1/2-z
1/2-x,1/2+y,1/2-z
1/2-x,1/2-y,1/2-z
1/2+x,1/2+y,1/2-z
1/2-x,1/2+y,1/2+z
1/2+x,1/2-y,1/2+z
loop_
_atom_site_type_symbol
_atom_site_label
_atom_site_fract_x
_atom_site_fract_y
_atom_site_fract_z
Si Si1 0.076971 0.500000 0.424424
Si Si2 0.426847 0.792025 0.673341
Si Si3 0.573758 0.805777 0.174212
Si Si4 0.695987 0.369604 0.315243
Si Si5 0.100752 0.500000 0.921938
Si Si6 0.745905 0.500000 0.074599
Si Si7 0.299216 0.692572 0.835037
O O1 0.108893 0.500000 0.500000
O O2 0.098939 0.604709 0.379963
O O3 0.000000 0.500000 0.432061
O O4 0.500000 0.738063 0.667936
O O5 0.419041 0.848873 0.747934
O O6 0.371690 0.695089 0.665143
O O7 0.422744 0.888182 0.616545
O O8 0.500000 0.766474 0.159280
O O9 0.622647 0.703995 0.162454
O O10 0.691105 0.500000 0.338806
O O11 0.715600 0.365097 0.236577
O O12 0.757688 0.306443 0.349303
O O13 0.177313 0.500000 0.920890
O O14 0.074547 0.500000 0.000000
O O15 0.719097 0.611651 0.105854
O O16 0.718557 0.500000 0.000000
#
# Coordination Sequence:
#
# PCOD8290727 Si02
#       7
#     8  16  16  16   8   8  16
#     4   9  17  30  48  72 106 142 176 218 269 320
#     4  10  20  35  56  84 114 145 185 234 286 337
#     4   9  19  33  52  81 111 143 183 233 277 325
#     4  10  20  34  57  84 110 140 184 230 280 339
#     4  11  22  37  58  84 117 152 194 244 289 343
#     4  11  22  38  58  82 116 151 190 237 283 332
#     4  10  20  35  57  80 108 146 185 225 278 334
#
# _framework density 18.255282999999999
#
# number of rings (size 3 to 8) (size 9 to 14) (size 15 to 20)
#    0.000    2.091    2.727    0.818    1.273    3.273 
#    0.000    0.455    0.000    2.182    0.000    1.273 
#    0.000    0.000    0.000    0.000    0.000    0.000 
#
# Total GULP energy -545120.398972 kJ/mol
# GULP energy per Si atom -12389.099977 kJ/mol
# Density = 1.821373 g / cm^3
# Si number density = 18.255283 Si / 1000 Ang^3
#
#
#
# Elastic Constant Matrix: (Units=GPa)
#
#
# Indices 1 2 3 4 5 6 
#
# 1 110.7167 49.6502 41.6013 0.0000 0.0000 0.0000
# 2 49.6502 116.5568 50.0808 0.0000 0.0000 0.0000
# 3 41.6013 50.0808 105.8973 0.0000 0.0000 0.0000
# 4 0.0000 0.0000 0.0000 29.8439 0.0000 0.0000
# 5 0.0000 0.0000 0.0000 0.0000 18.0027 0.0000
# 6 0.0000 0.0000 0.0000 0.0000 0.0000 16.9366
#
#
#
# Elastic Compliance Matrix: (Units=1/GPa)
#
#
# Indices 1 2 3 4 5 6 
#
# 1 0.011807 -0.003811 -0.002836 0.000000 0.000000 0.000000
# 2 -0.003811 0.011997 -0.004177 0.000000 0.000000 0.000000
# 3 -0.002836 -0.004177 0.012532 0.000000 0.000000 0.000000
# 4 0.000000 0.000000 0.000000 0.033508 0.000000 0.000000
# 5 0.000000 0.000000 0.000000 0.000000 0.055547 0.000000
# 6 0.000000 0.000000 0.000000 0.000000 0.000000 0.059044
#
#
# Mechanical properties :
#
#
# Convention : Reuss Voigt Hill
#
# Bulk Modulus (GPa) = 68.07602 68.42618 68.25110
# Shear Modulus (GPa) = 23.69907 25.74587 24.72247
#
# Velocity S-wave (km/s) = 3.60697 3.75950 3.68402
# Velocity P-wave (km/s) = 7.39723 7.51062 7.45414
#
# Compressibility (1/GPa) = 0.01468946
#
# Stress axis : x y z
#
# Youngs Moduli (GPa) = 84.69851 83.35126 79.79264
#
# Poissons Ratio (x) = 0.31763 0.22629
# Poissons Ratio (y) = 0.32277 0.33327
# Poissons Ratio (z) = 0.24020 0.34814
#
# Static dielectric constant tensor:
#      x y z
#    x 3.594050 0.000000 0.000000 
#    y 0.000000 3.156340 0.000000 
#    z 0.000000 0.000000 3.602480 
# 
# 
# High freq. dielectric constant tensor:
#      x y z
#    x 1.720900 0.000000 0.000000 
#    y 0.000000 1.684670 0.000000 
#    z 0.000000 0.000000 1.694590 
# 
# From -- ./inp_files/47126.got.cif
#   From: 2010.06.25/outbox.cif.g09.slc.cpg/sg71_24_cif.got.tgz:47126.got - 2010.06.28 04:59:45.
