data_PCOD8290061
_publ_section_title
;
Structure prediction by ZEFSAII (Michael W. Deem and Ramdas Pophale) SiO2 
 PCOD8290061
Probable space group: I M M M
;
_chemical_formula_sum "Si O2"
_cell_formula_units_Z 120
_cell_length_a 9.304784
_cell_length_b 27.734230
_cell_length_c 26.933858
_cell_angle_alpha 90.000000
_cell_angle_beta 90.000000
_cell_angle_gamma 90.000000
_cell_volume 6950.578856
_symmetry_space_group_name_H-M "I M M M"
_symmetry_group_IT_number 71
_symmetry_cell_setting 'orthorhombic'
loop_
_space_group_symop_operation_xyz
x,y,z
-x,-y,z
x,-y,-z
-x,y,-z
-x,-y,-z
x,y,-z
-x,y,z
x,-y,z
1/2+x,1/2+y,1/2+z
1/2-x,1/2-y,1/2+z
1/2+x,1/2-y,1/2-z
1/2-x,1/2+y,1/2-z
1/2-x,1/2-y,1/2-z
1/2+x,1/2+y,1/2-z
1/2-x,1/2+y,1/2+z
1/2+x,1/2-y,1/2+z
loop_
_atom_site_type_symbol
_atom_site_label
_atom_site_fract_x
_atom_site_fract_y
_atom_site_fract_z
Si Si1 0.169724 0.918546 0.128931
Si Si2 0.843839 0.673253 0.384415
Si Si3 0.669083 0.500000 0.554399
Si Si4 0.167180 0.555393 0.728189
Si Si5 0.216139 0.216445 0.204158
Si Si6 0.160851 0.136780 0.277543
Si Si7 0.334672 0.267286 0.943138
Si Si8 0.843148 0.696598 0.855980
O O1 0.214932 0.864818 0.113636
O O2 0.216398 0.952284 0.083476
O O3 0.257267 0.937359 0.175736
O O4 0.000000 0.920721 0.140479
O O5 0.849660 0.698879 0.329815
O O6 0.815482 0.711586 0.427837
O O7 0.000000 0.648728 0.391960
O O8 0.500000 0.500000 0.548384
O O9 0.742651 0.500000 0.500000
O O10 0.182510 0.500000 0.745188
O O11 0.247200 0.588625 0.768418
O O12 0.000000 0.570530 0.724346
O O13 0.250000 0.250000 0.250000
O O14 0.143323 0.168342 0.226747
O O15 0.124901 0.249868 0.166581
O O16 0.240708 0.166336 0.320131
O O17 0.000000 0.122974 0.295047
O O18 0.500000 0.283123 0.935490
O O19 0.233504 0.300956 0.909445
O O20 0.286293 0.273371 0.000000
O O21 0.000000 0.671876 0.862076
#
# Coordination Sequence:
#
# PCOD8290061 Si02
#       8
#    16  16   8  16  16  16  16  16
#     4  11  21  34  53  73  95 126 167 214 264 319
#     4  10  20  33  50  71  98 132 169 212 261 307
#     4   9  20  38  55  71  93 123 163 217 274 319
#     4  11  23  37  54  75 102 135 171 212 262 315
#     4   9  19  30  46  71 102 136 171 205 248 301
#     4  11  21  33  52  76 104 137 173 208 252 309
#     4   9  19  36  54  72 100 138 176 214 258 304
#     4  10  20  33  50  75 107 137 172 213 255 304
#
# _framework density 17.264749999999999
#
# number of rings (size 3 to 8) (size 9 to 14) (size 15 to 20)
#    0.000    1.933    2.000    2.000    0.000    9.067 
#    0.000    0.000    0.000    2.800    0.000    0.000 
#    0.000    0.533    0.000    5.600    0.000    2.400 
#
# Total GULP energy -743468.430800 kJ/mol
# GULP energy per Si atom -12391.140513 kJ/mol
# Density = 1.722545 g / cm^3
# Si number density = 17.264750 Si / 1000 Ang^3
#
#
#
# Elastic Constant Matrix: (Units=GPa)
#
#
# Indices 1 2 3 4 5 6 
#
# 1 131.3858 45.3671 52.3419 0.0000 0.0000 0.0000
# 2 45.3671 75.6921 41.3853 0.0000 0.0000 0.0000
# 3 52.3419 41.3853 117.2757 0.0000 0.0000 0.0000
# 4 0.0000 0.0000 0.0000 22.3269 0.0000 0.0000
# 5 0.0000 0.0000 0.0000 0.0000 20.1464 0.0000
# 6 0.0000 0.0000 0.0000 0.0000 0.0000 16.1835
#
#
#
# Elastic Compliance Matrix: (Units=1/GPa)
#
#
# Indices 1 2 3 4 5 6 
#
# 1 0.010397 -0.004578 -0.003025 0.000000 0.000000 0.000000
# 2 -0.004578 0.018385 -0.004445 0.000000 0.000000 0.000000
# 3 -0.003025 -0.004445 0.011446 0.000000 0.000000 0.000000
# 4 0.000000 0.000000 0.000000 0.044789 0.000000 0.000000
# 5 0.000000 0.000000 0.000000 0.000000 0.049637 0.000000
# 6 0.000000 0.000000 0.000000 0.000000 0.000000 0.061791
#
#
# Mechanical properties :
#
#
# Convention : Reuss Voigt Hill
#
# Bulk Modulus (GPa) = 61.98513 66.94912 64.46713
# Shear Modulus (GPa) = 22.13199 24.08198 23.10699
#
# Velocity S-wave (km/s) = 3.58427 3.73884 3.66237
# Velocity P-wave (km/s) = 7.28766 7.58292 7.43676
#
# Compressibility (1/GPa) = 0.01613290
#
# Stress axis : x y z
#
# Youngs Moduli (GPa) = 96.18280 54.39098 87.37029
#
# Poissons Ratio (x) = 0.24898 0.26428
# Poissons Ratio (y) = 0.44029 0.38836
# Poissons Ratio (z) = 0.29094 0.24176
#
# Static dielectric constant tensor:
#      x y z
#    x 3.230550 0.000000 0.000000 
#    y 0.000000 2.661430 0.000000 
#    z 0.000000 0.000000 3.207840 
# 
# 
# High freq. dielectric constant tensor:
#      x y z
#    x 1.671100 0.000000 0.000000 
#    y 0.000000 1.646000 0.000000 
#    z 0.000000 0.000000 1.649170 
# 
# From -- ./inp_files/63836.got.cif
#   From: 2010.06.25/outbox.cif.g09.slc.cpg/sg71_32_cif.got.tgz:63836.got - 2010.06.28 04:59:45.
