data_PCOD8290313
_publ_section_title
;
Structure prediction by ZEFSAII (Michael W. Deem and Ramdas Pophale) SiO2 
 PCOD8290313
Probable space group: I M M M
;
_chemical_formula_sum "Si O2"
_cell_formula_units_Z 96
_cell_length_a 26.647382
_cell_length_b 11.824027
_cell_length_c 17.732063
_cell_angle_alpha 90.000000
_cell_angle_beta 90.000000
_cell_angle_gamma 90.000000
_cell_volume 5587.007137
_symmetry_space_group_name_H-M "I M M M"
_symmetry_group_IT_number 71
_symmetry_cell_setting 'orthorhombic'
loop_
_space_group_symop_operation_xyz
x,y,z
-x,-y,z
x,-y,-z
-x,y,-z
-x,-y,-z
x,y,-z
-x,y,z
x,-y,z
1/2+x,1/2+y,1/2+z
1/2-x,1/2-y,1/2+z
1/2+x,1/2-y,1/2-z
1/2-x,1/2+y,1/2-z
1/2-x,1/2-y,1/2-z
1/2+x,1/2+y,1/2-z
1/2-x,1/2+y,1/2+z
1/2+x,1/2-y,1/2+z
loop_
_atom_site_type_symbol
_atom_site_label
_atom_site_fract_x
_atom_site_fract_y
_atom_site_fract_z
Si Si1 0.700369 0.871078 0.353486
Si Si2 0.364564 0.500000 0.913557
Si Si3 0.145417 0.368569 0.700808
Si Si4 0.057261 0.757188 0.774126
Si Si5 0.300175 0.720829 0.912476
Si Si6 0.094120 0.629792 0.914762
Si Si7 0.942276 0.000000 0.281322
O O1 0.683320 0.841500 0.268965
O O2 0.744954 0.788119 0.376784
O O3 0.653745 0.850680 0.409416
O O4 0.719258 0.000000 0.359957
O O5 0.330685 0.607741 0.896048
O O6 0.412173 0.500000 0.859364
O O7 0.383606 0.500000 0.000000
O O8 0.134545 0.500000 0.692777
O O9 0.092045 0.309704 0.715511
O O10 0.170338 0.324856 0.624361
O O11 0.064967 0.714610 0.859674
O O12 0.000000 0.735452 0.749817
O O13 0.070655 0.890410 0.769448
O O14 0.294745 0.747337 0.000000
O O15 0.081816 0.500000 0.891309
O O16 0.076481 0.654267 0.000000
O O17 0.000000 0.000000 0.305992
#
# Coordination Sequence:
#
# PCOD8290313 Si02
#       7
#    16   8  16  16  16  16   8
#     4   9  17  31  52  77 103 134 173 211 251 298
#     4  10  20  33  54  83 101 128 175 217 261 305
#     4  10  21  35  52  76 104 137 173 209 253 308
#     4  10  20  35  55  77 101 133 172 215 263 310
#     4  11  20  32  53  77 105 136 169 211 256 305
#     4   9  18  32  52  79 109 139 174 215 256 302
#     4  10  20  37  57  76 102 133 169 219 271 312
#
# _framework density 17.182724
#
# number of rings (size 3 to 8) (size 9 to 14) (size 15 to 20)
#    0.000    2.167    2.500    2.500    0.000    2.833 
#    0.000    1.250    0.000    2.000    0.000    1.167 
#    0.000    0.000    0.000    0.000    0.000    0.000 
#
# Total GULP energy -595258.667312 kJ/mol
# GULP energy per Si atom -12401.222236 kJ/mol
# Density = 1.714361 g / cm^3
# Si number density = 17.182724 Si / 1000 Ang^3
#
#
#
# Elastic Constant Matrix: (Units=GPa)
#
#
# Indices 1 2 3 4 5 6 
#
# 1 98.0967 59.1299 50.7101 0.0000 0.0000 0.0000
# 2 59.1299 110.9422 58.1009 0.0000 0.0000 0.0000
# 3 50.7101 58.1009 77.2248 0.0000 0.0000 0.0000
# 4 0.0000 0.0000 0.0000 30.2171 0.0000 0.0000
# 5 0.0000 0.0000 0.0000 0.0000 17.3811 0.0000
# 6 0.0000 0.0000 0.0000 0.0000 0.0000 23.9557
#
#
#
# Elastic Compliance Matrix: (Units=1/GPa)
#
#
# Indices 1 2 3 4 5 6 
#
# 1 0.017167 -0.005357 -0.007243 0.000000 0.000000 0.000000
# 2 -0.005357 0.016546 -0.008931 0.000000 0.000000 0.000000
# 3 -0.007243 -0.008931 0.024424 0.000000 0.000000 0.000000
# 4 0.000000 0.000000 0.000000 0.033094 0.000000 0.000000
# 5 0.000000 0.000000 0.000000 0.000000 0.057534 0.000000
# 6 0.000000 0.000000 0.000000 0.000000 0.000000 0.041744
#
#
# Mechanical properties :
#
#
# Convention : Reuss Voigt Hill
#
# Bulk Modulus (GPa) = 66.32744 69.12727 67.72736
# Shear Modulus (GPa) = 20.95606 22.19897 21.57752
#
# Velocity S-wave (km/s) = 3.49607 3.59825 3.54753
# Velocity P-wave (km/s) = 7.41496 7.58823 7.50210
#
# Compressibility (1/GPa) = 0.01507672
#
# Stress axis : x y z
#
# Youngs Moduli (GPa) = 58.25194 60.43804 40.94252
#
# Poissons Ratio (x) = 0.32374 0.29653
# Poissons Ratio (y) = 0.31203 0.36566
# Poissons Ratio (z) = 0.42190 0.53977
#
# Static dielectric constant tensor:
#      x y z
#    x 3.166700 0.000000 0.000000 
#    y 0.000000 3.175810 0.000000 
#    z 0.000000 0.000000 3.171960 
# 
# 
# High freq. dielectric constant tensor:
#      x y z
#    x 1.666660 0.000000 0.000000 
#    y 0.000000 1.654800 0.000000 
#    z 0.000000 0.000000 1.657090 
# 
# From -- ./inp_files/48786.got.cif
#   From: 2010.06.25/outbox.cif.g09.slc.cpg/sg71_25_cif.got.tgz:48786.got - 2010.06.28 04:59:45.
