data_PCOD8290671
_publ_section_title
;
Structure prediction by ZEFSAII (Michael W. Deem and Ramdas Pophale) SiO2 
 PCOD8290671
Probable space group: I M M M
;
_chemical_formula_sum "Si O2"
_cell_formula_units_Z 88
_cell_length_a 20.952209
_cell_length_b 17.136134
_cell_length_c 13.290379
_cell_angle_alpha 90.000000
_cell_angle_beta 90.000000
_cell_angle_gamma 90.000000
_cell_volume 4771.775829
_symmetry_space_group_name_H-M "I M M M"
_symmetry_group_IT_number 71
_symmetry_cell_setting 'orthorhombic'
loop_
_space_group_symop_operation_xyz
x,y,z
-x,-y,z
x,-y,-z
-x,y,-z
-x,-y,-z
x,y,-z
-x,y,z
x,-y,z
1/2+x,1/2+y,1/2+z
1/2-x,1/2-y,1/2+z
1/2+x,1/2-y,1/2-z
1/2-x,1/2+y,1/2-z
1/2-x,1/2-y,1/2-z
1/2+x,1/2+y,1/2-z
1/2-x,1/2+y,1/2+z
1/2+x,1/2-y,1/2+z
loop_
_atom_site_type_symbol
_atom_site_label
_atom_site_fract_x
_atom_site_fract_y
_atom_site_fract_z
Si Si1 0.234213 0.089352 0.117207
Si Si2 0.615912 0.683081 0.692508
Si Si3 0.500000 0.408102 0.613602
Si Si4 0.573884 0.240732 0.887290
Si Si5 0.574432 0.844297 0.386597
Si Si6 0.373967 0.912256 0.806148
O O1 0.184145 0.147413 0.167414
O O2 0.299793 0.104553 0.175231
O O3 0.211390 0.000000 0.130166
O O4 0.242920 0.109703 0.000000
O O5 0.562570 0.618647 0.672281
O O6 0.615397 0.708253 0.809774
O O7 0.602873 0.757746 0.622970
O O8 0.500000 0.500000 0.610779
O O9 0.500000 0.374058 0.500000
O O10 0.500000 0.259678 0.869176
O O11 0.584215 0.148435 0.869996
O O12 0.595031 0.263168 0.000000
O O13 0.584189 0.874613 0.500000
O O14 0.500000 0.841389 0.356863
O O15 0.611283 0.902952 0.312505
O O16 0.391613 0.000000 0.840647
#
# Coordination Sequence:
#
# PCOD8290671 Si02
#       6
#    16  16   8  16  16  16
#     4  10  21  36  55  80 111 144 178 223 275 323
#     4  11  19  35  55  80 111 143 177 223 272 325
#     4  11  20  30  53  85 110 137 175 219 269 321
#     4  10  21  37  57  80 106 141 182 226 274 321
#     4  10  20  34  55  83 114 147 180 222 274 323
#     4  10  21  37  54  77 109 144 183 226 272 321
#
# _framework density 18.441770999999999
#
# number of rings (size 3 to 8) (size 9 to 14) (size 15 to 20)
#    0.000    1.727    1.818    4.364    0.000    7.273 
#    0.000    4.545    0.000    3.818    0.000    0.000 
#    0.000    0.000    0.000    0.000    0.000    0.000 
#
# Total GULP energy -545676.035107 kJ/mol
# GULP energy per Si atom -12401.728071 kJ/mol
# Density = 1.839980 g / cm^3
# Si number density = 18.441771 Si / 1000 Ang^3
#
#
#
# Elastic Constant Matrix: (Units=GPa)
#
#
# Indices 1 2 3 4 5 6 
#
# 1 81.6375 35.7026 58.2158 0.0000 0.0000 0.0000
# 2 35.7026 71.6430 42.6029 0.0000 0.0000 0.0000
# 3 58.2158 42.6029 144.4789 0.0000 0.0000 0.0000
# 4 0.0000 0.0000 0.0000 19.9795 0.0000 0.0000
# 5 0.0000 0.0000 0.0000 0.0000 28.7732 0.0000
# 6 0.0000 0.0000 0.0000 0.0000 0.0000 21.5637
#
#
#
# Elastic Compliance Matrix: (Units=1/GPa)
#
#
# Indices 1 2 3 4 5 6 
#
# 1 0.019097 -0.005992 -0.005928 0.000000 0.000000 0.000000
# 2 -0.005992 0.018806 -0.003131 0.000000 0.000000 0.000000
# 3 -0.005928 -0.003131 0.010233 0.000000 0.000000 0.000000
# 4 0.000000 0.000000 0.000000 0.050051 0.000000 0.000000
# 5 0.000000 0.000000 0.000000 0.000000 0.034755 0.000000
# 6 0.000000 0.000000 0.000000 0.000000 0.000000 0.046374
#
#
# Mechanical properties :
#
#
# Convention : Reuss Voigt Hill
#
# Bulk Modulus (GPa) = 55.44911 63.42246 59.43579
# Shear Modulus (GPa) = 23.20948 24.81249 24.01099
#
# Velocity S-wave (km/s) = 3.55142 3.67202 3.61222
# Velocity P-wave (km/s) = 6.85195 7.24180 7.04957
#
# Compressibility (1/GPa) = 0.01803455
#
# Stress axis : x y z
#
# Youngs Moduli (GPa) = 52.36454 53.17488 97.71977
#
# Poissons Ratio (x) = 0.31860 0.57929
# Poissons Ratio (y) = 0.31375 0.30597
# Poissons Ratio (z) = 0.31042 0.16650
#
# Static dielectric constant tensor:
#      x y z
#    x 3.338600 0.000000 0.000000 
#    y 0.000000 3.327720 0.000000 
#    z 0.000000 0.000000 3.506160 
# 
# 
# High freq. dielectric constant tensor:
#      x y z
#    x 1.712280 0.000000 0.000000 
#    y 0.000000 1.709420 0.000000 
#    z 0.000000 0.000000 1.719090 
# 
# From -- ./inp_files/38002.got.cif
#   From: 2010.06.25/outbox.cif.g09.slc.cpg/sg71_20_cif.got.tgz:38002.got - 2010.06.28 04:59:45.
