data_PCOD8290950
_publ_section_title
;
Structure prediction by ZEFSAII (Michael W. Deem and Ramdas Pophale) SiO2 
 PCOD8290950
Probable space group: I M M M
;
_chemical_formula_sum "Si O2"
_cell_formula_units_Z 80
_cell_length_a 15.054647
_cell_length_b 22.135346
_cell_length_c 12.964015
_cell_angle_alpha 90.000000
_cell_angle_beta 90.000000
_cell_angle_gamma 90.000000
_cell_volume 4320.126028
_symmetry_space_group_name_H-M "I M M M"
_symmetry_group_IT_number 71
_symmetry_cell_setting 'orthorhombic'
loop_
_space_group_symop_operation_xyz
x,y,z
-x,-y,z
x,-y,-z
-x,y,-z
-x,-y,-z
x,y,-z
-x,y,z
x,-y,z
1/2+x,1/2+y,1/2+z
1/2-x,1/2-y,1/2+z
1/2+x,1/2-y,1/2-z
1/2-x,1/2+y,1/2-z
1/2-x,1/2-y,1/2-z
1/2+x,1/2+y,1/2-z
1/2-x,1/2+y,1/2+z
1/2+x,1/2-y,1/2+z
loop_
_atom_site_type_symbol
_atom_site_label
_atom_site_fract_x
_atom_site_fract_y
_atom_site_fract_z
Si Si1 0.500000 0.066475 0.122238
Si Si2 0.104147 0.000000 0.378402
Si Si3 0.330741 0.139146 0.880659
Si Si4 0.000000 0.893829 0.111897
Si Si5 0.000000 0.248361 0.885189
Si Si6 0.157738 0.110473 0.252684
Si Si7 0.648033 0.255391 0.225116
O O1 0.588710 0.098811 0.160248
O O2 0.500000 0.000000 0.170488
O O3 0.500000 0.065300 0.000000
O O4 0.158478 0.059307 0.340350
O O5 0.110305 0.000000 0.500000
O O6 0.000000 0.000000 0.343662
O O7 0.250039 0.121001 0.806237
O O8 0.364558 0.208762 0.869502
O O9 0.304808 0.127746 0.000000
O O10 0.000000 0.822493 0.099316
O O11 0.912139 0.914985 0.170318
O O12 0.000000 0.925070 0.000000
O O13 0.911603 0.267075 0.821990
O O14 0.000000 0.278852 0.000000
O O15 0.125200 0.174722 0.302611
O O16 0.750000 0.250000 0.250000
#
# Coordination Sequence:
#
# PCOD8290950 Si02
#       7
#     8   8  16   8   8  16  16
#     4   9  19  34  50  75 107 143 181 217 264 329
#     4  11  24  42  58  77 110 155 197 234 274 329
#     4  10  20  35  57  84 116 146 181 230 291 343
#     4   9  16  30  51  79 112 140 178 228 284 336
#     4   9  17  31  53  77 111 156 188 227 284 336
#     4  10  20  36  56  82 110 149 188 233 278 340
#     4   9  19  33  54  85 116 144 188 239 285 343
#
# _framework density 18.517977999999999
#
# number of rings (size 3 to 8) (size 9 to 14) (size 15 to 20)
#    0.000    2.400    1.000    1.200    1.400    5.600 
#    0.000    5.000    0.000    0.000    0.000    0.700 
#    0.000    0.000    0.000    0.000    0.000    0.000 
#
# Total GULP energy -495603.002286 kJ/mol
# GULP energy per Si atom -12390.075057 kJ/mol
# Density = 1.847583 g / cm^3
# Si number density = 18.517978 Si / 1000 Ang^3
#
#
#
# Elastic Constant Matrix: (Units=GPa)
#
#
# Indices 1 2 3 4 5 6 
#
# 1 122.5836 40.2738 46.4794 0.0000 0.0000 0.0000
# 2 40.2738 126.5218 43.3791 0.0000 0.0000 0.0000
# 3 46.4794 43.3791 79.4850 0.0000 0.0000 0.0001
# 4 0.0000 0.0000 0.0000 28.1123 0.0000 0.0000
# 5 0.0000 0.0000 0.0000 0.0000 24.9875 0.0000
# 6 0.0000 0.0000 0.0001 0.0000 0.0000 27.8798
#
#
#
# Elastic Compliance Matrix: (Units=1/GPa)
#
#
# Indices 1 2 3 4 5 6 
#
# 1 0.010725 -0.001555 -0.005423 0.000000 0.000000 0.000000
# 2 -0.001555 0.009948 -0.004520 0.000000 0.000000 0.000000
# 3 -0.005423 -0.004520 0.018219 0.000000 0.000000 0.000000
# 4 0.000000 0.000000 0.000000 0.035572 0.000000 0.000000
# 5 0.000000 0.000000 0.000000 0.000000 0.040020 0.000000
# 6 0.000000 0.000000 0.000000 0.000000 0.000000 0.035868
#
#
# Mechanical properties :
#
#
# Convention : Reuss Voigt Hill
#
# Bulk Modulus (GPa) = 62.90677 65.42833 64.16755
# Shear Modulus (GPa) = 27.98828 29.42650 28.70739
#
# Velocity S-wave (km/s) = 3.89191 3.99065 3.94159
# Velocity P-wave (km/s) = 7.36480 7.52614 7.44591
#
# Compressibility (1/GPa) = 0.01589654
#
# Stress axis : x y z
#
# Youngs Moduli (GPa) = 93.24372 100.51818 54.88758
#
# Poissons Ratio (x) = 0.15626 0.29765
# Poissons Ratio (y) = 0.14495 0.24811
# Poissons Ratio (z) = 0.50565 0.45438
#
# Static dielectric constant tensor:
#      x y z
#    x 3.465660 0.000000 0.000000 
#    y 0.000000 3.819500 0.000000 
#    z 0.000000 0.000000 3.393950 
# 
# 
# High freq. dielectric constant tensor:
#      x y z
#    x 1.726790 0.000000 0.000000 
#    y 0.000000 1.713300 0.000000 
#    z 0.000000 0.000000 1.692160 
# 
# From -- ./inp_files/21965.got.cif
#   From: 2010.06.25/outbox.cif.g09.slc.cpg/sg71_11_cif.got.tgz:21965.got - 2010.06.28 04:59:45.
