data_PCOD8290985
_publ_section_title
;
Structure prediction by ZEFSAII (Michael W. Deem and Ramdas Pophale) SiO2 
 PCOD8290985
Probable space group: I M M M
;
_chemical_formula_sum "Si O2"
_cell_formula_units_Z 88
_cell_length_a 21.547742
_cell_length_b 8.911091
_cell_length_c 23.991463
_cell_angle_alpha 90.000000
_cell_angle_beta 90.000000
_cell_angle_gamma 90.000000
_cell_volume 4606.694133
_symmetry_space_group_name_H-M "I M M M"
_symmetry_group_IT_number 71
_symmetry_cell_setting 'orthorhombic'
loop_
_space_group_symop_operation_xyz
x,y,z
-x,-y,z
x,-y,-z
-x,y,-z
-x,-y,-z
x,y,-z
-x,y,z
x,-y,z
1/2+x,1/2+y,1/2+z
1/2-x,1/2-y,1/2+z
1/2+x,1/2-y,1/2-z
1/2-x,1/2+y,1/2-z
1/2-x,1/2-y,1/2-z
1/2+x,1/2+y,1/2-z
1/2-x,1/2+y,1/2+z
1/2+x,1/2-y,1/2+z
loop_
_atom_site_type_symbol
_atom_site_label
_atom_site_fract_x
_atom_site_fract_y
_atom_site_fract_z
Si Si1 0.000000 0.176368 0.937359
Si Si2 0.733707 0.324022 0.690535
Si Si3 0.928881 0.668039 0.436437
Si Si4 0.068139 0.330322 0.735959
Si Si5 0.595399 0.323879 0.344448
Si Si6 0.152106 0.825422 0.649551
O O1 0.936790 0.222374 0.903506
O O2 0.000000 0.000000 0.944840
O O3 0.000000 0.249529 0.000000
O O4 0.738943 0.500000 0.699460
O O5 0.750000 0.250000 0.750000
O O6 0.668028 0.280883 0.662145
O O7 0.783782 0.265405 0.645985
O O8 0.907299 0.669277 0.500000
O O9 0.919803 0.500000 0.411463
O O10 0.887683 0.788118 0.404632
O O11 0.000000 0.717541 0.431199
O O12 0.094401 0.500000 0.735089
O O13 0.059528 0.271682 0.798355
O O14 0.115146 0.220720 0.704912
O O15 0.000000 0.326033 0.707262
O O16 0.584898 0.500000 0.333733
O O17 0.166677 0.000000 0.652403
#
# Coordination Sequence:
#
# PCOD8290985 Si02
#       6
#     8  16  16  16  16  16
#     4   9  18  36  63  91 117 147 186 239 296 349
#     4  11  22  36  55  83 117 156 195 236 291 352
#     4   9  19  38  62  85 112 148 190 239 292 343
#     4  11  22  34  53  82 115 150 187 236 294 349
#     4  10  20  35  58  85 113 145 187 238 290 350
#     4  12  24  36  54  82 117 157 195 237 284 340
#
# _framework density 19.102634999999999
#
# number of rings (size 3 to 8) (size 9 to 14) (size 15 to 20)
#    0.000    1.545    2.727    3.818    0.000    4.727 
#    0.000    1.818    0.000    4.364    0.000    0.000 
#    0.000    0.000    0.000    0.000    0.000    0.000 
#
# Total GULP energy -545438.409474 kJ/mol
# GULP energy per Si atom -12396.327488 kJ/mol
# Density = 1.905916 g / cm^3
# Si number density = 19.102635 Si / 1000 Ang^3
#
#
#
# Elastic Constant Matrix: (Units=GPa)
#
#
# Indices 1 2 3 4 5 6 
#
# 1 132.6843 42.0171 53.5619 0.0000 0.0000 0.0000
# 2 42.0171 74.0440 27.5215 0.0000 0.0000 0.0000
# 3 53.5619 27.5215 108.3498 0.0000 0.0000 0.0000
# 4 0.0000 0.0000 0.0000 26.9271 0.0000 0.0000
# 5 0.0000 0.0000 0.0000 0.0000 2.4385 0.0000
# 6 0.0000 0.0000 0.0000 0.0000 0.0000 23.5611
#
#
#
# Elastic Compliance Matrix: (Units=1/GPa)
#
#
# Indices 1 2 3 4 5 6 
#
# 1 0.010619 -0.004500 -0.004107 0.000000 0.000000 0.000000
# 2 -0.004500 0.016820 -0.002048 0.000000 0.000000 0.000000
# 3 -0.004107 -0.002048 0.011780 0.000000 0.000000 0.000000
# 4 0.000000 0.000000 0.000000 0.037137 0.000000 0.000000
# 5 0.000000 0.000000 0.000000 0.000000 0.410085 0.000000
# 6 0.000000 0.000000 0.000000 0.000000 0.000000 0.042443
#
#
# Mechanical properties :
#
#
# Convention : Reuss Voigt Hill
#
# Bulk Modulus (GPa) = 55.83339 62.36434 59.09887
# Shear Modulus (GPa) = 8.99017 23.38385 16.18701
#
# Velocity S-wave (km/s) = 2.17174 3.50253 2.91412
# Velocity P-wave (km/s) = 5.96491 7.00534 6.50596
#
# Compressibility (1/GPa) = 0.01791043
#
# Stress axis : x y z
#
# Youngs Moduli (GPa) = 94.16745 59.45267 84.89200
#
# Poissons Ratio (x) = 0.26752 0.34862
# Poissons Ratio (y) = 0.42372 0.17386
# Poissons Ratio (z) = 0.38671 0.12176
#
# Static dielectric constant tensor:
#      x y z
#    x 3.758070 0.000000 0.000000 
#    y 0.000000 3.389760 0.000000 
#    z 0.000000 0.000000 3.502120 
# 
# 
# High freq. dielectric constant tensor:
#      x y z
#    x 1.752580 0.000000 0.000000 
#    y 0.000000 1.734520 0.000000 
#    z 0.000000 0.000000 1.725840 
# 
# From -- ./inp_files/10474.got.cif
#   From: 2010.06.25/outbox.cif.g09.slc.cpg/sg71_6_cif.got.tgz:10474.got - 2010.06.28 04:59:45.
