data_PCOD8290124
_publ_section_title
;
Structure prediction by ZEFSAII (Michael W. Deem and Ramdas Pophale) SiO2 
 PCOD8290124
Probable space group: I M M M
;
_chemical_formula_sum "Si O2"
_cell_formula_units_Z 88
_cell_length_a 20.631238
_cell_length_b 9.605682
_cell_length_c 21.703667
_cell_angle_alpha 90.000000
_cell_angle_beta 90.000000
_cell_angle_gamma 90.000000
_cell_volume 4301.170035
_symmetry_space_group_name_H-M "I M M M"
_symmetry_group_IT_number 71
_symmetry_cell_setting 'orthorhombic'
loop_
_space_group_symop_operation_xyz
x,y,z
-x,-y,z
x,-y,-z
-x,y,-z
-x,-y,-z
x,y,-z
-x,y,z
x,-y,z
1/2+x,1/2+y,1/2+z
1/2-x,1/2-y,1/2+z
1/2+x,1/2-y,1/2-z
1/2-x,1/2+y,1/2-z
1/2-x,1/2-y,1/2-z
1/2+x,1/2+y,1/2-z
1/2-x,1/2+y,1/2+z
1/2+x,1/2-y,1/2+z
loop_
_atom_site_type_symbol
_atom_site_label
_atom_site_fract_x
_atom_site_fract_y
_atom_site_fract_z
Si Si1 0.426208 0.162584 0.671180
Si Si2 0.111140 0.848029 0.431451
Si Si3 0.214906 0.653889 0.601855
Si Si4 0.360195 0.660730 0.428215
Si Si5 0.811659 0.655457 0.739863
Si Si6 0.500000 0.844180 0.073751
O O1 0.500000 0.195853 0.692137
O O2 0.411857 0.245906 0.608160
O O3 0.376532 0.210026 0.725476
O O4 0.418079 0.000000 0.656591
O O5 0.085699 0.875151 0.500000
O O6 0.181511 0.776119 0.436805
O O7 0.061760 0.739911 0.399611
O O8 0.114128 0.000000 0.397708
O O9 0.205768 0.500000 0.571413
O O10 0.291004 0.687549 0.604566
O O11 0.177839 0.655703 0.666948
O O12 0.357675 0.704892 0.500000
O O13 0.380727 0.500000 0.421971
O O14 0.795258 0.500000 0.763474
O O15 0.750000 0.750000 0.750000
O O16 0.500000 0.000000 0.102108
O O17 0.500000 0.855939 0.000000
#
# Coordination Sequence:
#
# PCOD8290124 Si02
#       6
#    16  16  16  16  16   8
#     4  10  22  40  61  87 121 158 196 243 299 359
#     4  10  20  33  50  75 109 146 185 234 290 347
#     4  10  20  35  56  83 112 146 189 238 292 351
#     4  10  21  37  59  88 120 154 197 247 295 350
#     4  10  20  37  62  87 112 147 193 242 293 348
#     4   9  17  31  51  71  97 141 189 229 278 339
#
# _framework density 20.45955
#
# number of rings (size 3 to 8) (size 9 to 14) (size 15 to 20)
#    0.000    2.091    1.818    1.364    0.000    5.455 
#    1.636    1.818    0.000    0.000    0.000    0.000 
#    0.000    0.000    0.000    0.000    0.000    0.000 
#
# Total GULP energy -545282.531074 kJ/mol
# GULP energy per Si atom -12392.784797 kJ/mol
# Density = 2.041298 g / cm^3
# Si number density = 20.459550 Si / 1000 Ang^3
#
#
#
# Elastic Constant Matrix: (Units=GPa)
#
#
# Indices 1 2 3 4 5 6 
#
# 1 136.8146 67.9913 38.8752 0.0000 0.0000 0.0000
# 2 67.9913 122.2286 17.2882 0.0000 0.0000 0.0000
# 3 38.8752 17.2882 82.2827 0.0000 0.0000 0.0000
# 4 0.0000 0.0000 0.0000 24.7119 0.0000 0.0000
# 5 0.0000 0.0000 0.0000 0.0000 29.8112 0.0000
# 6 0.0000 0.0000 0.0000 0.0000 0.0000 34.2396
#
#
#
# Elastic Compliance Matrix: (Units=1/GPa)
#
#
# Indices 1 2 3 4 5 6 
#
# 1 0.011329 -0.005715 -0.004152 0.000000 0.000000 0.000000
# 2 -0.005715 0.011315 0.000323 0.000000 0.000000 0.000000
# 3 -0.004152 0.000323 0.014047 0.000000 0.000000 0.000000
# 4 0.000000 0.000000 0.000000 0.040466 0.000000 0.000000
# 5 0.000000 0.000000 0.000000 0.000000 0.033544 0.000000
# 6 0.000000 0.000000 0.000000 0.000000 0.000000 0.029206
#
#
# Mechanical properties :
#
#
# Convention : Reuss Voigt Hill
#
# Bulk Modulus (GPa) = 56.80855 65.51504 61.16179
# Shear Modulus (GPa) = 30.32845 32.23065 31.27955
#
# Velocity S-wave (km/s) = 3.85432 3.97336 3.91429
# Velocity P-wave (km/s) = 6.90176 7.28981 7.09844
#
# Compressibility (1/GPa) = 0.01760299
#
# Stress axis : x y z
#
# Youngs Moduli (GPa) = 88.27112 88.38175 71.18990
#
# Poissons Ratio (x) = 0.50506 0.29556
# Poissons Ratio (y) = 0.50443 -0.02297
# Poissons Ratio (z) = 0.36647 -0.02851
#
# Static dielectric constant tensor:
#      x y z
#    x 3.626170 0.000000 0.000000 
#    y 0.000000 3.944800 0.000000 
#    z 0.000000 0.000000 3.525350 
# 
# 
# High freq. dielectric constant tensor:
#      x y z
#    x 1.796890 0.000000 0.000000 
#    y 0.000000 1.805580 0.000000 
#    z 0.000000 0.000000 1.770800 
# 
# From -- ./inp_files/61104.got.cif
#   From: 2010.06.25/outbox.cif.g09.slc.cpg/sg71_31_cif.got.tgz:61104.got - 2010.06.28 04:59:45.
