data_PCOD8290244
_publ_section_title
;
Structure prediction by ZEFSAII (Michael W. Deem and Ramdas Pophale) SiO2 
 PCOD8290244
Probable space group: I M M M
;
_chemical_formula_sum "Si O2"
_cell_formula_units_Z 88
_cell_length_a 19.254352
_cell_length_b 8.704128
_cell_length_c 27.544816
_cell_angle_alpha 90.000000
_cell_angle_beta 90.000000
_cell_angle_gamma 90.000000
_cell_volume 4616.300289
_symmetry_space_group_name_H-M "I M M M"
_symmetry_group_IT_number 71
_symmetry_cell_setting 'orthorhombic'
loop_
_space_group_symop_operation_xyz
x,y,z
-x,-y,z
x,-y,-z
-x,y,-z
-x,-y,-z
x,y,-z
-x,y,z
x,-y,z
1/2+x,1/2+y,1/2+z
1/2-x,1/2-y,1/2+z
1/2+x,1/2-y,1/2-z
1/2-x,1/2+y,1/2-z
1/2-x,1/2-y,1/2-z
1/2+x,1/2+y,1/2-z
1/2-x,1/2+y,1/2+z
1/2+x,1/2-y,1/2+z
loop_
_atom_site_type_symbol
_atom_site_label
_atom_site_fract_x
_atom_site_fract_y
_atom_site_fract_z
Si Si1 0.078849 0.816931 0.770909
Si Si2 0.828983 0.683011 0.847329
Si Si3 0.144129 0.824251 0.415613
Si Si4 0.783342 0.820526 0.054693
Si Si5 0.000000 0.168956 0.443738
Si Si6 0.185474 0.172766 0.307584
O O1 0.101673 0.751519 0.823372
O O2 0.133947 0.746834 0.731551
O O3 0.000000 0.760818 0.759895
O O4 0.080642 0.000000 0.771457
O O5 0.828389 0.500000 0.846504
O O6 0.826972 0.732460 0.903861
O O7 0.762018 0.748213 0.816344
O O8 0.202898 0.724434 0.441220
O O9 0.070464 0.744838 0.428326
O O10 0.146344 0.821757 0.358102
O O11 0.149834 0.000000 0.435092
O O12 0.791693 0.000000 0.064290
O O13 0.809482 0.778219 0.000000
O O14 0.000000 0.147664 0.500000
O O15 0.000000 0.000000 0.418322
O O16 0.197554 0.000000 0.289531
#
# Coordination Sequence:
#
# PCOD8290244 Si02
#       6
#    16  16  16  16   8  16
#     4  10  20  33  52  77 107 141 175 211 257 311
#     4  10  20  35  55  78 105 136 173 217 259 304
#     4   9  17  29  47  71 101 135 176 219 256 301
#     4  10  20  34  53  76 101 130 167 212 262 314
#     4   9  16  24  39  65  97 135 175 217 260 297
#     4   8  16  30  49  75 101 135 177 214 253 298
#
# _framework density 19.062885000000001
#
# number of rings (size 3 to 8) (size 9 to 14) (size 15 to 20)
#    0.000    2.636    0.000    3.273    1.273    2.545 
#    0.000    4.091    0.000    2.182    0.000    3.818 
#    0.000    0.000    0.000    0.000    0.000    0.000 
#
# Total GULP energy -545177.627553 kJ/mol
# GULP energy per Si atom -12390.400626 kJ/mol
# Density = 1.901950 g / cm^3
# Si number density = 19.062885 Si / 1000 Ang^3
#
#
#
# Elastic Constant Matrix: (Units=GPa)
#
#
# Indices 1 2 3 4 5 6 
#
# 1 71.1255 20.3732 47.5782 0.0000 0.0000 0.0000
# 2 20.3732 33.9974 24.6480 0.0000 0.0000 0.0000
# 3 47.5782 24.6480 94.4001 0.0000 0.0000 0.0000
# 4 0.0000 0.0000 0.0000 22.5273 0.0000 0.0000
# 5 0.0000 0.0000 0.0000 0.0000 18.3610 0.0000
# 6 0.0000 0.0000 0.0000 0.0000 0.0000 25.1880
#
#
#
# Elastic Compliance Matrix: (Units=1/GPa)
#
#
# Indices 1 2 3 4 5 6 
#
# 1 0.022295 -0.006431 -0.009558 0.000000 0.000000 0.000000
# 2 -0.006431 0.038137 -0.006716 0.000000 0.000000 0.000000
# 3 -0.009558 -0.006716 0.017164 0.000000 0.000000 0.000000
# 4 0.000000 0.000000 0.000000 0.044391 0.000000 0.000000
# 5 0.000000 0.000000 0.000000 0.000000 0.054463 0.000000
# 6 0.000000 0.000000 0.000000 0.000000 0.000000 0.039702
#
#
# Mechanical properties :
#
#
# Convention : Reuss Voigt Hill
#
# Bulk Modulus (GPa) = 31.06943 42.74687 36.90815
# Shear Modulus (GPa) = 18.36267 20.34348 19.35307
#
# Velocity S-wave (km/s) = 3.10702 3.27031 3.18971
# Velocity P-wave (km/s) = 5.40419 6.06075 5.74186
#
# Compressibility (1/GPa) = 0.03218598
#
# Stress axis : x y z
#
# Youngs Moduli (GPa) = 44.85243 26.22101 58.26144
#
# Poissons Ratio (x) = 0.16864 0.55685
# Poissons Ratio (y) = 0.28846 0.39130
# Poissons Ratio (z) = 0.42869 0.17611
#
# Static dielectric constant tensor:
#      x y z
#    x 3.535180 0.000000 0.000000 
#    y 0.000000 3.179400 0.000000 
#    z 0.000000 0.000000 3.568250 
# 
# 
# High freq. dielectric constant tensor:
#      x y z
#    x 1.726370 0.000000 0.000000 
#    y 0.000000 1.705030 0.000000 
#    z 0.000000 0.000000 1.747300 
# 
# From -- ./inp_files/50818.got.cif
#   From: 2010.06.25/outbox.cif.g09.slc.cpg/sg71_26_cif.got.tgz:50818.got - 2010.06.28 04:59:45.
