data_PCOD8290838
_publ_section_title
;
Structure prediction by ZEFSAII (Michael W. Deem and Ramdas Pophale) SiO2 
 PCOD8290838
Probable space group: I M M M
;
_chemical_formula_sum "Si O2"
_cell_formula_units_Z 104
_cell_length_a 21.981477
_cell_length_b 27.166907
_cell_length_c 8.596342
_cell_angle_alpha 90.000000
_cell_angle_beta 90.000000
_cell_angle_gamma 90.000000
_cell_volume 5133.466733
_symmetry_space_group_name_H-M "I M M M"
_symmetry_group_IT_number 71
_symmetry_cell_setting 'orthorhombic'
loop_
_space_group_symop_operation_xyz
x,y,z
-x,-y,z
x,-y,-z
-x,y,-z
-x,-y,-z
x,y,-z
-x,y,z
x,-y,z
1/2+x,1/2+y,1/2+z
1/2-x,1/2-y,1/2+z
1/2+x,1/2-y,1/2-z
1/2-x,1/2+y,1/2-z
1/2-x,1/2-y,1/2-z
1/2+x,1/2+y,1/2-z
1/2-x,1/2+y,1/2+z
1/2+x,1/2-y,1/2+z
loop_
_atom_site_type_symbol
_atom_site_label
_atom_site_fract_x
_atom_site_fract_y
_atom_site_fract_z
Si Si1 0.930245 0.733408 0.817822
Si Si2 0.307858 0.278740 0.818573
Si Si3 0.069212 0.629608 0.677429
Si Si4 0.667669 0.054940 0.816006
Si Si5 0.000000 0.058568 0.825821
Si Si6 0.779734 0.118158 0.179545
Si Si7 0.121631 0.058227 0.674321
O O1 0.875253 0.765149 0.745255
O O2 0.915380 0.676544 0.782763
O O3 0.000000 0.746078 0.756510
O O4 0.928404 0.742663 0.000000
O O5 0.250000 0.250000 0.750000
O O6 0.295869 0.335625 0.785310
O O7 0.309084 0.268002 0.000000
O O8 0.086628 0.643594 0.500000
O O9 0.105302 0.581375 0.734074
O O10 0.000000 0.613746 0.693048
O O11 0.719821 0.091424 0.754417
O O12 0.671307 0.000000 0.741115
O O13 0.673498 0.049533 0.000000
O O14 0.056739 0.078517 0.728750
O O15 0.000000 0.000000 0.835375
O O16 0.000000 0.080894 0.000000
O O17 0.831856 0.077839 0.198330
O O18 0.773110 0.134268 0.000000
O O19 0.135309 0.077597 0.500000
O O20 0.123585 0.000000 0.679105
#
# Coordination Sequence:
#
# PCOD8290838 Si02
#       7
#    16  16  16  16   8  16  16
#     4  10  21  39  63  90 121 157 199 248 303 364
#     4  12  25  42  64  89 119 154 197 248 304 365
#     4   9  17  31  55  86 118 154 195 238 288 348
#     4   9  18  32  52  81 116 153 194 242 290 338
#     4   9  17  31  53  79 105 139 183 227 275 333
#     4  11  22  37  57  82 112 150 197 244 296 352
#     4  10  20  35  55  80 112 148 188 235 286 340
#
# _framework density 20.259215000000001
#
# number of rings (size 3 to 8) (size 9 to 14) (size 15 to 20)
#    0.000    1.923    0.000    4.385    0.000    4.923 
#    1.385    2.308    0.000    2.308    0.000    2.154 
#    0.000    0.000    0.000    0.000    0.000    0.000 
#
# Total GULP energy -644568.598851 kJ/mol
# GULP energy per Si atom -12395.549978 kJ/mol
# Density = 2.021310 g / cm^3
# Si number density = 20.259215 Si / 1000 Ang^3
#
#
#
# Elastic Constant Matrix: (Units=GPa)
#
#
# Indices 1 2 3 4 5 6 
#
# 1 151.5941 69.9098 37.2969 0.0000 0.0000 0.0000
# 2 69.9098 98.2603 33.3734 0.0000 0.0000 0.0000
# 3 37.2969 33.3734 74.8348 0.0000 0.0000 0.0000
# 4 0.0000 0.0000 0.0000 28.1478 0.0000 0.0000
# 5 0.0000 0.0000 0.0000 0.0000 26.6441 0.0000
# 6 0.0000 0.0000 0.0000 0.0000 0.0000 32.9213
#
#
#
# Elastic Compliance Matrix: (Units=1/GPa)
#
#
# Indices 1 2 3 4 5 6 
#
# 1 0.010105 -0.006457 -0.002157 0.000000 0.000000 0.000000
# 2 -0.006457 0.016120 -0.003971 0.000000 0.000000 0.000000
# 3 -0.002157 -0.003971 0.016208 0.000000 0.000000 0.000000
# 4 0.000000 0.000000 0.000000 0.035527 0.000000 0.000000
# 5 0.000000 0.000000 0.000000 0.000000 0.037532 0.000000
# 6 0.000000 0.000000 0.000000 0.000000 0.000000 0.030375
#
#
# Mechanical properties :
#
#
# Convention : Reuss Voigt Hill
#
# Bulk Modulus (GPa) = 57.92252 67.31660 62.61956
# Shear Modulus (GPa) = 28.28216 29.81658 29.04937
#
# Velocity S-wave (km/s) = 3.74038 3.84051 3.79077
# Velocity P-wave (km/s) = 6.87799 7.27776 7.08069
#
# Compressibility (1/GPa) = 0.01726444
#
# Stress axis : x y z
#
# Youngs Moduli (GPa) = 98.96253 62.03650 61.69649
#
# Poissons Ratio (x) = 0.40056 0.13306
# Poissons Ratio (y) = 0.63899 0.24498
# Poissons Ratio (z) = 0.21343 0.24633
#
# Static dielectric constant tensor:
#      x y z
#    x 4.031340 0.000000 0.000000 
#    y 0.000000 19.738360 0.000000 
#    z 0.000000 0.000000 3.597150 
# 
# 
# High freq. dielectric constant tensor:
#      x y z
#    x 1.809620 0.000000 0.000000 
#    y 0.000000 1.780190 0.000000 
#    z 0.000000 0.000000 1.777380 
# 
# From -- ./inp_files/11082.got.cif
#   From: 2010.06.25/outbox.cif.g09.slc.cpg/sg71_6_cif.got.tgz:11082.got - 2010.06.28 04:59:45.
