data_PCOD8290329
_publ_section_title
;
Structure prediction by ZEFSAII (Michael W. Deem and Ramdas Pophale) SiO2 
 PCOD8290329
Probable space group: I M M M
;
_chemical_formula_sum "Si O2"
_cell_formula_units_Z 72
_cell_length_a 18.074446
_cell_length_b 24.706166
_cell_length_c 7.553364
_cell_angle_alpha 90.000000
_cell_angle_beta 90.000000
_cell_angle_gamma 90.000000
_cell_volume 3372.956683
_symmetry_space_group_name_H-M "I M M M"
_symmetry_group_IT_number 71
_symmetry_cell_setting 'orthorhombic'
loop_
_space_group_symop_operation_xyz
x,y,z
-x,-y,z
x,-y,-z
-x,y,-z
-x,-y,-z
x,y,-z
-x,y,z
x,-y,z
1/2+x,1/2+y,1/2+z
1/2-x,1/2-y,1/2+z
1/2+x,1/2-y,1/2-z
1/2-x,1/2+y,1/2-z
1/2-x,1/2-y,1/2-z
1/2+x,1/2+y,1/2-z
1/2-x,1/2+y,1/2+z
1/2+x,1/2-y,1/2+z
loop_
_atom_site_type_symbol
_atom_site_label
_atom_site_fract_x
_atom_site_fract_y
_atom_site_fract_z
Si Si1 0.082675 0.252785 0.292624
Si Si2 0.649888 0.639383 0.209577
Si Si3 0.814973 0.348548 0.799555
Si Si4 0.417634 0.059873 0.710581
Si Si5 0.912638 0.937204 0.000000
O O1 0.088139 0.261794 0.500000
O O2 0.099681 0.190996 0.243241
O O3 0.143680 0.291229 0.205873
O O4 0.000000 0.266676 0.222805
O O5 0.732533 0.654049 0.279122
O O6 0.620207 0.588816 0.320948
O O7 0.645867 0.625685 0.000000
O O8 0.863318 0.395342 0.703385
O O9 0.805042 0.366572 0.000000
O O10 0.419922 0.064858 0.500000
O O11 0.500000 0.070293 0.785584
O O12 0.390198 0.000000 0.766940
O O13 0.000000 0.929295 0.000000
O O14 0.890155 0.000000 0.000000
#
# Coordination Sequence:
#
# PCOD8290329 Si02
#       5
#    16  16  16  16   8
#     4  10  21  36  56  84 122 167 208 253 314 377
#     4  10  23  42  64  92 128 164 204 258 321 377
#     4  10  20  33  56  88 117 158 207 254 311 367
#     4   8  14  26  45  72 109 149 192 244 297 357
#     4  11  26  46  70  98 123 161 214 260 313 376
#
# _framework density 21.346257000000001
#
# number of rings (size 3 to 8) (size 9 to 14) (size 15 to 20)
#    0.000    2.333    0.000    2.667    3.111    4.000 
#    0.000    3.333    0.000    0.000    0.000    3.111 
#    0.000    0.000    0.000    0.000    0.000    0.000 
#
# Total GULP energy -446271.731733 kJ/mol
# GULP energy per Si atom -12396.436993 kJ/mol
# Density = 2.129767 g / cm^3
# Si number density = 21.346257 Si / 1000 Ang^3
#
#
#
# Elastic Constant Matrix: (Units=GPa)
#
#
# Indices 1 2 3 4 5 6 
#
# 1 141.3547 60.7670 28.8091 0.0000 0.0000 0.0000
# 2 60.7670 138.0823 37.9892 0.0000 0.0000 0.0000
# 3 28.8091 37.9892 54.9573 0.0000 0.0000 0.0000
# 4 0.0000 0.0000 0.0000 -0.0344 0.0000 0.0000
# 5 0.0000 0.0000 0.0000 0.0000 6.8431 0.0000
# 6 0.0000 0.0000 0.0000 0.0000 0.0000 32.4002
#
#
#
# Elastic Compliance Matrix: (Units=1/GPa)
#
#
# Indices 1 2 3 4 5 6 
#
# 1 0.008982 -0.003282 -0.002440 0.000000 0.000000 0.000000
# 2 -0.003282 0.010142 -0.005290 0.000000 0.000000 0.000000
# 3 -0.002440 -0.005290 0.023132 0.000000 0.000000 0.000000
# 4 0.000000 0.000000 0.000000-29.075554 0.000001 0.000000
# 5 0.000000 0.000000 0.000000 0.000001 0.146133 0.000000
# 6 0.000000 0.000000 0.000000 0.000000 0.000000 0.030864
#
#
# Mechanical properties :
#
#
# Convention : Reuss Voigt Hill
#
# Bulk Modulus (GPa) = 49.42662 65.50275 57.46469
# Shear Modulus (GPa) = -0.17345 21.63038 10.72847
#
# Velocity S-wave (km/s) = -0.28536 3.18671 2.24429
# Velocity P-wave (km/s) = 4.80587 6.65527 5.80470
#
# Compressibility (1/GPa) = 0.02023201
#
# Stress axis : x y z
#
# Youngs Moduli (GPa) = 111.32774 98.60324 43.23022
#
# Poissons Ratio (x) = 0.32358 0.10549
# Poissons Ratio (y) = 0.36534 0.22869
# Poissons Ratio (z) = 0.27167 0.52163
#
# Static dielectric constant tensor:
#      x y z
#    x 4.246500 0.000000 0.000000 
#    y 0.000000 3.872330 0.000000 
#    z 0.000000 0.000000 3.582070 
# 
# 
# High freq. dielectric constant tensor:
#      x y z
#    x 1.847340 0.000000 0.000000 
#    y 0.000000 1.835860 0.000000 
#    z 0.000000 0.000000 1.816640 
# 
# From -- ./inp_files/7955.got.cif
#   From: 2010.06.25/outbox.cif.g09.slc.cpg/sg71_4_cif.got.tgz:7955.got - 2010.06.28 04:59:45.
