data_PCOD8290045
_publ_section_title
;
Structure prediction by ZEFSAII (Michael W. Deem and Ramdas Pophale) SiO2 
 PCOD8290045
Probable space group: I M M M
;
_chemical_formula_sum "Si O2"
_cell_formula_units_Z 104
_cell_length_a 8.957455
_cell_length_b 23.765810
_cell_length_c 27.949926
_cell_angle_alpha 90.000000
_cell_angle_beta 90.000000
_cell_angle_gamma 90.000000
_cell_volume 5950.013049
_symmetry_space_group_name_H-M "I M M M"
_symmetry_group_IT_number 71
_symmetry_cell_setting 'orthorhombic'
loop_
_space_group_symop_operation_xyz
x,y,z
-x,-y,z
x,-y,-z
-x,y,-z
-x,-y,-z
x,y,-z
-x,y,z
x,-y,z
1/2+x,1/2+y,1/2+z
1/2-x,1/2-y,1/2+z
1/2+x,1/2-y,1/2-z
1/2-x,1/2+y,1/2-z
1/2-x,1/2-y,1/2-z
1/2+x,1/2+y,1/2-z
1/2-x,1/2+y,1/2+z
1/2+x,1/2-y,1/2+z
loop_
_atom_site_type_symbol
_atom_site_label
_atom_site_fract_x
_atom_site_fract_y
_atom_site_fract_z
Si Si1 0.824925 0.121038 0.590161
Si Si2 0.174547 0.565832 0.819991
Si Si3 0.672622 0.645346 0.444011
Si Si4 0.331838 0.433186 0.723825
Si Si5 0.830353 0.566582 0.000000
Si Si6 0.670966 0.742024 0.054988
Si Si7 0.674203 0.934531 0.871629
O O1 0.758394 0.100577 0.639763
O O2 0.750416 0.087853 0.547119
O O3 0.791531 0.187424 0.586376
O O4 0.000000 0.108498 0.588332
O O5 0.207607 0.500000 0.827606
O O6 0.237226 0.587514 0.769296
O O7 0.000000 0.578775 0.822219
O O8 0.704258 0.637825 0.500000
O O9 0.500000 0.638340 0.431117
O O10 0.725529 0.707046 0.427169
O O11 0.765871 0.597402 0.417862
O O12 0.500000 0.409439 0.727264
O O13 0.331763 0.500000 0.722480
O O14 0.255315 0.410305 0.675585
O O15 0.825408 0.500000 0.000000
O O16 0.000000 0.588783 0.000000
O O17 0.500000 0.760915 0.061433
O O18 0.704423 0.726231 0.000000
O O19 0.500000 0.923498 0.865260
O O20 0.709856 0.000000 0.879277
#
# Coordination Sequence:
#
# PCOD8290045 Si02
#       7
#    16  16  16  16   8  16  16
#     4  11  21  34  52  74  99 133 176 220 264 311
#     4  10  20  33  49  73 105 138 173 214 261 312
#     4  10  21  35  53  79 107 137 173 212 253 299
#     4   9  17  31  52  76 102 134 172 213 254 301
#     4  11  23  35  47  69 103 139 172 213 268 321
#     4   9  18  35  54  72  97 131 174 218 259 305
#     4  10  20  34  54  80 109 141 172 204 250 305
#
# _framework density 17.478954000000002
#
# number of rings (size 3 to 8) (size 9 to 14) (size 15 to 20)
#    0.000    2.077    0.769    3.000    0.000    8.615 
#    0.000    1.538    0.000    0.923    0.000    0.000 
#    0.000    0.000    0.000    0.000    0.000    0.000 
#
# Total GULP energy -644961.121911 kJ/mol
# GULP energy per Si atom -12403.098498 kJ/mol
# Density = 1.743917 g / cm^3
# Si number density = 17.478954 Si / 1000 Ang^3
#
#
#
# Elastic Constant Matrix: (Units=GPa)
#
#
# Indices 1 2 3 4 5 6 
#
# 1 114.0720 54.9505 55.5201 0.0000 0.0000 0.0000
# 2 54.9505 71.0419 51.5938 0.0000 0.0000 0.0000
# 3 55.5201 51.5938 99.8501 0.0000 0.0000 0.0000
# 4 0.0000 0.0000 0.0000 -4.4814 0.0000 0.0000
# 5 0.0000 0.0000 0.0000 0.0000 36.1024 0.0000
# 6 0.0000 0.0000 0.0000 0.0000 0.0000 27.2604
#
#
#
# Elastic Compliance Matrix: (Units=1/GPa)
#
#
# Indices 1 2 3 4 5 6 
#
# 1 0.014780 -0.008746 -0.003699 0.000000 0.000000 0.000000
# 2 -0.008746 0.027706 -0.009453 0.000000 0.000000 0.000000
# 3 -0.003699 -0.009453 0.016956 0.000000 0.000000 0.000000
# 4 0.000000 0.000000 0.000000 -0.223146 0.000000 0.000000
# 5 0.000000 0.000000 0.000000 0.000000 0.027699 0.000000
# 6 0.000000 0.000000 0.000000 0.000000 0.000000 0.036683
#
#
# Mechanical properties :
#
#
# Convention : Reuss Voigt Hill
#
# Bulk Modulus (GPa) = 63.91212 67.67697 65.79454
# Shear Modulus (GPa) = -99.38427 19.96960 -39.70733
#
# Velocity S-wave (km/s) = -7.54870 3.38375 -4.77143
# Velocity P-wave (km/s) = 6.27157 7.35320 2.71449
#
# Compressibility (1/GPa) = 0.01564648
#
# Stress axis : x y z
#
# Youngs Moduli (GPa) = 67.66062 36.09295 58.97456
#
# Poissons Ratio (x) = 0.31565 0.21815
# Poissons Ratio (y) = 0.59173 0.55751
# Poissons Ratio (z) = 0.25028 0.34120
#
# Static dielectric constant tensor:
#      x y z
#    x 3.456470 0.000000 0.000000 
#    y 0.000000 3.076400 0.000000 
#    z 0.000000 0.000000 3.247500 
# 
# 
# High freq. dielectric constant tensor:
#      x y z
#    x 1.694170 0.000000 0.000000 
#    y 0.000000 1.651300 0.000000 
#    z 0.000000 0.000000 1.674500 
# 
# From -- ./inp_files/63285.got.cif
#   From: 2010.06.25/outbox.cif.g09.slc.cpg/sg71_32_cif.got.tgz:63285.got - 2010.06.28 04:59:45.
