data_PCOD8290564
_publ_section_title
;
Structure prediction by ZEFSAII (Michael W. Deem and Ramdas Pophale) SiO2 
 PCOD8290564
Probable space group: I M M M
;
_chemical_formula_sum "Si O2"
_cell_formula_units_Z 96
_cell_length_a 28.726122
_cell_length_b 20.541144
_cell_length_c 8.460714
_cell_angle_alpha 90.000000
_cell_angle_beta 90.000000
_cell_angle_gamma 90.000000
_cell_volume 4992.391585
_symmetry_space_group_name_H-M "I M M M"
_symmetry_group_IT_number 71
_symmetry_cell_setting 'orthorhombic'
loop_
_space_group_symop_operation_xyz
x,y,z
-x,-y,z
x,-y,-z
-x,y,-z
-x,-y,-z
x,y,-z
-x,y,z
x,-y,z
1/2+x,1/2+y,1/2+z
1/2-x,1/2-y,1/2+z
1/2+x,1/2-y,1/2-z
1/2-x,1/2+y,1/2-z
1/2-x,1/2-y,1/2-z
1/2+x,1/2+y,1/2-z
1/2-x,1/2+y,1/2+z
1/2+x,1/2-y,1/2+z
loop_
_atom_site_type_symbol
_atom_site_label
_atom_site_fract_x
_atom_site_fract_y
_atom_site_fract_z
Si Si1 0.188649 0.202195 0.822873
Si Si2 0.712224 0.836038 0.817716
Si Si3 0.947442 0.330629 0.185911
Si Si4 0.093813 0.199172 0.681599
Si Si5 0.447403 0.430953 0.812561
Si Si6 0.134226 0.424925 0.187049
O O1 0.231987 0.152116 0.799989
O O2 0.202795 0.277103 0.800711
O O3 0.149013 0.189740 0.694566
O O4 0.168561 0.195199 0.000000
O O5 0.681460 0.898007 0.767118
O O6 0.700656 0.818022 0.000000
O O7 0.926608 0.260436 0.226263
O O8 0.911444 0.385627 0.249771
O O9 0.000000 0.339595 0.257447
O O10 0.950991 0.337261 0.000000
O O11 0.079174 0.207428 0.500000
O O12 0.074876 0.133232 0.762769
O O13 0.500000 0.432386 0.755488
O O14 0.423906 0.500000 0.758137
O O15 0.443566 0.425337 0.000000
O O16 0.128176 0.500000 0.237202
O O17 0.139290 0.417365 0.000000
#
# Coordination Sequence:
#
# PCOD8290564 Si02
#       6
#    16  16  16  16  16  16
#     4  10  20  34  54  79 109 139 172 215 267 328
#     4  10  20  35  56  81 105 137 178 222 270 319
#     4  10  21  36  54  78 110 147 186 231 282 332
#     4  11  20  31  53  84 111 140 180 226 274 321
#     4   8  15  29  48  71 102 139 176 215 261 312
#     4  10  21  37  57  80 110 150 190 229 277 333
#
# _framework density 19.22926
#
# number of rings (size 3 to 8) (size 9 to 14) (size 15 to 20)
#    0.000    2.167    1.667    2.500    0.000    3.667 
#    0.000    2.500    0.000    5.000    0.000    8.167 
#    0.000    0.000    0.000    0.000    0.000    0.000 
#
# Total GULP energy -594728.837793 kJ/mol
# GULP energy per Si atom -12390.184121 kJ/mol
# Density = 1.918549 g / cm^3
# Si number density = 19.229260 Si / 1000 Ang^3
#
#
#
# Elastic Constant Matrix: (Units=GPa)
#
#
# Indices 1 2 3 4 5 6 
#
# 1 118.9815 69.2611 13.0023 0.0000 0.0000 0.0000
# 2 69.2611 148.2066 9.6332 0.0000 0.0000 0.0000
# 3 13.0023 9.6332 24.2854 0.0000 0.0000 0.0000
# 4 0.0000 0.0000 0.0000 21.1283 0.0000 0.0000
# 5 0.0000 0.0000 0.0000 0.0000 16.9977 0.0000
# 6 0.0000 0.0000 0.0000 0.0000 0.0000 27.2362
#
#
#
# Elastic Compliance Matrix: (Units=1/GPa)
#
#
# Indices 1 2 3 4 5 6 
#
# 1 0.011967 -0.005313 -0.004300 0.000000 0.000000 0.000000
# 2 -0.005313 0.009285 -0.000838 0.000000 0.000000 0.000000
# 3 -0.004300 -0.000838 0.043812 0.000000 0.000000 0.000000
# 4 0.000000 0.000000 0.000000 0.047330 0.000000 0.000000
# 5 0.000000 0.000000 0.000000 0.000000 0.058831 0.000000
# 6 0.000000 0.000000 0.000000 0.000000 0.000000 0.036716
#
#
# Mechanical properties :
#
#
# Convention : Reuss Voigt Hill
#
# Bulk Modulus (GPa) = 22.64422 52.80740 37.72581
# Shear Modulus (GPa) = 20.52847 26.37757 23.45302
#
# Velocity S-wave (km/s) = 3.27090 3.70772 3.49614
# Velocity P-wave (km/s) = 5.10554 6.77135 5.99657
#
# Compressibility (1/GPa) = 0.04416137
#
# Stress axis : x y z
#
# Youngs Moduli (GPa) = 83.55971 107.70217 22.82499
#
# Poissons Ratio (x) = 0.57225 0.09814
# Poissons Ratio (y) = 0.44398 0.01913
# Poissons Ratio (z) = 0.35929 0.09029
#
# Static dielectric constant tensor:
#      x y z
#    x 3.866620 0.000000 0.000000 
#    y 0.000000 3.575630 0.000000 
#    z 0.000000 0.000000 3.252010 
# 
# 
# High freq. dielectric constant tensor:
#      x y z
#    x 1.752330 0.000000 0.000000 
#    y 0.000000 1.736850 0.000000 
#    z 0.000000 0.000000 1.728690 
# 
# From -- ./inp_files/10871.got.cif
#   From: 2010.06.25/outbox.cif.g09.slc.cpg/sg71_6_cif.got.tgz:10871.got - 2010.06.28 04:59:45.
