data_PCOD8290605
_publ_section_title
;
Structure prediction by ZEFSAII (Michael W. Deem and Ramdas Pophale) SiO2 
 PCOD8290605
Probable space group: I M M M
;
_chemical_formula_sum "Si O2"
_cell_formula_units_Z 104
_cell_length_a 8.508708
_cell_length_b 23.313783
_cell_length_c 27.310650
_cell_angle_alpha 90.000000
_cell_angle_beta 90.000000
_cell_angle_gamma 90.000000
_cell_volume 5417.618336
_symmetry_space_group_name_H-M "I M M M"
_symmetry_group_IT_number 71
_symmetry_cell_setting 'orthorhombic'
loop_
_space_group_symop_operation_xyz
x,y,z
-x,-y,z
x,-y,-z
-x,y,-z
-x,-y,-z
x,y,-z
-x,y,z
x,-y,z
1/2+x,1/2+y,1/2+z
1/2-x,1/2-y,1/2+z
1/2+x,1/2-y,1/2-z
1/2-x,1/2+y,1/2-z
1/2-x,1/2-y,1/2-z
1/2+x,1/2+y,1/2-z
1/2-x,1/2+y,1/2+z
1/2+x,1/2-y,1/2+z
loop_
_atom_site_type_symbol
_atom_site_label
_atom_site_fract_x
_atom_site_fract_y
_atom_site_fract_z
Si Si1 0.186468 0.113609 0.145180
Si Si2 0.320383 0.285578 0.879337
Si Si3 0.814162 0.000000 0.702137
Si Si4 0.683656 0.000000 0.810735
Si Si5 0.677667 0.719903 0.296066
Si Si6 0.314073 0.091752 0.370454
Si Si7 0.682393 0.181422 0.055475
Si Si8 0.315658 0.000000 0.552814
O O1 0.272767 0.054364 0.155926
O O2 0.249487 0.158757 0.186563
O O3 0.227253 0.137409 0.091131
O O4 0.000000 0.105303 0.148441
O O5 0.500000 0.277536 0.861247
O O6 0.195883 0.263877 0.840026
O O7 0.282883 0.351989 0.883811
O O8 0.292946 0.248133 0.928553
O O9 0.777773 0.000000 0.759801
O O10 0.741789 0.057966 0.678337
O O11 0.000000 0.000000 0.694248
O O12 0.500000 0.000000 0.798820
O O13 0.500000 0.708683 0.282759
O O14 0.750000 0.750000 0.250000
O O15 0.500000 0.103120 0.365663
O O16 0.265301 0.055468 0.417444
O O17 0.500000 0.165021 0.057830
O O18 0.746985 0.174860 0.000000
O O19 0.500000 0.000000 0.545829
O O20 0.230893 0.000000 0.500000
#
# Coordination Sequence:
#
# PCOD8290605 Si02
#       8
#    16  16   8   8  16  16  16   8
#     4  10  22  40  60  87 119 151 192 241 290 342
#     4  10  20  34  54  81 114 149 188 232 281 335
#     4  11  23  39  58  79 110 152 196 242 292 344
#     4  12  25  41  63  87 116 154 194 237 290 349
#     4  10  21  36  56  81 113 149 187 230 281 337
#     4  10  20  35  54  79 112 148 193 240 286 342
#     4   9  19  38  62  87 118 155 193 236 290 349
#     4   8  16  32  52  73 101 140 185 236 288 333
#
# _framework density 19.196625999999998
#
# number of rings (size 3 to 8) (size 9 to 14) (size 15 to 20)
#    0.000    2.077    0.000    3.692    2.154    3.385 
#    0.000    0.385    0.000   10.154    0.000    0.000 
#    0.000    0.000    0.000    0.000    0.000    0.000 
#
# Total GULP energy -644476.460101 kJ/mol
# GULP energy per Si atom -12393.778079 kJ/mol
# Density = 1.915293 g / cm^3
# Si number density = 19.196626 Si / 1000 Ang^3
#
#
#
# Elastic Constant Matrix: (Units=GPa)
#
#
# Indices 1 2 3 4 5 6 
#
# 1 63.0621 24.7565 25.0216 0.0000 0.0000 0.0000
# 2 24.7565 139.9027 57.5598 0.0000 0.0000 0.0000
# 3 25.0216 57.5598 123.3721 0.0000 0.0000 0.0000
# 4 0.0000 0.0000 0.0000 18.3781 0.0000 0.0000
# 5 0.0000 0.0000 0.0000 0.0000 25.0596 0.0000
# 6 0.0000 0.0000 0.0000 0.0000 0.0000 32.1186
#
#
#
# Elastic Compliance Matrix: (Units=1/GPa)
#
#
# Indices 1 2 3 4 5 6 
#
# 1 0.017707 -0.002049 -0.002635 0.000000 0.000000 0.000000
# 2 -0.002049 0.009083 -0.003822 0.000000 0.000000 0.000000
# 3 -0.002635 -0.003822 0.010423 0.000000 0.000000 0.000000
# 4 0.000000 0.000000 0.000000 0.054413 0.000000 0.000000
# 5 0.000000 0.000000 0.000000 0.000000 0.039905 0.000000
# 6 0.000000 0.000000 0.000000 0.000000 0.000000 0.031135
#
#
# Mechanical properties :
#
#
# Convention : Reuss Voigt Hill
#
# Bulk Modulus (GPa) = 49.50359 60.11253 54.80806
# Shear Modulus (GPa) = 26.82226 29.71119 28.26673
#
# Velocity S-wave (km/s) = 3.74202 3.93839 3.84146
# Velocity P-wave (km/s) = 6.67188 7.21549 6.94900
#
# Compressibility (1/GPa) = 0.02020056
#
# Stress axis : x y z
#
# Youngs Moduli (GPa) = 56.47333 110.09632 95.93943
#
# Poissons Ratio (x) = 0.22561 0.25283
# Poissons Ratio (y) = 0.11573 0.36669
# Poissons Ratio (z) = 0.14882 0.42080
#
# Static dielectric constant tensor:
#      x y z
#    x 3.468330 0.000000 0.000000 
#    y 0.000000 3.579100 0.000000 
#    z 0.000000 0.000000 3.724080 
# 
# 
# High freq. dielectric constant tensor:
#      x y z
#    x 1.747440 0.000000 0.000000 
#    y 0.000000 1.750530 0.000000 
#    z 0.000000 0.000000 1.742920 
# 
# From -- ./inp_files/63365.got.cif
#   From: 2010.06.25/outbox.cif.g09.slc.cpg/sg71_32_cif.got.tgz:63365.got - 2010.06.28 04:59:45.
