data_PCOD8290519
_publ_section_title
;
Structure prediction by ZEFSAII (Michael W. Deem and Ramdas Pophale) SiO2 
 PCOD8290519
Probable space group: I M M M
;
_chemical_formula_sum "Si O2"
_cell_formula_units_Z 112
_cell_length_a 13.244523
_cell_length_b 17.572641
_cell_length_c 25.651993
_cell_angle_alpha 90.000000
_cell_angle_beta 90.000000
_cell_angle_gamma 90.000000
_cell_volume 5970.276862
_symmetry_space_group_name_H-M "I M M M"
_symmetry_group_IT_number 71
_symmetry_cell_setting 'orthorhombic'
loop_
_space_group_symop_operation_xyz
x,y,z
-x,-y,z
x,-y,-z
-x,y,-z
-x,-y,-z
x,y,-z
-x,y,z
x,-y,z
1/2+x,1/2+y,1/2+z
1/2-x,1/2-y,1/2+z
1/2+x,1/2-y,1/2-z
1/2-x,1/2+y,1/2-z
1/2-x,1/2-y,1/2-z
1/2+x,1/2+y,1/2-z
1/2-x,1/2+y,1/2+z
1/2+x,1/2-y,1/2+z
loop_
_atom_site_type_symbol
_atom_site_label
_atom_site_fract_x
_atom_site_fract_y
_atom_site_fract_z
Si Si1 0.382542 0.088112 0.782662
Si Si2 0.614475 0.198319 0.687820
Si Si3 0.245261 0.826416 0.860739
Si Si4 0.108995 0.415090 0.093231
Si Si5 0.380816 0.414176 0.557627
Si Si6 0.613954 0.739385 0.060488
Si Si7 0.322949 0.418953 0.057990
O O1 0.500000 0.098106 0.798408
O O2 0.353734 0.145735 0.736294
O O3 0.310298 0.110704 0.830389
O O4 0.361365 0.000000 0.767168
O O5 0.500000 0.229670 0.695243
O O6 0.693237 0.267577 0.679830
O O7 0.621679 0.145435 0.638141
O O8 0.158305 0.864398 0.894759
O O9 0.318652 0.789612 0.902736
O O10 0.111383 0.500000 0.117729
O O11 0.202121 0.404136 0.054159
O O12 0.000000 0.402366 0.064809
O O13 0.346452 0.384178 0.500000
O O14 0.500000 0.411709 0.561016
O O15 0.340826 0.500000 0.564482
O O16 0.500000 0.768641 0.064849
O O17 0.621038 0.652888 0.083418
O O18 0.650983 0.742504 0.000000
O O19 0.345761 0.500000 0.087359
O O20 0.364754 0.426762 0.000000
#
# Coordination Sequence:
#
# PCOD8290519 Si02
#       7
#    16  16  16  16  16  16  16
#     4  10  22  39  57  77 103 138 179 219 262 315
#     4  10  20  34  53  79 108 137 169 212 268 321
#     4  12  20  34  56  84 106 135 175 224 264 311
#     4   9  16  28  47  71 100 135 171 207 251 308
#     4   9  19  36  57  82 113 146 176 208 253 313
#     4  10  21  35  50  72 105 142 177 219 269 312
#     4   9  17  30  47  68  96 135 179 215 251 305
#
# _framework density 18.759599999999999
#
# number of rings (size 3 to 8) (size 9 to 14) (size 15 to 20)
#    0.000    2.143    1.429    3.000    0.000    2.286 
#    0.000    2.857    0.000    0.000    0.000    6.000 
#    0.000    0.000    0.000    0.000    0.000    0.000 
#
# Total GULP energy -693790.873038 kJ/mol
# GULP energy per Si atom -12389.122733 kJ/mol
# Density = 1.871690 g / cm^3
# Si number density = 18.759600 Si / 1000 Ang^3
#
#
#
# Elastic Constant Matrix: (Units=GPa)
#
#
# Indices 1 2 3 4 5 6 
#
# 1 68.0266 38.2401 30.3632 0.0000 0.0000 0.0000
# 2 38.2401 89.8708 42.1526 0.0000 0.0000 0.0000
# 3 30.3632 42.1526 72.0319 0.0000 0.0000 0.0000
# 4 0.0000 0.0000 0.0000 25.1892 0.0000 0.0000
# 5 0.0000 0.0000 0.0000 0.0000 29.8931 0.0000
# 6 0.0000 0.0000 0.0000 0.0000 0.0000 27.8060
#
#
#
# Elastic Compliance Matrix: (Units=1/GPa)
#
#
# Indices 1 2 3 4 5 6 
#
# 1 0.020492 -0.006434 -0.004873 0.000000 0.000000 0.000000
# 2 -0.006434 0.017357 -0.007445 0.000000 0.000000 0.000000
# 3 -0.004873 -0.007445 0.020293 0.000000 0.000000 0.000000
# 4 0.000000 0.000000 0.000000 0.039700 0.000000 0.000000
# 5 0.000000 0.000000 0.000000 0.000000 0.033453 0.000000
# 6 0.000000 0.000000 0.000000 0.000000 0.000000 0.035963
#
#
# Mechanical properties :
#
#
# Convention : Reuss Voigt Hill
#
# Bulk Modulus (GPa) = 48.45244 50.16011 49.30627
# Shear Modulus (GPa) = 23.62503 24.52255 24.07379
#
# Velocity S-wave (km/s) = 3.55259 3.61944 3.58617
# Velocity P-wave (km/s) = 6.53544 6.65309 6.59453
#
# Compressibility (1/GPa) = 0.02063880
#
# Stress axis : x y z
#
# Youngs Moduli (GPa) = 48.80026 57.61505 49.27687
#
# Poissons Ratio (x) = 0.37068 0.24012
# Poissons Ratio (y) = 0.31397 0.36687
# Poissons Ratio (z) = 0.23779 0.42894
#
# Static dielectric constant tensor:
#      x y z
#    x 3.514470 0.000000 0.000000 
#    y 0.000000 3.681400 0.000000 
#    z 0.000000 0.000000 3.277960 
# 
# 
# High freq. dielectric constant tensor:
#      x y z
#    x 1.728960 0.000000 0.000000 
#    y 0.000000 1.732730 0.000000 
#    z 0.000000 0.000000 1.703080 
# 
# From -- ./inp_files/34917.got.cif
#   From: 2010.06.25/outbox.cif.g09.slc.cpg/sg71_18_cif.got.tgz:34917.got - 2010.06.28 04:59:45.
