data_PCOD8290696
_publ_section_title
;
Structure prediction by ZEFSAII (Michael W. Deem and Ramdas Pophale) SiO2 
 PCOD8290696
Probable space group: I M M M
;
_chemical_formula_sum "Si O2"
_cell_formula_units_Z 104
_cell_length_a 22.568810
_cell_length_b 27.847342
_cell_length_c 8.825021
_cell_angle_alpha 90.000000
_cell_angle_beta 90.000000
_cell_angle_gamma 90.000000
_cell_volume 5546.361294
_symmetry_space_group_name_H-M "I M M M"
_symmetry_group_IT_number 71
_symmetry_cell_setting 'orthorhombic'
loop_
_space_group_symop_operation_xyz
x,y,z
-x,-y,z
x,-y,-z
-x,y,-z
-x,-y,-z
x,y,-z
-x,y,z
x,-y,z
1/2+x,1/2+y,1/2+z
1/2-x,1/2-y,1/2+z
1/2+x,1/2-y,1/2-z
1/2-x,1/2+y,1/2-z
1/2-x,1/2-y,1/2-z
1/2+x,1/2+y,1/2-z
1/2-x,1/2+y,1/2+z
1/2+x,1/2-y,1/2+z
loop_
_atom_site_type_symbol
_atom_site_label
_atom_site_fract_x
_atom_site_fract_y
_atom_site_fract_z
Si Si1 0.066696 0.052915 0.179619
Si Si2 0.624797 0.649444 0.679034
Si Si3 0.570071 0.094930 0.169581
Si Si4 0.247750 0.802654 0.178666
Si Si5 0.070714 0.500000 0.170681
Si Si6 0.865698 0.320928 0.177885
Si Si7 0.432086 0.264380 0.175108
O O1 0.112408 0.094542 0.233089
O O2 0.000000 0.063910 0.239076
O O3 0.087312 0.000000 0.239410
O O4 0.065519 0.051916 0.000000
O O5 0.615002 0.655071 0.500000
O O6 0.690263 0.666707 0.727681
O O7 0.576680 0.681703 0.766124
O O8 0.500000 0.092216 0.163923
O O9 0.595910 0.046365 0.242358
O O10 0.587246 0.139271 0.274240
O O11 0.595806 0.101150 0.000000
O O12 0.250000 0.750000 0.250000
O O13 0.303837 0.832383 0.239604
O O14 0.250851 0.796680 0.000000
O O15 0.000000 0.500000 0.169761
O O16 0.095497 0.500000 0.000000
O O17 0.889695 0.269023 0.225473
O O18 0.855689 0.321338 0.000000
O O19 0.500000 0.248905 0.197778
O O20 0.413590 0.259753 0.000000
#
# Coordination Sequence:
#
# PCOD8290696 Si02
#       7
#    16  16  16  16   8  16  16
#     4   8  14  27  51  84 117 143 171 217 274 327
#     4  10  20  34  56  82 107 142 186 226 268 325
#     4  10  20  35  56  82 112 144 179 225 280 333
#     4  11  22  37  56  78 106 143 186 230 273 323
#     4   9  17  31  53  81 111 143 179 217 262 325
#     4  12  24  37  55  78 105 144 186 229 278 328
#     4  11  23  36  52  78 112 145 175 218 276 332
#
# _framework density 18.751033
#
# number of rings (size 3 to 8) (size 9 to 14) (size 15 to 20)
#    0.000    1.769    1.538    4.385    0.000    6.154 
#    0.000    0.000    1.692    0.462    0.000    2.154 
#    0.000    0.000    0.000    0.000    0.000    0.000 
#
# Total GULP energy -644802.064968 kJ/mol
# GULP energy per Si atom -12400.039711 kJ/mol
# Density = 1.870835 g / cm^3
# Si number density = 18.751033 Si / 1000 Ang^3
#
#
#
# Elastic Constant Matrix: (Units=GPa)
#
#
# Indices 1 2 3 4 5 6 
#
# 1 76.4508 45.8586 35.7252 0.0000 0.0000 0.0000
# 2 45.8586 141.3811 35.9908 0.0000 0.0000 0.0000
# 3 35.7252 35.9908 81.2638 0.0000 0.0000 0.0000
# 4 0.0000 0.0000 0.0000 27.8091 0.0000 0.0000
# 5 0.0000 0.0000 0.0000 0.0000 23.8164 0.0000
# 6 0.0000 0.0000 0.0000 0.0000 0.0000 23.3083
#
#
#
# Elastic Compliance Matrix: (Units=1/GPa)
#
#
# Indices 1 2 3 4 5 6 
#
# 1 0.018673 -0.004471 -0.006229 0.000000 0.000000 0.000000
# 2 -0.004471 0.009042 -0.002039 0.000000 0.000000 0.000000
# 3 -0.006229 -0.002039 0.015947 0.000000 0.000000 0.000000
# 4 0.000000 0.000000 0.000000 0.035959 0.000000 0.000000
# 5 0.000000 0.000000 0.000000 0.000000 0.041988 0.000000
# 6 0.000000 0.000000 0.000000 0.000000 0.000000 0.042903
#
#
# Mechanical properties :
#
#
# Convention : Reuss Voigt Hill
#
# Bulk Modulus (GPa) = 54.99278 59.36054 57.17666
# Shear Modulus (GPa) = 25.50334 27.08817 26.29575
#
# Velocity S-wave (km/s) = 3.69196 3.80494 3.74888
# Velocity P-wave (km/s) = 6.89678 7.14349 7.02122
#
# Compressibility (1/GPa) = 0.01818420
#
# Stress axis : x y z
#
# Youngs Moduli (GPa) = 53.55320 110.58937 62.70756
#
# Poissons Ratio (x) = 0.49446 0.39059
# Poissons Ratio (y) = 0.23945 0.12787
# Poissons Ratio (z) = 0.33357 0.22551
#
# Static dielectric constant tensor:
#      x y z
#    x 3.450100 0.000000 0.000000 
#    y 0.000000 3.689120 0.000000 
#    z 0.000000 0.000000 3.405700 
# 
# 
# High freq. dielectric constant tensor:
#      x y z
#    x 1.709530 0.000000 0.000000 
#    y 0.000000 1.732010 0.000000 
#    z 0.000000 0.000000 1.722860 
# 
# From -- ./inp_files/11516.got.cif
#   From: 2010.06.25/outbox.cif.g09.slc.cpg/sg71_6_cif.got.tgz:11516.got - 2010.06.28 04:59:45.
