data_PCOD8290621
_publ_section_title
;
Structure prediction by ZEFSAII (Michael W. Deem and Ramdas Pophale) SiO2 
 PCOD8290621
Probable space group: I M M M
;
_chemical_formula_sum "Si O2"
_cell_formula_units_Z 88
_cell_length_a 18.960188
_cell_length_b 8.783816
_cell_length_c 27.266678
_cell_angle_alpha 90.000000
_cell_angle_beta 90.000000
_cell_angle_gamma 90.000000
_cell_volume 4541.068975
_symmetry_space_group_name_H-M "I M M M"
_symmetry_group_IT_number 71
_symmetry_cell_setting 'orthorhombic'
loop_
_space_group_symop_operation_xyz
x,y,z
-x,-y,z
x,-y,-z
-x,y,-z
-x,-y,-z
x,y,-z
-x,y,z
x,-y,z
1/2+x,1/2+y,1/2+z
1/2-x,1/2-y,1/2+z
1/2+x,1/2-y,1/2-z
1/2-x,1/2+y,1/2-z
1/2-x,1/2-y,1/2-z
1/2+x,1/2+y,1/2-z
1/2-x,1/2+y,1/2+z
1/2+x,1/2-y,1/2+z
loop_
_atom_site_type_symbol
_atom_site_label
_atom_site_fract_x
_atom_site_fract_y
_atom_site_fract_z
Si Si1 0.583660 0.171063 0.218465
Si Si2 0.578668 0.180958 0.500000
Si Si3 0.582478 0.322580 0.318293
Si Si4 0.802898 0.320711 0.556247
Si Si5 0.418273 0.678546 0.118743
Si Si6 0.335259 0.819919 0.593401
O O1 0.500000 0.168772 0.216965
O O2 0.608843 0.270283 0.264756
O O3 0.611885 0.248066 0.168810
O O4 0.614038 0.000000 0.222634
O O5 0.500000 0.249743 0.500000
O O6 0.618321 0.241651 0.548069
O O7 0.575852 0.000000 0.500000
O O8 0.500000 0.285878 0.325733
O O9 0.598344 0.500000 0.324794
O O10 0.626529 0.226349 0.356938
O O11 0.789029 0.273428 0.500000
O O12 0.807770 0.500000 0.562667
O O13 0.876504 0.247391 0.572890
O O14 0.741117 0.256426 0.590547
O O15 0.500000 0.719014 0.110621
O O16 0.405809 0.500000 0.122113
O O17 0.325988 0.000000 0.591502
#
# Coordination Sequence:
#
# PCOD8290621 Si02
#       6
#    16   8  16  16  16  16
#     4   9  17  32  56  85 116 150 188 231 282 338
#     4   9  18  32  53  81 110 143 188 239 283 328
#     4  10  20  34  54  83 119 156 194 237 284 335
#     4  11  24  41  60  82 114 153 191 234 288 346
#     4  10  21  38  62  90 117 146 185 233 284 342
#     4  11  21  36  57  81 113 152 195 240 287 339
#
# _framework density 19.378696999999999
#
# number of rings (size 3 to 8) (size 9 to 14) (size 15 to 20)
#    0.000    1.909    0.909    3.273    0.000    6.545 
#    0.000    2.727    0.000    2.182    0.000    0.000 
#    0.000    0.000    0.000    0.000    0.000    0.000 
#
# Total GULP energy -545781.091432 kJ/mol
# GULP energy per Si atom -12404.115714 kJ/mol
# Density = 1.933459 g / cm^3
# Si number density = 19.378697 Si / 1000 Ang^3
#
#
#
# Elastic Constant Matrix: (Units=GPa)
#
#
# Indices 1 2 3 4 5 6 
#
# 1 80.0645 35.0378 37.9164 0.0000 0.0000 0.0000
# 2 35.0378 74.3238 22.8893 0.0000 0.0000 0.0000
# 3 37.9164 22.8893 71.3687 0.0000 0.0000 0.0000
# 4 0.0000 0.0000 0.0000 34.3518 0.0000 0.0000
# 5 0.0000 0.0000 0.0000 0.0000 13.7599 0.0000
# 6 0.0000 0.0000 0.0000 0.0000 0.0000 29.5224
#
#
#
# Elastic Compliance Matrix: (Units=1/GPa)
#
#
# Indices 1 2 3 4 5 6 
#
# 1 0.019191 -0.006555 -0.008094 0.000000 0.000000 0.000000
# 2 -0.006555 0.017168 -0.002024 0.000000 0.000000 0.000000
# 3 -0.008094 -0.002024 0.018961 0.000000 0.000000 0.000000
# 4 0.000000 0.000000 0.000000 0.029111 0.000000 0.000000
# 5 0.000000 0.000000 0.000000 0.000000 0.072675 0.000000
# 6 0.000000 0.000000 0.000000 0.000000 0.000000 0.033873
#
#
# Mechanical properties :
#
#
# Convention : Reuss Voigt Hill
#
# Bulk Modulus (GPa) = 45.50448 46.38268 45.94358
# Shear Modulus (GPa) = 21.58450 24.18770 22.88610
#
# Velocity S-wave (km/s) = 3.34102 3.53676 3.44029
# Velocity P-wave (km/s) = 6.19806 6.37692 6.28812
#
# Compressibility (1/GPa) = 0.02197586
#
# Stress axis : x y z
#
# Youngs Moduli (GPa) = 52.10691 58.24832 52.74041
#
# Poissons Ratio (x) = 0.38179 0.42686
# Poissons Ratio (y) = 0.34154 0.10673
# Poissons Ratio (z) = 0.42174 0.11788
#
# Static dielectric constant tensor:
#      x y z
#    x 3.370840 0.000000 0.000000 
#    y 0.000000 3.535100 0.000000 
#    z 0.000000 0.000000 3.671480 
# 
# 
# High freq. dielectric constant tensor:
#      x y z
#    x 1.735390 0.000000 0.000000 
#    y 0.000000 1.760880 0.000000 
#    z 0.000000 0.000000 1.762530 
# 
# From -- ./inp_files/10506.got.cif
#   From: 2010.06.25/outbox.cif.g09.slc.cpg/sg71_6_cif.got.tgz:10506.got - 2010.06.28 04:59:45.
