data_PCOD8290306
_publ_section_title
;
Structure prediction by ZEFSAII (Michael W. Deem and Ramdas Pophale) SiO2 
 PCOD8290306
Probable space group: I M M M
;
_chemical_formula_sum "Si O2"
_cell_formula_units_Z 80
_cell_length_a 23.197665
_cell_length_b 7.852874
_cell_length_c 21.339909
_cell_angle_alpha 90.000000
_cell_angle_beta 90.000000
_cell_angle_gamma 90.000000
_cell_volume 3887.455806
_symmetry_space_group_name_H-M "I M M M"
_symmetry_group_IT_number 71
_symmetry_cell_setting 'orthorhombic'
loop_
_space_group_symop_operation_xyz
x,y,z
-x,-y,z
x,-y,-z
-x,y,-z
-x,-y,-z
x,y,-z
-x,y,z
x,-y,z
1/2+x,1/2+y,1/2+z
1/2-x,1/2-y,1/2+z
1/2+x,1/2-y,1/2-z
1/2-x,1/2+y,1/2-z
1/2-x,1/2-y,1/2-z
1/2+x,1/2+y,1/2-z
1/2-x,1/2+y,1/2+z
1/2+x,1/2-y,1/2+z
loop_
_atom_site_type_symbol
_atom_site_label
_atom_site_fract_x
_atom_site_fract_y
_atom_site_fract_z
Si Si1 0.934200 0.703297 0.500000
Si Si2 0.355749 0.809718 0.888588
Si Si3 0.067712 0.000000 0.928634
Si Si4 0.741834 0.808968 0.569227
Si Si5 0.683303 0.307502 0.243653
Si Si6 0.129058 0.694935 0.861834
O O1 0.929290 0.500000 0.500000
O O2 0.903417 0.771904 0.563906
O O3 0.000000 0.767594 0.500000
O O4 0.295800 0.816598 0.926342
O O5 0.343377 0.703546 0.825908
O O6 0.374483 0.000000 0.869799
O O7 0.084114 0.171605 0.890724
O O8 0.000000 0.000000 0.932933
O O9 0.093337 0.000000 0.000000
O O10 0.715689 0.804516 0.500000
O O11 0.691526 0.747068 0.614105
O O12 0.761961 0.000000 0.587731
O O13 0.681485 0.500000 0.266355
O O14 0.750000 0.250000 0.250000
O O15 0.637753 0.204393 0.286882
O O16 0.112261 0.500000 0.880930
#
# Coordination Sequence:
#
# PCOD8290306 Si02
#       6
#     8  16   8  16  16  16
#     4   9  20  40  61  85 123 167 217 272 319 381
#     4  11  21  34  57  90 120 162 215 264 327 390
#     4  11  26  48  72 100 132 173 223 277 329 391
#     4  10  20  33  53  86 127 162 199 256 328 394
#     4  12  23  38  59  92 135 174 215 267 334 405
#     4  11  23  42  65  97 134 174 218 269 333 401
#
# _framework density 20.57901
#
# number of rings (size 3 to 8) (size 9 to 14) (size 15 to 20)
#    0.000    1.200    4.000    3.000    1.400    1.600 
#    0.000    2.000    0.000    6.600    0.000    0.000 
#    0.000    0.000    0.000    0.000    0.000    0.000 
#
# Total GULP energy -495739.361017 kJ/mol
# GULP energy per Si atom -12393.484025 kJ/mol
# Density = 2.053217 g / cm^3
# Si number density = 20.579010 Si / 1000 Ang^3
#
#
#
# Elastic Constant Matrix: (Units=GPa)
#
#
# Indices 1 2 3 4 5 6 
#
# 1 94.5982 25.6971 50.0448 0.0000 0.0000 0.0000
# 2 25.6971 91.8683 20.9134 0.0000 0.0000 0.0000
# 3 50.0448 20.9134 133.6259 0.0000 0.0000 0.0000
# 4 0.0000 0.0000 0.0000 27.9584 0.0000 0.0000
# 5 0.0000 0.0000 0.0000 0.0000 23.9184 0.0000
# 6 0.0000 0.0000 0.0000 0.0000 0.0000 21.1529
#
#
#
# Elastic Compliance Matrix: (Units=1/GPa)
#
#
# Indices 1 2 3 4 5 6 
#
# 1 0.013840 -0.002791 -0.004747 0.000000 0.000000 0.000000
# 2 -0.002791 0.011850 -0.000809 0.000000 0.000000 0.000000
# 3 -0.004747 -0.000809 0.009388 0.000000 0.000000 0.000000
# 4 0.000000 0.000000 0.000000 0.035767 0.000000 0.000000
# 5 0.000000 0.000000 0.000000 0.000000 0.041809 0.000000
# 6 0.000000 0.000000 0.000000 0.000000 0.000000 0.047275
#
#
# Mechanical properties :
#
#
# Convention : Reuss Voigt Hill
#
# Bulk Modulus (GPa) = 54.39343 57.04478 55.71910
# Shear Modulus (GPa) = 27.35964 29.50175 28.43069
#
# Velocity S-wave (km/s) = 3.65018 3.79038 3.72094
# Velocity P-wave (km/s) = 6.65236 6.85099 6.75241
#
# Compressibility (1/GPa) = 0.01838457
#
# Stress axis : x y z
#
# Youngs Moduli (GPa) = 72.25334 84.38789 106.51985
#
# Poissons Ratio (x) = 0.23551 0.50560
# Poissons Ratio (y) = 0.20164 0.08622
# Poissons Ratio (z) = 0.34296 0.06831
#
# Static dielectric constant tensor:
#      x y z
#    x 3.477410 0.000000 0.000000 
#    y 0.000000 3.708210 0.000000 
#    z 0.000000 0.000000 4.063250 
# 
# 
# High freq. dielectric constant tensor:
#      x y z
#    x 1.766850 0.000000 0.000000 
#    y 0.000000 1.803010 0.000000 
#    z 0.000000 0.000000 1.823070 
# 
# From -- ./inp_files/55458.got.cif
#   From: 2010.06.25/outbox.cif.g09.slc.cpg/sg71_28_cif.got.tgz:55458.got - 2010.06.28 04:59:45.
