data_PCOD8290943
_publ_section_title
;
Structure prediction by ZEFSAII (Michael W. Deem and Ramdas Pophale) SiO2 
 PCOD8290943
Probable space group: I M M M
;
_chemical_formula_sum "Si O2"
_cell_formula_units_Z 104
_cell_length_a 21.570435
_cell_length_b 9.197409
_cell_length_c 27.223147
_cell_angle_alpha 90.000000
_cell_angle_beta 90.000000
_cell_angle_gamma 90.000000
_cell_volume 5400.857656
_symmetry_space_group_name_H-M "I M M M"
_symmetry_group_IT_number 71
_symmetry_cell_setting 'orthorhombic'
loop_
_space_group_symop_operation_xyz
x,y,z
-x,-y,z
x,-y,-z
-x,y,-z
-x,-y,-z
x,y,-z
-x,y,z
x,-y,z
1/2+x,1/2+y,1/2+z
1/2-x,1/2-y,1/2+z
1/2+x,1/2-y,1/2-z
1/2-x,1/2+y,1/2-z
1/2-x,1/2-y,1/2-z
1/2+x,1/2+y,1/2-z
1/2-x,1/2+y,1/2+z
1/2+x,1/2-y,1/2+z
loop_
_atom_site_type_symbol
_atom_site_label
_atom_site_fract_x
_atom_site_fract_y
_atom_site_fract_z
Si Si1 0.899130 0.671976 0.388400
Si Si2 0.808970 0.170904 0.774279
Si Si3 0.072635 0.335281 0.054743
Si Si4 0.000000 0.160544 0.557023
Si Si5 0.219965 0.671792 0.554473
Si Si6 0.834576 0.828319 0.115987
Si Si7 0.070996 0.832003 0.711018
O O1 0.909739 0.500000 0.388385
O O2 0.830501 0.717623 0.405035
O O3 0.915821 0.731562 0.335320
O O4 0.940864 0.746367 0.429042
O O5 0.750000 0.250000 0.750000
O O6 0.814528 0.226170 0.830180
O O7 0.875936 0.209039 0.750380
O O8 0.795236 0.000000 0.771126
O O9 0.096254 0.500000 0.060158
O O10 0.101136 0.239274 0.098230
O O11 0.000000 0.327026 0.062591
O O12 0.089897 0.276877 0.000000
O O13 0.000000 0.136774 0.500000
O O14 0.000000 0.000000 0.582625
O O15 0.209102 0.740371 0.500000
O O16 0.219715 0.500000 0.549253
O O17 0.284750 0.726608 0.576130
O O18 0.842205 0.000000 0.117136
O O19 0.000000 0.802473 0.730282
O O20 0.077462 0.000000 0.695655
#
# Coordination Sequence:
#
# PCOD8290943 Si02
#       7
#    16  16  16   8  16  16  16
#     4  11  21  35  57  82 108 143 191 239 280 326
#     4  10  22  39  59  85 115 151 193 240 294 347
#     4   9  19  36  56  80 114 152 186 225 280 343
#     4  11  23  37  53  77 113 151 185 225 276 333
#     4   9  18  32  51  78 112 145 177 224 283 332
#     4  10  20  35  57  84 112 144 187 235 282 335
#     4  10  21  38  58  79 111 152 190 234 295 355
#
# _framework density 19.2562
#
# number of rings (size 3 to 8) (size 9 to 14) (size 15 to 20)
#    0.000    2.077    0.769    3.000    0.000    5.538 
#    0.000    3.846    0.000    3.692    0.000    0.000 
#    0.000    0.000    0.000    0.000    0.000    0.000 
#
# Total GULP energy -644573.185219 kJ/mol
# GULP energy per Si atom -12395.638177 kJ/mol
# Density = 1.921237 g / cm^3
# Si number density = 19.256200 Si / 1000 Ang^3
#
#
#
# Elastic Constant Matrix: (Units=GPa)
#
#
# Indices 1 2 3 4 5 6 
#
# 1 117.3037 41.3576 61.8509 0.0000 0.0000 0.0000
# 2 41.3576 61.6820 41.0970 0.0000 0.0000 0.0000
# 3 61.8509 41.0970 118.3067 0.0000 0.0000 0.0000
# 4 0.0000 0.0000 0.0000 20.2532 0.0000 0.0000
# 5 0.0000 0.0000 0.0000 0.0000 25.6414 0.0000
# 6 0.0000 0.0000 0.0000 0.0000 0.0000 31.7810
#
#
#
# Elastic Compliance Matrix: (Units=1/GPa)
#
#
# Indices 1 2 3 4 5 6 
#
# 1 0.013048 -0.005470 -0.004922 0.000000 0.000000 0.000000
# 2 -0.005470 0.023387 -0.005265 0.000000 0.000000 0.000000
# 3 -0.004922 -0.005265 0.012854 0.000000 0.000000 0.000000
# 4 0.000000 0.000000 0.000000 0.049375 0.000000 0.000000
# 5 0.000000 0.000000 0.000000 0.000000 0.038999 0.000000
# 6 0.000000 0.000000 0.000000 0.000000 0.000000 0.031465
#
#
# Mechanical properties :
#
#
# Convention : Reuss Voigt Hill
#
# Bulk Modulus (GPa) = 55.62314 65.10035 60.36175
# Shear Modulus (GPa) = 24.22074 25.73424 24.97749
#
# Velocity S-wave (km/s) = 3.55042 3.65966 3.60545
# Velocity P-wave (km/s) = 6.76430 7.19294 6.98191
#
# Compressibility (1/GPa) = 0.01797813
#
# Stress axis : x y z
#
# Youngs Moduli (GPa) = 76.63788 42.75825 77.79408
#
# Poissons Ratio (x) = 0.23388 0.38287
# Poissons Ratio (y) = 0.41919 0.40956
# Poissons Ratio (z) = 0.37718 0.22511
#
# Static dielectric constant tensor:
#      x y z
#    x 4.077010 0.000000 0.000000 
#    y 0.000000 3.390600 0.000000 
#    z 0.000000 0.000000 3.637620 
# 
# 
# High freq. dielectric constant tensor:
#      x y z
#    x 1.761990 0.000000 0.000000 
#    y 0.000000 1.730610 0.000000 
#    z 0.000000 0.000000 1.753400 
# 
# From -- ./inp_files/66463.got.cif
#   From: 2010.06.25/outbox.cif.g09.slc.cpg/sg71_34_cif.got.tgz:66463.got - 2010.06.28 04:59:45.
