data_PCOD8290956
_publ_section_title
;
Structure prediction by ZEFSAII (Michael W. Deem and Ramdas Pophale) SiO2 
 PCOD8290956
Probable space group: I M M M
;
_chemical_formula_sum "Si O2"
_cell_formula_units_Z 88
_cell_length_a 20.315008
_cell_length_b 8.867178
_cell_length_c 25.442304
_cell_angle_alpha 90.000000
_cell_angle_beta 90.000000
_cell_angle_gamma 90.000000
_cell_volume 4583.095024
_symmetry_space_group_name_H-M "I M M M"
_symmetry_group_IT_number 71
_symmetry_cell_setting 'orthorhombic'
loop_
_space_group_symop_operation_xyz
x,y,z
-x,-y,z
x,-y,-z
-x,y,-z
-x,-y,-z
x,y,-z
-x,y,z
x,-y,z
1/2+x,1/2+y,1/2+z
1/2-x,1/2-y,1/2+z
1/2+x,1/2-y,1/2-z
1/2-x,1/2+y,1/2-z
1/2-x,1/2-y,1/2-z
1/2+x,1/2+y,1/2-z
1/2-x,1/2+y,1/2+z
1/2+x,1/2-y,1/2+z
loop_
_atom_site_type_symbol
_atom_site_label
_atom_site_fract_x
_atom_site_fract_y
_atom_site_fract_z
Si Si1 0.629652 0.320993 0.500000
Si Si2 0.663693 0.828892 0.701902
Si Si3 0.500000 0.677969 0.058951
Si Si4 0.369179 0.823856 0.906251
Si Si5 0.181440 0.170003 0.306926
Si Si6 0.277983 0.821196 0.000000
Si Si7 0.424166 0.824948 0.395801
O O1 0.629595 0.500000 0.500000
O O2 0.704135 0.255292 0.500000
O O3 0.592307 0.265933 0.448275
O O4 0.740370 0.822838 0.689371
O O5 0.651002 0.719701 0.751133
O O6 0.621629 0.768327 0.652320
O O7 0.642024 0.000000 0.715613
O O8 0.500000 0.500000 0.059243
O O9 0.563222 0.736406 0.088894
O O10 0.500000 0.743157 0.000000
O O11 0.343232 0.790739 0.848605
O O12 0.381682 0.000000 0.914158
O O13 0.316561 0.762230 0.948692
O O14 0.156975 0.000000 0.318683
O O15 0.274591 0.000000 0.000000
O O16 0.500000 0.795896 0.380410
O O17 0.410590 0.000000 0.407306
#
# Coordination Sequence:
#
# PCOD8290956 Si02
#       7
#     8  16   8  16  16   8  16
#     4  11  22  36  56  85 116 146 181 226 279 332
#     4   9  19  37  59  82 110 148 191 233 283 340
#     4  11  23  39  57  81 115 149 185 232 285 334
#     4  11  21  37  59  82 111 150 192 229 275 339
#     4  10  20  35  57  85 114 144 184 238 291 333
#     4   9  20  35  55  83 113 144 185 232 273 323
#     4  10  21  38  58  80 110 147 187 230 273 329
#
# _framework density 19.200997999999998
#
# number of rings (size 3 to 8) (size 9 to 14) (size 15 to 20)
#    0.000    1.909    0.909    3.000    0.000    3.273 
#    1.636    2.727    0.000    0.000    0.000    0.000 
#    0.000    0.000    0.000    0.000    0.000    0.000 
#
# Total GULP energy -545710.609564 kJ/mol
# GULP energy per Si atom -12402.513854 kJ/mol
# Density = 1.915730 g / cm^3
# Si number density = 19.200998 Si / 1000 Ang^3
#
#
#
# Elastic Constant Matrix: (Units=GPa)
#
#
# Indices 1 2 3 4 5 6 
#
# 1 81.9412 26.9116 52.1026 0.0000 0.0000 0.0000
# 2 26.9116 61.1590 36.3762 0.0000 0.0000 0.0000
# 3 52.1026 36.3762 139.1423 0.0000 0.0000 0.0000
# 4 0.0000 0.0000 0.0000 19.1642 0.0000 0.0000
# 5 0.0000 0.0000 0.0000 0.0000 7.2807 0.0000
# 6 0.0000 0.0000 0.0000 0.0000 0.0000 19.4778
#
#
#
# Elastic Compliance Matrix: (Units=1/GPa)
#
#
# Indices 1 2 3 4 5 6 
#
# 1 0.016946 -0.004361 -0.005206 0.000000 0.000000 0.000000
# 2 -0.004361 0.020483 -0.003722 0.000000 0.000000 0.000000
# 3 -0.005206 -0.003722 0.010109 0.000000 0.000000 0.000000
# 4 0.000000 0.000000 0.000000 0.052181 0.000000 0.000000
# 5 0.000000 0.000000 0.000000 0.000000 0.137350 0.000000
# 6 0.000000 0.000000 0.000000 0.000000 0.000000 0.051341
#
#
# Mechanical properties :
#
#
# Convention : Reuss Voigt Hill
#
# Bulk Modulus (GPa) = 47.70508 57.00260 52.35384
# Shear Modulus (GPa) = 15.52924 20.30801 17.91862
#
# Velocity S-wave (km/s) = 2.84698 3.25569 3.05817
# Velocity P-wave (km/s) = 5.97546 6.62453 6.30835
#
# Compressibility (1/GPa) = 0.02096213
#
# Stress axis : x y z
#
# Youngs Moduli (GPa) = 59.01121 48.81984 98.91953
#
# Poissons Ratio (x) = 0.21288 0.51493
# Poissons Ratio (y) = 0.25732 0.36820
# Poissons Ratio (z) = 0.30718 0.18172
#
# Static dielectric constant tensor:
#      x y z
#    x 3.588160 0.000000 0.000000 
#    y 0.000000 3.448900 0.000000 
#    z 0.000000 0.000000 3.536110 
# 
# 
# High freq. dielectric constant tensor:
#      x y z
#    x 1.747200 0.000000 0.000000 
#    y 0.000000 1.741300 0.000000 
#    z 0.000000 0.000000 1.753440 
# 
# From -- ./inp_files/61165.got.cif
#   From: 2010.06.25/outbox.cif.g09.slc.cpg/sg71_31_cif.got.tgz:61165.got - 2010.06.28 04:59:45.
