data_PCOD8290145
_publ_section_title
;
Structure prediction by ZEFSAII (Michael W. Deem and Ramdas Pophale) SiO2 
 PCOD8290145
Probable space group: I M M M
;
_chemical_formula_sum "Si O2"
_cell_formula_units_Z 80
_cell_length_a 28.800522
_cell_length_b 14.785233
_cell_length_c 9.501027
_cell_angle_alpha 90.000000
_cell_angle_beta 90.000000
_cell_angle_gamma 90.000000
_cell_volume 4045.750388
_symmetry_space_group_name_H-M "I M M M"
_symmetry_group_IT_number 71
_symmetry_cell_setting 'orthorhombic'
loop_
_space_group_symop_operation_xyz
x,y,z
-x,-y,z
x,-y,-z
-x,y,-z
-x,-y,-z
x,y,-z
-x,y,z
x,-y,z
1/2+x,1/2+y,1/2+z
1/2-x,1/2-y,1/2+z
1/2+x,1/2-y,1/2-z
1/2-x,1/2+y,1/2-z
1/2-x,1/2-y,1/2-z
1/2+x,1/2+y,1/2-z
1/2-x,1/2+y,1/2+z
1/2+x,1/2-y,1/2+z
loop_
_atom_site_type_symbol
_atom_site_label
_atom_site_fract_x
_atom_site_fract_y
_atom_site_fract_z
Si Si1 0.186219 0.602347 0.160835
Si Si2 0.724644 0.604191 0.662925
Si Si3 0.136761 0.216813 0.162013
Si Si4 0.552805 0.265539 0.835179
Si Si5 0.446067 0.098054 0.346560
O O1 0.170110 0.500000 0.200233
O O2 0.229693 0.633567 0.253423
O O3 0.144194 0.674045 0.185453
O O4 0.202902 0.607409 0.000000
O O5 0.734738 0.623454 0.500000
O O6 0.712100 0.500000 0.691088
O O7 0.681897 0.664381 0.717927
O O8 0.092087 0.179035 0.249371
O O9 0.128080 0.192094 0.000000
O O10 0.500000 0.297462 0.798600
O O11 0.562138 0.163486 0.784765
O O12 0.562127 0.273309 0.000000
O O13 0.426868 0.135159 0.500000
O O14 0.500000 0.083939 0.365577
O O15 0.422832 0.000000 0.315647
#
# Coordination Sequence:
#
# PCOD8290145 Si02
#       5
#    16  16  16  16  16
#     4   9  18  32  50  75 106 135 163 196 236 290
#     4   9  18  33  53  77 103 129 161 204 252 301
#     4  10  20  33  51  74 100 133 170 206 247 299
#     4  10  21  34  47  67  96 129 168 215 260 299
#     4   8  14  26  44  63  84 116 158 199 240 289
#
# _framework density 19.773834000000001
#
# number of rings (size 3 to 8) (size 9 to 14) (size 15 to 20)
#    0.000    2.800    0.000    1.800    0.000    4.000 
#    0.000    4.000    0.000    0.600    0.000    4.200 
#    0.000    0.000    0.000    0.000    0.000    0.000 
#
# Total GULP energy -495606.786971 kJ/mol
# GULP energy per Si atom -12390.169674 kJ/mol
# Density = 1.972883 g / cm^3
# Si number density = 19.773834 Si / 1000 Ang^3
#
#
#
# Elastic Constant Matrix: (Units=GPa)
#
#
# Indices 1 2 3 4 5 6 
#
# 1 135.5073 16.7756 65.8675 0.0000 0.0000 0.0000
# 2 16.7756 30.4975 12.1261 0.0000 0.0000 0.0000
# 3 65.8675 12.1261 79.8669 0.0000 0.0000 0.0000
# 4 0.0000 0.0000 0.0000 17.8111 0.0000 0.0000
# 5 0.0000 0.0000 0.0000 0.0000 36.7370 0.0000
# 6 0.0000 0.0000 0.0000 0.0000 0.0000 11.6606
#
#
#
# Elastic Compliance Matrix: (Units=1/GPa)
#
#
# Indices 1 2 3 4 5 6 
#
# 1 0.012565 -0.002971 -0.009912 0.000000 0.000000 0.000000
# 2 -0.002971 0.035599 -0.002955 0.000000 0.000000 0.000000
# 3 -0.009912 -0.002955 0.021144 0.000000 0.000000 0.000000
# 4 0.000000 0.000000 0.000000 0.056145 0.000000 0.000000
# 5 0.000000 0.000000 0.000000 0.000000 0.027220 0.000000
# 6 0.000000 0.000000 0.000000 0.000000 0.000000 0.085759
#
#
# Mechanical properties :
#
#
# Convention : Reuss Voigt Hill
#
# Bulk Modulus (GPa) = 26.57244 48.37889 37.47566
# Shear Modulus (GPa) = 17.68963 23.31524 20.50244
#
# Velocity S-wave (km/s) = 2.99423 3.43752 3.22350
# Velocity P-wave (km/s) = 5.04195 6.34623 5.73131
#
# Compressibility (1/GPa) = 0.03763298
#
# Stress axis : x y z
#
# Youngs Moduli (GPa) = 79.58364 28.09104 47.29500
#
# Poissons Ratio (x) = 0.08345 0.46878
# Poissons Ratio (y) = 0.23642 0.13975
# Poissons Ratio (z) = 0.78882 0.08300
#
# Static dielectric constant tensor:
#      x y z
#    x 3.821270 0.000000 0.000000 
#    y 0.000000 3.492650 0.000000 
#    z 0.000000 0.000000 3.483580 
# 
# 
# High freq. dielectric constant tensor:
#      x y z
#    x 1.787300 0.000000 0.000000 
#    y 0.000000 1.736800 0.000000 
#    z 0.000000 0.000000 1.757870 
# 
# From -- ./inp_files/14543.got.cif
#   From: 2010.06.25/outbox.cif.g09.slc.cpg/sg71_8_cif.got.tgz:14543.got - 2010.06.28 04:59:45.
