data_PCOD8290794
_publ_section_title
;
Structure prediction by ZEFSAII (Michael W. Deem and Ramdas Pophale) SiO2 
 PCOD8290794
Probable space group: I M M M
;
_chemical_formula_sum "Si O2"
_cell_formula_units_Z 88
_cell_length_a 12.877783
_cell_length_b 13.927555
_cell_length_c 25.398633
_cell_angle_alpha 90.000000
_cell_angle_beta 90.000000
_cell_angle_gamma 90.000000
_cell_volume 4555.398008
_symmetry_space_group_name_H-M "I M M M"
_symmetry_group_IT_number 71
_symmetry_cell_setting 'orthorhombic'
loop_
_space_group_symop_operation_xyz
x,y,z
-x,-y,z
x,-y,-z
-x,y,-z
-x,-y,-z
x,y,-z
-x,y,z
x,-y,z
1/2+x,1/2+y,1/2+z
1/2-x,1/2-y,1/2+z
1/2+x,1/2-y,1/2-z
1/2-x,1/2+y,1/2-z
1/2-x,1/2-y,1/2-z
1/2+x,1/2+y,1/2-z
1/2-x,1/2+y,1/2+z
1/2+x,1/2-y,1/2+z
loop_
_atom_site_type_symbol
_atom_site_label
_atom_site_fract_x
_atom_site_fract_y
_atom_site_fract_z
Si Si1 0.740950 0.387897 0.651586
Si Si2 0.773440 0.113996 0.560865
Si Si3 0.883309 0.388062 0.750178
Si Si4 0.880025 0.290694 0.142359
Si Si5 0.614550 0.886285 0.058047
Si Si6 0.000000 0.894408 0.437949
O O1 0.710928 0.500000 0.648909
O O2 0.806564 0.361691 0.703089
O O3 0.637326 0.323898 0.649396
O O4 0.806290 0.350466 0.601683
O O5 0.749505 0.137328 0.500000
O O6 0.686337 0.165064 0.595303
O O7 0.889231 0.155966 0.577047
O O8 0.770831 0.000000 0.570609
O O9 0.882281 0.500000 0.761279
O O10 0.843886 0.338262 0.803146
O O11 0.000000 0.354006 0.735192
O O12 0.000000 0.310809 0.130004
O O13 0.500000 0.841032 0.067327
O O14 0.604445 0.000000 0.062358
O O15 0.655393 0.856087 0.000000
O O16 0.000000 0.908561 0.500000
O O17 0.000000 0.000000 0.411486
#
# Coordination Sequence:
#
# PCOD8290794 Si02
#       6
#    16  16  16  16  16   8
#     4  10  20  35  55  75 103 145 186 223 268 323
#     4   9  18  35  59  84 112 145 180 223 277 329
#     4   9  18  35  59  82 103 131 173 229 287 334
#     4  11  23  36  52  78 112 147 186 228 265 316
#     4   8  14  27  49  76 102 126 161 216 274 320
#     4   7  12  28  54  80 107 139 171 209 265 329
#
# _framework density 19.317741000000002
#
# number of rings (size 3 to 8) (size 9 to 14) (size 15 to 20)
#    0.000    2.818    0.000    3.273    0.000    4.727 
#    3.273    0.909    2.000    0.000    0.000    3.818 
#    0.000    0.000    0.000    0.000    0.000    0.000 
#
# Total GULP energy -545294.410012 kJ/mol
# GULP energy per Si atom -12393.054773 kJ/mol
# Density = 1.927377 g / cm^3
# Si number density = 19.317741 Si / 1000 Ang^3
#
#
#
# Elastic Constant Matrix: (Units=GPa)
#
#
# Indices 1 2 3 4 5 6 
#
# 1 103.7198 41.7637 62.6041 0.0000 0.0000 0.0000
# 2 41.7637 44.7835 39.8570 0.0000 0.0000 0.0000
# 3 62.6041 39.8570 119.0768 0.0000 0.0000 0.0000
# 4 0.0000 0.0000 0.0000 4.6757 0.0000 0.0000
# 5 0.0000 0.0000 0.0000 0.0000 24.2663 0.0000
# 6 0.0000 0.0000 0.0000 0.0000 0.0000 30.5425
#
#
#
# Elastic Compliance Matrix: (Units=1/GPa)
#
#
# Indices 1 2 3 4 5 6 
#
# 1 0.017533 -0.011604 -0.005334 0.000000 0.000000 0.000000
# 2 -0.011604 0.039483 -0.007115 0.000000 0.000000 0.000000
# 3 -0.005334 -0.007115 0.013584 0.000000 0.000000 0.000000
# 4 0.000000 0.000000 0.000000 0.213870 0.000000 0.000000
# 5 0.000000 0.000000 0.000000 0.000000 0.041209 0.000000
# 6 0.000000 0.000000 0.000000 0.000000 0.000000 0.032741
#
#
# Mechanical properties :
#
#
# Convention : Reuss Voigt Hill
#
# Bulk Modulus (GPa) = 44.45508 61.78108 53.11808
# Shear Modulus (GPa) = 12.07654 20.12059 16.09857
#
# Velocity S-wave (km/s) = 2.50302 3.23082 2.88992
# Velocity P-wave (km/s) = 5.60500 6.78001 6.22031
#
# Compressibility (1/GPa) = 0.02249462
#
# Stress axis : x y z
#
# Youngs Moduli (GPa) = 57.03425 25.32715 73.61668
#
# Poissons Ratio (x) = 0.29389 0.39268
# Poissons Ratio (y) = 0.66181 0.52379
# Poissons Ratio (z) = 0.30423 0.18021
#
# Static dielectric constant tensor:
#      x y z
#    x 3.544780 0.000000 0.000000 
#    y 0.000000 3.413200 0.000000 
#    z 0.000000 0.000000 3.526830 
# 
# 
# High freq. dielectric constant tensor:
#      x y z
#    x 1.736690 0.000000 0.000000 
#    y 0.000000 1.754150 0.000000 
#    z 0.000000 0.000000 1.745220 
# 
# From -- ./inp_files/22027.got.cif
#   From: 2010.06.25/outbox.cif.g09.slc.cpg/sg71_12_cif.got.tgz:22027.got - 2010.06.28 04:59:45.
