data_PCOD8290768
_publ_section_title
;
Structure prediction by ZEFSAII (Michael W. Deem and Ramdas Pophale) SiO2 
 PCOD8290768
Probable space group: I M M M
;
_chemical_formula_sum "Si O2"
_cell_formula_units_Z 104
_cell_length_a 26.472581
_cell_length_b 8.535795
_cell_length_c 24.250901
_cell_angle_alpha 90.000000
_cell_angle_beta 90.000000
_cell_angle_gamma 90.000000
_cell_volume 5479.843314
_symmetry_space_group_name_H-M "I M M M"
_symmetry_group_IT_number 71
_symmetry_cell_setting 'orthorhombic'
loop_
_space_group_symop_operation_xyz
x,y,z
-x,-y,z
x,-y,-z
-x,y,-z
-x,-y,-z
x,y,-z
-x,y,z
x,-y,z
1/2+x,1/2+y,1/2+z
1/2-x,1/2-y,1/2+z
1/2+x,1/2-y,1/2-z
1/2-x,1/2+y,1/2-z
1/2-x,1/2-y,1/2-z
1/2+x,1/2+y,1/2-z
1/2-x,1/2+y,1/2+z
1/2+x,1/2-y,1/2+z
loop_
_atom_site_type_symbol
_atom_site_label
_atom_site_fract_x
_atom_site_fract_y
_atom_site_fract_z
Si Si1 0.710561 0.681541 0.152882
Si Si2 0.819921 0.816735 0.844467
Si Si3 0.557197 0.185485 0.148930
Si Si4 0.892740 0.187135 0.061088
Si Si5 0.500000 0.670493 0.565283
Si Si6 0.862417 0.318121 0.737014
Si Si7 0.367781 0.316445 0.937861
O O1 0.701223 0.500000 0.167734
O O2 0.769563 0.715292 0.153644
O O3 0.686549 0.791073 0.199377
O O4 0.684527 0.723143 0.094119
O O5 0.849686 0.756644 0.897911
O O6 0.855465 0.782188 0.792174
O O7 0.806840 0.000000 0.846631
O O8 0.500000 0.251761 0.151966
O O9 0.588005 0.241072 0.203435
O O10 0.584123 0.244718 0.093499
O O11 0.557074 0.000000 0.146669
O O12 0.947423 0.258122 0.080967
O O13 0.897710 0.000000 0.061026
O O14 0.878596 0.248208 0.000000
O O15 0.500000 0.500000 0.594273
O O16 0.500000 0.647457 0.500000
O O17 0.866447 0.500000 0.752459
O O18 0.376729 0.500000 0.940340
O O19 0.364272 0.247003 0.000000
#
# Coordination Sequence:
#
# PCOD8290768 Si02
#       7
#    16  16  16  16   8  16  16
#     4  10  20  35  54  73  99 135 172 209 251 299
#     4  11  21  32  49  77 106 130 165 211 256 303
#     4   9  19  36  56  77 103 137 175 214 256 304
#     4   8  15  28  46  69  98 130 162 199 243 291
#     4   7  10  22  44  64  87 123 159 189 228 275
#     4  10  20  36  55  73  98 133 172 210 253 302
#     4   9  19  35  54  78 107 138 173 212 256 307
#
# _framework density 18.978643999999999
#
# number of rings (size 3 to 8) (size 9 to 14) (size 15 to 20)
#    0.000    2.692    0.000    2.769    0.000    2.769 
#    1.385    1.538    0.000    1.385    0.000    0.000 
#    0.000    7.385    0.000    0.000    0.000    0.000 
#
# Total GULP energy -644500.529815 kJ/mol
# GULP energy per Si atom -12394.240958 kJ/mol
# Density = 1.893545 g / cm^3
# Si number density = 18.978644 Si / 1000 Ang^3
#
#
#
# Elastic Constant Matrix: (Units=GPa)
#
#
# Indices 1 2 3 4 5 6 
#
# 1 99.7835 12.5317 58.4046 0.0000 0.0000 0.0000
# 2 12.5317 25.3344 13.2299 0.0000 0.0000 0.0000
# 3 58.4046 13.2299 122.9486 0.0000 0.0000 0.0000
# 4 0.0000 0.0000 0.0000 17.5362 0.0000 0.0000
# 5 0.0000 0.0000 0.0000 0.0000 18.2565 0.0000
# 6 0.0000 0.0000 0.0000 0.0000 0.0000 19.8195
#
#
#
# Elastic Compliance Matrix: (Units=1/GPa)
#
#
# Indices 1 2 3 4 5 6 
#
# 1 0.014203 -0.003711 -0.006348 0.000000 0.000000 0.000000
# 2 -0.003711 0.042792 -0.002842 0.000000 0.000000 0.000000
# 3 -0.006348 -0.002842 0.011455 0.000000 0.000000 0.000000
# 4 0.000000 0.000000 0.000000 0.057025 0.000000 0.000000
# 5 0.000000 0.000000 0.000000 0.000000 0.054775 0.000000
# 6 0.000000 0.000000 0.000000 0.000000 0.000000 0.050455
#
#
# Mechanical properties :
#
#
# Convention : Reuss Voigt Hill
#
# Bulk Modulus (GPa) = 23.44735 46.26654 34.85695
# Shear Modulus (GPa) = 18.46920 22.04915 20.25918
#
# Velocity S-wave (km/s) = 3.12293 3.41220 3.27076
# Velocity P-wave (km/s) = 5.03835 6.32102 5.71578
#
# Compressibility (1/GPa) = 0.04264874
#
# Stress axis : x y z
#
# Youngs Moduli (GPa) = 70.40728 23.36911 87.30115
#
# Poissons Ratio (x) = 0.08672 0.55415
# Poissons Ratio (y) = 0.26126 0.24810
# Poissons Ratio (z) = 0.44692 0.06641
#
# Static dielectric constant tensor:
#      x y z
#    x 3.727490 0.000000 0.000000 
#    y 0.000000 3.156810 0.000000 
#    z 0.000000 0.000000 3.637720 
# 
# 
# High freq. dielectric constant tensor:
#      x y z
#    x 1.744280 0.000000 0.000000 
#    y 0.000000 1.712190 0.000000 
#    z 0.000000 0.000000 1.731750 
# 
# From -- ./inp_files/56222.got.cif
#   From: 2010.06.25/outbox.cif.g09.slc.cpg/sg71_29_cif.got.tgz:56222.got - 2010.06.28 04:59:45.
