data_PCOD8290865
_publ_section_title
;
Structure prediction by ZEFSAII (Michael W. Deem and Ramdas Pophale) SiO2 
 PCOD8290865
Probable space group: I M M M
;
_chemical_formula_sum "Si O2"
_cell_formula_units_Z 88
_cell_length_a 30.670887
_cell_length_b 8.963013
_cell_length_c 17.553072
_cell_angle_alpha 90.000000
_cell_angle_beta 90.000000
_cell_angle_gamma 90.000000
_cell_volume 4825.401962
_symmetry_space_group_name_H-M "I M M M"
_symmetry_group_IT_number 71
_symmetry_cell_setting 'orthorhombic'
loop_
_space_group_symop_operation_xyz
x,y,z
-x,-y,z
x,-y,-z
-x,y,-z
-x,-y,-z
x,y,-z
-x,y,z
x,-y,z
1/2+x,1/2+y,1/2+z
1/2-x,1/2-y,1/2+z
1/2+x,1/2-y,1/2-z
1/2-x,1/2+y,1/2-z
1/2-x,1/2-y,1/2-z
1/2+x,1/2+y,1/2-z
1/2-x,1/2+y,1/2+z
1/2+x,1/2-y,1/2+z
loop_
_atom_site_type_symbol
_atom_site_label
_atom_site_fract_x
_atom_site_fract_y
_atom_site_fract_z
Si Si1 0.383555 0.332310 0.302229
Si Si2 0.331334 0.171741 0.914530
Si Si3 0.585793 0.330781 0.867943
Si Si4 0.950990 0.676222 0.913015
Si Si5 0.204820 0.822891 0.729044
Si Si6 0.000000 0.666921 0.589602
O O1 0.381260 0.500000 0.334409
O O2 0.407024 0.327762 0.221757
O O3 0.411744 0.237967 0.361639
O O4 0.333919 0.271432 0.287364
O O5 0.380868 0.227769 0.914158
O O6 0.303943 0.273344 0.857356
O O7 0.329542 0.000000 0.887916
O O8 0.312385 0.188605 0.000000
O O9 0.588675 0.500000 0.898946
O O10 0.539552 0.261588 0.880729
O O11 0.949222 0.500000 0.906296
O O12 0.000000 0.730732 0.888042
O O13 0.942570 0.726834 0.000000
O O14 0.250000 0.750000 0.750000
O O15 0.208272 0.000000 0.730474
O O16 0.000000 0.500000 0.624897
O O17 0.000000 0.655900 0.500000
#
# Coordination Sequence:
#
# PCOD8290865 Si02
#       6
#    16  16  16  16  16   8
#     4   9  20  36  54  79 107 137 176 220 268 324
#     4  10  20  35  56  81 108 139 178 222 267 321
#     4  10  21  35  51  74 105 140 178 222 266 313
#     4   9  19  35  54  79 110 143 182 227 273 324
#     4  10  21  38  59  83 111 143 181 228 280 334
#     4  11  23  35  47  69 102 139 180 221 261 308
#
# _framework density 18.236822
#
# number of rings (size 3 to 8) (size 9 to 14) (size 15 to 20)
#    0.000    2.273    0.000    4.091    1.273    9.455 
#    0.000    1.818    0.000    1.091    0.000    0.000 
#    0.000    0.000    0.000    0.000    0.000    0.000 
#
# Total GULP energy -545375.221661 kJ/mol
# GULP energy per Si atom -12394.891401 kJ/mol
# Density = 1.819531 g / cm^3
# Si number density = 18.236822 Si / 1000 Ang^3
#
#
#
# Elastic Constant Matrix: (Units=GPa)
#
#
# Indices 1 2 3 4 5 6 
#
# 1 152.6422 49.1800 61.9826 0.0000 0.0000 0.0000
# 2 49.1800 82.4863 44.4421 0.0000 0.0000 0.0000
# 3 61.9826 44.4421 71.6085 0.0000 0.0000 0.0000
# 4 0.0000 0.0000 0.0000 27.2989 0.0000 0.0000
# 5 0.0000 0.0000 0.0000 0.0000 15.5969 0.0000
# 6 0.0000 0.0000 0.0000 0.0000 0.0000 36.2687
#
#
#
# Elastic Compliance Matrix: (Units=1/GPa)
#
#
# Indices 1 2 3 4 5 6 
#
# 1 0.010320 -0.002013 -0.007683 0.000000 0.000000 0.000000
# 2 -0.002013 0.018606 -0.009805 0.000000 0.000000 0.000000
# 3 -0.007683 -0.009805 0.026700 0.000000 0.000000 0.000000
# 4 0.000000 0.000000 0.000000 0.036632 0.000000 0.000000
# 5 0.000000 0.000000 0.000000 0.000000 0.064115 0.000000
# 6 0.000000 0.000000 0.000000 0.000000 0.000000 0.027572
#
#
# Mechanical properties :
#
#
# Convention : Reuss Voigt Hill
#
# Bulk Modulus (GPa) = 60.15456 68.66072 64.40764
# Shear Modulus (GPa) = 21.88293 25.90838 23.89566
#
# Velocity S-wave (km/s) = 3.46776 3.77326 3.62373
# Velocity P-wave (km/s) = 7.00647 7.53091 7.27342
#
# Compressibility (1/GPa) = 0.01662384
#
# Stress axis : x y z
#
# Youngs Moduli (GPa) = 96.90166 53.74518 37.45302
#
# Poissons Ratio (x) = 0.10821 0.28775
# Poissons Ratio (y) = 0.19510 0.36722
# Poissons Ratio (z) = 0.74449 0.52696
#
# Static dielectric constant tensor:
#      x y z
#    x 3.457330 0.000000 0.000000 
#    y 0.000000 3.575930 0.000000 
#    z 0.000000 0.000000 3.274390 
# 
# 
# High freq. dielectric constant tensor:
#      x y z
#    x 1.706070 0.000000 0.000000 
#    y 0.000000 1.715450 0.000000 
#    z 0.000000 0.000000 1.699930 
# 
# From -- ./inp_files/8755.got.cif
#   From: 2010.06.25/outbox.cif.g09.slc.cpg/sg71_5_cif.got.tgz:8755.got - 2010.06.28 04:59:45.
