data_PCOD8290438
_publ_section_title
;
Structure prediction by ZEFSAII (Michael W. Deem and Ramdas Pophale) SiO2 
 PCOD8290438
Probable space group: I M M M
;
_chemical_formula_sum "Si O2"
_cell_formula_units_Z 56
_cell_length_a 28.408806
_cell_length_b 8.609617
_cell_length_c 10.161013
_cell_angle_alpha 90.000000
_cell_angle_beta 90.000000
_cell_angle_gamma 90.000000
_cell_volume 2485.271390
_symmetry_space_group_name_H-M "I M M M"
_symmetry_group_IT_number 71
_symmetry_cell_setting 'orthorhombic'
loop_
_space_group_symop_operation_xyz
x,y,z
-x,-y,z
x,-y,-z
-x,y,-z
-x,-y,-z
x,y,-z
-x,y,z
x,-y,z
1/2+x,1/2+y,1/2+z
1/2-x,1/2-y,1/2+z
1/2+x,1/2-y,1/2-z
1/2-x,1/2+y,1/2-z
1/2-x,1/2-y,1/2-z
1/2+x,1/2+y,1/2-z
1/2-x,1/2+y,1/2+z
1/2+x,1/2-y,1/2+z
loop_
_atom_site_type_symbol
_atom_site_label
_atom_site_fract_x
_atom_site_fract_y
_atom_site_fract_z
Si Si1 0.820462 0.815582 0.500000
Si Si2 0.447419 0.682182 0.726855
Si Si3 0.853533 0.683251 0.226203
Si Si4 0.053245 0.330464 0.500000
Si Si5 0.285648 0.184448 0.500000
O O1 0.847303 0.755263 0.371139
O O2 0.767163 0.749125 0.500000
O O3 0.820378 0.000000 0.500000
O O4 0.500000 0.742680 0.684033
O O5 0.445283 0.500000 0.701814
O O6 0.403258 0.765289 0.655890
O O7 0.435899 0.721943 0.877201
O O8 0.853144 0.500000 0.238167
O O9 0.812030 0.744831 0.131237
O O10 0.080494 0.500000 0.500000
O O11 0.000000 0.379770 0.500000
O O12 0.285991 0.000000 0.500000
#
# Coordination Sequence:
#
# PCOD8290438 Si02
#       5
#     8  16  16   8   8
#     4  11  22  40  64  91 121 152 191 241 298 354
#     4  10  20  34  52  78 114 154 194 237 287 343
#     4  11  22  39  62  89 119 154 198 243 291 347
#     4   9  16  27  46  73 104 141 186 235 284 331
#     4   9  22  42  63  87 118 155 196 244 293 348
#
# _framework density 22.53275
#
# number of rings (size 3 to 8) (size 9 to 14) (size 15 to 20)
#    0.000    1.857    0.000    4.286    0.000    3.429 
#    0.000    7.857    0.000    4.286    0.000    0.000 
#    0.000    0.000    0.000    0.000    0.000    0.000 
#
# Total GULP energy -346877.739530 kJ/mol
# GULP energy per Si atom -12388.490698 kJ/mol
# Density = 2.248146 g / cm^3
# Si number density = 22.532750 Si / 1000 Ang^3
#
#
#
# Elastic Constant Matrix: (Units=GPa)
#
#
# Indices 1 2 3 4 5 6 
#
# 1 205.6427 37.0588 31.4987 0.0000 0.0000 0.0000
# 2 37.0588 75.6958 17.1395 0.0000 0.0000 0.0000
# 3 31.4987 17.1395 73.6602 0.0000 0.0000 0.0000
# 4 0.0000 0.0000 0.0000 6.1231 0.0000 0.0000
# 5 0.0000 0.0000 0.0000 0.0000 2.2692 0.0000
# 6 0.0000 0.0000 0.0000 0.0000 0.0000 35.3220
#
#
#
# Elastic Compliance Matrix: (Units=1/GPa)
#
#
# Indices 1 2 3 4 5 6 
#
# 1 0.005560 -0.002305 -0.001841 0.000000 0.000000 0.000000
# 2 -0.002305 0.014901 -0.002481 0.000000 0.000000 0.000000
# 3 -0.001841 -0.002481 0.014941 0.000000 0.000000 0.000000
# 4 0.000000 0.000000 0.000000 0.163315 0.000000 0.000000
# 5 0.000000 0.000000 0.000000 0.000000 0.440690 0.000000
# 6 0.000000 0.000000 0.000000 0.000000 0.000000 0.028311
#
#
# Mechanical properties :
#
#
# Convention : Reuss Voigt Hill
#
# Bulk Modulus (GPa) = 45.15477 58.48810 51.82144
# Shear Modulus (GPa) = 7.26368 26.69631 16.98000
#
# Velocity S-wave (km/s) = 1.79739 3.44579 2.74810
# Velocity P-wave (km/s) = 4.93868 6.46874 5.75479
#
# Compressibility (1/GPa) = 0.02214605
#
# Stress axis : x y z
#
# Youngs Moduli (GPa) = 179.84743 67.10848 66.93158
#
# Poissons Ratio (x) = 0.15470 0.12324
# Poissons Ratio (y) = 0.41459 0.16609
# Poissons Ratio (z) = 0.33115 0.16653
#
# Static dielectric constant tensor:
#      x y z
#    x 4.831710 0.000000 0.000000 
#    y 0.000000 3.744580 0.000000 
#    z 0.000000 0.000000 3.757890 
# 
# 
# High freq. dielectric constant tensor:
#      x y z
#    x 1.922160 0.000000 0.000000 
#    y 0.000000 1.873240 0.000000 
#    z 0.000000 0.000000 1.861850 
# 
# From -- ./inp_files/29407.got.cif
#   From: 2010.06.25/outbox.cif.g09.slc.cpg/sg71_15_cif.got.tgz:29407.got - 2010.06.28 04:59:45.
