data_PCOD8290674
_publ_section_title
;
Structure prediction by ZEFSAII (Michael W. Deem and Ramdas Pophale) SiO2 
 PCOD8290674
Probable space group: I M M M
;
_chemical_formula_sum "Si O2"
_cell_formula_units_Z 96
_cell_length_a 20.066305
_cell_length_b 8.778578
_cell_length_c 27.296072
_cell_angle_alpha 90.000000
_cell_angle_beta 90.000000
_cell_angle_gamma 90.000000
_cell_volume 4808.301993
_symmetry_space_group_name_H-M "I M M M"
_symmetry_group_IT_number 71
_symmetry_cell_setting 'orthorhombic'
loop_
_space_group_symop_operation_xyz
x,y,z
-x,-y,z
x,-y,-z
-x,y,-z
-x,-y,-z
x,y,-z
-x,y,z
x,-y,z
1/2+x,1/2+y,1/2+z
1/2-x,1/2-y,1/2+z
1/2+x,1/2-y,1/2-z
1/2-x,1/2+y,1/2-z
1/2-x,1/2-y,1/2-z
1/2+x,1/2+y,1/2-z
1/2-x,1/2+y,1/2+z
1/2+x,1/2-y,1/2+z
loop_
_atom_site_type_symbol
_atom_site_label
_atom_site_fract_x
_atom_site_fract_y
_atom_site_fract_z
Si Si1 0.923414 0.175881 0.943769
Si Si2 0.302214 0.320857 0.287235
Si Si3 0.573316 0.819323 0.126793
Si Si4 0.187883 0.322687 0.556108
Si Si5 0.076757 0.322726 0.737559
Si Si6 0.805596 0.321820 0.890771
O O1 0.879780 0.279663 0.908070
O O2 0.000000 0.203834 0.929641
O O3 0.903887 0.000000 0.935943
O O4 0.910707 0.222690 0.000000
O O5 0.294095 0.500000 0.285744
O O6 0.250000 0.250000 0.250000
O O7 0.377531 0.274556 0.273736
O O8 0.285291 0.264066 0.341379
O O9 0.500000 0.753648 0.113265
O O10 0.627829 0.755274 0.089088
O O11 0.592387 0.770896 0.181963
O O12 0.570235 0.000000 0.123658
O O13 0.167589 0.297395 0.500000
O O14 0.200972 0.500000 0.567495
O O15 0.254554 0.229131 0.567070
O O16 0.093606 0.500000 0.744628
O O17 0.000000 0.289733 0.750743
O O18 0.801464 0.500000 0.881229
#
# Coordination Sequence:
#
# PCOD8290674 Si02
#       6
#    16  16  16  16  16  16
#     4   9  19  38  63  88 115 149 189 234 286 342
#     4  12  25  41  61  84 113 148 189 238 290 345
#     4   8  15  30  54  83 113 146 184 226 271 320
#     4  10  20  34  55  83 115 151 190 234 282 331
#     4   9  18  35  59  85 115 152 193 234 276 329
#     4  12  25  39  57  82 113 150 191 235 283 338
#
# _framework density 19.965468999999999
#
# number of rings (size 3 to 8) (size 9 to 14) (size 15 to 20)
#    0.000    2.000    0.000    6.000    0.000    5.667 
#    0.000    2.500    0.000    1.500    0.000    1.167 
#    0.000    0.000    0.000    0.000    0.000    0.000 
#
# Total GULP energy -595362.442363 kJ/mol
# GULP energy per Si atom -12403.384216 kJ/mol
# Density = 1.992003 g / cm^3
# Si number density = 19.965469 Si / 1000 Ang^3
#
#
#
# Elastic Constant Matrix: (Units=GPa)
#
#
# Indices 1 2 3 4 5 6 
#
# 1 85.3993 33.4498 26.6724 0.0000 0.0000 0.0000
# 2 33.4498 100.2525 31.0390 0.0000 0.0000 0.0000
# 3 26.6724 31.0390 72.1236 0.0000 0.0000 0.0000
# 4 0.0000 0.0000 0.0000 26.2574 0.0000 0.0000
# 5 0.0000 0.0000 0.0000 0.0000 39.7925 0.0000
# 6 0.0000 0.0000 0.0000 0.0000 0.0000 26.5797
#
#
#
# Elastic Compliance Matrix: (Units=1/GPa)
#
#
# Indices 1 2 3 4 5 6 
#
# 1 0.014290 -0.003613 -0.003730 0.000000 0.000000 0.000000
# 2 -0.003613 0.012422 -0.004010 0.000000 0.000000 0.000000
# 3 -0.003730 -0.004010 0.016970 0.000000 0.000000 0.000000
# 4 0.000000 0.000000 0.000000 0.038085 0.000000 0.000000
# 5 0.000000 0.000000 0.000000 0.000000 0.025130 0.000000
# 6 0.000000 0.000000 0.000000 0.000000 0.000000 0.037623
#
#
# Mechanical properties :
#
#
# Convention : Reuss Voigt Hill
#
# Bulk Modulus (GPa) = 47.67194 48.89976 48.28585
# Shear Modulus (GPa) = 28.70000 29.63354 29.16677
#
# Velocity S-wave (km/s) = 3.79553 3.85676 3.82627
# Velocity P-wave (km/s) = 6.56788 6.66169 6.61495
#
# Compressibility (1/GPa) = 0.02097670
#
# Stress axis : x y z
#
# Youngs Moduli (GPa) = 69.98011 80.50386 58.92779
#
# Poissons Ratio (x) = 0.29087 0.21978
# Poissons Ratio (y) = 0.25285 0.23628
# Poissons Ratio (z) = 0.26100 0.32279
#
# Static dielectric constant tensor:
#      x y z
#    x 3.898430 0.000000 0.000000 
#    y 0.000000 3.344270 0.000000 
#    z 0.000000 0.000000 3.671500 
# 
# 
# High freq. dielectric constant tensor:
#      x y z
#    x 1.792270 0.000000 0.000000 
#    y 0.000000 1.751450 0.000000 
#    z 0.000000 0.000000 1.781280 
# 
# From -- ./inp_files/66334.got.cif
#   From: 2010.06.25/outbox.cif.g09.slc.cpg/sg71_34_cif.got.tgz:66334.got - 2010.06.28 04:59:45.
