data_PCOD8290710
_publ_section_title
;
Structure prediction by ZEFSAII (Michael W. Deem and Ramdas Pophale) SiO2 
 PCOD8290710
Probable space group: I M M M
;
_chemical_formula_sum "Si O2"
_cell_formula_units_Z 88
_cell_length_a 20.284538
_cell_length_b 9.276657
_cell_length_c 25.273680
_cell_angle_alpha 90.000000
_cell_angle_beta 90.000000
_cell_angle_gamma 90.000000
_cell_volume 4755.816641
_symmetry_space_group_name_H-M "I M M M"
_symmetry_group_IT_number 71
_symmetry_cell_setting 'orthorhombic'
loop_
_space_group_symop_operation_xyz
x,y,z
-x,-y,z
x,-y,-z
-x,y,-z
-x,-y,-z
x,y,-z
-x,y,z
x,-y,z
1/2+x,1/2+y,1/2+z
1/2-x,1/2-y,1/2+z
1/2+x,1/2-y,1/2-z
1/2-x,1/2+y,1/2-z
1/2-x,1/2-y,1/2-z
1/2+x,1/2+y,1/2-z
1/2-x,1/2+y,1/2+z
1/2+x,1/2-y,1/2+z
loop_
_atom_site_type_symbol
_atom_site_label
_atom_site_fract_x
_atom_site_fract_y
_atom_site_fract_z
Si Si1 0.774883 0.831474 0.000000
Si Si2 0.314473 0.338601 0.702725
Si Si3 0.664135 0.169978 0.802248
Si Si4 0.000000 0.331913 0.939315
Si Si5 0.624960 0.661738 0.410511
Si Si6 0.638062 0.668116 0.000000
Si Si7 0.076485 0.831474 0.611615
O O1 0.815813 0.785120 0.948084
O O2 0.706827 0.749062 0.000000
O O3 0.758523 0.000000 0.000000
O O4 0.312644 0.500000 0.726773
O O5 0.351616 0.234506 0.744239
O O6 0.240467 0.289313 0.687809
O O7 0.355244 0.334325 0.649790
O O8 0.619526 0.241322 0.847118
O O9 0.650608 0.000000 0.802811
O O10 0.935549 0.268350 0.913081
O O11 0.000000 0.500000 0.929378
O O12 0.000000 0.288151 0.000000
O O13 0.604267 0.500000 0.427857
O O14 0.596488 0.711645 0.948112
O O15 0.653840 0.500000 0.000000
O O16 0.000000 0.792045 0.619781
O O17 0.089093 0.000000 0.621788
#
# Coordination Sequence:
#
# PCOD8290710 Si02
#       7
#     8  16  16   8  16   8  16
#     4  10  20  34  56  85 115 143 178 227 276 327
#     4   9  19  36  58  84 111 143 184 227 274 329
#     4  10  20  36  59  85 113 143 180 230 279 323
#     4  11  23  37  53  77 113 147 181 230 281 324
#     4  10  20  36  58  80 107 147 189 224 267 333
#     4  10  21  36  57  85 112 143 183 227 274 322
#     4  10  21  38  58  80 111 150 188 224 267 327
#
# _framework density 18.503657
#
# number of rings (size 3 to 8) (size 9 to 14) (size 15 to 20)
#    0.000    2.091    0.909    2.182    0.000    6.182 
#    1.636    0.000    0.000    1.636    0.000    0.000 
#    0.000    0.000    0.000    0.000    0.000    0.000 
#
# Total GULP energy -545639.638207 kJ/mol
# GULP energy per Si atom -12400.900868 kJ/mol
# Density = 1.846154 g / cm^3
# Si number density = 18.503657 Si / 1000 Ang^3
#
#
#
# Elastic Constant Matrix: (Units=GPa)
#
#
# Indices 1 2 3 4 5 6 
#
# 1 97.1666 36.7274 64.1755 0.0000 0.0000 0.0000
# 2 36.7274 29.3921 72.0585 0.0000 0.0000 0.0000
# 3 64.1755 72.0585 126.1764 0.0000 0.0000 0.0000
# 4 0.0000 0.0000 0.0000 21.3093 0.0000 0.0000
# 5 0.0000 0.0000 0.0000 0.0000 16.6500 0.0000
# 6 0.0000 0.0000 0.0000 0.0000 0.0000 34.9504
#
#
#
# Elastic Compliance Matrix: (Units=1/GPa)
#
#
# Indices 1 2 3 4 5 6 
#
# 1 0.015498 0.000102 -0.007940 0.000000 0.000000 0.000000
# 2 0.000102 -0.085033 0.048510 0.000000 0.000000 0.000000
# 3 -0.007940 0.048510 -0.015740 0.000000 0.000000 0.000000
# 4 0.000000 0.000000 0.000000 0.046928 0.000000 0.000000
# 5 0.000000 0.000000 0.000000 0.000000 0.060060 0.000000
# 6 0.000000 0.000000 0.000000 0.000000 0.000000 0.028612
#
#
# Mechanical properties :
#
#
# Convention : Reuss Voigt Hill
#
# Bulk Modulus (GPa) = -254.29617 66.51755 -93.88931
# Shear Modulus (GPa) = -154.66026 19.90018 -67.38004
#
# Velocity S-wave (km/s) = -9.15233 3.28300 -6.04098
# Velocity P-wave (km/s) = 15.79289 7.09909 9.97542
#
# Compressibility (1/GPa) = -0.00393242
#
# Stress axis : x y z
#
# Youngs Moduli (GPa) = 64.52634 -11.76014 -63.53350
#
# Poissons Ratio (x) = 0.00120 -0.50448
# Poissons Ratio (y) = -0.00657 3.08201
# Poissons Ratio (z) = 0.51237 0.57048
#
# Static dielectric constant tensor:
#      x y z
#    x 3.323920 0.000000 0.000000 
#    y 0.000000 3.499310 0.000000 
#    z 0.000000 0.000000 3.492700 
# 
# 
# High freq. dielectric constant tensor:
#      x y z
#    x 1.715090 0.000000 0.000000 
#    y 0.000000 1.716970 0.000000 
#    z 0.000000 0.000000 1.727740 
# 
# From -- ./inp_files/61160.got.cif
#   From: 2010.06.25/outbox.cif.g09.slc.cpg/sg71_31_cif.got.tgz:61160.got - 2010.06.28 04:59:45.
