data_PCOD8290364
_publ_section_title
;
Structure prediction by ZEFSAII (Michael W. Deem and Ramdas Pophale) SiO2 
 PCOD8290364
Probable space group: I M M M
;
_chemical_formula_sum "Si O2"
_cell_formula_units_Z 104
_cell_length_a 21.681927
_cell_length_b 25.941460
_cell_length_c 9.424463
_cell_angle_alpha 90.000000
_cell_angle_beta 90.000000
_cell_angle_gamma 90.000000
_cell_volume 5300.891394
_symmetry_space_group_name_H-M "I M M M"
_symmetry_group_IT_number 71
_symmetry_cell_setting 'orthorhombic'
loop_
_space_group_symop_operation_xyz
x,y,z
-x,-y,z
x,-y,-z
-x,y,-z
-x,-y,-z
x,y,-z
-x,y,z
x,-y,z
1/2+x,1/2+y,1/2+z
1/2-x,1/2-y,1/2+z
1/2+x,1/2-y,1/2-z
1/2-x,1/2+y,1/2-z
1/2-x,1/2-y,1/2-z
1/2+x,1/2+y,1/2-z
1/2-x,1/2+y,1/2+z
1/2+x,1/2-y,1/2+z
loop_
_atom_site_type_symbol
_atom_site_label
_atom_site_fract_x
_atom_site_fract_y
_atom_site_fract_z
Si Si1 0.000000 0.058210 0.330723
Si Si2 0.901319 0.138091 0.334930
Si Si3 0.876661 0.500000 0.650333
Si Si4 0.569705 0.249080 0.167860
Si Si5 0.848530 0.325592 0.841700
Si Si6 0.266422 0.603968 0.166397
Si Si7 0.068451 0.418567 0.843710
Si Si8 0.236956 0.000000 0.844072
O O1 0.060333 0.089280 0.272962
O O2 0.000000 0.054081 0.500000
O O3 0.000000 0.000000 0.266889
O O4 0.915376 0.137876 0.500000
O O5 0.925947 0.192332 0.274694
O O6 0.828818 0.135009 0.303859
O O7 0.913515 0.500000 0.500000
O O8 0.888830 0.550798 0.738414
O O9 0.806694 0.500000 0.612325
O O10 0.500000 0.228921 0.205519
O O11 0.627882 0.219502 0.238789
O O12 0.580795 0.245273 0.000000
O O13 0.790122 0.358968 0.782514
O O14 0.908755 0.360736 0.851737
O O15 0.832329 0.304342 0.000000
O O16 0.275434 0.551059 0.252023
O O17 0.256819 0.590374 0.000000
O O18 0.000000 0.419906 0.781372
O O19 0.070783 0.443967 0.000000
O O20 0.202042 0.000000 0.000000
#
# Coordination Sequence:
#
# PCOD8290364 Si02
#       8
#     8  16   8  16  16  16  16   8
#     4   9  16  28  52  90 126 146 174 231 288 331
#     4   9  18  34  56  87 120 146 183 232 283 335
#     4  11  22  34  51  74 103 139 179 231 286 337
#     4  10  20  36  58  83 115 152 186 232 289 340
#     4  10  21  36  54  79 111 146 192 240 277 328
#     4  10  21  37  60  85 110 148 195 237 279 333
#     4  10  20  34  51  72 102 142 186 231 280 330
#     4  11  23  38  56  80 117 154 184 227 288 346
#
# _framework density 19.619340999999999
#
# number of rings (size 3 to 8) (size 9 to 14) (size 15 to 20)
#    0.000    2.077    2.308    1.154    1.077    4.615 
#    0.000    0.769    0.000    0.000    0.000    0.538 
#    0.000    0.000    0.000    0.000    0.000    0.000 
#
# Total GULP energy -644191.119542 kJ/mol
# GULP energy per Si atom -12388.290760 kJ/mol
# Density = 1.957469 g / cm^3
# Si number density = 19.619341 Si / 1000 Ang^3
#
#
#
# Elastic Constant Matrix: (Units=GPa)
#
#
# Indices 1 2 3 4 5 6 
#
# 1 84.1416 41.9147 24.1409 0.0000 0.0000 0.0000
# 2 41.9147 117.6042 36.9422 0.0000 0.0000 0.0000
# 3 24.1409 36.9422 62.1703 0.0000 0.0000 0.0000
# 4 0.0000 0.0000 0.0000 10.3257 0.0000 0.0000
# 5 0.0000 0.0000 0.0000 0.0000 14.5111 0.0000
# 6 0.0000 0.0000 0.0000 0.0000 0.0000 30.4238
#
#
#
# Elastic Compliance Matrix: (Units=1/GPa)
#
#
# Indices 1 2 3 4 5 6 
#
# 1 0.014965 -0.004313 -0.003248 0.000000 0.000000 0.000000
# 2 -0.004313 0.011698 -0.005276 0.000000 0.000000 0.000000
# 3 -0.003248 -0.005276 0.020481 0.000000 0.000000 0.000000
# 4 0.000000 0.000000 0.000000 0.096846 0.000000 0.000000
# 5 0.000000 0.000000 0.000000 0.000000 0.068913 0.000000
# 6 0.000000 0.000000 0.000000 0.000000 0.000000 0.032869
#
#
# Mechanical properties :
#
#
# Convention : Reuss Voigt Hill
#
# Bulk Modulus (GPa) = 46.57807 52.21241 49.39524
# Shear Modulus (GPa) = 17.94665 21.77998 19.86331
#
# Velocity S-wave (km/s) = 3.02775 3.33547 3.18533
# Velocity P-wave (km/s) = 6.00129 6.44239 6.22575
#
# Compressibility (1/GPa) = 0.02146933
#
# Stress axis : x y z
#
# Youngs Moduli (GPa) = 66.82112 85.48654 48.82548
#
# Poissons Ratio (x) = 0.36874 0.15858
# Poissons Ratio (y) = 0.28823 0.25760
# Poissons Ratio (z) = 0.21703 0.45103
#
# Static dielectric constant tensor:
#      x y z
#    x 3.599840 0.000000 0.000000 
#    y 0.000000 3.625780 0.000000 
#    z 0.000000 0.000000 3.398090 
# 
# 
# High freq. dielectric constant tensor:
#      x y z
#    x 1.770180 0.000000 0.000000 
#    y 0.000000 1.762050 0.000000 
#    z 0.000000 0.000000 1.730790 
# 
# From -- ./inp_files/11208.got.cif
#   From: 2010.06.25/outbox.cif.g09.slc.cpg/sg71_6_cif.got.tgz:11208.got - 2010.06.28 04:59:45.
