data_PCOD8290360
_publ_section_title
;
Structure prediction by ZEFSAII (Michael W. Deem and Ramdas Pophale) SiO2 
 PCOD8290360
Probable space group: I M M M
;
_chemical_formula_sum "Si O2"
_cell_formula_units_Z 80
_cell_length_a 8.874954
_cell_length_b 22.637412
_cell_length_c 22.004635
_cell_angle_alpha 90.000000
_cell_angle_beta 90.000000
_cell_angle_gamma 90.000000
_cell_volume 4420.862983
_symmetry_space_group_name_H-M "I M M M"
_symmetry_group_IT_number 71
_symmetry_cell_setting 'orthorhombic'
loop_
_space_group_symop_operation_xyz
x,y,z
-x,-y,z
x,-y,-z
-x,y,-z
-x,-y,-z
x,y,-z
-x,y,z
x,-y,z
1/2+x,1/2+y,1/2+z
1/2-x,1/2-y,1/2+z
1/2+x,1/2-y,1/2-z
1/2-x,1/2+y,1/2-z
1/2-x,1/2-y,1/2-z
1/2+x,1/2+y,1/2-z
1/2-x,1/2+y,1/2+z
1/2+x,1/2-y,1/2+z
loop_
_atom_site_type_symbol
_atom_site_label
_atom_site_fract_x
_atom_site_fract_y
_atom_site_fract_z
Si Si1 0.679872 0.065350 0.870204
Si Si2 0.163473 0.430291 0.500000
Si Si3 0.823359 0.676106 0.703330
Si Si4 0.676679 0.208618 0.661766
Si Si5 0.830106 0.500000 0.072161
Si Si6 0.822954 0.119758 0.570462
O O1 0.500000 0.063418 0.876174
O O2 0.730460 0.111831 0.819344
O O3 0.739995 0.000000 0.851973
O O4 0.747346 0.085944 0.936422
O O5 0.139821 0.500000 0.500000
O O6 0.000000 0.398589 0.500000
O O7 0.733959 0.724227 0.663861
O O8 0.781196 0.678297 0.774172
O O9 0.000000 0.687269 0.693125
O O10 0.500000 0.207516 0.648895
O O11 0.759078 0.174733 0.607687
O O12 0.747786 0.441131 0.096054
O O13 0.000000 0.500000 0.097575
O O14 0.826332 0.500000 0.000000
O O15 0.780146 0.129507 0.500000
O O16 0.000000 0.115576 0.579730
#
# Coordination Sequence:
#
# PCOD8290360 Si02
#       6
#    16   8  16  16   8  16
#     4   8  13  24  44  70  99 126 158 204 251 295
#     4   7  10  18  36  64  95 123 145 180 239 292
#     4   9  18  33  51  72  99 135 175 212 255 307
#     4  10  20  34  51  71  99 139 176 212 259 305
#     4   9  17  31  53  79 107 137 165 200 253 314
#     4  10  20  35  55  78 104 134 171 216 262 309
#
# _framework density 18.096014
#
# number of rings (size 3 to 8) (size 9 to 14) (size 15 to 20)
#    0.000    3.000    0.000    2.700    0.000    3.200 
#    3.600    0.000    0.000    0.600    0.000    0.000 
#    0.000    2.400    0.000    0.000    0.000    0.000 
#
# Total GULP energy -495737.306845 kJ/mol
# GULP energy per Si atom -12393.432671 kJ/mol
# Density = 1.805483 g / cm^3
# Si number density = 18.096014 Si / 1000 Ang^3
#
#
#
# Elastic Constant Matrix: (Units=GPa)
#
#
# Indices 1 2 3 4 5 6 
#
# 1 61.2064 37.4812 32.4699 0.0000 0.0000 0.0000
# 2 37.4812 127.8367 67.5415 0.0000 0.0000 0.0000
# 3 32.4699 67.5415 79.7848 0.0000 0.0000 0.0000
# 4 0.0000 0.0000 0.0000 30.8935 0.0000 0.0000
# 5 0.0000 0.0000 0.0000 0.0000 19.4974 0.0000
# 6 0.0000 0.0000 0.0000 0.0000 0.0000 25.5048
#
#
#
# Elastic Compliance Matrix: (Units=1/GPa)
#
#
# Indices 1 2 3 4 5 6 
#
# 1 0.021469 -0.003037 -0.006167 0.000000 0.000000 0.000000
# 2 -0.003037 0.014582 -0.011108 0.000000 0.000000 0.000000
# 3 -0.006167 -0.011108 0.024447 0.000000 0.000000 0.000000
# 4 0.000000 0.000000 0.000000 0.032369 0.000000 0.000000
# 5 0.000000 0.000000 0.000000 0.000000 0.051289 0.000000
# 6 0.000000 0.000000 0.000000 0.000000 0.000000 0.039208
#
#
# Mechanical properties :
#
#
# Convention : Reuss Voigt Hill
#
# Bulk Modulus (GPa) = 50.31501 60.42370 55.36936
# Shear Modulus (GPa) = 21.68138 23.93482 22.80810
#
# Velocity S-wave (km/s) = 3.46516 3.64078 3.55405
# Velocity P-wave (km/s) = 6.62379 7.15100 6.89244
#
# Compressibility (1/GPa) = 0.01987478
#
# Stress axis : x y z
#
# Youngs Moduli (GPa) = 46.57867 68.57851 40.90454
#
# Poissons Ratio (x) = 0.20824 0.25225
# Poissons Ratio (y) = 0.14144 0.45438
# Poissons Ratio (z) = 0.28724 0.76180
#
# Static dielectric constant tensor:
#      x y z
#    x 3.090770 0.000000 0.000000 
#    y 0.000000 3.403230 0.000000 
#    z 0.000000 0.000000 3.450190 
# 
# 
# High freq. dielectric constant tensor:
#      x y z
#    x 1.673090 0.000000 0.000000 
#    y 0.000000 1.697150 0.000000 
#    z 0.000000 0.000000 1.694000 
# 
# From -- ./inp_files/50414.got.cif
#   From: 2010.06.25/outbox.cif.g09.slc.cpg/sg71_26_cif.got.tgz:50414.got - 2010.06.28 04:59:45.
