data_PCOD8290469
_publ_section_title
;
Structure prediction by ZEFSAII (Michael W. Deem and Ramdas Pophale) SiO2 
 PCOD8290469
Probable space group: I M M M
;
_chemical_formula_sum "Si O2"
_cell_formula_units_Z 120
_cell_length_a 27.811163
_cell_length_b 26.347218
_cell_length_c 8.819747
_cell_angle_alpha 90.000000
_cell_angle_beta 90.000000
_cell_angle_gamma 90.000000
_cell_volume 6462.641165
_symmetry_space_group_name_H-M "I M M M"
_symmetry_group_IT_number 71
_symmetry_cell_setting 'orthorhombic'
loop_
_space_group_symop_operation_xyz
x,y,z
-x,-y,z
x,-y,-z
-x,y,-z
-x,-y,-z
x,y,-z
-x,y,z
x,-y,z
1/2+x,1/2+y,1/2+z
1/2-x,1/2-y,1/2+z
1/2+x,1/2-y,1/2-z
1/2-x,1/2+y,1/2-z
1/2-x,1/2-y,1/2-z
1/2+x,1/2+y,1/2-z
1/2-x,1/2+y,1/2+z
1/2+x,1/2-y,1/2+z
loop_
_atom_site_type_symbol
_atom_site_label
_atom_site_fract_x
_atom_site_fract_y
_atom_site_fract_z
Si Si1 0.304813 0.942216 0.824583
Si Si2 0.358642 0.857210 0.673728
Si Si3 0.612843 0.402676 0.320921
Si Si4 0.610519 0.701762 0.821432
Si Si5 0.294191 0.559243 0.174805
Si Si6 0.945724 0.000000 0.819687
Si Si7 0.054756 0.710722 0.175013
Si Si8 0.698249 0.756206 0.322791
O O1 0.348635 0.905643 0.779272
O O2 0.258912 0.925101 0.726935
O O3 0.319794 0.000000 0.787184
O O4 0.291912 0.935925 0.000000
O O5 0.354996 0.874554 0.500000
O O6 0.412219 0.837795 0.713474
O O7 0.320596 0.812806 0.709502
O O8 0.608400 0.396853 0.500000
O O9 0.592792 0.352280 0.241659
O O10 0.668245 0.410048 0.275655
O O11 0.581489 0.449973 0.259434
O O12 0.569443 0.741925 0.778165
O O13 0.661883 0.715795 0.749636
O O14 0.616510 0.699331 0.000000
O O15 0.302616 0.500000 0.203303
O O16 0.300711 0.574400 0.000000
O O17 0.000000 0.000000 0.756155
O O18 0.945390 0.000000 0.000000
O O19 0.000000 0.695453 0.208652
O O20 0.063055 0.726578 0.000000
O O21 0.701217 0.744600 0.500000
O O22 0.750000 0.750000 0.250000
#
# Coordination Sequence:
#
# PCOD8290469 Si02
#       8
#    16  16  16  16  16   8  16  16
#     4  10  21  35  53  80 114 152 192 226 265 323
#     4   9  19  35  56  83 113 144 183 228 278 330
#     4  11  21  36  57  79 106 142 187 236 284 338
#     4  11  23  37  54  81 114 146 185 231 281 336
#     4  10  20  34  53  76 106 143 184 228 278 329
#     4   9  20  38  59  81 103 135 183 237 290 341
#     4   9  19  39  64  86 110 142 183 231 281 337
#     4  10  21  37  55  79 112 150 189 229 280 337
#
# _framework density 18.568261
#
# number of rings (size 3 to 8) (size 9 to 14) (size 15 to 20)
#    0.000    2.067    0.667    3.600    1.867    4.800 
#    0.000    1.333    0.000    3.200    0.000    2.800 
#    0.000    0.000    0.000    0.000    0.000    0.000 
#
# Total GULP energy -744234.703304 kJ/mol
# GULP energy per Si atom -12403.911722 kJ/mol
# Density = 1.852600 g / cm^3
# Si number density = 18.568261 Si / 1000 Ang^3
#
#
#
# Elastic Constant Matrix: (Units=GPa)
#
#
# Indices 1 2 3 4 5 6 
#
# 1 122.6123 52.6727 38.9014 0.0000 0.0000 0.0000
# 2 52.6727 104.1968 43.6333 0.0000 0.0000 0.0000
# 3 38.9014 43.6333 90.7496 0.0000 0.0000 0.0000
# 4 0.0000 0.0000 0.0000 31.6664 0.0000 0.0000
# 5 0.0000 0.0000 0.0000 0.0000 25.3607 0.0000
# 6 0.0000 0.0000 0.0000 0.0000 0.0000 18.9289
#
#
#
# Elastic Compliance Matrix: (Units=1/GPa)
#
#
# Indices 1 2 3 4 5 6 
#
# 1 0.010861 -0.004433 -0.002524 0.000000 0.000000 0.000000
# 2 -0.004433 0.013826 -0.004747 0.000000 0.000000 0.000000
# 3 -0.002524 -0.004747 0.014384 0.000000 0.000000 0.000000
# 4 0.000000 0.000000 0.000000 0.031579 0.000000 0.000000
# 5 0.000000 0.000000 0.000000 0.000000 0.039431 0.000000
# 6 0.000000 0.000000 0.000000 0.000000 0.000000 0.052829
#
#
# Mechanical properties :
#
#
# Convention : Reuss Voigt Hill
#
# Bulk Modulus (GPa) = 63.85085 65.33037 64.59061
# Shear Modulus (GPa) = 26.10398 27.34795 26.72596
#
# Velocity S-wave (km/s) = 3.75352 3.84191 3.79797
# Velocity P-wave (km/s) = 7.29705 7.41220 7.35485
#
# Compressibility (1/GPa) = 0.01566150
#
# Stress axis : x y z
#
# Youngs Moduli (GPa) = 92.07093 72.32549 69.52190
#
# Poissons Ratio (x) = 0.32065 0.17549
# Poissons Ratio (y) = 0.40819 0.33005
# Poissons Ratio (z) = 0.23241 0.34336
#
# Static dielectric constant tensor:
#      x y z
#    x 3.431610 0.000000 0.000000 
#    y 0.000000 3.439510 0.000000 
#    z 0.000000 0.000000 3.354930 
# 
# 
# High freq. dielectric constant tensor:
#      x y z
#    x 1.709820 0.000000 0.000000 
#    y 0.000000 1.717240 0.000000 
#    z 0.000000 0.000000 1.721700 
# 
# From -- ./inp_files/15663.got.cif
#   From: 2010.06.25/outbox.cif.g09.slc.cpg/sg71_8_cif.got.tgz:15663.got - 2010.06.28 04:59:45.
