data_PCOD8290825
_publ_section_title
;
Structure prediction by ZEFSAII (Michael W. Deem and Ramdas Pophale) SiO2 
 PCOD8290825
Probable space group: I M M M
;
_chemical_formula_sum "Si O2"
_cell_formula_units_Z 96
_cell_length_a 20.322216
_cell_length_b 27.880774
_cell_length_c 8.850759
_cell_angle_alpha 90.000000
_cell_angle_beta 90.000000
_cell_angle_gamma 90.000000
_cell_volume 5014.832185
_symmetry_space_group_name_H-M "I M M M"
_symmetry_group_IT_number 71
_symmetry_cell_setting 'orthorhombic'
loop_
_space_group_symop_operation_xyz
x,y,z
-x,-y,z
x,-y,-z
-x,y,-z
-x,-y,-z
x,y,-z
-x,y,z
x,-y,z
1/2+x,1/2+y,1/2+z
1/2-x,1/2-y,1/2+z
1/2+x,1/2-y,1/2-z
1/2-x,1/2+y,1/2-z
1/2-x,1/2-y,1/2-z
1/2+x,1/2+y,1/2-z
1/2-x,1/2+y,1/2+z
1/2+x,1/2-y,1/2+z
loop_
_atom_site_type_symbol
_atom_site_label
_atom_site_fract_x
_atom_site_fract_y
_atom_site_fract_z
Si Si1 0.075745 0.774165 0.676041
Si Si2 0.183895 0.946384 0.178156
Si Si3 0.807038 0.616209 0.679841
Si Si4 0.424136 0.616163 0.825928
Si Si5 0.072935 0.553429 0.320691
Si Si6 0.692056 0.219448 0.678424
O O1 0.090617 0.765534 0.500000
O O2 0.091140 0.829061 0.720334
O O3 0.121040 0.739641 0.774633
O O4 0.000000 0.761713 0.712010
O O5 0.247231 0.917182 0.234230
O O6 0.117711 0.919827 0.226135
O O7 0.185703 0.000000 0.247896
O O8 0.184818 0.949788 0.000000
O O9 0.807149 0.624497 0.500000
O O10 0.873845 0.591199 0.739253
O O11 0.799832 0.665817 0.764642
O O12 0.500000 0.604262 0.795461
O O13 0.406114 0.608239 0.000000
O O14 0.076643 0.551559 0.500000
O O15 0.088314 0.500000 0.257940
O O16 0.000000 0.569812 0.268006
O O17 0.699125 0.221185 0.500000
O O18 0.750000 0.250000 0.750000
#
# Coordination Sequence:
#
# PCOD8290825 Si02
#       6
#    16  16  16  16  16  16
#     4   9  19  38  62  85 111 144 182 224 271 325
#     4  10  21  35  52  77 108 141 178 222 269 316
#     4  10  20  35  55  79 108 142 180 224 272 319
#     4   9  19  36  57  80 105 135 173 217 264 317
#     4   8  14  27  51  82 111 140 177 218 258 306
#     4  12  25  39  56  80 111 145 184 230 277 328
#
# _framework density 19.143212999999999
#
# number of rings (size 3 to 8) (size 9 to 14) (size 15 to 20)
#    0.000    2.333    0.000    4.500    0.000    8.000 
#    0.000    5.000    0.000    1.500    0.000    1.167 
#    0.000    0.000    0.000    0.000    0.000    0.000 
#
# Total GULP energy -595218.850274 kJ/mol
# GULP energy per Si atom -12400.392714 kJ/mol
# Density = 1.909964 g / cm^3
# Si number density = 19.143213 Si / 1000 Ang^3
#
#
#
# Elastic Constant Matrix: (Units=GPa)
#
#
# Indices 1 2 3 4 5 6 
#
# 1 115.5093 71.2516 37.9930 0.0000 0.0000 0.0000
# 2 71.2516 137.0346 46.2051 0.0000 0.0000 0.0000
# 3 37.9930 46.2051 54.0758 0.0000 0.0000 0.0000
# 4 0.0000 0.0000 0.0000 29.0285 0.0000 0.0000
# 5 0.0000 0.0000 0.0000 0.0000 24.6134 0.0000
# 6 0.0000 0.0000 0.0000 0.0000 0.0000 40.3759
#
#
#
# Elastic Compliance Matrix: (Units=1/GPa)
#
#
# Indices 1 2 3 4 5 6 
#
# 1 0.013625 -0.005417 -0.004944 0.000000 0.000000 0.000000
# 2 -0.005417 0.012405 -0.006793 0.000000 0.000000 0.000000
# 3 -0.004944 -0.006793 0.027770 0.000000 0.000000 0.000000
# 4 0.000000 0.000000 0.000000 0.034449 0.000000 0.000000
# 5 0.000000 0.000000 0.000000 0.000000 0.040628 0.000000
# 6 0.000000 0.000000 0.000000 0.000000 0.000000 0.024767
#
#
# Mechanical properties :
#
#
# Convention : Reuss Voigt Hill
#
# Bulk Modulus (GPa) = 51.30431 68.61323 59.95877
# Shear Modulus (GPa) = 25.71345 28.88154 27.29750
#
# Velocity S-wave (km/s) = 3.66897 3.88842 3.78029
# Velocity P-wave (km/s) = 6.69379 7.48864 7.10234
#
# Compressibility (1/GPa) = 0.01949154
#
# Stress axis : x y z
#
# Youngs Moduli (GPa) = 73.39333 80.61464 36.00959
#
# Poissons Ratio (x) = 0.43673 0.17803
# Poissons Ratio (y) = 0.39761 0.24461
# Poissons Ratio (z) = 0.36285 0.54761
#
# Static dielectric constant tensor:
#      x y z
#    x 3.950140 0.000000 0.000000 
#    y 0.000000 3.639250 0.000000 
#    z 0.000000 0.000000 3.202430 
# 
# 
# High freq. dielectric constant tensor:
#      x y z
#    x 1.760510 0.000000 0.000000 
#    y 0.000000 1.751890 0.000000 
#    z 0.000000 0.000000 1.713070 
# 
# From -- ./inp_files/10921.got.cif
#   From: 2010.06.25/outbox.cif.g09.slc.cpg/sg71_6_cif.got.tgz:10921.got - 2010.06.28 04:59:45.
