data_PCOD8290965
_publ_section_title
;
Structure prediction by ZEFSAII (Michael W. Deem and Ramdas Pophale) SiO2 
 PCOD8290965
Probable space group: I M M M
;
_chemical_formula_sum "Si O2"
_cell_formula_units_Z 88
_cell_length_a 27.430322
_cell_length_b 8.733185
_cell_length_c 19.208968
_cell_angle_alpha 90.000000
_cell_angle_beta 90.000000
_cell_angle_gamma 90.000000
_cell_volume 4601.586592
_symmetry_space_group_name_H-M "I M M M"
_symmetry_group_IT_number 71
_symmetry_cell_setting 'orthorhombic'
loop_
_space_group_symop_operation_xyz
x,y,z
-x,-y,z
x,-y,-z
-x,y,-z
-x,-y,-z
x,y,-z
-x,y,z
x,-y,z
1/2+x,1/2+y,1/2+z
1/2-x,1/2-y,1/2+z
1/2+x,1/2-y,1/2-z
1/2-x,1/2+y,1/2-z
1/2-x,1/2-y,1/2-z
1/2+x,1/2+y,1/2-z
1/2-x,1/2+y,1/2+z
1/2+x,1/2-y,1/2+z
loop_
_atom_site_type_symbol
_atom_site_label
_atom_site_fract_x
_atom_site_fract_y
_atom_site_fract_z
Si Si1 0.945815 0.318257 0.423653
Si Si2 0.803787 0.822763 0.919189
Si Si3 0.500000 0.318110 0.420907
Si Si4 0.771764 0.819891 0.318940
Si Si5 0.597267 0.320048 0.658098
Si Si6 0.124194 0.681750 0.695423
O O1 0.926149 0.267555 0.500000
O O2 0.947062 0.500000 0.419378
O O3 0.912318 0.252784 0.362750
O O4 0.000000 0.252236 0.412451
O O5 0.761855 0.721998 0.884238
O O6 0.856869 0.779204 0.890261
O O7 0.792145 0.000000 0.904661
O O8 0.803676 0.783264 0.000000
O O9 0.500000 0.500000 0.424656
O O10 0.500000 0.252391 0.500000
O O11 0.451750 0.260684 0.380181
O O12 0.750000 0.750000 0.250000
O O13 0.825177 0.753611 0.327694
O O14 0.774688 0.000000 0.310456
O O15 0.594161 0.500000 0.673038
O O16 0.603994 0.233113 0.730310
O O17 0.129184 0.500000 0.695209
#
# Coordination Sequence:
#
# PCOD8290965 Si02
#       6
#    16  16   8  16  16  16
#     4   8  16  33  56  82 113 150 191 232 276 331
#     4  10  21  38  61  87 116 154 198 238 283 343
#     4   9  18  34  57  85 116 153 198 240 281 339
#     4  12  24  40  60  83 115 153 194 241 292 346
#     4  10  20  35  57  85 118 156 194 237 284 341
#     4  11  22  35  58  88 117 150 190 242 293 347
#
# _framework density 19.123839
#
# number of rings (size 3 to 8) (size 9 to 14) (size 15 to 20)
#    0.000    1.909    1.818    3.273    1.273    3.273 
#    0.000    1.818    0.000    3.818    0.000    5.091 
#    0.000    0.000    0.000    0.000    0.000    0.000 
#
# Total GULP energy -545602.486742 kJ/mol
# GULP energy per Si atom -12400.056517 kJ/mol
# Density = 1.908031 g / cm^3
# Si number density = 19.123839 Si / 1000 Ang^3
#
#
#
# Elastic Constant Matrix: (Units=GPa)
#
#
# Indices 1 2 3 4 5 6 
#
# 1 162.9079 48.2491 94.6158 0.0000 0.0000 0.0000
# 2 48.2491 68.3402 50.4502 0.0000 0.0000 0.0000
# 3 94.6158 50.4502 160.4933 0.0000 0.0000 0.0000
# 4 0.0000 0.0000 0.0000 28.2994 0.0000 0.0000
# 5 0.0000 0.0000 0.0000 0.0000 41.7991 0.0000
# 6 0.0000 0.0000 0.0000 0.0000 0.0000 21.4865
#
#
#
# Elastic Compliance Matrix: (Units=1/GPa)
#
#
# Indices 1 2 3 4 5 6 
#
# 1 0.009940 -0.003505 -0.004758 0.000000 0.000000 0.000000
# 2 -0.003505 0.020290 -0.004312 0.000000 0.000000 0.000000
# 3 -0.004758 -0.004312 0.010391 0.000000 0.000000 0.000000
# 4 0.000000 0.000000 0.000000 0.035336 0.000000 0.000000
# 5 0.000000 0.000000 0.000000 0.000000 0.023924 0.000000
# 6 0.000000 0.000000 0.000000 0.000000 0.000000 0.046541
#
#
# Mechanical properties :
#
#
# Convention : Reuss Voigt Hill
#
# Bulk Modulus (GPa) = 64.63498 86.48573 75.56036
# Shear Modulus (GPa) = 28.29170 31.54545 29.91858
#
# Velocity S-wave (km/s) = 3.85046 4.06585 3.95962
# Velocity P-wave (km/s) = 7.32390 8.20754 7.77828
#
# Compressibility (1/GPa) = 0.01547150
#
# Stress axis : x y z
#
# Youngs Moduli (GPa) = 100.60259 49.28430 96.23518
#
# Poissons Ratio (x) = 0.17276 0.45790
# Poissons Ratio (y) = 0.35264 0.41494
# Poissons Ratio (z) = 0.47868 0.21250
#
# Static dielectric constant tensor:
#      x y z
#    x 3.762270 0.000000 0.000000 
#    y 0.000000 3.331690 0.000000 
#    z 0.000000 0.000000 3.710850 
# 
# 
# High freq. dielectric constant tensor:
#      x y z
#    x 1.757700 0.000000 0.000000 
#    y 0.000000 1.716150 0.000000 
#    z 0.000000 0.000000 1.758170 
# 
# From -- ./inp_files/49216.got.cif
#   From: 2010.06.25/outbox.cif.g09.slc.cpg/sg71_25_cif.got.tgz:49216.got - 2010.06.28 04:59:45.
