data_PCOD8290573
_publ_section_title
;
Structure prediction by ZEFSAII (Michael W. Deem and Ramdas Pophale) SiO2 
 PCOD8290573
Probable space group: I M M M
;
_chemical_formula_sum "Si O2"
_cell_formula_units_Z 80
_cell_length_a 12.078775
_cell_length_b 18.406901
_cell_length_c 19.005681
_cell_angle_alpha 90.000000
_cell_angle_beta 90.000000
_cell_angle_gamma 90.000000
_cell_volume 4225.586570
_symmetry_space_group_name_H-M "I M M M"
_symmetry_group_IT_number 71
_symmetry_cell_setting 'orthorhombic'
loop_
_space_group_symop_operation_xyz
x,y,z
-x,-y,z
x,-y,-z
-x,y,-z
-x,-y,-z
x,y,-z
-x,y,z
x,-y,z
1/2+x,1/2+y,1/2+z
1/2-x,1/2-y,1/2+z
1/2+x,1/2-y,1/2-z
1/2-x,1/2+y,1/2-z
1/2-x,1/2-y,1/2-z
1/2+x,1/2+y,1/2-z
1/2-x,1/2+y,1/2+z
1/2+x,1/2-y,1/2+z
loop_
_atom_site_type_symbol
_atom_site_label
_atom_site_fract_x
_atom_site_fract_y
_atom_site_fract_z
Si Si1 0.379931 0.862224 0.079849
Si Si2 0.742740 0.500000 0.416124
Si Si3 0.373479 0.500000 0.278819
Si Si4 0.500000 0.803228 0.581517
Si Si5 0.277514 0.745625 0.636120
Si Si6 0.500000 0.912728 0.707687
Si Si7 0.239678 0.635447 0.240131
O O1 0.500000 0.857058 0.117589
O O2 0.309812 0.929375 0.110702
O O3 0.316155 0.785394 0.083997
O O4 0.399528 0.882900 0.000000
O O5 0.711801 0.500000 0.500000
O O6 0.636708 0.500000 0.364583
O O7 0.500000 0.500000 0.258615
O O8 0.317861 0.566982 0.239673
O O9 0.500000 0.827952 0.500000
O O10 0.394585 0.751520 0.596516
O O11 0.500000 0.875130 0.630323
O O12 0.283246 0.688445 0.699421
O O13 0.243865 0.824683 0.665153
O O14 0.390504 0.885959 0.750130
O O15 0.500000 0.000000 0.698492
#
# Coordination Sequence:
#
# PCOD8290573 Si02
#       7
#    16   8   8   8  16   8  16
#     4  10  20  34  54  80 108 143 186 227 270 322
#     4  10  21  37  52  76 112 147 190 237 274 317
#     4  12  24  37  54  78 110 147 184 222 277 349
#     4  10  22  39  60  85 118 154 188 236 289 341
#     4  10  21  36  56  81 112 145 186 227 278 335
#     4  10  20  39  64  88 113 141 195 247 292 338
#     4  10  22  37  56  83 110 144 185 233 281 332
#
# _framework density 18.932283999999999
#
# number of rings (size 3 to 8) (size 9 to 14) (size 15 to 20)
#    0.000    1.800    3.000    0.900    2.800    2.400 
#    1.800    0.000    0.000    0.000    0.000    0.000 
#    0.000    6.400    0.000    0.000    0.000    0.000 
#
# Total GULP energy -495735.950447 kJ/mol
# GULP energy per Si atom -12393.398761 kJ/mol
# Density = 1.888919 g / cm^3
# Si number density = 18.932284 Si / 1000 Ang^3
#
#
#
# Elastic Constant Matrix: (Units=GPa)
#
#
# Indices 1 2 3 4 5 6 
#
# 1 116.0042 50.8119 25.3944 0.0000 0.0000 0.0000
# 2 50.8119 111.1252 20.0932 0.0000 0.0000 0.0000
# 3 25.3944 20.0932 52.3238 0.0000 0.0000 0.0000
# 4 0.0000 0.0000 0.0000 28.2276 0.0000 0.0000
# 5 0.0000 0.0000 0.0000 0.0000 27.3803 0.0000
# 6 0.0000 0.0000 0.0000 0.0000 0.0000 23.9821
#
#
#
# Elastic Compliance Matrix: (Units=1/GPa)
#
#
# Indices 1 2 3 4 5 6 
#
# 1 0.011445 -0.004544 -0.003809 0.000000 0.000000 0.000000
# 2 -0.004544 0.011475 -0.002201 0.000000 0.000000 0.000000
# 3 -0.003809 -0.002201 0.021806 0.000000 0.000000 0.000000
# 4 0.000000 0.000000 0.000000 0.035426 0.000000 0.000000
# 5 0.000000 0.000000 0.000000 0.000000 0.036523 0.000000
# 6 0.000000 0.000000 0.000000 0.000000 0.000000 0.041698
#
#
# Mechanical properties :
#
#
# Convention : Reuss Voigt Hill
#
# Bulk Modulus (GPa) = 42.34441 52.45024 47.39732
# Shear Modulus (GPa) = 26.68754 28.12825 27.40790
#
# Velocity S-wave (km/s) = 3.75858 3.85870 3.80897
# Velocity P-wave (km/s) = 6.42267 6.90051 6.66587
#
# Compressibility (1/GPa) = 0.02361587
#
# Stress axis : x y z
#
# Youngs Moduli (GPa) = 87.37603 87.14813 45.85937
#
# Poissons Ratio (x) = 0.39603 0.17470
# Poissons Ratio (y) = 0.39706 0.10094
# Poissons Ratio (z) = 0.33285 0.19181
#
# Static dielectric constant tensor:
#      x y z
#    x 3.622730 0.000000 0.000000 
#    y 0.000000 3.650230 0.000000 
#    z 0.000000 0.000000 3.426000 
# 
# 
# High freq. dielectric constant tensor:
#      x y z
#    x 1.735040 0.000000 0.000000 
#    y 0.000000 1.736960 0.000000 
#    z 0.000000 0.000000 1.727210 
# 
# From -- ./inp_files/51751.got.cif
#   From: 2010.06.25/outbox.cif.g09.slc.cpg/sg71_26_cif.got.tgz:51751.got - 2010.06.28 04:59:45.
