data_PCOD8290190
_publ_section_title
;
Structure prediction by ZEFSAII (Michael W. Deem and Ramdas Pophale) SiO2 
 PCOD8290190
Probable space group: I M M M
;
_chemical_formula_sum "Si O2"
_cell_formula_units_Z 96
_cell_length_a 24.175476
_cell_length_b 13.032258
_cell_length_c 16.753850
_cell_angle_alpha 90.000000
_cell_angle_beta 90.000000
_cell_angle_gamma 90.000000
_cell_volume 5278.485413
_symmetry_space_group_name_H-M "I M M M"
_symmetry_group_IT_number 71
_symmetry_cell_setting 'orthorhombic'
loop_
_space_group_symop_operation_xyz
x,y,z
-x,-y,z
x,-y,-z
-x,y,-z
-x,-y,-z
x,y,-z
-x,y,z
x,-y,z
1/2+x,1/2+y,1/2+z
1/2-x,1/2-y,1/2+z
1/2+x,1/2-y,1/2-z
1/2-x,1/2+y,1/2-z
1/2-x,1/2-y,1/2-z
1/2+x,1/2+y,1/2-z
1/2-x,1/2+y,1/2+z
1/2+x,1/2-y,1/2+z
loop_
_atom_site_type_symbol
_atom_site_label
_atom_site_fract_x
_atom_site_fract_y
_atom_site_fract_z
Si Si1 0.562047 0.617360 0.869348
Si Si2 0.937596 0.209497 0.797791
Si Si3 0.860077 0.617604 0.256633
Si Si4 0.770082 0.718058 0.164737
Si Si5 0.837324 0.745579 0.410674
Si Si6 0.651576 0.383035 0.593649
O O1 0.500000 0.650816 0.896863
O O2 0.572940 0.500000 0.892735
O O3 0.567021 0.628911 0.774323
O O4 0.607678 0.685842 0.912932
O O5 0.913741 0.318538 0.769073
O O6 0.905036 0.161185 0.871162
O O7 0.000000 0.227715 0.825966
O O8 0.877127 0.500000 0.264485
O O9 0.814672 0.628976 0.184756
O O10 0.839838 0.655842 0.344220
O O11 0.750000 0.750000 0.250000
O O12 0.717044 0.684394 0.111217
O O13 0.796901 0.816715 0.122914
O O14 0.830273 0.699194 0.500000
O O15 0.645799 0.374272 0.500000
O O16 0.661393 0.500000 0.621227
#
# Coordination Sequence:
#
# PCOD8290190 Si02
#       6
#    16  16  16  16  16  16
#     4   9  18  33  52  73 100 135 171 207 249 299
#     4   9  18  33  53  76 102 134 173 212 246 292
#     4   9  19  35  53  73  98 132 173 214 253 292
#     4   9  19  34  50  71 100 134 171 207 243 294
#     4  10  20  33  51  77 105 131 164 208 258 309
#     4  10  20  33  52  80 111 136 158 199 262 315
#
# _framework density 18.187035999999999
#
# number of rings (size 3 to 8) (size 9 to 14) (size 15 to 20)
#    0.000    2.667    0.000    2.000    0.000    6.000 
#    0.000    1.667    0.000   12.000    0.000    9.333 
#    0.000    0.000    0.000    0.000    0.000    0.000 
#
# Total GULP energy -594849.048703 kJ/mol
# GULP energy per Si atom -12392.688515 kJ/mol
# Density = 1.814564 g / cm^3
# Si number density = 18.187036 Si / 1000 Ang^3
#
#
#
# Elastic Constant Matrix: (Units=GPa)
#
#
# Indices 1 2 3 4 5 6 
#
# 1 120.3978 30.3547 41.4740 0.0000 0.0000 0.0000
# 2 30.3547 87.3961 41.6337 0.0000 0.0000 0.0000
# 3 41.4740 41.6337 87.0827 0.0000 0.0000 0.0000
# 4 0.0000 0.0000 0.0000 18.6978 0.0000 0.0000
# 5 0.0000 0.0000 0.0000 0.0000 19.5773 0.0000
# 6 0.0000 0.0000 0.0000 0.0000 0.0000 13.6522
#
#
#
# Elastic Compliance Matrix: (Units=1/GPa)
#
#
# Indices 1 2 3 4 5 6 
#
# 1 0.010101 -0.001575 -0.004057 0.000000 0.000000 0.000000
# 2 -0.001575 0.015062 -0.006451 0.000000 0.000000 0.000000
# 3 -0.004057 -0.006451 0.016500 0.000000 0.000000 0.000000
# 4 0.000000 0.000000 0.000000 0.053482 0.000000 0.000000
# 5 0.000000 0.000000 0.000000 0.000000 0.051079 0.000000
# 6 0.000000 0.000000 0.000000 0.000000 0.000000 0.073249
#
#
# Mechanical properties :
#
#
# Convention : Reuss Voigt Hill
#
# Bulk Modulus (GPa) = 57.15738 57.97794 57.56766
# Shear Modulus (GPa) = 20.04230 22.47974 21.26102
#
# Velocity S-wave (km/s) = 3.32326 3.51954 3.42280
# Velocity P-wave (km/s) = 6.79861 6.96162 6.88060
#
# Compressibility (1/GPa) = 0.01749555
#
# Stress axis : x y z
#
# Youngs Moduli (GPa) = 99.00374 66.39028 60.60651
#
# Poissons Ratio (x) = 0.10459 0.24590
# Poissons Ratio (y) = 0.15596 0.39097
# Poissons Ratio (z) = 0.40169 0.42828
#
# Static dielectric constant tensor:
#      x y z
#    x 3.753580 0.000000 0.000000 
#    y 0.000000 3.071680 0.000000 
#    z 0.000000 0.000000 3.413360 
# 
# 
# High freq. dielectric constant tensor:
#      x y z
#    x 1.719690 0.000000 0.000000 
#    y 0.000000 1.675130 0.000000 
#    z 0.000000 0.000000 1.703910 
# 
# From -- ./inp_files/24458.got.cif
#   From: 2010.06.25/outbox.cif.g09.slc.cpg/sg71_13_cif.got.tgz:24458.got - 2010.06.28 04:59:45.
