data_PCOD8290178
_publ_section_title
;
Structure prediction by ZEFSAII (Michael W. Deem and Ramdas Pophale) SiO2 
 PCOD8290178
Probable space group: I M M M
;
_chemical_formula_sum "Si O2"
_cell_formula_units_Z 72
_cell_length_a 33.299681
_cell_length_b 8.779753
_cell_length_c 13.386817
_cell_angle_alpha 90.000000
_cell_angle_beta 90.000000
_cell_angle_gamma 90.000000
_cell_volume 3913.809633
_symmetry_space_group_name_H-M "I M M M"
_symmetry_group_IT_number 71
_symmetry_cell_setting 'orthorhombic'
loop_
_space_group_symop_operation_xyz
x,y,z
-x,-y,z
x,-y,-z
-x,y,-z
-x,-y,-z
x,y,-z
-x,y,z
x,-y,z
1/2+x,1/2+y,1/2+z
1/2-x,1/2-y,1/2+z
1/2+x,1/2-y,1/2-z
1/2-x,1/2+y,1/2-z
1/2-x,1/2-y,1/2-z
1/2+x,1/2+y,1/2-z
1/2-x,1/2+y,1/2+z
1/2+x,1/2-y,1/2+z
loop_
_atom_site_type_symbol
_atom_site_label
_atom_site_fract_x
_atom_site_fract_y
_atom_site_fract_z
Si Si1 0.500000 0.318856 0.383035
Si Si2 0.133687 0.319362 0.611538
Si Si3 0.206714 0.677793 0.257655
Si Si4 0.079268 0.681059 0.795047
Si Si5 0.151261 0.831565 0.886830
O O1 0.500000 0.500000 0.380632
O O2 0.500000 0.263408 0.500000
O O3 0.536826 0.255847 0.318415
O O4 0.126558 0.251751 0.500000
O O5 0.134700 0.500000 0.607401
O O6 0.177210 0.262245 0.653062
O O7 0.097342 0.270163 0.685929
O O8 0.212875 0.500000 0.267818
O O9 0.250000 0.750000 0.250000
O O10 0.184928 0.720457 0.155768
O O11 0.076041 0.500000 0.804393
O O12 0.108593 0.748461 0.878579
O O13 0.150557 0.000000 0.835326
O O14 0.162613 0.854455 0.000000
#
# Coordination Sequence:
#
# PCOD8290178 Si02
#       5
#     8  16  16  16  16
#     4  11  23  37  54  77 108 144 173 203 254 319
#     4   8  16  33  55  76 100 134 175 215 259 313
#     4  10  20  33  51  76 105 137 175 220 265 310
#     4  10  20  34  55  81 105 132 170 217 262 306
#     4  10  20  34  52  73 101 138 173 208 258 316
#
# _framework density 18.396398000000001
#
# number of rings (size 3 to 8) (size 9 to 14) (size 15 to 20)
#    0.000    2.333    0.000    4.333    0.000    6.222 
#    0.000    2.778    0.000   26.667    0.000    0.000 
#    0.000    0.000    0.000    0.000    0.000    0.000 
#
# Total GULP energy -446050.612975 kJ/mol
# GULP energy per Si atom -12390.294805 kJ/mol
# Density = 1.835453 g / cm^3
# Si number density = 18.396398 Si / 1000 Ang^3
#
#
#
# Elastic Constant Matrix: (Units=GPa)
#
#
# Indices 1 2 3 4 5 6 
#
# 1 145.0840 19.2909 48.2418 0.0000 0.0000 0.0000
# 2 19.2909 49.5272 19.7442 0.0000 0.0000 0.0000
# 3 48.2418 19.7442 117.7963 0.0000 0.0000 0.0000
# 4 0.0000 0.0000 0.0000 21.8169 0.0000 0.0000
# 5 0.0000 0.0000 0.0000 0.0000 31.8186 0.0000
# 6 0.0000 0.0000 0.0000 0.0000 0.0000 36.3191
#
#
#
# Elastic Compliance Matrix: (Units=1/GPa)
#
#
# Indices 1 2 3 4 5 6 
#
# 1 0.008156 -0.001977 -0.003009 0.000000 0.000000 0.000000
# 2 -0.001977 0.022116 -0.002897 0.000000 0.000000 0.000000
# 3 -0.003009 -0.002897 0.010207 0.000000 0.000000 0.000000
# 4 0.000000 0.000000 0.000000 0.045836 0.000000 0.000000
# 5 0.000000 0.000000 0.000000 0.000000 0.031428 0.000000
# 6 0.000000 0.000000 0.000000 0.000000 0.000000 0.027534
#
#
# Mechanical properties :
#
#
# Convention : Reuss Voigt Hill
#
# Bulk Modulus (GPa) = 40.46518 54.10680 47.28599
# Shear Modulus (GPa) = 29.53674 32.99963 31.26819
#
# Velocity S-wave (km/s) = 4.01131 4.23993 4.12720
# Velocity P-wave (km/s) = 6.59531 7.31060 6.96215
#
# Compressibility (1/GPa) = 0.02471261
#
# Stress axis : x y z
#
# Youngs Moduli (GPa) = 122.61085 45.21604 97.97191
#
# Poissons Ratio (x) = 0.08940 0.29477
# Poissons Ratio (y) = 0.24244 0.28384
# Poissons Ratio (z) = 0.36890 0.13100
#
# Static dielectric constant tensor:
#      x y z
#    x 3.424400 0.000000 0.000000 
#    y 0.000000 3.514030 0.000000 
#    z 0.000000 0.000000 3.621470 
# 
# 
# High freq. dielectric constant tensor:
#      x y z
#    x 1.715470 0.000000 0.000000 
#    y 0.000000 1.710930 0.000000 
#    z 0.000000 0.000000 1.706190 
# 
# From -- ./inp_files/14300.got.cif
#   From: 2010.06.25/outbox.cif.g09.slc.cpg/sg71_8_cif.got.tgz:14300.got - 2010.06.28 04:59:45.
