data_PCOD8290283
_publ_section_title
;
Structure prediction by ZEFSAII (Michael W. Deem and Ramdas Pophale) SiO2 
 PCOD8290283
Probable space group: I M M M
;
_chemical_formula_sum "Si O2"
_cell_formula_units_Z 96
_cell_length_a 28.706059
_cell_length_b 13.584765
_cell_length_c 13.691812
_cell_angle_alpha 90.000000
_cell_angle_beta 90.000000
_cell_angle_gamma 90.000000
_cell_volume 5339.328365
_symmetry_space_group_name_H-M "I M M M"
_symmetry_group_IT_number 71
_symmetry_cell_setting 'orthorhombic'
loop_
_space_group_symop_operation_xyz
x,y,z
-x,-y,z
x,-y,-z
-x,y,-z
-x,-y,-z
x,y,-z
-x,y,z
x,-y,z
1/2+x,1/2+y,1/2+z
1/2-x,1/2-y,1/2+z
1/2+x,1/2-y,1/2-z
1/2-x,1/2+y,1/2-z
1/2-x,1/2-y,1/2-z
1/2+x,1/2+y,1/2-z
1/2-x,1/2+y,1/2+z
1/2+x,1/2-y,1/2+z
loop_
_atom_site_type_symbol
_atom_site_label
_atom_site_fract_x
_atom_site_fract_y
_atom_site_fract_z
Si Si1 0.791281 0.171874 0.249015
Si Si2 0.336398 0.000000 0.613334
Si Si3 0.949223 0.200501 0.114875
Si Si4 0.623040 0.184885 0.274613
Si Si5 0.303764 0.500000 0.614043
Si Si6 0.052765 0.384226 0.387563
Si Si7 0.410144 0.500000 0.383853
Si Si8 0.273878 0.500000 0.890827
O O1 0.750000 0.250000 0.250000
O O2 0.839962 0.229417 0.246041
O O3 0.781798 0.100890 0.155715
O O4 0.792461 0.100378 0.342380
O O5 0.352182 0.907753 0.677227
O O6 0.281397 0.000000 0.611433
O O7 0.355073 0.000000 0.500000
O O8 0.912890 0.283284 0.142564
O O9 0.000000 0.230203 0.154820
O O10 0.935152 0.095390 0.161102
O O11 0.949551 0.190310 0.000000
O O12 0.593318 0.165115 0.176797
O O13 0.295224 0.500000 0.500000
O O14 0.356912 0.500000 0.648844
O O15 0.062978 0.356908 0.500000
O O16 0.055936 0.500000 0.371036
O O17 0.000000 0.349063 0.359501
O O18 0.413120 0.500000 0.500000
O O19 0.293382 0.500000 0.000000
#
# Coordination Sequence:
#
# PCOD8290283 Si02
#       8
#    16   8  16  16   8  16   8   8
#     4  11  23  38  60  86 115 147 194 239 280 343
#     4  11  23  37  57  82 113 153 189 228 285 355
#     4  10  20  33  52  83 119 152 187 227 277 342
#     4  12  21  36  59  83 116 148 191 237 285 337
#     4  10  21  38  60  85 115 150 188 236 285 336
#     4   9  19  37  59  80 106 145 191 238 287 332
#     4   9  16  31  53  79 108 147 189 224 268 326
#     4  10  23  43  59  79 116 155 189 234 292 340
#
# _framework density 17.979790000000001
#
# number of rings (size 3 to 8) (size 9 to 14) (size 15 to 20)
#    0.000    1.667    4.167    1.750    0.000    3.000 
#    0.000    0.000    0.000    2.000    0.000    0.000 
#    0.000    7.000    0.000    0.000    0.000    0.000 
#
# Total GULP energy -594965.182987 kJ/mol
# GULP energy per Si atom -12395.107979 kJ/mol
# Density = 1.793887 g / cm^3
# Si number density = 17.979790 Si / 1000 Ang^3
#
#
#
# Elastic Constant Matrix: (Units=GPa)
#
#
# Indices 1 2 3 4 5 6 
#
# 1 95.5649 51.3212 41.3300 0.0000 0.0000 0.0000
# 2 51.3212 120.8568 51.9154 0.0000 0.0000 0.0000
# 3 41.3300 51.9154 101.5975 0.0000 0.0000 0.0000
# 4 0.0000 0.0000 0.0000 24.2049 0.0000 0.0000
# 5 0.0000 0.0000 0.0000 0.0000 30.0230 0.0000
# 6 0.0000 0.0000 0.0000 0.0000 0.0000 21.8181
#
#
#
# Elastic Compliance Matrix: (Units=1/GPa)
#
#
# Indices 1 2 3 4 5 6 
#
# 1 0.014476 -0.004635 -0.003520 0.000000 0.000000 0.000000
# 2 -0.004635 0.012085 -0.004290 0.000000 0.000000 0.000000
# 3 -0.003520 -0.004290 0.013467 0.000000 0.000000 0.000000
# 4 0.000000 0.000000 0.000000 0.041314 0.000000 0.000000
# 5 0.000000 0.000000 0.000000 0.000000 0.033308 0.000000
# 6 0.000000 0.000000 0.000000 0.000000 0.000000 0.045834
#
#
# Mechanical properties :
#
#
# Convention : Reuss Voigt Hill
#
# Bulk Modulus (GPa) = 66.06099 67.46138 66.76118
# Shear Modulus (GPa) = 26.25786 26.77271 26.51528
#
# Velocity S-wave (km/s) = 3.82568 3.86300 3.84438
# Velocity P-wave (km/s) = 7.50573 7.58282 7.54437
#
# Compressibility (1/GPa) = 0.01513753
#
# Stress axis : x y z
#
# Youngs Moduli (GPa) = 69.08183 82.74586 74.25559
#
# Poissons Ratio (x) = 0.38351 0.26141
# Poissons Ratio (y) = 0.32018 0.31856
# Poissons Ratio (z) = 0.24319 0.35498
#
# Static dielectric constant tensor:
#      x y z
#    x 3.493240 0.000000 0.000000 
#    y 0.000000 3.436690 0.000000 
#    z 0.000000 0.000000 3.297240 
# 
# 
# High freq. dielectric constant tensor:
#      x y z
#    x 1.704200 0.000000 0.000000 
#    y 0.000000 1.704160 0.000000 
#    z 0.000000 0.000000 1.682160 
# 
# From -- ./inp_files/40924.got.cif
#   From: 2010.06.25/outbox.cif.g09.slc.cpg/sg71_21_cif.got.tgz:40924.got - 2010.06.28 04:59:45.
