data_PCOD8290930
_publ_section_title
;
Structure prediction by ZEFSAII (Michael W. Deem and Ramdas Pophale) SiO2 
 PCOD8290930
Probable space group: I M M M
;
_chemical_formula_sum "Si O2"
_cell_formula_units_Z 72
_cell_length_a 23.587044
_cell_length_b 9.061594
_cell_length_c 17.815694
_cell_angle_alpha 90.000000
_cell_angle_beta 90.000000
_cell_angle_gamma 90.000000
_cell_volume 3807.859028
_symmetry_space_group_name_H-M "I M M M"
_symmetry_group_IT_number 71
_symmetry_cell_setting 'orthorhombic'
loop_
_space_group_symop_operation_xyz
x,y,z
-x,-y,z
x,-y,-z
-x,y,-z
-x,-y,-z
x,y,-z
-x,y,z
x,-y,z
1/2+x,1/2+y,1/2+z
1/2-x,1/2-y,1/2+z
1/2+x,1/2-y,1/2-z
1/2-x,1/2+y,1/2-z
1/2-x,1/2-y,1/2-z
1/2+x,1/2+y,1/2-z
1/2-x,1/2+y,1/2+z
1/2+x,1/2-y,1/2+z
loop_
_atom_site_type_symbol
_atom_site_label
_atom_site_fract_x
_atom_site_fract_y
_atom_site_fract_z
Si Si1 0.617566 0.827925 0.641909
Si Si2 0.754708 0.671188 0.828600
Si Si3 0.434354 0.673163 0.785196
Si Si4 0.353324 0.325340 0.083050
Si Si5 0.567008 0.333228 0.500000
O O1 0.684559 0.799920 0.633864
O O2 0.594931 0.762539 0.719168
O O3 0.587516 0.749213 0.573515
O O4 0.602701 0.000000 0.639578
O O5 0.744326 0.500000 0.812660
O O6 0.750000 0.750000 0.750000
O O7 0.706385 0.733873 0.884143
O O8 0.500000 0.715607 0.790867
O O9 0.425786 0.500000 0.769384
O O10 0.404977 0.722070 0.863038
O O11 0.350725 0.500000 0.076625
O O12 0.362904 0.256766 0.000000
O O13 0.590586 0.500000 0.500000
O O14 0.500000 0.333378 0.500000
#
# Coordination Sequence:
#
# PCOD8290930 Si02
#       5
#    16  16  16  16   8
#     4  11  23  37  58  87 116 148 189 238 291 345
#     4  10  20  35  58  83 111 146 186 230 281 338
#     4  10  20  35  57  83 111 148 193 235 280 341
#     4   9  18  33  55  82 113 146 183 234 286 330
#     4  11  25  43  61  83 115 155 196 237 284 344
#
# _framework density 18.908263000000002
#
# number of rings (size 3 to 8) (size 9 to 14) (size 15 to 20)
#    0.000    1.889    2.222    1.667    1.556    5.333 
#    0.000    2.222    0.000    2.000    0.000    1.556 
#    0.000    0.000    0.000    0.000    0.000    0.000 
#
# Total GULP energy -446446.371204 kJ/mol
# GULP energy per Si atom -12401.288089 kJ/mol
# Density = 1.886523 g / cm^3
# Si number density = 18.908263 Si / 1000 Ang^3
#
#
#
# Elastic Constant Matrix: (Units=GPa)
#
#
# Indices 1 2 3 4 5 6 
#
# 1 88.6223 23.1527 16.3356 0.0000 0.0000 0.0000
# 2 23.1527 56.4737 27.4001 0.0000 0.0000 0.0000
# 3 16.3356 27.4001 117.7300 0.0000 0.0000 0.0000
# 4 0.0000 0.0000 0.0000 57.4624 0.0000 0.0000
# 5 0.0000 0.0000 0.0000 0.0000 36.5438 0.0000
# 6 0.0000 0.0000 0.0000 0.0000 0.0000 24.3555
#
#
#
# Elastic Compliance Matrix: (Units=1/GPa)
#
#
# Indices 1 2 3 4 5 6 
#
# 1 0.012677 -0.004897 -0.000619 0.000000 0.000000 0.000000
# 2 -0.004897 0.021853 -0.004407 0.000000 0.000000 0.000000
# 3 -0.000619 -0.004407 0.009606 0.000000 0.000000 0.000000
# 4 0.000000 0.000000 0.000000 0.017403 0.000000 0.000000
# 5 0.000000 0.000000 0.000000 0.000000 0.027364 0.000000
# 6 0.000000 0.000000 0.000000 0.000000 0.000000 0.041058
#
#
# Mechanical properties :
#
#
# Convention : Reuss Voigt Hill
#
# Bulk Modulus (GPa) = 41.16877 44.06700 42.61788
# Shear Modulus (GPa) = 31.66489 36.73484 34.19987
#
# Velocity S-wave (km/s) = 4.09670 4.41249 4.25753
# Velocity P-wave (km/s) = 6.64811 7.02256 6.83790
#
# Compressibility (1/GPa) = 0.02429026
#
# Stress axis : x y z
#
# Youngs Moduli (GPa) = 78.88098 45.76051 104.10691
#
# Poissons Ratio (x) = 0.22408 0.06448
# Poissons Ratio (y) = 0.38627 0.45875
# Poissons Ratio (z) = 0.04886 0.20164
#
# Static dielectric constant tensor:
#      x y z
#    x 3.827560 0.000000 0.000000 
#    y 0.000000 3.363950 0.000000 
#    z 0.000000 0.000000 3.685030 
# 
# 
# High freq. dielectric constant tensor:
#      x y z
#    x 1.751000 0.000000 0.000000 
#    y 0.000000 1.711430 0.000000 
#    z 0.000000 0.000000 1.745050 
# 
# From -- ./inp_files/6061.got.cif
#   From: 2010.06.25/outbox.cif.g09.slc.cpg/sg71_4_cif.got.tgz:6061.got - 2010.06.28 04:59:45.
