data_PCOD8290952
_publ_section_title
;
Structure prediction by ZEFSAII (Michael W. Deem and Ramdas Pophale) SiO2 
 PCOD8290952
Probable space group: I M M M
;
_chemical_formula_sum "Si O2"
_cell_formula_units_Z 88
_cell_length_a 25.509380
_cell_length_b 20.362284
_cell_length_c 8.765897
_cell_angle_alpha 90.000000
_cell_angle_beta 90.000000
_cell_angle_gamma 90.000000
_cell_volume 4553.263219
_symmetry_space_group_name_H-M "I M M M"
_symmetry_group_IT_number 71
_symmetry_cell_setting 'orthorhombic'
loop_
_space_group_symop_operation_xyz
x,y,z
-x,-y,z
x,-y,-z
-x,y,-z
-x,-y,-z
x,y,-z
-x,y,z
x,-y,z
1/2+x,1/2+y,1/2+z
1/2-x,1/2-y,1/2+z
1/2+x,1/2-y,1/2-z
1/2-x,1/2+y,1/2-z
1/2-x,1/2-y,1/2-z
1/2+x,1/2+y,1/2-z
1/2-x,1/2+y,1/2+z
1/2+x,1/2-y,1/2+z
loop_
_atom_site_type_symbol
_atom_site_label
_atom_site_fract_x
_atom_site_fract_y
_atom_site_fract_z
Si Si1 0.192754 0.817632 0.172556
Si Si2 0.000000 0.221361 0.318837
Si Si3 0.298762 0.163009 0.326013
Si Si4 0.441682 0.500000 0.679427
Si Si5 0.093348 0.130563 0.322658
Si Si6 0.000000 0.368703 0.318818
Si Si7 0.610824 0.075921 0.179489
O O1 0.247944 0.849496 0.221880
O O2 0.189352 0.739668 0.183970
O O3 0.150895 0.842987 0.292997
O O4 0.180922 0.840829 0.000000
O O5 0.948862 0.182901 0.259214
O O6 0.000000 0.225531 0.500000
O O7 0.000000 0.294817 0.250679
O O8 0.287351 0.141974 0.500000
O O9 0.347353 0.121223 0.264472
O O10 0.500000 0.500000 0.750725
O O11 0.444315 0.500000 0.500000
O O12 0.410763 0.436919 0.733956
O O13 0.084175 0.117686 0.500000
O O14 0.052309 0.405966 0.261826
O O15 0.000000 0.367251 0.500000
O O16 0.621861 0.000000 0.218704
O O17 0.615648 0.089484 0.000000
#
# Coordination Sequence:
#
# PCOD8290952 Si02
#       7
#    16   8  16   8  16   8  16
#     4  10  21  38  60  86 114 145 188 239 290 343
#     4   9  18  30  52  84 115 146 183 232 281 331
#     4  10  21  38  60  85 114 150 189 234 288 343
#     4  11  23  39  57  79 115 159 195 232 285 342
#     4  11  21  36  58  85 116 150 191 237 286 342
#     4   9  17  32  55  85 116 148 187 228 277 334
#     4  10  20  35  57  84 116 153 192 235 280 332
#
# _framework density 19.326799000000001
#
# number of rings (size 3 to 8) (size 9 to 14) (size 15 to 20)
#    0.000    1.909    0.909    3.273    0.000    5.455 
#    1.636    0.455    0.000    4.364    0.000    0.000 
#    0.000    0.000    0.000    0.000    0.000    0.000 
#
# Total GULP energy -545664.123560 kJ/mol
# GULP energy per Si atom -12401.457354 kJ/mol
# Density = 1.928281 g / cm^3
# Si number density = 19.326799 Si / 1000 Ang^3
#
#
#
# Elastic Constant Matrix: (Units=GPa)
#
#
# Indices 1 2 3 4 5 6 
#
# 1 134.4041 49.6932 32.0204 0.0000 0.0000 0.0000
# 2 49.6932 80.5691 33.0703 0.0000 0.0000 0.0000
# 3 32.0204 33.0703 66.1014 0.0000 0.0000 0.0000
# 4 0.0000 0.0000 0.0000 18.0957 0.0000 0.0000
# 5 0.0000 0.0000 0.0000 0.0000 31.3148 0.0000
# 6 0.0000 0.0000 0.0000 0.0000 0.0000 14.0457
#
#
#
# Elastic Compliance Matrix: (Units=1/GPa)
#
#
# Indices 1 2 3 4 5 6 
#
# 1 0.009883 -0.005198 -0.002187 0.000000 0.000000 0.000000
# 2 -0.005198 0.018353 -0.006664 0.000000 0.000000 0.000000
# 3 -0.002187 -0.006664 0.019522 0.000000 0.000000 0.000000
# 4 0.000000 0.000000 0.000000 0.055262 0.000000 0.000000
# 5 0.000000 0.000000 0.000000 0.000000 0.031934 0.000000
# 6 0.000000 0.000000 0.000000 0.000000 0.000000 0.071196
#
#
# Mechanical properties :
#
#
# Convention : Reuss Voigt Hill
#
# Bulk Modulus (GPa) = 50.86504 56.73805 53.80154
# Shear Modulus (GPa) = 20.76405 23.77729 22.27067
#
# Velocity S-wave (km/s) = 3.28131 3.51133 3.39827
# Velocity P-wave (km/s) = 6.38212 6.77202 6.57996
#
# Compressibility (1/GPa) = 0.01965987
#
# Stress axis : x y z
#
# Youngs Moduli (GPa) = 101.18236 54.48692 51.22530
#
# Poissons Ratio (x) = 0.28323 0.11203
# Poissons Ratio (y) = 0.52595 0.34136
# Poissons Ratio (z) = 0.22128 0.36310
#
# Static dielectric constant tensor:
#      x y z
#    x 3.589260 0.000000 0.000000 
#    y 0.000000 3.547300 0.000000 
#    z 0.000000 0.000000 3.402920 
# 
# 
# High freq. dielectric constant tensor:
#      x y z
#    x 1.761930 0.000000 0.000000 
#    y 0.000000 1.751940 0.000000 
#    z 0.000000 0.000000 1.738680 
# 
# From -- ./inp_files/12640.got.cif
#   From: 2010.06.25/outbox.cif.g09.slc.cpg/sg71_7_cif.got.tgz:12640.got - 2010.06.28 04:59:45.
