data_PCOD8290189
_publ_section_title
;
Structure prediction by ZEFSAII (Michael W. Deem and Ramdas Pophale) SiO2 
 PCOD8290189
Probable space group: I M M M
;
_chemical_formula_sum "Si O2"
_cell_formula_units_Z 80
_cell_length_a 18.393869
_cell_length_b 25.737384
_cell_length_c 9.043371
_cell_angle_alpha 90.000000
_cell_angle_beta 90.000000
_cell_angle_gamma 90.000000
_cell_volume 4281.222895
_symmetry_space_group_name_H-M "I M M M"
_symmetry_group_IT_number 71
_symmetry_cell_setting 'orthorhombic'
loop_
_space_group_symop_operation_xyz
x,y,z
-x,-y,z
x,-y,-z
-x,y,-z
-x,-y,-z
x,y,-z
-x,y,z
x,-y,z
1/2+x,1/2+y,1/2+z
1/2-x,1/2-y,1/2+z
1/2+x,1/2-y,1/2-z
1/2-x,1/2+y,1/2-z
1/2-x,1/2-y,1/2-z
1/2+x,1/2+y,1/2-z
1/2-x,1/2+y,1/2+z
1/2+x,1/2-y,1/2+z
loop_
_atom_site_type_symbol
_atom_site_label
_atom_site_fract_x
_atom_site_fract_y
_atom_site_fract_z
Si Si1 0.584828 0.000000 0.674029
Si Si2 0.083828 0.190318 0.673201
Si Si3 0.418173 0.500000 0.323846
Si Si4 0.165853 0.405516 0.675062
Si Si5 0.080218 0.693864 0.675254
Si Si6 0.332339 0.400279 0.325353
O O1 0.620715 0.050691 0.743115
O O2 0.500000 0.000000 0.714047
O O3 0.598337 0.000000 0.500000
O O4 0.097433 0.183805 0.500000
O O5 0.103925 0.248602 0.727812
O O6 0.137312 0.152403 0.758290
O O7 0.000000 0.177814 0.712357
O O8 0.500000 0.500000 0.262065
O O9 0.416870 0.500000 0.500000
O O10 0.377859 0.448974 0.262946
O O11 0.155962 0.413107 0.500000
O O12 0.136786 0.349462 0.729929
O O13 0.249455 0.409044 0.722890
O O14 0.076039 0.694576 0.500000
O O15 0.000000 0.680483 0.738502
O O16 0.339278 0.395814 0.500000
#
# Coordination Sequence:
#
# PCOD8290189 Si02
#       6
#     8  16   8  16  16  16
#     4  11  24  39  55  79 110 139 170 215 268 312
#     4   9  18  33  52  74 102 137 175 212 254 310
#     4   9  17  30  47  65  92 131 166 200 250 307
#     4  10  20  35  56  79 103 136 178 217 255 309
#     4   8  15  30  52  75  99 132 175 216 252 300
#     4  10  20  33  51  77 104 130 169 219 264 308
#
# _framework density 18.686249
#
# number of rings (size 3 to 8) (size 9 to 14) (size 15 to 20)
#    0.000    2.600    0.000    3.300    0.000    6.000 
#    0.000    1.500    0.000    3.000    0.000    0.000 
#    0.000    0.000    0.000    0.000    0.000    0.000 
#
# Total GULP energy -495959.757128 kJ/mol
# GULP energy per Si atom -12398.993928 kJ/mol
# Density = 1.864372 g / cm^3
# Si number density = 18.686249 Si / 1000 Ang^3
#
#
#
# Elastic Constant Matrix: (Units=GPa)
#
#
# Indices 1 2 3 4 5 6 
#
# 1 164.7348 105.4011 43.7732 0.0000 0.0000 0.0000
# 2 105.4011 171.0363 38.8087 0.0000 0.0000 0.0000
# 3 43.7732 38.8087 30.8087 -0.0001 0.0000 0.0000
# 4 0.0000 0.0000 -0.0001 333.9828 0.0000 0.0000
# 5 0.0000 0.0000 0.0000 0.0000 10.4060 0.0000
# 6 0.0000 0.0000 0.0000 0.0000 0.0000 20.8515
#
#
#
# Elastic Compliance Matrix: (Units=1/GPa)
#
#
# Indices 1 2 3 4 5 6 
#
# 1 0.012216 -0.005027 -0.011025 0.000000 0.000000 0.000000
# 2 -0.005027 0.010255 -0.005776 0.000000 0.000000 0.000000
# 3 -0.011025 -0.005776 0.055398 0.000000 0.000000 0.000000
# 4 0.000000 0.000000 0.000000 0.002994 0.000000 0.000000
# 5 0.000000 0.000000 0.000000 0.000000 0.096098 0.000000
# 6 0.000000 0.000000 0.000000 0.000000 0.000000 0.047958
#
#
# Mechanical properties :
#
#
# Convention : Reuss Voigt Hill
#
# Bulk Modulus (GPa) = 29.22731 82.50509 55.86620
# Shear Modulus (GPa) = 17.85845 84.95450 51.40647
#
# Velocity S-wave (km/s) = 3.09479 6.74999 5.25072
# Velocity P-wave (km/s) = 5.33342 10.24688 8.16835
#
# Compressibility (1/GPa) = 0.03421457
#
# Stress axis : x y z
#
# Youngs Moduli (GPa) = 81.86028 97.51423 18.05106
#
# Poissons Ratio (x) = 0.49016 0.19901
# Poissons Ratio (y) = 0.41147 0.10426
# Poissons Ratio (z) = 0.90249 0.56325
#
# Static dielectric constant tensor:
#      x y z
#    x 3.582660 0.000000 0.000000 
#    y 0.000000 3.767110 0.000000 
#    z 0.000000 0.000000 3.024370 
# 
# 
# High freq. dielectric constant tensor:
#      x y z
#    x 1.733120 0.000000 0.000000 
#    y 0.000000 1.743550 0.000000 
#    z 0.000000 0.000000 1.684730 
# 
# From -- ./inp_files/8439.got.cif
#   From: 2010.06.25/outbox.cif.g09.slc.cpg/sg71_5_cif.got.tgz:8439.got - 2010.06.28 04:59:45.
