data_PCOD8290271
_publ_section_title
;
Structure prediction by ZEFSAII (Michael W. Deem and Ramdas Pophale) SiO2 
 PCOD8290271
Probable space group: I M M M
;
_chemical_formula_sum "Si O2"
_cell_formula_units_Z 96
_cell_length_a 23.602194
_cell_length_b 9.110639
_cell_length_c 22.965149
_cell_angle_alpha 90.000000
_cell_angle_beta 90.000000
_cell_angle_gamma 90.000000
_cell_volume 4938.220542
_symmetry_space_group_name_H-M "I M M M"
_symmetry_group_IT_number 71
_symmetry_cell_setting 'orthorhombic'
loop_
_space_group_symop_operation_xyz
x,y,z
-x,-y,z
x,-y,-z
-x,y,-z
-x,-y,-z
x,y,-z
-x,y,z
x,-y,z
1/2+x,1/2+y,1/2+z
1/2-x,1/2-y,1/2+z
1/2+x,1/2-y,1/2-z
1/2-x,1/2+y,1/2-z
1/2-x,1/2-y,1/2-z
1/2+x,1/2+y,1/2-z
1/2-x,1/2+y,1/2+z
1/2+x,1/2-y,1/2+z
loop_
_atom_site_type_symbol
_atom_site_label
_atom_site_fract_x
_atom_site_fract_y
_atom_site_fract_z
Si Si1 0.434251 0.328346 0.677430
Si Si2 0.567127 0.835722 0.436116
Si Si3 0.671553 0.668906 0.068573
Si Si4 0.260437 0.829082 0.160980
Si Si5 0.835221 0.670949 0.228693
Si Si6 0.437751 0.835937 0.930905
O O1 0.500000 0.288387 0.687569
O O2 0.423253 0.500000 0.682842
O O3 0.412576 0.276156 0.613661
O O4 0.397655 0.243158 0.726064
O O5 0.590355 0.786514 0.500000
O O6 0.500000 0.836608 0.438421
O O7 0.589201 0.000000 0.421470
O O8 0.677230 0.500000 0.086282
O O9 0.720528 0.761663 0.099580
O O10 0.610097 0.724140 0.091031
O O11 0.678747 0.693562 0.000000
O O12 0.203543 0.748524 0.180428
O O13 0.310421 0.800751 0.207354
O O14 0.246995 0.000000 0.153542
O O15 0.838860 0.500000 0.213989
O O16 0.500000 0.786756 0.907679
O O17 0.423413 0.000000 0.907943
O O18 0.439030 0.837578 0.000000
#
# Coordination Sequence:
#
# PCOD8290271 Si02
#       6
#    16  16  16  16  16  16
#     4  10  20  33  52  80 112 143 175 216 265 313
#     4   8  14  26  45  69  99 137 177 213 253 305
#     4  10  20  33  52  80 112 143 175 216 266 316
#     4  10  21  38  60  82 104 136 177 219 264 314
#     4  10  21  38  60  82 104 135 176 220 264 313
#     4   8  14  26  45  69  99 137 178 216 256 307
#
# _framework density 19.440201999999999
#
# number of rings (size 3 to 8) (size 9 to 14) (size 15 to 20)
#    0.000    2.667    0.000    3.000    0.000    4.667 
#    0.000    5.000    0.000    6.000    0.000    0.000 
#    0.000    0.000    0.000    0.000    0.000    0.000 
#
# Total GULP energy -595086.689320 kJ/mol
# GULP energy per Si atom -12397.639361 kJ/mol
# Density = 1.939595 g / cm^3
# Si number density = 19.440202 Si / 1000 Ang^3
#
#
#
# Elastic Constant Matrix: (Units=GPa)
#
#
# Indices 1 2 3 4 5 6 
#
# 1 78.7261 55.0459 29.6471 0.0000 0.0000 0.0000
# 2 55.0459 122.2528 36.4509 0.0000 0.0000 0.0000
# 3 29.6471 36.4509 41.8600 0.0000 0.0000 0.0000
# 4 0.0000 0.0000 0.0000 27.7299 0.0000 0.0000
# 5 0.0000 0.0000 0.0000 0.0000 23.9835 0.0000
# 6 0.0000 0.0000 0.0000 0.0000 0.0000 35.8373
#
#
#
# Elastic Compliance Matrix: (Units=1/GPa)
#
#
# Indices 1 2 3 4 5 6 
#
# 1 0.020708 -0.006688 -0.008843 0.000000 0.000000 0.000000
# 2 -0.006688 0.013208 -0.006765 0.000000 0.000000 0.000000
# 3 -0.008843 -0.006765 0.036043 0.000000 0.000000 0.000000
# 4 0.000000 0.000000 0.000000 0.036062 0.000000 0.000000
# 5 0.000000 0.000000 0.000000 0.000000 0.041695 0.000000
# 6 0.000000 0.000000 0.000000 0.000000 0.000000 0.027904
#
#
# Mechanical properties :
#
#
# Convention : Reuss Voigt Hill
#
# Bulk Modulus (GPa) = 39.41945 53.90295 46.66120
# Shear Modulus (GPa) = 21.86578 25.62317 23.74448
#
# Velocity S-wave (km/s) = 3.35740 3.63444 3.49866
# Velocity P-wave (km/s) = 5.94566 6.73795 6.35416
#
# Compressibility (1/GPa) = 0.02536819
#
# Stress axis : x y z
#
# Youngs Moduli (GPa) = 48.28940 75.71223 27.74469
#
# Poissons Ratio (x) = 0.50633 0.24535
# Poissons Ratio (y) = 0.32294 0.18769
# Poissons Ratio (z) = 0.42703 0.51218
#
# Static dielectric constant tensor:
#      x y z
#    x 3.538350 0.000000 0.000000 
#    y 0.000000 3.614270 0.000000 
#    z 0.000000 0.000000 3.440720 
# 
# 
# High freq. dielectric constant tensor:
#      x y z
#    x 1.745280 0.000000 0.000000 
#    y 0.000000 1.761810 0.000000 
#    z 0.000000 0.000000 1.735300 
# 
# From -- ./inp_files/12857.got.cif
#   From: 2010.06.25/outbox.cif.g09.slc.cpg/sg71_7_cif.got.tgz:12857.got - 2010.06.28 04:59:45.
