data_PCOD8290134
_publ_section_title
;
Structure prediction by ZEFSAII (Michael W. Deem and Ramdas Pophale) SiO2 
 PCOD8290134
Probable space group: I M M M
;
_chemical_formula_sum "Si O2"
_cell_formula_units_Z 96
_cell_length_a 17.034058
_cell_length_b 24.952243
_cell_length_c 12.233041
_cell_angle_alpha 90.000000
_cell_angle_beta 90.000000
_cell_angle_gamma 90.000000
_cell_volume 5199.506724
_symmetry_space_group_name_H-M "I M M M"
_symmetry_group_IT_number 71
_symmetry_cell_setting 'orthorhombic'
loop_
_space_group_symop_operation_xyz
x,y,z
-x,-y,z
x,-y,-z
-x,y,-z
-x,-y,-z
x,y,-z
-x,y,z
x,-y,z
1/2+x,1/2+y,1/2+z
1/2-x,1/2-y,1/2+z
1/2+x,1/2-y,1/2-z
1/2-x,1/2+y,1/2-z
1/2-x,1/2-y,1/2-z
1/2+x,1/2+y,1/2-z
1/2-x,1/2+y,1/2+z
1/2+x,1/2-y,1/2+z
loop_
_atom_site_type_symbol
_atom_site_label
_atom_site_fract_x
_atom_site_fract_y
_atom_site_fract_z
Si Si1 0.085846 0.400751 0.625180
Si Si2 0.207232 0.128051 0.688549
Si Si3 0.247339 0.940025 0.877070
Si Si4 0.360918 0.808696 0.275207
Si Si5 0.592143 0.285894 0.874610
Si Si6 0.716620 0.064235 0.500000
Si Si7 0.087620 0.653867 0.000000
O O1 0.091994 0.381536 0.500000
O O2 0.159313 0.439031 0.654588
O O3 0.089478 0.348957 0.700710
O O4 0.000000 0.428733 0.644671
O O5 0.193747 0.098492 0.803783
O O6 0.270841 0.174632 0.708422
O O7 0.127891 0.154864 0.644250
O O8 0.234969 0.081346 0.606663
O O9 0.216964 0.000000 0.862367
O O10 0.235987 0.919593 0.000000
O O11 0.366009 0.751997 0.214184
O O12 0.397936 0.807808 0.395915
O O13 0.500000 0.288688 0.851835
O O14 0.609372 0.267809 0.000000
O O15 0.636772 0.098686 0.500000
O O16 0.700847 0.000000 0.500000
O O17 0.000000 0.632264 0.000000
#
# Coordination Sequence:
#
# PCOD8290134 Si02
#       7
#    16  16  16  16  16   8   8
#     4   9  16  27  46  74 107 139 176 217 253 299
#     4  10  20  37  54  79 108 138 176 222 265 318
#     4   9  18  32  51  75 102 138 178 215 263 318
#     4  10  20  34  52  76 109 146 176 205 256 320
#     4  11  22  37  59  81 105 134 174 229 278 319
#     4  10  20  35  57  78 104 145 189 229 276 318
#     4  10  20  33  50  77 117 150 181 217 252 320
#
# _framework density 18.463290000000001
#
# number of rings (size 3 to 8) (size 9 to 14) (size 15 to 20)
#    0.000    2.167    0.833    3.000    0.000    2.500 
#    1.500    1.667    0.000    8.500    0.000    1.167 
#    0.000    0.000    0.000    0.000    0.000    0.000 
#
# Total GULP energy -594938.591821 kJ/mol
# GULP energy per Si atom -12394.553996 kJ/mol
# Density = 1.842127 g / cm^3
# Si number density = 18.463290 Si / 1000 Ang^3
#
#
#
# Elastic Constant Matrix: (Units=GPa)
#
#
# Indices 1 2 3 4 5 6 
#
# 1 43.9643 27.6418 28.1830 0.0000 0.0000 0.0000
# 2 27.6418 82.3010 52.1530 0.0000 0.0000 0.0000
# 3 28.1830 52.1530 119.8987 0.0002 0.0000 0.0000
# 4 0.0000 0.0000 0.0002 29.2781 0.0000 0.0000
# 5 0.0000 0.0000 0.0000 0.0000 19.5108 0.0000
# 6 0.0000 0.0000 0.0000 0.0000 0.0000 14.8883
#
#
#
# Elastic Compliance Matrix: (Units=1/GPa)
#
#
# Indices 1 2 3 4 5 6 
#
# 1 0.029967 -0.007732 -0.003680 0.000000 0.000000 0.000000
# 2 -0.007732 0.018769 -0.006347 0.000000 0.000000 0.000000
# 3 -0.003680 -0.006347 0.011966 0.000000 0.000000 0.000000
# 4 0.000000 0.000000 0.000000 0.034155 0.000000 0.000000
# 5 0.000000 0.000000 0.000000 0.000000 0.051254 0.000000
# 6 0.000000 0.000000 0.000000 0.000000 0.000000 0.067167
#
#
# Mechanical properties :
#
#
# Convention : Reuss Voigt Hill
#
# Bulk Modulus (GPa) = 39.70920 51.34665 45.52793
# Shear Modulus (GPa) = 19.44079 21.94786 20.69433
#
# Velocity S-wave (km/s) = 3.24843 3.45154 3.35152
# Velocity P-wave (km/s) = 5.96854 6.61473 6.29993
#
# Compressibility (1/GPa) = 0.02518308
#
# Stress axis : x y z
#
# Youngs Moduli (GPa) = 33.37039 53.27840 83.56916
#
# Poissons Ratio (x) = 0.41197 0.30757
# Poissons Ratio (y) = 0.25803 0.53038
# Poissons Ratio (z) = 0.12282 0.33814
#
# Static dielectric constant tensor:
#      x y z
#    x 3.189150 0.000000 0.000000 
#    y 0.000000 3.146880 0.000000 
#    z 0.000000 0.000000 3.661050 
# 
# 
# High freq. dielectric constant tensor:
#      x y z
#    x 1.690160 0.000000 0.000000 
#    y 0.000000 1.691410 0.000000 
#    z 0.000000 0.000000 1.735590 
# 
# From -- ./inp_files/24280.got.cif
#   From: 2010.06.25/outbox.cif.g09.slc.cpg/sg71_13_cif.got.tgz:24280.got - 2010.06.28 04:59:45.
