data_PCOD8290617
_publ_section_title
;
Structure prediction by ZEFSAII (Michael W. Deem and Ramdas Pophale) SiO2 
 PCOD8290617
Probable space group: I M M M
;
_chemical_formula_sum "Si O2"
_cell_formula_units_Z 112
_cell_length_a 13.675804
_cell_length_b 26.108012
_cell_length_c 14.665545
_cell_angle_alpha 90.000000
_cell_angle_beta 90.000000
_cell_angle_gamma 90.000000
_cell_volume 5236.304317
_symmetry_space_group_name_H-M "I M M M"
_symmetry_group_IT_number 71
_symmetry_cell_setting 'orthorhombic'
loop_
_space_group_symop_operation_xyz
x,y,z
-x,-y,z
x,-y,-z
-x,y,-z
-x,-y,-z
x,y,-z
-x,y,z
x,-y,z
1/2+x,1/2+y,1/2+z
1/2-x,1/2-y,1/2+z
1/2+x,1/2-y,1/2-z
1/2-x,1/2+y,1/2-z
1/2-x,1/2-y,1/2-z
1/2+x,1/2+y,1/2-z
1/2-x,1/2+y,1/2+z
1/2+x,1/2-y,1/2+z
loop_
_atom_site_type_symbol
_atom_site_label
_atom_site_fract_x
_atom_site_fract_y
_atom_site_fract_z
Si Si1 0.115204 0.844201 0.899819
Si Si2 0.614771 0.904697 0.102380
Si Si3 0.383310 0.751206 0.711231
Si Si4 0.305380 0.056598 0.285578
Si Si5 0.116627 0.711204 0.400588
Si Si6 0.384423 0.849718 0.397959
Si Si7 0.890713 0.057338 0.791096
O O1 0.160616 0.800389 0.834013
O O2 0.139796 0.901443 0.867464
O O3 0.000000 0.835702 0.904288
O O4 0.161288 0.836911 0.000000
O O5 0.500000 0.905290 0.123150
O O6 0.666660 0.938905 0.178699
O O7 0.656359 0.846749 0.110869
O O8 0.635440 0.925862 0.000000
O O9 0.500000 0.750095 0.710339
O O10 0.344139 0.754291 0.816045
O O11 0.344212 0.800526 0.656079
O O12 0.355170 0.098048 0.348815
O O13 0.186984 0.061836 0.291445
O O14 0.337452 0.000000 0.319268
O O15 0.149156 0.733496 0.500000
O O16 0.000000 0.708582 0.396573
O O17 0.340650 0.849212 0.500000
O O18 0.500000 0.847444 0.401363
O O19 0.000000 0.069295 0.753283
O O20 0.887014 0.000000 0.833839
#
# Coordination Sequence:
#
# PCOD8290617 Si02
#       7
#    16  16  16  16  16  16  16
#     4   9  17  30  52  82 111 142 183 229 278 333
#     4   9  17  30  48  73 109 150 186 219 263 325
#     4   9  15  27  50  79 112 149 187 223 264 322
#     4  11  22  35  54  79 106 142 190 237 278 328
#     4   8  13  23  43  70 103 147 189 216 248 305
#     4  10  20  34  54  82 118 157 187 215 262 323
#     4   9  20  39  59  78 103 138 182 236 296 345
#
# _framework density 21.389130000000002
#
# number of rings (size 3 to 8) (size 9 to 14) (size 15 to 20)
#    0.000    2.714    1.429    1.714    0.000    4.286 
#    0.000    5.000    0.000    1.286    0.000    4.000 
#    0.000    0.000    0.000    0.000    0.000    0.286 
#
# Total GULP energy -694100.238774 kJ/mol
# GULP energy per Si atom -12394.647121 kJ/mol
# Density = 2.134045 g / cm^3
# Si number density = 21.389130 Si / 1000 Ang^3
#
#
#
# Elastic Constant Matrix: (Units=GPa)
#
#
# Indices 1 2 3 4 5 6 
#
# 1 19.7994 12.8316 9.1209 0.0000 0.0000 0.0000
# 2 12.8316 130.6091 57.9522 0.0006 -0.0001 -0.0001
# 3 9.1209 57.9522 133.6130 0.0013 -0.0002 -0.0002
# 4 0.0000 0.0006 0.0013 19.4499 -0.0001 -0.0001
# 5 0.0000 -0.0001 -0.0002 -0.0001 7.9981 0.0001
# 6 0.0000 -0.0001 -0.0002 -0.0001 0.0001 16.0990
#
#
#
# Elastic Compliance Matrix: (Units=1/GPa)
#
#
# Indices 1 2 3 4 5 6 
#
# 1 0.054260 -0.004566 -0.001724 0.000000 0.000000 0.000000
# 2 -0.004566 0.009865 -0.003967 0.000000 0.000000 0.000000
# 3 -0.001724 -0.003967 0.009323 -0.000001 0.000000 0.000000
# 4 0.000000 0.000000 -0.000001 0.051414 0.000001 0.000000
# 5 0.000000 0.000000 0.000000 0.000001 0.125029 -0.000001
# 6 0.000000 0.000000 0.000000 0.000000 -0.000001 0.062116
#
#
# Mechanical properties :
#
#
# Convention : Reuss Voigt Hill
#
# Bulk Modulus (GPa) = 18.89136 49.31453 34.10294
# Shear Modulus (GPa) = 14.27898 22.31719 18.29808
#
# Velocity S-wave (km/s) = 2.58656 3.23366 2.92804
# Velocity P-wave (km/s) = 4.21566 6.08671 5.23545
#
# Compressibility (1/GPa) = 0.05293426
#
# Stress axis : x y z
#
# Youngs Moduli (GPa) = 18.42987 101.36556 107.26552
#
# Poissons Ratio (x) = 0.46283 0.18488
# Poissons Ratio (y) = 0.08415 0.42554
# Poissons Ratio (z) = 0.03177 0.40214
#
# Static dielectric constant tensor:
#      x y z
#    x 3.804070 0.000000 0.000000 
#    y 0.000000 3.852590 0.000000 
#    z 0.000000 0.000000 3.987400 
# 
# 
# High freq. dielectric constant tensor:
#      x y z
#    x 1.844380 0.000000 0.000000 
#    y 0.000000 1.831390 0.000000 
#    z 0.000000 0.000000 1.816750 
# 
# From -- ./inp_files/34898.got.cif
#   From: 2010.06.25/outbox.cif.g09.slc.cpg/sg71_18_cif.got.tgz:34898.got - 2010.06.28 04:59:45.
