data_PCOD8290022
_publ_section_title
;
Structure prediction by ZEFSAII (Michael W. Deem and Ramdas Pophale) SiO2 
 PCOD8290022
Probable space group: I M M M
;
_chemical_formula_sum "Si O2"
_cell_formula_units_Z 88
_cell_length_a 12.958493
_cell_length_b 28.214416
_cell_length_c 14.697797
_cell_angle_alpha 90.000000
_cell_angle_beta 90.000000
_cell_angle_gamma 90.000000
_cell_volume 5373.754337
_symmetry_space_group_name_H-M "I M M M"
_symmetry_group_IT_number 71
_symmetry_cell_setting 'orthorhombic'
loop_
_space_group_symop_operation_xyz
x,y,z
-x,-y,z
x,-y,-z
-x,y,-z
-x,-y,-z
x,y,-z
-x,y,z
x,-y,z
1/2+x,1/2+y,1/2+z
1/2-x,1/2-y,1/2+z
1/2+x,1/2-y,1/2-z
1/2-x,1/2+y,1/2-z
1/2-x,1/2-y,1/2-z
1/2+x,1/2+y,1/2-z
1/2-x,1/2+y,1/2+z
1/2+x,1/2-y,1/2+z
loop_
_atom_site_type_symbol
_atom_site_label
_atom_site_fract_x
_atom_site_fract_y
_atom_site_fract_z
Si Si1 0.617913 0.724497 0.894622
Si Si2 0.879263 0.143972 0.255300
Si Si3 0.878001 0.500000 0.894671
Si Si4 0.237144 0.682652 0.396338
Si Si5 0.751259 0.051193 0.260918
Si Si6 0.882132 0.589648 0.396713
O O1 0.500000 0.739356 0.874526
O O2 0.648225 0.677619 0.839631
O O3 0.691999 0.767136 0.863322
O O4 0.634045 0.712528 0.000000
O O5 0.834003 0.167246 0.164188
O O6 0.832152 0.092768 0.278512
O O7 0.000000 0.137467 0.240155
O O8 0.829601 0.453092 0.845623
O O9 0.000000 0.500000 0.882007
O O10 0.846073 0.500000 0.000000
O O11 0.276756 0.685730 0.500000
O O12 0.144830 0.645050 0.386823
O O13 0.689071 0.058563 0.167871
O O14 0.809205 0.000000 0.251353
O O15 0.863512 0.572445 0.500000
O O16 0.000000 0.582653 0.367515
#
# Coordination Sequence:
#
# PCOD8290022 Si02
#       6
#    16  16   8  16  16  16
#     4   9  17  30  50  74  98 123 155 200 250 294
#     4  10  20  33  49  70  97 131 169 205 239 277
#     4   9  18  34  54  72  92 121 156 196 246 296
#     4   9  17  30  48  72 100 129 159 191 235 293
#     4   9  20  33  47  69  96 127 165 204 241 286
#     4   9  16  27  47  74 101 124 149 190 243 296
#
# _framework density 16.375888
#
# number of rings (size 3 to 8) (size 9 to 14) (size 15 to 20)
#    0.545    2.273    0.000    1.636    0.000    4.000 
#    0.000    0.909    0.000    1.636    0.000    5.091 
#    0.000    0.000    0.000    0.000    0.000    0.000 
#
# Total GULP energy -545396.175165 kJ/mol
# GULP energy per Si atom -12395.367617 kJ/mol
# Density = 1.633862 g / cm^3
# Si number density = 16.375888 Si / 1000 Ang^3
#
#
#
# Elastic Constant Matrix: (Units=GPa)
#
#
# Indices 1 2 3 4 5 6 
#
# 1 84.7283 59.4874 45.7942 -0.0001 0.0000 0.0000
# 2 59.4874 132.1762 54.6285 0.0001 0.0000 0.0000
# 3 45.7942 54.6285 86.8183 -0.0018 0.0011 -0.0002
# 4 -0.0001 0.0001 -0.0018 26.8923 0.0003 -0.0001
# 5 0.0000 0.0000 0.0011 0.0003 24.1169 0.0001
# 6 0.0000 0.0000 -0.0002 -0.0001 0.0001 24.2941
#
#
#
# Elastic Compliance Matrix: (Units=1/GPa)
#
#
# Indices 1 2 3 4 5 6 
#
# 1 0.019626 -0.006155 -0.006479 0.000000 0.000000 0.000000
# 2 -0.006155 0.012155 -0.004402 0.000000 0.000000 0.000000
# 3 -0.006479 -0.004402 0.017706 0.000001 -0.000001 0.000000
# 4 0.000000 0.000000 0.000001 0.037185 0.000000 0.000000
# 5 0.000000 0.000000 -0.000001 0.000000 0.041465 0.000000
# 6 0.000000 0.000000 0.000000 0.000000 0.000000 0.041162
#
#
# Mechanical properties :
#
#
# Convention : Reuss Voigt Hill
#
# Bulk Modulus (GPa) = 64.87329 69.28255 67.07792
# Shear Modulus (GPa) = 23.97987 24.64817 24.31402
#
# Velocity S-wave (km/s) = 3.83082 3.88384 3.85742
# Velocity P-wave (km/s) = 7.69857 7.90644 7.80320
#
# Compressibility (1/GPa) = 0.01541466
#
# Stress axis : x y z
#
# Youngs Moduli (GPa) = 50.95380 82.27079 56.47950
#
# Poissons Ratio (x) = 0.50637 0.36594
# Poissons Ratio (y) = 0.31362 0.24861
# Poissons Ratio (z) = 0.33014 0.36213
#
# Static dielectric constant tensor:
#      x y z
#    x 2.900690 0.000000 0.000000 
#    y 0.000000 3.099410 0.000000 
#    z 0.000000 0.000000 3.149760 
# 
# 
# High freq. dielectric constant tensor:
#      x y z
#    x 1.615190 0.000000 0.000000 
#    y 0.000000 1.630680 0.000000 
#    z 0.000000 0.000000 1.633210 
# 
# From -- ./inp_files/33128.got.cif
#   From: 2010.06.25/outbox.cif.g09.slc.cpg/sg71_17_cif.got.tgz:33128.got - 2010.06.28 04:59:45.
