data_PCOD8290249
_publ_section_title
;
Structure prediction by ZEFSAII (Michael W. Deem and Ramdas Pophale) SiO2 
 PCOD8290249
Probable space group: I M M M
;
_chemical_formula_sum "Si O2"
_cell_formula_units_Z 112
_cell_length_a 22.615557
_cell_length_b 28.674575
_cell_length_c 9.588845
_cell_angle_alpha 90.000000
_cell_angle_beta 90.000000
_cell_angle_gamma 90.000000
_cell_volume 6218.284337
_symmetry_space_group_name_H-M "I M M M"
_symmetry_group_IT_number 71
_symmetry_cell_setting 'orthorhombic'
loop_
_space_group_symop_operation_xyz
x,y,z
-x,-y,z
x,-y,-z
-x,y,-z
-x,-y,-z
x,y,-z
-x,y,z
x,-y,z
1/2+x,1/2+y,1/2+z
1/2-x,1/2-y,1/2+z
1/2+x,1/2-y,1/2-z
1/2-x,1/2+y,1/2-z
1/2-x,1/2-y,1/2-z
1/2+x,1/2+y,1/2-z
1/2-x,1/2+y,1/2+z
1/2+x,1/2-y,1/2+z
loop_
_atom_site_type_symbol
_atom_site_label
_atom_site_fract_x
_atom_site_fract_y
_atom_site_fract_z
Si Si1 0.161109 0.051984 0.340300
Si Si2 0.630263 0.869546 0.336184
Si Si3 0.734553 0.640709 0.837889
Si Si4 0.067880 0.446173 0.661009
Si Si5 0.859697 0.189251 0.161723
Si Si6 0.566104 0.223604 0.334399
Si Si7 0.432712 0.402703 0.339623
O O1 0.142146 0.058644 0.500000
O O2 0.211787 0.088836 0.299187
O O3 0.102635 0.059350 0.249078
O O4 0.186079 0.000000 0.312798
O O5 0.623919 0.879441 0.500000
O O6 0.697185 0.856854 0.296391
O O7 0.610744 0.915723 0.256155
O O8 0.589874 0.826595 0.286418
O O9 0.699619 0.679442 0.749153
O O10 0.724724 0.652142 0.000000
O O11 0.079201 0.433801 0.500000
O O12 0.082990 0.500000 0.689844
O O13 0.000000 0.435845 0.700908
O O14 0.890060 0.236184 0.220818
O O15 0.907061 0.148611 0.185244
O O16 0.841691 0.194111 0.000000
O O17 0.564127 0.226933 0.500000
O O18 0.500000 0.230392 0.273195
O O19 0.427578 0.417490 0.500000
O O20 0.500000 0.402442 0.288352
#
# Coordination Sequence:
#
# PCOD8290249 Si02
#       7
#    16  16  16  16  16  16  16
#     4   9  18  32  47  62  86 123 160 193 236 289
#     4  10  20  33  52  78 104 131 166 206 247 292
#     4   9  19  34  49  69  99 130 162 204 247 285
#     4   9  19  36  55  75 103 137 168 202 249 300
#     4   9  17  31  51  71  93 128 169 199 233 290
#     4   9  17  30  50  76 103 128 158 202 251 294
#     4   9  17  29  46  68  92 118 152 196 241 283
#
# _framework density 18.011399999999998
#
# number of rings (size 3 to 8) (size 9 to 14) (size 15 to 20)
#    0.000    2.857    0.000    1.286    0.000    5.429 
#    0.000    4.286    0.000    2.143    0.000    0.000 
#    0.000    0.000    0.000    0.000    0.000    0.000 
#
# Total GULP energy -694435.062082 kJ/mol
# GULP energy per Si atom -12400.626109 kJ/mol
# Density = 1.797041 g / cm^3
# Si number density = 18.011400 Si / 1000 Ang^3
#
#
#
# Elastic Constant Matrix: (Units=GPa)
#
#
# Indices 1 2 3 4 5 6 
#
# 1 127.6583 57.6134 49.4734 0.0000 0.0000 0.0000
# 2 57.6134 103.7527 40.9426 0.0000 0.0000 0.0000
# 3 49.4734 40.9426 49.3840 0.0000 0.0000 0.0000
# 4 0.0000 0.0000 0.0000 22.4499 0.0000 0.0000
# 5 0.0000 0.0000 0.0000 0.0000 28.2254 0.0000
# 6 0.0000 0.0000 0.0000 0.0000 0.0000 27.4485
#
#
#
# Elastic Compliance Matrix: (Units=1/GPa)
#
#
# Indices 1 2 3 4 5 6 
#
# 1 0.013486 -0.003206 -0.010852 0.000000 0.000000 0.000000
# 2 -0.003206 0.015087 -0.009296 0.000000 0.000000 0.000000
# 3 -0.010852 -0.009296 0.038829 0.000000 0.000000 0.000000
# 4 0.000000 0.000000 0.000000 0.044544 0.000000 0.000000
# 5 0.000000 0.000000 0.000000 0.000000 0.035429 0.000000
# 6 0.000000 0.000000 0.000000 0.000000 0.000000 0.036432
#
#
# Mechanical properties :
#
#
# Convention : Reuss Voigt Hill
#
# Bulk Modulus (GPa) = 48.32713 64.09486 56.21099
# Shear Modulus (GPa) = 21.06029 24.47582 22.76805
#
# Velocity S-wave (km/s) = 3.42318 3.69033 3.55926
# Velocity P-wave (km/s) = 6.52026 7.33628 6.94028
#
# Compressibility (1/GPa) = 0.02069231
#
# Stress axis : x y z
#
# Youngs Moduli (GPa) = 74.14967 66.28152 25.75421
#
# Poissons Ratio (x) = 0.21252 0.27949
# Poissons Ratio (y) = 0.23775 0.23941
# Poissons Ratio (z) = 0.80470 0.61616
#
# Static dielectric constant tensor:
#      x y z
#    x 3.346170 0.000000 0.000000 
#    y 0.000000 3.360150 0.000000 
#    z 0.000000 0.000000 3.156650 
# 
# 
# High freq. dielectric constant tensor:
#      x y z
#    x 1.697690 0.000000 0.000000 
#    y 0.000000 1.700910 0.000000 
#    z 0.000000 0.000000 1.675590 
# 
# From -- ./inp_files/26233.got.cif
#   From: 2010.06.25/outbox.cif.g09.slc.cpg/sg71_14_cif.got.tgz:26233.got - 2010.06.28 04:59:45.
