data_PCOD8290987
_publ_section_title
;
Structure prediction by ZEFSAII (Michael W. Deem and Ramdas Pophale) SiO2 
 PCOD8290987
Probable space group: I M M M
;
_chemical_formula_sum "Si O2"
_cell_formula_units_Z 88
_cell_length_a 20.483407
_cell_length_b 15.654155
_cell_length_c 14.398861
_cell_angle_alpha 90.000000
_cell_angle_beta 90.000000
_cell_angle_gamma 90.000000
_cell_volume 4617.000944
_symmetry_space_group_name_H-M "I M M M"
_symmetry_group_IT_number 71
_symmetry_cell_setting 'orthorhombic'
loop_
_space_group_symop_operation_xyz
x,y,z
-x,-y,z
x,-y,-z
-x,y,-z
-x,-y,-z
x,y,-z
-x,y,z
x,-y,z
1/2+x,1/2+y,1/2+z
1/2-x,1/2-y,1/2+z
1/2+x,1/2-y,1/2-z
1/2-x,1/2+y,1/2-z
1/2-x,1/2-y,1/2-z
1/2+x,1/2+y,1/2-z
1/2-x,1/2+y,1/2+z
1/2+x,1/2-y,1/2+z
loop_
_atom_site_type_symbol
_atom_site_label
_atom_site_fract_x
_atom_site_fract_y
_atom_site_fract_z
Si Si1 0.613839 0.174465 0.265576
Si Si2 0.426640 0.703626 0.894698
Si Si3 0.000000 0.398828 0.108701
Si Si4 0.694535 0.595230 0.145381
Si Si5 0.729280 0.092018 0.174802
Si Si6 0.712432 0.245434 0.400375
O O1 0.580346 0.218029 0.177127
O O2 0.563348 0.137665 0.339882
O O3 0.660397 0.098870 0.229088
O O4 0.659490 0.243868 0.318335
O O5 0.500000 0.667949 0.886450
O O6 0.379474 0.625657 0.869129
O O7 0.412940 0.736648 0.000000
O O8 0.000000 0.500000 0.117769
O O9 0.000000 0.371306 0.000000
O O10 0.702266 0.500000 0.102288
O O11 0.710284 0.592471 0.254235
O O12 0.743688 0.660571 0.096041
O O13 0.739189 0.173152 0.108348
O O14 0.728929 0.000000 0.121943
O O15 0.676681 0.252445 0.500000
#
# Coordination Sequence:
#
# PCOD8290987 Si02
#       6
#    16  16   8  16  16  16
#     4  11  20  39  58  84 117 154 194 239 289 343
#     4  11  22  36  58  84 111 150 196 239 286 345
#     4  11  24  40  61  89 120 155 197 243 291 346
#     4  10  20  37  58  82 116 150 185 240 300 347
#     4  10  20  35  58  85 114 152 194 238 291 345
#     4  11  21  35  58  87 118 152 193 239 291 353
#
# _framework density 19.059992999999999
#
# number of rings (size 3 to 8) (size 9 to 14) (size 15 to 20)
#    0.000    1.364    4.545    2.727    0.000    2.909 
#    0.000    0.909    0.000    2.182    0.000    0.000 
#    0.000    5.818    0.000    0.000    0.000    0.000 
#
# Total GULP energy -545335.357260 kJ/mol
# GULP energy per Si atom -12393.985392 kJ/mol
# Density = 1.901661 g / cm^3
# Si number density = 19.059993 Si / 1000 Ang^3
#
#
#
# Elastic Constant Matrix: (Units=GPa)
#
#
# Indices 1 2 3 4 5 6 
#
# 1 111.2674 39.2929 36.1224 0.0000 0.0000 0.0000
# 2 39.2929 138.9692 47.4047 0.0000 0.0000 0.0000
# 3 36.1224 47.4047 93.9884 0.0000 0.0000 0.0000
# 4 0.0000 0.0000 0.0000 8.2300 0.0000 0.0000
# 5 0.0000 0.0000 0.0000 0.0000 20.4190 0.0000
# 6 0.0000 0.0000 0.0000 0.0000 0.0000 19.9871
#
#
#
# Elastic Compliance Matrix: (Units=1/GPa)
#
#
# Indices 1 2 3 4 5 6 
#
# 1 0.010692 -0.001958 -0.003122 0.000000 0.000000 0.000000
# 2 -0.001958 0.009050 -0.003812 0.000000 0.000000 0.000000
# 3 -0.003122 -0.003812 0.013762 0.000000 0.000000 0.000000
# 4 0.000000 0.000000 0.000000 0.121506 0.000000 0.000000
# 5 0.000000 0.000000 0.000000 0.000000 0.048974 0.000000
# 6 0.000000 0.000000 0.000000 0.000000 0.000000 0.050032
#
#
# Mechanical properties :
#
#
# Convention : Reuss Voigt Hill
#
# Bulk Modulus (GPa) = 63.61126 65.54056 64.57591
# Shear Modulus (GPa) = 18.04790 24.48754 21.26772
#
# Velocity S-wave (km/s) = 3.08051 3.58825 3.34403
# Velocity P-wave (km/s) = 6.78966 7.18529 6.99027
#
# Compressibility (1/GPa) = 0.01572049
#
# Stress axis : x y z
#
# Youngs Moduli (GPa) = 93.52465 110.49943 72.66446
#
# Poissons Ratio (x) = 0.21640 0.22683
# Poissons Ratio (y) = 0.18316 0.27698
# Poissons Ratio (z) = 0.29195 0.42120
#
# Static dielectric constant tensor:
#      x y z
#    x 3.513950 0.000000 0.000000 
#    y 0.000000 3.511030 0.000000 
#    z 0.000000 0.000000 3.504410 
# 
# 
# High freq. dielectric constant tensor:
#      x y z
#    x 1.735350 0.000000 0.000000 
#    y 0.000000 1.735050 0.000000 
#    z 0.000000 0.000000 1.742090 
# 
# From -- ./inp_files/37724.got.cif
#   From: 2010.06.25/outbox.cif.g09.slc.cpg/sg71_19_cif.got.tgz:37724.got - 2010.06.28 04:59:45.
