data_PCOD8290789
_publ_section_title
;
Structure prediction by ZEFSAII (Michael W. Deem and Ramdas Pophale) SiO2 
 PCOD8290789
Probable space group: I M M M
;
_chemical_formula_sum "Si O2"
_cell_formula_units_Z 64
_cell_length_a 9.384984
_cell_length_b 27.195265
_cell_length_c 13.810147
_cell_angle_alpha 90.000000
_cell_angle_beta 90.000000
_cell_angle_gamma 90.000000
_cell_volume 3524.724141
_symmetry_space_group_name_H-M "I M M M"
_symmetry_group_IT_number 71
_symmetry_cell_setting 'orthorhombic'
loop_
_space_group_symop_operation_xyz
x,y,z
-x,-y,z
x,-y,-z
-x,y,-z
-x,-y,-z
x,y,-z
-x,y,z
x,-y,z
1/2+x,1/2+y,1/2+z
1/2-x,1/2-y,1/2+z
1/2+x,1/2-y,1/2-z
1/2-x,1/2+y,1/2-z
1/2-x,1/2-y,1/2-z
1/2+x,1/2+y,1/2-z
1/2-x,1/2+y,1/2+z
1/2+x,1/2-y,1/2+z
loop_
_atom_site_type_symbol
_atom_site_label
_atom_site_fract_x
_atom_site_fract_y
_atom_site_fract_z
Si Si1 0.500000 0.186549 0.884577
Si Si2 0.341850 0.942504 0.000000
Si Si3 0.500000 0.192214 0.386898
Si Si4 0.166543 0.944445 0.812833
Si Si5 0.000000 0.221607 0.739994
Si Si6 0.730829 0.848232 0.258997
O O1 0.500000 0.244213 0.855548
O O2 0.639219 0.160734 0.838598
O O3 0.500000 0.181170 0.000000
O O4 0.251469 0.927286 0.092692
O O5 0.500000 0.916920 0.000000
O O6 0.365931 0.000000 0.000000
O O7 0.500000 0.200792 0.500000
O O8 0.500000 0.245059 0.335817
O O9 0.361284 0.161423 0.355004
O O10 0.213154 0.904576 0.732699
O O11 0.000000 0.941092 0.836147
O O12 0.206837 0.000000 0.779300
O O13 0.861627 0.188520 0.741767
#
# Coordination Sequence:
#
# PCOD8290789 Si02
#       6
#     8   8   8  16   8  16
#     4  10  22  36  54  81 112 142 177 225 274 322
#     4   9  19  31  49  77 111 149 185 215 257 325
#     4  10  22  40  58  79 111 144 180 230 278 319
#     4  10  20  35  54  78 113 150 182 221 270 324
#     4  10  20  38  57  82 112 140 183 227 266 323
#     4  10  21  36  57  83 110 142 184 222 265 327
#
# _framework density 18.157449
#
# number of rings (size 3 to 8) (size 9 to 14) (size 15 to 20)
#    0.000    2.375    1.250    3.375    5.250    5.500 
#    0.000    0.000    0.000    1.500    0.000    1.750 
#    0.000    0.000    0.000    0.000    0.000    0.000 
#
# Total GULP energy -396650.367101 kJ/mol
# GULP energy per Si atom -12395.323972 kJ/mol
# Density = 1.811612 g / cm^3
# Si number density = 18.157449 Si / 1000 Ang^3
#
#
#
# Elastic Constant Matrix: (Units=GPa)
#
#
# Indices 1 2 3 4 5 6 
#
# 1 128.7842 50.6202 26.1032 0.0001 -0.0001 0.0001
# 2 50.6202 135.0022 25.6603 0.0001 -0.0002 0.0001
# 3 26.1032 25.6603 89.7777 0.0002 -0.0003 0.0001
# 4 0.0001 0.0001 0.0002 11.0173 -0.0001 0.0001
# 5 -0.0001 -0.0002 -0.0003 -0.0001 18.2155 0.0000
# 6 0.0001 0.0001 0.0001 0.0001 0.0000 31.1405
#
#
#
# Elastic Compliance Matrix: (Units=1/GPa)
#
#
# Indices 1 2 3 4 5 6 
#
# 1 0.009380 -0.003171 -0.001821 0.000000 0.000000 0.000000
# 2 -0.003171 0.008905 -0.001623 0.000000 0.000000 0.000000
# 3 -0.001821 -0.001623 0.012132 0.000000 0.000000 0.000000
# 4 0.000000 0.000000 0.000000 0.090767 0.000000 0.000000
# 5 0.000000 0.000000 0.000000 0.000000 0.054898 0.000000
# 6 0.000000 0.000000 0.000000 0.000000 0.000000 0.032113
#
#
# Mechanical properties :
#
#
# Convention : Reuss Voigt Hill
#
# Bulk Modulus (GPa) = 58.18465 62.03684 60.11074
# Shear Modulus (GPa) = 22.01144 28.82000 25.41572
#
# Velocity S-wave (km/s) = 3.48552 3.98832 3.74537
# Velocity P-wave (km/s) = 6.95072 7.44642 7.20284
#
# Compressibility (1/GPa) = 0.01718666
#
# Stress axis : x y z
#
# Youngs Moduli (GPa) = 106.60416 112.29818 82.42646
#
# Poissons Ratio (x) = 0.35612 0.15010
# Poissons Ratio (y) = 0.33806 0.13379
# Poissons Ratio (z) = 0.19413 0.18228
#
# Static dielectric constant tensor:
#      x y z
#    x 2.957290 0.000000 0.000000 
#    y 0.000000 3.533660 0.000000 
#    z 0.000000 0.000000 3.011380 
# 
# 
# High freq. dielectric constant tensor:
#      x y z
#    x 1.726180 0.000000 0.000000 
#    y 0.000000 1.716570 0.000000 
#    z 0.000000 0.000000 1.657130 
# 
# From -- ./inp_files/31380.got.cif
#   From: 2010.06.25/outbox.cif.g09.slc.cpg/sg71_16_cif.got.tgz:31380.got - 2010.06.28 04:59:45.
