data_PCOD8290001
_publ_section_title
;
Structure prediction by ZEFSAII (Michael W. Deem and Ramdas Pophale) SiO2 
 PCOD8290001
Probable space group: I M M M
;
_chemical_formula_sum "Si O2"
_cell_formula_units_Z 104
_cell_length_a 22.020931
_cell_length_b 25.824106
_cell_length_c 9.293564
_cell_angle_alpha 90.000000
_cell_angle_beta 90.000000
_cell_angle_gamma 90.000000
_cell_volume 5284.978999
_symmetry_space_group_name_H-M "I M M M"
_symmetry_group_IT_number 71
_symmetry_cell_setting 'orthorhombic'
loop_
_space_group_symop_operation_xyz
x,y,z
-x,-y,z
x,-y,-z
-x,y,-z
-x,-y,-z
x,y,-z
-x,y,z
x,-y,z
1/2+x,1/2+y,1/2+z
1/2-x,1/2-y,1/2+z
1/2+x,1/2-y,1/2-z
1/2-x,1/2+y,1/2-z
1/2-x,1/2-y,1/2-z
1/2+x,1/2+y,1/2-z
1/2-x,1/2+y,1/2+z
1/2+x,1/2-y,1/2+z
loop_
_atom_site_type_symbol
_atom_site_label
_atom_site_fract_x
_atom_site_fract_y
_atom_site_fract_z
Si Si1 0.000000 0.060918 0.330827
Si Si2 0.904555 0.127610 0.167336
Si Si3 0.910594 0.500000 0.332345
Si Si4 0.567187 0.256174 0.329767
Si Si5 0.835227 0.324928 0.168317
Si Si6 0.264216 0.612940 0.331473
Si Si7 0.064282 0.406147 0.842066
Si Si8 0.273484 0.000000 0.169952
O O1 0.060401 0.085093 0.260828
O O2 0.000000 0.072636 0.500000
O O3 0.000000 0.000000 0.298785
O O4 0.926885 0.184141 0.214069
O O5 0.833596 0.125292 0.200104
O O6 0.918476 0.116738 0.000000
O O7 0.916152 0.500000 0.500000
O O8 0.944172 0.450200 0.274406
O O9 0.841995 0.500000 0.277287
O O10 0.569089 0.248492 0.500000
O O11 0.500000 0.237618 0.273271
O O12 0.626650 0.224797 0.270572
O O13 0.774502 0.341138 0.254244
O O14 0.880523 0.371029 0.201344
O O15 0.818817 0.318160 0.000000
O O16 0.247759 0.615570 0.500000
O O17 0.254330 0.554223 0.270414
O O18 0.000000 0.374822 0.842491
O O19 0.075926 0.430256 0.000000
O O20 0.265202 0.000000 0.000000
#
# Coordination Sequence:
#
# PCOD8290001 Si02
#       8
#     8  16   8  16  16  16  16   8
#     4  11  25  43  63  93 133 161 183 232 299 354
#     4  10  21  39  67  94 116 152 200 238 279 345
#     4  11  20  32  51  70  97 141 183 233 297 346
#     4   9  17  34  60  88 115 148 194 245 289 335
#     4  10  20  34  55  80 111 152 195 235 286 346
#     4  10  21  37  57  84 116 150 193 244 291 341
#     4  10  20  33  48  71 102 140 188 238 283 338
#     4   9  18  34  52  72 109 152 184 231 291 336
#
# _framework density 19.678412000000002
#
# number of rings (size 3 to 8) (size 9 to 14) (size 15 to 20)
#    0.000    2.077    2.308    1.154    1.077    4.923 
#    0.000    1.154    0.000    0.923    0.000    0.000 
#    0.000    0.000    0.000    0.000    0.000    0.000 
#
# Total GULP energy -644243.884585 kJ/mol
# GULP energy per Si atom -12389.305473 kJ/mol
# Density = 1.963362 g / cm^3
# Si number density = 19.678412 Si / 1000 Ang^3
#
#
#
# Elastic Constant Matrix: (Units=GPa)
#
#
# Indices 1 2 3 4 5 6 
#
# 1 133.4007 61.2609 49.9965 0.0000 0.0000 0.0000
# 2 61.2609 107.4672 43.7926 0.0000 0.0000 0.0000
# 3 49.9965 43.7926 59.7340 0.0000 0.0000 0.0000
# 4 0.0000 0.0000 0.0000 19.6969 0.0000 0.0000
# 5 0.0000 0.0000 0.0000 0.0000 27.2575 0.0000
# 6 0.0000 0.0000 0.0000 0.0000 0.0000 17.7087
#
#
#
# Elastic Compliance Matrix: (Units=1/GPa)
#
#
# Indices 1 2 3 4 5 6 
#
# 1 0.011973 -0.003910 -0.007155 0.000000 0.000000 0.000000
# 2 -0.003910 0.014546 -0.007392 0.000000 0.000000 0.000000
# 3 -0.007155 -0.007392 0.028149 0.000000 0.000000 0.000000
# 4 0.000000 0.000000 0.000000 0.050769 0.000000 0.000000
# 5 0.000000 0.000000 0.000000 0.000000 0.036687 0.000000
# 6 0.000000 0.000000 0.000000 0.000000 0.000000 0.056469
#
#
# Mechanical properties :
#
#
# Convention : Reuss Voigt Hill
#
# Bulk Modulus (GPa) = 56.32254 67.85576 62.08915
# Shear Modulus (GPa) = 20.71033 22.63607 21.67320
#
# Velocity S-wave (km/s) = 3.24765 3.39529 3.32229
# Velocity P-wave (km/s) = 6.53809 7.06596 6.80714
#
# Compressibility (1/GPa) = 0.01775488
#
# Stress axis : x y z
#
# Youngs Moduli (GPa) = 83.51968 68.74793 35.52539
#
# Poissons Ratio (x) = 0.26877 0.25419
# Poissons Ratio (y) = 0.32652 0.26260
# Poissons Ratio (z) = 0.59760 0.50817
#
# Static dielectric constant tensor:
#      x y z
#    x 3.308910 0.000000 0.000000 
#    y 0.000000 3.718800 0.000000 
#    z 0.000000 0.000000 3.275100 
# 
# 
# High freq. dielectric constant tensor:
#      x y z
#    x 1.783800 0.000000 0.000000 
#    y 0.000000 1.769150 0.000000 
#    z 0.000000 0.000000 1.728030 
# 
# From -- ./inp_files/11205.got.cif
#   From: 2010.06.25/outbox.cif.g09.slc.cpg/sg71_6_cif.got.tgz:11205.got - 2010.06.28 04:59:45.
