data_PCOD8290275
_publ_section_title
;
Structure prediction by ZEFSAII (Michael W. Deem and Ramdas Pophale) SiO2 
 PCOD8290275
Probable space group: I M M M
;
_chemical_formula_sum "Si O2"
_cell_formula_units_Z 104
_cell_length_a 29.428173
_cell_length_b 22.441254
_cell_length_c 8.954554
_cell_angle_alpha 90.000000
_cell_angle_beta 90.000000
_cell_angle_gamma 90.000000
_cell_volume 5913.633175
_symmetry_space_group_name_H-M "I M M M"
_symmetry_group_IT_number 71
_symmetry_cell_setting 'orthorhombic'
loop_
_space_group_symop_operation_xyz
x,y,z
-x,-y,z
x,-y,-z
-x,y,-z
-x,-y,-z
x,y,-z
-x,y,z
x,-y,z
1/2+x,1/2+y,1/2+z
1/2-x,1/2-y,1/2+z
1/2+x,1/2-y,1/2-z
1/2-x,1/2+y,1/2-z
1/2-x,1/2-y,1/2-z
1/2+x,1/2+y,1/2-z
1/2-x,1/2+y,1/2+z
1/2+x,1/2-y,1/2+z
loop_
_atom_site_type_symbol
_atom_site_label
_atom_site_fract_x
_atom_site_fract_y
_atom_site_fract_z
Si Si1 0.208193 0.429263 0.334702
Si Si2 0.605048 0.384899 0.177137
Si Si3 0.448988 0.500000 0.822459
Si Si4 0.447630 0.844222 0.173056
Si Si5 0.191148 0.068291 0.823928
Si Si6 0.380458 0.070340 0.329245
Si Si7 0.052547 0.221687 0.174898
O O1 0.197298 0.403827 0.500000
O O2 0.209403 0.500000 0.342994
O O3 0.258253 0.408262 0.281972
O O4 0.169467 0.406937 0.221264
O O5 0.576578 0.441486 0.237403
O O6 0.656427 0.389912 0.235220
O O7 0.583100 0.325629 0.240636
O O8 0.604872 0.381734 0.000000
O O9 0.500000 0.500000 0.757301
O O10 0.449860 0.500000 0.000000
O O11 0.500000 0.860334 0.201740
O O12 0.418790 0.900274 0.227717
O O13 0.433078 0.786475 0.266744
O O14 0.437978 0.831563 0.000000
O O15 0.184481 0.000000 0.771690
O O16 0.182808 0.073905 0.000000
O O17 0.387635 0.089092 0.500000
O O18 0.384810 0.000000 0.306200
O O19 0.000000 0.208852 0.213069
O O20 0.062218 0.218249 0.000000
#
# Coordination Sequence:
#
# PCOD8290275 Si02
#       7
#    16  16   8  16  16  16  16
#     4   8  15  29  49  72 100 137 174 209 251 301
#     4  11  20  31  49  73 102 136 174 217 262 310
#     4   9  18  30  43  65  99 135 169 211 262 307
#     4  10  21  37  57  79 103 135 174 212 249 298
#     4   9  17  30  48  71 102 136 172 216 263 308
#     4  10  20  33  52  81 113 141 168 204 251 300
#     4  10  21  37  55  74  98 132 174 217 260 307
#
# _framework density 17.586480000000002
#
# number of rings (size 3 to 8) (size 9 to 14) (size 15 to 20)
#    0.000    2.385    0.769    3.231    0.000    4.308 
#    0.000    3.077    0.000    2.769    0.000    0.000 
#    0.000    0.000    0.000    0.000    0.000    0.000 
#
# Total GULP energy -644843.779019 kJ/mol
# GULP energy per Si atom -12400.841904 kJ/mol
# Density = 1.754645 g / cm^3
# Si number density = 17.586480 Si / 1000 Ang^3
#
#
#
# Elastic Constant Matrix: (Units=GPa)
#
#
# Indices 1 2 3 4 5 6 
#
# 1 116.9442 49.1352 50.3576 0.0000 0.0000 0.0000
# 2 49.1352 56.9919 31.9373 0.0000 0.0000 0.0000
# 3 50.3576 31.9373 72.4203 0.0000 0.0000 0.0000
# 4 0.0000 0.0000 0.0000 27.8897 0.0000 0.0000
# 5 0.0000 0.0000 0.0000 0.0000 30.6699 0.0000
# 6 0.0000 0.0000 0.0000 0.0000 0.0000 18.1261
#
#
#
# Elastic Compliance Matrix: (Units=1/GPa)
#
#
# Indices 1 2 3 4 5 6 
#
# 1 0.015378 -0.009651 -0.006437 0.000000 0.000000 0.000000
# 2 -0.009651 0.029362 -0.006238 0.000000 0.000000 0.000000
# 3 -0.006437 -0.006238 0.021035 0.000000 0.000000 0.000000
# 4 0.000000 0.000000 0.000000 0.035855 0.000000 0.000000
# 5 0.000000 0.000000 0.000000 0.000000 0.032605 0.000000
# 6 0.000000 0.000000 0.000000 0.000000 0.000000 0.055169
#
#
# Mechanical properties :
#
#
# Convention : Reuss Voigt Hill
#
# Bulk Modulus (GPa) = 47.34012 56.57962 51.95987
# Shear Modulus (GPa) = 20.73843 22.99890 21.86867
#
# Velocity S-wave (km/s) = 3.43771 3.62022 3.53015
# Velocity P-wave (km/s) = 6.53713 7.05101 6.79893
#
# Compressibility (1/GPa) = 0.02112373
#
# Stress axis : x y z
#
# Youngs Moduli (GPa) = 65.02904 34.05718 47.53907
#
# Poissons Ratio (x) = 0.32867 0.30601
# Poissons Ratio (y) = 0.62757 0.29656
# Poissons Ratio (z) = 0.41859 0.21246
#
# Static dielectric constant tensor:
#      x y z
#    x 3.435290 0.000000 0.000000 
#    y 0.000000 3.004830 0.000000 
#    z 0.000000 0.000000 3.265420 
# 
# 
# High freq. dielectric constant tensor:
#      x y z
#    x 1.687250 0.000000 0.000000 
#    y 0.000000 1.649490 0.000000 
#    z 0.000000 0.000000 1.682450 
# 
# From -- ./inp_files/15004.got.cif
#   From: 2010.06.25/outbox.cif.g09.slc.cpg/sg71_8_cif.got.tgz:15004.got - 2010.06.28 04:59:45.
