data_PCOD8290200
_publ_section_title
;
Structure prediction by ZEFSAII (Michael W. Deem and Ramdas Pophale) SiO2 
 PCOD8290200
Probable space group: I M M M
;
_chemical_formula_sum "Si O2"
_cell_formula_units_Z 72
_cell_length_a 27.025269
_cell_length_b 8.991471
_cell_length_c 16.321173
_cell_angle_alpha 90.000000
_cell_angle_beta 90.000000
_cell_angle_gamma 90.000000
_cell_volume 3965.994810
_symmetry_space_group_name_H-M "I M M M"
_symmetry_group_IT_number 71
_symmetry_cell_setting 'orthorhombic'
loop_
_space_group_symop_operation_xyz
x,y,z
-x,-y,z
x,-y,-z
-x,y,-z
-x,-y,-z
x,y,-z
-x,y,z
x,-y,z
1/2+x,1/2+y,1/2+z
1/2-x,1/2-y,1/2+z
1/2+x,1/2-y,1/2-z
1/2-x,1/2+y,1/2-z
1/2-x,1/2-y,1/2-z
1/2+x,1/2+y,1/2-z
1/2-x,1/2+y,1/2+z
1/2+x,1/2-y,1/2+z
loop_
_atom_site_type_symbol
_atom_site_label
_atom_site_fract_x
_atom_site_fract_y
_atom_site_fract_z
Si Si1 0.943365 0.668710 0.309731
Si Si2 0.698093 0.672039 0.243273
Si Si3 0.397640 0.676019 0.659673
Si Si4 0.633476 0.328648 0.907954
Si Si5 0.557762 0.176896 0.500000
O O1 0.927598 0.500000 0.288054
O O2 0.934139 0.773326 0.231677
O O3 0.913676 0.726826 0.388553
O O4 0.000000 0.677405 0.335012
O O5 0.708722 0.500000 0.251620
O O6 0.750000 0.750000 0.250000
O O7 0.658561 0.719781 0.313596
O O8 0.677361 0.713832 0.153773
O O9 0.402985 0.500000 0.646615
O O10 0.413255 0.760353 0.577927
O O11 0.617913 0.500000 0.895303
O O12 0.651850 0.297236 0.000000
O O13 0.500000 0.227169 0.500000
O O14 0.561338 0.000000 0.500000
#
# Coordination Sequence:
#
# PCOD8290200 Si02
#       5
#    16  16  16  16   8
#     4  10  20  33  51  77 109 142 177 218 264 316
#     4   9  19  36  57  79 105 137 176 223 272 322
#     4  10  21  37  56  79 109 144 185 227 268 325
#     4   9  19  36  55  76 104 137 177 220 261 315
#     4  11  23  37  55  83 117 149 185 231 280 329
#
# _framework density 18.154335
#
# number of rings (size 3 to 8) (size 9 to 14) (size 15 to 20)
#    0.000    2.333    0.000    3.667    0.000   10.667 
#    2.000    2.222    0.000    0.000    0.000    0.000 
#    0.000    0.000    0.000    0.000    0.000    0.000 
#
# Total GULP energy -446349.435529 kJ/mol
# GULP energy per Si atom -12398.595431 kJ/mol
# Density = 1.811301 g / cm^3
# Si number density = 18.154335 Si / 1000 Ang^3
#
#
#
# Elastic Constant Matrix: (Units=GPa)
#
#
# Indices 1 2 3 4 5 6 
#
# 1 146.3170 66.7355 74.0860 0.0000 0.0000 0.0000
# 2 66.7355 77.4579 47.4575 0.0000 0.0000 0.0000
# 3 74.0860 47.4575 138.5808 0.0000 0.0000 0.0000
# 4 0.0000 0.0000 0.0000 25.3890 0.0000 0.0000
# 5 0.0000 0.0000 0.0000 0.0000 15.9781 0.0000
# 6 0.0000 0.0000 0.0000 0.0000 0.0000 35.5011
#
#
#
# Elastic Compliance Matrix: (Units=1/GPa)
#
#
# Indices 1 2 3 4 5 6 
#
# 1 0.012698 -0.008581 -0.003849 0.000000 0.000000 0.000000
# 2 -0.008581 0.022138 -0.002994 0.000000 0.000000 0.000000
# 3 -0.003849 -0.002994 0.010299 0.000000 0.000000 0.000000
# 4 0.000000 0.000000 0.000000 0.039387 0.000000 0.000000
# 5 0.000000 0.000000 0.000000 0.000000 0.062586 0.000000
# 6 0.000000 0.000000 0.000000 0.000000 0.000000 0.028168
#
#
# Mechanical properties :
#
#
# Convention : Reuss Voigt Hill
#
# Bulk Modulus (GPa) = 69.99980 82.10154 76.05067
# Shear Modulus (GPa) = 23.70950 26.97876 25.34413
#
# Velocity S-wave (km/s) = 3.61778 3.85915 3.74041
# Velocity P-wave (km/s) = 7.48952 8.07340 7.78694
#
# Compressibility (1/GPa) = 0.01428575
#
# Stress axis : x y z
#
# Youngs Moduli (GPa) = 78.75502 45.17158 97.09580
#
# Poissons Ratio (x) = 0.38763 0.37377
# Poissons Ratio (y) = 0.67583 0.29066
# Poissons Ratio (z) = 0.30317 0.13522
#
# Static dielectric constant tensor:
#      x y z
#    x 3.382480 0.000000 0.000000 
#    y 0.000000 3.511730 0.000000 
#    z 0.000000 0.000000 3.618720 
# 
# 
# High freq. dielectric constant tensor:
#      x y z
#    x 1.697660 0.000000 0.000000 
#    y 0.000000 1.712010 0.000000 
#    z 0.000000 0.000000 1.703360 
# 
# From -- ./inp_files/6052.got.cif
#   From: 2010.06.25/outbox.cif.g09.slc.cpg/sg71_4_cif.got.tgz:6052.got - 2010.06.28 04:59:45.
