data_PCOD8290477
_publ_section_title
;
Structure prediction by ZEFSAII (Michael W. Deem and Ramdas Pophale) SiO2 
 PCOD8290477
Probable space group: I M M M
;
_chemical_formula_sum "Si O2"
_cell_formula_units_Z 72
_cell_length_a 26.701934
_cell_length_b 15.494888
_cell_length_c 9.222315
_cell_angle_alpha 90.000000
_cell_angle_beta 90.000000
_cell_angle_gamma 90.000000
_cell_volume 3815.672671
_symmetry_space_group_name_H-M "I M M M"
_symmetry_group_IT_number 71
_symmetry_cell_setting 'orthorhombic'
loop_
_space_group_symop_operation_xyz
x,y,z
-x,-y,z
x,-y,-z
-x,y,-z
-x,-y,-z
x,y,-z
-x,y,z
x,-y,z
1/2+x,1/2+y,1/2+z
1/2-x,1/2-y,1/2+z
1/2+x,1/2-y,1/2-z
1/2-x,1/2+y,1/2-z
1/2-x,1/2-y,1/2-z
1/2+x,1/2+y,1/2-z
1/2-x,1/2+y,1/2+z
1/2+x,1/2-y,1/2+z
loop_
_atom_site_type_symbol
_atom_site_label
_atom_site_fract_x
_atom_site_fract_y
_atom_site_fract_z
Si Si1 0.219714 0.176178 0.828757
Si Si2 0.058024 0.665468 0.332321
Si Si3 0.882181 0.500000 0.327412
Si Si4 0.730905 0.000000 0.827941
Si Si5 0.556349 0.500000 0.672384
Si Si6 0.604514 0.323657 0.328853
O O1 0.250000 0.250000 0.750000
O O2 0.239888 0.084194 0.771912
O O3 0.162132 0.185727 0.783816
O O4 0.227471 0.185119 0.000000
O O5 0.070918 0.682172 0.500000
O O6 0.089787 0.585217 0.269559
O O7 0.071575 0.750223 0.243916
O O8 0.000000 0.643089 0.310717
O O9 0.883689 0.500000 0.500000
O O10 0.825643 0.500000 0.266336
O O11 0.729576 0.000000 0.000000
O O12 0.500000 0.500000 0.734064
O O13 0.556115 0.500000 0.500000
O O14 0.585045 0.584412 0.729771
O O15 0.597245 0.316441 0.500000
#
# Coordination Sequence:
#
# PCOD8290477 Si02
#       6
#    16  16   8   8   8  16
#     4  10  20  34  53  77 104 134 169 209 252 299
#     4  10  20  34  53  77 104 134 169 209 252 299
#     4   9  17  31  52  75 100 133 170 206 248 301
#     4   9  17  31  52  75 100 133 170 206 248 301
#     4   9  17  31  52  75 100 133 170 206 248 301
#     4  10  20  34  53  77 104 134 169 209 252 299
#
# _framework density 18.869543
#
# number of rings (size 3 to 8) (size 9 to 14) (size 15 to 20)
#    0.000    2.333    0.000    3.000    0.000    8.000 
#    0.000    1.667    0.000   10.000    0.000    0.000 
#    0.000    0.000    0.000    0.000    0.000    0.000 
#
# Total GULP energy -446485.281629 kJ/mol
# GULP energy per Si atom -12402.368934 kJ/mol
# Density = 1.882660 g / cm^3
# Si number density = 18.869543 Si / 1000 Ang^3
#
#
#
# Elastic Constant Matrix: (Units=GPa)
#
#
# Indices 1 2 3 4 5 6 
#
# 1 94.2697 26.3544 22.7123 0.0000 0.0000 0.0000
# 2 26.3544 124.3496 23.3510 0.0000 0.0000 0.0000
# 3 22.7123 23.3510 19.8830 0.0000 0.0000 0.0000
# 4 0.0000 0.0000 0.0000 28.2778 0.0000 0.0000
# 5 0.0000 0.0000 0.0000 0.0000 24.5973 0.0000
# 6 0.0000 0.0000 0.0000 0.0000 0.0000 46.2786
#
#
#
# Elastic Compliance Matrix: (Units=1/GPa)
#
#
# Indices 1 2 3 4 5 6 
#
# 1 0.014636 0.000048 -0.016775 0.000000 0.000000 0.000000
# 2 0.000048 0.010317 -0.012172 0.000000 0.000000 0.000000
# 3 -0.016775 -0.012172 0.083752 0.000000 0.000000 0.000000
# 4 0.000000 0.000000 0.000000 0.035363 0.000000 0.000000
# 5 0.000000 0.000000 0.000000 0.000000 0.040655 0.000000
# 6 0.000000 0.000000 0.000000 0.000000 0.000000 0.021608
#
#
# Mechanical properties :
#
#
# Convention : Reuss Voigt Hill
#
# Bulk Modulus (GPa) = 19.64372 42.59308 31.11840
# Shear Modulus (GPa) = 17.78733 30.90305 24.34519
#
# Velocity S-wave (km/s) = 3.07359 4.05127 3.59581
# Velocity P-wave (km/s) = 4.79883 6.67121 5.81093
#
# Compressibility (1/GPa) = 0.05090686
#
# Stress axis : x y z
#
# Youngs Moduli (GPa) = 68.32448 96.92415 11.94005
#
# Poissons Ratio (x) = -0.00468 0.20030
# Poissons Ratio (y) = -0.00330 0.14533
# Poissons Ratio (z) = 1.14617 1.17976
#
# Static dielectric constant tensor:
#      x y z
#    x 3.741400 0.000000 0.000000 
#    y 0.000000 4.558950 0.000000 
#    z 0.000000 0.000000 3.017100 
# 
# 
# High freq. dielectric constant tensor:
#      x y z
#    x 1.753460 0.000000 0.000000 
#    y 0.000000 1.751150 0.000000 
#    z 0.000000 0.000000 1.684400 
# 
# From -- ./inp_files/6122.got.cif
#   From: 2010.06.25/outbox.cif.g09.slc.cpg/sg71_4_cif.got.tgz:6122.got - 2010.06.28 04:59:45.
