data_PCOD8290832
_publ_section_title
;
Structure prediction by ZEFSAII (Michael W. Deem and Ramdas Pophale) SiO2 
 PCOD8290832
Probable space group: I M M M
;
_chemical_formula_sum "Si O2"
_cell_formula_units_Z 88
_cell_length_a 9.677598
_cell_length_b 18.948387
_cell_length_c 27.101144
_cell_angle_alpha 90.000000
_cell_angle_beta 90.000000
_cell_angle_gamma 90.000000
_cell_volume 4969.668816
_symmetry_space_group_name_H-M "I M M M"
_symmetry_group_IT_number 71
_symmetry_cell_setting 'orthorhombic'
loop_
_space_group_symop_operation_xyz
x,y,z
-x,-y,z
x,-y,-z
-x,y,-z
-x,-y,-z
x,y,-z
-x,y,z
x,-y,z
1/2+x,1/2+y,1/2+z
1/2-x,1/2-y,1/2+z
1/2+x,1/2-y,1/2-z
1/2-x,1/2+y,1/2-z
1/2-x,1/2-y,1/2-z
1/2+x,1/2+y,1/2-z
1/2-x,1/2+y,1/2+z
1/2+x,1/2-y,1/2+z
loop_
_atom_site_type_symbol
_atom_site_label
_atom_site_fract_x
_atom_site_fract_y
_atom_site_fract_z
Si Si1 0.158417 0.187180 0.769431
Si Si2 0.663076 0.847406 0.600441
Si Si3 0.163752 0.579773 0.000000
Si Si4 0.157853 0.918513 0.684140
Si Si5 0.843010 0.419978 0.557754
Si Si6 0.160544 0.813584 0.881797
O O1 0.250000 0.250000 0.750000
O O2 0.184956 0.118139 0.736708
O O3 0.200295 0.170277 0.825385
O O4 0.000000 0.212500 0.767089
O O5 0.500000 0.858742 0.607975
O O6 0.715437 0.878561 0.548316
O O7 0.740016 0.888453 0.643469
O O8 0.703446 0.765514 0.603133
O O9 0.224207 0.500000 0.000000
O O10 0.000000 0.576878 0.000000
O O11 0.000000 0.906238 0.666763
O O12 0.191256 0.000000 0.692205
O O13 0.823471 0.408559 0.500000
O O14 0.804590 0.500000 0.572336
O O15 0.742356 0.367438 0.584945
O O16 0.000000 0.403446 0.573327
O O17 0.000000 0.826020 0.891938
#
# Coordination Sequence:
#
# PCOD8290832 Si02
#       6
#    16  16   8  16  16  16
#     4  10  20  36  55  78 109 144 180 221 270 322
#     4  10  20  35  55  80 108 141 182 223 264 318
#     4   9  18  32  51  75 106 143 176 216 269 313
#     4  10  21  36  55  79 108 143 179 218 268 322
#     4   9  20  39  59  80 110 147 185 225 272 328
#     4  10  21  34  55  85 112 141 181 229 275 323
#
# _framework density 17.707417
#
# number of rings (size 3 to 8) (size 9 to 14) (size 15 to 20)
#    0.000    2.273    1.818    1.091    1.273    4.000 
#    0.000    3.182    0.000    1.636    0.000    0.000 
#    0.000    0.000    0.000    0.000    0.000    0.000 
#
# Total GULP energy -545674.871802 kJ/mol
# GULP energy per Si atom -12401.701632 kJ/mol
# Density = 1.766711 g / cm^3
# Si number density = 17.707417 Si / 1000 Ang^3
#
#
#
# Elastic Constant Matrix: (Units=GPa)
#
#
# Indices 1 2 3 4 5 6 
#
# 1 54.1619 62.3061 42.3807 0.0000 0.0000 0.0000
# 2 62.3061 152.4077 81.9068 0.0000 0.0000 0.0000
# 3 42.3807 81.9068 113.7389 0.0000 0.0000 0.0000
# 4 0.0000 0.0000 0.0000 38.6829 0.0000 0.0000
# 5 0.0000 0.0000 0.0000 0.0000 31.0716 0.0000
# 6 0.0000 0.0000 0.0000 0.0000 0.0000 26.1777
#
#
#
# Elastic Compliance Matrix: (Units=1/GPa)
#
#
# Indices 1 2 3 4 5 6 
#
# 1 0.036291 -0.012347 -0.004631 0.000000 0.000000 0.000000
# 2 -0.012347 0.014905 -0.006133 0.000000 0.000000 0.000000
# 3 -0.004631 -0.006133 0.014934 0.000000 0.000000 0.000000
# 4 0.000000 0.000000 0.000000 0.025851 0.000000 0.000000
# 5 0.000000 0.000000 0.000000 0.000000 0.032184 0.000000
# 6 0.000000 0.000000 0.000000 0.000000 0.000000 0.038200
#
#
# Mechanical properties :
#
#
# Convention : Reuss Voigt Hill
#
# Bulk Modulus (GPa) = 50.23127 77.05507 63.64317
# Shear Modulus (GPa) = 23.23181 28.10078 25.66629
#
# Velocity S-wave (km/s) = 3.62606 3.98798 3.81132
# Velocity P-wave (km/s) = 6.77938 8.05080 7.44229
#
# Compressibility (1/GPa) = 0.01990792
#
# Stress axis : x y z
#
# Youngs Moduli (GPa) = 27.55534 67.09182 66.96209
#
# Poissons Ratio (x) = 0.82841 0.31007
# Poissons Ratio (y) = 0.34024 0.41066
# Poissons Ratio (z) = 0.12760 0.41145
#
# Static dielectric constant tensor:
#      x y z
#    x 3.139960 0.000000 0.000000 
#    y 0.000000 3.397110 0.000000 
#    z 0.000000 0.000000 3.424090 
# 
# 
# High freq. dielectric constant tensor:
#      x y z
#    x 1.674820 0.000000 0.000000 
#    y 0.000000 1.693990 0.000000 
#    z 0.000000 0.000000 1.693470 
# 
# From -- ./inp_files/10443.got.cif
#   From: 2010.06.25/outbox.cif.g09.slc.cpg/sg71_6_cif.got.tgz:10443.got - 2010.06.28 04:59:45.
