data_PCOD8290977
_publ_section_title
;
Structure prediction by ZEFSAII (Michael W. Deem and Ramdas Pophale) SiO2 
 PCOD8290977
Probable space group: I M M M
;
_chemical_formula_sum "Si O2"
_cell_formula_units_Z 64
_cell_length_a 12.517247
_cell_length_b 29.560243
_cell_length_c 9.340262
_cell_angle_alpha 90.000000
_cell_angle_beta 90.000000
_cell_angle_gamma 90.000000
_cell_volume 3456.017084
_symmetry_space_group_name_H-M "I M M M"
_symmetry_group_IT_number 71
_symmetry_cell_setting 'orthorhombic'
loop_
_space_group_symop_operation_xyz
x,y,z
-x,-y,z
x,-y,-z
-x,y,-z
-x,-y,-z
x,y,-z
-x,y,z
x,-y,z
1/2+x,1/2+y,1/2+z
1/2-x,1/2-y,1/2+z
1/2+x,1/2-y,1/2-z
1/2-x,1/2+y,1/2-z
1/2-x,1/2-y,1/2-z
1/2+x,1/2+y,1/2-z
1/2-x,1/2+y,1/2+z
1/2+x,1/2-y,1/2+z
loop_
_atom_site_type_symbol
_atom_site_label
_atom_site_fract_x
_atom_site_fract_y
_atom_site_fract_z
Si Si1 0.221667 0.177996 0.832420
Si Si2 0.122257 0.000000 0.168979
Si Si3 0.215410 0.578085 0.329785
Si Si4 0.500000 0.946622 0.335717
Si Si5 0.618540 0.253991 0.157982
O O1 0.243821 0.127268 0.781898
O O2 0.316768 0.211174 0.780505
O O3 0.120331 0.200260 0.753448
O O4 0.201087 0.178550 0.000000
O O5 0.190552 0.043722 0.218463
O O6 0.000000 0.000000 0.233415
O O7 0.111257 0.000000 0.000000
O O8 0.193125 0.574555 0.500000
O O9 0.105437 0.569617 0.247133
O O10 0.500000 0.928488 0.500000
O O11 0.500000 0.000000 0.335355
O O12 0.500000 0.235321 0.152328
O O13 0.661116 0.266522 0.000000
#
# Coordination Sequence:
#
# PCOD8290977 Si02
#       5
#    16   8  16   8  16
#     4   9  19  33  52  78 104 134 177 225 264 311
#     4   9  18  33  53  80 110 137 174 225 270 313
#     4  10  20  35  58  83 107 142 184 224 271 322
#     4  11  23  37  55  81 115 147 177 223 273 324
#     4   9  18  33  51  72 104 142 175 215 267 318
#
# _framework density 18.518426000000002
#
# number of rings (size 3 to 8) (size 9 to 14) (size 15 to 20)
#    0.000    2.500    1.250    0.375    1.750    3.000 
#    0.000    2.500    0.000    1.500    0.000    0.000 
#    0.000    0.000    0.000    0.000    0.000    0.000 
#
# Total GULP energy -396532.340313 kJ/mol
# GULP energy per Si atom -12391.635635 kJ/mol
# Density = 1.847628 g / cm^3
# Si number density = 18.518426 Si / 1000 Ang^3
#
#
#
# Elastic Constant Matrix: (Units=GPa)
#
#
# Indices 1 2 3 4 5 6 
#
# 1 112.0593 54.7967 31.9489 0.0001 0.0002 0.0000
# 2 54.7967 157.4166 37.7068 0.0008 -0.0005 -0.0002
# 3 31.9489 37.7068 41.3373 0.0080 -0.0002 -0.0011
# 4 0.0001 0.0008 0.0080 26.0195 -0.0010 -0.0006
# 5 0.0002 -0.0005 -0.0002 -0.0010 21.8015 0.0001
# 6 0.0000 -0.0002 -0.0011 -0.0006 0.0001 19.5202
#
#
#
# Elastic Compliance Matrix: (Units=1/GPa)
#
#
# Indices 1 2 3 4 5 6 
#
# 1 0.012193 -0.002543 -0.007104 0.000002 0.000000 0.000000
# 2 -0.002543 0.008659 -0.005933 0.000002 0.000000 0.000000
# 3 -0.007104 -0.005933 0.035094 -0.000011 0.000000 0.000002
# 4 0.000002 0.000002 -0.000011 0.038433 0.000002 0.000001
# 5 0.000000 0.000000 0.000000 0.000002 0.045868 0.000000
# 6 0.000000 0.000000 0.000002 0.000001 0.000000 0.051229
#
#
# Mechanical properties :
#
#
# Convention : Reuss Voigt Hill
#
# Bulk Modulus (GPa) = 40.34615 62.19089 51.26852
# Shear Modulus (GPa) = 21.65461 25.89229 23.77345
#
# Velocity S-wave (km/s) = 3.42329 3.74330 3.58686
# Velocity P-wave (km/s) = 6.12042 7.23458 6.70070
#
# Compressibility (1/GPa) = 0.02478551
#
# Stress axis : x y z
#
# Youngs Moduli (GPa) = 82.01692 115.48856 28.49475
#
# Poissons Ratio (x) = 0.29363 0.20243
# Poissons Ratio (y) = 0.20853 0.16907
# Poissons Ratio (z) = 0.58267 0.68523
#
# Static dielectric constant tensor:
#      x y z
#    x 3.352890 0.000000 0.000000 
#    y 0.000000 3.592510 0.000000 
#    z 0.000000 0.000000 3.392330 
# 
# 
# High freq. dielectric constant tensor:
#      x y z
#    x 1.719370 0.000000 0.000000 
#    y 0.000000 1.723290 0.000000 
#    z 0.000000 0.000000 1.698600 
# 
# From -- ./inp_files/3778.got.cif
#   From: 2010.06.25/outbox.cif.g09.slc.cpg/sg71_2_cif.got.tgz:3778.got - 2010.06.28 04:59:45.
