data_PCOD8290142
_publ_section_title
;
Structure prediction by ZEFSAII (Michael W. Deem and Ramdas Pophale) SiO2 
 PCOD8290142
Probable space group: I M M M
;
_chemical_formula_sum "Si O2"
_cell_formula_units_Z 112
_cell_length_a 17.810507
_cell_length_b 27.888067
_cell_length_c 13.834755
_cell_angle_alpha 90.000000
_cell_angle_beta 90.000000
_cell_angle_gamma 90.000000
_cell_volume 6871.731283
_symmetry_space_group_name_H-M "I M M M"
_symmetry_group_IT_number 71
_symmetry_cell_setting 'orthorhombic'
loop_
_space_group_symop_operation_xyz
x,y,z
-x,-y,z
x,-y,-z
-x,y,-z
-x,-y,-z
x,y,-z
-x,y,z
x,-y,z
1/2+x,1/2+y,1/2+z
1/2-x,1/2-y,1/2+z
1/2+x,1/2-y,1/2-z
1/2-x,1/2+y,1/2-z
1/2-x,1/2-y,1/2-z
1/2+x,1/2+y,1/2-z
1/2-x,1/2+y,1/2+z
1/2+x,1/2-y,1/2+z
loop_
_atom_site_type_symbol
_atom_site_label
_atom_site_fract_x
_atom_site_fract_y
_atom_site_fract_z
Si Si1 0.911499 0.222054 0.392881
Si Si2 0.834709 0.263319 0.220993
Si Si3 0.085725 0.875134 0.708883
Si Si4 0.414226 0.318040 0.608759
Si Si5 0.914416 0.345918 0.886015
Si Si6 0.860440 0.552321 0.114368
Si Si7 0.808897 0.945059 0.608083
O O1 0.877617 0.229464 0.500000
O O2 0.880777 0.262504 0.321056
O O3 0.886400 0.170418 0.352921
O O4 0.000000 0.226241 0.394842
O O5 0.750000 0.250000 0.250000
O O6 0.861717 0.225102 0.142058
O O7 0.851953 0.315196 0.172986
O O8 0.096323 0.864141 0.822662
O O9 0.136205 0.919928 0.683101
O O10 0.000000 0.887554 0.683642
O O11 0.393059 0.333259 0.500000
O O12 0.500000 0.299535 0.616048
O O13 0.908997 0.401813 0.852006
O O14 0.000000 0.328715 0.864797
O O15 0.896269 0.341249 0.000000
O O16 0.889118 0.500000 0.155303
O O17 0.775152 0.561232 0.147920
O O18 0.862065 0.548306 0.000000
O O19 0.817140 0.923112 0.500000
O O20 0.832765 0.000000 0.605543
#
# Coordination Sequence:
#
# PCOD8290142 Si02
#       7
#    16  16  16  16  16  16  16
#     4   9  18  32  47  62  87 124 157 188 227 273
#     4  11  22  31  45  71  98 126 157 193 239 281
#     4   9  17  28  45  68  90 120 163 200 233 280
#     4   9  18  34  52  66  89 126 164 200 235 278
#     4  10  20  33  51  73  99 132 166 202 240 284
#     4   8  16  30  47  69  96 127 160 194 240 292
#     4   9  17  28  43  65  97 131 157 192 244 299
#
# _framework density 16.298658
#
# number of rings (size 3 to 8) (size 9 to 14) (size 15 to 20)
#    0.000    2.714    0.000    3.857    4.000    3.714 
#    0.000    2.143    0.000    0.429    0.000    2.000 
#    0.000    0.571    0.000    3.000    0.000    0.143 
#
# Total GULP energy -693993.629558 kJ/mol
# GULP energy per Si atom -12392.743385 kJ/mol
# Density = 1.626156 g / cm^3
# Si number density = 16.298658 Si / 1000 Ang^3
#
#
#
# Elastic Constant Matrix: (Units=GPa)
#
#
# Indices 1 2 3 4 5 6 
#
# 1 60.6934 41.8874 30.7730 0.0000 0.0000 0.0000
# 2 41.8874 77.0979 34.1262 -0.0001 0.0000 -0.0001
# 3 30.7730 34.1262 100.8173 -0.0008 -0.0001 -0.0005
# 4 0.0000 -0.0001 -0.0008 20.9470 -0.0001 -0.0001
# 5 0.0000 0.0000 -0.0001 -0.0001 18.0535 0.0000
# 6 0.0000 -0.0001 -0.0005 -0.0001 0.0000 21.6764
#
#
#
# Elastic Compliance Matrix: (Units=1/GPa)
#
#
# Indices 1 2 3 4 5 6 
#
# 1 0.027632 -0.013267 -0.003943 0.000000 0.000000 0.000000
# 2 -0.013267 0.021626 -0.003271 0.000000 0.000000 0.000000
# 3 -0.003943 -0.003271 0.012230 0.000000 0.000000 0.000000
# 4 0.000000 0.000000 0.000000 0.047740 0.000000 0.000000
# 5 0.000000 0.000000 0.000000 0.000000 0.055391 0.000000
# 6 0.000000 0.000000 0.000000 0.000000 0.000000 0.046133
#
#
# Mechanical properties :
#
#
# Convention : Reuss Voigt Hill
#
# Bulk Modulus (GPa) = 48.71998 50.24242 49.48120
# Shear Modulus (GPa) = 19.33819 20.92349 20.13084
#
# Velocity S-wave (km/s) = 3.44828 3.58684 3.51824
# Velocity P-wave (km/s) = 6.76839 6.93159 6.85048
#
# Compressibility (1/GPa) = 0.02052546
#
# Stress axis : x y z
#
# Youngs Moduli (GPa) = 36.19027 46.24018 81.76766
#
# Poissons Ratio (x) = 0.61346 0.32244
# Poissons Ratio (y) = 0.48013 0.26745
# Poissons Ratio (z) = 0.14271 0.15125
#
# Static dielectric constant tensor:
#      x y z
#    x 3.065030 0.000000 0.000000 
#    y 0.000000 3.158730 0.000000 
#    z 0.000000 0.000000 3.161260 
# 
# 
# High freq. dielectric constant tensor:
#      x y z
#    x 1.624740 0.000000 0.000000 
#    y 0.000000 1.613940 0.000000 
#    z 0.000000 0.000000 1.602220 
# 
# From -- ./inp_files/35374.got.cif
#   From: 2010.06.25/outbox.cif.g09.slc.cpg/sg71_18_cif.got.tgz:35374.got - 2010.06.28 04:59:45.
