data_PCOD8290770
_publ_section_title
;
Structure prediction by ZEFSAII (Michael W. Deem and Ramdas Pophale) SiO2 
 PCOD8290770
Probable space group: I M M M
;
_chemical_formula_sum "Si O2"
_cell_formula_units_Z 72
_cell_length_a 27.083869
_cell_length_b 9.267297
_cell_length_c 16.301358
_cell_angle_alpha 90.000000
_cell_angle_beta 90.000000
_cell_angle_gamma 90.000000
_cell_volume 4091.547254
_symmetry_space_group_name_H-M "I M M M"
_symmetry_group_IT_number 71
_symmetry_cell_setting 'orthorhombic'
loop_
_space_group_symop_operation_xyz
x,y,z
-x,-y,z
x,-y,-z
-x,y,-z
-x,-y,-z
x,y,-z
-x,y,z
x,-y,z
1/2+x,1/2+y,1/2+z
1/2-x,1/2-y,1/2+z
1/2+x,1/2-y,1/2-z
1/2-x,1/2+y,1/2-z
1/2-x,1/2-y,1/2-z
1/2+x,1/2+y,1/2-z
1/2-x,1/2+y,1/2+z
1/2+x,1/2-y,1/2+z
loop_
_atom_site_type_symbol
_atom_site_label
_atom_site_fract_x
_atom_site_fract_y
_atom_site_fract_z
Si Si1 0.896871 0.330355 0.669003
Si Si2 0.649193 0.665645 0.593734
Si Si3 0.199317 0.670094 0.235179
Si Si4 0.554646 0.663418 0.310931
Si Si5 0.443256 0.828509 0.000000
O O1 0.904075 0.500000 0.673582
O O2 0.840286 0.289409 0.693147
O O3 0.934253 0.264135 0.734068
O O4 0.912467 0.272283 0.579094
O O5 0.658915 0.705734 0.500000
O O6 0.664799 0.500000 0.612197
O O7 0.680684 0.775506 0.647446
O O8 0.591515 0.689885 0.613451
O O9 0.208347 0.500000 0.231433
O O10 0.250000 0.750000 0.250000
O O11 0.500000 0.697939 0.344009
O O12 0.559207 0.500000 0.278800
O O13 0.500000 0.769560 0.000000
O O14 0.444834 0.000000 0.000000
#
# Coordination Sequence:
#
# PCOD8290770 Si02
#       5
#    16  16  16  16   8
#     4   9  18  32  50  72  97 129 168 207 247 298
#     4   9  18  33  52  74 100 131 167 205 247 296
#     4  10  20  35  54  74  99 130 167 210 258 308
#     4   9  17  29  47  72 102 134 165 200 244 293
#     4   9  16  28  49  75 101 127 161 205 246 291
#
# _framework density 17.597255000000001
#
# number of rings (size 3 to 8) (size 9 to 14) (size 15 to 20)
#    0.000    2.778    0.000    1.333    0.000    3.111 
#    2.000    2.778    0.000    2.000    0.000    6.222 
#    0.000    0.000    0.000    0.000    0.000    0.000 
#
# Total GULP energy -446261.407521 kJ/mol
# GULP energy per Si atom -12396.150209 kJ/mol
# Density = 1.755720 g / cm^3
# Si number density = 17.597255 Si / 1000 Ang^3
#
#
#
# Elastic Constant Matrix: (Units=GPa)
#
#
# Indices 1 2 3 4 5 6 
#
# 1 143.9179 51.0556 62.5737 0.0000 0.0000 0.0000
# 2 51.0556 48.9842 39.3712 0.0000 0.0000 0.0000
# 3 62.5737 39.3712 117.2117 0.0000 0.0000 0.0000
# 4 0.0000 0.0000 0.0000 26.0061 0.0000 0.0000
# 5 0.0000 0.0000 0.0000 0.0000 15.2587 0.0000
# 6 0.0000 0.0000 0.0000 0.0000 0.0000 25.9219
#
#
#
# Elastic Compliance Matrix: (Units=1/GPa)
#
#
# Indices 1 2 3 4 5 6 
#
# 1 0.011726 -0.009849 -0.002951 0.000000 0.000000 0.000000
# 2 -0.009849 0.036238 -0.006914 0.000000 0.000000 0.000000
# 3 -0.002951 -0.006914 0.012430 0.000000 0.000000 0.000000
# 4 0.000000 0.000000 0.000000 0.038453 0.000000 0.000000
# 5 0.000000 0.000000 0.000000 0.000000 0.065536 0.000000
# 6 0.000000 0.000000 0.000000 0.000000 0.000000 0.038577
#
#
# Mechanical properties :
#
#
# Convention : Reuss Voigt Hill
#
# Bulk Modulus (GPa) = 47.70218 68.45720 58.07969
# Shear Modulus (GPa) = 20.04994 23.91157 21.98075
#
# Velocity S-wave (km/s) = 3.37913 3.69022 3.53810
# Velocity P-wave (km/s) = 6.51086 7.55934 7.05461
#
# Compressibility (1/GPa) = 0.02096340
#
# Stress axis : x y z
#
# Youngs Moduli (GPa) = 85.28222 27.59541 80.45286
#
# Poissons Ratio (x) = 0.27180 0.23745
# Poissons Ratio (y) = 0.83998 0.55626
# Poissons Ratio (z) = 0.25170 0.19080
#
# Static dielectric constant tensor:
#      x y z
#    x 3.445090 0.000000 0.000000 
#    y 0.000000 3.200100 0.000000 
#    z 0.000000 0.000000 3.359130 
# 
# 
# High freq. dielectric constant tensor:
#      x y z
#    x 1.684870 0.000000 0.000000 
#    y 0.000000 1.669430 0.000000 
#    z 0.000000 0.000000 1.672730 
# 
# From -- ./inp_files/6018.got.cif
#   From: 2010.06.25/outbox.cif.g09.slc.cpg/sg71_4_cif.got.tgz:6018.got - 2010.06.28 04:59:45.
