data_PCOD8290518
_publ_section_title
;
Structure prediction by ZEFSAII (Michael W. Deem and Ramdas Pophale) SiO2 
 PCOD8290518
Probable space group: I M M M
;
_chemical_formula_sum "Si O2"
_cell_formula_units_Z 88
_cell_length_a 25.207553
_cell_length_b 20.834698
_cell_length_c 9.003641
_cell_angle_alpha 90.000000
_cell_angle_beta 90.000000
_cell_angle_gamma 90.000000
_cell_volume 4728.638010
_symmetry_space_group_name_H-M "I M M M"
_symmetry_group_IT_number 71
_symmetry_cell_setting 'orthorhombic'
loop_
_space_group_symop_operation_xyz
x,y,z
-x,-y,z
x,-y,-z
-x,y,-z
-x,-y,-z
x,y,-z
-x,y,z
x,-y,z
1/2+x,1/2+y,1/2+z
1/2-x,1/2-y,1/2+z
1/2+x,1/2-y,1/2-z
1/2-x,1/2+y,1/2-z
1/2-x,1/2-y,1/2-z
1/2+x,1/2+y,1/2-z
1/2-x,1/2+y,1/2+z
1/2+x,1/2-y,1/2+z
loop_
_atom_site_type_symbol
_atom_site_label
_atom_site_fract_x
_atom_site_fract_y
_atom_site_fract_z
Si Si1 0.313339 0.689979 0.330546
Si Si2 0.000000 0.219660 0.323746
Si Si3 0.308010 0.177901 0.170542
Si Si4 0.437940 0.500000 0.664268
Si Si5 0.093122 0.128208 0.324727
Si Si6 0.000000 0.364283 0.322798
Si Si7 0.608403 0.072022 0.176207
O O1 0.332935 0.686894 0.500000
O O2 0.320244 0.762631 0.276106
O O3 0.254063 0.662056 0.316186
O O4 0.348045 0.645130 0.226229
O O5 0.052234 0.182497 0.266869
O O6 0.000000 0.291709 0.259038
O O7 0.000000 0.222311 0.500000
O O8 0.342691 0.117327 0.226490
O O9 0.322911 0.195709 0.000000
O O10 0.500000 0.500000 0.646545
O O11 0.411598 0.500000 0.500000
O O12 0.420594 0.439005 0.755330
O O13 0.090446 0.121574 0.500000
O O14 0.052557 0.400212 0.262883
O O15 0.000000 0.363154 0.500000
O O16 0.617040 0.000000 0.240111
O O17 0.606174 0.069293 0.000000
#
# Coordination Sequence:
#
# PCOD8290518 Si02
#       7
#    16   8  16   8  16   8  16
#     4  10  20  34  53  79 106 138 182 231 280 325
#     4   9  18  30  50  78 105 134 171 216 263 319
#     4   9  18  34  54  76 105 143 183 222 273 333
#     4  11  23  39  57  79 113 149 181 222 275 330
#     4  11  21  36  57  80 108 143 183 225 272 328
#     4   9  15  24  42  74 108 132 163 210 263 310
#     4   9  16  27  46  73 105 137 170 212 263 319
#
# _framework density 18.610009999999999
#
# number of rings (size 3 to 8) (size 9 to 14) (size 15 to 20)
#    0.000    2.273    0.909    2.727    0.000    5.091 
#    1.636    0.000    0.000    0.545    0.000    0.000 
#    0.000    2.909    0.000    0.000    0.000    0.000 
#
# Total GULP energy -545570.342776 kJ/mol
# GULP energy per Si atom -12399.325972 kJ/mol
# Density = 1.856765 g / cm^3
# Si number density = 18.610010 Si / 1000 Ang^3
#
#
#
# Elastic Constant Matrix: (Units=GPa)
#
#
# Indices 1 2 3 4 5 6 
#
# 1 119.0966 77.5073 34.2412 0.0000 0.0000 0.0000
# 2 77.5073 155.0560 33.7885 0.0000 0.0000 0.0000
# 3 34.2412 33.7885 60.7547 0.0000 0.0000 0.0000
# 4 0.0000 0.0000 0.0000 21.8072 0.0000 0.0000
# 5 0.0000 0.0000 0.0000 0.0000 18.3869 0.0000
# 6 0.0000 0.0000 0.0000 0.0000 0.0000 27.4041
#
#
#
# Elastic Compliance Matrix: (Units=1/GPa)
#
#
# Indices 1 2 3 4 5 6 
#
# 1 0.013384 -0.005743 -0.004350 0.000000 0.000000 0.000000
# 2 -0.005743 0.009802 -0.002215 0.000000 0.000000 0.000000
# 3 -0.004350 -0.002215 0.020143 0.000000 0.000000 0.000000
# 4 0.000000 0.000000 0.000000 0.045856 0.000000 0.000000
# 5 0.000000 0.000000 0.000000 0.000000 0.054386 0.000000
# 6 0.000000 0.000000 0.000000 0.000000 0.000000 0.036491
#
#
# Mechanical properties :
#
#
# Convention : Reuss Voigt Hill
#
# Bulk Modulus (GPa) = 53.43264 69.55346 61.49305
# Shear Modulus (GPa) = 23.70604 26.14433 24.92519
#
# Velocity S-wave (km/s) = 3.57295 3.75220 3.66367
# Velocity P-wave (km/s) = 6.76723 7.49849 7.14223
#
# Compressibility (1/GPa) = 0.01871515
#
# Stress axis : x y z
#
# Youngs Moduli (GPa) = 74.71431 102.01498 49.64495
#
# Poissons Ratio (x) = 0.58582 0.21594
# Poissons Ratio (y) = 0.42905 0.10997
# Poissons Ratio (z) = 0.32498 0.22598
#
# Static dielectric constant tensor:
#      x y z
#    x 3.646670 0.000000 0.000000 
#    y 0.000000 2.339280 0.000000 
#    z 0.000000 0.000000 3.202410 
# 
# 
# High freq. dielectric constant tensor:
#      x y z
#    x 1.730790 0.000000 0.000000 
#    y 0.000000 1.725750 0.000000 
#    z 0.000000 0.000000 1.688550 
# 
# From -- ./inp_files/12642.got.cif
#   From: 2010.06.25/outbox.cif.g09.slc.cpg/sg71_7_cif.got.tgz:12642.got - 2010.06.28 04:59:45.
