data_PCOD8290967
_publ_section_title
;
Structure prediction by ZEFSAII (Michael W. Deem and Ramdas Pophale) SiO2 
 PCOD8290967
Probable space group: I M M M
;
_chemical_formula_sum "Si O2"
_cell_formula_units_Z 88
_cell_length_a 8.754358
_cell_length_b 18.820943
_cell_length_c 27.222508
_cell_angle_alpha 90.000000
_cell_angle_beta 90.000000
_cell_angle_gamma 90.000000
_cell_volume 4485.323960
_symmetry_space_group_name_H-M "I M M M"
_symmetry_group_IT_number 71
_symmetry_cell_setting 'orthorhombic'
loop_
_space_group_symop_operation_xyz
x,y,z
-x,-y,z
x,-y,-z
-x,y,-z
-x,-y,-z
x,y,-z
-x,y,z
x,-y,z
1/2+x,1/2+y,1/2+z
1/2-x,1/2-y,1/2+z
1/2+x,1/2-y,1/2-z
1/2-x,1/2+y,1/2-z
1/2-x,1/2-y,1/2-z
1/2+x,1/2+y,1/2-z
1/2-x,1/2+y,1/2+z
1/2+x,1/2-y,1/2+z
loop_
_atom_site_type_symbol
_atom_site_label
_atom_site_fract_x
_atom_site_fract_y
_atom_site_fract_z
Si Si1 0.320511 0.418228 0.381197
Si Si2 0.176837 0.916439 0.681366
Si Si3 0.828278 0.415659 0.281141
Si Si4 0.178675 0.301131 0.556792
Si Si5 0.679845 0.840292 0.409037
Si Si6 0.327193 0.415968 0.000000
O O1 0.500000 0.408889 0.376448
O O2 0.274766 0.500000 0.390036
O O3 0.246143 0.387222 0.331354
O O4 0.257806 0.374367 0.427282
O O5 0.227585 0.889626 0.735157
O O6 0.279848 0.875230 0.642639
O O7 0.000000 0.897838 0.673123
O O8 0.206995 0.000000 0.675110
O O9 0.828667 0.500000 0.282468
O O10 0.000000 0.385596 0.276351
O O11 0.216926 0.286616 0.500000
O O12 0.245330 0.237113 0.588779
O O13 0.000000 0.307833 0.566330
O O14 0.500000 0.832533 0.414566
O O15 0.742017 0.890321 0.451771
O O16 0.329143 0.500000 0.000000
O O17 0.500000 0.385297 0.000000
#
# Coordination Sequence:
#
# PCOD8290967 Si02
#       6
#    16  16  16  16  16   8
#     4  10  21  38  62  91 121 152 190 237 290 350
#     4  10  20  35  57  85 119 158 198 241 290 344
#     4   9  17  32  56  86 119 153 192 238 288 343
#     4  11  24  42  63  84 114 155 196 241 296 354
#     4  12  24  38  58  84 116 154 197 244 294 347
#     4  11  23  39  59  83 114 153 198 245 291 341
#
# _framework density 19.619541999999999
#
# number of rings (size 3 to 8) (size 9 to 14) (size 15 to 20)
#    0.000    1.545    0.909    4.636    0.000    8.727 
#    0.000    2.727    0.000    0.000    0.000    0.000 
#    0.000    0.000    0.000    0.000    0.000    0.000 
#
# Total GULP energy -545830.814190 kJ/mol
# GULP energy per Si atom -12405.245777 kJ/mol
# Density = 1.957489 g / cm^3
# Si number density = 19.619542 Si / 1000 Ang^3
#
#
#
# Elastic Constant Matrix: (Units=GPa)
#
#
# Indices 1 2 3 4 5 6 
#
# 1 76.6144 28.5294 23.6842 0.0000 0.0000 0.0000
# 2 28.5294 68.6563 27.6308 0.0000 0.0000 0.0000
# 3 23.6842 27.6308 62.0572 0.0000 0.0000 0.0000
# 4 0.0000 0.0000 0.0000 8.2407 0.0000 0.0000
# 5 0.0000 0.0000 0.0000 0.0000 35.7790 0.0000
# 6 0.0000 0.0000 0.0000 0.0000 0.0000 30.5410
#
#
#
# Elastic Compliance Matrix: (Units=1/GPa)
#
#
# Indices 1 2 3 4 5 6 
#
# 1 0.016172 -0.005161 -0.003874 0.000000 0.000000 0.000000
# 2 -0.005161 0.019392 -0.006665 0.000000 0.000000 0.000000
# 3 -0.003874 -0.006665 0.020560 0.000000 0.000000 0.000000
# 4 0.000000 0.000000 0.000000 0.121349 0.000000 0.000000
# 5 0.000000 0.000000 0.000000 0.000000 0.027949 0.000000
# 6 0.000000 0.000000 0.000000 0.000000 0.000000 0.032743
#
#
# Mechanical properties :
#
#
# Convention : Reuss Voigt Hill
#
# Bulk Modulus (GPa) = 40.44527 40.77963 40.61245
# Shear Modulus (GPa) = 17.99814 23.41102 20.70458
#
# Velocity S-wave (km/s) = 3.03208 3.45809 3.25207
# Velocity P-wave (km/s) = 5.73738 6.06423 5.90307
#
# Compressibility (1/GPa) = 0.02472477
#
# Stress axis : x y z
#
# Youngs Moduli (GPa) = 61.83602 51.56756 48.63788
#
# Poissons Ratio (x) = 0.26613 0.18843
# Poissons Ratio (y) = 0.31913 0.32415
# Poissons Ratio (z) = 0.23956 0.34368
#
# Static dielectric constant tensor:
#      x y z
#    x 3.740190 0.000000 0.000000 
#    y 0.000000 3.402170 0.000000 
#    z 0.000000 0.000000 3.675030 
# 
# 
# High freq. dielectric constant tensor:
#      x y z
#    x 1.782420 0.000000 0.000000 
#    y 0.000000 1.745130 0.000000 
#    z 0.000000 0.000000 1.772830 
# 
# From -- ./inp_files/10395.got.cif
#   From: 2010.06.25/outbox.cif.g09.slc.cpg/sg71_6_cif.got.tgz:10395.got - 2010.06.28 04:59:45.
