data_PCOD8290651
_publ_section_title
;
Structure prediction by ZEFSAII (Michael W. Deem and Ramdas Pophale) SiO2 
 PCOD8290651
Probable space group: I M M M
;
_chemical_formula_sum "Si O2"
_cell_formula_units_Z 56
_cell_length_a 36.107473
_cell_length_b 9.275538
_cell_length_c 9.159881
_cell_angle_alpha 90.000000
_cell_angle_beta 90.000000
_cell_angle_gamma 90.000000
_cell_volume 3067.792884
_symmetry_space_group_name_H-M "I M M M"
_symmetry_group_IT_number 71
_symmetry_cell_setting 'orthorhombic'
loop_
_space_group_symop_operation_xyz
x,y,z
-x,-y,z
x,-y,-z
-x,y,-z
-x,-y,-z
x,y,-z
-x,y,z
x,-y,z
1/2+x,1/2+y,1/2+z
1/2-x,1/2-y,1/2+z
1/2+x,1/2-y,1/2-z
1/2-x,1/2+y,1/2-z
1/2-x,1/2-y,1/2-z
1/2+x,1/2+y,1/2-z
1/2-x,1/2+y,1/2+z
1/2+x,1/2-y,1/2+z
loop_
_atom_site_type_symbol
_atom_site_label
_atom_site_fract_x
_atom_site_fract_y
_atom_site_fract_z
Si Si1 0.065394 0.669179 0.669781
Si Si2 0.500000 0.668979 0.671459
Si Si3 0.862941 0.328997 0.838284
Si Si4 0.281581 0.162856 0.328339
O O1 0.061357 0.705394 0.500000
O O2 0.058891 0.500000 0.700083
O O3 0.106034 0.719462 0.722717
O O4 0.036013 0.759874 0.759398
O O5 0.500000 0.500000 0.706643
O O6 0.500000 0.700056 0.500000
O O7 0.860269 0.500000 0.847015
O O8 0.822350 0.271984 0.789422
O O9 0.873234 0.269425 0.000000
O O10 0.275178 0.171042 0.500000
O O11 0.250000 0.250000 0.250000
O O12 0.278801 0.000000 0.271298
#
# Coordination Sequence:
#
# PCOD8290651 Si02
#       4
#    16   8  16  16
#     4  10  20  34  55  82 105 127 163 209 253 299
#     4  11  24  39  54  74 102 137 172 203 242 296
#     4   8  15  30  51  73  99 132 169 209 250 292
#     4   9  18  32  50  74 103 134 170 210 251 298
#
# _framework density 18.254166000000001
#
# number of rings (size 3 to 8) (size 9 to 14) (size 15 to 20)
#    0.000    2.714    0.000    3.429    0.000    6.286 
#    0.000    4.286    0.000    1.714    0.000    0.000 
#    0.000    0.000    0.000    0.000    0.000    0.000 
#
# Total GULP energy -347097.181555 kJ/mol
# GULP energy per Si atom -12396.327913 kJ/mol
# Density = 1.821262 g / cm^3
# Si number density = 18.254166 Si / 1000 Ang^3
#
#
#
# Elastic Constant Matrix: (Units=GPa)
#
#
# Indices 1 2 3 4 5 6 
#
# 1 173.7713 61.5869 84.0329 0.0000 0.0000 0.0000
# 2 61.5869 60.9188 52.9124 0.0000 0.0000 0.0000
# 3 84.0329 52.9124 103.9273 0.0000 0.0000 0.0000
# 4 0.0000 0.0000 0.0000 25.7529 0.0000 0.0000
# 5 0.0000 0.0000 0.0000 0.0000 41.2216 0.0000
# 6 0.0000 0.0000 0.0000 0.0000 0.0000 26.8343
#
#
#
# Elastic Compliance Matrix: (Units=1/GPa)
#
#
# Indices 1 2 3 4 5 6 
#
# 1 0.010480 -0.005799 -0.005521 0.000000 0.000000 0.000000
# 2 -0.005799 0.032639 -0.011928 0.000000 0.000000 0.000000
# 3 -0.005521 -0.011928 0.020159 0.000000 0.000000 0.000000
# 4 0.000000 0.000000 0.000000 0.038831 0.000000 0.000000
# 5 0.000000 0.000000 0.000000 0.000000 0.024259 0.000000
# 6 0.000000 0.000000 0.000000 0.000000 0.000000 0.037266
#
#
# Mechanical properties :
#
#
# Convention : Reuss Voigt Hill
#
# Bulk Modulus (GPa) = 59.59232 81.74242 70.66737
# Shear Modulus (GPa) = 23.17772 28.10079 25.63926
#
# Velocity S-wave (km/s) = 3.56718 3.92780 3.75183
# Velocity P-wave (km/s) = 7.04863 8.08996 7.58718
#
# Compressibility (1/GPa) = 0.01678068
#
# Stress axis : x y z
#
# Youngs Moduli (GPa) = 95.41930 30.63855 49.60476
#
# Poissons Ratio (x) = 0.17768 0.27388
# Poissons Ratio (y) = 0.55337 0.59169
# Poissons Ratio (z) = 0.52684 0.36546
#
# Static dielectric constant tensor:
#      x y z
#    x 5.325150 0.000000 0.000000 
#    y 0.000000 3.112900 0.000000 
#    z 0.000000 0.000000 3.379200 
# 
# 
# High freq. dielectric constant tensor:
#      x y z
#    x 1.727520 0.000000 0.000000 
#    y 0.000000 1.669220 0.000000 
#    z 0.000000 0.000000 1.708930 
# 
# From -- ./inp_files/16092.got.cif
#   From: 2010.06.25/outbox.cif.g09.slc.cpg/sg71_9_cif.got.tgz:16092.got - 2010.06.28 04:59:45.
