data_PCOD8290705
_publ_section_title
;
Structure prediction by ZEFSAII (Michael W. Deem and Ramdas Pophale) SiO2 
 PCOD8290705
Probable space group: I M M M
;
_chemical_formula_sum "Si O2"
_cell_formula_units_Z 96
_cell_length_a 19.916895
_cell_length_b 28.514439
_cell_length_c 8.782271
_cell_angle_alpha 90.000000
_cell_angle_beta 90.000000
_cell_angle_gamma 90.000000
_cell_volume 4987.619333
_symmetry_space_group_name_H-M "I M M M"
_symmetry_group_IT_number 71
_symmetry_cell_setting 'orthorhombic'
loop_
_space_group_symop_operation_xyz
x,y,z
-x,-y,z
x,-y,-z
-x,y,-z
-x,-y,-z
x,y,-z
-x,y,z
x,-y,z
1/2+x,1/2+y,1/2+z
1/2-x,1/2-y,1/2+z
1/2+x,1/2-y,1/2-z
1/2-x,1/2+y,1/2-z
1/2-x,1/2-y,1/2-z
1/2+x,1/2+y,1/2-z
1/2-x,1/2+y,1/2+z
1/2+x,1/2-y,1/2+z
loop_
_atom_site_type_symbol
_atom_site_label
_atom_site_fract_x
_atom_site_fract_y
_atom_site_fract_z
Si Si1 0.163180 0.554280 0.178644
Si Si2 0.421813 0.864736 0.178966
Si Si3 0.800446 0.193195 0.332522
Si Si4 0.927550 0.052496 0.180828
Si Si5 0.349892 0.776669 0.331841
Si Si6 0.706890 0.402800 0.321117
O O1 0.147475 0.500000 0.216677
O O2 0.107627 0.586576 0.258464
O O3 0.237049 0.566955 0.236646
O O4 0.160238 0.564215 0.000000
O O5 0.500000 0.862661 0.220727
O O6 0.384923 0.820404 0.251419
O O7 0.409031 0.863140 0.000000
O O8 0.824689 0.175889 0.500000
O O9 0.729039 0.217318 0.351907
O O10 0.857136 0.229080 0.267663
O O11 0.787799 0.151722 0.213902
O O12 0.865680 0.082225 0.244706
O O13 0.000000 0.073594 0.233269
O O14 0.920677 0.000000 0.244472
O O15 0.924214 0.051895 0.000000
O O16 0.382300 0.770153 0.500000
O O17 0.715282 0.411588 0.500000
#
# Coordination Sequence:
#
# PCOD8290705 Si02
#       6
#    16  16  16  16  16  16
#     4  11  24  40  58  83 116 154 197 245 296 350
#     4  11  24  41  62  87 117 153 193 242 299 354
#     4  10  20  34  56  84 116 148 184 230 281 336
#     4   8  15  29  49  75 108 145 185 228 275 329
#     4  10  20  36  59  85 112 147 188 229 278 336
#     4  11  20  32  56  87 116 149 191 239 291 343
#
# _framework density 19.24766
#
# number of rings (size 3 to 8) (size 9 to 14) (size 15 to 20)
#    0.000    1.833    1.667    3.500    0.000    5.000 
#    0.000    2.500    0.000    5.000    0.000    5.833 
#    0.000    0.000    0.000    0.000    0.000    0.000 
#
# Total GULP energy -595008.871184 kJ/mol
# GULP energy per Si atom -12396.018150 kJ/mol
# Density = 1.920385 g / cm^3
# Si number density = 19.247660 Si / 1000 Ang^3
#
#
#
# Elastic Constant Matrix: (Units=GPa)
#
#
# Indices 1 2 3 4 5 6 
#
# 1 87.2789 34.0307 47.7485 0.0000 0.0000 0.0000
# 2 34.0307 73.2263 49.2119 0.0000 0.0000 0.0000
# 3 47.7485 49.2119 94.8027 0.0000 0.0000 0.0000
# 4 0.0000 0.0000 0.0000 21.9712 0.0000 0.0000
# 5 0.0000 0.0000 0.0000 0.0000 14.9380 0.0000
# 6 0.0000 0.0000 0.0000 0.0000 0.0000 13.3811
#
#
#
# Elastic Compliance Matrix: (Units=1/GPa)
#
#
# Indices 1 2 3 4 5 6 
#
# 1 0.016277 -0.003156 -0.006560 0.000000 0.000000 0.000000
# 2 -0.003156 0.021585 -0.009615 0.000000 0.000000 0.000000
# 3 -0.006560 -0.009615 0.018843 0.000000 0.000000 0.000000
# 4 0.000000 0.000000 0.000000 0.045514 0.000000 0.000000
# 5 0.000000 0.000000 0.000000 0.000000 0.066943 0.000000
# 6 0.000000 0.000000 0.000000 0.000000 0.000000 0.074732
#
#
# Mechanical properties :
#
#
# Convention : Reuss Voigt Hill
#
# Bulk Modulus (GPa) = 55.42211 57.47668 56.44940
# Shear Modulus (GPa) = 17.32679 18.34585 17.83632
#
# Velocity S-wave (km/s) = 3.00359 3.09066 3.04744
# Velocity P-wave (km/s) = 6.39418 6.53167 6.46329
#
# Compressibility (1/GPa) = 0.01804334
#
# Stress axis : x y z
#
# Youngs Moduli (GPa) = 61.43740 46.32898 53.06917
#
# Poissons Ratio (x) = 0.14621 0.34812
# Poissons Ratio (y) = 0.19389 0.51027
# Poissons Ratio (z) = 0.40302 0.44546
#
# Static dielectric constant tensor:
#      x y z
#    x 3.629270 0.000000 0.000000 
#    y 0.000000 3.526170 0.000000 
#    z 0.000000 0.000000 3.665460 
# 
# 
# High freq. dielectric constant tensor:
#      x y z
#    x 1.736260 0.000000 0.000000 
#    y 0.000000 1.749580 0.000000 
#    z 0.000000 0.000000 1.750930 
# 
# From -- ./inp_files/10872.got.cif
#   From: 2010.06.25/outbox.cif.g09.slc.cpg/sg71_6_cif.got.tgz:10872.got - 2010.06.28 04:59:45.
