data_PCOD8290876
_publ_section_title
;
Structure prediction by ZEFSAII (Michael W. Deem and Ramdas Pophale) SiO2 
 PCOD8290876
Probable space group: I M M M
;
_chemical_formula_sum "Si O2"
_cell_formula_units_Z 104
_cell_length_a 18.514856
_cell_length_b 9.090310
_cell_length_c 32.020466
_cell_angle_alpha 90.000000
_cell_angle_beta 90.000000
_cell_angle_gamma 90.000000
_cell_volume 5389.229527
_symmetry_space_group_name_H-M "I M M M"
_symmetry_group_IT_number 71
_symmetry_cell_setting 'orthorhombic'
loop_
_space_group_symop_operation_xyz
x,y,z
-x,-y,z
x,-y,-z
-x,y,-z
-x,-y,-z
x,y,-z
-x,y,z
x,-y,z
1/2+x,1/2+y,1/2+z
1/2-x,1/2-y,1/2+z
1/2+x,1/2-y,1/2-z
1/2-x,1/2+y,1/2-z
1/2-x,1/2-y,1/2-z
1/2+x,1/2+y,1/2-z
1/2-x,1/2+y,1/2+z
1/2+x,1/2-y,1/2+z
loop_
_atom_site_type_symbol
_atom_site_label
_atom_site_fract_x
_atom_site_fract_y
_atom_site_fract_z
Si Si1 0.415204 0.325889 0.670076
Si Si2 0.700796 0.832143 0.047369
Si Si3 0.581914 0.327165 0.093030
Si Si4 0.326539 0.174291 0.256594
Si Si5 0.350196 0.672731 0.416669
Si Si6 0.082568 0.669239 0.324133
Si Si7 0.084615 0.166965 0.000000
O O1 0.500000 0.287178 0.673637
O O2 0.402200 0.500000 0.675015
O O3 0.369785 0.241212 0.704749
O O4 0.384577 0.264708 0.625888
O O5 0.631792 0.730851 0.055815
O O6 0.764864 0.792836 0.079811
O O7 0.676534 0.000000 0.053478
O O8 0.727959 0.804888 0.000000
O O9 0.500000 0.274911 0.084362
O O10 0.587587 0.500000 0.095124
O O11 0.610378 0.263255 0.136793
O O12 0.250000 0.250000 0.250000
O O13 0.371429 0.213754 0.215629
O O14 0.317353 0.000000 0.262996
O O15 0.366018 0.500000 0.416949
O O16 0.387865 0.745428 0.457518
O O17 0.092968 0.500000 0.336245
O O18 0.000000 0.706826 0.313362
O O19 0.000000 0.170645 0.000000
O O20 0.115204 0.000000 0.000000
#
# Coordination Sequence:
#
# PCOD8290876 Si02
#       7
#    16  16  16  16  16  16   8
#     4  10  21  37  58  86 120 155 191 235 288 343
#     4  10  20  35  56  81 113 153 194 237 281 331
#     4  10  22  38  57  83 113 144 183 234 289 344
#     4  11  24  40  59  85 117 152 192 236 284 341
#     4   9  17  31  51  80 115 149 187 231 279 327
#     4   9  19  38  62  83 106 142 186 230 277 333
#     4   9  14  24  48  80 112 145 184 230 275 321
#
# _framework density 19.297750000000001
#
# number of rings (size 3 to 8) (size 9 to 14) (size 15 to 20)
#    0.000    2.231    0.769    1.846    2.154    5.538 
#    0.000    3.077    0.000    0.000    0.000    0.000 
#    0.000    2.462    0.000    0.000    0.000    0.000 
#
# Total GULP energy -644767.248382 kJ/mol
# GULP energy per Si atom -12399.370161 kJ/mol
# Density = 1.925383 g / cm^3
# Si number density = 19.297750 Si / 1000 Ang^3
#
#
#
# Elastic Constant Matrix: (Units=GPa)
#
#
# Indices 1 2 3 4 5 6 
#
# 1 114.4472 41.9670 71.9225 0.0000 0.0000 0.0000
# 2 41.9670 49.2807 40.3004 0.0000 0.0000 0.0000
# 3 71.9225 40.3004 111.8492 0.0000 0.0000 0.0000
# 4 0.0000 0.0000 0.0000 27.8889 0.0000 0.0000
# 5 0.0000 0.0000 0.0000 0.0000 41.4437 0.0000
# 6 0.0000 0.0000 0.0000 0.0000 0.0000 22.0446
#
#
#
# Elastic Compliance Matrix: (Units=1/GPa)
#
#
# Indices 1 2 3 4 5 6 
#
# 1 0.016451 -0.007597 -0.007841 0.000000 0.000000 0.000000
# 2 -0.007597 0.032277 -0.006744 0.000000 0.000000 0.000000
# 3 -0.007841 -0.006744 0.016413 0.000000 0.000000 0.000000
# 4 0.000000 0.000000 0.000000 0.035857 0.000000 0.000000
# 5 0.000000 0.000000 0.000000 0.000000 0.024129 0.000000
# 6 0.000000 0.000000 0.000000 0.000000 0.000000 0.045362
#
#
# Mechanical properties :
#
#
# Convention : Reuss Voigt Hill
#
# Bulk Modulus (GPa) = 48.13439 64.88410 56.50924
# Shear Modulus (GPa) = 22.54478 26.36793 24.45636
#
# Velocity S-wave (km/s) = 3.42169 3.70046 3.56380
# Velocity P-wave (km/s) = 6.37242 7.20788 6.80299
#
# Compressibility (1/GPa) = 0.02077517
#
# Stress axis : x y z
#
# Youngs Moduli (GPa) = 60.78548 30.98160 60.92780
#
# Poissons Ratio (x) = 0.23538 0.47775
# Poissons Ratio (y) = 0.46181 0.41092
# Poissons Ratio (z) = 0.47664 0.20895
#
# Static dielectric constant tensor:
#      x y z
#    x 3.641140 0.000000 0.000000 
#    y 0.000000 3.232260 0.000000 
#    z 0.000000 0.000000 3.732710 
# 
# 
# High freq. dielectric constant tensor:
#      x y z
#    x 1.762470 0.000000 0.000000 
#    y 0.000000 1.715810 0.000000 
#    z 0.000000 0.000000 1.762620 
# 
# From -- ./inp_files/66409.got.cif
#   From: 2010.06.25/outbox.cif.g09.slc.cpg/sg71_34_cif.got.tgz:66409.got - 2010.06.28 04:59:45.
