data_PCOD8290215
_publ_section_title
;
Structure prediction by ZEFSAII (Michael W. Deem and Ramdas Pophale) SiO2 
 PCOD8290215
Probable space group: I M M M
;
_chemical_formula_sum "Si O2"
_cell_formula_units_Z 104
_cell_length_a 8.894340
_cell_length_b 22.894530
_cell_length_c 27.916218
_cell_angle_alpha 90.000000
_cell_angle_beta 90.000000
_cell_angle_gamma 90.000000
_cell_volume 5684.627877
_symmetry_space_group_name_H-M "I M M M"
_symmetry_group_IT_number 71
_symmetry_cell_setting 'orthorhombic'
loop_
_space_group_symop_operation_xyz
x,y,z
-x,-y,z
x,-y,-z
-x,y,-z
-x,-y,-z
x,y,-z
-x,y,z
x,-y,z
1/2+x,1/2+y,1/2+z
1/2-x,1/2-y,1/2+z
1/2+x,1/2-y,1/2-z
1/2-x,1/2+y,1/2-z
1/2-x,1/2-y,1/2-z
1/2+x,1/2+y,1/2-z
1/2-x,1/2+y,1/2+z
1/2+x,1/2-y,1/2+z
loop_
_atom_site_type_symbol
_atom_site_label
_atom_site_fract_x
_atom_site_fract_y
_atom_site_fract_z
Si Si1 0.824820 0.142485 0.681172
Si Si2 0.177472 0.757469 0.197803
Si Si3 0.324496 0.565520 0.907405
Si Si4 0.673172 0.565989 0.272474
Si Si5 0.177391 0.368452 0.647425
Si Si6 0.821647 0.565794 0.553547
Si Si7 0.669497 0.069597 0.500000
O O1 0.721547 0.198357 0.670595
O O2 0.778247 0.097776 0.640459
O O3 0.785371 0.112352 0.731484
O O4 0.000000 0.159937 0.678888
O O5 0.250000 0.750000 0.250000
O O6 0.238309 0.810867 0.166085
O O7 0.000000 0.765090 0.203768
O O8 0.500000 0.566905 0.916948
O O9 0.264507 0.500000 0.901059
O O10 0.246856 0.596221 0.952858
O O11 0.500000 0.574160 0.287852
O O12 0.701258 0.500000 0.254074
O O13 0.780642 0.578272 0.317406
O O14 0.233421 0.387987 0.594108
O O15 0.000000 0.356801 0.648411
O O16 0.768691 0.585841 0.500000
O O17 0.760072 0.500000 0.563948
O O18 0.000000 0.563500 0.555363
O O19 0.500000 0.090548 0.500000
O O20 0.689622 0.000000 0.500000
#
# Coordination Sequence:
#
# PCOD8290215 Si02
#       7
#    16  16  16  16  16  16   8
#     4  10  20  35  55  78 106 140 179 221 267 322
#     4  12  24  39  57  77 104 142 185 226 270 319
#     4   9  17  31  53  79 106 137 174 215 263 320
#     4  10  20  33  51  78 113 147 175 212 268 326
#     4  11  21  34  56  83 110 144 187 229 270 322
#     4   8  15  30  54  85 118 147 178 223 276 326
#     4   9  17  29  47  73 105 139 173 211 258 309
#
# _framework density 18.294953
#
# number of rings (size 3 to 8) (size 9 to 14) (size 15 to 20)
#    0.000    2.077    1.538    3.462    0.000    4.308 
#    0.000    0.000    1.692    4.615    0.000    5.385 
#    0.000    0.000    0.000    0.000    0.000    0.000 
#
# Total GULP energy -644596.760976 kJ/mol
# GULP energy per Si atom -12396.091557 kJ/mol
# Density = 1.825331 g / cm^3
# Si number density = 18.294953 Si / 1000 Ang^3
#
#
#
# Elastic Constant Matrix: (Units=GPa)
#
#
# Indices 1 2 3 4 5 6 
#
# 1 66.0830 40.3218 48.8692 0.0000 0.0000 0.0000
# 2 40.3218 105.9008 55.7840 0.0000 0.0000 0.0000
# 3 48.8692 55.7840 147.3254 0.0000 0.0000 0.0000
# 4 0.0000 0.0000 0.0000 19.1835 0.0000 0.0000
# 5 0.0000 0.0000 0.0000 0.0000 23.1983 0.0000
# 6 0.0000 0.0000 0.0000 0.0000 0.0000 26.5195
#
#
#
# Elastic Compliance Matrix: (Units=1/GPa)
#
#
# Indices 1 2 3 4 5 6 
#
# 1 0.022595 -0.005815 -0.005293 0.000000 0.000000 0.000000
# 2 -0.005815 0.013292 -0.003104 0.000000 0.000000 0.000000
# 3 -0.005293 -0.003104 0.009719 0.000000 0.000000 0.000000
# 4 0.000000 0.000000 0.000000 0.052128 0.000000 0.000000
# 5 0.000000 0.000000 0.000000 0.000000 0.043107 0.000000
# 6 0.000000 0.000000 0.000000 0.000000 0.000000 0.037708
#
#
# Mechanical properties :
#
#
# Convention : Reuss Voigt Hill
#
# Bulk Modulus (GPa) = 58.20220 67.69546 62.94883
# Shear Modulus (GPa) = 23.50730 25.40253 24.45492
#
# Velocity S-wave (km/s) = 3.58845 3.73030 3.66006
# Velocity P-wave (km/s) = 7.00368 7.45896 7.23490
#
# Compressibility (1/GPa) = 0.01718148
#
# Stress axis : x y z
#
# Youngs Moduli (GPa) = 44.25782 75.23387 102.89290
#
# Poissons Ratio (x) = 0.43747 0.54463
# Poissons Ratio (y) = 0.25735 0.31939
# Poissons Ratio (z) = 0.23427 0.23353
#
# Static dielectric constant tensor:
#      x y z
#    x 3.249190 0.000000 0.000000 
#    y 0.000000 3.550740 0.000000 
#    z 0.000000 0.000000 3.633250 
# 
# 
# High freq. dielectric constant tensor:
#      x y z
#    x 1.692500 0.000000 0.000000 
#    y 0.000000 1.698440 0.000000 
#    z 0.000000 0.000000 1.713190 
# 
# From -- ./inp_files/63560.got.cif
#   From: 2010.06.25/outbox.cif.g09.slc.cpg/sg71_32_cif.got.tgz:63560.got - 2010.06.28 04:59:45.
