data_PCOD8290903
_publ_section_title
;
Structure prediction by ZEFSAII (Michael W. Deem and Ramdas Pophale) SiO2 
 PCOD8290903
Probable space group: I M M M
;
_chemical_formula_sum "Si O2"
_cell_formula_units_Z 104
_cell_length_a 22.092848
_cell_length_b 27.951630
_cell_length_c 8.845850
_cell_angle_alpha 90.000000
_cell_angle_beta 90.000000
_cell_angle_gamma 90.000000
_cell_volume 5462.587595
_symmetry_space_group_name_H-M "I M M M"
_symmetry_group_IT_number 71
_symmetry_cell_setting 'orthorhombic'
loop_
_space_group_symop_operation_xyz
x,y,z
-x,-y,z
x,-y,-z
-x,y,-z
-x,-y,-z
x,y,-z
-x,y,z
x,-y,z
1/2+x,1/2+y,1/2+z
1/2-x,1/2-y,1/2+z
1/2+x,1/2-y,1/2-z
1/2-x,1/2+y,1/2-z
1/2-x,1/2-y,1/2-z
1/2+x,1/2+y,1/2-z
1/2-x,1/2+y,1/2+z
1/2+x,1/2-y,1/2+z
loop_
_atom_site_type_symbol
_atom_site_label
_atom_site_fract_x
_atom_site_fract_y
_atom_site_fract_z
Si Si1 0.148161 0.096507 0.322437
Si Si2 0.858454 0.000000 0.167870
Si Si3 0.000000 0.556525 0.179583
Si Si4 0.569656 0.322743 0.676642
Si Si5 0.069037 0.718220 0.163893
Si Si6 0.784905 0.500000 0.330278
Si Si7 0.901505 0.374953 0.323042
Si Si8 0.714157 0.904108 0.678232
O O1 0.147418 0.088989 0.500000
O O2 0.120080 0.048093 0.251785
O O3 0.108460 0.141135 0.275723
O O4 0.217301 0.106126 0.267907
O O5 0.786721 0.000000 0.162282
O O6 0.886495 0.000000 0.000000
O O7 0.940382 0.583166 0.243390
O O8 0.000000 0.500000 0.225354
O O9 0.000000 0.562433 0.000000
O O10 0.578149 0.334368 0.500000
O O11 0.500000 0.328878 0.725998
O O12 0.596567 0.269617 0.714296
O O13 0.072225 0.677574 0.290605
O O14 0.000000 0.731406 0.134854
O O15 0.096503 0.701497 0.000000
O O16 0.812425 0.500000 0.500000
O O17 0.808624 0.544523 0.235441
O O18 0.902424 0.385302 0.500000
O O19 0.833174 0.369210 0.259864
O O20 0.707486 0.900167 0.500000
#
# Coordination Sequence:
#
# PCOD8290903 Si02
#       8
#    16   8   8  16  16   8  16  16
#     4  10  20  35  56  84 115 148 186 232 277 326
#     4   9  17  31  54  78 108 148 183 219 268 327
#     4  11  25  43  61  81 113 157 195 230 284 343
#     4   9  19  36  60  87 112 144 184 226 277 337
#     4   9  18  36  60  81 106 144 186 226 277 340
#     4   9  17  31  51  77 103 135 183 232 270 311
#     4  12  24  37  57  85 114 144 187 239 285 326
#     4  10  21  36  54  76 109 151 189 223 274 339
#
# _framework density 19.038595000000001
#
# number of rings (size 3 to 8) (size 9 to 14) (size 15 to 20)
#    0.000    2.077    0.769    3.923    1.077    5.231 
#    0.000    2.692    0.000    2.308    0.000    0.000 
#    0.000    0.000    0.000    0.000    0.000    0.000 
#
# Total GULP energy -644513.475330 kJ/mol
# GULP energy per Si atom -12394.489910 kJ/mol
# Density = 1.899526 g / cm^3
# Si number density = 19.038595 Si / 1000 Ang^3
#
#
#
# Elastic Constant Matrix: (Units=GPa)
#
#
# Indices 1 2 3 4 5 6 
#
# 1 69.5166 39.7116 32.9036 0.0000 0.0000 0.0000
# 2 39.7116 124.5081 45.8649 0.0000 0.0000 0.0000
# 3 32.9036 45.8649 95.5925 0.0000 0.0000 0.0000
# 4 0.0000 0.0000 0.0000 26.0179 0.0000 0.0000
# 5 0.0000 0.0000 0.0000 0.0000 27.7599 0.0000
# 6 0.0000 0.0000 0.0000 0.0000 0.0000 20.4593
#
#
#
# Elastic Compliance Matrix: (Units=1/GPa)
#
#
# Indices 1 2 3 4 5 6 
#
# 1 0.019009 -0.004437 -0.004414 0.000000 0.000000 0.000000
# 2 -0.004437 0.010791 -0.003651 0.000000 0.000000 0.000000
# 3 -0.004414 -0.003651 0.013732 0.000000 0.000000 0.000000
# 4 0.000000 0.000000 0.000000 0.038435 0.000000 0.000000
# 5 0.000000 0.000000 0.000000 0.000000 0.036023 0.000000
# 6 0.000000 0.000000 0.000000 0.000000 0.000000 0.048878
#
#
# Mechanical properties :
#
#
# Convention : Reuss Voigt Hill
#
# Bulk Modulus (GPa) = 53.96872 58.50861 56.23866
# Shear Modulus (GPa) = 25.24642 26.25655 25.75149
#
# Velocity S-wave (km/s) = 3.64547 3.71768 3.68175
# Velocity P-wave (km/s) = 6.79175 7.01616 6.90486
#
# Compressibility (1/GPa) = 0.01852925
#
# Stress axis : x y z
#
# Youngs Moduli (GPa) = 52.60677 92.66599 72.82261
#
# Poissons Ratio (x) = 0.41114 0.32146
# Poissons Ratio (y) = 0.23341 0.26584
# Poissons Ratio (z) = 0.23222 0.33828
#
# Static dielectric constant tensor:
#      x y z
#    x 3.342500 0.000000 0.000000 
#    y 0.000000 3.391650 0.000000 
#    z 0.000000 0.000000 3.465890 
# 
# 
# High freq. dielectric constant tensor:
#      x y z
#    x 1.717290 0.000000 0.000000 
#    y 0.000000 1.742700 0.000000 
#    z 0.000000 0.000000 1.744300 
# 
# From -- ./inp_files/11174.got.cif
#   From: 2010.06.25/outbox.cif.g09.slc.cpg/sg71_6_cif.got.tgz:11174.got - 2010.06.28 04:59:45.
