data_PCOD8290752
_publ_section_title
;
Structure prediction by ZEFSAII (Michael W. Deem and Ramdas Pophale) SiO2 
 PCOD8290752
Probable space group: I M M M
;
_chemical_formula_sum "Si O2"
_cell_formula_units_Z 120
_cell_length_a 27.583436
_cell_length_b 9.794403
_cell_length_c 24.175305
_cell_angle_alpha 90.000000
_cell_angle_beta 90.000000
_cell_angle_gamma 90.000000
_cell_volume 6531.279895
_symmetry_space_group_name_H-M "I M M M"
_symmetry_group_IT_number 71
_symmetry_cell_setting 'orthorhombic'
loop_
_space_group_symop_operation_xyz
x,y,z
-x,-y,z
x,-y,-z
-x,y,-z
-x,-y,-z
x,y,-z
-x,y,z
x,-y,z
1/2+x,1/2+y,1/2+z
1/2-x,1/2-y,1/2+z
1/2+x,1/2-y,1/2-z
1/2-x,1/2+y,1/2-z
1/2-x,1/2-y,1/2-z
1/2+x,1/2+y,1/2-z
1/2-x,1/2+y,1/2+z
1/2+x,1/2-y,1/2+z
loop_
_atom_site_type_symbol
_atom_site_label
_atom_site_fract_x
_atom_site_fract_y
_atom_site_fract_z
Si Si1 0.445273 0.343247 0.249524
Si Si2 0.185451 0.155263 0.938128
Si Si3 0.053290 0.000000 0.564393
Si Si4 0.123843 0.243278 0.563690
Si Si5 0.116098 0.648929 0.677038
Si Si6 0.768055 0.852058 0.435516
Si Si7 0.798026 0.339074 0.245132
Si Si8 0.861833 0.844893 0.829312
O O1 0.500000 0.293859 0.260124
O O2 0.443549 0.500000 0.230269
O O3 0.421831 0.258524 0.199725
O O4 0.416316 0.321680 0.307107
O O5 0.230757 0.239649 0.912506
O O6 0.140059 0.171819 0.896145
O O7 0.203853 0.000000 0.939949
O O8 0.169570 0.202449 0.000000
O O9 0.083679 0.132730 0.579859
O O10 0.044405 0.000000 0.500000
O O11 0.000000 0.000000 0.593956
O O12 0.118649 0.296703 0.500000
O O13 0.116302 0.358850 0.609951
O O14 0.176373 0.181989 0.575117
O O15 0.099833 0.500000 0.698553
O O16 0.170406 0.680370 0.699006
O O17 0.758450 0.860769 0.500000
O O18 0.757102 0.000000 0.408104
O O19 0.787050 0.500000 0.233798
O O20 0.750000 0.250000 0.250000
O O21 0.827901 0.272646 0.195139
O O22 0.844529 0.000000 0.813266
#
# Coordination Sequence:
#
# PCOD8290752 Si02
#       8
#    16  16   8  16  16  16  16  16
#     4   9  19  37  61  83 101 131 177 225 270 315
#     4   9  18  31  49  76 111 149 180 208 252 312
#     4   9  18  34  54  74  98 132 174 220 266 312
#     4  10  20  35  53  75 105 137 173 218 266 318
#     4  10  23  38  53  78 108 136 173 218 267 322
#     4   9  17  30  47  69 101 139 178 217 254 296
#     4  10  21  37  53  73 103 140 179 220 266 313
#     4   9  18  34  54  78 108 138 175 220 262 313
#
# _framework density 18.373121000000001
#
# number of rings (size 3 to 8) (size 9 to 14) (size 15 to 20)
#    0.000    2.600    0.667    0.400    2.800    2.667 
#    0.000    1.333    0.000    0.400    0.000    5.600 
#    0.000    0.000    0.000   10.000    0.000   10.400 
#
# Total GULP energy -743390.578708 kJ/mol
# GULP energy per Si atom -12389.842978 kJ/mol
# Density = 1.833130 g / cm^3
# Si number density = 18.373121 Si / 1000 Ang^3
#
#
#
# Elastic Constant Matrix: (Units=GPa)
#
#
# Indices 1 2 3 4 5 6 
#
# 1 117.7273 56.3296 56.1232 0.0000 0.0000 0.0000
# 2 56.3296 94.9654 41.3835 0.0000 0.0000 0.0000
# 3 56.1232 41.3835 103.5132 0.0000 0.0000 0.0000
# 4 0.0000 0.0000 0.0000 16.7562 0.0000 0.0000
# 5 0.0000 0.0000 0.0000 0.0000 15.7680 0.0000
# 6 0.0000 0.0000 0.0000 0.0000 0.0000 23.1707
#
#
#
# Elastic Compliance Matrix: (Units=1/GPa)
#
#
# Indices 1 2 3 4 5 6 
#
# 1 0.013765 -0.005949 -0.005085 0.000000 0.000000 0.000000
# 2 -0.005949 0.015323 -0.002901 0.000000 0.000000 0.000000
# 3 -0.005085 -0.002901 0.013577 0.000000 0.000000 0.000000
# 4 0.000000 0.000000 0.000000 0.059679 0.000000 0.000000
# 5 0.000000 0.000000 0.000000 0.000000 0.063419 0.000000
# 6 0.000000 0.000000 0.000000 0.000000 0.000000 0.043158
#
#
# Mechanical properties :
#
#
# Convention : Reuss Voigt Hill
#
# Bulk Modulus (GPa) = 67.58428 69.31982 68.45205
# Shear Modulus (GPa) = 20.68501 21.96364 21.32433
#
# Velocity S-wave (km/s) = 3.35898 3.46124 3.41049
# Velocity P-wave (km/s) = 7.20471 7.33379 7.26953
#
# Compressibility (1/GPa) = 0.01479634
#
# Stress axis : x y z
#
# Youngs Moduli (GPa) = 72.65066 65.26272 73.65398
#
# Poissons Ratio (x) = 0.38823 0.37450
# Poissons Ratio (y) = 0.43218 0.21363
# Poissons Ratio (z) = 0.36940 0.18930
#
# Static dielectric constant tensor:
#      x y z
#    x 3.487740 0.000000 0.000000 
#    y 0.000000 3.510260 0.000000 
#    z 0.000000 0.000000 3.388790 
# 
# 
# High freq. dielectric constant tensor:
#      x y z
#    x 1.692820 0.000000 0.000000 
#    y 0.000000 1.713500 0.000000 
#    z 0.000000 0.000000 1.704860 
# 
# From -- ./inp_files/67144.got.cif
#   From: 2010.06.25/outbox.cif.g09.slc.cpg/sg71_34_cif.got.tgz:67144.got - 2010.06.28 04:59:45.
