data_PCOD8290889
_publ_section_title
;
Structure prediction by ZEFSAII (Michael W. Deem and Ramdas Pophale) SiO2 
 PCOD8290889
Probable space group: I M M M
;
_chemical_formula_sum "Si O2"
_cell_formula_units_Z 104
_cell_length_a 30.302827
_cell_length_b 20.218373
_cell_length_c 8.980111
_cell_angle_alpha 90.000000
_cell_angle_beta 90.000000
_cell_angle_gamma 90.000000
_cell_volume 5501.879263
_symmetry_space_group_name_H-M "I M M M"
_symmetry_group_IT_number 71
_symmetry_cell_setting 'orthorhombic'
loop_
_space_group_symop_operation_xyz
x,y,z
-x,-y,z
x,-y,-z
-x,y,-z
-x,-y,-z
x,y,-z
-x,y,z
x,-y,z
1/2+x,1/2+y,1/2+z
1/2-x,1/2-y,1/2+z
1/2+x,1/2-y,1/2-z
1/2-x,1/2+y,1/2-z
1/2-x,1/2-y,1/2-z
1/2+x,1/2+y,1/2-z
1/2-x,1/2+y,1/2+z
1/2+x,1/2-y,1/2+z
loop_
_atom_site_type_symbol
_atom_site_label
_atom_site_fract_x
_atom_site_fract_y
_atom_site_fract_z
Si Si1 0.168770 0.884485 0.165665
Si Si2 0.075119 0.852213 0.177730
Si Si3 0.228961 0.000000 0.178172
Si Si4 0.050327 0.715766 0.327042
Si Si5 0.500000 0.423504 0.163792
Si Si6 0.328548 0.000000 0.176714
Si Si7 0.795185 0.261202 0.166589
Si Si8 0.137136 0.359668 0.674982
O O1 0.121244 0.879634 0.244842
O O2 0.184711 0.810498 0.160134
O O3 0.203333 0.935096 0.242570
O O4 0.162125 0.912906 0.000000
O O5 0.062669 0.779639 0.232863
O O6 0.041517 0.905087 0.238292
O O7 0.075713 0.849559 0.000000
O O8 0.278699 0.000000 0.242523
O O9 0.232517 0.000000 0.000000
O O10 0.053951 0.734334 0.500000
O O11 0.086204 0.658938 0.286536
O O12 0.000000 0.692340 0.288855
O O13 0.500000 0.500000 0.136288
O O14 0.500000 0.388181 0.000000
O O15 0.354293 0.065571 0.232714
O O16 0.327076 0.000000 0.000000
O O17 0.750000 0.250000 0.250000
O O18 0.828165 0.310731 0.248838
O O19 0.786826 0.288486 0.000000
O O20 0.146173 0.354182 0.500000
#
# Coordination Sequence:
#
# PCOD8290889 Si02
#       8
#    16  16   8  16   8   8  16  16
#     4   9  19  32  50  78 110 139 179 231 282 326
#     4  11  21  35  56  82 108 141 191 242 281 327
#     4   9  16  30  50  73 106 146 181 229 285 333
#     4  10  20  35  56  82 115 151 187 233 295 352
#     4  11  25  41  55  77 113 154 189 228 287 343
#     4   9  18  34  58  83 111 147 192 235 284 350
#     4  11  21  35  54  82 115 147 189 238 288 341
#     4  10  20  36  58  84 112 151 196 239 294 354
#
# _framework density 18.902633000000002
#
# number of rings (size 3 to 8) (size 9 to 14) (size 15 to 20)
#    0.000    1.923    2.308    2.077    1.077    3.077 
#    0.000    0.769    0.000    2.308    0.000    0.000 
#    0.000    2.462    0.000    0.000    0.000    0.000 
#
# Total GULP energy -644415.081971 kJ/mol
# GULP energy per Si atom -12392.597730 kJ/mol
# Density = 1.885961 g / cm^3
# Si number density = 18.902633 Si / 1000 Ang^3
#
#
#
# Elastic Constant Matrix: (Units=GPa)
#
#
# Indices 1 2 3 4 5 6 
#
# 1 173.8763 70.3542 41.5674 0.0000 0.0000 0.0000
# 2 70.3542 124.4156 29.8269 0.0000 0.0000 0.0000
# 3 41.5674 29.8269 53.6272 0.0000 0.0000 0.0000
# 4 0.0000 0.0000 0.0000 18.5338 0.0000 0.0000
# 5 0.0000 0.0000 0.0000 0.0000 23.9311 0.0000
# 6 0.0000 0.0000 0.0000 0.0000 0.0000 36.6146
#
#
#
# Elastic Compliance Matrix: (Units=1/GPa)
#
#
# Indices 1 2 3 4 5 6 
#
# 1 0.008267 -0.003621 -0.004394 0.000000 0.000000 0.000000
# 2 -0.003621 0.010861 -0.003234 0.000000 0.000000 0.000000
# 3 -0.004394 -0.003234 0.023851 0.000000 0.000000 0.000000
# 4 0.000000 0.000000 0.000000 0.053955 0.000000 0.000000
# 5 0.000000 0.000000 0.000000 0.000000 0.041787 0.000000
# 6 0.000000 0.000000 0.000000 0.000000 0.000000 0.027312
#
#
# Mechanical properties :
#
#
# Convention : Reuss Voigt Hill
#
# Bulk Modulus (GPa) = 48.82422 70.60178 59.71300
# Shear Modulus (GPa) = 25.59423 29.82728 27.71075
#
# Velocity S-wave (km/s) = 3.68367 3.97664 3.83296
# Velocity P-wave (km/s) = 6.63159 7.64959 7.15871
#
# Compressibility (1/GPa) = 0.02048164
#
# Stress axis : x y z
#
# Youngs Moduli (GPa) = 120.96477 92.07591 41.92650
#
# Poissons Ratio (x) = 0.33345 0.18421
# Poissons Ratio (y) = 0.43806 0.13557
# Poissons Ratio (z) = 0.53147 0.29773
#
# Static dielectric constant tensor:
#      x y z
#    x 3.913670 0.000000 0.000000 
#    y 0.000000 3.535790 0.000000 
#    z 0.000000 0.000000 3.458180 
# 
# 
# High freq. dielectric constant tensor:
#      x y z
#    x 1.753430 0.000000 0.000000 
#    y 0.000000 1.732050 0.000000 
#    z 0.000000 0.000000 1.704970 
# 
# From -- ./inp_files/17079.got.cif
#   From: 2010.06.25/outbox.cif.g09.slc.cpg/sg71_9_cif.got.tgz:17079.got - 2010.06.28 04:59:45.
