data_PCOD8290206
_publ_section_title
;
Structure prediction by ZEFSAII (Michael W. Deem and Ramdas Pophale) SiO2 
 PCOD8290206
Probable space group: I M M M
;
_chemical_formula_sum "Si O2"
_cell_formula_units_Z 104
_cell_length_a 19.339726
_cell_length_b 8.727973
_cell_length_c 31.666141
_cell_angle_alpha 90.000000
_cell_angle_beta 90.000000
_cell_angle_gamma 90.000000
_cell_volume 5345.137137
_symmetry_space_group_name_H-M "I M M M"
_symmetry_group_IT_number 71
_symmetry_cell_setting 'orthorhombic'
loop_
_space_group_symop_operation_xyz
x,y,z
-x,-y,z
x,-y,-z
-x,y,-z
-x,-y,-z
x,y,-z
-x,y,z
x,-y,z
1/2+x,1/2+y,1/2+z
1/2-x,1/2-y,1/2+z
1/2+x,1/2-y,1/2-z
1/2-x,1/2+y,1/2-z
1/2-x,1/2-y,1/2-z
1/2+x,1/2+y,1/2-z
1/2-x,1/2+y,1/2+z
1/2+x,1/2-y,1/2+z
loop_
_atom_site_type_symbol
_atom_site_label
_atom_site_fract_x
_atom_site_fract_y
_atom_site_fract_z
Si Si1 0.422440 0.681916 0.246746
Si Si2 0.309059 0.676367 0.094768
Si Si3 0.813483 0.320282 0.682721
Si Si4 0.167403 0.182220 0.920536
Si Si5 0.924091 0.330389 0.450443
Si Si6 0.340814 0.318820 0.325847
Si Si7 0.922115 0.182082 0.000000
O O1 0.500000 0.745423 0.238069
O O2 0.422960 0.500000 0.245947
O O3 0.368194 0.737053 0.212329
O O4 0.398365 0.741797 0.293104
O O5 0.298702 0.500000 0.107317
O O6 0.330302 0.777718 0.134875
O O7 0.241128 0.740071 0.071378
O O8 0.372589 0.696134 0.063175
O O9 0.821026 0.500000 0.690153
O O10 0.734612 0.261645 0.690483
O O11 0.141555 0.236112 0.873715
O O12 0.176104 0.000000 0.922567
O O13 0.115750 0.240427 0.957285
O O14 0.930013 0.324846 0.500000
O O15 0.898052 0.500000 0.436189
O O16 0.000000 0.298954 0.430742
O O17 0.338800 0.500000 0.326330
O O18 0.000000 0.248235 0.000000
O O19 0.923611 0.000000 0.000000
#
# Coordination Sequence:
#
# PCOD8290206 Si02
#       7
#    16  16  16  16  16  16   8
#     4  10  20  33  51  78 109 139 173 219 276 329
#     4  11  22  35  54  80 109 141 180 225 271 320
#     4  10  20  36  56  76 102 138 180 223 266 318
#     4   9  18  34  55  81 111 145 186 228 271 322
#     4   9  19  36  56  77 103 138 178 218 266 323
#     4   8  16  32  53  76 103 138 180 221 265 316
#     4   9  18  32  55  87 116 145 184 229 271 312
#
# _framework density 19.456937
#
# number of rings (size 3 to 8) (size 9 to 14) (size 15 to 20)
#    0.000    2.538    0.000    3.692    1.077    2.154 
#    0.000    6.923    0.000    0.923    0.000    0.000 
#    0.000    0.000    0.000    0.000    0.000    0.000 
#
# Total GULP energy -644494.986603 kJ/mol
# GULP energy per Si atom -12394.134358 kJ/mol
# Density = 1.941265 g / cm^3
# Si number density = 19.456937 Si / 1000 Ang^3
#
#
#
# Elastic Constant Matrix: (Units=GPa)
#
#
# Indices 1 2 3 4 5 6 
#
# 1 143.0501 26.8171 89.1823 0.0000 0.0000 0.0000
# 2 26.8171 29.4706 9.0141 0.0000 0.0000 0.0000
# 3 89.1823 9.0141 104.6573 0.0000 0.0000 0.0000
# 4 0.0000 0.0000 0.0000 18.5878 0.0000 0.0000
# 5 0.0000 0.0000 0.0000 0.0000 26.0144 0.0000
# 6 0.0000 0.0000 0.0000 0.0000 0.0000 14.4653
#
#
#
# Elastic Compliance Matrix: (Units=1/GPa)
#
#
# Indices 1 2 3 4 5 6 
#
# 1 0.018419 -0.012283 -0.014637 0.000000 0.000000 0.000000
# 2 -0.012283 0.043042 0.006760 0.000000 0.000000 0.000000
# 3 -0.014637 0.006760 0.021446 0.000000 0.000000 0.000000
# 4 0.000000 0.000000 0.000000 0.053799 0.000000 0.000000
# 5 0.000000 0.000000 0.000000 0.000000 0.038440 0.000000
# 6 0.000000 0.000000 0.000000 0.000000 0.000000 0.069131
#
#
# Mechanical properties :
#
#
# Convention : Reuss Voigt Hill
#
# Bulk Modulus (GPa) = 23.48259 58.57834 41.03047
# Shear Modulus (GPa) = 16.73405 21.95779 19.34592
#
# Velocity S-wave (km/s) = 2.93585 3.36301 3.15666
# Velocity P-wave (km/s) = 4.85670 6.72694 5.86683
#
# Compressibility (1/GPa) = 0.04258474
#
# Stress axis : x y z
#
# Youngs Moduli (GPa) = 54.29313 23.23330 46.62953
#
# Poissons Ratio (x) = 0.28538 0.68252
# Poissons Ratio (y) = 0.66689 -0.31520
# Poissons Ratio (z) = 0.79470 -0.15705
#
# Static dielectric constant tensor:
#      x y z
#    x 3.819110 0.000000 0.000000 
#    y 0.000000 3.242030 0.000000 
#    z 0.000000 0.000000 3.685720 
# 
# 
# High freq. dielectric constant tensor:
#      x y z
#    x 1.759150 0.000000 0.000000 
#    y 0.000000 1.724660 0.000000 
#    z 0.000000 0.000000 1.760230 
# 
# From -- ./inp_files/70741.got.cif
#   From: 2010.06.25/outbox.cif.g09.slc.cpg/sg71_36_cif.got.tgz:70741.got - 2010.06.28 04:59:45.
