data_PCOD8290822
_publ_section_title
;
Structure prediction by ZEFSAII (Michael W. Deem and Ramdas Pophale) SiO2 
 PCOD8290822
Probable space group: I M M M
;
_chemical_formula_sum "Si O2"
_cell_formula_units_Z 96
_cell_length_a 23.526548
_cell_length_b 25.187580
_cell_length_c 8.949899
_cell_angle_alpha 90.000000
_cell_angle_beta 90.000000
_cell_angle_gamma 90.000000
_cell_volume 5303.502598
_symmetry_space_group_name_H-M "I M M M"
_symmetry_group_IT_number 71
_symmetry_cell_setting 'orthorhombic'
loop_
_space_group_symop_operation_xyz
x,y,z
-x,-y,z
x,-y,-z
-x,y,-z
-x,-y,-z
x,y,-z
-x,y,z
x,-y,z
1/2+x,1/2+y,1/2+z
1/2-x,1/2-y,1/2+z
1/2+x,1/2-y,1/2-z
1/2-x,1/2+y,1/2-z
1/2-x,1/2-y,1/2-z
1/2+x,1/2+y,1/2-z
1/2-x,1/2+y,1/2+z
1/2+x,1/2-y,1/2+z
loop_
_atom_site_type_symbol
_atom_site_label
_atom_site_fract_x
_atom_site_fract_y
_atom_site_fract_z
Si Si1 0.246072 0.807421 0.824730
Si Si2 0.064916 0.061650 0.827396
Si Si3 0.436287 0.939812 0.323958
Si Si4 0.563474 0.748501 0.177787
Si Si5 0.630976 0.150541 0.173999
Si Si6 0.636419 0.649236 0.823118
O O1 0.250000 0.750000 0.750000
O O2 0.303098 0.840212 0.792522
O O3 0.196873 0.843432 0.755199
O O4 0.236201 0.798850 0.000000
O O5 0.108307 0.093914 0.724407
O O6 0.000000 0.075193 0.782325
O O7 0.077297 0.000000 0.798763
O O8 0.075302 0.076143 0.000000
O O9 0.430969 0.934783 0.500000
O O10 0.500000 0.922893 0.273082
O O11 0.388703 0.903429 0.250295
O O12 0.424364 0.000000 0.272700
O O13 0.500000 0.747588 0.243790
O O14 0.595522 0.800075 0.241183
O O15 0.595784 0.696339 0.234185
O O16 0.562885 0.749373 0.000000
O O17 0.618534 0.145338 0.000000
O O18 0.645250 0.650386 0.000000
#
# Coordination Sequence:
#
# PCOD8290822 Si02
#       6
#    16  16  16  16  16  16
#     4  11  22  38  57  79 109 148 189 231 278 329
#     4   9  19  37  59  83 114 150 186 229 282 334
#     4   9  19  36  56  80 112 145 176 217 271 325
#     4   9  17  30  49  76 110 140 168 215 274 325
#     4  10  20  35  55  79 107 141 184 225 268 322
#     4  11  21  35  55  82 113 147 187 228 277 335
#
# _framework density 18.101244999999999
#
# number of rings (size 3 to 8) (size 9 to 14) (size 15 to 20)
#    0.000    2.167    1.667    3.000    0.000    4.000 
#    0.000    2.500    0.000    4.000    0.000    0.000 
#    0.000    0.000    0.000    0.000    0.000    0.000 
#
# Total GULP energy -595283.877531 kJ/mol
# GULP energy per Si atom -12401.747449 kJ/mol
# Density = 1.806005 g / cm^3
# Si number density = 18.101245 Si / 1000 Ang^3
#
#
#
# Elastic Constant Matrix: (Units=GPa)
#
#
# Indices 1 2 3 4 5 6 
#
# 1 139.5449 71.9672 58.2134 0.0000 0.0000 0.0000
# 2 71.9672 114.7615 47.4204 0.0000 0.0000 0.0000
# 3 58.2134 47.4204 65.9087 0.0000 0.0000 0.0000
# 4 0.0000 0.0000 0.0000 33.1979 0.0000 0.0000
# 5 0.0000 0.0000 0.0000 0.0000 29.7218 0.0000
# 6 0.0000 0.0000 0.0000 0.0000 0.0000 28.9357
#
#
#
# Elastic Compliance Matrix: (Units=1/GPa)
#
#
# Indices 1 2 3 4 5 6 
#
# 1 0.013003 -0.004851 -0.007995 0.000000 0.000000 0.000000
# 2 -0.004851 0.014210 -0.005939 0.000000 0.000000 0.000000
# 3 -0.007995 -0.005939 0.026507 0.000000 0.000000 0.000000
# 4 0.000000 0.000000 0.000000 0.030122 0.000000 0.000000
# 5 0.000000 0.000000 0.000000 0.000000 0.033645 0.000000
# 6 0.000000 0.000000 0.000000 0.000000 0.000000 0.034559
#
#
# Mechanical properties :
#
#
# Convention : Reuss Voigt Hill
#
# Bulk Modulus (GPa) = 61.91887 75.04635 68.48261
# Shear Modulus (GPa) = 25.64102 27.87870 26.75986
#
# Velocity S-wave (km/s) = 3.76777 3.92874 3.84909
# Velocity P-wave (km/s) = 7.29447 7.88221 7.59403
#
# Compressibility (1/GPa) = 0.01615017
#
# Stress axis : x y z
#
# Youngs Moduli (GPa) = 76.90589 70.37386 37.72566
#
# Poissons Ratio (x) = 0.34136 0.30161
# Poissons Ratio (y) = 0.37304 0.22407
# Poissons Ratio (z) = 0.61484 0.41798
#
# Static dielectric constant tensor:
#      x y z
#    x 3.546150 0.000000 0.000000 
#    y 0.000000 3.350800 0.000000 
#    z 0.000000 0.000000 3.156120 
# 
# 
# High freq. dielectric constant tensor:
#      x y z
#    x 1.706820 0.000000 0.000000 
#    y 0.000000 1.702040 0.000000 
#    z 0.000000 0.000000 1.687030 
# 
# From -- ./inp_files/12826.got.cif
#   From: 2010.06.25/outbox.cif.g09.slc.cpg/sg71_7_cif.got.tgz:12826.got - 2010.06.28 04:59:45.
