data_PCOD8290221
_publ_section_title
;
Structure prediction by ZEFSAII (Michael W. Deem and Ramdas Pophale) SiO2 
 PCOD8290221
Probable space group: I M M M
;
_chemical_formula_sum "Si O2"
_cell_formula_units_Z 72
_cell_length_a 28.790944
_cell_length_b 13.607668
_cell_length_c 9.165465
_cell_angle_alpha 90.000000
_cell_angle_beta 90.000000
_cell_angle_gamma 90.000000
_cell_volume 3590.823948
_symmetry_space_group_name_H-M "I M M M"
_symmetry_group_IT_number 71
_symmetry_cell_setting 'orthorhombic'
loop_
_space_group_symop_operation_xyz
x,y,z
-x,-y,z
x,-y,-z
-x,y,-z
-x,-y,-z
x,y,-z
-x,y,z
x,-y,z
1/2+x,1/2+y,1/2+z
1/2-x,1/2-y,1/2+z
1/2+x,1/2-y,1/2-z
1/2-x,1/2+y,1/2-z
1/2-x,1/2-y,1/2-z
1/2+x,1/2+y,1/2-z
1/2-x,1/2+y,1/2+z
1/2+x,1/2-y,1/2+z
loop_
_atom_site_type_symbol
_atom_site_label
_atom_site_fract_x
_atom_site_fract_y
_atom_site_fract_z
Si Si1 0.631532 0.888515 0.329433
Si Si2 0.764684 0.617335 0.837725
Si Si3 0.322569 0.616617 0.663548
Si Si4 0.500000 0.610006 0.826931
Si Si5 0.906247 0.787291 0.673263
O O1 0.619821 0.882209 0.500000
O O2 0.683374 0.845216 0.298770
O O3 0.595941 0.822725 0.237394
O O4 0.626628 0.000000 0.273664
O O5 0.766743 0.500000 0.833102
O O6 0.726453 0.659360 0.724818
O O7 0.750531 0.651750 0.000000
O O8 0.329714 0.658261 0.500000
O O9 0.319737 0.500000 0.663036
O O10 0.364929 0.646437 0.765410
O O11 0.500000 0.500000 0.761181
O O12 0.454467 0.666573 0.771407
O O13 0.500000 0.604809 0.000000
O O14 0.902820 0.784297 0.500000
#
# Coordination Sequence:
#
# PCOD8290221 Si02
#       5
#    16  16  16   8  16
#     4   9  19  37  58  80 111 148 183 223 269 317
#     4   8  15  30  52  76 105 145 187 222 261 312
#     4  10  20  33  51  79 114 147 181 225 274 325
#     4   9  20  40  62  83 108 138 175 221 272 325
#     4  11  22  36  58  83 106 139 183 229 276 326
#
# _framework density 20.051106999999998
#
# number of rings (size 3 to 8) (size 9 to 14) (size 15 to 20)
#    0.000    2.556    0.000    3.333    0.000    4.444 
#    0.000    5.000    0.000    7.333    0.000    0.000 
#    0.000    0.000    0.000    0.000    0.000    0.000 
#
# Total GULP energy -446427.733531 kJ/mol
# GULP energy per Si atom -12400.770376 kJ/mol
# Density = 2.000547 g / cm^3
# Si number density = 20.051107 Si / 1000 Ang^3
#
#
#
# Elastic Constant Matrix: (Units=GPa)
#
#
# Indices 1 2 3 4 5 6 
#
# 1 143.3551 62.3137 58.6470 0.0000 0.0000 0.0000
# 2 62.3137 73.5491 43.6514 0.0000 0.0000 0.0000
# 3 58.6470 43.6514 90.0812 0.0000 0.0000 0.0000
# 4 0.0000 0.0000 0.0000 31.8340 0.0000 0.0000
# 5 0.0000 0.0000 0.0000 0.0000 25.6636 0.0000
# 6 0.0000 0.0000 0.0000 0.0000 0.0000 33.7746
#
#
#
# Elastic Compliance Matrix: (Units=1/GPa)
#
#
# Indices 1 2 3 4 5 6 
#
# 1 0.012012 -0.007771 -0.004055 0.000000 0.000000 0.000000
# 2 -0.007771 0.024112 -0.006625 0.000000 0.000000 0.000000
# 3 -0.004055 -0.006625 0.016952 0.000000 0.000000 0.000000
# 4 0.000000 0.000000 0.000000 0.031413 0.000000 0.000000
# 5 0.000000 0.000000 0.000000 0.000000 0.038966 0.000000
# 6 0.000000 0.000000 0.000000 0.000000 0.000000 0.029608
#
#
# Mechanical properties :
#
#
# Convention : Reuss Voigt Hill
#
# Bulk Modulus (GPa) = 61.82701 70.68995 66.25848
# Shear Modulus (GPa) = 25.59433 27.74600 26.67017
#
# Velocity S-wave (km/s) = 3.57663 3.72393 3.65102
# Velocity P-wave (km/s) = 6.92517 7.33632 7.13371
#
# Compressibility (1/GPa) = 0.01617416
#
# Stress axis : x y z
#
# Youngs Moduli (GPa) = 83.24735 41.47320 58.99168
#
# Poissons Ratio (x) = 0.32227 0.23922
# Poissons Ratio (y) = 0.64689 0.39083
# Poissons Ratio (z) = 0.33758 0.27476
#
# Static dielectric constant tensor:
#      x y z
#    x 3.661440 0.000000 0.000000 
#    y 0.000000 3.688840 0.000000 
#    z 0.000000 0.000000 3.576270 
# 
# 
# High freq. dielectric constant tensor:
#      x y z
#    x 1.767550 0.000000 0.000000 
#    y 0.000000 1.799170 0.000000 
#    z 0.000000 0.000000 1.770050 
# 
# From -- ./inp_files/6053.got.cif
#   From: 2010.06.25/outbox.cif.g09.slc.cpg/sg71_4_cif.got.tgz:6053.got - 2010.06.28 04:59:45.
