data_PCOD8290118
_publ_section_title
;
Structure prediction by ZEFSAII (Michael W. Deem and Ramdas Pophale) SiO2 
 PCOD8290118
Probable space group: I M M M
;
_chemical_formula_sum "Si O2"
_cell_formula_units_Z 104
_cell_length_a 28.016629
_cell_length_b 9.398326
_cell_length_c 22.440346
_cell_angle_alpha 90.000000
_cell_angle_beta 90.000000
_cell_angle_gamma 90.000000
_cell_volume 5908.754327
_symmetry_space_group_name_H-M "I M M M"
_symmetry_group_IT_number 71
_symmetry_cell_setting 'orthorhombic'
loop_
_space_group_symop_operation_xyz
x,y,z
-x,-y,z
x,-y,-z
-x,y,-z
-x,-y,-z
x,y,-z
-x,y,z
x,-y,z
1/2+x,1/2+y,1/2+z
1/2-x,1/2-y,1/2+z
1/2+x,1/2-y,1/2-z
1/2-x,1/2+y,1/2-z
1/2-x,1/2-y,1/2-z
1/2+x,1/2+y,1/2-z
1/2-x,1/2+y,1/2+z
1/2+x,1/2-y,1/2+z
loop_
_atom_site_type_symbol
_atom_site_label
_atom_site_fract_x
_atom_site_fract_y
_atom_site_fract_z
Si Si1 0.804434 0.834356 0.680674
Si Si2 0.700524 0.840550 0.701284
Si Si3 0.445857 0.662589 0.768635
Si Si4 0.605182 0.335720 0.891877
Si Si5 0.599522 0.839440 0.666714
Si Si6 0.556363 0.656812 0.566433
Si Si7 0.556726 0.829840 0.000000
O O1 0.748877 0.801865 0.664323
O O2 0.812357 0.760879 0.744004
O O3 0.841511 0.782924 0.629176
O O4 0.815375 0.000000 0.690595
O O5 0.656461 0.831536 0.655920
O O6 0.706210 0.000000 0.727466
O O7 0.500000 0.715189 0.762880
O O8 0.440797 0.500000 0.747662
O O9 0.430065 0.680316 0.836429
O O10 0.413389 0.757495 0.726678
O O11 0.606795 0.500000 0.914259
O O12 0.583888 0.235106 0.942946
O O13 0.575797 0.777083 0.608679
O O14 0.581566 0.000000 0.674325
O O15 0.574531 0.690124 0.500000
O O16 0.500000 0.660285 0.568950
O O17 0.574290 0.500000 0.586355
O O18 0.500000 0.789710 0.000000
O O19 0.562945 0.000000 0.000000
#
# Coordination Sequence:
#
# PCOD8290118 Si02
#       7
#    16  16  16  16  16  16   8
#     4   9  17  32  55  79 102 133 173 212 253 304
#     4   9  18  31  49  78 112 138 164 204 257 311
#     4  10  20  33  50  75 106 137 172 215 258 302
#     4  10  20  36  59  81 102 136 184 228 264 311
#     4  11  21  31  48  77 110 139 166 204 257 312
#     4   9  19  36  55  72  94 131 177 218 253 295
#     4  11  25  41  57  79 109 145 181 223 280 339
#
# _framework density 17.601002999999999
#
# number of rings (size 3 to 8) (size 9 to 14) (size 15 to 20)
#    0.000    2.231    1.538    2.077    0.000    5.846 
#    0.000    0.769    1.692    0.000    0.000    0.000 
#    0.000    0.000    0.000    0.000    0.000    0.000 
#
# Total GULP energy -644456.900759 kJ/mol
# GULP energy per Si atom -12393.401938 kJ/mol
# Density = 1.756094 g / cm^3
# Si number density = 17.601003 Si / 1000 Ang^3
#
#
#
# Elastic Constant Matrix: (Units=GPa)
#
#
# Indices 1 2 3 4 5 6 
#
# 1 105.2504 42.7129 44.2857 0.0000 0.0000 0.0000
# 2 42.7129 77.3503 44.1209 0.0000 0.0000 0.0000
# 3 44.2857 44.1209 79.0604 0.0000 0.0000 0.0000
# 4 0.0000 0.0000 0.0000 -118.5119 0.0000 0.0000
# 5 0.0000 0.0000 0.0000 0.0000 -20.8782 0.0000
# 6 0.0000 0.0000 0.0000 0.0000 0.0000 23.0150
#
#
#
# Elastic Compliance Matrix: (Units=1/GPa)
#
#
# Indices 1 2 3 4 5 6 
#
# 1 0.013459 -0.004594 -0.004975 0.000000 0.000000 0.000000
# 2 -0.004594 0.020534 -0.008886 0.000000 0.000000 0.000000
# 3 -0.004975 -0.008886 0.020394 0.000000 0.000000 0.000000
# 4 0.000000 0.000000 0.000000 -0.008438 0.000000 0.000000
# 5 0.000000 0.000000 0.000000 0.000000 -0.047897 0.000000
# 6 0.000000 0.000000 0.000000 0.000000 0.000000 0.043450
#
#
# Mechanical properties :
#
#
# Convention : Reuss Voigt Hill
#
# Bulk Modulus (GPa) = 57.21917 58.21114 57.71515
# Shear Modulus (GPa) = 59.35601 -14.57226 22.39187
#
# Velocity S-wave (km/s) = 5.81346 -2.88049 3.57065
# Velocity P-wave (km/s) = 8.81143 4.69909 7.06126
#
# Compressibility (1/GPa) = 0.01747666
#
# Stress axis : x y z
#
# Youngs Moduli (GPa) = 74.29991 48.70087 49.03360
#
# Poissons Ratio (x) = 0.22374 0.24395
# Poissons Ratio (y) = 0.34135 0.43569
# Poissons Ratio (z) = 0.36966 0.43274
#
# Static dielectric constant tensor:
#      x y z
#    x 3.582940 0.000000 0.000000 
#    y 0.000000 3.193290 0.000000 
#    z 0.000000 0.000000 3.064540 
# 
# 
# High freq. dielectric constant tensor:
#      x y z
#    x 1.694180 0.000000 0.000000 
#    y 0.000000 1.682110 0.000000 
#    z 0.000000 0.000000 1.654830 
# 
# From -- ./inp_files/56698.got.cif
#   From: 2010.06.25/outbox.cif.g09.slc.cpg/sg71_29_cif.got.tgz:56698.got - 2010.06.28 04:59:45.
