data_PCOD8290429
_publ_section_title
;
Structure prediction by ZEFSAII (Michael W. Deem and Ramdas Pophale) SiO2 
 PCOD8290429
Probable space group: I M M M
;
_chemical_formula_sum "Si O2"
_cell_formula_units_Z 104
_cell_length_a 19.007468
_cell_length_b 12.697687
_cell_length_c 23.919947
_cell_angle_alpha 90.000000
_cell_angle_beta 90.000000
_cell_angle_gamma 90.000000
_cell_volume 5773.100242
_symmetry_space_group_name_H-M "I M M M"
_symmetry_group_IT_number 71
_symmetry_cell_setting 'orthorhombic'
loop_
_space_group_symop_operation_xyz
x,y,z
-x,-y,z
x,-y,-z
-x,y,-z
-x,-y,-z
x,y,-z
-x,y,z
x,-y,z
1/2+x,1/2+y,1/2+z
1/2-x,1/2-y,1/2+z
1/2+x,1/2-y,1/2-z
1/2-x,1/2+y,1/2-z
1/2-x,1/2-y,1/2-z
1/2+x,1/2+y,1/2-z
1/2-x,1/2+y,1/2+z
1/2+x,1/2-y,1/2+z
loop_
_atom_site_type_symbol
_atom_site_label
_atom_site_fract_x
_atom_site_fract_y
_atom_site_fract_z
Si Si1 0.921350 0.779796 0.281582
Si Si2 0.780908 0.781653 0.842237
Si Si3 0.077776 0.878921 0.834429
Si Si4 0.082859 0.880672 0.602765
Si Si5 0.079398 0.500000 0.433633
Si Si6 0.196372 0.620683 0.751377
Si Si7 0.831647 0.699378 0.437248
O O1 0.918205 0.864687 0.232223
O O2 0.894387 0.841149 0.335963
O O3 0.873208 0.679397 0.269908
O O4 0.000000 0.736226 0.290427
O O5 0.860383 0.809475 0.862262
O O6 0.777566 0.668992 0.810612
O O7 0.756065 0.868077 0.796347
O O8 0.734968 0.781665 0.897890
O O9 0.000000 0.842196 0.855787
O O10 0.089742 0.000000 0.849827
O O11 0.121297 0.804654 0.558899
O O12 0.000000 0.873245 0.593109
O O13 0.109063 0.000000 0.594029
O O14 0.074629 0.500000 0.500000
O O15 0.121214 0.396515 0.412738
O O16 0.000000 0.500000 0.408563
O O17 0.177986 0.500000 0.761704
O O18 0.805181 0.673156 0.500000
#
# Coordination Sequence:
#
# PCOD8290429 Si02
#       7
#    16  16  16  16   8  16  16
#     4   9  17  31  49  77 111 141 178 215 261 320
#     4  10  21  35  51  78 104 137 177 223 269 325
#     4   9  17  30  52  77 102 134 168 210 267 330
#     4  10  20  34  53  77 110 150 190 230 265 305
#     4   9  20  38  58  78 105 145 189 231 267 309
#     4  10  20  34  52  77 107 140 177 221 273 325
#     4  11  23  38  55  78 108 146 190 230 273 321
#
# _framework density 18.014583999999999
#
# number of rings (size 3 to 8) (size 9 to 14) (size 15 to 20)
#    0.000    2.231    1.538    1.385    2.154    4.000 
#    0.000    0.769    0.000    0.462    0.000    1.077 
#    0.000    0.000    0.000    9.077    0.000    0.000 
#
# Total GULP energy -644693.515259 kJ/mol
# GULP energy per Si atom -12397.952217 kJ/mol
# Density = 1.797358 g / cm^3
# Si number density = 18.014584 Si / 1000 Ang^3
#
#
#
# Elastic Constant Matrix: (Units=GPa)
#
#
# Indices 1 2 3 4 5 6 
#
# 1 104.2579 49.1261 39.0893 0.0000 0.0000 0.0000
# 2 49.1261 123.2229 25.9032 0.0000 0.0000 0.0000
# 3 39.0893 25.9032 60.2741 0.0000 0.0000 0.0000
# 4 0.0000 0.0000 0.0000 14.5952 0.0000 0.0000
# 5 0.0000 0.0000 0.0000 0.0000 22.8750 0.0000
# 6 0.0000 0.0000 0.0000 0.0000 0.0000 23.1620
#
#
#
# Elastic Compliance Matrix: (Units=1/GPa)
#
#
# Indices 1 2 3 4 5 6 
#
# 1 0.014371 -0.004145 -0.007539 0.000000 0.000000 0.000000
# 2 -0.004145 0.010117 -0.001660 0.000000 0.000000 0.000000
# 3 -0.007539 -0.001660 0.022193 0.000000 0.000000 0.000000
# 4 0.000000 0.000000 0.000000 0.068516 0.000000 0.000000
# 5 0.000000 0.000000 0.000000 0.000000 0.043716 0.000000
# 6 0.000000 0.000000 0.000000 0.000000 0.000000 0.043174
#
#
# Mechanical properties :
#
#
# Convention : Reuss Voigt Hill
#
# Bulk Modulus (GPa) = 50.01370 57.33245 53.67307
# Shear Modulus (GPa) = 21.23701 23.70220 22.46960
#
# Velocity S-wave (km/s) = 3.43721 3.63122 3.53555
# Velocity P-wave (km/s) = 6.60119 7.03390 6.82097
#
# Compressibility (1/GPa) = 0.01999452
#
# Stress axis : x y z
#
# Youngs Moduli (GPa) = 69.58418 98.84684 45.05860
#
# Poissons Ratio (x) = 0.40969 0.33969
# Poissons Ratio (y) = 0.28840 0.07479
# Poissons Ratio (z) = 0.52458 0.16406
#
# Static dielectric constant tensor:
#      x y z
#    x 3.580740 0.000000 0.000000 
#    y 0.000000 3.288630 0.000000 
#    z 0.000000 0.000000 3.005130 
# 
# 
# High freq. dielectric constant tensor:
#      x y z
#    x 1.703240 0.000000 0.000000 
#    y 0.000000 1.691480 0.000000 
#    z 0.000000 0.000000 1.660740 
# 
# From -- ./inp_files/52366.got.cif
#   From: 2010.06.25/outbox.cif.g09.slc.cpg/sg71_27_cif.got.tgz:52366.got - 2010.06.28 04:59:45.
