data_PCOD8290117
_publ_section_title
;
Structure prediction by ZEFSAII (Michael W. Deem and Ramdas Pophale) SiO2 
 PCOD8290117
Probable space group: I M M M
;
_chemical_formula_sum "Si O2"
_cell_formula_units_Z 88
_cell_length_a 12.956184
_cell_length_b 13.843683
_cell_length_c 28.649715
_cell_angle_alpha 90.000000
_cell_angle_beta 90.000000
_cell_angle_gamma 90.000000
_cell_volume 5138.650247
_symmetry_space_group_name_H-M "I M M M"
_symmetry_group_IT_number 71
_symmetry_cell_setting 'orthorhombic'
loop_
_space_group_symop_operation_xyz
x,y,z
-x,-y,z
x,-y,-z
-x,y,-z
-x,-y,-z
x,y,-z
-x,y,z
x,-y,z
1/2+x,1/2+y,1/2+z
1/2-x,1/2-y,1/2+z
1/2+x,1/2-y,1/2-z
1/2-x,1/2+y,1/2-z
1/2-x,1/2-y,1/2-z
1/2+x,1/2+y,1/2-z
1/2-x,1/2+y,1/2+z
1/2+x,1/2-y,1/2+z
loop_
_atom_site_type_symbol
_atom_site_label
_atom_site_fract_x
_atom_site_fract_y
_atom_site_fract_z
Si Si1 0.707516 0.611737 0.599706
Si Si2 0.119538 0.262239 0.554136
Si Si3 0.500000 0.385096 0.553127
Si Si4 0.379170 0.606561 0.127317
Si Si5 0.619028 0.279931 0.216109
Si Si6 0.270090 0.387862 0.291799
O O1 0.715442 0.500000 0.586938
O O2 0.809772 0.657119 0.577583
O O3 0.602970 0.656631 0.577758
O O4 0.701155 0.629113 0.654672
O O5 0.146593 0.250989 0.500000
O O6 0.143392 0.159830 0.578518
O O7 0.000000 0.292458 0.561775
O O8 0.500000 0.500000 0.557306
O O9 0.500000 0.349568 0.500000
O O10 0.500000 0.595652 0.136178
O O11 0.327987 0.500000 0.125383
O O12 0.332595 0.667864 0.170362
O O13 0.500000 0.257764 0.209091
O O14 0.634718 0.350274 0.260454
O O15 0.671421 0.175634 0.222982
O O16 0.246666 0.500000 0.281441
#
# Coordination Sequence:
#
# PCOD8290117 Si02
#       6
#    16  16   8  16  16  16
#     4  10  20  34  52  75 106 140 174 214 259 310
#     4  10  20  33  50  75 106 136 171 216 264 315
#     4   9  18  32  50  72 101 141 183 217 249 293
#     4   9  17  31  50  72 100 134 169 206 253 309
#     4  10  20  35  54  76 105 139 172 210 261 319
#     4  10  21  34  52  80 107 135 173 217 263 312
#
# _framework density 17.125119000000002
#
# number of rings (size 3 to 8) (size 9 to 14) (size 15 to 20)
#    0.000    2.273    1.818    1.091    1.273    3.273 
#    0.000    4.545    0.000    0.000    0.000    0.636 
#    0.000    2.182    0.000    0.000    0.000    0.000 
#
# Total GULP energy -545553.783405 kJ/mol
# GULP energy per Si atom -12398.949623 kJ/mol
# Density = 1.708614 g / cm^3
# Si number density = 17.125119 Si / 1000 Ang^3
#
#
#
# Elastic Constant Matrix: (Units=GPa)
#
#
# Indices 1 2 3 4 5 6 
#
# 1 63.8341 36.2304 29.8501 0.0000 0.0000 0.0000
# 2 36.2304 95.6684 44.2129 0.0000 0.0000 0.0000
# 3 29.8501 44.2129 112.1227 0.0000 0.0000 0.0000
# 4 0.0000 0.0000 0.0000 21.4868 0.0000 0.0000
# 5 0.0000 0.0000 0.0000 0.0000 25.7912 0.0000
# 6 0.0000 0.0000 0.0000 0.0000 0.0000 14.5815
#
#
#
# Elastic Compliance Matrix: (Units=1/GPa)
#
#
# Indices 1 2 3 4 5 6 
#
# 1 0.020730 -0.006481 -0.002963 0.000000 0.000000 0.000000
# 2 -0.006481 0.014808 -0.004114 0.000000 0.000000 0.000000
# 3 -0.002963 -0.004114 0.011330 0.000000 0.000000 0.000000
# 4 0.000000 0.000000 0.000000 0.046540 0.000000 0.000000
# 5 0.000000 0.000000 0.000000 0.000000 0.038773 0.000000
# 6 0.000000 0.000000 0.000000 0.000000 0.000000 0.068580
#
#
# Mechanical properties :
#
#
# Convention : Reuss Voigt Hill
#
# Bulk Modulus (GPa) = 50.62846 54.69024 52.65935
# Shear Modulus (GPa) = 21.32548 23.12737 22.22642
#
# Velocity S-wave (km/s) = 3.53267 3.67889 3.60652
# Velocity P-wave (km/s) = 6.80204 7.07465 6.93968
#
# Compressibility (1/GPa) = 0.01975173
#
# Stress axis : x y z
#
# Youngs Moduli (GPa) = 48.23990 67.52897 88.26205
#
# Poissons Ratio (x) = 0.43766 0.26153
# Poissons Ratio (y) = 0.31265 0.36310
# Poissons Ratio (z) = 0.14294 0.27781
#
# Static dielectric constant tensor:
#      x y z
#    x 3.065590 0.000000 0.000000 
#    y 0.000000 3.208110 0.000000 
#    z 0.000000 0.000000 3.386750 
# 
# 
# High freq. dielectric constant tensor:
#      x y z
#    x 1.640370 0.000000 0.000000 
#    y 0.000000 1.649630 0.000000 
#    z 0.000000 0.000000 1.676700 
# 
# From -- ./inp_files/20272.got.cif
#   From: 2010.06.25/outbox.cif.g09.slc.cpg/sg71_11_cif.got.tgz:20272.got - 2010.06.28 04:59:45.
