data_PCOD8290725
_publ_section_title
;
Structure prediction by ZEFSAII (Michael W. Deem and Ramdas Pophale) SiO2 
 PCOD8290725
Probable space group: I M M M
;
_chemical_formula_sum "Si O2"
_cell_formula_units_Z 72
_cell_length_a 9.399742
_cell_length_b 31.388163
_cell_length_c 13.196474
_cell_angle_alpha 90.000000
_cell_angle_beta 90.000000
_cell_angle_gamma 90.000000
_cell_volume 3893.496056
_symmetry_space_group_name_H-M "I M M M"
_symmetry_group_IT_number 71
_symmetry_cell_setting 'orthorhombic'
loop_
_space_group_symop_operation_xyz
x,y,z
-x,-y,z
x,-y,-z
-x,y,-z
-x,-y,-z
x,y,-z
-x,y,z
x,-y,z
1/2+x,1/2+y,1/2+z
1/2-x,1/2-y,1/2+z
1/2+x,1/2-y,1/2-z
1/2-x,1/2+y,1/2-z
1/2-x,1/2-y,1/2-z
1/2+x,1/2+y,1/2-z
1/2-x,1/2+y,1/2+z
1/2+x,1/2-y,1/2+z
loop_
_atom_site_type_symbol
_atom_site_label
_atom_site_fract_x
_atom_site_fract_y
_atom_site_fract_z
Si Si1 0.668602 0.951981 0.611622
Si Si2 0.664276 0.449604 0.500000
Si Si3 0.334208 0.272680 0.886515
Si Si4 0.666908 0.908660 0.183345
Si Si5 0.163611 0.313194 0.719586
O O1 0.723846 0.936118 0.500000
O O2 0.500000 0.951730 0.609789
O O3 0.721128 0.922295 0.704200
O O4 0.724113 0.000000 0.631077
O O5 0.675575 0.500000 0.500000
O O6 0.500000 0.434573 0.500000
O O7 0.741979 0.432859 0.399989
O O8 0.500000 0.280339 0.871767
O O9 0.253866 0.307915 0.821209
O O10 0.293147 0.224181 0.857807
O O11 0.283579 0.280109 0.000000
O O12 0.500000 0.919579 0.168305
O O13 0.695959 0.858500 0.168496
O O14 0.000000 0.310140 0.751705
#
# Coordination Sequence:
#
# PCOD8290725 Si02
#       5
#    16   8  16  16  16
#     4   8  14  26  46  74 105 132 162 208 266 321
#     4  11  25  41  55  77 113 153 187 225 273 325
#     4   9  18  33  52  71 102 144 177 212 265 328
#     4  10  20  34  57  83 106 137 181 231 274 320
#     4   9  19  33  51  78 105 131 173 227 273 314
#
# _framework density 18.492379
#
# number of rings (size 3 to 8) (size 9 to 14) (size 15 to 20)
#    0.000    2.778    0.000    1.667    1.556    4.000 
#    0.000    2.222    0.000    0.667    0.000    3.111 
#    0.000    0.000    0.000    0.000    0.000    0.000 
#
# Total GULP energy -446271.086486 kJ/mol
# GULP energy per Si atom -12396.419069 kJ/mol
# Density = 1.845029 g / cm^3
# Si number density = 18.492379 Si / 1000 Ang^3
#
#
#
# Elastic Constant Matrix: (Units=GPa)
#
#
# Indices 1 2 3 4 5 6 
#
# 1 54.5774 33.6381 52.5065 -0.0004 0.0000 0.0000
# 2 33.6381 68.8386 33.4060 -0.0013 0.0000 -0.0001
# 3 52.5065 33.4060 124.7590 -0.0058 -0.0002 -0.0002
# 4 -0.0004 -0.0013 -0.0058 20.3457 -0.0002 -0.0002
# 5 0.0000 0.0000 -0.0002 -0.0002 26.8649 -0.0006
# 6 0.0000 -0.0001 -0.0002 -0.0002 -0.0006 19.7337
#
#
#
# Elastic Compliance Matrix: (Units=1/GPa)
#
#
# Indices 1 2 3 4 5 6 
#
# 1 0.038345 -0.012535 -0.012782 -0.000004 0.000000 0.000000
# 2 -0.012535 0.020794 -0.000292 0.000001 0.000000 0.000000
# 3 -0.012782 -0.000292 0.013473 0.000004 0.000000 0.000000
# 4 -0.000004 0.000001 0.000004 0.049150 0.000000 0.000000
# 5 0.000000 0.000000 0.000000 0.000000 0.037223 0.000001
# 6 0.000000 0.000000 0.000000 0.000000 0.000001 0.050675
#
#
# Mechanical properties :
#
#
# Convention : Reuss Voigt Hill
#
# Bulk Modulus (GPa) = 46.74149 54.14177 50.44163
# Shear Modulus (GPa) = 18.65613 21.96384 20.30999
#
# Velocity S-wave (km/s) = 3.17969 3.45008 3.31764
# Velocity P-wave (km/s) = 6.22989 6.72400 6.48165
#
# Compressibility (1/GPa) = 0.02139427
#
# Stress axis : x y z
#
# Youngs Moduli (GPa) = 26.07923 48.09154 74.22220
#
# Poissons Ratio (x) = 0.60281 0.94868
# Poissons Ratio (y) = 0.32689 0.02171
# Poissons Ratio (z) = 0.33333 0.01407
#
# Static dielectric constant tensor:
#      x y z
#    x 3.147710 0.000000 0.000000 
#    y 0.000000 3.447090 0.000000 
#    z 0.000000 0.000000 3.771550 
# 
# 
# High freq. dielectric constant tensor:
#      x y z
#    x 1.685000 0.000000 0.000000 
#    y 0.000000 1.717010 0.000000 
#    z 0.000000 0.000000 1.726740 
# 
# From -- ./inp_files/31645.got.cif
#   From: 2010.06.25/outbox.cif.g09.slc.cpg/sg71_16_cif.got.tgz:31645.got - 2010.06.28 04:59:45.
