data_PCOD8290869
_publ_section_title
;
Structure prediction by ZEFSAII (Michael W. Deem and Ramdas Pophale) SiO2 
 PCOD8290869
Probable space group: I M M M
;
_chemical_formula_sum "Si O2"
_cell_formula_units_Z 104
_cell_length_a 19.830588
_cell_length_b 8.919728
_cell_length_c 32.000439
_cell_angle_alpha 90.000000
_cell_angle_beta 90.000000
_cell_angle_gamma 90.000000
_cell_volume 5660.348085
_symmetry_space_group_name_H-M "I M M M"
_symmetry_group_IT_number 71
_symmetry_cell_setting 'orthorhombic'
loop_
_space_group_symop_operation_xyz
x,y,z
-x,-y,z
x,-y,-z
-x,y,-z
-x,-y,-z
x,y,-z
-x,y,z
x,-y,z
1/2+x,1/2+y,1/2+z
1/2-x,1/2-y,1/2+z
1/2+x,1/2-y,1/2-z
1/2-x,1/2+y,1/2-z
1/2-x,1/2-y,1/2-z
1/2+x,1/2+y,1/2-z
1/2-x,1/2+y,1/2+z
1/2+x,1/2-y,1/2+z
loop_
_atom_site_type_symbol
_atom_site_label
_atom_site_fract_x
_atom_site_fract_y
_atom_site_fract_z
Si Si1 0.076978 0.824531 0.772449
Si Si2 0.184989 0.822191 0.628711
Si Si3 0.732985 0.174747 0.953041
Si Si4 0.133830 0.331682 0.070202
Si Si5 0.078317 0.672978 0.314602
Si Si6 0.500000 0.664135 0.451583
Si Si7 0.325895 0.832430 0.335878
O O1 0.096767 0.739335 0.730336
O O2 0.131277 0.778413 0.807049
O O3 0.000000 0.783458 0.786174
O O4 0.083639 0.000000 0.763978
O O5 0.188263 0.759262 0.581521
O O6 0.117661 0.761009 0.649558
O O7 0.249252 0.773137 0.657208
O O8 0.183339 0.000000 0.624973
O O9 0.809319 0.232380 0.951575
O O10 0.732521 0.000000 0.942194
O O11 0.704410 0.203626 0.000000
O O12 0.138232 0.500000 0.051967
O O13 0.139108 0.335694 0.119684
O O14 0.063226 0.260135 0.060978
O O15 0.099596 0.500000 0.315131
O O16 0.000000 0.695150 0.324625
O O17 0.500000 0.500000 0.429219
O O18 0.500000 0.635553 0.500000
O O19 0.325749 0.000000 0.316255
#
# Coordination Sequence:
#
# PCOD8290869 Si02
#       7
#    16  16  16  16  16   8  16
#     4  10  21  35  53  79 108 143 187 229 270 319
#     4  10  21  37  58  84 112 143 181 224 269 321
#     4  10  20  35  56  81 109 141 177 219 268 323
#     4  10  21  35  51  73 101 138 182 229 277 326
#     4  10  21  38  60  84 110 143 178 216 269 328
#     4  11  23  35  47  67  97 135 181 231 283 335
#     4   9  20  36  52  75 106 141 181 223 272 322
#
# _framework density 18.373429999999999
#
# number of rings (size 3 to 8) (size 9 to 14) (size 15 to 20)
#    0.000    2.077    0.000    3.923    1.077    9.846 
#    0.000    0.000    0.000    0.462    0.000    3.231 
#    0.000    0.000    0.000    0.000    0.000    0.000 
#
# Total GULP energy -644796.861059 kJ/mol
# GULP energy per Si atom -12399.939636 kJ/mol
# Density = 1.833161 g / cm^3
# Si number density = 18.373430 Si / 1000 Ang^3
#
#
#
# Elastic Constant Matrix: (Units=GPa)
#
#
# Indices 1 2 3 4 5 6 
#
# 1 70.4470 43.5483 51.2280 0.0000 0.0000 0.0000
# 2 43.5483 112.4230 57.4551 0.0000 0.0000 0.0000
# 3 51.2280 57.4551 85.2287 0.0000 0.0000 0.0000
# 4 0.0000 0.0000 0.0000 32.6818 0.0000 0.0000
# 5 0.0000 0.0000 0.0000 0.0000 16.1142 0.0000
# 6 0.0000 0.0000 0.0000 0.0000 0.0000 32.0736
#
#
#
# Elastic Compliance Matrix: (Units=1/GPa)
#
#
# Indices 1 2 3 4 5 6 
#
# 1 0.025938 -0.003173 -0.013452 0.000000 0.000000 0.000000
# 2 -0.003173 0.013958 -0.007503 0.000000 0.000000 0.000000
# 3 -0.013452 -0.007503 0.024876 0.000000 0.000000 0.000000
# 4 0.000000 0.000000 0.000000 0.030598 0.000000 0.000000
# 5 0.000000 0.000000 0.000000 0.000000 0.062057 0.000000
# 6 0.000000 0.000000 0.000000 0.000000 0.000000 0.031178
#
#
# Mechanical properties :
#
#
# Convention : Reuss Voigt Hill
#
# Bulk Modulus (GPa) = 60.53814 63.61794 62.07804
# Shear Modulus (GPa) = 20.62988 23.89841 22.26415
#
# Velocity S-wave (km/s) = 3.35447 3.61044 3.48481
# Velocity P-wave (km/s) = 6.92990 7.21668 7.07475
#
# Compressibility (1/GPa) = 0.01651851
#
# Stress axis : x y z
#
# Youngs Moduli (GPa) = 38.55294 71.64191 40.19897
#
# Poissons Ratio (x) = 0.22731 0.54075
# Poissons Ratio (y) = 0.12232 0.30160
# Poissons Ratio (z) = 0.51860 0.53750
#
# Static dielectric constant tensor:
#      x y z
#    x 3.256130 0.000000 0.000000 
#    y 0.000000 3.686210 0.000000 
#    z 0.000000 0.000000 3.345410 
# 
# 
# High freq. dielectric constant tensor:
#      x y z
#    x 1.698550 0.000000 0.000000 
#    y 0.000000 1.730410 0.000000 
#    z 0.000000 0.000000 1.709730 
# 
# From -- ./inp_files/66782.got.cif
#   From: 2010.06.25/outbox.cif.g09.slc.cpg/sg71_34_cif.got.tgz:66782.got - 2010.06.28 04:59:45.
