data_PCOD8290796
_publ_section_title
;
Structure prediction by ZEFSAII (Michael W. Deem and Ramdas Pophale) SiO2 
 PCOD8290796
Probable space group: I M M M
;
_chemical_formula_sum "Si O2"
_cell_formula_units_Z 104
_cell_length_a 26.306035
_cell_length_b 9.113064
_cell_length_c 23.701165
_cell_angle_alpha 90.000000
_cell_angle_beta 90.000000
_cell_angle_gamma 90.000000
_cell_volume 5681.846643
_symmetry_space_group_name_H-M "I M M M"
_symmetry_group_IT_number 71
_symmetry_cell_setting 'orthorhombic'
loop_
_space_group_symop_operation_xyz
x,y,z
-x,-y,z
x,-y,-z
-x,y,-z
-x,-y,-z
x,y,-z
-x,y,z
x,-y,z
1/2+x,1/2+y,1/2+z
1/2-x,1/2-y,1/2+z
1/2+x,1/2-y,1/2-z
1/2-x,1/2+y,1/2-z
1/2-x,1/2-y,1/2-z
1/2+x,1/2+y,1/2-z
1/2-x,1/2+y,1/2+z
1/2+x,1/2-y,1/2+z
loop_
_atom_site_type_symbol
_atom_site_label
_atom_site_fract_x
_atom_site_fract_y
_atom_site_fract_z
Si Si1 0.819932 0.826552 0.150192
Si Si2 0.361604 0.828620 0.935286
Si Si3 0.109545 0.329345 0.933254
Si Si4 0.285932 0.670185 0.859780
Si Si5 0.057301 0.327319 0.656456
Si Si6 0.869408 0.168372 0.266140
Si Si7 0.000000 0.669108 0.066021
O O1 0.847465 0.770131 0.094225
O O2 0.765659 0.751657 0.154771
O O3 0.853860 0.779616 0.203802
O O4 0.812020 0.000000 0.147487
O O5 0.312218 0.739323 0.915106
O O6 0.410933 0.780796 0.899079
O O7 0.349825 0.000000 0.927239
O O8 0.373181 0.789224 0.000000
O O9 0.116732 0.500000 0.916610
O O10 0.053987 0.268041 0.911339
O O11 0.114414 0.310740 0.000000
O O12 0.275129 0.500000 0.871756
O O13 0.321422 0.695735 0.806099
O O14 0.057229 0.500000 0.664282
O O15 0.082298 0.260467 0.712709
O O16 0.000000 0.267138 0.649397
O O17 0.886099 0.000000 0.266648
O O18 0.000000 0.500000 0.081261
O O19 0.000000 0.692902 0.000000
#
# Coordination Sequence:
#
# PCOD8290796 Si02
#       7
#    16  16  16  16  16  16   8
#     4  11  22  35  52  77 105 133 169 212 261 313
#     4   9  18  33  53  78 109 143 176 213 261 312
#     4   9  18  34  55  77 101 131 167 206 249 298
#     4  10  20  35  55  75  99 134 175 217 259 304
#     4   9  18  33  54  80 108 139 177 219 260 305
#     4   9  20  37  54  74 101 136 174 213 260 311
#     4   7  12  28  53  73  91 121 159 197 236 279
#
# _framework density 18.303909000000001
#
# number of rings (size 3 to 8) (size 9 to 14) (size 15 to 20)
#    0.000    2.692    0.000    2.308    0.000    3.692 
#    1.385    1.923    0.000    1.385    0.000    4.308 
#    0.000    0.000    0.000    0.000    0.000    0.000 
#
# Total GULP energy -644646.318257 kJ/mol
# GULP energy per Si atom -12397.044582 kJ/mol
# Density = 1.826225 g / cm^3
# Si number density = 18.303909 Si / 1000 Ang^3
#
#
#
# Elastic Constant Matrix: (Units=GPa)
#
#
# Indices 1 2 3 4 5 6 
#
# 1 84.9250 43.3029 49.1389 0.0000 0.0000 0.0000
# 2 43.3029 63.0779 39.9694 0.0000 0.0000 0.0000
# 3 49.1389 39.9694 89.2728 0.0000 0.0000 0.0000
# 4 0.0000 0.0000 0.0000 27.3839 0.0000 0.0000
# 5 0.0000 0.0000 0.0000 0.0000 16.8976 0.0000
# 6 0.0000 0.0000 0.0000 0.0000 0.0000 26.7501
#
#
#
# Elastic Compliance Matrix: (Units=1/GPa)
#
#
# Indices 1 2 3 4 5 6 
#
# 1 0.020906 -0.009856 -0.007094 0.000000 0.000000 0.000000
# 2 -0.009856 0.026779 -0.006564 0.000000 0.000000 0.000000
# 3 -0.007094 -0.006564 0.018046 0.000000 0.000000 0.000000
# 4 0.000000 0.000000 0.000000 0.036518 0.000000 0.000000
# 5 0.000000 0.000000 0.000000 0.000000 0.059180 0.000000
# 6 0.000000 0.000000 0.000000 0.000000 0.000000 0.037383
#
#
# Mechanical properties :
#
#
# Convention : Reuss Voigt Hill
#
# Bulk Modulus (GPa) = 53.47466 55.78866 54.63166
# Shear Modulus (GPa) = 19.83534 21.19729 20.51632
#
# Velocity S-wave (km/s) = 3.29548 3.40674 3.35157
# Velocity P-wave (km/s) = 6.61503 6.78379 6.69994
#
# Compressibility (1/GPa) = 0.01870045
#
# Stress axis : x y z
#
# Youngs Moduli (GPa) = 47.83373 37.34215 55.41525
#
# Poissons Ratio (x) = 0.36806 0.39313
# Poissons Ratio (y) = 0.47147 0.36377
# Poissons Ratio (z) = 0.33935 0.24513
#
# Static dielectric constant tensor:
#      x y z
#    x 3.601770 0.000000 0.000000 
#    y 0.000000 3.273930 0.000000 
#    z 0.000000 0.000000 3.308210 
# 
# 
# High freq. dielectric constant tensor:
#      x y z
#    x 1.718080 0.000000 0.000000 
#    y 0.000000 1.698560 0.000000 
#    z 0.000000 0.000000 1.700680 
# 
# From -- ./inp_files/13285.got.cif
#   From: 2010.06.25/outbox.cif.g09.slc.cpg/sg71_7_cif.got.tgz:13285.got - 2010.06.28 04:59:45.
