data_PCOD8290204
_publ_section_title
;
Structure prediction by ZEFSAII (Michael W. Deem and Ramdas Pophale) SiO2 
 PCOD8290204
Probable space group: I M M M
;
_chemical_formula_sum "Si O2"
_cell_formula_units_Z 104
_cell_length_a 26.304913
_cell_length_b 23.342205
_cell_length_c 9.358075
_cell_angle_alpha 90.000000
_cell_angle_beta 90.000000
_cell_angle_gamma 90.000000
_cell_volume 5745.995349
_symmetry_space_group_name_H-M "I M M M"
_symmetry_group_IT_number 71
_symmetry_cell_setting 'orthorhombic'
loop_
_space_group_symop_operation_xyz
x,y,z
-x,-y,z
x,-y,-z
-x,y,-z
-x,-y,-z
x,y,-z
-x,y,z
x,-y,z
1/2+x,1/2+y,1/2+z
1/2-x,1/2-y,1/2+z
1/2+x,1/2-y,1/2-z
1/2-x,1/2+y,1/2-z
1/2-x,1/2-y,1/2-z
1/2+x,1/2+y,1/2-z
1/2-x,1/2+y,1/2+z
1/2+x,1/2-y,1/2+z
loop_
_atom_site_type_symbol
_atom_site_label
_atom_site_fract_x
_atom_site_fract_y
_atom_site_fract_z
Si Si1 0.442240 0.652015 0.833283
Si Si2 0.403542 0.067919 0.662263
Si Si3 0.646152 0.264823 0.164842
Si Si4 0.622936 0.434520 0.333112
Si Si5 0.289000 0.650657 0.334298
Si Si6 0.827035 0.637557 0.666092
Si Si7 0.000000 0.568214 0.661771
O O1 0.500000 0.665593 0.787636
O O2 0.408233 0.707512 0.793031
O O3 0.422804 0.596252 0.749680
O O4 0.438285 0.637825 0.000000
O O5 0.408046 0.090739 0.500000
O O6 0.352252 0.089626 0.735606
O O7 0.450901 0.091450 0.754336
O O8 0.402439 0.000000 0.663457
O O9 0.691576 0.293755 0.251647
O O10 0.645343 0.197682 0.199632
O O11 0.658795 0.275451 0.000000
O O12 0.610598 0.430288 0.500000
O O13 0.626534 0.500000 0.281673
O O14 0.676657 0.404557 0.296554
O O15 0.291903 0.666169 0.500000
O O16 0.231628 0.638325 0.287735
O O17 0.832968 0.620736 0.500000
O O18 0.000000 0.500000 0.658447
O O19 0.000000 0.592803 0.500000
#
# Coordination Sequence:
#
# PCOD8290204 Si02
#       7
#    16  16  16  16  16  16   8
#     4   9  18  33  51  70  97 132 165 203 253 302
#     4  10  21  36  53  75 105 137 168 207 255 304
#     4   9  18  33  51  73 100 130 170 212 255 306
#     4   9  18  32  49  71  99 131 167 206 252 302
#     4   9  18  32  51  73 100 134 170 210 257 304
#     4  10  20  33  51  78 104 131 172 213 251 305
#     4   9  17  33  57  77  95 127 167 203 244 295
#
# _framework density 18.099561000000001
#
# number of rings (size 3 to 8) (size 9 to 14) (size 15 to 20)
#    0.000    2.692    0.000    1.154    0.000    4.615 
#    1.385    3.077    0.000    0.000    0.000    0.000 
#    0.000    0.000    0.000    0.000    0.000    0.000 
#
# Total GULP energy -644880.447415 kJ/mol
# GULP energy per Si atom -12401.547066 kJ/mol
# Density = 1.805837 g / cm^3
# Si number density = 18.099561 Si / 1000 Ang^3
#
#
#
# Elastic Constant Matrix: (Units=GPa)
#
#
# Indices 1 2 3 4 5 6 
#
# 1 134.4861 33.2934 55.1304 0.0000 0.0000 0.0000
# 2 33.2934 41.7630 22.8629 0.0000 0.0000 0.0000
# 3 55.1304 22.8629 75.2224 0.0000 0.0000 0.0000
# 4 0.0000 0.0000 0.0000 27.0907 0.0000 0.0000
# 5 0.0000 0.0000 0.0000 0.0000 31.4209 0.0000
# 6 0.0000 0.0000 0.0000 0.0000 0.0000 19.8927
#
#
#
# Elastic Compliance Matrix: (Units=1/GPa)
#
#
# Indices 1 2 3 4 5 6 
#
# 1 0.011597 -0.005509 -0.006825 0.000000 0.000000 0.000000
# 2 -0.005509 0.031341 -0.005488 0.000000 0.000000 0.000000
# 3 -0.006825 -0.005488 0.019964 0.000000 0.000000 0.000000
# 4 0.000000 0.000000 0.000000 0.036913 0.000000 0.000000
# 5 0.000000 0.000000 0.000000 0.000000 0.031826 0.000000
# 6 0.000000 0.000000 0.000000 0.000000 0.000000 0.050270
#
#
# Mechanical properties :
#
#
# Convention : Reuss Voigt Hill
#
# Bulk Modulus (GPa) = 36.68703 52.67165 44.67934
# Shear Modulus (GPa) = 22.06122 25.02652 23.54387
#
# Velocity S-wave (km/s) = 3.49504 3.72252 3.61057
# Velocity P-wave (km/s) = 6.04984 6.90221 6.49003
#
# Compressibility (1/GPa) = 0.02725759
#
# Stress axis : x y z
#
# Youngs Moduli (GPa) = 86.22566 31.90730 50.08954
#
# Poissons Ratio (x) = 0.17578 0.34188
# Poissons Ratio (y) = 0.47502 0.27490
# Poissons Ratio (z) = 0.58852 0.17511
#
# Static dielectric constant tensor:
#      x y z
#    x 3.445440 0.000000 0.000000 
#    y 0.000000 3.222890 0.000000 
#    z 0.000000 0.000000 3.387860 
# 
# 
# High freq. dielectric constant tensor:
#      x y z
#    x 1.706410 0.000000 0.000000 
#    y 0.000000 1.686240 0.000000 
#    z 0.000000 0.000000 1.701360 
# 
# From -- ./inp_files/15261.got.cif
#   From: 2010.06.25/outbox.cif.g09.slc.cpg/sg71_8_cif.got.tgz:15261.got - 2010.06.28 04:59:45.
