data_PCOD8290285
_publ_section_title
;
Structure prediction by ZEFSAII (Michael W. Deem and Ramdas Pophale) SiO2 
 PCOD8290285
Probable space group: I M M M
;
_chemical_formula_sum "Si O2"
_cell_formula_units_Z 80
_cell_length_a 8.282135
_cell_length_b 26.829843
_cell_length_c 19.362353
_cell_angle_alpha 90.000000
_cell_angle_beta 90.000000
_cell_angle_gamma 90.000000
_cell_volume 4302.477127
_symmetry_space_group_name_H-M "I M M M"
_symmetry_group_IT_number 71
_symmetry_cell_setting 'orthorhombic'
loop_
_space_group_symop_operation_xyz
x,y,z
-x,-y,z
x,-y,-z
-x,y,-z
-x,-y,-z
x,y,-z
-x,y,z
x,-y,z
1/2+x,1/2+y,1/2+z
1/2-x,1/2-y,1/2+z
1/2+x,1/2-y,1/2-z
1/2-x,1/2+y,1/2-z
1/2-x,1/2-y,1/2-z
1/2+x,1/2+y,1/2-z
1/2-x,1/2+y,1/2+z
1/2+x,1/2-y,1/2+z
loop_
_atom_site_type_symbol
_atom_site_label
_atom_site_fract_x
_atom_site_fract_y
_atom_site_fract_z
Si Si1 0.684715 0.798822 0.819456
Si Si2 0.312775 0.103535 0.423344
Si Si3 0.183992 0.000000 0.581176
Si Si4 0.000000 0.055610 0.917877
Si Si5 0.186310 0.812688 0.676036
Si Si6 0.818158 0.386666 0.581162
O O1 0.500000 0.794260 0.795077
O O2 0.782142 0.824449 0.756698
O O3 0.750401 0.743645 0.837935
O O4 0.704450 0.832128 0.887110
O O5 0.232561 0.111301 0.500000
O O6 0.500000 0.099831 0.433853
O O7 0.277501 0.149341 0.373305
O O8 0.257009 0.051291 0.388376
O O9 0.217470 0.000000 0.500000
O O10 0.000000 0.000000 0.602284
O O11 0.831491 0.079993 0.891043
O O12 0.000000 0.000000 0.888221
O O13 0.000000 0.056119 0.000000
O O14 0.000000 0.818409 0.658232
O O15 0.803779 0.380165 0.500000
O O16 0.000000 0.407887 0.600029
#
# Coordination Sequence:
#
# PCOD8290285 Si02
#       6
#    16  16   8   8  16  16
#     4   9  19  35  53  74 104 139 174 214 261 315
#     4  10  20  34  52  76 106 138 173 214 260 311
#     4   9  17  31  53  77 101 133 172 213 260 309
#     4   9  18  32  52  80 108 136 173 214 262 318
#     4  10  20  33  53  77 102 137 176 215 260 311
#     4   9  18  33  54  79 106 139 175 216 266 313
#
# _framework density 18.593941000000001
#
# number of rings (size 3 to 8) (size 9 to 14) (size 15 to 20)
#    0.000    2.600    0.000    1.500    1.400    4.400 
#    0.000    4.000    2.200    0.000    0.000    0.000 
#    0.000    0.000    0.000    0.000    0.000    0.000 
#
# Total GULP energy -495716.274991 kJ/mol
# GULP energy per Si atom -12392.906875 kJ/mol
# Density = 1.855162 g / cm^3
# Si number density = 18.593941 Si / 1000 Ang^3
#
#
#
# Elastic Constant Matrix: (Units=GPa)
#
#
# Indices 1 2 3 4 5 6 
#
# 1 100.7960 56.8884 26.9816 0.0000 0.0000 0.0000
# 2 56.8884 135.5102 52.9019 0.0000 0.0000 0.0000
# 3 26.9816 52.9019 44.6149 0.0002 0.0000 0.0000
# 4 0.0000 0.0000 0.0002 -8.8548 0.0000 0.0000
# 5 0.0000 0.0000 0.0000 0.0000 22.2007 0.0000
# 6 0.0000 0.0000 0.0000 0.0000 0.0000 31.1596
#
#
#
# Elastic Compliance Matrix: (Units=1/GPa)
#
#
# Indices 1 2 3 4 5 6 
#
# 1 0.013164 -0.004503 -0.002622 0.000000 0.000000 0.000000
# 2 -0.004503 0.015280 -0.015395 0.000000 0.000000 0.000000
# 3 -0.002622 -0.015395 0.042254 0.000001 0.000000 0.000000
# 4 0.000000 0.000000 0.000001 -0.112933 0.000000 0.000000
# 5 0.000000 0.000000 0.000000 0.000000 0.045044 0.000000
# 6 0.000000 0.000000 0.000000 0.000000 0.000000 0.032093
#
#
# Mechanical properties :
#
#
# Convention : Reuss Voigt Hill
#
# Bulk Modulus (GPa) = 38.97307 61.60721 50.29014
# Shear Modulus (GPa) = 56.50058 18.51104 37.50581
#
# Velocity S-wave (km/s) = 5.51838 3.15864 4.49608
# Velocity P-wave (km/s) = 7.84914 6.81965 7.35243
#
# Compressibility (1/GPa) = 0.02565874
#
# Stress axis : x y z
#
# Youngs Moduli (GPa) = 75.96314 65.44563 23.66629
#
# Poissons Ratio (x) = 0.29469 0.06206
# Poissons Ratio (y) = 0.34205 0.36434
# Poissons Ratio (z) = 0.19918 1.00753
#
# Static dielectric constant tensor:
#      x y z
#    x 3.652850 0.000000 0.000000 
#    y 0.000000 3.531620 0.000000 
#    z 0.000000 0.000000 3.129880 
# 
# 
# High freq. dielectric constant tensor:
#      x y z
#    x 1.734450 0.000000 0.000000 
#    y 0.000000 1.720380 0.000000 
#    z 0.000000 0.000000 1.689310 
# 
# From -- ./inp_files/10233.got.cif
#   From: 2010.06.25/outbox.cif.g09.slc.cpg/sg71_6_cif.got.tgz:10233.got - 2010.06.28 04:59:45.
