data_PCOD8290707
_publ_section_title
;
Structure prediction by ZEFSAII (Michael W. Deem and Ramdas Pophale) SiO2 
 PCOD8290707
Probable space group: I M M M
;
_chemical_formula_sum "Si O2"
_cell_formula_units_Z 88
_cell_length_a 8.751017
_cell_length_b 19.368773
_cell_length_c 27.475068
_cell_angle_alpha 90.000000
_cell_angle_beta 90.000000
_cell_angle_gamma 90.000000
_cell_volume 4656.926813
_symmetry_space_group_name_H-M "I M M M"
_symmetry_group_IT_number 71
_symmetry_cell_setting 'orthorhombic'
loop_
_space_group_symop_operation_xyz
x,y,z
-x,-y,z
x,-y,-z
-x,y,-z
-x,-y,-z
x,y,-z
-x,y,z
x,-y,z
1/2+x,1/2+y,1/2+z
1/2-x,1/2-y,1/2+z
1/2+x,1/2-y,1/2-z
1/2-x,1/2+y,1/2-z
1/2-x,1/2-y,1/2-z
1/2+x,1/2+y,1/2-z
1/2-x,1/2+y,1/2+z
1/2+x,1/2-y,1/2+z
loop_
_atom_site_type_symbol
_atom_site_label
_atom_site_fract_x
_atom_site_fract_y
_atom_site_fract_z
Si Si1 0.819216 0.682440 0.772576
Si Si2 0.318467 0.923068 0.807869
Si Si3 0.818991 0.079815 0.000000
Si Si4 0.181065 0.194835 0.376706
Si Si5 0.318734 0.575717 0.945905
Si Si6 0.180845 0.651456 0.594623
O O1 0.750000 0.750000 0.750000
O O2 0.761851 0.618501 0.739526
O O3 0.760469 0.674737 0.826758
O O4 0.000000 0.687933 0.771696
O O5 0.500000 0.924257 0.809314
O O6 0.258929 0.888356 0.857607
O O7 0.250299 0.000000 0.804443
O O8 0.758953 0.119126 0.047484
O O9 0.000000 0.082813 0.000000
O O10 0.761948 0.000000 0.000000
O O11 0.246077 0.136790 0.412911
O O12 0.229688 0.268828 0.398356
O O13 0.000000 0.192342 0.368887
O O14 0.500000 0.580870 0.947592
O O15 0.269709 0.500000 0.925723
O O16 0.252038 0.585692 0.000000
O O17 0.000000 0.644510 0.587993
#
# Coordination Sequence:
#
# PCOD8290707 Si02
#       6
#    16  16   8  16  16  16
#     4  11  21  36  56  79 110 144 179 222 271 322
#     4   9  18  34  56  80 105 139 184 225 261 314
#     4  11  25  41  55  79 116 147 176 224 281 331
#     4  10  20  34  56  85 112 140 183 230 269 320
#     4   8  15  29  51  79 111 146 181 221 269 317
#     4  10  20  36  59  83 107 142 188 228 265 319
#
# _framework density 18.896581999999999
#
# number of rings (size 3 to 8) (size 9 to 14) (size 15 to 20)
#    0.000    2.273    1.818    1.909    1.273    2.909 
#    0.000    0.000    0.000    2.727    0.000    1.273 
#    0.000    0.000    0.000    0.000    0.000    0.000 
#
# Total GULP energy -545486.939430 kJ/mol
# GULP energy per Si atom -12397.430442 kJ/mol
# Density = 1.885357 g / cm^3
# Si number density = 18.896582 Si / 1000 Ang^3
#
#
#
# Elastic Constant Matrix: (Units=GPa)
#
#
# Indices 1 2 3 4 5 6 
#
# 1 32.5098 33.4650 36.6182 0.0000 0.0000 0.0000
# 2 33.4650 207.8805 116.8001 0.0000 0.0000 0.0000
# 3 36.6182 116.8001 172.8157 0.0000 0.0000 0.0000
# 4 0.0000 0.0000 0.0000 43.2731 0.0000 0.0000
# 5 0.0000 0.0000 0.0000 0.0000 31.7233 0.0000
# 6 0.0000 0.0000 0.0000 0.0000 0.0000 13.9311
#
#
#
# Elastic Compliance Matrix: (Units=1/GPa)
#
#
# Indices 1 2 3 4 5 6 
#
# 1 0.041388 -0.002798 -0.006879 0.000000 0.000000 0.000000
# 2 -0.002798 0.007945 -0.004777 0.000000 0.000000 0.000000
# 3 -0.006879 -0.004777 0.010473 0.000000 0.000000 0.000000
# 4 0.000000 0.000000 0.000000 0.023109 0.000000 0.000000
# 5 0.000000 0.000000 0.000000 0.000000 0.031523 0.000000
# 6 0.000000 0.000000 0.000000 0.000000 0.000000 0.071782
#
#
# Mechanical properties :
#
#
# Convention : Reuss Voigt Hill
#
# Bulk Modulus (GPa) = 32.36394 87.44140 59.90267
# Shear Modulus (GPa) = 22.18034 32.87369 27.52702
#
# Velocity S-wave (km/s) = 3.42976 4.17545 3.82084
# Velocity P-wave (km/s) = 5.73135 8.34386 7.15781
#
# Compressibility (1/GPa) = 0.03089859
#
# Stress axis : x y z
#
# Youngs Moduli (GPa) = 24.16152 125.86997 95.48808
#
# Poissons Ratio (x) = 0.35215 0.65685
# Poissons Ratio (y) = 0.06760 0.45612
# Poissons Ratio (z) = 0.16620 0.60125
#
# Static dielectric constant tensor:
#      x y z
#    x 3.659210 0.000000 0.000000 
#    y 0.000000 3.846910 0.000000 
#    z 0.000000 0.000000 3.463460 
# 
# 
# High freq. dielectric constant tensor:
#      x y z
#    x 1.693550 0.000000 0.000000 
#    y 0.000000 1.751970 0.000000 
#    z 0.000000 0.000000 1.746440 
# 
# From -- ./inp_files/68008.got.cif
#   From: 2010.06.25/outbox.cif.g09.slc.cpg/sg71_35_cif.got.tgz:68008.got - 2010.06.28 04:59:45.
