data_PCOD8290934
_publ_section_title
;
Structure prediction by ZEFSAII (Michael W. Deem and Ramdas Pophale) SiO2 
 PCOD8290934
Probable space group: I M M M
;
_chemical_formula_sum "Si O2"
_cell_formula_units_Z 80
_cell_length_a 25.114664
_cell_length_b 8.816162
_cell_length_c 18.401715
_cell_angle_alpha 90.000000
_cell_angle_beta 90.000000
_cell_angle_gamma 90.000000
_cell_volume 4074.414740
_symmetry_space_group_name_H-M "I M M M"
_symmetry_group_IT_number 71
_symmetry_cell_setting 'orthorhombic'
loop_
_space_group_symop_operation_xyz
x,y,z
-x,-y,z
x,-y,-z
-x,y,-z
-x,-y,-z
x,y,-z
-x,y,z
x,-y,z
1/2+x,1/2+y,1/2+z
1/2-x,1/2-y,1/2+z
1/2+x,1/2-y,1/2-z
1/2-x,1/2+y,1/2-z
1/2-x,1/2-y,1/2-z
1/2+x,1/2+y,1/2-z
1/2-x,1/2+y,1/2+z
1/2+x,1/2-y,1/2+z
loop_
_atom_site_type_symbol
_atom_site_label
_atom_site_fract_x
_atom_site_fract_y
_atom_site_fract_z
Si Si1 0.598115 0.822388 0.915899
Si Si2 0.189452 0.323452 0.176824
Si Si3 0.500000 0.320025 0.668859
Si Si4 0.187732 0.176578 0.672483
Si Si5 0.000000 0.179626 0.333561
Si Si6 0.896843 0.176939 0.915798
O O1 0.655403 0.767679 0.888156
O O2 0.552393 0.737304 0.872736
O O3 0.591867 0.000000 0.902828
O O4 0.592871 0.779883 0.000000
O O5 0.181058 0.500000 0.192686
O O6 0.170548 0.231373 0.247578
O O7 0.250575 0.287456 0.158049
O O8 0.155039 0.269669 0.108524
O O9 0.500000 0.500000 0.665243
O O10 0.500000 0.259130 0.751084
O O11 0.447562 0.259149 0.628144
O O12 0.174230 0.000000 0.665953
O O13 0.000000 0.000000 0.334898
O O14 0.887063 0.000000 0.900329
O O15 0.907315 0.208385 0.000000
#
# Coordination Sequence:
#
# PCOD8290934 Si02
#       6
#    16  16   8  16   8  16
#     4  11  24  40  58  83 117 153 189 234 287 340
#     4  10  21  37  58  84 115 149 186 234 288 340
#     4   9  19  36  57  82 110 143 187 233 274 322
#     4  10  21  38  60  84 111 147 192 237 281 337
#     4  11  22  37  61  87 112 149 195 238 282 340
#     4  10  20  35  57  83 113 150 190 232 278 332
#
# _framework density 19.634720999999999
#
# number of rings (size 3 to 8) (size 9 to 14) (size 15 to 20)
#    0.000    1.800    0.000    3.900    0.000    9.200 
#    0.000    5.500    0.000    1.200    0.000    0.000 
#    0.000    0.000    0.000    0.000    0.000    0.000 
#
# Total GULP energy -496247.633970 kJ/mol
# GULP energy per Si atom -12406.190849 kJ/mol
# Density = 1.959003 g / cm^3
# Si number density = 19.634721 Si / 1000 Ang^3
#
#
#
# Elastic Constant Matrix: (Units=GPa)
#
#
# Indices 1 2 3 4 5 6 
#
# 1 116.6674 40.8317 76.3157 0.0000 0.0000 0.0000
# 2 40.8317 53.3889 51.8652 0.0000 0.0000 0.0000
# 3 76.3157 51.8652 145.1073 0.0000 0.0000 0.0000
# 4 0.0000 0.0000 0.0000 32.1903 0.0000 0.0000
# 5 0.0000 0.0000 0.0000 0.0000 28.5420 0.0000
# 6 0.0000 0.0000 0.0000 0.0000 0.0000 32.6705
#
#
#
# Elastic Compliance Matrix: (Units=1/GPa)
#
#
# Indices 1 2 3 4 5 6 
#
# 1 0.014033 -0.005458 -0.005430 0.000000 0.000000 0.000000
# 2 -0.005458 0.030816 -0.008144 0.000000 0.000000 0.000000
# 3 -0.005430 -0.008144 0.012658 0.000000 0.000000 0.000000
# 4 0.000000 0.000000 0.000000 0.031065 0.000000 0.000000
# 5 0.000000 0.000000 0.000000 0.000000 0.035036 0.000000
# 6 0.000000 0.000000 0.000000 0.000000 0.000000 0.030609
#
#
# Mechanical properties :
#
#
# Convention : Reuss Voigt Hill
#
# Bulk Modulus (GPa) = 51.42914 72.57653 62.00284
# Shear Modulus (GPa) = 25.15567 28.42398 26.78983
#
# Velocity S-wave (km/s) = 3.58324 3.80891 3.69780
# Velocity P-wave (km/s) = 6.58554 7.50915 7.06246
#
# Compressibility (1/GPa) = 0.01944423
#
# Stress axis : x y z
#
# Youngs Moduli (GPa) = 71.25935 32.45026 79.00149
#
# Poissons Ratio (x) = 0.17711 0.42895
# Poissons Ratio (y) = 0.38893 0.64340
# Poissons Ratio (z) = 0.38691 0.26428
#
# Static dielectric constant tensor:
#      x y z
#    x 3.785230 0.000000 0.000000 
#    y 0.000000 3.502570 0.000000 
#    z 0.000000 0.000000 3.617950 
# 
# 
# High freq. dielectric constant tensor:
#      x y z
#    x 1.777790 0.000000 0.000000 
#    y 0.000000 1.761330 0.000000 
#    z 0.000000 0.000000 1.769780 
# 
# From -- ./inp_files/48624.got.cif
#   From: 2010.06.25/outbox.cif.g09.slc.cpg/sg71_25_cif.got.tgz:48624.got - 2010.06.28 04:59:45.
