data_PCOD8290388
_publ_section_title
;
Structure prediction by ZEFSAII (Michael W. Deem and Ramdas Pophale) SiO2 
 PCOD8290388
Probable space group: I M M M
;
_chemical_formula_sum "Si O2"
_cell_formula_units_Z 80
_cell_length_a 9.329279
_cell_length_b 21.860952
_cell_length_c 22.018741
_cell_angle_alpha 90.000000
_cell_angle_beta 90.000000
_cell_angle_gamma 90.000000
_cell_volume 4490.654418
_symmetry_space_group_name_H-M "I M M M"
_symmetry_group_IT_number 71
_symmetry_cell_setting 'orthorhombic'
loop_
_space_group_symop_operation_xyz
x,y,z
-x,-y,z
x,-y,-z
-x,y,-z
-x,-y,-z
x,y,-z
-x,y,z
x,-y,z
1/2+x,1/2+y,1/2+z
1/2-x,1/2-y,1/2+z
1/2+x,1/2-y,1/2-z
1/2-x,1/2+y,1/2-z
1/2-x,1/2-y,1/2-z
1/2+x,1/2+y,1/2-z
1/2-x,1/2+y,1/2+z
1/2+x,1/2-y,1/2+z
loop_
_atom_site_type_symbol
_atom_site_label
_atom_site_fract_x
_atom_site_fract_y
_atom_site_fract_z
Si Si1 0.166623 0.200976 0.169195
Si Si2 0.834970 0.666110 0.783311
Si Si3 0.165831 0.367374 0.428103
Si Si4 0.338456 0.427268 0.000000
Si Si5 0.665951 0.929497 0.384018
Si Si6 0.169170 0.500000 0.433775
O O1 0.195280 0.272745 0.178264
O O2 0.237795 0.162706 0.223684
O O3 0.237386 0.182542 0.105407
O O4 0.000000 0.184942 0.167507
O O5 0.792642 0.608424 0.824423
O O6 0.000000 0.663346 0.762550
O O7 0.194395 0.363270 0.500000
O O8 0.210896 0.435403 0.402112
O O9 0.000000 0.353809 0.413643
O O10 0.257663 0.403378 0.059853
O O11 0.335493 0.500000 0.000000
O O12 0.500000 0.401573 0.000000
O O13 0.500000 0.920650 0.401201
O O14 0.702108 0.000000 0.370211
O O15 0.242198 0.500000 0.500000
O O16 0.000000 0.500000 0.442816
#
# Coordination Sequence:
#
# PCOD8290388 Si02
#       6
#    16  16  16   8  16   8
#     4  10  20  34  52  73 100 135 167 202 251 300
#     4   9  19  36  54  71  96 133 173 208 245 293
#     4   9  17  32  54  77 101 130 167 208 245 289
#     4   9  17  29  47  73 105 135 157 190 249 306
#     4   9  17  32  54  76  97 126 169 213 246 285
#     4   7  12  26  49  73  95 125 163 200 239 280
#
# _framework density 17.814775999999998
#
# number of rings (size 3 to 8) (size 9 to 14) (size 15 to 20)
#    0.000    3.000    0.000    2.100    0.000    3.200 
#    3.600    0.500    0.000    1.800    0.000    0.000 
#    0.000    0.000    0.000    0.000    0.000    0.000 
#
# Total GULP energy -495829.218358 kJ/mol
# GULP energy per Si atom -12395.730459 kJ/mol
# Density = 1.777423 g / cm^3
# Si number density = 17.814776 Si / 1000 Ang^3
#
#
#
# Elastic Constant Matrix: (Units=GPa)
#
#
# Indices 1 2 3 4 5 6 
#
# 1 88.5824 39.9403 60.0749 0.0000 0.0000 0.0000
# 2 39.9403 67.0054 49.5768 0.0000 0.0000 0.0000
# 3 60.0749 49.5768 94.5924 0.0000 0.0000 0.0000
# 4 0.0000 0.0000 0.0000 24.1628 0.0000 0.0000
# 5 0.0000 0.0000 0.0000 0.0000 33.7205 0.0000
# 6 0.0000 0.0000 0.0000 0.0000 0.0000 22.2580
#
#
#
# Elastic Compliance Matrix: (Units=1/GPa)
#
#
# Indices 1 2 3 4 5 6 
#
# 1 0.020539 -0.004233 -0.010826 0.000000 0.000000 0.000000
# 2 -0.004233 0.025250 -0.010545 0.000000 0.000000 0.000000
# 3 -0.010826 -0.010545 0.022974 0.000000 0.000000 0.000000
# 4 0.000000 0.000000 0.000000 0.041386 0.000000 0.000000
# 5 0.000000 0.000000 0.000000 0.000000 0.029656 0.000000
# 6 0.000000 0.000000 0.000000 0.000000 0.000000 0.044928
#
#
# Mechanical properties :
#
#
# Convention : Reuss Voigt Hill
#
# Bulk Modulus (GPa) = 56.96449 61.04048 59.00249
# Shear Modulus (GPa) = 20.67889 22.73412 21.70651
#
# Velocity S-wave (km/s) = 3.41071 3.57618 3.49442
# Velocity P-wave (km/s) = 6.89608 7.16871 7.03372
#
# Compressibility (1/GPa) = 0.01755479
#
# Stress axis : x y z
#
# Youngs Moduli (GPa) = 48.68684 39.60425 43.52756
#
# Poissons Ratio (x) = 0.16765 0.47122
# Poissons Ratio (y) = 0.20610 0.45901
# Poissons Ratio (z) = 0.52707 0.41764
#
# Static dielectric constant tensor:
#      x y z
#    x 3.231340 0.000000 0.000000 
#    y 0.000000 3.346290 0.000000 
#    z 0.000000 0.000000 3.148760 
# 
# 
# High freq. dielectric constant tensor:
#      x y z
#    x 1.678610 0.000000 0.000000 
#    y 0.000000 1.681640 0.000000 
#    z 0.000000 0.000000 1.678680 
# 
# From -- ./inp_files/50418.got.cif
#   From: 2010.06.25/outbox.cif.g09.slc.cpg/sg71_26_cif.got.tgz:50418.got - 2010.06.28 04:59:45.
