data_PCOD8290058
_publ_section_title
;
Structure prediction by ZEFSAII (Michael W. Deem and Ramdas Pophale) SiO2 
 PCOD8290058
Probable space group: I M M M
;
_chemical_formula_sum "Si O2"
_cell_formula_units_Z 96
_cell_length_a 9.201740
_cell_length_b 27.822810
_cell_length_c 21.893595
_cell_angle_alpha 90.000000
_cell_angle_beta 90.000000
_cell_angle_gamma 90.000000
_cell_volume 5605.160178
_symmetry_space_group_name_H-M "I M M M"
_symmetry_group_IT_number 71
_symmetry_cell_setting 'orthorhombic'
loop_
_space_group_symop_operation_xyz
x,y,z
-x,-y,z
x,-y,-z
-x,y,-z
-x,-y,-z
x,y,-z
-x,y,z
x,-y,z
1/2+x,1/2+y,1/2+z
1/2-x,1/2-y,1/2+z
1/2+x,1/2-y,1/2-z
1/2-x,1/2+y,1/2-z
1/2-x,1/2-y,1/2-z
1/2+x,1/2+y,1/2-z
1/2-x,1/2+y,1/2+z
1/2+x,1/2-y,1/2+z
loop_
_atom_site_type_symbol
_atom_site_label
_atom_site_fract_x
_atom_site_fract_y
_atom_site_fract_z
Si Si1 0.667141 0.733539 0.190494
Si Si2 0.834928 0.336088 0.346455
Si Si3 0.336115 0.000000 0.927362
Si Si4 0.831147 0.093530 0.928748
Si Si5 0.829948 0.356316 0.206665
Si Si6 0.657833 0.943301 0.500000
Si Si7 0.326541 0.946501 0.368787
O O1 0.500000 0.722652 0.206136
O O2 0.750000 0.750000 0.250000
O O3 0.678961 0.778370 0.143714
O O4 0.744270 0.684575 0.167626
O O5 0.725576 0.359724 0.394025
O O6 0.790943 0.352411 0.278082
O O7 0.000000 0.352586 0.360088
O O8 0.253563 0.047069 0.903059
O O9 0.500000 0.000000 0.901471
O O10 0.334711 0.000000 0.000000
O O11 0.000000 0.085751 0.915448
O O12 0.800426 0.101337 0.000000
O O13 0.777356 0.408333 0.182397
O O14 0.000000 0.347927 0.195599
O O15 0.500000 0.917727 0.500000
O O16 0.737905 0.930128 0.564294
O O17 0.635763 0.000000 0.500000
O O18 0.500000 0.947886 0.374271
O O19 0.269664 0.000000 0.350554
#
# Coordination Sequence:
#
# PCOD8290058 Si02
#       7
#    16  16   8  16  16   8  16
#     4   9  17  30  49  70  91 119 158 195 232 281
#     4   9  18  31  46  68  92 120 162 198 235 291
#     4   9  17  31  51  71  91 121 159 192 227 278
#     4  10  20  33  50  71  95 123 157 199 244 286
#     4   9  17  29  46  71  99 127 159 195 238 281
#     4   7  10  18  36  62  89 121 159 191 219 258
#     4   8  13  23  41  66  97 129 159 191 228 270
#
# _framework density 17.127075999999999
#
# number of rings (size 3 to 8) (size 9 to 14) (size 15 to 20)
#    0.000    3.167    0.000    3.250    0.000    5.333 
#    1.500    0.000    1.833    0.500    0.000    0.000 
#    0.000    2.000    0.000    0.000    0.000    0.000 
#
# Total GULP energy -594717.773574 kJ/mol
# GULP energy per Si atom -12389.953616 kJ/mol
# Density = 1.708809 g / cm^3
# Si number density = 17.127076 Si / 1000 Ang^3
#
#
#
# Elastic Constant Matrix: (Units=GPa)
#
#
# Indices 1 2 3 4 5 6 
#
# 1 81.8924 53.2543 31.9408 0.0000 0.0000 0.0000
# 2 53.2543 131.1396 48.2113 0.0000 0.0000 0.0000
# 3 31.9408 48.2113 54.3389 0.0000 0.0000 0.0000
# 4 0.0000 0.0000 0.0000 22.3349 0.0000 0.0000
# 5 0.0000 0.0000 0.0000 0.0000 16.3626 0.0000
# 6 0.0000 0.0000 0.0000 0.0000 0.0000 30.0281
#
#
#
# Elastic Compliance Matrix: (Units=1/GPa)
#
#
# Indices 1 2 3 4 5 6 
#
# 1 0.017828 -0.005027 -0.006019 0.000000 0.000000 0.000000
# 2 -0.005027 0.012734 -0.008343 0.000000 0.000000 0.000000
# 3 -0.006019 -0.008343 0.029344 0.000000 0.000000 0.000000
# 4 0.000000 0.000000 0.000000 0.044773 0.000000 0.000000
# 5 0.000000 0.000000 0.000000 0.000000 0.061115 0.000000
# 6 0.000000 0.000000 0.000000 0.000000 0.000000 0.033302
#
#
# Mechanical properties :
#
#
# Convention : Reuss Voigt Hill
#
# Bulk Modulus (GPa) = 47.33362 59.35373 53.34367
# Shear Modulus (GPa) = 20.41510 22.67609 21.54560
#
# Velocity S-wave (km/s) = 3.45625 3.64262 3.55066
# Velocity P-wave (km/s) = 6.60487 7.24028 6.92986
#
# Compressibility (1/GPa) = 0.02112663
#
# Stress axis : x y z
#
# Youngs Moduli (GPa) = 56.09225 78.52972 34.07884
#
# Poissons Ratio (x) = 0.39475 0.20513
# Poissons Ratio (y) = 0.28196 0.28433
# Poissons Ratio (z) = 0.33764 0.65520
#
# Static dielectric constant tensor:
#      x y z
#    x 3.097820 0.000000 0.000000 
#    y 0.000000 3.845360 0.000000 
#    z 0.000000 0.000000 3.088720 
# 
# 
# High freq. dielectric constant tensor:
#      x y z
#    x 1.639850 0.000000 0.000000 
#    y 0.000000 1.663920 0.000000 
#    z 0.000000 0.000000 1.628980 
# 
# From -- ./inp_files/57923.got.cif
#   From: 2010.06.25/outbox.cif.g09.slc.cpg/sg71_29_cif.got.tgz:57923.got - 2010.06.28 04:59:45.
