data_PCOD8290547
_publ_section_title
;
Structure prediction by ZEFSAII (Michael W. Deem and Ramdas Pophale) SiO2 
 PCOD8290547
Probable space group: I M M M
;
_chemical_formula_sum "Si O2"
_cell_formula_units_Z 112
_cell_length_a 18.925359
_cell_length_b 23.244573
_cell_length_c 13.820439
_cell_angle_alpha 90.000000
_cell_angle_beta 90.000000
_cell_angle_gamma 90.000000
_cell_volume 6079.775425
_symmetry_space_group_name_H-M "I M M M"
_symmetry_group_IT_number 71
_symmetry_cell_setting 'orthorhombic'
loop_
_space_group_symop_operation_xyz
x,y,z
-x,-y,z
x,-y,-z
-x,y,-z
-x,-y,-z
x,y,-z
-x,y,z
x,-y,z
1/2+x,1/2+y,1/2+z
1/2-x,1/2-y,1/2+z
1/2+x,1/2-y,1/2-z
1/2-x,1/2+y,1/2-z
1/2-x,1/2-y,1/2-z
1/2+x,1/2+y,1/2-z
1/2-x,1/2+y,1/2+z
1/2+x,1/2-y,1/2+z
loop_
_atom_site_type_symbol
_atom_site_label
_atom_site_fract_x
_atom_site_fract_y
_atom_site_fract_z
Si Si1 0.917972 0.878421 0.890642
Si Si2 0.326591 0.825761 0.610122
Si Si3 0.162693 0.175938 0.388123
Si Si4 0.663170 0.436307 0.227269
Si Si5 0.082837 0.763522 0.776230
Si Si6 0.325332 0.064875 0.722042
Si Si7 0.078941 0.568343 0.606200
O O1 0.878493 0.925399 0.826329
O O2 0.902973 0.814847 0.850980
O O3 0.000000 0.893356 0.886128
O O4 0.889205 0.881658 0.000000
O O5 0.348787 0.813553 0.500000
O O6 0.244971 0.808851 0.628573
O O7 0.377251 0.791583 0.682046
O O8 0.336956 0.893881 0.630005
O O9 0.141610 0.181183 0.500000
O O10 0.144818 0.110769 0.354387
O O11 0.115243 0.220803 0.328313
O O12 0.643263 0.500000 0.187610
O O13 0.744850 0.434010 0.255908
O O14 0.000000 0.749934 0.764375
O O15 0.368851 0.091559 0.811789
O O16 0.349475 0.000000 0.693947
O O17 0.102199 0.591387 0.500000
O O18 0.080903 0.500000 0.605373
O O19 0.000000 0.590228 0.629923
#
# Coordination Sequence:
#
# PCOD8290547 Si02
#       7
#    16  16  16  16  16  16  16
#     4   9  18  32  49  70  99 135 170 206 252 300
#     4  10  20  34  54  78 103 134 171 208 250 304
#     4   9  19  36  56  77 103 135 168 206 254 303
#     4   9  18  31  48  74 105 135 169 206 245 295
#     4  10  20  35  55  77 102 131 168 214 259 305
#     4   9  18  32  49  72 103 135 168 208 251 295
#     4   8  14  26  44  63  85 120 164 204 244 290
#
# _framework density 18.421733
#
# number of rings (size 3 to 8) (size 9 to 14) (size 15 to 20)
#    0.000    2.857    0.000    1.286    0.000    3.429 
#    0.000    5.714    0.000    0.000    0.000    7.000 
#    0.000    0.000    0.000    0.000    0.000    0.000 
#
# Total GULP energy -694274.576081 kJ/mol
# GULP energy per Si atom -12397.760287 kJ/mol
# Density = 1.837980 g / cm^3
# Si number density = 18.421733 Si / 1000 Ang^3
#
#
#
# Elastic Constant Matrix: (Units=GPa)
#
#
# Indices 1 2 3 4 5 6 
#
# 1 69.2485 43.3322 55.0409 0.0000 0.0000 0.0000
# 2 43.3322 85.8983 48.6595 0.0000 0.0000 0.0000
# 3 55.0409 48.6595 130.8926 0.0000 0.0000 0.0000
# 4 0.0000 0.0000 0.0000 20.6567 0.0000 0.0000
# 5 0.0000 0.0000 0.0000 0.0000 27.0510 0.0000
# 6 0.0000 0.0000 0.0000 0.0000 0.0000 22.2121
#
#
#
# Elastic Compliance Matrix: (Units=1/GPa)
#
#
# Indices 1 2 3 4 5 6 
#
# 1 0.026049 -0.008786 -0.007687 0.000000 0.000000 0.000000
# 2 -0.008786 0.017711 -0.002889 0.000000 0.000000 0.000000
# 3 -0.007687 -0.002889 0.011947 0.000000 0.000000 0.000000
# 4 0.000000 0.000000 0.000000 0.048410 0.000000 0.000000
# 5 0.000000 0.000000 0.000000 0.000000 0.036967 0.000000
# 6 0.000000 0.000000 0.000000 0.000000 0.000000 0.045021
#
#
# Mechanical properties :
#
#
# Convention : Reuss Voigt Hill
#
# Bulk Modulus (GPa) = 58.89108 64.45605 61.67357
# Shear Modulus (GPa) = 21.69297 23.25108 22.47202
#
# Velocity S-wave (km/s) = 3.43530 3.55654 3.49645
# Velocity P-wave (km/s) = 6.91178 7.20627 7.06056
#
# Compressibility (1/GPa) = 0.01698050
#
# Stress axis : x y z
#
# Youngs Moduli (GPa) = 38.38972 56.46360 83.70553
#
# Poissons Ratio (x) = 0.49607 0.64348
# Poissons Ratio (y) = 0.33728 0.24187
# Poissons Ratio (z) = 0.29512 0.16315
#
# Static dielectric constant tensor:
#      x y z
#    x 3.409850 0.000000 0.000000 
#    y 0.000000 3.291130 0.000000 
#    z 0.000000 0.000000 3.474930 
# 
# 
# High freq. dielectric constant tensor:
#      x y z
#    x 1.710250 0.000000 0.000000 
#    y 0.000000 1.702140 0.000000 
#    z 0.000000 0.000000 1.710830 
# 
# From -- ./inp_files/34908.got.cif
#   From: 2010.06.25/outbox.cif.g09.slc.cpg/sg71_18_cif.got.tgz:34908.got - 2010.06.28 04:59:45.
