data_PCOD8290495
_publ_section_title
;
Structure prediction by ZEFSAII (Michael W. Deem and Ramdas Pophale) SiO2 
 PCOD8290495
Probable space group: I M M M
;
_chemical_formula_sum "Si O2"
_cell_formula_units_Z 88
_cell_length_a 9.162137
_cell_length_b 18.163836
_cell_length_c 29.051057
_cell_angle_alpha 90.000000
_cell_angle_beta 90.000000
_cell_angle_gamma 90.000000
_cell_volume 4834.663946
_symmetry_space_group_name_H-M "I M M M"
_symmetry_group_IT_number 71
_symmetry_cell_setting 'orthorhombic'
loop_
_space_group_symop_operation_xyz
x,y,z
-x,-y,z
x,-y,-z
-x,y,-z
-x,-y,-z
x,y,-z
-x,y,z
x,-y,z
1/2+x,1/2+y,1/2+z
1/2-x,1/2-y,1/2+z
1/2+x,1/2-y,1/2-z
1/2-x,1/2+y,1/2-z
1/2-x,1/2-y,1/2-z
1/2+x,1/2+y,1/2-z
1/2-x,1/2+y,1/2+z
1/2+x,1/2-y,1/2+z
loop_
_atom_site_type_symbol
_atom_site_label
_atom_site_fract_x
_atom_site_fract_y
_atom_site_fract_z
Si Si1 0.162897 0.584093 0.246488
Si Si2 0.673334 0.080509 0.356861
Si Si3 0.169486 0.796370 0.788536
Si Si4 0.832389 0.354657 0.554472
Si Si5 0.666107 0.500000 0.554778
Si Si6 0.329719 0.764900 0.611094
O O1 0.155861 0.500000 0.260787
O O2 0.229810 0.594312 0.195128
O O3 0.267369 0.621452 0.284144
O O4 0.000000 0.618957 0.248315
O O5 0.500000 0.078093 0.353564
O O6 0.720336 0.148595 0.389724
O O7 0.730040 0.000000 0.375071
O O8 0.250000 0.750000 0.750000
O O9 0.204606 0.766127 0.838705
O O10 0.000000 0.795794 0.778040
O O11 0.818917 0.349420 0.500000
O O12 0.747139 0.426712 0.573220
O O13 0.763471 0.279934 0.574226
O O14 0.000000 0.361310 0.570145
O O15 0.500000 0.500000 0.573235
O O16 0.669711 0.500000 0.500000
O O17 0.500000 0.757130 0.598498
#
# Coordination Sequence:
#
# PCOD8290495 Si02
#       6
#    16  16  16  16   8  16
#     4   9  17  32  52  71  97 137 179 216 258 306
#     4   8  14  28  51  75 100 132 173 218 257 299
#     4  11  21  33  50  74 106 140 175 216 260 308
#     4  10  21  37  57  81 108 137 172 215 263 314
#     4   9  17  33  59  85 107 135 171 211 257 309
#     4  10  20  34  53  78 104 137 179 217 263 316
#
# _framework density 18.201886999999999
#
# number of rings (size 3 to 8) (size 9 to 14) (size 15 to 20)
#    0.000    2.455    1.818    2.455    0.000    4.000 
#    1.636    0.000    0.000    1.091    0.000    3.818 
#    0.000    0.000    0.000    0.000    0.000    0.000 
#
# Total GULP energy -545370.665972 kJ/mol
# GULP energy per Si atom -12394.787863 kJ/mol
# Density = 1.816046 g / cm^3
# Si number density = 18.201887 Si / 1000 Ang^3
#
#
#
# Elastic Constant Matrix: (Units=GPa)
#
#
# Indices 1 2 3 4 5 6 
#
# 1 78.3091 54.1367 32.6883 0.0000 0.0000 0.0000
# 2 54.1367 150.6829 33.4527 0.0000 0.0000 0.0000
# 3 32.6883 33.4527 27.8678 0.0000 0.0000 0.0000
# 4 0.0000 0.0000 0.0000 30.5736 0.0000 0.0000
# 5 0.0000 0.0000 0.0000 0.0000 26.3816 0.0000
# 6 0.0000 0.0000 0.0000 0.0000 0.0000 27.6472
#
#
#
# Elastic Compliance Matrix: (Units=1/GPa)
#
#
# Indices 1 2 3 4 5 6 
#
# 1 0.026345 -0.003551 -0.026639 0.000000 0.000000 0.000000
# 2 -0.003551 0.009526 -0.007270 0.000000 0.000000 0.000000
# 3 -0.026639 -0.007270 0.075858 0.000000 0.000000 0.000000
# 4 0.000000 0.000000 0.000000 0.032708 0.000000 0.000000
# 5 0.000000 0.000000 0.000000 0.000000 0.037905 0.000000
# 6 0.000000 0.000000 0.000000 0.000000 0.000000 0.036170
#
#
# Mechanical properties :
#
#
# Convention : Reuss Voigt Hill
#
# Bulk Modulus (GPa) = 27.16768 55.26834 41.21801
# Shear Modulus (GPa) = 16.35575 26.02593 21.19084
#
# Velocity S-wave (km/s) = 3.00087 3.78544 3.41576
# Velocity P-wave (km/s) = 5.19280 7.03818 6.18471
#
# Compressibility (1/GPa) = 0.03680844
#
# Stress axis : x y z
#
# Youngs Moduli (GPa) = 37.95832 104.97310 13.18246
#
# Poissons Ratio (x) = 0.37275 0.35117
# Poissons Ratio (y) = 0.13479 0.09584
# Poissons Ratio (z) = 1.01118 0.76318
#
# Static dielectric constant tensor:
#      x y z
#    x 3.505850 0.000000 0.000000 
#    y 0.000000 3.934420 0.000000 
#    z 0.000000 0.000000 3.070620 
# 
# 
# High freq. dielectric constant tensor:
#      x y z
#    x 1.689980 0.000000 0.000000 
#    y 0.000000 1.725310 0.000000 
#    z 0.000000 0.000000 1.663290 
# 
# From -- ./inp_files/8844.got.cif
#   From: 2010.06.25/outbox.cif.g09.slc.cpg/sg71_5_cif.got.tgz:8844.got - 2010.06.28 04:59:45.
