data_PCOD8290535
_publ_section_title
;
Structure prediction by ZEFSAII (Michael W. Deem and Ramdas Pophale) SiO2 
 PCOD8290535
Probable space group: I M M M
;
_chemical_formula_sum "Si O2"
_cell_formula_units_Z 88
_cell_length_a 8.874268
_cell_length_b 22.491031
_cell_length_c 22.775561
_cell_angle_alpha 90.000000
_cell_angle_beta 90.000000
_cell_angle_gamma 90.000000
_cell_volume 4545.806941
_symmetry_space_group_name_H-M "I M M M"
_symmetry_group_IT_number 71
_symmetry_cell_setting 'orthorhombic'
loop_
_space_group_symop_operation_xyz
x,y,z
-x,-y,z
x,-y,-z
-x,y,-z
-x,-y,-z
x,y,-z
-x,y,z
x,-y,z
1/2+x,1/2+y,1/2+z
1/2-x,1/2-y,1/2+z
1/2+x,1/2-y,1/2-z
1/2-x,1/2+y,1/2-z
1/2-x,1/2-y,1/2-z
1/2+x,1/2+y,1/2-z
1/2-x,1/2+y,1/2+z
1/2+x,1/2-y,1/2+z
loop_
_atom_site_type_symbol
_atom_site_label
_atom_site_fract_x
_atom_site_fract_y
_atom_site_fract_z
Si Si1 0.680183 0.156807 0.126475
Si Si2 0.828650 0.433982 0.725041
Si Si3 0.171686 0.649287 0.500000
Si Si4 0.671209 0.784235 0.627562
Si Si5 0.179243 0.000000 0.433140
Si Si6 0.322561 0.597781 0.841926
Si Si7 0.166464 0.734738 0.000000
O O1 0.500000 0.163786 0.124051
O O2 0.733918 0.111872 0.176669
O O3 0.740360 0.129335 0.063367
O O4 0.751257 0.220968 0.139636
O O5 0.822036 0.500000 0.697447
O O6 0.724936 0.434203 0.782205
O O7 0.000000 0.417318 0.742526
O O8 0.193861 0.720259 0.500000
O O9 0.000000 0.630203 0.500000
O O10 0.500000 0.779765 0.649931
O O11 0.753717 0.836449 0.661838
O O12 0.679812 0.803869 0.558977
O O13 0.235143 0.941373 0.397547
O O14 0.244536 0.000000 0.500000
O O15 0.000000 0.000000 0.435266
O O16 0.500000 0.603663 0.844571
O O17 0.000000 0.766856 0.000000
#
# Coordination Sequence:
#
# PCOD8290535 Si02
#       7
#    16  16   8  16   8  16   8
#     4   9  18  34  56  82 110 143 180 220 268 322
#     4  10  21  38  58  78 107 145 182 222 272 324
#     4   8  14  28  51  78 107 135 172 215 257 312
#     4  10  20  34  53  81 112 143 178 223 274 322
#     4   9  20  38  57  81 111 142 181 228 272 315
#     4  11  22  37  58  81 108 143 184 226 268 320
#     4   8  16  30  48  72 108 143 173 208 261 323
#
# _framework density 19.358498999999998
#
# number of rings (size 3 to 8) (size 9 to 14) (size 15 to 20)
#    0.000    2.455    0.909    1.091    1.273    2.182 
#    0.000    0.455    0.000    4.909    0.000    0.000 
#    0.000    8.727    0.000    0.000    0.000    0.000 
#
# Total GULP energy -545124.865283 kJ/mol
# GULP energy per Si atom -12389.201484 kJ/mol
# Density = 1.931444 g / cm^3
# Si number density = 19.358499 Si / 1000 Ang^3
#
#
#
# Elastic Constant Matrix: (Units=GPa)
#
#
# Indices 1 2 3 4 5 6 
#
# 1 51.2011 31.7675 26.2945 0.0000 0.0000 0.0000
# 2 31.7675 116.8076 62.1713 0.0000 0.0000 0.0000
# 3 26.2945 62.1713 120.9103 0.0000 0.0000 0.0000
# 4 0.0000 0.0000 0.0000 32.2298 0.0000 0.0000
# 5 0.0000 0.0000 0.0000 0.0000 23.7901 0.0000
# 6 0.0000 0.0000 0.0000 0.0000 0.0000 19.2957
#
#
#
# Elastic Compliance Matrix: (Units=1/GPa)
#
#
# Indices 1 2 3 4 5 6 
#
# 1 0.024063 -0.005175 -0.002572 0.000000 0.000000 0.000000
# 2 -0.005175 0.012900 -0.005508 0.000000 0.000000 0.000000
# 3 -0.002572 -0.005508 0.011662 0.000000 0.000000 0.000000
# 4 0.000000 0.000000 0.000000 0.031027 0.000000 0.000000
# 5 0.000000 0.000000 0.000000 0.000000 0.042034 0.000000
# 6 0.000000 0.000000 0.000000 0.000000 0.000000 0.051825
#
#
# Mechanical properties :
#
#
# Convention : Reuss Voigt Hill
#
# Bulk Modulus (GPa) = 45.21819 58.82064 52.01942
# Shear Modulus (GPa) = 24.10891 26.30883 25.20887
#
# Velocity S-wave (km/s) = 3.53284 3.69050 3.61253
# Velocity P-wave (km/s) = 6.32853 6.97213 6.65811
#
# Compressibility (1/GPa) = 0.02211500
#
# Stress axis : x y z
#
# Youngs Moduli (GPa) = 41.55828 77.51902 85.74944
#
# Poissons Ratio (x) = 0.40119 0.22053
# Poissons Ratio (y) = 0.21508 0.47228
# Poissons Ratio (z) = 0.10688 0.42695
#
# Static dielectric constant tensor:
#      x y z
#    x 3.397440 0.000000 0.000000 
#    y 0.000000 3.325070 0.000000 
#    z 0.000000 0.000000 3.820070 
# 
# 
# High freq. dielectric constant tensor:
#      x y z
#    x 1.738220 0.000000 0.000000 
#    y 0.000000 1.733490 0.000000 
#    z 0.000000 0.000000 1.761790 
# 
# From -- ./inp_files/50579.got.cif
#   From: 2010.06.25/outbox.cif.g09.slc.cpg/sg71_26_cif.got.tgz:50579.got - 2010.06.28 04:59:45.
