data_PCOD8290399
_publ_section_title
;
Structure prediction by ZEFSAII (Michael W. Deem and Ramdas Pophale) SiO2 
 PCOD8290399
Probable space group: I M M M
;
_chemical_formula_sum "Si O2"
_cell_formula_units_Z 88
_cell_length_a 18.974258
_cell_length_b 30.603208
_cell_length_c 8.898867
_cell_angle_alpha 90.000000
_cell_angle_beta 90.000000
_cell_angle_gamma 90.000000
_cell_volume 5167.333259
_symmetry_space_group_name_H-M "I M M M"
_symmetry_group_IT_number 71
_symmetry_cell_setting 'orthorhombic'
loop_
_space_group_symop_operation_xyz
x,y,z
-x,-y,z
x,-y,-z
-x,y,-z
-x,-y,-z
x,y,-z
-x,y,z
x,-y,z
1/2+x,1/2+y,1/2+z
1/2-x,1/2-y,1/2+z
1/2+x,1/2-y,1/2-z
1/2-x,1/2+y,1/2-z
1/2-x,1/2-y,1/2-z
1/2+x,1/2+y,1/2-z
1/2-x,1/2+y,1/2+z
1/2+x,1/2-y,1/2+z
loop_
_atom_site_type_symbol
_atom_site_label
_atom_site_fract_x
_atom_site_fract_y
_atom_site_fract_z
Si Si1 0.777630 0.127358 0.673026
Si Si2 0.080302 0.255937 0.173983
Si Si3 0.290541 0.209684 0.823039
Si Si4 0.921888 0.165483 0.328438
Si Si5 0.077631 0.500000 0.677060
Si Si6 0.291420 0.048565 0.830166
O O1 0.759140 0.136306 0.500000
O O2 0.740813 0.163719 0.773553
O O3 0.862350 0.128745 0.699988
O O4 0.749554 0.079868 0.717332
O O5 0.128320 0.288700 0.270131
O O6 0.094600 0.206108 0.221369
O O7 0.000000 0.269356 0.205715
O O8 0.100195 0.260144 0.000000
O O9 0.250000 0.250000 0.750000
O O10 0.285280 0.214183 0.000000
O O11 0.917965 0.182464 0.500000
O O12 0.000000 0.146004 0.294045
O O13 0.066919 0.500000 0.500000
O O14 0.125230 0.543036 0.717809
O O15 0.000000 0.500000 0.756254
O O16 0.256641 0.000000 0.822473
O O17 0.285806 0.067069 0.000000
#
# Coordination Sequence:
#
# PCOD8290399 Si02
#       6
#    16  16  16  16   8  16
#     4  11  21  33  53  79 106 136 173 218 265 316
#     4  10  20  34  52  74 102 137 177 221 266 312
#     4  12  23  35  52  75 106 143 181 221 265 314
#     4   9  18  32  50  72  99 135 177 218 260 310
#     4   7  12  28  55  81 102 129 168 210 253 305
#     4   8  17  33  54  79 104 133 168 211 261 312
#
# _framework density 17.030059999999999
#
# number of rings (size 3 to 8) (size 9 to 14) (size 15 to 20)
#    0.545    1.727    1.818    2.727    0.000    2.182 
#    0.000    0.909    0.000    4.909    0.000    3.818 
#    0.000    0.000    0.000    0.000    0.000    0.000 
#
# Total GULP energy -545259.981401 kJ/mol
# GULP energy per Si atom -12392.272305 kJ/mol
# Density = 1.699130 g / cm^3
# Si number density = 17.030060 Si / 1000 Ang^3
#
#
#
# Elastic Constant Matrix: (Units=GPa)
#
#
# Indices 1 2 3 4 5 6 
#
# 1 130.7796 52.0150 51.0282 -0.0002 0.0010 0.0003
# 2 52.0150 69.9824 33.5308 -0.0006 -0.0006 -0.0002
# 3 51.0282 33.5308 98.3279 -0.0118 -0.0019 0.0006
# 4 -0.0002 -0.0006 -0.0118 29.0691 -0.0004 -0.0003
# 5 0.0010 -0.0006 -0.0019 -0.0004 24.7906 0.0001
# 6 0.0003 -0.0002 0.0006 -0.0003 0.0001 21.9901
#
#
#
# Elastic Compliance Matrix: (Units=1/GPa)
#
#
# Indices 1 2 3 4 5 6 
#
# 1 0.011928 -0.007052 -0.003785 -0.000002 -0.000001 0.000000
# 2 -0.007052 0.021249 -0.003586 -0.000001 0.000001 0.000000
# 3 -0.003785 -0.003586 0.013358 0.000005 0.000001 0.000000
# 4 -0.000002 -0.000001 0.000005 0.034401 0.000001 0.000001
# 5 -0.000001 0.000001 0.000001 0.000001 0.040338 0.000000
# 6 0.000000 0.000000 0.000000 0.000001 0.000000 0.045475
#
#
# Mechanical properties :
#
#
# Convention : Reuss Voigt Hill
#
# Bulk Modulus (GPa) = 56.53843 63.58198 60.06020
# Shear Modulus (GPa) = 24.81483 26.00436 25.40959
#
# Velocity S-wave (km/s) = 3.82136 3.91188 3.86689
# Velocity P-wave (km/s) = 7.26235 7.60394 7.43511
#
# Compressibility (1/GPa) = 0.01768709
#
# Stress axis : x y z
#
# Youngs Moduli (GPa) = 83.83415 47.06062 74.86385
#
# Poissons Ratio (x) = 0.33187 0.28340
# Poissons Ratio (y) = 0.59120 0.26849
# Poissons Ratio (z) = 0.31735 0.16878
#
# Static dielectric constant tensor:
#      x y z
#    x 3.626810 0.000000 0.000000 
#    y 0.000000 2.859510 0.000000 
#    z 0.000000 0.000000 3.177660 
# 
# 
# High freq. dielectric constant tensor:
#      x y z
#    x 1.666960 0.000000 0.000000 
#    y 0.000000 1.616390 0.000000 
#    z 0.000000 0.000000 1.659340 
# 
# From -- ./inp_files/8812.got.cif
#   From: 2010.06.25/outbox.cif.g09.slc.cpg/sg71_5_cif.got.tgz:8812.got - 2010.06.28 04:59:45.
