data_PCOD8290112
_publ_section_title
;
Structure prediction by ZEFSAII (Michael W. Deem and Ramdas Pophale) SiO2 
 PCOD8290112
Probable space group: I M M M
;
_chemical_formula_sum "Si O2"
_cell_formula_units_Z 64
_cell_length_a 17.904755
_cell_length_b 8.970344
_cell_length_c 23.312021
_cell_angle_alpha 90.000000
_cell_angle_beta 90.000000
_cell_angle_gamma 90.000000
_cell_volume 3744.185925
_symmetry_space_group_name_H-M "I M M M"
_symmetry_group_IT_number 71
_symmetry_cell_setting 'orthorhombic'
loop_
_space_group_symop_operation_xyz
x,y,z
-x,-y,z
x,-y,-z
-x,y,-z
-x,-y,-z
x,y,-z
-x,y,z
x,-y,z
1/2+x,1/2+y,1/2+z
1/2-x,1/2-y,1/2+z
1/2+x,1/2-y,1/2-z
1/2-x,1/2+y,1/2-z
1/2-x,1/2-y,1/2-z
1/2+x,1/2+y,1/2-z
1/2-x,1/2+y,1/2+z
1/2+x,1/2-y,1/2+z
loop_
_atom_site_type_symbol
_atom_site_label
_atom_site_fract_x
_atom_site_fract_y
_atom_site_fract_z
Si Si1 0.000000 0.322818 0.765355
Si Si2 0.000000 0.323143 0.634556
Si Si3 0.857036 0.325943 0.433625
Si Si4 0.417576 0.331545 0.642421
Si Si5 0.795083 0.325481 0.066351
O O1 0.000000 0.268024 0.699922
O O2 0.074176 0.255779 0.796584
O O3 0.000000 0.500000 0.770445
O O4 0.073714 0.262116 0.602866
O O5 0.000000 0.500000 0.630201
O O6 0.874540 0.293796 0.500000
O O7 0.843575 0.500000 0.422409
O O8 0.783721 0.239394 0.412556
O O9 0.500000 0.332647 0.612793
O O10 0.389552 0.500000 0.653733
O O11 0.361285 0.247860 0.601425
O O12 0.795610 0.500000 0.077706
O O13 0.807904 0.285550 0.000000
#
# Coordination Sequence:
#
# PCOD8290112 Si02
#       5
#     8   8  16  16  16
#     4   9  17  32  52  73 100 130 165 209 250 289
#     4   9  17  31  54  79  99 130 171 206 246 295
#     4   9  17  31  52  77 105 133 164 203 245 293
#     4   9  19  34  52  73  99 130 168 208 245 292
#     4  10  20  33  50  75 105 133 163 201 249 299
#
# _framework density 17.093169
#
# number of rings (size 3 to 8) (size 9 to 14) (size 15 to 20)
#    0.750    2.000    0.000    1.875    0.000    3.500 
#    0.000    6.875    0.000    3.000    0.000    0.000 
#    0.000    0.000    0.000    0.000    0.000    0.000 
#
# Total GULP energy -396651.978077 kJ/mol
# GULP energy per Si atom -12395.374315 kJ/mol
# Density = 1.705426 g / cm^3
# Si number density = 17.093169 Si / 1000 Ang^3
#
#
#
# Elastic Constant Matrix: (Units=GPa)
#
#
# Indices 1 2 3 4 5 6 
#
# 1 127.4689 51.6158 76.3408 0.0000 0.0000 0.0000
# 2 51.6158 76.2271 52.1086 0.0000 0.0000 0.0000
# 3 76.3408 52.1086 101.0001 0.0000 0.0000 0.0000
# 4 0.0000 0.0000 0.0000 17.7045 0.0000 0.0000
# 5 0.0000 0.0000 0.0000 0.0000 -11.6191 0.0000
# 6 0.0000 0.0000 0.0000 0.0000 0.0000 24.9059
#
#
#
# Elastic Compliance Matrix: (Units=1/GPa)
#
#
# Indices 1 2 3 4 5 6 
#
# 1 0.014984 -0.003714 -0.009410 0.000000 0.000000 0.000000
# 2 -0.003714 0.021187 -0.008124 0.000000 0.000000 0.000000
# 3 -0.009410 -0.008124 0.021205 0.000000 0.000000 0.000000
# 4 0.000000 0.000000 0.000000 0.056483 0.000000 0.000000
# 5 0.000000 0.000000 0.000000 0.000000 -0.086065 0.000000
# 6 0.000000 0.000000 0.000000 0.000000 0.000000 0.040151
#
#
# Mechanical properties :
#
#
# Convention : Reuss Voigt Hill
#
# Bulk Modulus (GPa) = 67.19982 73.86960 70.53471
# Shear Modulus (GPa) = 43.32747 14.50698 28.91723
#
# Velocity S-wave (km/s) = 5.04012 2.91641 4.11754
# Velocity P-wave (km/s) = 8.55977 7.39258 7.99750
#
# Compressibility (1/GPa) = 0.01488099
#
# Stress axis : x y z
#
# Youngs Moduli (GPa) = 66.73582 47.19917 47.15948
#
# Poissons Ratio (x) = 0.17529 0.44377
# Poissons Ratio (y) = 0.24785 0.38311
# Poissons Ratio (z) = 0.62798 0.38343
#
# Static dielectric constant tensor:
#      x y z
#    x 3.209750 0.000000 0.000000 
#    y 0.000000 3.152710 0.000000 
#    z 0.000000 0.000000 3.091270 
# 
# 
# High freq. dielectric constant tensor:
#      x y z
#    x 1.656370 0.000000 0.000000 
#    y 0.000000 1.659320 0.000000 
#    z 0.000000 0.000000 1.644630 
# 
# From -- ./inp_files/60340.got.cif
#   From: 2010.06.25/outbox.cif.g09.slc.cpg/sg71_31_cif.got.tgz:60340.got - 2010.06.28 04:59:45.
