data_PCOD8290297
_publ_section_title
;
Structure prediction by ZEFSAII (Michael W. Deem and Ramdas Pophale) SiO2 
 PCOD8290297
Probable space group: I M M M
;
_chemical_formula_sum "Si O2"
_cell_formula_units_Z 96
_cell_length_a 12.438118
_cell_length_b 29.150181
_cell_length_c 13.624716
_cell_angle_alpha 90.000000
_cell_angle_beta 90.000000
_cell_angle_gamma 90.000000
_cell_volume 4939.959482
_symmetry_space_group_name_H-M "I M M M"
_symmetry_group_IT_number 71
_symmetry_cell_setting 'orthorhombic'
loop_
_space_group_symop_operation_xyz
x,y,z
-x,-y,z
x,-y,-z
-x,y,-z
-x,-y,-z
x,y,-z
-x,y,z
x,-y,z
1/2+x,1/2+y,1/2+z
1/2-x,1/2-y,1/2+z
1/2+x,1/2-y,1/2-z
1/2-x,1/2+y,1/2-z
1/2-x,1/2-y,1/2-z
1/2+x,1/2+y,1/2-z
1/2-x,1/2+y,1/2+z
1/2+x,1/2-y,1/2+z
loop_
_atom_site_type_symbol
_atom_site_label
_atom_site_fract_x
_atom_site_fract_y
_atom_site_fract_z
Si Si1 0.823452 0.286784 0.616052
Si Si2 0.119288 0.794516 0.758160
Si Si3 0.197438 0.551913 0.109664
Si Si4 0.000000 0.638948 0.386288
Si Si5 0.872591 0.051212 0.892676
Si Si6 0.500000 0.053857 0.747044
Si Si7 0.376587 0.395499 0.204777
O O1 0.827853 0.275961 0.500000
O O2 0.871398 0.244775 0.677169
O O3 0.700559 0.292288 0.650494
O O4 0.893682 0.331759 0.641991
O O5 0.137565 0.841311 0.699102
O O6 0.000000 0.793356 0.804938
O O7 0.233958 0.500000 0.128903
O O8 0.302880 0.583118 0.120829
O O9 0.103882 0.566165 0.183339
O O10 0.152337 0.558309 0.000000
O O11 0.000000 0.628021 0.500000
O O12 0.000000 0.588880 0.337360
O O13 0.832284 0.086247 0.810123
O O14 0.000000 0.050714 0.896467
O O15 0.829769 0.000000 0.868214
O O16 0.828180 0.066762 0.000000
O O17 0.500000 0.000000 0.779974
O O18 0.500000 0.410680 0.187691
#
# Coordination Sequence:
#
# PCOD8290297 Si02
#       7
#    16  16  16   8  16   8  16
#     4  10  21  38  60  83 110 149 190 232 286 347
#     4  10  21  37  57  83 115 147 187 237 285 341
#     4  10  21  37  56  79 110 151 196 237 280 331
#     4  10  20  38  65  90 114 149 188 228 290 359
#     4   8  14  26  45  71 105 144 183 217 257 318
#     4  10  21  39  62  85 111 144 189 244 288 331
#     4  10  20  33  53  82 115 150 182 229 287 341
#
# _framework density 19.433357999999998
#
# number of rings (size 3 to 8) (size 9 to 14) (size 15 to 20)
#    0.000    2.333    0.833    2.250    0.000    4.167 
#    0.000    5.000    0.000    2.000    0.000    0.000 
#    0.000    0.000    0.000    0.000    0.000    0.000 
#
# Total GULP energy -595063.495242 kJ/mol
# GULP energy per Si atom -12397.156151 kJ/mol
# Density = 1.938913 g / cm^3
# Si number density = 19.433358 Si / 1000 Ang^3
#
#
#
# Elastic Constant Matrix: (Units=GPa)
#
#
# Indices 1 2 3 4 5 6 
#
# 1 101.3359 49.9247 40.0293 -0.0005 0.0000 0.0001
# 2 49.9247 114.7764 52.2336 -0.0003 0.0000 0.0000
# 3 40.0293 52.2336 88.8224 0.0004 0.0013 0.0007
# 4 -0.0005 -0.0003 0.0004 27.5135 0.0005 0.0001
# 5 0.0000 0.0000 0.0013 0.0005 20.2813 -0.0003
# 6 0.0001 0.0000 0.0007 0.0001 -0.0003 24.8657
#
#
#
# Elastic Compliance Matrix: (Units=1/GPa)
#
#
# Indices 1 2 3 4 5 6 
#
# 1 0.013331 -0.004184 -0.003547 0.000000 0.000000 0.000000
# 2 -0.004184 0.013210 -0.005882 0.000000 0.000000 0.000000
# 3 -0.003547 -0.005882 0.016316 0.000000 -0.000001 0.000000
# 4 0.000000 0.000000 0.000000 0.036346 -0.000001 0.000000
# 5 0.000000 0.000000 -0.000001 -0.000001 0.049306 0.000001
# 6 0.000000 0.000000 0.000000 0.000000 0.000001 0.040216
#
#
# Mechanical properties :
#
#
# Convention : Reuss Voigt Hill
#
# Bulk Modulus (GPa) = 63.98347 65.47887 64.73117
# Shear Modulus (GPa) = 24.85553 25.38191 25.11872
#
# Velocity S-wave (km/s) = 3.58021 3.61792 3.59912
# Velocity P-wave (km/s) = 7.07719 7.15679 7.11710
#
# Compressibility (1/GPa) = 0.01562904
#
# Stress axis : x y z
#
# Youngs Moduli (GPa) = 75.01435 75.70188 61.28847
#
# Poissons Ratio (x) = 0.31676 0.21740
# Poissons Ratio (y) = 0.31388 0.36053
# Poissons Ratio (z) = 0.26608 0.44532
#
# Static dielectric constant tensor:
#      x y z
#    x 3.620460 0.000000 0.000000 
#    y 0.000000 3.564160 0.000000 
#    z 0.000000 0.000000 3.500080 
# 
# 
# High freq. dielectric constant tensor:
#      x y z
#    x 1.755320 0.000000 0.000000 
#    y 0.000000 1.757610 0.000000 
#    z 0.000000 0.000000 1.746750 
# 
# From -- ./inp_files/33234.got.cif
#   From: 2010.06.25/outbox.cif.g09.slc.cpg/sg71_17_cif.got.tgz:33234.got - 2010.06.28 04:59:45.
