data_PCOD8290434
_publ_section_title
;
Structure prediction by ZEFSAII (Michael W. Deem and Ramdas Pophale) SiO2 
 PCOD8290434
Probable space group: I M M M
;
_chemical_formula_sum "Si O2"
_cell_formula_units_Z 80
_cell_length_a 21.773003
_cell_length_b 8.497751
_cell_length_c 22.002087
_cell_angle_alpha 90.000000
_cell_angle_beta 90.000000
_cell_angle_gamma 90.000000
_cell_volume 4070.860416
_symmetry_space_group_name_H-M "I M M M"
_symmetry_group_IT_number 71
_symmetry_cell_setting 'orthorhombic'
loop_
_space_group_symop_operation_xyz
x,y,z
-x,-y,z
x,-y,-z
-x,y,-z
-x,-y,-z
x,y,-z
-x,y,z
x,-y,z
1/2+x,1/2+y,1/2+z
1/2-x,1/2-y,1/2+z
1/2+x,1/2-y,1/2-z
1/2-x,1/2+y,1/2-z
1/2-x,1/2-y,1/2-z
1/2+x,1/2+y,1/2-z
1/2-x,1/2+y,1/2+z
1/2+x,1/2-y,1/2+z
loop_
_atom_site_type_symbol
_atom_site_label
_atom_site_fract_x
_atom_site_fract_y
_atom_site_fract_z
Si Si1 0.930158 0.187240 0.733035
Si Si2 0.427786 0.176699 0.000000
Si Si3 0.362115 0.685213 0.887027
Si Si4 0.764138 0.186028 0.930895
Si Si5 0.500000 0.312282 0.432285
Si Si6 0.617316 0.312630 0.639093
O O1 0.893752 0.249948 0.674273
O O2 0.891815 0.246571 0.791710
O O3 0.000000 0.254225 0.733882
O O4 0.933710 0.000000 0.732282
O O5 0.407039 0.272074 0.941509
O O6 0.500000 0.166548 0.000000
O O7 0.399068 0.000000 0.000000
O O8 0.351864 0.500000 0.884438
O O9 0.296919 0.767257 0.895435
O O10 0.820859 0.255553 0.891690
O O11 0.769267 0.000000 0.934373
O O12 0.764402 0.254597 0.000000
O O13 0.500000 0.500000 0.431664
O O14 0.500000 0.244990 0.500000
O O15 0.439861 0.246913 0.399107
O O16 0.618642 0.500000 0.637518
#
# Coordination Sequence:
#
# PCOD8290434 Si02
#       6
#    16   8  16  16   8  16
#     4   9  17  31  50  75 107 141 180 230 281 325
#     4  11  23  39  59  83 109 138 177 228 287 333
#     4  11  22  35  55  80 108 146 189 226 267 323
#     4  10  20  34  52  77 112 148 183 226 277 324
#     4   9  14  22  42  74 107 138 181 228 273 322
#     4   9  16  28  48  74 107 146 181 224 279 326
#
# _framework density 19.651865999999998
#
# number of rings (size 3 to 8) (size 9 to 14) (size 15 to 20)
#    0.000    2.200    2.000    2.100    0.000    4.800 
#    0.000    0.000    0.000    1.200    0.000    0.700 
#    0.000    2.400    0.000    0.000    0.000    0.000 
#
# Total GULP energy -495947.393818 kJ/mol
# GULP energy per Si atom -12398.684845 kJ/mol
# Density = 1.960714 g / cm^3
# Si number density = 19.651866 Si / 1000 Ang^3
#
#
#
# Elastic Constant Matrix: (Units=GPa)
#
#
# Indices 1 2 3 4 5 6 
#
# 1 160.2737 3.7264 90.7806 0.0000 0.0000 0.0000
# 2 3.7264 7.7996 8.1062 0.0000 0.0000 0.0000
# 3 90.7806 8.1062 197.8472 0.0000 0.0000 0.0000
# 4 0.0000 0.0000 0.0000 -17.1140 0.0000 0.0000
# 5 0.0000 0.0000 0.0000 0.0000 42.7548 0.0000
# 6 0.0000 0.0000 0.0000 0.0000 0.0000 16.5221
#
#
#
# Elastic Compliance Matrix: (Units=1/GPa)
#
#
# Indices 1 2 3 4 5 6 
#
# 1 0.008430 -0.000008 -0.003868 0.000000 0.000000 0.000000
# 2 -0.000008 0.133914 -0.005483 0.000000 0.000000 0.000000
# 3 -0.003868 -0.005483 0.007054 0.000000 0.000000 0.000000
# 4 0.000000 0.000000 0.000000 -0.058432 0.000000 0.000000
# 5 0.000000 0.000000 0.000000 0.000000 0.023389 0.000000
# 6 0.000000 0.000000 0.000000 0.000000 0.000000 0.060525
#
#
# Mechanical properties :
#
#
# Convention : Reuss Voigt Hill
#
# Bulk Modulus (GPa) = 7.65223 63.46079 35.55651
# Shear Modulus (GPa) = 21.08289 25.98639 23.53464
#
# Velocity S-wave (km/s) = 3.27894 3.64034 3.46436
# Velocity P-wave (km/s) = 4.27056 7.07333 5.84250
#
# Compressibility (1/GPa) = 0.13068088
#
# Stress axis : x y z
#
# Youngs Moduli (GPa) = 118.61976 7.46745 141.76762
#
# Poissons Ratio (x) = 0.00006 0.54834
# Poissons Ratio (y) = 0.00093 0.77734
# Poissons Ratio (z) = 0.45880 0.04095
#
# Static dielectric constant tensor:
#      x y z
#    x 3.754630 0.000000 0.000000 
#    y 0.000000 3.073620 0.000000 
#    z 0.000000 0.000000 3.883270 
# 
# 
# High freq. dielectric constant tensor:
#      x y z
#    x 1.779030 0.000000 0.000000 
#    y 0.000000 1.709680 0.000000 
#    z 0.000000 0.000000 1.781660 
# 
# From -- ./inp_files/61048.got.cif
#   From: 2010.06.25/outbox.cif.g09.slc.cpg/sg71_31_cif.got.tgz:61048.got - 2010.06.28 04:59:45.
