data_PCOD8290153
_publ_section_title
;
Structure prediction by ZEFSAII (Michael W. Deem and Ramdas Pophale) SiO2 
 PCOD8290153
Probable space group: I M M M
;
_chemical_formula_sum "Si O2"
_cell_formula_units_Z 120
_cell_length_a 26.558153
_cell_length_b 9.190020
_cell_length_c 27.688832
_cell_angle_alpha 90.000000
_cell_angle_beta 90.000000
_cell_angle_gamma 90.000000
_cell_volume 6758.012042
_symmetry_space_group_name_H-M "I M M M"
_symmetry_group_IT_number 71
_symmetry_cell_setting 'orthorhombic'
loop_
_space_group_symop_operation_xyz
x,y,z
-x,-y,z
x,-y,-z
-x,y,-z
-x,-y,-z
x,y,-z
-x,y,z
x,-y,z
1/2+x,1/2+y,1/2+z
1/2-x,1/2-y,1/2+z
1/2+x,1/2-y,1/2-z
1/2-x,1/2+y,1/2-z
1/2-x,1/2-y,1/2-z
1/2+x,1/2+y,1/2-z
1/2-x,1/2+y,1/2+z
1/2+x,1/2-y,1/2+z
loop_
_atom_site_type_symbol
_atom_site_label
_atom_site_fract_x
_atom_site_fract_y
_atom_site_fract_z
Si Si1 0.798614 0.667510 0.444311
Si Si2 0.203302 0.669478 0.272931
Si Si3 0.555697 0.667795 0.193469
Si Si4 0.597636 0.827216 0.388396
Si Si5 0.000000 0.326852 0.054619
Si Si6 0.599920 0.832744 0.279339
Si Si7 0.682714 0.668506 0.555280
Si Si8 0.154709 0.828260 0.359747
O O1 0.810856 0.698596 0.500000
O O2 0.809871 0.500000 0.431529
O O3 0.740614 0.704621 0.433007
O O4 0.834803 0.771825 0.413533
O O5 0.215365 0.500000 0.281723
O O6 0.250000 0.750000 0.250000
O O7 0.157383 0.691497 0.236250
O O8 0.192242 0.744703 0.323996
O O9 0.500000 0.702224 0.172633
O O10 0.562233 0.500000 0.206223
O O11 0.562438 0.750108 0.243841
O O12 0.597090 0.713587 0.153673
O O13 0.549584 0.768463 0.418148
O O14 0.592559 0.772529 0.333407
O O15 0.648727 0.765017 0.410208
O O16 0.601561 0.000000 0.390638
O O17 0.000000 0.500000 0.054681
O O18 0.000000 0.265951 0.000000
O O19 0.584347 0.000000 0.276710
O O20 0.670512 0.708603 0.500000
O O21 0.671372 0.500000 0.564967
O O22 0.164533 0.000000 0.356377
#
# Coordination Sequence:
#
# PCOD8290153 Si02
#       8
#    16  16  16  16   8  16  16  16
#     4   9  19  36  56  79 109 142 174 212 260 312
#     4  10  20  34  50  73 106 140 174 213 260 312
#     4   9  19  36  56  77 104 137 172 213 259 312
#     4  10  20  33  51  74  98 128 169 216 261 306
#     4   9  18  32  49  69  95 129 167 209 262 313
#     4   9  20  34  49  74 103 131 170 216 257 302
#     4   9  19  35  52  72  99 132 169 208 255 309
#     4  10  20  34  54  80 107 137 177 218 260 314
#
# _framework density 17.756703000000002
#
# number of rings (size 3 to 8) (size 9 to 14) (size 15 to 20)
#    0.000    2.600    0.000    2.000    2.800    3.467 
#    0.000    1.667    0.000    1.600    0.000    2.800 
#    0.000    0.000    0.000    0.000    0.000    0.000 
#
# Total GULP energy -744065.459089 kJ/mol
# GULP energy per Si atom -12401.090985 kJ/mol
# Density = 1.771629 g / cm^3
# Si number density = 17.756703 Si / 1000 Ang^3
#
#
#
# Elastic Constant Matrix: (Units=GPa)
#
#
# Indices 1 2 3 4 5 6 
#
# 1 101.0148 46.2462 61.9250 0.0000 0.0000 0.0000
# 2 46.2462 64.9644 46.6947 0.0000 0.0000 0.0000
# 3 61.9250 46.6947 119.7579 0.0000 0.0000 0.0000
# 4 0.0000 0.0000 0.0000 30.0639 0.0000 0.0000
# 5 0.0000 0.0000 0.0000 0.0000 23.5271 0.0000
# 6 0.0000 0.0000 0.0000 0.0000 0.0000 23.7047
#
#
#
# Elastic Compliance Matrix: (Units=1/GPa)
#
#
# Indices 1 2 3 4 5 6 
#
# 1 0.017080 -0.008073 -0.005684 0.000000 0.000000 0.000000
# 2 -0.008073 0.025203 -0.005652 0.000000 0.000000 0.000000
# 3 -0.005684 -0.005652 0.013493 0.000000 0.000000 0.000000
# 4 0.000000 0.000000 0.000000 0.033262 0.000000 0.000000
# 5 0.000000 0.000000 0.000000 0.000000 0.042504 0.000000
# 6 0.000000 0.000000 0.000000 0.000000 0.000000 0.042186
#
#
# Mechanical properties :
#
#
# Convention : Reuss Voigt Hill
#
# Bulk Modulus (GPa) = 58.97260 66.16320 62.56790
# Shear Modulus (GPa) = 22.91476 24.18388 23.54932
#
# Velocity S-wave (km/s) = 3.59623 3.69448 3.64568
# Velocity P-wave (km/s) = 7.10826 7.45256 7.28245
#
# Compressibility (1/GPa) = 0.01695703
#
# Stress axis : x y z
#
# Youngs Moduli (GPa) = 58.54766 39.67799 74.11162
#
# Poissons Ratio (x) = 0.32033 0.42125
# Poissons Ratio (y) = 0.47267 0.41890
# Poissons Ratio (z) = 0.33279 0.22427
#
# Static dielectric constant tensor:
#      x y z
#    x 3.336090 0.000000 0.000000 
#    y 0.000000 3.195160 0.000000 
#    z 0.000000 0.000000 3.336120 
# 
# 
# High freq. dielectric constant tensor:
#      x y z
#    x 1.685020 0.000000 0.000000 
#    y 0.000000 1.680190 0.000000 
#    z 0.000000 0.000000 1.684770 
# 
# From -- ./inp_files/67134.got.cif
#   From: 2010.06.25/outbox.cif.g09.slc.cpg/sg71_34_cif.got.tgz:67134.got - 2010.06.28 04:59:45.
