data_PCOD8290269
_publ_section_title
;
Structure prediction by ZEFSAII (Michael W. Deem and Ramdas Pophale) SiO2 
 PCOD8290269
Probable space group: I M M M
;
_chemical_formula_sum "Si O2"
_cell_formula_units_Z 96
_cell_length_a 23.893927
_cell_length_b 23.069421
_cell_length_c 9.056766
_cell_angle_alpha 90.000000
_cell_angle_beta 90.000000
_cell_angle_gamma 90.000000
_cell_volume 4992.262053
_symmetry_space_group_name_H-M "I M M M"
_symmetry_group_IT_number 71
_symmetry_cell_setting 'orthorhombic'
loop_
_space_group_symop_operation_xyz
x,y,z
-x,-y,z
x,-y,-z
-x,y,-z
-x,-y,-z
x,y,-z
-x,y,z
x,-y,z
1/2+x,1/2+y,1/2+z
1/2-x,1/2-y,1/2+z
1/2+x,1/2-y,1/2-z
1/2-x,1/2+y,1/2-z
1/2-x,1/2-y,1/2-z
1/2+x,1/2+y,1/2-z
1/2-x,1/2+y,1/2+z
1/2+x,1/2-y,1/2+z
loop_
_atom_site_type_symbol
_atom_site_label
_atom_site_fract_x
_atom_site_fract_y
_atom_site_fract_z
Si Si1 0.433682 0.936370 0.165631
Si Si2 0.064744 0.322115 0.173374
Si Si3 0.058842 0.064921 0.175162
Si Si4 0.179517 0.931386 0.170819
Si Si5 0.836394 0.730857 0.672682
Si Si6 0.741859 0.663389 0.828010
O O1 0.500000 0.938432 0.165612
O O2 0.413514 0.885596 0.274742
O O3 0.411090 0.000000 0.217195
O O4 0.411868 0.922911 0.000000
O O5 0.102348 0.273025 0.252252
O O6 0.000000 0.311756 0.217973
O O7 0.073260 0.317412 0.000000
O O8 0.117977 0.092215 0.226313
O O9 0.000000 0.096860 0.224963
O O10 0.056210 0.000000 0.238256
O O11 0.061266 0.062173 0.000000
O O12 0.225272 0.900225 0.271666
O O13 0.184431 0.000000 0.194535
O O14 0.189699 0.915159 0.000000
O O15 0.842536 0.719564 0.500000
O O16 0.797215 0.681440 0.741354
O O17 0.809499 0.793261 0.707185
O O18 0.756328 0.661980 0.000000
#
# Coordination Sequence:
#
# PCOD8290269 Si02
#       6
#    16  16  16  16  16  16
#     4   8  14  26  45  69  99 137 176 208 244 299
#     4  10  20  33  52  80 111 139 169 212 263 308
#     4   7  10  19  38  65  96 130 168 205 239 282
#     4   9  17  30  51  79 109 140 173 211 257 310
#     4  10  21  38  59  78  99 134 177 217 258 309
#     4  10  21  37  57  79 102 132 172 218 265 309
#
# _framework density 19.229761
#
# number of rings (size 3 to 8) (size 9 to 14) (size 15 to 20)
#    0.000    3.000    0.000    3.500    0.000    3.667 
#    0.000    3.333    0.000    8.500    0.000    2.333 
#    0.000    0.000    0.000    0.000    0.000    0.000 
#
# Total GULP energy -594676.225476 kJ/mol
# GULP energy per Si atom -12389.088031 kJ/mol
# Density = 1.918599 g / cm^3
# Si number density = 19.229761 Si / 1000 Ang^3
#
#
#
# Elastic Constant Matrix: (Units=GPa)
#
#
# Indices 1 2 3 4 5 6 
#
# 1 82.2975 29.9436 43.3816 0.0000 0.0000 0.0000
# 2 29.9436 44.8113 27.4690 0.0000 0.0000 0.0000
# 3 43.3816 27.4690 79.3100 0.0000 0.0000 0.0000
# 4 0.0000 0.0000 0.0000 25.1362 0.0000 0.0000
# 5 0.0000 0.0000 0.0000 0.0000 25.2446 0.0000
# 6 0.0000 0.0000 0.0000 0.0000 0.0000 23.4041
#
#
#
# Elastic Compliance Matrix: (Units=1/GPa)
#
#
# Indices 1 2 3 4 5 6 
#
# 1 0.019134 -0.008087 -0.007665 0.000000 0.000000 0.000000
# 2 -0.008087 0.031749 -0.006573 0.000000 0.000000 0.000000
# 3 -0.007665 -0.006573 0.019078 0.000000 0.000000 0.000000
# 4 0.000000 0.000000 0.000000 0.039783 0.000000 0.000000
# 5 0.000000 0.000000 0.000000 0.000000 0.039612 0.000000
# 6 0.000000 0.000000 0.000000 0.000000 0.000000 0.042728
#
#
# Mechanical properties :
#
#
# Convention : Reuss Voigt Hill
#
# Bulk Modulus (GPa) = 39.50849 45.33413 42.42131
# Shear Modulus (GPa) = 20.39399 21.79862 21.09630
#
# Velocity S-wave (km/s) = 3.26013 3.37053 3.31579
# Velocity P-wave (km/s) = 5.89588 6.22684 6.06361
#
# Compressibility (1/GPa) = 0.02531102
#
# Stress axis : x y z
#
# Youngs Moduli (GPa) = 52.26308 31.49745 52.41653
#
# Poissons Ratio (x) = 0.25472 0.40178
# Poissons Ratio (y) = 0.42265 0.34452
# Poissons Ratio (z) = 0.40060 0.20702
#
# Static dielectric constant tensor:
#      x y z
#    x 3.708570 0.000000 0.000000 
#    y 0.000000 3.395780 0.000000 
#    z 0.000000 0.000000 3.300100 
# 
# 
# High freq. dielectric constant tensor:
#      x y z
#    x 1.745830 0.000000 0.000000 
#    y 0.000000 1.722930 0.000000 
#    z 0.000000 0.000000 1.728230 
# 
# From -- ./inp_files/12844.got.cif
#   From: 2010.06.25/outbox.cif.g09.slc.cpg/sg71_7_cif.got.tgz:12844.got - 2010.06.28 04:59:45.
