data_PCOD8290003
_publ_section_title
;
Structure prediction by ZEFSAII (Michael W. Deem and Ramdas Pophale) SiO2 
 PCOD8290003
Probable space group: I M M M
;
_chemical_formula_sum "Si O2"
_cell_formula_units_Z 120
_cell_length_a 22.093615
_cell_length_b 21.133190
_cell_length_c 14.156753
_cell_angle_alpha 90.000000
_cell_angle_beta 90.000000
_cell_angle_gamma 90.000000
_cell_volume 6609.909208
_symmetry_space_group_name_H-M "I M M M"
_symmetry_group_IT_number 71
_symmetry_cell_setting 'orthorhombic'
loop_
_space_group_symop_operation_xyz
x,y,z
-x,-y,z
x,-y,-z
-x,y,-z
-x,-y,-z
x,y,-z
-x,y,z
x,-y,z
1/2+x,1/2+y,1/2+z
1/2-x,1/2-y,1/2+z
1/2+x,1/2-y,1/2-z
1/2-x,1/2+y,1/2-z
1/2-x,1/2-y,1/2-z
1/2+x,1/2+y,1/2-z
1/2-x,1/2+y,1/2+z
1/2+x,1/2-y,1/2+z
loop_
_atom_site_type_symbol
_atom_site_label
_atom_site_fract_x
_atom_site_fract_y
_atom_site_fract_z
Si Si1 0.188868 0.588994 0.396443
Si Si2 0.358397 0.121655 0.612339
Si Si3 0.434454 0.131300 0.107056
Si Si4 0.329773 0.686607 0.242590
Si Si5 0.235763 0.273555 0.394492
Si Si6 0.756419 0.929971 0.284589
Si Si7 0.569068 0.775031 0.275246
Si Si8 0.932470 0.500000 0.112077
O O1 0.205596 0.561353 0.500000
O O2 0.117591 0.578928 0.372189
O O3 0.195123 0.664290 0.394641
O O4 0.229827 0.555514 0.319161
O O5 0.353278 0.125781 0.500000
O O6 0.290917 0.111969 0.654527
O O7 0.390870 0.184485 0.650606
O O8 0.397894 0.062197 0.647478
O O9 0.500000 0.098247 0.121245
O O10 0.429731 0.191652 0.174474
O O11 0.426938 0.156722 0.000000
O O12 0.295181 0.714308 0.333184
O O13 0.305197 0.718226 0.147367
O O14 0.318183 0.610997 0.228724
O O15 0.399907 0.705571 0.260911
O O16 0.256498 0.254232 0.500000
O O17 0.769670 0.000000 0.329351
O O18 0.500000 0.766395 0.312561
O O19 0.000000 0.500000 0.154863
O O20 0.935202 0.500000 0.000000
#
# Coordination Sequence:
#
# PCOD8290003 Si02
#       8
#    16  16  16  16  16  16  16   8
#     4   9  16  30  51  73  97 124 161 207 258 311
#     4  11  21  35  52  76 108 143 183 217 252 305
#     4   9  16  27  46  72 101 129 157 193 243 303
#     4  10  20  33  48  75 102 128 172 217 261 316
#     4   9  16  29  50  74 100 128 156 201 263 315
#     4  11  22  36  52  72 101 138 177 219 265 310
#     4  11  21  34  53  77 105 136 171 216 269 316
#     4   9  18  32  48  66  97 143 186 214 233 274
#
# _framework density 18.154561000000001
#
# number of rings (size 3 to 8) (size 9 to 14) (size 15 to 20)
#    0.000    2.067    3.333    2.000    0.000    3.200 
#    0.000    0.000    0.000    0.400    0.000    1.867 
#    0.000    0.000    0.000   13.600    0.000    0.000 
#
# Total GULP energy -743468.663349 kJ/mol
# GULP energy per Si atom -12391.144389 kJ/mol
# Density = 1.811324 g / cm^3
# Si number density = 18.154561 Si / 1000 Ang^3
#
#
#
# Elastic Constant Matrix: (Units=GPa)
#
#
# Indices 1 2 3 4 5 6 
#
# 1 68.3968 52.7892 10.4018 0.0000 0.0000 0.0000
# 2 52.7892 90.7036 15.4801 0.0000 0.0000 0.0000
# 3 10.4018 15.4801 82.8551 0.0000 0.0000 0.0000
# 4 0.0000 0.0000 0.0000 8.6134 0.0000 0.0000
# 5 0.0000 0.0000 0.0000 0.0000 15.7199 0.0000
# 6 0.0000 0.0000 0.0000 0.0000 0.0000 6.3345
#
#
#
# Elastic Compliance Matrix: (Units=1/GPa)
#
#
# Indices 1 2 3 4 5 6 
#
# 1 0.026561 -0.015380 -0.000461 0.000000 0.000000 0.000000
# 2 -0.015380 0.020293 -0.001861 0.000000 0.000000 0.000000
# 3 -0.000461 -0.001861 0.012475 0.000000 0.000000 0.000000
# 4 0.000000 0.000000 0.000000 0.116098 0.000000 0.000000
# 5 0.000000 0.000000 0.000000 0.000000 0.063614 0.000000
# 6 0.000000 0.000000 0.000000 0.000000 0.000000 0.157866
#
#
# Mechanical properties :
#
#
# Convention : Reuss Voigt Hill
#
# Bulk Modulus (GPa) = 41.79522 44.36644 43.08083
# Shear Modulus (GPa) = 11.35627 17.01917 14.18772
#
# Velocity S-wave (km/s) = 2.50378 3.06512 2.79856
# Velocity P-wave (km/s) = 5.60628 6.08423 5.85014
#
# Compressibility (1/GPa) = 0.02392618
#
# Stress axis : x y z
#
# Youngs Moduli (GPa) = 37.64953 49.27725 80.16168
#
# Poissons Ratio (x) = 0.75786 0.03696
# Poissons Ratio (y) = 0.57903 0.14916
# Poissons Ratio (z) = 0.01736 0.09169
#
# Static dielectric constant tensor:
#      x y z
#    x 3.438770 0.000000 0.000000 
#    y 0.000000 3.160770 0.000000 
#    z 0.000000 0.000000 3.494850 
# 
# 
# High freq. dielectric constant tensor:
#      x y z
#    x 1.679750 0.000000 0.000000 
#    y 0.000000 1.675350 0.000000 
#    z 0.000000 0.000000 1.712970 
# 
# From -- ./inp_files/39633.got.cif
#   From: 2010.06.25/outbox.cif.g09.slc.cpg/sg71_20_cif.got.tgz:39633.got - 2010.06.28 04:59:45.
