data_PCOD8290496
_publ_section_title
;
Structure prediction by ZEFSAII (Michael W. Deem and Ramdas Pophale) SiO2 
 PCOD8290496
Probable space group: I M M M
;
_chemical_formula_sum "Si O2"
_cell_formula_units_Z 104
_cell_length_a 23.571771
_cell_length_b 25.515476
_cell_length_c 9.115163
_cell_angle_alpha 90.000000
_cell_angle_beta 90.000000
_cell_angle_gamma 90.000000
_cell_volume 5482.268821
_symmetry_space_group_name_H-M "I M M M"
_symmetry_group_IT_number 71
_symmetry_cell_setting 'orthorhombic'
loop_
_space_group_symop_operation_xyz
x,y,z
-x,-y,z
x,-y,-z
-x,y,-z
-x,-y,-z
x,y,-z
-x,y,z
x,-y,z
1/2+x,1/2+y,1/2+z
1/2-x,1/2-y,1/2+z
1/2+x,1/2-y,1/2-z
1/2-x,1/2+y,1/2-z
1/2-x,1/2-y,1/2-z
1/2+x,1/2+y,1/2-z
1/2-x,1/2+y,1/2+z
1/2+x,1/2-y,1/2+z
loop_
_atom_site_type_symbol
_atom_site_label
_atom_site_fract_x
_atom_site_fract_y
_atom_site_fract_z
Si Si1 0.936904 0.000000 0.174599
Si Si2 0.789803 0.712165 0.838321
Si Si3 0.716399 0.389797 0.159664
Si Si4 0.881982 0.344894 0.671757
Si Si5 0.173260 0.440907 0.172923
Si Si6 0.395694 0.611138 0.326359
Si Si7 0.000000 0.293589 0.331691
Si Si8 0.000000 0.817460 0.174575
O O1 0.906331 0.052229 0.232798
O O2 0.000000 0.000000 0.238630
O O3 0.938652 0.000000 0.000000
O O4 0.750000 0.750000 0.750000
O O5 0.757599 0.658593 0.859293
O O6 0.846785 0.702095 0.746624
O O7 0.804953 0.735376 0.000000
O O8 0.759742 0.434709 0.218141
O O9 0.666279 0.373661 0.269054
O O10 0.690544 0.404869 0.000000
O O11 0.867629 0.346315 0.500000
O O12 0.867913 0.401673 0.739541
O O13 0.946949 0.330742 0.703656
O O14 0.154663 0.500000 0.212285
O O15 0.166750 0.429317 0.000000
O O16 0.395070 0.612461 0.500000
O O17 0.444143 0.651037 0.269122
O O18 0.000000 0.241022 0.235832
O O19 0.000000 0.274989 0.500000
O O20 0.000000 0.814731 0.000000
#
# Coordination Sequence:
#
# PCOD8290496 Si02
#       8
#     8  16  16  16  16  16   8   8
#     4   9  16  32  53  69  99 141 177 224 277 318
#     4  10  21  37  57  81 111 148 186 229 283 337
#     4   9  20  35  52  77 110 144 177 218 273 332
#     4  10  21  39  60  85 114 148 192 235 283 344
#     4   9  19  38  61  85 116 151 185 228 286 347
#     4  10  20  34  53  78 105 139 187 234 277 325
#     4  10  24  42  60  82 115 153 186 231 290 343
#     4  10  22  37  54  79 107 144 194 242 282 331
#
# _framework density 18.970248000000002
#
# number of rings (size 3 to 8) (size 9 to 14) (size 15 to 20)
#    0.000    2.385    0.769    1.846    3.231    5.231 
#    0.000    0.385    0.000    2.769    0.000    0.000 
#    0.000    0.000    0.000    0.000    0.000    0.000 
#
# Total GULP energy -644567.918041 kJ/mol
# GULP energy per Si atom -12395.536885 kJ/mol
# Density = 1.892707 g / cm^3
# Si number density = 18.970248 Si / 1000 Ang^3
#
#
#
# Elastic Constant Matrix: (Units=GPa)
#
#
# Indices 1 2 3 4 5 6 
#
# 1 133.1906 46.5457 52.4135 0.0000 0.0000 0.0000
# 2 46.5457 89.1778 44.7415 0.0000 0.0000 0.0000
# 3 52.4135 44.7415 83.4094 0.0000 0.0000 0.0000
# 4 0.0000 0.0000 0.0000 26.4904 0.0000 0.0000
# 5 0.0000 0.0000 0.0000 0.0000 27.3767 0.0000
# 6 0.0000 0.0000 0.0000 0.0000 0.0000 16.2593
#
#
#
# Elastic Compliance Matrix: (Units=1/GPa)
#
#
# Indices 1 2 3 4 5 6 
#
# 1 0.010522 -0.002975 -0.005016 0.000000 0.000000 0.000000
# 2 -0.002975 0.016184 -0.006812 0.000000 0.000000 0.000000
# 3 -0.005016 -0.006812 0.018795 0.000000 0.000000 0.000000
# 4 0.000000 0.000000 0.000000 0.037749 0.000000 0.000000
# 5 0.000000 0.000000 0.000000 0.000000 0.036527 0.000000
# 6 0.000000 0.000000 0.000000 0.000000 0.000000 0.061503
#
#
# Mechanical properties :
#
#
# Convention : Reuss Voigt Hill
#
# Bulk Modulus (GPa) = 62.91242 65.90879 64.41060
# Shear Modulus (GPa) = 23.12851 24.83045 23.97948
#
# Velocity S-wave (km/s) = 3.49549 3.62182 3.55922
# Velocity P-wave (km/s) = 7.03754 7.23248 7.13568
#
# Compressibility (1/GPa) = 0.01589511
#
# Stress axis : x y z
#
# Youngs Moduli (GPa) = 95.04292 61.78989 53.20669
#
# Poissons Ratio (x) = 0.18384 0.26687
# Poissons Ratio (y) = 0.28277 0.36242
# Poissons Ratio (z) = 0.47671 0.42089
#
# Static dielectric constant tensor:
#      x y z
#    x 3.426350 0.000000 0.000000 
#    y 0.000000 2.293170 0.000000 
#    z 0.000000 0.000000 3.426200 
# 
# 
# High freq. dielectric constant tensor:
#      x y z
#    x 1.734850 0.000000 0.000000 
#    y 0.000000 1.739220 0.000000 
#    z 0.000000 0.000000 1.727580 
# 
# From -- ./inp_files/13386.got.cif
#   From: 2010.06.25/outbox.cif.g09.slc.cpg/sg71_7_cif.got.tgz:13386.got - 2010.06.28 04:59:45.
