data_PCOD8290146
_publ_section_title
;
Structure prediction by ZEFSAII (Michael W. Deem and Ramdas Pophale) SiO2 
 PCOD8290146
Probable space group: I M M M
;
_chemical_formula_sum "Si O2"
_cell_formula_units_Z 96
_cell_length_a 9.041676
_cell_length_b 20.467352
_cell_length_c 27.563109
_cell_angle_alpha 90.000000
_cell_angle_beta 90.000000
_cell_angle_gamma 90.000000
_cell_volume 5100.805946
_symmetry_space_group_name_H-M "I M M M"
_symmetry_group_IT_number 71
_symmetry_cell_setting 'orthorhombic'
loop_
_space_group_symop_operation_xyz
x,y,z
-x,-y,z
x,-y,-z
-x,y,-z
-x,-y,-z
x,y,-z
-x,y,z
x,-y,z
1/2+x,1/2+y,1/2+z
1/2-x,1/2-y,1/2+z
1/2+x,1/2-y,1/2-z
1/2-x,1/2+y,1/2-z
1/2-x,1/2-y,1/2-z
1/2+x,1/2+y,1/2-z
1/2-x,1/2+y,1/2+z
1/2+x,1/2-y,1/2+z
loop_
_atom_site_type_symbol
_atom_site_label
_atom_site_fract_x
_atom_site_fract_y
_atom_site_fract_z
Si Si1 0.327914 0.689693 0.056073
Si Si2 0.171715 0.574974 0.444231
Si Si3 0.174659 0.191370 0.894440
Si Si4 0.325097 0.697231 0.716110
Si Si5 0.824438 0.928478 0.270321
Si Si6 0.824249 0.927657 0.379046
O O1 0.500000 0.700572 0.067882
O O2 0.242858 0.755014 0.070243
O O3 0.260963 0.627851 0.085256
O O4 0.301174 0.674848 0.000000
O O5 0.214336 0.588930 0.500000
O O6 0.206628 0.500000 0.430970
O O7 0.268501 0.619978 0.409238
O O8 0.000000 0.590750 0.435915
O O9 0.223618 0.207042 0.839390
O O10 0.000000 0.191977 0.899761
O O11 0.500000 0.703186 0.722580
O O12 0.250000 0.750000 0.750000
O O13 0.266896 0.626016 0.733085
O O14 0.768214 0.911947 0.324660
O O15 0.000000 0.930102 0.270939
O O16 0.764247 0.000000 0.254259
O O17 0.000000 0.926829 0.381362
O O18 0.767818 0.000000 0.394862
#
# Coordination Sequence:
#
# PCOD8290146 Si02
#       6
#    16  16  16  16  16  16
#     4  10  20  33  51  74 100 134 173 211 254 304
#     4   9  19  37  59  80 103 135 176 218 259 308
#     4  11  23  35  50  76 107 138 173 214 261 310
#     4  10  21  35  52  75 102 134 171 210 252 300
#     4   8  14  27  48  71  95 125 159 195 240 294
#     4   8  14  26  47  75 101 124 157 204 253 297
#
# _framework density 18.820554999999999
#
# number of rings (size 3 to 8) (size 9 to 14) (size 15 to 20)
#    0.000    2.667    0.000    3.500    0.000    6.667 
#    0.000    4.167    0.000    1.000    0.000    5.833 
#    0.000    0.000    0.000    0.000    0.000    0.000 
#
# Total GULP energy -595109.028624 kJ/mol
# GULP energy per Si atom -12398.104763 kJ/mol
# Density = 1.877772 g / cm^3
# Si number density = 18.820555 Si / 1000 Ang^3
#
#
#
# Elastic Constant Matrix: (Units=GPa)
#
#
# Indices 1 2 3 4 5 6 
#
# 1 35.2167 26.1179 28.9673 0.0000 0.0000 0.0000
# 2 26.1179 104.1213 33.1949 0.0000 0.0000 0.0000
# 3 28.9673 33.1949 68.8291 0.0000 0.0000 0.0000
# 4 0.0000 0.0000 0.0000 42.1148 0.0000 0.0000
# 5 0.0000 0.0000 0.0000 0.0000 21.7423 0.0000
# 6 0.0000 0.0000 0.0000 0.0000 0.0000 20.4872
#
#
#
# Elastic Compliance Matrix: (Units=1/GPa)
#
#
# Indices 1 2 3 4 5 6 
#
# 1 0.046837 -0.006457 -0.016597 0.000000 0.000000 0.000000
# 2 -0.006457 0.012239 -0.003185 0.000000 0.000000 0.000000
# 3 -0.016597 -0.003185 0.023050 0.000000 0.000000 0.000000
# 4 0.000000 0.000000 0.000000 0.023745 0.000000 0.000000
# 5 0.000000 0.000000 0.000000 0.000000 0.045993 0.000000
# 6 0.000000 0.000000 0.000000 0.000000 0.000000 0.048811
#
#
# Mechanical properties :
#
#
# Convention : Reuss Voigt Hill
#
# Bulk Modulus (GPa) = 33.73085 42.74746 38.23916
# Shear Modulus (GPa) = 19.00874 24.86132 21.93503
#
# Velocity S-wave (km/s) = 3.18150 3.63845 3.41762
# Velocity P-wave (km/s) = 5.60867 6.35717 5.99461
#
# Compressibility (1/GPa) = 0.02964645
#
# Stress axis : x y z
#
# Youngs Moduli (GPa) = 21.35082 81.70345 43.38369
#
# Poissons Ratio (x) = 0.52757 0.72006
# Poissons Ratio (y) = 0.13786 0.13819
# Poissons Ratio (z) = 0.35437 0.26025
#
# Static dielectric constant tensor:
#      x y z
#    x 3.021070 0.000000 0.000000 
#    y 0.000000 3.866880 0.000000 
#    z 0.000000 0.000000 3.571070 
# 
# 
# High freq. dielectric constant tensor:
#      x y z
#    x 1.686940 0.000000 0.000000 
#    y 0.000000 1.748390 0.000000 
#    z 0.000000 0.000000 1.733130 
# 
# From -- ./inp_files/10946.got.cif
#   From: 2010.06.25/outbox.cif.g09.slc.cpg/sg71_6_cif.got.tgz:10946.got - 2010.06.28 04:59:45.
