data_PCOD8290093
_publ_section_title
;
Structure prediction by ZEFSAII (Michael W. Deem and Ramdas Pophale) SiO2 
 PCOD8290093
Probable space group: I M M M
;
_chemical_formula_sum "Si O2"
_cell_formula_units_Z 96
_cell_length_a 22.549909
_cell_length_b 27.382155
_cell_length_c 8.923750
_cell_angle_alpha 90.000000
_cell_angle_beta 90.000000
_cell_angle_gamma 90.000000
_cell_volume 5510.104217
_symmetry_space_group_name_H-M "I M M M"
_symmetry_group_IT_number 71
_symmetry_cell_setting 'orthorhombic'
loop_
_space_group_symop_operation_xyz
x,y,z
-x,-y,z
x,-y,-z
-x,y,-z
-x,-y,-z
x,y,-z
-x,y,z
x,-y,z
1/2+x,1/2+y,1/2+z
1/2-x,1/2-y,1/2+z
1/2+x,1/2-y,1/2-z
1/2-x,1/2+y,1/2-z
1/2-x,1/2-y,1/2-z
1/2+x,1/2+y,1/2-z
1/2-x,1/2+y,1/2+z
1/2+x,1/2-y,1/2+z
loop_
_atom_site_type_symbol
_atom_site_label
_atom_site_fract_x
_atom_site_fract_y
_atom_site_fract_z
Si Si1 0.805768 0.142518 0.326507
Si Si2 0.816330 0.690835 0.831813
Si Si3 0.625769 0.105878 0.175527
Si Si4 0.500000 0.872638 0.178928
Si Si5 0.385995 0.285540 0.327527
Si Si6 0.741878 0.055515 0.177393
Si Si7 0.500000 0.239173 0.178154
O O1 0.820775 0.135091 0.500000
O O2 0.752761 0.181165 0.300760
O O3 0.863629 0.163584 0.243441
O O4 0.789671 0.089907 0.257109
O O5 0.855507 0.660872 0.714190
O O6 0.831679 0.747435 0.811072
O O7 0.832460 0.673117 0.000000
O O8 0.558646 0.098530 0.238841
O O9 0.675141 0.068144 0.238248
O O10 0.623168 0.099846 0.000000
O O11 0.500000 0.816686 0.237405
O O12 0.500000 0.870958 0.000000
O O13 0.403237 0.294171 0.500000
O O14 0.442697 0.266798 0.239143
O O15 0.756338 0.000000 0.220833
O O16 0.745414 0.064333 0.000000
O O17 0.500000 0.241753 0.000000
#
# Coordination Sequence:
#
# PCOD8290093 Si02
#       7
#    16  16  16   8  16  16   8
#     4  10  20  33  50  73  98 128 164 205 252 302
#     4   9  18  30  45  68  98 129 164 203 246 292
#     4   9  16  28  46  67  94 130 171 209 249 295
#     4   9  16  27  44  67  94 130 174 211 243 282
#     4  11  21  33  48  71 102 134 167 204 245 293
#     4   9  18  33  52  73  97 126 162 209 263 310
#     4  11  21  33  49  70 100 140 176 208 240 284
#
# _framework density 17.422536999999998
#
# number of rings (size 3 to 8) (size 9 to 14) (size 15 to 20)
#    0.000    2.333    1.667    1.750    0.000    1.667 
#    0.000    0.833    0.000    2.500    0.000    0.583 
#    0.000   10.000    0.000    0.000    0.000    0.000 
#
# Total GULP energy -594949.690124 kJ/mol
# GULP energy per Si atom -12394.785211 kJ/mol
# Density = 1.738288 g / cm^3
# Si number density = 17.422537 Si / 1000 Ang^3
#
#
#
# Elastic Constant Matrix: (Units=GPa)
#
#
# Indices 1 2 3 4 5 6 
#
# 1 52.4908 33.9391 25.5536 0.0000 0.0000 0.0000
# 2 33.9391 89.8137 34.6523 0.0000 0.0000 0.0000
# 3 25.5536 34.6523 53.7682 0.0000 0.0000 0.0000
# 4 0.0000 0.0000 0.0000 21.9065 0.0000 0.0000
# 5 0.0000 0.0000 0.0000 0.0000 24.7015 0.0000
# 6 0.0000 0.0000 0.0000 0.0000 0.0000 16.6002
#
#
#
# Elastic Compliance Matrix: (Units=1/GPa)
#
#
# Indices 1 2 3 4 5 6 
#
# 1 0.027915 -0.007227 -0.008609 0.000000 0.000000 0.000000
# 2 -0.007227 0.016690 -0.007322 0.000000 0.000000 0.000000
# 3 -0.008609 -0.007322 0.027408 0.000000 0.000000 0.000000
# 4 0.000000 0.000000 0.000000 0.045649 0.000000 0.000000
# 5 0.000000 0.000000 0.000000 0.000000 0.040483 0.000000
# 6 0.000000 0.000000 0.000000 0.000000 0.000000 0.060240
#
#
# Mechanical properties :
#
#
# Convention : Reuss Voigt Hill
#
# Bulk Modulus (GPa) = 38.91363 42.70697 40.81030
# Shear Modulus (GPa) = 18.29717 19.43684 18.86701
#
# Velocity S-wave (km/s) = 3.24420 3.34371 3.29433
# Velocity P-wave (km/s) = 6.03463 6.28274 6.15994
#
# Compressibility (1/GPa) = 0.02569794
#
# Stress axis : x y z
#
# Youngs Moduli (GPa) = 35.82335 59.91632 36.48510
#
# Poissons Ratio (x) = 0.43301 0.31410
# Poissons Ratio (y) = 0.25889 0.26713
# Poissons Ratio (z) = 0.30841 0.43868
#
# Static dielectric constant tensor:
#      x y z
#    x 3.303000 0.000000 0.000000 
#    y 0.000000 3.005210 0.000000 
#    z 0.000000 0.000000 3.196750 
# 
# 
# High freq. dielectric constant tensor:
#      x y z
#    x 1.662880 0.000000 0.000000 
#    y 0.000000 1.643410 0.000000 
#    z 0.000000 0.000000 1.668680 
# 
# From -- ./inp_files/13178.got.cif
#   From: 2010.06.25/outbox.cif.g09.slc.cpg/sg71_7_cif.got.tgz:13178.got - 2010.06.28 04:59:45.
