data_PCOD8290201
_publ_section_title
;
Structure prediction by ZEFSAII (Michael W. Deem and Ramdas Pophale) SiO2 
 PCOD8290201
Probable space group: I M M M
;
_chemical_formula_sum "Si O2"
_cell_formula_units_Z 104
_cell_length_a 29.201258
_cell_length_b 8.951482
_cell_length_c 20.645265
_cell_angle_alpha 90.000000
_cell_angle_beta 90.000000
_cell_angle_gamma 90.000000
_cell_volume 5396.559452
_symmetry_space_group_name_H-M "I M M M"
_symmetry_group_IT_number 71
_symmetry_cell_setting 'orthorhombic'
loop_
_space_group_symop_operation_xyz
x,y,z
-x,-y,z
x,-y,-z
-x,y,-z
-x,-y,-z
x,y,-z
-x,y,z
x,-y,z
1/2+x,1/2+y,1/2+z
1/2-x,1/2-y,1/2+z
1/2+x,1/2-y,1/2-z
1/2-x,1/2+y,1/2-z
1/2-x,1/2-y,1/2-z
1/2+x,1/2+y,1/2-z
1/2-x,1/2+y,1/2+z
1/2+x,1/2-y,1/2+z
loop_
_atom_site_type_symbol
_atom_site_label
_atom_site_fract_x
_atom_site_fract_y
_atom_site_fract_z
Si Si1 0.053280 0.322601 0.500000
Si Si2 0.603184 0.325217 0.120647
Si Si3 0.792048 0.824721 0.173574
Si Si4 0.143639 0.326672 0.072659
Si Si5 0.553068 0.832248 0.768489
Si Si6 0.198501 0.175564 0.680005
Si Si7 0.049328 0.676308 0.123405
O O1 0.054145 0.500000 0.500000
O O2 0.080802 0.265826 0.437730
O O3 0.000000 0.266811 0.500000
O O4 0.599080 0.500000 0.105031
O O5 0.576630 0.288407 0.186013
O O6 0.656034 0.278586 0.133933
O O7 0.829003 0.774539 0.121798
O O8 0.808679 0.773018 0.245127
O O9 0.743772 0.753578 0.152802
O O10 0.786178 0.000000 0.170294
O O11 0.149029 0.500000 0.092316
O O12 0.090245 0.276712 0.075771
O O13 0.161310 0.298509 0.000000
O O14 0.500000 0.837424 0.786220
O O15 0.561157 0.770977 0.696125
O O16 0.573620 0.000000 0.777978
O O17 0.206391 0.000000 0.677288
O O18 0.043853 0.500000 0.125547
O O19 0.000000 0.744370 0.100645
#
# Coordination Sequence:
#
# PCOD8290201 Si02
#       7
#     8  16  16  16  16  16  16
#     4  11  25  43  59  77 109 151 191 229 270 327
#     4  11  22  36  56  82 109 140 177 223 278 329
#     4  10  20  36  59  84 109 141 180 222 269 327
#     4  10  20  33  51  77 109 147 184 220 268 315
#     4   9  17  30  50  76 106 140 177 220 269 317
#     4   9  20  38  59  84 111 136 171 223 280 328
#     4   8  15  29  50  77 107 140 183 229 266 309
#
# _framework density 19.271539000000001
#
# number of rings (size 3 to 8) (size 9 to 14) (size 15 to 20)
#    0.000    2.385    0.000    3.462    0.000    5.231 
#    1.385    1.538    0.000    1.385    0.000    1.077 
#    0.000    0.000    0.000    0.000    0.000    0.000 
#
# Total GULP energy -644619.429356 kJ/mol
# GULP energy per Si atom -12396.527488 kJ/mol
# Density = 1.922768 g / cm^3
# Si number density = 19.271539 Si / 1000 Ang^3
#
#
#
# Elastic Constant Matrix: (Units=GPa)
#
#
# Indices 1 2 3 4 5 6 
#
# 1 114.2055 34.1214 51.8539 0.0000 0.0000 0.0000
# 2 34.1214 34.3964 20.8073 0.0000 0.0000 0.0000
# 3 51.8539 20.8073 65.6047 0.0000 0.0000 0.0000
# 4 0.0000 0.0000 0.0000 21.2417 0.0000 0.0000
# 5 0.0000 0.0000 0.0000 0.0000 33.9165 0.0000
# 6 0.0000 0.0000 0.0000 0.0000 0.0000 26.0878
#
#
#
# Elastic Compliance Matrix: (Units=1/GPa)
#
#
# Indices 1 2 3 4 5 6 
#
# 1 0.016134 -0.010259 -0.009499 0.000000 0.000000 0.000000
# 2 -0.010259 0.042498 -0.005370 0.000000 0.000000 0.000000
# 3 -0.009499 -0.005370 0.024454 0.000000 0.000000 0.000000
# 4 0.000000 0.000000 0.000000 0.047077 0.000000 0.000000
# 5 0.000000 0.000000 0.000000 0.000000 0.029484 0.000000
# 6 0.000000 0.000000 0.000000 0.000000 0.000000 0.038332
#
#
# Mechanical properties :
#
#
# Convention : Reuss Voigt Hill
#
# Bulk Modulus (GPa) = 30.45934 47.53019 38.99477
# Shear Modulus (GPa) = 19.29173 23.41079 21.35126
#
# Velocity S-wave (km/s) = 3.16737 3.48916 3.33215
# Velocity P-wave (km/s) = 5.40518 6.39916 5.92306
#
# Compressibility (1/GPa) = 0.03283065
#
# Stress axis : x y z
#
# Youngs Moduli (GPa) = 61.98103 23.53030 40.89374
#
# Poissons Ratio (x) = 0.24140 0.38843
# Poissons Ratio (y) = 0.63587 0.21960
# Poissons Ratio (z) = 0.58873 0.12636
#
# Static dielectric constant tensor:
#      x y z
#    x 3.804960 0.000000 0.000000 
#    y 0.000000 3.328140 0.000000 
#    z 0.000000 0.000000 3.523760 
# 
# 
# High freq. dielectric constant tensor:
#      x y z
#    x 1.758790 0.000000 0.000000 
#    y 0.000000 1.728400 0.000000 
#    z 0.000000 0.000000 1.742810 
# 
# From -- ./inp_files/50912.got.cif
#   From: 2010.06.25/outbox.cif.g09.slc.cpg/sg71_26_cif.got.tgz:50912.got - 2010.06.28 04:59:45.
