data_PCOD8290567
_publ_section_title
;
Structure prediction by ZEFSAII (Michael W. Deem and Ramdas Pophale) SiO2 
 PCOD8290567
Probable space group: I M M M
;
_chemical_formula_sum "Si O2"
_cell_formula_units_Z 88
_cell_length_a 9.139382
_cell_length_b 19.085361
_cell_length_c 27.093616
_cell_angle_alpha 90.000000
_cell_angle_beta 90.000000
_cell_angle_gamma 90.000000
_cell_volume 4725.896219
_symmetry_space_group_name_H-M "I M M M"
_symmetry_group_IT_number 71
_symmetry_cell_setting 'orthorhombic'
loop_
_space_group_symop_operation_xyz
x,y,z
-x,-y,z
x,-y,-z
-x,y,-z
-x,-y,-z
x,y,-z
-x,y,z
x,-y,z
1/2+x,1/2+y,1/2+z
1/2-x,1/2-y,1/2+z
1/2+x,1/2-y,1/2-z
1/2-x,1/2+y,1/2-z
1/2-x,1/2-y,1/2-z
1/2+x,1/2+y,1/2-z
1/2-x,1/2+y,1/2+z
1/2+x,1/2-y,1/2+z
loop_
_atom_site_type_symbol
_atom_site_label
_atom_site_fract_x
_atom_site_fract_y
_atom_site_fract_z
Si Si1 0.664368 0.136236 0.417410
Si Si2 0.170693 0.274604 0.444453
Si Si3 0.670347 0.421231 0.733522
Si Si4 0.659684 0.500000 0.056897
Si Si5 0.162421 0.321650 0.192701
Si Si6 0.670635 0.678057 0.351974
O O1 0.500000 0.135509 0.439342
O O2 0.751863 0.199860 0.441525
O O3 0.658368 0.138922 0.358840
O O4 0.747182 0.066450 0.429544
O O5 0.193289 0.305040 0.500000
O O6 0.241098 0.326292 0.403502
O O7 0.000000 0.265283 0.432588
O O8 0.500000 0.423463 0.745408
O O9 0.736955 0.500000 0.738104
O O10 0.737741 0.366297 0.771220
O O11 0.697158 0.393842 0.677668
O O12 0.500000 0.500000 0.083943
O O13 0.627740 0.500000 0.000000
O O14 0.224489 0.242966 0.182781
O O15 0.000000 0.317318 0.215955
O O16 0.500000 0.690827 0.364883
#
# Coordination Sequence:
#
# PCOD8290567 Si02
#       6
#    16  16  16   8  16  16
#     4  10  21  35  51  73 102 137 178 219 261 314
#     4  10  20  34  54  80 105 129 167 218 266 314
#     4  10  21  35  53  79 108 138 174 217 265 315
#     4  11  23  35  47  67  99 139 181 225 270 311
#     4   9  19  34  52  75 102 136 176 216 257 307
#     4   9  19  36  55  77 106 139 176 216 259 313
#
# _framework density 18.620806999999999
#
# number of rings (size 3 to 8) (size 9 to 14) (size 15 to 20)
#    0.000    2.273    0.000    3.545    1.273    9.091 
#    0.000    0.000    0.000    0.545    0.000    3.818 
#    0.000    0.000    0.000    0.000    0.000    0.000 
#
# Total GULP energy -545439.627354 kJ/mol
# GULP energy per Si atom -12396.355167 kJ/mol
# Density = 1.857842 g / cm^3
# Si number density = 18.620807 Si / 1000 Ang^3
#
#
#
# Elastic Constant Matrix: (Units=GPa)
#
#
# Indices 1 2 3 4 5 6 
#
# 1 98.1141 30.0501 45.5449 0.0000 0.0000 0.0000
# 2 30.0501 57.6824 39.2673 0.0000 0.0000 0.0000
# 3 45.5449 39.2673 86.7797 0.0000 0.0000 0.0000
# 4 0.0000 0.0000 0.0000 -8.1441 0.0000 0.0000
# 5 0.0000 0.0000 0.0000 0.0000 33.1184 0.0000
# 6 0.0000 0.0000 0.0000 0.0000 0.0000 17.9664
#
#
#
# Elastic Compliance Matrix: (Units=1/GPa)
#
#
# Indices 1 2 3 4 5 6 
#
# 1 0.013893 -0.003286 -0.005805 0.000000 0.000000 0.000000
# 2 -0.003286 0.025831 -0.009964 0.000000 0.000000 0.000000
# 3 -0.005805 -0.009964 0.019078 0.000000 0.000000 0.000000
# 4 0.000000 0.000000 0.000000 -0.122788 0.000000 0.000000
# 5 0.000000 0.000000 0.000000 0.000000 0.030195 0.000000
# 6 0.000000 0.000000 0.000000 0.000000 0.000000 0.055659
#
#
# Mechanical properties :
#
#
# Convention : Reuss Voigt Hill
#
# Bulk Modulus (GPa) = 48.32414 52.47786 50.40100
# Shear Modulus (GPa) = 74.76503 17.10239 45.93371
#
# Velocity S-wave (km/s) = 6.34338 3.03389 4.97207
# Velocity P-wave (km/s) = 8.92521 6.36524 7.75163
#
# Compressibility (1/GPa) = 0.02069359
#
# Stress axis : x y z
#
# Youngs Moduli (GPa) = 71.97737 38.71296 52.41534
#
# Poissons Ratio (x) = 0.12722 0.30425
# Poissons Ratio (y) = 0.23654 0.52225
# Poissons Ratio (z) = 0.41780 0.38572
#
# Static dielectric constant tensor:
#      x y z
#    x 3.636090 0.000000 0.000000 
#    y 0.000000 3.113850 0.000000 
#    z 0.000000 0.000000 3.473810 
# 
# 
# High freq. dielectric constant tensor:
#      x y z
#    x 1.729080 0.000000 0.000000 
#    y 0.000000 1.701980 0.000000 
#    z 0.000000 0.000000 1.722860 
# 
# From -- ./inp_files/10938.got.cif
#   From: 2010.06.25/outbox.cif.g09.slc.cpg/sg71_6_cif.got.tgz:10938.got - 2010.06.28 04:59:45.
