data_PCOD8290248
_publ_section_title
;
Structure prediction by ZEFSAII (Michael W. Deem and Ramdas Pophale) SiO2 
 PCOD8290248
Probable space group: I M M M
;
_chemical_formula_sum "Si O2"
_cell_formula_units_Z 80
_cell_length_a 9.538834
_cell_length_b 18.237716
_cell_length_c 25.284151
_cell_angle_alpha 90.000000
_cell_angle_beta 90.000000
_cell_angle_gamma 90.000000
_cell_volume 4398.596404
_symmetry_space_group_name_H-M "I M M M"
_symmetry_group_IT_number 71
_symmetry_cell_setting 'orthorhombic'
loop_
_space_group_symop_operation_xyz
x,y,z
-x,-y,z
x,-y,-z
-x,y,-z
-x,-y,-z
x,y,-z
-x,y,z
x,-y,z
1/2+x,1/2+y,1/2+z
1/2-x,1/2-y,1/2+z
1/2+x,1/2-y,1/2-z
1/2-x,1/2+y,1/2-z
1/2-x,1/2-y,1/2-z
1/2+x,1/2+y,1/2-z
1/2-x,1/2+y,1/2+z
1/2+x,1/2-y,1/2+z
loop_
_atom_site_type_symbol
_atom_site_label
_atom_site_fract_x
_atom_site_fract_y
_atom_site_fract_z
Si Si1 0.666403 0.417766 0.441696
Si Si2 0.837852 0.585248 0.254390
Si Si3 0.837756 0.337647 0.146453
Si Si4 0.838148 0.083417 0.560836
Si Si5 0.165188 0.170084 0.841330
O O1 0.721766 0.393550 0.500000
O O2 0.500000 0.417086 0.442268
O O3 0.720038 0.500000 0.428714
O O4 0.722185 0.362429 0.396971
O O5 0.802693 0.500000 0.260152
O O6 0.800508 0.609601 0.195078
O O7 0.741862 0.630048 0.293867
O O8 0.000000 0.602129 0.266956
O O9 0.751826 0.361402 0.095459
O O10 0.795627 0.255155 0.161565
O O11 0.000000 0.342386 0.130981
O O12 0.813160 0.104391 0.500000
O O13 0.000000 0.092591 0.576116
O O14 0.789734 0.000000 0.571273
O O15 0.000000 0.156450 0.834814
#
# Coordination Sequence:
#
# PCOD8290248 Si02
#       5
#    16  16  16  16  16
#     4   8  14  26  45  69  97 127 159 200 248 293
#     4  10  21  36  52  71 100 137 173 212 262 316
#     4  10  21  35  52  77 107 137 170 212 263 314
#     4   9  19  36  56  78 105 138 177 218 257 300
#     4  10  20  33  52  78 103 130 170 215 256 306
#
# _framework density 18.187619000000002
#
# number of rings (size 3 to 8) (size 9 to 14) (size 15 to 20)
#    0.000    2.600    0.000    3.000    0.000    5.200 
#    0.000    3.000    0.000    0.600    0.000    2.800 
#    0.000    0.000    0.000    0.000    0.000    0.000 
#
# Total GULP energy -496013.998764 kJ/mol
# GULP energy per Si atom -12400.349969 kJ/mol
# Density = 1.814622 g / cm^3
# Si number density = 18.187619 Si / 1000 Ang^3
#
#
#
# Elastic Constant Matrix: (Units=GPa)
#
#
# Indices 1 2 3 4 5 6 
#
# 1 51.9520 52.7322 54.1421 0.0000 0.0000 0.0000
# 2 52.7322 106.7828 58.3167 0.0000 0.0000 0.0000
# 3 54.1421 58.3167 99.0972 0.0000 0.0000 0.0000
# 4 0.0000 0.0000 0.0000 22.5206 0.0000 0.0000
# 5 0.0000 0.0000 0.0000 0.0000 31.1257 0.0000
# 6 0.0000 0.0000 0.0000 0.0000 0.0000 15.5434
#
#
#
# Elastic Compliance Matrix: (Units=1/GPa)
#
#
# Indices 1 2 3 4 5 6 
#
# 1 0.061123 -0.017604 -0.023035 0.000000 0.000000 0.000000
# 2 -0.017604 0.018870 -0.001486 0.000000 0.000000 0.000000
# 3 -0.023035 -0.001486 0.023551 0.000000 0.000000 0.000000
# 4 0.000000 0.000000 0.000000 0.044404 0.000000 0.000000
# 5 0.000000 0.000000 0.000000 0.000000 0.032128 0.000000
# 6 0.000000 0.000000 0.000000 0.000000 0.000000 0.064336
#
#
# Mechanical properties :
#
#
# Convention : Reuss Voigt Hill
#
# Bulk Modulus (GPa) = 51.83293 65.35710 58.59502
# Shear Modulus (GPa) = 14.92112 20.01400 17.46756
#
# Velocity S-wave (km/s) = 2.86737 3.32086 3.10241
# Velocity P-wave (km/s) = 6.28676 7.12159 6.71716
#
# Compressibility (1/GPa) = 0.01929275
#
# Stress axis : x y z
#
# Youngs Moduli (GPa) = 16.36032 52.99393 42.46064
#
# Poissons Ratio (x) = 0.93292 0.97809
# Poissons Ratio (y) = 0.28801 0.06312
# Poissons Ratio (z) = 0.37686 0.07877
#
# Static dielectric constant tensor:
#      x y z
#    x 3.085050 0.000000 0.000000 
#    y 0.000000 3.460330 0.000000 
#    z 0.000000 0.000000 3.510280 
# 
# 
# High freq. dielectric constant tensor:
#      x y z
#    x 1.676440 0.000000 0.000000 
#    y 0.000000 1.711420 0.000000 
#    z 0.000000 0.000000 1.715710 
# 
# From -- ./inp_files/8296.got.cif
#   From: 2010.06.25/outbox.cif.g09.slc.cpg/sg71_5_cif.got.tgz:8296.got - 2010.06.28 04:59:45.
