data_PCOD8290572
_publ_section_title
;
Structure prediction by ZEFSAII (Michael W. Deem and Ramdas Pophale) SiO2 
 PCOD8290572
Probable space group: I M M M
;
_chemical_formula_sum "Si O2"
_cell_formula_units_Z 56
_cell_length_a 8.913796
_cell_length_b 9.342101
_cell_length_c 36.063744
_cell_angle_alpha 90.000000
_cell_angle_beta 90.000000
_cell_angle_gamma 90.000000
_cell_volume 3003.157162
_symmetry_space_group_name_H-M "I M M M"
_symmetry_group_IT_number 71
_symmetry_cell_setting 'orthorhombic'
loop_
_space_group_symop_operation_xyz
x,y,z
-x,-y,z
x,-y,-z
-x,y,-z
-x,-y,-z
x,y,-z
-x,y,z
x,-y,z
1/2+x,1/2+y,1/2+z
1/2-x,1/2-y,1/2+z
1/2+x,1/2-y,1/2-z
1/2-x,1/2+y,1/2-z
1/2-x,1/2-y,1/2-z
1/2+x,1/2+y,1/2-z
1/2-x,1/2+y,1/2+z
1/2+x,1/2-y,1/2+z
loop_
_atom_site_type_symbol
_atom_site_label
_atom_site_fract_x
_atom_site_fract_y
_atom_site_fract_z
Si Si1 0.673853 0.167052 0.283171
Si Si2 0.672511 0.330504 0.425554
Si Si3 0.675882 0.334963 0.859383
Si Si4 0.330750 0.829887 0.000000
O O1 0.500000 0.206981 0.284756
O O2 0.750000 0.250000 0.250000
O O3 0.747949 0.217396 0.321496
O O4 0.701105 0.000000 0.276545
O O5 0.500000 0.282507 0.424432
O O6 0.689236 0.500000 0.422104
O O7 0.761532 0.260255 0.392224
O O8 0.744016 0.273562 0.463810
O O9 0.500000 0.309601 0.855643
O O10 0.715258 0.500000 0.867451
O O11 0.500000 0.768693 0.000000
O O12 0.332754 0.000000 0.000000
#
# Coordination Sequence:
#
# PCOD8290572 Si02
#       4
#    16  16  16   8
#     4  10  21  37  57  80 106 138 175 215 261 312
#     4  10  20  34  54  80 108 139 176 217 261 311
#     4  10  21  37  56  78 106 140 176 216 263 312
#     4   9  17  31  52  77 106 139 174 216 264 309
#
# _framework density 18.647043
#
# number of rings (size 3 to 8) (size 9 to 14) (size 15 to 20)
#    0.000    2.143    0.000    3.000    0.000    8.000 
#    0.000    0.714    0.000    4.286    0.000    0.000 
#    0.000    0.000    0.000    0.000    0.000    0.000 
#
# Total GULP energy -347311.498993 kJ/mol
# GULP energy per Si atom -12403.982107 kJ/mol
# Density = 1.860460 g / cm^3
# Si number density = 18.647043 Si / 1000 Ang^3
#
#
#
# Elastic Constant Matrix: (Units=GPa)
#
#
# Indices 1 2 3 4 5 6 
#
# 1 120.9061 33.9430 74.4475 0.0000 0.0000 0.0000
# 2 33.9430 30.3824 45.1477 0.0000 0.0000 0.0000
# 3 74.4475 45.1477 175.3521 0.0000 0.0000 0.0000
# 4 0.0000 0.0000 0.0000 26.8084 0.0000 0.0000
# 5 0.0000 0.0000 0.0000 0.0000 46.4254 0.0000
# 6 0.0000 0.0000 0.0000 0.0000 0.0000 28.7520
#
#
#
# Elastic Compliance Matrix: (Units=1/GPa)
#
#
# Indices 1 2 3 4 5 6 
#
# 1 0.012876 -0.010142 -0.002856 0.000000 0.000000 0.000000
# 2 -0.010142 0.061298 -0.011476 0.000000 0.000000 0.000000
# 3 -0.002856 -0.011476 0.009870 0.000000 0.000000 0.000000
# 4 0.000000 0.000000 0.000000 0.037302 0.000000 0.000000
# 5 0.000000 0.000000 0.000000 0.000000 0.021540 0.000000
# 6 0.000000 0.000000 0.000000 0.000000 0.000000 0.034780
#
#
# Mechanical properties :
#
#
# Convention : Reuss Voigt Hill
#
# Bulk Modulus (GPa) = 28.49295 70.41300 49.45297
# Shear Modulus (GPa) = 20.98074 31.93732 26.45903
#
# Velocity S-wave (km/s) = 3.35797 4.14300 3.77097
# Velocity P-wave (km/s) = 5.50889 7.79287 6.74821
#
# Compressibility (1/GPa) = 0.03509640
#
# Stress axis : x y z
#
# Youngs Moduli (GPa) = 77.66101 16.31366 101.31728
#
# Poissons Ratio (x) = 0.16546 0.28931
# Poissons Ratio (y) = 0.78766 1.16276
# Poissons Ratio (z) = 0.22176 0.18722
#
# Static dielectric constant tensor:
#      x y z
#    x 3.704700 0.000000 0.000000 
#    y 0.000000 3.184180 0.000000 
#    z 0.000000 0.000000 3.598010 
# 
# 
# High freq. dielectric constant tensor:
#      x y z
#    x 1.746160 0.000000 0.000000 
#    y 0.000000 1.697990 0.000000 
#    z 0.000000 0.000000 1.740630 
# 
# From -- ./inp_files/3307.got.cif
#   From: 2010.06.25/outbox.cif.g09.slc.cpg/sg71_2_cif.got.tgz:3307.got - 2010.06.28 04:59:45.
