data_PCOD8290668
_publ_section_title
;
Structure prediction by ZEFSAII (Michael W. Deem and Ramdas Pophale) SiO2 
 PCOD8290668
Probable space group: I M M M
;
_chemical_formula_sum "Si O2"
_cell_formula_units_Z 56
_cell_length_a 7.921463
_cell_length_b 38.721836
_cell_length_c 9.676583
_cell_angle_alpha 90.000000
_cell_angle_beta 90.000000
_cell_angle_gamma 90.000000
_cell_volume 2968.133054
_symmetry_space_group_name_H-M "I M M M"
_symmetry_group_IT_number 71
_symmetry_cell_setting 'orthorhombic'
loop_
_space_group_symop_operation_xyz
x,y,z
-x,-y,z
x,-y,-z
-x,y,-z
-x,-y,-z
x,y,-z
-x,y,z
x,-y,z
1/2+x,1/2+y,1/2+z
1/2-x,1/2-y,1/2+z
1/2+x,1/2-y,1/2-z
1/2-x,1/2+y,1/2-z
1/2-x,1/2-y,1/2-z
1/2+x,1/2+y,1/2-z
1/2-x,1/2+y,1/2+z
1/2+x,1/2-y,1/2+z
loop_
_atom_site_type_symbol
_atom_site_label
_atom_site_fract_x
_atom_site_fract_y
_atom_site_fract_z
Si Si1 0.000000 0.538533 0.836033
Si Si2 0.803093 0.218519 0.843991
Si Si3 0.188966 0.084500 0.340588
Si Si4 0.693061 0.144234 0.158095
O O1 0.170450 0.557671 0.784517
O O2 0.000000 0.500000 0.772400
O O3 0.000000 0.536411 0.000000
O O4 0.750000 0.250000 0.750000
O O5 0.711733 0.183745 0.791994
O O6 0.000000 0.211716 0.833967
O O7 0.746633 0.227275 0.000000
O O8 0.226249 0.093615 0.500000
O O9 0.195506 0.119721 0.254151
O O10 0.000000 0.068654 0.323988
O O11 0.500000 0.132710 0.172735
O O12 0.756592 0.140857 0.000000
#
# Coordination Sequence:
#
# PCOD8290668 Si02
#       4
#     8  16  16  16
#     4   9  18  34  55  81 115 147 177 223 275 323
#     4  10  21  36  53  75 103 137 178 223 272 324
#     4  10  20  34  55  83 111 142 182 224 269 322
#     4  10  20  35  56  79 105 141 181 223 273 325
#
# _framework density 18.867079
#
# number of rings (size 3 to 8) (size 9 to 14) (size 15 to 20)
#    0.000    2.143    1.429    1.714    0.000    5.143 
#    0.000    2.857    0.000    1.714    0.000    2.000 
#    0.000    0.000    0.000    0.000    0.000    0.000 
#
# Total GULP energy -347222.397349 kJ/mol
# GULP energy per Si atom -12400.799905 kJ/mol
# Density = 1.882414 g / cm^3
# Si number density = 18.867079 Si / 1000 Ang^3
#
#
#
# Elastic Constant Matrix: (Units=GPa)
#
#
# Indices 1 2 3 4 5 6 
#
# 1 110.7080 52.7408 31.8188 0.0004 -0.0006 0.0003
# 2 52.7408 134.3169 56.1693 -0.0028 0.0002 -0.0002
# 3 31.8188 56.1693 56.1954 -0.0101 0.0020 -0.0011
# 4 0.0004 -0.0028 -0.0101 23.7617 -0.0004 0.0001
# 5 -0.0006 0.0002 0.0020 -0.0004 22.6793 -0.0008
# 6 0.0003 -0.0002 -0.0011 0.0001 -0.0008 28.3290
#
#
#
# Elastic Compliance Matrix: (Units=1/GPa)
#
#
# Indices 1 2 3 4 5 6 
#
# 1 0.011483 -0.003075 -0.003428 -0.000002 0.000001 0.000000
# 2 -0.003075 0.013616 -0.011868 -0.000003 0.000001 0.000000
# 3 -0.003428 -0.011868 0.031599 0.000012 -0.000003 0.000001
# 4 -0.000002 -0.000003 0.000012 0.042084 0.000001 0.000000
# 5 0.000001 0.000001 -0.000003 0.000001 0.044093 0.000001
# 6 0.000000 0.000000 0.000001 0.000000 0.000001 0.035299
#
#
# Mechanical properties :
#
#
# Convention : Reuss Voigt Hill
#
# Bulk Modulus (GPa) = 50.11380 64.74200 57.42790
# Shear Modulus (GPa) = 22.56636 25.65344 24.10990
#
# Velocity S-wave (km/s) = 3.46218 3.69140 3.57863
# Velocity P-wave (km/s) = 6.52697 7.24968 6.89780
#
# Compressibility (1/GPa) = 0.01995458
#
# Stress axis : x y z
#
# Youngs Moduli (GPa) = 87.08428 73.44459 31.64703
#
# Poissons Ratio (x) = 0.22587 0.10848
# Poissons Ratio (y) = 0.26782 0.37559
# Poissons Ratio (z) = 0.29852 0.87164
#
# Static dielectric constant tensor:
#      x y z
#    x 3.654200 0.000000 0.000000 
#    y 0.000000 2.886190 0.000050 
#    z 0.000000 0.000050 3.203250 
# 
# 
# High freq. dielectric constant tensor:
#      x y z
#    x 1.749810 0.000000 0.000000 
#    y 0.000000 1.725070 0.000000 
#    z 0.000000 0.000000 1.708760 
# 
# From -- ./inp_files/3556.got.cif
#   From: 2010.06.25/outbox.cif.g09.slc.cpg/sg71_2_cif.got.tgz:3556.got - 2010.06.28 04:59:45.
