data_PCOD8290648
_publ_section_title
;
Structure prediction by ZEFSAII (Michael W. Deem and Ramdas Pophale) SiO2 
 PCOD8290648
Probable space group: I M M M
;
_chemical_formula_sum "Si O2"
_cell_formula_units_Z 112
_cell_length_a 17.343638
_cell_length_b 15.221319
_cell_length_c 22.335593
_cell_angle_alpha 90.000000
_cell_angle_beta 90.000000
_cell_angle_gamma 90.000000
_cell_volume 5896.441244
_symmetry_space_group_name_H-M "I M M M"
_symmetry_group_IT_number 71
_symmetry_cell_setting 'orthorhombic'
loop_
_space_group_symop_operation_xyz
x,y,z
-x,-y,z
x,-y,-z
-x,y,-z
-x,-y,-z
x,y,-z
-x,y,z
x,-y,z
1/2+x,1/2+y,1/2+z
1/2-x,1/2-y,1/2+z
1/2+x,1/2-y,1/2-z
1/2-x,1/2+y,1/2-z
1/2-x,1/2-y,1/2-z
1/2+x,1/2+y,1/2-z
1/2-x,1/2+y,1/2+z
1/2+x,1/2-y,1/2+z
loop_
_atom_site_type_symbol
_atom_site_label
_atom_site_fract_x
_atom_site_fract_y
_atom_site_fract_z
Si Si1 0.085792 0.397574 0.932227
Si Si2 0.911337 0.401468 0.664340
Si Si3 0.300964 0.786258 0.645709
Si Si4 0.588634 0.742895 0.251937
Si Si5 0.665364 0.402472 0.818586
Si Si6 0.588869 0.639507 0.933633
Si Si7 0.680866 0.814260 0.068287
O O1 0.103026 0.500000 0.928915
O O2 0.149316 0.350813 0.893839
O O3 0.000000 0.377338 0.907297
O O4 0.092199 0.363786 0.000000
O O5 0.899827 0.500000 0.690730
O O6 0.886857 0.328809 0.713501
O O7 0.857042 0.393697 0.605687
O O8 0.000000 0.386564 0.645530
O O9 0.356764 0.734170 0.690400
O O10 0.243334 0.845890 0.685034
O O11 0.258035 0.717887 0.602129
O O12 0.500000 0.750455 0.272160
O O13 0.599153 0.652944 0.214906
O O14 0.676431 0.500000 0.790417
O O15 0.639308 0.416458 0.887399
O O16 0.500000 0.635581 0.914905
O O17 0.615915 0.739740 0.931600
O O18 0.601576 0.599937 0.000000
O O19 0.700991 0.843070 0.000000
#
# Coordination Sequence:
#
# PCOD8290648 Si02
#       7
#    16  16  16  16  16  16  16
#     4   9  18  33  54  82 115 149 188 233 277 327
#     4  10  21  37  58  84 114 151 195 239 284 339
#     4  11  21  37  56  81 111 151 189 233 280 339
#     4  11  23  41  59  81 113 151 195 236 278 338
#     4  11  23  36  55  82 114 149 185 230 283 336
#     4   9  17  31  52  76 107 147 186 222 265 325
#     4  10  20  34  55  81 112 145 184 235 290 339
#
# _framework density 18.994508
#
# number of rings (size 3 to 8) (size 9 to 14) (size 15 to 20)
#    0.000    1.857    2.857    3.000    0.000    4.286 
#    0.000    2.857    0.000    0.000    0.000    0.000 
#    0.000    0.000    0.000    8.286    0.000    0.000 
#
# Total GULP energy -694314.131598 kJ/mol
# GULP energy per Si atom -12398.466636 kJ/mol
# Density = 1.895128 g / cm^3
# Si number density = 18.994508 Si / 1000 Ang^3
#
#
#
# Elastic Constant Matrix: (Units=GPa)
#
#
# Indices 1 2 3 4 5 6 
#
# 1 87.9854 14.6922 39.7558 0.0000 0.0000 0.0000
# 2 14.6922 65.7301 18.9122 0.0000 0.0000 0.0000
# 3 39.7558 18.9122 77.6038 0.0000 0.0000 0.0000
# 4 0.0000 0.0000 0.0000 13.3346 0.0000 0.0000
# 5 0.0000 0.0000 0.0000 0.0000 39.5662 0.0000
# 6 0.0000 0.0000 0.0000 0.0000 0.0000 23.4022
#
#
#
# Elastic Compliance Matrix: (Units=1/GPa)
#
#
# Indices 1 2 3 4 5 6 
#
# 1 0.014879 -0.001218 -0.007326 0.000000 0.000000 0.000000
# 2 -0.001218 0.016461 -0.003387 0.000000 0.000000 0.000000
# 3 -0.007326 -0.003387 0.017464 0.000000 0.000000 0.000000
# 4 0.000000 0.000000 0.000000 0.074993 0.000000 0.000000
# 5 0.000000 0.000000 0.000000 0.000000 0.025274 0.000000
# 6 0.000000 0.000000 0.000000 0.000000 0.000000 0.042731
#
#
# Mechanical properties :
#
#
# Convention : Reuss Voigt Hill
#
# Bulk Modulus (GPa) = 40.09338 42.00441 41.04889
# Shear Modulus (GPa) = 22.32366 25.79122 24.05744
#
# Velocity S-wave (km/s) = 3.43194 3.68887 3.56272
# Velocity P-wave (km/s) = 6.07108 6.34867 6.21143
#
# Compressibility (1/GPa) = 0.02494177
#
# Stress axis : x y z
#
# Youngs Moduli (GPa) = 67.20920 60.75096 57.25970
#
# Poissons Ratio (x) = 0.07400 0.41946
# Poissons Ratio (y) = 0.08186 0.19397
# Poissons Ratio (z) = 0.49234 0.20579
#
# Static dielectric constant tensor:
#      x y z
#    x 3.517500 0.000000 0.000000 
#    y 0.000000 3.246110 0.000000 
#    z 0.000000 0.000000 3.609690 
# 
# 
# High freq. dielectric constant tensor:
#      x y z
#    x 1.742500 0.000000 0.000000 
#    y 0.000000 1.715580 0.000000 
#    z 0.000000 0.000000 1.731980 
# 
# From -- ./inp_files/34861.got.cif
#   From: 2010.06.25/outbox.cif.g09.slc.cpg/sg71_18_cif.got.tgz:34861.got - 2010.06.28 04:59:45.
