data_PCOD8290485
_publ_section_title
;
Structure prediction by ZEFSAII (Michael W. Deem and Ramdas Pophale) SiO2 
 PCOD8290485
Probable space group: I M M M
;
_chemical_formula_sum "Si O2"
_cell_formula_units_Z 112
_cell_length_a 14.153235
_cell_length_b 31.740913
_cell_length_c 14.148384
_cell_angle_alpha 90.000000
_cell_angle_beta 90.000000
_cell_angle_gamma 90.000000
_cell_volume 6355.971935
_symmetry_space_group_name_H-M "I M M M"
_symmetry_group_IT_number 71
_symmetry_cell_setting 'orthorhombic'
loop_
_space_group_symop_operation_xyz
x,y,z
-x,-y,z
x,-y,-z
-x,y,-z
-x,-y,-z
x,y,-z
-x,y,z
x,-y,z
1/2+x,1/2+y,1/2+z
1/2-x,1/2-y,1/2+z
1/2+x,1/2-y,1/2-z
1/2-x,1/2+y,1/2-z
1/2-x,1/2-y,1/2-z
1/2+x,1/2+y,1/2-z
1/2-x,1/2+y,1/2+z
1/2+x,1/2-y,1/2+z
loop_
_atom_site_type_symbol
_atom_site_label
_atom_site_fract_x
_atom_site_fract_y
_atom_site_fract_z
Si Si1 0.895594 0.911683 0.393250
Si Si2 0.720686 0.199623 0.608916
Si Si3 0.894818 0.334691 0.605750
Si Si4 0.392170 0.327191 0.215227
Si Si5 0.200196 0.794312 0.106463
Si Si6 0.205035 0.452639 0.891390
Si Si7 0.892448 0.624277 0.204665
O O1 0.887508 0.893015 0.500000
O O2 0.876348 0.874998 0.317945
O O3 0.817899 0.947732 0.377903
O O4 0.000000 0.931233 0.377340
O O5 0.728463 0.187408 0.500000
O O6 0.825630 0.202557 0.652450
O O7 0.674128 0.245404 0.623906
O O8 0.659745 0.164054 0.659409
O O9 0.884675 0.353843 0.500000
O O10 0.812969 0.300168 0.623666
O O11 0.883576 0.372390 0.681624
O O12 0.000000 0.314010 0.618033
O O13 0.500000 0.312815 0.201523
O O14 0.361668 0.323541 0.324801
O O15 0.173133 0.807547 0.000000
O O16 0.177441 0.500000 0.861365
O O17 0.150656 0.420136 0.825356
O O18 0.176438 0.444139 0.000000
O O19 0.000000 0.625843 0.169925
#
# Coordination Sequence:
#
# PCOD8290485 Si02
#       7
#    16  16  16  16  16  16  16
#     4   9  17  31  52  77 104 136 172 208 252 306
#     4  11  22  36  52  73 103 140 181 217 258 306
#     4   9  18  34  57  81 103 133 175 219 262 307
#     4  11  21  33  52  75 103 137 175 216 259 304
#     4  10  21  36  52  73 105 139 177 224 263 302
#     4  10  20  34  53  77 106 136 168 210 256 310
#     4  11  22  36  56  76 101 137 173 213 263 315
#
# _framework density 17.621224000000002
#
# number of rings (size 3 to 8) (size 9 to 14) (size 15 to 20)
#    0.000    1.857    2.857    1.286    0.000    4.000 
#    0.000    5.000    0.000    0.429    0.000    2.000 
#    0.000    0.000    0.000   12.286    0.000    0.286 
#
# Total GULP energy -694179.564618 kJ/mol
# GULP energy per Si atom -12396.063654 kJ/mol
# Density = 1.758112 g / cm^3
# Si number density = 17.621224 Si / 1000 Ang^3
#
#
#
# Elastic Constant Matrix: (Units=GPa)
#
#
# Indices 1 2 3 4 5 6 
#
# 1 98.3460 40.7257 44.6050 0.0006 0.0000 -0.0004
# 2 40.7257 90.7143 51.7938 -0.0022 0.0008 0.0004
# 3 44.6050 51.7938 104.3936 -0.0212 0.0076 0.0027
# 4 0.0006 -0.0022 -0.0212 18.8308 0.0034 0.0019
# 5 0.0000 0.0008 0.0076 0.0034 26.5583 0.0000
# 6 -0.0004 0.0004 0.0027 0.0019 0.0000 14.7878
#
#
#
# Elastic Compliance Matrix: (Units=1/GPa)
#
#
# Indices 1 2 3 4 5 6 
#
# 1 0.013519 -0.003867 -0.003858 -0.000005 0.000001 0.000001
# 2 -0.003867 0.016486 -0.006527 -0.000005 0.000001 0.000001
# 3 -0.003858 -0.006527 0.014466 0.000016 -0.000004 -0.000003
# 4 -0.000005 -0.000005 0.000016 0.053105 -0.000007 -0.000007
# 5 0.000001 0.000001 -0.000004 -0.000007 0.037653 0.000000
# 6 0.000001 0.000001 -0.000003 -0.000007 0.000000 0.067623
#
#
# Mechanical properties :
#
#
# Convention : Reuss Voigt Hill
#
# Bulk Modulus (GPa) = 62.62723 63.07808 62.85266
# Shear Modulus (GPa) = 21.12563 22.45734 21.79148
#
# Velocity S-wave (km/s) = 3.46623 3.57381 3.52043
# Velocity P-wave (km/s) = 7.18593 7.27351 7.22985
#
# Compressibility (1/GPa) = 0.01596749
#
# Stress axis : x y z
#
# Youngs Moduli (GPa) = 73.96895 60.65610 69.12699
#
# Poissons Ratio (x) = 0.23453 0.26670
# Poissons Ratio (y) = 0.28601 0.45122
# Poissons Ratio (z) = 0.28538 0.39593
#
# Static dielectric constant tensor:
#      x y z
#    x 3.485580 0.000000 0.000000 
#    y 0.000000 2.946320 0.000000 
#    z 0.000000 0.000000 3.461740 
# 
# 
# High freq. dielectric constant tensor:
#      x y z
#    x 1.692840 0.000000 0.000000 
#    y 0.000000 1.646120 0.000000 
#    z 0.000000 0.000000 1.683490 
# 
# From -- ./inp_files/35330.got.cif
#   From: 2010.06.25/outbox.cif.g09.slc.cpg/sg71_18_cif.got.tgz:35330.got - 2010.06.28 04:59:45.
