data_PCOD8290165
_publ_section_title
;
Structure prediction by ZEFSAII (Michael W. Deem and Ramdas Pophale) SiO2 
 PCOD8290165
Probable space group: I M M M
;
_chemical_formula_sum "Si O2"
_cell_formula_units_Z 80
_cell_length_a 7.676430
_cell_length_b 19.544716
_cell_length_c 29.071391
_cell_angle_alpha 90.000000
_cell_angle_beta 90.000000
_cell_angle_gamma 90.000000
_cell_volume 4361.686735
_symmetry_space_group_name_H-M "I M M M"
_symmetry_group_IT_number 71
_symmetry_cell_setting 'orthorhombic'
loop_
_space_group_symop_operation_xyz
x,y,z
-x,-y,z
x,-y,-z
-x,y,-z
-x,-y,-z
x,y,-z
-x,y,z
x,-y,z
1/2+x,1/2+y,1/2+z
1/2-x,1/2-y,1/2+z
1/2+x,1/2-y,1/2-z
1/2-x,1/2+y,1/2-z
1/2-x,1/2-y,1/2-z
1/2+x,1/2+y,1/2-z
1/2-x,1/2+y,1/2+z
1/2+x,1/2-y,1/2+z
loop_
_atom_site_type_symbol
_atom_site_label
_atom_site_fract_x
_atom_site_fract_y
_atom_site_fract_z
Si Si1 0.700907 0.419930 0.366291
Si Si2 0.793643 0.172979 0.949499
Si Si3 0.693608 0.422003 0.868357
Si Si4 0.796426 0.673555 0.052628
Si Si5 0.500000 0.919125 0.201623
Si Si6 0.000000 0.581281 0.196114
O O1 0.500000 0.401650 0.354269
O O2 0.722210 0.500000 0.376455
O O3 0.770055 0.380880 0.411562
O O4 0.823964 0.395654 0.324483
O O5 0.730924 0.249422 0.936542
O O6 0.000000 0.173101 0.952229
O O7 0.719364 0.152354 0.000000
O O8 0.500000 0.417888 0.846908
O O9 0.743063 0.500000 0.881045
O O10 0.695344 0.378583 0.914917
O O11 0.828364 0.392666 0.830693
O O12 0.000000 0.666324 0.062665
O O13 0.753463 0.654693 0.000000
O O14 0.500000 0.886410 0.252662
O O15 0.500000 0.000000 0.205524
O O16 0.000000 0.500000 0.199885
#
# Coordination Sequence:
#
# PCOD8290165 Si02
#       6
#    16  16  16  16   8   8
#     4   9  17  30  50  76 102 131 166 204 248 290
#     4   8  15  29  49  74 102 135 171 201 238 291
#     4  10  20  33  51  76 100 126 164 206 249 295
#     4   9  17  31  51  73 100 136 170 199 239 293
#     4   9  18  32  51  75 101 127 163 208 250 298
#     4   9  18  34  53  73  99 129 161 204 256 300
#
# _framework density 18.341526999999999
#
# number of rings (size 3 to 8) (size 9 to 14) (size 15 to 20)
#    0.000    3.000    1.000    1.200    0.000    2.000 
#    1.800    8.500    0.000    3.000    0.000    0.000 
#    0.000    0.000    0.000    0.000    0.000    0.000 
#
# Total GULP energy -495828.641882 kJ/mol
# GULP energy per Si atom -12395.716047 kJ/mol
# Density = 1.829978 g / cm^3
# Si number density = 18.341527 Si / 1000 Ang^3
#
#
#
# Elastic Constant Matrix: (Units=GPa)
#
#
# Indices 1 2 3 4 5 6 
#
# 1 96.7352 28.8634 62.2819 0.0000 0.0000 0.0000
# 2 28.8634 56.3204 56.2406 0.0000 0.0000 0.0000
# 3 62.2819 56.2406 149.4331 0.0000 0.0000 0.0000
# 4 0.0000 0.0000 0.0000 6.8881 0.0000 0.0000
# 5 0.0000 0.0000 0.0000 0.0000 15.6334 0.0000
# 6 0.0000 0.0000 0.0000 0.0000 0.0000 11.3087
#
#
#
# Elastic Compliance Matrix: (Units=1/GPa)
#
#
# Indices 1 2 3 4 5 6 
#
# 1 0.014298 -0.002206 -0.005129 0.000000 0.000000 0.000000
# 2 -0.002206 0.028787 -0.009915 0.000000 0.000000 0.000000
# 3 -0.005129 -0.009915 0.012561 0.000000 0.000000 0.000000
# 4 0.000000 0.000000 0.000000 0.145179 0.000000 0.000000
# 5 0.000000 0.000000 0.000000 0.000000 0.063966 0.000000
# 6 0.000000 0.000000 0.000000 0.000000 0.000000 0.088428
#
#
# Mechanical properties :
#
#
# Convention : Reuss Voigt Hill
#
# Bulk Modulus (GPa) = 47.28871 66.36228 56.82549
# Shear Modulus (GPa) = 12.66571 17.10620 14.88596
#
# Velocity S-wave (km/s) = 2.63068 3.05724 2.85195
# Velocity P-wave (km/s) = 5.92162 6.98014 6.47255
#
# Compressibility (1/GPa) = 0.02114670
#
# Stress axis : x y z
#
# Youngs Moduli (GPa) = 69.94028 34.73814 79.60983
#
# Poissons Ratio (x) = 0.07662 0.40832
# Poissons Ratio (y) = 0.15426 0.78932
# Poissons Ratio (z) = 0.35873 0.34443
#
# Static dielectric constant tensor:
#      x y z
#    x 3.348520 0.000000 0.000000 
#    y 0.000000 3.240260 0.000000 
#    z 0.000000 0.000000 3.627770 
# 
# 
# High freq. dielectric constant tensor:
#      x y z
#    x 1.711220 0.000000 0.000000 
#    y 0.000000 1.681890 0.000000 
#    z 0.000000 0.000000 1.703210 
# 
# From -- ./inp_files/42397.got.cif
#   From: 2010.06.25/outbox.cif.g09.slc.cpg/sg71_22_cif.got.tgz:42397.got - 2010.06.28 04:59:45.
