data_PCOD8290054
_publ_section_title
;
Structure prediction by ZEFSAII (Michael W. Deem and Ramdas Pophale) SiO2 
 PCOD8290054
Probable space group: I M M M
;
_chemical_formula_sum "Si O2"
_cell_formula_units_Z 104
_cell_length_a 32.874884
_cell_length_b 9.665595
_cell_length_c 18.001170
_cell_angle_alpha 90.000000
_cell_angle_beta 90.000000
_cell_angle_gamma 90.000000
_cell_volume 5719.967433
_symmetry_space_group_name_H-M "I M M M"
_symmetry_group_IT_number 71
_symmetry_cell_setting 'orthorhombic'
loop_
_space_group_symop_operation_xyz
x,y,z
-x,-y,z
x,-y,-z
-x,y,-z
-x,-y,-z
x,y,-z
-x,y,z
x,-y,z
1/2+x,1/2+y,1/2+z
1/2-x,1/2-y,1/2+z
1/2+x,1/2-y,1/2-z
1/2-x,1/2+y,1/2-z
1/2-x,1/2-y,1/2-z
1/2+x,1/2+y,1/2-z
1/2-x,1/2+y,1/2+z
1/2+x,1/2-y,1/2+z
loop_
_atom_site_type_symbol
_atom_site_label
_atom_site_fract_x
_atom_site_fract_y
_atom_site_fract_z
Si Si1 0.778620 0.841009 0.341935
Si Si2 0.297660 0.658693 0.328071
Si Si3 0.069769 0.346341 0.588150
Si Si4 0.620477 0.660956 0.586443
Si Si5 0.500000 0.654218 0.911033
Si Si6 0.454780 0.843738 0.411858
Si Si7 0.159215 0.349333 0.586892
O O1 0.737014 0.759946 0.358307
O O2 0.797639 0.823183 0.260403
O O3 0.811399 0.776651 0.396529
O O4 0.770921 0.000000 0.362130
O O5 0.287600 0.500000 0.350242
O O6 0.340534 0.704030 0.363929
O O7 0.069370 0.334571 0.500000
O O8 0.055431 0.500000 0.611924
O O9 0.114693 0.316363 0.620444
O O10 0.039364 0.232636 0.621550
O O11 0.629802 0.695667 0.500000
O O12 0.610578 0.500000 0.596563
O O13 0.581179 0.743858 0.617405
O O14 0.500000 0.500000 0.878739
O O15 0.500000 0.653651 0.000000
O O16 0.454833 0.838175 0.500000
O O17 0.500000 0.797047 0.383559
O O18 0.445784 0.000000 0.384538
O O19 0.154381 0.363066 0.500000
O O20 0.174540 0.500000 0.617987
#
# Coordination Sequence:
#
# PCOD8290054 Si02
#       7
#    16  16  16  16   8  16  16
#     4  10  20  33  50  70  92 122 159 200 240 284
#     4   9  19  35  50  67  95 127 159 195 236 286
#     4   8  14  25  40  58  82 113 146 177 215 268
#     4   9  17  29  47  71  96 124 160 198 233 273
#     4   9  15  21  33  57  87 115 141 175 220 263
#     4   8  14  25  41  64  97 131 156 184 229 279
#     4   9  18  32  49  69  93 121 153 191 237 286
#
# _framework density 18.181922
#
# number of rings (size 3 to 8) (size 9 to 14) (size 15 to 20)
#    0.000    3.154    0.000    2.077    0.000    4.000 
#    0.000    4.615    0.000    0.000    2.000    0.000 
#    0.000    0.000    0.000    0.000    0.000    0.000 
#
# Total GULP energy -644393.148230 kJ/mol
# GULP energy per Si atom -12392.175928 kJ/mol
# Density = 1.814054 g / cm^3
# Si number density = 18.181922 Si / 1000 Ang^3
#
#
#
# Elastic Constant Matrix: (Units=GPa)
#
#
# Indices 1 2 3 4 5 6 
#
# 1 164.6140 97.5991 30.6852 0.0000 0.0000 0.0000
# 2 97.5991 126.9775 18.8543 0.0000 0.0000 0.0000
# 3 30.6852 18.8543 16.2962 0.0000 0.0000 0.0000
# 4 0.0000 0.0000 0.0000 16.3151 0.0000 0.0000
# 5 0.0000 0.0000 0.0000 0.0000 6.8301 0.0000
# 6 0.0000 0.0000 0.0000 0.0000 0.0000 23.8128
#
#
#
# Elastic Compliance Matrix: (Units=1/GPa)
#
#
# Indices 1 2 3 4 5 6 
#
# 1 0.014252 -0.008415 -0.017099 0.000000 0.000000 0.000000
# 2 -0.008415 0.014478 -0.000905 0.000000 0.000000 0.000000
# 3 -0.017099 -0.000905 0.094608 0.000000 0.000000 0.000000
# 4 0.000000 0.000000 0.000000 0.061293 0.000000 0.000000
# 5 0.000000 0.000000 0.000000 0.000000 0.146411 0.000000
# 6 0.000000 0.000000 0.000000 0.000000 0.000000 0.041994
#
#
# Mechanical properties :
#
#
# Convention : Reuss Voigt Hill
#
# Bulk Modulus (GPa) = 14.18461 66.90721 40.54591
# Shear Modulus (GPa) = 11.12658 20.10820 15.61739
#
# Velocity S-wave (km/s) = 2.47646 3.32918 2.93397
# Velocity P-wave (km/s) = 3.99945 7.18725 5.81602
#
# Compressibility (1/GPa) = 0.07049894
#
# Stress axis : x y z
#
# Youngs Moduli (GPa) = 70.16752 69.06999 10.56994
#
# Poissons Ratio (x) = 0.58124 0.18074
# Poissons Ratio (y) = 0.59048 0.00957
# Poissons Ratio (z) = 1.19980 0.06251
#
# Static dielectric constant tensor:
#      x y z
#    x 3.639590 0.000000 0.000000 
#    y 0.000000 3.512990 0.000000 
#    z 0.000000 0.000000 2.834690 
# 
# 
# High freq. dielectric constant tensor:
#      x y z
#    x 1.715090 0.000000 0.000000 
#    y 0.000000 1.708700 0.000000 
#    z 0.000000 0.000000 1.647440 
# 
# From -- ./inp_files/62324.got.cif
#   From: 2010.06.25/outbox.cif.g09.slc.cpg/sg71_32_cif.got.tgz:62324.got - 2010.06.28 04:59:45.
