data_PCOD8290375
_publ_section_title
;
Structure prediction by ZEFSAII (Michael W. Deem and Ramdas Pophale) SiO2 
 PCOD8290375
Probable space group: I M M M
;
_chemical_formula_sum "Si O2"
_cell_formula_units_Z 72
_cell_length_a 28.371633
_cell_length_b 13.526165
_cell_length_c 9.914948
_cell_angle_alpha 90.000000
_cell_angle_beta 90.000000
_cell_angle_gamma 90.000000
_cell_volume 3804.954389
_symmetry_space_group_name_H-M "I M M M"
_symmetry_group_IT_number 71
_symmetry_cell_setting 'orthorhombic'
loop_
_space_group_symop_operation_xyz
x,y,z
-x,-y,z
x,-y,-z
-x,y,-z
-x,-y,-z
x,y,-z
-x,y,z
x,-y,z
1/2+x,1/2+y,1/2+z
1/2-x,1/2-y,1/2+z
1/2+x,1/2-y,1/2-z
1/2-x,1/2+y,1/2-z
1/2-x,1/2-y,1/2-z
1/2+x,1/2+y,1/2-z
1/2-x,1/2+y,1/2+z
1/2+x,1/2-y,1/2+z
loop_
_atom_site_type_symbol
_atom_site_label
_atom_site_fract_x
_atom_site_fract_y
_atom_site_fract_z
Si Si1 0.445415 0.114064 0.226285
Si Si2 0.384786 0.790489 0.000000
Si Si3 0.631232 0.616606 0.500000
Si Si4 0.675296 0.615661 0.000000
Si Si5 0.553794 0.778268 0.500000
Si Si6 0.717890 0.882514 0.000000
Si Si7 0.792045 0.116330 0.788481
O O1 0.500000 0.126973 0.186726
O O2 0.413970 0.180623 0.130349
O O3 0.434824 0.151100 0.375360
O O4 0.430199 0.000000 0.212956
O O5 0.374962 0.672560 0.000000
O O6 0.334082 0.841280 0.000000
O O7 0.619116 0.500000 0.500000
O O8 0.583209 0.677731 0.500000
O O9 0.660710 0.648712 0.632524
O O10 0.705471 0.648780 0.131606
O O11 0.663224 0.500000 0.000000
O O12 0.500000 0.742584 0.500000
O O13 0.745522 0.843103 0.865551
O O14 0.715265 0.000000 0.000000
O O15 0.789127 0.000000 0.797892
#
# Coordination Sequence:
#
# PCOD8290375 Si02
#       7
#    16   8   8   8   8   8  16
#     4  10  21  38  57  77 103 134 169 211 263 321
#     4  12  22  33  57  82 102 133 173 217 259 304
#     4   9  16  30  52  77 107 143 179 212 250 301
#     4  10  20  34  51  75 106 140 176 209 247 301
#     4  10  20  34  54  78 104 137 175 215 260 306
#     4   9  18  33  51  75 103 131 172 218 256 298
#     4   8  16  32  52  71 101 143 176 206 249 302
#
# _framework density 18.922696999999999
#
# number of rings (size 3 to 8) (size 9 to 14) (size 15 to 20)
#    0.000    2.444    0.000    4.333    0.000    3.333 
#    0.000    1.111    0.000    5.333    0.000    0.000 
#    0.000    0.000    0.000    0.000    0.000    0.000 
#
# Total GULP energy -446246.539395 kJ/mol
# GULP energy per Si atom -12395.737205 kJ/mol
# Density = 1.887963 g / cm^3
# Si number density = 18.922697 Si / 1000 Ang^3
#
#
#
# Elastic Constant Matrix: (Units=GPa)
#
#
# Indices 1 2 3 4 5 6 
#
# 1 94.9674 40.5651 62.8673 0.0000 0.0000 0.0000
# 2 40.5651 76.4369 32.5247 0.0000 0.0000 0.0000
# 3 62.8673 32.5247 164.2221 0.0000 0.0000 0.0000
# 4 0.0000 0.0000 0.0000 44.1524 0.0000 0.0000
# 5 0.0000 0.0000 0.0000 0.0000 46.1919 0.0000
# 6 0.0000 0.0000 0.0000 0.0000 0.0000 32.1471
#
#
#
# Elastic Compliance Matrix: (Units=1/GPa)
#
#
# Indices 1 2 3 4 5 6 
#
# 1 0.016776 -0.006738 -0.005088 0.000000 0.000000 0.000000
# 2 -0.006738 0.016993 -0.000786 0.000000 0.000000 0.000000
# 3 -0.005088 -0.000786 0.008193 0.000000 0.000000 0.000000
# 4 0.000000 0.000000 0.000000 0.022649 0.000000 0.000000
# 5 0.000000 0.000000 0.000000 0.000000 0.021649 0.000000
# 6 0.000000 0.000000 0.000000 0.000000 0.000000 0.031107
#
#
# Mechanical properties :
#
#
# Convention : Reuss Voigt Hill
#
# Bulk Modulus (GPa) = 59.74423 67.50453 63.62438
# Shear Modulus (GPa) = 33.74506 37.80957 35.77731
#
# Velocity S-wave (km/s) = 4.22751 4.47487 4.35295
# Velocity P-wave (km/s) = 7.44785 7.90257 7.67857
#
# Compressibility (1/GPa) = 0.01673802
#
# Stress axis : x y z
#
# Youngs Moduli (GPa) = 59.60838 58.84731 122.06054
#
# Poissons Ratio (x) = 0.39653 0.62101
# Poissons Ratio (y) = 0.40166 0.09594
# Poissons Ratio (z) = 0.30327 0.04626
#
# Static dielectric constant tensor:
#      x y z
#    x 3.414280 0.000000 0.000000 
#    y 0.000000 3.438450 0.000000 
#    z 0.000000 0.000000 4.030890 
# 
# 
# High freq. dielectric constant tensor:
#      x y z
#    x 1.723200 0.000000 0.000000 
#    y 0.000000 1.731630 0.000000 
#    z 0.000000 0.000000 1.752240 
# 
# From -- ./inp_files/14405.got.cif
#   From: 2010.06.25/outbox.cif.g09.slc.cpg/sg71_8_cif.got.tgz:14405.got - 2010.06.28 04:59:45.
