data_PCOD8290413
_publ_section_title
;
Structure prediction by ZEFSAII (Michael W. Deem and Ramdas Pophale) SiO2 
 PCOD8290413
Probable space group: I M M M
;
_chemical_formula_sum "Si O2"
_cell_formula_units_Z 104
_cell_length_a 26.430217
_cell_length_b 23.644849
_cell_length_c 9.126356
_cell_angle_alpha 90.000000
_cell_angle_beta 90.000000
_cell_angle_gamma 90.000000
_cell_volume 5703.411138
_symmetry_space_group_name_H-M "I M M M"
_symmetry_group_IT_number 71
_symmetry_cell_setting 'orthorhombic'
loop_
_space_group_symop_operation_xyz
x,y,z
-x,-y,z
x,-y,-z
-x,y,-z
-x,-y,-z
x,y,-z
-x,y,z
x,-y,z
1/2+x,1/2+y,1/2+z
1/2-x,1/2-y,1/2+z
1/2+x,1/2-y,1/2-z
1/2-x,1/2+y,1/2-z
1/2-x,1/2-y,1/2-z
1/2+x,1/2+y,1/2-z
1/2-x,1/2+y,1/2+z
1/2+x,1/2-y,1/2+z
loop_
_atom_site_type_symbol
_atom_site_label
_atom_site_fract_x
_atom_site_fract_y
_atom_site_fract_z
Si Si1 0.500000 0.567287 0.164986
Si Si2 0.098785 0.933621 0.831073
Si Si3 0.941947 0.658751 0.826450
Si Si4 0.172316 0.855950 0.668601
Si Si5 0.132273 0.437586 0.828056
Si Si6 0.287833 0.847015 0.328216
Si Si7 0.136591 0.268365 0.669886
O O1 0.500000 0.500000 0.167282
O O2 0.450347 0.590110 0.246758
O O3 0.500000 0.591091 0.000000
O O4 0.148511 0.904534 0.767627
O O5 0.105352 0.000000 0.806854
O O6 0.092007 0.918039 0.000000
O O7 0.914819 0.600756 0.773665
O O8 0.914774 0.711657 0.749105
O O9 0.000000 0.656446 0.776481
O O10 0.936359 0.666754 0.000000
O O11 0.170713 0.875438 0.500000
O O12 0.229952 0.849395 0.721276
O O13 0.141272 0.798525 0.691963
O O14 0.130750 0.500000 0.753351
O O15 0.184878 0.406395 0.788475
O O16 0.127611 0.445416 0.000000
O O17 0.293538 0.833443 0.500000
O O18 0.313987 0.796654 0.239930
O O19 0.134150 0.285000 0.500000
#
# Coordination Sequence:
#
# PCOD8290413 Si02
#       7
#     8  16  16  16  16  16  16
#     4   9  17  33  57  77  97 131 169 205 248 299
#     4  10  21  36  54  78 107 137 170 210 259 313
#     4   9  18  33  52  73 100 136 174 213 260 312
#     4  10  21  35  52  77 104 136 177 216 258 310
#     4   8  14  26  47  76 104 129 163 208 254 300
#     4   9  18  33  53  75 102 136 174 214 257 309
#     4  10  20  34  52  75 102 134 173 216 265 312
#
# _framework density 18.234701999999999
#
# number of rings (size 3 to 8) (size 9 to 14) (size 15 to 20)
#    0.000    2.692    0.000    2.538    0.000    4.923 
#    1.385    3.077    0.000    7.385    0.000    4.308 
#    0.000    0.000    0.000    0.000    0.000    0.000 
#
# Total GULP energy -644802.310177 kJ/mol
# GULP energy per Si atom -12400.044426 kJ/mol
# Density = 1.819320 g / cm^3
# Si number density = 18.234702 Si / 1000 Ang^3
#
#
#
# Elastic Constant Matrix: (Units=GPa)
#
#
# Indices 1 2 3 4 5 6 
#
# 1 120.2281 48.4801 46.1236 0.0000 0.0000 0.0000
# 2 48.4801 62.4179 37.4327 0.0000 0.0000 0.0000
# 3 46.1236 37.4327 79.5238 0.0000 0.0000 0.0000
# 4 0.0000 0.0000 0.0000 25.9451 0.0000 0.0000
# 5 0.0000 0.0000 0.0000 0.0000 28.7643 0.0000
# 6 0.0000 0.0000 0.0000 0.0000 0.0000 18.1794
#
#
#
# Elastic Compliance Matrix: (Units=1/GPa)
#
#
# Indices 1 2 3 4 5 6 
#
# 1 0.012906 -0.007712 -0.003855 0.000000 0.000000 0.000000
# 2 -0.007712 0.026931 -0.008204 0.000000 0.000000 0.000000
# 3 -0.003855 -0.008204 0.018672 0.000000 0.000000 0.000000
# 4 0.000000 0.000000 0.000000 0.038543 0.000000 0.000000
# 5 0.000000 0.000000 0.000000 0.000000 0.034765 0.000000
# 6 0.000000 0.000000 0.000000 0.000000 0.000000 0.055007
#
#
# Mechanical properties :
#
#
# Convention : Reuss Voigt Hill
#
# Bulk Modulus (GPa) = 52.72235 58.47138 55.59687
# Shear Modulus (GPa) = 21.48777 23.25333 22.37055
#
# Velocity S-wave (km/s) = 3.43651 3.57490 3.50639
# Velocity P-wave (km/s) = 6.68746 7.01252 6.85192
#
# Compressibility (1/GPa) = 0.01896729
#
# Stress axis : x y z
#
# Youngs Moduli (GPa) = 77.48044 37.13197 53.55471
#
# Poissons Ratio (x) = 0.28637 0.20648
# Poissons Ratio (y) = 0.59755 0.43934
# Poissons Ratio (z) = 0.29872 0.30461
#
# Static dielectric constant tensor:
#      x y z
#    x 3.459100 0.000000 0.000000 
#    y 0.000000 3.349790 0.000000 
#    z 0.000000 0.000000 3.243270 
# 
# 
# High freq. dielectric constant tensor:
#      x y z
#    x 1.712860 0.000000 0.000000 
#    y 0.000000 1.697300 0.000000 
#    z 0.000000 0.000000 1.691940 
# 
# From -- ./inp_files/15280.got.cif
#   From: 2010.06.25/outbox.cif.g09.slc.cpg/sg71_8_cif.got.tgz:15280.got - 2010.06.28 04:59:45.
