data_PCOD8290580
_publ_section_title
;
Structure prediction by ZEFSAII (Michael W. Deem and Ramdas Pophale) SiO2 
 PCOD8290580
Probable space group: I M M M
;
_chemical_formula_sum "Si O2"
_cell_formula_units_Z 104
_cell_length_a 9.591649
_cell_length_b 22.861490
_cell_length_c 25.757546
_cell_angle_alpha 90.000000
_cell_angle_beta 90.000000
_cell_angle_gamma 90.000000
_cell_volume 5648.098915
_symmetry_space_group_name_H-M "I M M M"
_symmetry_group_IT_number 71
_symmetry_cell_setting 'orthorhombic'
loop_
_space_group_symop_operation_xyz
x,y,z
-x,-y,z
x,-y,-z
-x,y,-z
-x,-y,-z
x,y,-z
-x,y,z
x,-y,z
1/2+x,1/2+y,1/2+z
1/2-x,1/2-y,1/2+z
1/2+x,1/2-y,1/2-z
1/2-x,1/2+y,1/2-z
1/2-x,1/2-y,1/2-z
1/2+x,1/2+y,1/2-z
1/2-x,1/2+y,1/2+z
1/2+x,1/2-y,1/2+z
loop_
_atom_site_type_symbol
_atom_site_label
_atom_site_fract_x
_atom_site_fract_y
_atom_site_fract_z
Si Si1 0.658416 0.784619 0.860855
Si Si2 0.844618 0.829692 0.698271
Si Si3 0.349953 0.568580 0.000000
Si Si4 0.334848 0.886684 0.785649
Si Si5 0.148161 0.500000 0.833469
Si Si6 0.725440 0.888980 0.394374
Si Si7 0.152723 0.271538 0.058671
Si Si8 0.170352 0.000000 0.234734
O O1 0.500000 0.778224 0.879308
O O2 0.689651 0.737511 0.815501
O O3 0.687904 0.848475 0.837262
O O4 0.750037 0.774965 0.912017
O O5 0.722866 0.851963 0.735821
O O6 0.845508 0.868341 0.645563
O O7 0.000000 0.835837 0.723096
O O8 0.277440 0.588063 0.948388
O O9 0.361435 0.500000 0.000000
O O10 0.500000 0.598741 0.000000
O O11 0.500000 0.900216 0.777073
O O12 0.239546 0.944135 0.793266
O O13 0.141986 0.442059 0.868564
O O14 0.280698 0.500000 0.795040
O O15 0.000000 0.500000 0.802304
O O16 0.636295 0.831577 0.408636
O O17 0.000000 0.243131 0.055909
O O18 0.210030 0.282658 0.000000
O O19 0.000000 0.000000 0.231767
#
# Coordination Sequence:
#
# PCOD8290580 Si02
#       8
#    16  16   8  16   8  16  16   8
#     4   9  21  38  57  84 113 147 186 229 277 335
#     4  10  20  34  54  80 110 143 186 231 280 333
#     4  11  22  34  48  70 102 144 192 247 296 335
#     4  11  22  38  59  83 114 146 185 228 279 339
#     4  12  24  37  55  76 107 151 197 242 291 334
#     4  11  21  36  52  75 105 147 196 240 288 332
#     4  10  21  37  57  83 114 147 187 235 285 335
#     4  12  26  40  59  83 113 149 189 234 281 337
#
# _framework density 18.413274000000001
#
# number of rings (size 3 to 8) (size 9 to 14) (size 15 to 20)
#    0.000    1.462    3.077    2.538    0.000    5.231 
#    0.000    0.385    0.000    0.000    0.000    0.538 
#    0.000    4.308    0.000    0.000    0.000    0.000 
#
# Total GULP energy -644343.650612 kJ/mol
# GULP energy per Si atom -12391.224050 kJ/mol
# Density = 1.837137 g / cm^3
# Si number density = 18.413274 Si / 1000 Ang^3
#
#
#
# Elastic Constant Matrix: (Units=GPa)
#
#
# Indices 1 2 3 4 5 6 
#
# 1 126.0084 52.7109 39.5499 0.0000 0.0000 0.0000
# 2 52.7109 102.1779 47.9150 0.0000 0.0000 0.0000
# 3 39.5499 47.9150 77.1216 0.0000 0.0000 0.0000
# 4 0.0000 0.0000 0.0000 37.8068 0.0000 0.0000
# 5 0.0000 0.0000 0.0000 0.0000 24.7626 0.0000
# 6 0.0000 0.0000 0.0000 0.0000 0.0000 67.8970
#
#
#
# Elastic Compliance Matrix: (Units=1/GPa)
#
#
# Indices 1 2 3 4 5 6 
#
# 1 0.010550 -0.004100 -0.002863 0.000000 0.000000 0.000000
# 2 -0.004100 0.015404 -0.007468 0.000000 0.000000 0.000000
# 3 -0.002863 -0.007468 0.019074 0.000000 0.000000 0.000000
# 4 0.000000 0.000000 0.000000 0.026450 0.000000 0.000000
# 5 0.000000 0.000000 0.000000 0.000000 0.040384 0.000000
# 6 0.000000 0.000000 0.000000 0.000000 0.000000 0.014728
#
#
# Mechanical properties :
#
#
# Convention : Reuss Voigt Hill
#
# Bulk Modulus (GPa) = 61.85519 65.07328 63.46424
# Shear Modulus (GPa) = 31.08693 37.10208 34.09450
#
# Velocity S-wave (km/s) = 4.11334 4.49370 4.30772
# Velocity P-wave (km/s) = 7.49834 7.89567 7.69957
#
# Compressibility (1/GPa) = 0.01616679
#
# Stress axis : x y z
#
# Youngs Moduli (GPa) = 94.79108 64.91963 52.42630
#
# Poissons Ratio (x) = 0.26615 0.15010
# Poissons Ratio (y) = 0.38861 0.39151
# Poissons Ratio (z) = 0.27138 0.48480
#
# Static dielectric constant tensor:
#      x y z
#    x 3.422720 0.000000 0.000000 
#    y 0.000000 3.564130 0.000000 
#    z 0.000000 0.000000 3.202910 
# 
# 
# High freq. dielectric constant tensor:
#      x y z
#    x 1.719890 0.000000 0.000000 
#    y 0.000000 1.706800 0.000000 
#    z 0.000000 0.000000 1.690740 
# 
# From -- ./inp_files/63609.got.cif
#   From: 2010.06.25/outbox.cif.g09.slc.cpg/sg71_32_cif.got.tgz:63609.got - 2010.06.28 04:59:45.
