data_PCOD8290577
_publ_section_title
;
Structure prediction by ZEFSAII (Michael W. Deem and Ramdas Pophale) SiO2 
 PCOD8290577
Probable space group: I M M M
;
_chemical_formula_sum "Si O2"
_cell_formula_units_Z 88
_cell_length_a 27.343783
_cell_length_b 19.546082
_cell_length_c 8.949392
_cell_angle_alpha 90.000000
_cell_angle_beta 90.000000
_cell_angle_gamma 90.000000
_cell_volume 4783.126277
_symmetry_space_group_name_H-M "I M M M"
_symmetry_group_IT_number 71
_symmetry_cell_setting 'orthorhombic'
loop_
_space_group_symop_operation_xyz
x,y,z
-x,-y,z
x,-y,-z
-x,y,-z
-x,-y,-z
x,y,-z
-x,y,z
x,-y,z
1/2+x,1/2+y,1/2+z
1/2-x,1/2-y,1/2+z
1/2+x,1/2-y,1/2-z
1/2-x,1/2+y,1/2-z
1/2-x,1/2-y,1/2-z
1/2+x,1/2+y,1/2-z
1/2-x,1/2+y,1/2+z
1/2+x,1/2-y,1/2+z
loop_
_atom_site_type_symbol
_atom_site_label
_atom_site_fract_x
_atom_site_fract_y
_atom_site_fract_z
Si Si1 0.587765 0.828798 0.176597
Si Si2 0.056033 0.191256 0.828330
Si Si3 0.367020 0.577529 0.672880
Si Si4 0.816129 0.694662 0.825590
Si Si5 0.207259 0.165662 0.674347
Si Si6 0.500000 0.923009 0.822268
O O1 0.571252 0.753434 0.223419
O O2 0.640313 0.847701 0.247757
O O3 0.548221 0.883704 0.235904
O O4 0.592541 0.831681 0.000000
O O5 0.087031 0.124588 0.783859
O O6 0.000000 0.171673 0.799816
O O7 0.065267 0.212715 0.000000
O O8 0.352776 0.585720 0.500000
O O9 0.381544 0.500000 0.711731
O O10 0.319673 0.597356 0.771194
O O11 0.816306 0.771635 0.763938
O O12 0.764816 0.657835 0.789381
O O13 0.826721 0.698674 0.000000
O O14 0.198784 0.178988 0.500000
O O15 0.500000 0.000000 0.757423
O O16 0.500000 0.923866 0.000000
#
# Coordination Sequence:
#
# PCOD8290577 Si02
#       6
#    16  16  16  16  16   8
#     4  11  20  33  57  85 110 142 184 228 272 326
#     4  10  20  34  54  80 111 147 185 230 277 324
#     4  10  21  36  54  78 112 154 192 228 274 328
#     4  10  20  34  54  81 111 140 177 228 278 329
#     4  10  20  34  54  80 109 143 183 228 277 326
#     4   9  20  38  57  81 114 147 178 220 276 332
#
# _framework density 18.398008000000001
#
# number of rings (size 3 to 8) (size 9 to 14) (size 15 to 20)
#    0.000    1.909    2.727    1.636    0.000    2.909 
#    0.000    2.727    0.000    7.636    0.000    2.545 
#    0.000    0.000    0.000    0.000    0.000    0.000 
#
# Total GULP energy -545715.248087 kJ/mol
# GULP energy per Si atom -12402.619275 kJ/mol
# Density = 1.835613 g / cm^3
# Si number density = 18.398008 Si / 1000 Ang^3
#
#
#
# Elastic Constant Matrix: (Units=GPa)
#
#
# Indices 1 2 3 4 5 6 
#
# 1 154.0723 65.8695 50.2438 0.0000 0.0000 0.0000
# 2 65.8695 106.2635 34.9442 0.0000 0.0000 0.0000
# 3 50.2438 34.9442 68.4435 0.0000 0.0000 0.0000
# 4 0.0000 0.0000 0.0000 22.6742 0.0000 0.0000
# 5 0.0000 0.0000 0.0000 0.0000 31.3150 0.0000
# 6 0.0000 0.0000 0.0000 0.0000 0.0000 29.0810
#
#
#
# Elastic Compliance Matrix: (Units=1/GPa)
#
#
# Indices 1 2 3 4 5 6 
#
# 1 0.010112 -0.004599 -0.005075 0.000000 0.000000 0.000000
# 2 -0.004599 0.013401 -0.003466 0.000000 0.000000 0.000000
# 3 -0.005075 -0.003466 0.020105 0.000000 0.000000 0.000000
# 4 0.000000 0.000000 0.000000 0.044103 0.000000 0.000000
# 5 0.000000 0.000000 0.000000 0.000000 0.031934 0.000000
# 6 0.000000 0.000000 0.000000 0.000000 0.000000 0.034387
#
#
# Mechanical properties :
#
#
# Convention : Reuss Voigt Hill
#
# Bulk Modulus (GPa) = 57.67425 70.09938 63.88681
# Shear Modulus (GPa) = 26.86722 28.46216 27.66469
#
# Velocity S-wave (km/s) = 3.82558 3.93749 3.88194
# Velocity P-wave (km/s) = 7.13649 7.67177 7.40897
#
# Compressibility (1/GPa) = 0.01733876
#
# Stress axis : x y z
#
# Youngs Moduli (GPa) = 98.89669 74.62070 49.73774
#
# Poissons Ratio (x) = 0.34318 0.25241
# Poissons Ratio (y) = 0.45483 0.17239
# Poissons Ratio (z) = 0.50188 0.25863
#
# Static dielectric constant tensor:
#      x y z
#    x 3.735730 0.000000 0.000000 
#    y 0.000000 3.242130 0.000000 
#    z 0.000000 0.000000 3.323310 
# 
# 
# High freq. dielectric constant tensor:
#      x y z
#    x 1.731920 0.000000 0.000000 
#    y 0.000000 1.686160 0.000000 
#    z 0.000000 0.000000 1.709860 
# 
# From -- ./inp_files/8796.got.cif
#   From: 2010.06.25/outbox.cif.g09.slc.cpg/sg71_5_cif.got.tgz:8796.got - 2010.06.28 04:59:45.
