data_PCOD8290810
_publ_section_title
;
Structure prediction by ZEFSAII (Michael W. Deem and Ramdas Pophale) SiO2 
 PCOD8290810
Probable space group: I M M M
;
_chemical_formula_sum "Si O2"
_cell_formula_units_Z 104
_cell_length_a 23.615315
_cell_length_b 25.208435
_cell_length_c 9.289334
_cell_angle_alpha 90.000000
_cell_angle_beta 90.000000
_cell_angle_gamma 90.000000
_cell_volume 5529.988214
_symmetry_space_group_name_H-M "I M M M"
_symmetry_group_IT_number 71
_symmetry_cell_setting 'orthorhombic'
loop_
_space_group_symop_operation_xyz
x,y,z
-x,-y,z
x,-y,-z
-x,y,-z
-x,-y,-z
x,y,-z
-x,y,z
x,-y,z
1/2+x,1/2+y,1/2+z
1/2-x,1/2-y,1/2+z
1/2+x,1/2-y,1/2-z
1/2-x,1/2+y,1/2-z
1/2-x,1/2-y,1/2-z
1/2+x,1/2+y,1/2-z
1/2-x,1/2+y,1/2+z
1/2+x,1/2-y,1/2+z
loop_
_atom_site_type_symbol
_atom_site_label
_atom_site_fract_x
_atom_site_fract_y
_atom_site_fract_z
Si Si1 0.937461 0.000000 0.170328
Si Si2 0.789570 0.712995 0.841177
Si Si3 0.717637 0.390969 0.159481
Si Si4 0.880702 0.339450 0.666928
Si Si5 0.188833 0.440963 0.334129
Si Si6 0.393119 0.612856 0.329986
Si Si7 0.000000 0.295141 0.333753
Si Si8 0.000000 0.815660 0.169516
O O1 0.905050 0.947380 0.220727
O O2 0.000000 0.000000 0.239400
O O3 0.943623 0.000000 0.000000
O O4 0.750000 0.750000 0.750000
O O5 0.760053 0.657136 0.857220
O O6 0.848696 0.705532 0.758569
O O7 0.801251 0.737464 0.000000
O O8 0.752509 0.435589 0.246026
O O9 0.662983 0.370000 0.245637
O O10 0.700585 0.411837 0.000000
O O11 0.867916 0.328313 0.500000
O O12 0.859823 0.398670 0.710305
O O13 0.946690 0.332564 0.703339
O O14 0.205563 0.432781 0.500000
O O15 0.164318 0.500000 0.306233
O O16 0.382433 0.616401 0.500000
O O17 0.444672 0.650971 0.283722
O O18 0.000000 0.278006 0.500000
O O19 0.000000 0.241213 0.244024
O O20 0.000000 0.806455 0.000000
#
# Coordination Sequence:
#
# PCOD8290810 Si02
#       8
#     8  16  16  16  16  16   8   8
#     4   9  16  32  55  73  95 131 175 222 265 308
#     4  10  21  36  55  78 106 142 181 223 271 322
#     4  10  22  36  51  77 111 141 174 218 271 328
#     4   9  19  37  57  81 111 144 183 223 273 332
#     4   9  18  35  59  83 108 141 181 224 270 326
#     4  10  20  35  55  78 103 136 182 228 270 318
#     4  10  22  38  58  81 113 150 180 223 280 331
#     4  10  22  37  54  79 107 141 188 236 273 320
#
# _framework density 18.806549
#
# number of rings (size 3 to 8) (size 9 to 14) (size 15 to 20)
#    0.000    2.385    0.769    0.923    3.231    3.385 
#    0.000    0.385    0.000    2.769    0.000    0.000 
#    0.000    5.538    0.000    0.000    0.000    0.000 
#
# Total GULP energy -644684.064595 kJ/mol
# GULP energy per Si atom -12397.770473 kJ/mol
# Density = 1.876374 g / cm^3
# Si number density = 18.806549 Si / 1000 Ang^3
#
#
#
# Elastic Constant Matrix: (Units=GPa)
#
#
# Indices 1 2 3 4 5 6 
#
# 1 141.5173 44.4565 57.5753 0.0000 0.0000 0.0000
# 2 44.4565 85.0027 39.3937 0.0000 0.0000 0.0000
# 3 57.5753 39.3937 85.3104 0.0000 0.0000 0.0000
# 4 0.0000 0.0000 0.0000 22.9108 0.0000 0.0000
# 5 0.0000 0.0000 0.0000 0.0000 23.8287 0.0000
# 6 0.0000 0.0000 0.0000 0.0000 0.0000 17.0216
#
#
#
# Elastic Compliance Matrix: (Units=1/GPa)
#
#
# Indices 1 2 3 4 5 6 
#
# 1 0.010217 -0.002733 -0.005633 0.000000 0.000000 0.000000
# 2 -0.002733 0.015698 -0.005405 0.000000 0.000000 0.000000
# 3 -0.005633 -0.005405 0.018019 0.000000 0.000000 0.000000
# 4 0.000000 0.000000 0.000000 0.043648 0.000000 0.000000
# 5 0.000000 0.000000 0.000000 0.000000 0.041966 0.000000
# 6 0.000000 0.000000 0.000000 0.000000 0.000000 0.058749
#
#
# Mechanical properties :
#
#
# Convention : Reuss Voigt Hill
#
# Bulk Modulus (GPa) = 61.00129 66.07572 63.53851
# Shear Modulus (GPa) = 22.59350 24.11254 23.35302
#
# Velocity S-wave (km/s) = 3.46983 3.58458 3.52767
# Velocity P-wave (km/s) = 6.96847 7.23484 7.10290
#
# Compressibility (1/GPa) = 0.01639310
#
# Stress axis : x y z
#
# Youngs Moduli (GPa) = 97.88051 63.70125 55.49549
#
# Poissons Ratio (x) = 0.17407 0.31262
# Poissons Ratio (y) = 0.26747 0.29994
# Poissons Ratio (z) = 0.55138 0.34429
#
# Static dielectric constant tensor:
#      x y z
#    x 3.463740 0.000000 0.000000 
#    y 0.000000 3.603950 0.000000 
#    z 0.000000 0.000000 3.625170 
# 
# 
# High freq. dielectric constant tensor:
#      x y z
#    x 1.727830 0.000000 0.000000 
#    y 0.000000 1.726460 0.000000 
#    z 0.000000 0.000000 1.722690 
# 
# From -- ./inp_files/13385.got.cif
#   From: 2010.06.25/outbox.cif.g09.slc.cpg/sg71_7_cif.got.tgz:13385.got - 2010.06.28 04:59:45.
