data_PCOD8290023
_publ_section_title
;
Structure prediction by ZEFSAII (Michael W. Deem and Ramdas Pophale) SiO2 
 PCOD8290023
Probable space group: I M M M
;
_chemical_formula_sum "Si O2"
_cell_formula_units_Z 80
_cell_length_a 25.859735
_cell_length_b 9.202427
_cell_length_c 19.126511
_cell_angle_alpha 90.000000
_cell_angle_beta 90.000000
_cell_angle_gamma 90.000000
_cell_volume 4551.580265
_symmetry_space_group_name_H-M "I M M M"
_symmetry_group_IT_number 71
_symmetry_cell_setting 'orthorhombic'
loop_
_space_group_symop_operation_xyz
x,y,z
-x,-y,z
x,-y,-z
-x,y,-z
-x,-y,-z
x,y,-z
-x,y,z
x,-y,z
1/2+x,1/2+y,1/2+z
1/2-x,1/2-y,1/2+z
1/2+x,1/2-y,1/2-z
1/2-x,1/2+y,1/2-z
1/2-x,1/2-y,1/2-z
1/2+x,1/2+y,1/2-z
1/2-x,1/2+y,1/2+z
1/2+x,1/2-y,1/2+z
loop_
_atom_site_type_symbol
_atom_site_label
_atom_site_fract_x
_atom_site_fract_y
_atom_site_fract_z
Si Si1 0.000000 0.158252 0.582503
Si Si2 0.800541 0.332242 0.168970
Si Si3 0.302285 0.831667 0.831665
Si Si4 0.111717 0.827286 0.419577
Si Si5 0.500000 0.335963 0.583111
Si Si6 0.899269 0.330704 0.080957
O O1 0.945559 0.235145 0.602602
O O2 0.000000 0.135706 0.500000
O O3 0.000000 0.000000 0.618466
O O4 0.787528 0.500000 0.153426
O O5 0.751972 0.237169 0.144680
O O6 0.812638 0.306407 0.250027
O O7 0.849646 0.279318 0.124611
O O8 0.347777 0.753057 0.871769
O O9 0.301394 0.000000 0.851774
O O10 0.123810 0.789692 0.500000
O O11 0.114310 0.000000 0.407545
O O12 0.500000 0.500000 0.611723
O O13 0.500000 0.330728 0.500000
O O14 0.551245 0.255405 0.610725
O O15 0.910670 0.500000 0.092069
O O16 0.888687 0.294379 0.000000
#
# Coordination Sequence:
#
# PCOD8290023 Si02
#       6
#     8  16  16  16   8  16
#     4   7  12  26  48  71  92 118 154 193 232 274
#     4   9  19  35  51  68  94 129 165 199 239 287
#     4  10  20  33  49  70  98 129 159 197 245 291
#     4   9  17  31  52  74  96 125 162 201 237 279
#     4   9  17  29  46  71 102 128 150 187 242 291
#     4   9  17  31  52  73  92 121 163 202 233 276
#
# _framework density 17.576312999999999
#
# number of rings (size 3 to 8) (size 9 to 14) (size 15 to 20)
#    0.000    3.000    0.000    2.100    0.000    4.000 
#    0.000    3.500    0.000    5.400    0.000    0.000 
#    0.000    0.000    0.000    0.000    0.000    0.000 
#
# Total GULP energy -495819.998263 kJ/mol
# GULP energy per Si atom -12395.499957 kJ/mol
# Density = 1.753631 g / cm^3
# Si number density = 17.576313 Si / 1000 Ang^3
#
#
#
# Elastic Constant Matrix: (Units=GPa)
#
#
# Indices 1 2 3 4 5 6 
#
# 1 194.3295 76.7931 67.9751 0.0000 0.0000 0.0000
# 2 76.7931 72.9187 35.3528 0.0000 0.0000 0.0000
# 3 67.9751 35.3528 47.6633 0.0000 0.0000 0.0000
# 4 0.0000 0.0000 0.0000 23.2897 0.0000 0.0000
# 5 0.0000 0.0000 0.0000 0.0000 -659.5856 0.0000
# 6 0.0000 0.0000 0.0000 0.0000 0.0000 22.9671
#
#
#
# Elastic Compliance Matrix: (Units=1/GPa)
#
#
# Indices 1 2 3 4 5 6 
#
# 1 0.012123 -0.006847 -0.012210 0.000000 0.000000 0.000000
# 2 -0.006847 0.025282 -0.008987 0.000000 0.000000 0.000000
# 3 -0.012210 -0.008987 0.045060 0.000000 0.000000 0.000000
# 4 0.000000 0.000000 0.000000 0.042937 0.000000 0.000000
# 5 0.000000 0.000000 0.000000 0.000000 -0.001516 0.000000
# 6 0.000000 0.000000 0.000000 0.000000 0.000000 0.043540
#
#
# Mechanical properties :
#
#
# Convention : Reuss Voigt Hill
#
# Bulk Modulus (GPa) = 37.91345 75.01705 56.46525
# Shear Modulus (GPa) = 21.52318 -113.67973 -46.07827
#
# Velocity S-wave (km/s) = 3.50316 -8.05098 -5.12572
# Velocity P-wave (km/s) = 6.16283 6.60688 1.68381
#
# Compressibility (1/GPa) = 0.02637586
#
# Stress axis : x y z
#
# Youngs Moduli (GPa) = 82.48997 39.55401 22.19249
#
# Poissons Ratio (x) = 0.27082 0.27098
# Poissons Ratio (y) = 0.56481 0.19945
# Poissons Ratio (z) = 1.00723 0.35548
#
# Static dielectric constant tensor:
#      x y z
#    x 3.570610 0.000000 0.000000 
#    y 0.000000 3.176380 0.000000 
#    z 0.000000 0.000000 3.026150 
# 
# 
# High freq. dielectric constant tensor:
#      x y z
#    x 1.697330 0.000000 0.000000 
#    y 0.000000 1.667210 0.000000 
#    z 0.000000 0.000000 1.652110 
# 
# From -- ./inp_files/48610.got.cif
#   From: 2010.06.25/outbox.cif.g09.slc.cpg/sg71_25_cif.got.tgz:48610.got - 2010.06.28 04:59:45.
