data_PCOD8290884
_publ_section_title
;
Structure prediction by ZEFSAII (Michael W. Deem and Ramdas Pophale) SiO2 
 PCOD8290884
Probable space group: I M M M
;
_chemical_formula_sum "Si O2"
_cell_formula_units_Z 104
_cell_length_a 21.461846
_cell_length_b 9.076394
_cell_length_c 26.807822
_cell_angle_alpha 90.000000
_cell_angle_beta 90.000000
_cell_angle_gamma 90.000000
_cell_volume 5222.061059
_symmetry_space_group_name_H-M "I M M M"
_symmetry_group_IT_number 71
_symmetry_cell_setting 'orthorhombic'
loop_
_space_group_symop_operation_xyz
x,y,z
-x,-y,z
x,-y,-z
-x,y,-z
-x,-y,-z
x,y,-z
-x,y,z
x,-y,z
1/2+x,1/2+y,1/2+z
1/2-x,1/2-y,1/2+z
1/2+x,1/2-y,1/2-z
1/2-x,1/2+y,1/2-z
1/2-x,1/2-y,1/2-z
1/2+x,1/2+y,1/2-z
1/2-x,1/2+y,1/2+z
1/2+x,1/2-y,1/2+z
loop_
_atom_site_type_symbol
_atom_site_label
_atom_site_fract_x
_atom_site_fract_y
_atom_site_fract_z
Si Si1 0.929221 0.827033 0.772975
Si Si2 0.072741 0.664174 0.873915
Si Si3 0.618680 0.664047 0.941527
Si Si4 0.500000 0.166135 0.059666
Si Si5 0.803774 0.825213 0.717483
Si Si6 0.843452 0.168419 0.943753
Si Si7 0.218488 0.670555 0.614019
O O1 0.909225 0.756278 0.825180
O O2 0.874559 0.782042 0.734212
O O3 0.000000 0.775889 0.756367
O O4 0.929397 0.000000 0.781467
O O5 0.099343 0.500000 0.866499
O O6 0.100241 0.733180 0.924216
O O7 0.000000 0.662129 0.882435
O O8 0.625022 0.500000 0.917821
O O9 0.558818 0.745750 0.918588
O O10 0.677084 0.767342 0.930781
O O11 0.610767 0.648601 0.000000
O O12 0.500000 0.000000 0.080914
O O13 0.500000 0.162126 0.000000
O O14 0.750000 0.750000 0.750000
O O15 0.795519 0.769002 0.661757
O O16 0.794259 0.000000 0.720498
O O17 0.788326 0.191790 0.904417
O O18 0.865221 0.000000 0.944062
O O19 0.824761 0.217347 0.000000
O O20 0.203199 0.500000 0.624890
#
# Coordination Sequence:
#
# PCOD8290884 Si02
#       7
#    16  16  16   8  16  16  16
#     4   9  19  38  62  85 112 151 195 236 283 343
#     4  10  21  36  57  87 119 149 183 229 286 345
#     4  10  20  35  56  82 112 147 188 233 282 337
#     4   9  17  31  53  79 107 143 185 227 273 325
#     4  11  23  39  60  86 116 149 191 241 295 353
#     4  10  22  39  58  81 111 151 197 240 282 336
#     4  11  23  39  58  82 113 149 191 238 291 345
#
# _framework density 19.915509
#
# number of rings (size 3 to 8) (size 9 to 14) (size 15 to 20)
#    0.000    1.923    0.000    3.462    0.000   10.154 
#    1.385    1.538    0.000    0.000    0.000    0.000 
#    0.000    0.000    0.000    0.000    0.000    0.000 
#
# Total GULP energy -644715.648552 kJ/mol
# GULP energy per Si atom -12398.377857 kJ/mol
# Density = 1.987018 g / cm^3
# Si number density = 19.915509 Si / 1000 Ang^3
#
#
#
# Elastic Constant Matrix: (Units=GPa)
#
#
# Indices 1 2 3 4 5 6 
#
# 1 73.6599 50.1727 44.3076 0.0000 0.0000 0.0000
# 2 50.1727 82.2854 41.3216 0.0000 0.0000 0.0000
# 3 44.3076 41.3216 86.5456 0.0000 0.0000 0.0000
# 4 0.0000 0.0000 0.0000 33.4637 0.0000 0.0000
# 5 0.0000 0.0000 0.0000 0.0000 32.3865 0.0000
# 6 0.0000 0.0000 0.0000 0.0000 0.0000 34.3499
#
#
#
# Elastic Compliance Matrix: (Units=1/GPa)
#
#
# Indices 1 2 3 4 5 6 
#
# 1 0.026655 -0.012365 -0.007743 0.000000 0.000000 0.000000
# 2 -0.012365 0.021721 -0.004041 0.000000 0.000000 0.000000
# 3 -0.007743 -0.004041 0.017448 0.000000 0.000000 0.000000
# 4 0.000000 0.000000 0.000000 0.029883 0.000000 0.000000
# 5 0.000000 0.000000 0.000000 0.000000 0.030877 0.000000
# 6 0.000000 0.000000 0.000000 0.000000 0.000000 0.029112
#
#
# Mechanical properties :
#
#
# Convention : Reuss Voigt Hill
#
# Bulk Modulus (GPa) = 57.05146 57.12165 57.08656
# Shear Modulus (GPa) = 23.82814 27.15262 25.49038
#
# Velocity S-wave (km/s) = 3.46274 3.69642 3.58149
# Velocity P-wave (km/s) = 6.68554 6.85290 6.76974
#
# Compressibility (1/GPa) = 0.01752803
#
# Stress axis : x y z
#
# Youngs Moduli (GPa) = 37.51583 46.03804 57.31354
#
# Poissons Ratio (x) = 0.56924 0.44377
# Poissons Ratio (y) = 0.46387 0.23159
# Poissons Ratio (z) = 0.29048 0.18603
#
# Static dielectric constant tensor:
#      x y z
#    x 3.884080 0.000000 0.000000 
#    y 0.000000 3.862390 0.000000 
#    z 0.000000 0.000000 3.614680 
# 
# 
# High freq. dielectric constant tensor:
#      x y z
#    x 1.785950 0.000000 0.000000 
#    y 0.000000 1.787650 0.000000 
#    z 0.000000 0.000000 1.760940 
# 
# From -- ./inp_files/11089.got.cif
#   From: 2010.06.25/outbox.cif.g09.slc.cpg/sg71_6_cif.got.tgz:11089.got - 2010.06.28 04:59:45.
