data_PCOD8290371
_publ_section_title
;
Structure prediction by ZEFSAII (Michael W. Deem and Ramdas Pophale) SiO2 
 PCOD8290371
Probable space group: I M M M
;
_chemical_formula_sum "Si O2"
_cell_formula_units_Z 96
_cell_length_a 15.172682
_cell_length_b 13.782172
_cell_length_c 24.353883
_cell_angle_alpha 90.000000
_cell_angle_beta 90.000000
_cell_angle_gamma 90.000000
_cell_volume 5092.701676
_symmetry_space_group_name_H-M "I M M M"
_symmetry_group_IT_number 71
_symmetry_cell_setting 'orthorhombic'
loop_
_space_group_symop_operation_xyz
x,y,z
-x,-y,z
x,-y,-z
-x,y,-z
-x,-y,-z
x,y,-z
-x,y,z
x,-y,z
1/2+x,1/2+y,1/2+z
1/2-x,1/2-y,1/2+z
1/2+x,1/2-y,1/2-z
1/2-x,1/2+y,1/2-z
1/2-x,1/2-y,1/2-z
1/2+x,1/2+y,1/2-z
1/2-x,1/2+y,1/2+z
1/2+x,1/2-y,1/2+z
loop_
_atom_site_type_symbol
_atom_site_label
_atom_site_fract_x
_atom_site_fract_y
_atom_site_fract_z
Si Si1 0.667223 0.693126 0.869946
Si Si2 0.500000 0.888116 0.391358
Si Si3 0.314535 0.888530 0.558889
Si Si4 0.313029 0.894928 0.167519
Si Si5 0.500000 0.385387 0.934841
Si Si6 0.000000 0.601158 0.718406
Si Si7 0.842867 0.887027 0.752251
Si Si8 0.500000 0.272391 0.297424
O O1 0.755760 0.644176 0.890580
O O2 0.690786 0.807386 0.875776
O O3 0.585479 0.663499 0.907927
O O4 0.650783 0.664412 0.806816
O O5 0.583865 0.869619 0.428912
O O6 0.500000 0.802675 0.347083
O O7 0.500000 0.000000 0.367871
O O8 0.291829 0.837769 0.500000
O O9 0.294364 0.000000 0.551765
O O10 0.414535 0.902791 0.181484
O O11 0.253951 0.872069 0.221700
O O12 0.281869 0.000000 0.142780
O O13 0.500000 0.500000 0.922287
O O14 0.500000 0.365601 0.000000
O O15 0.000000 0.500000 0.754764
O O16 0.000000 0.704135 0.745496
O O17 0.913296 0.839933 0.794536
O O18 0.865715 0.000000 0.744175
#
# Coordination Sequence:
#
# PCOD8290371 Si02
#       8
#    16   8  16  16   8   8  16   8
#     4  12  21  37  59  82 108 150 188 220 274 329
#     4  10  22  36  56  82 110 146 185 225 274 329
#     4  10  21  37  57  82 111 141 180 232 283 329
#     4  10  22  38  55  81 114 149 186 225 269 319
#     4  11  24  40  59  85 113 141 182 234 281 327
#     4  10  20  34  51  73 109 147 182 221 259 306
#     4  11  23  36  54  82 118 151 182 224 267 324
#     4  12  21  35  52  80 112 149 185 219 264 327
#
# _framework density 18.850504999999998
#
# number of rings (size 3 to 8) (size 9 to 14) (size 15 to 20)
#    0.000    1.250    1.667    5.250    2.333    2.333 
#    0.000    0.000    0.000    2.500    0.000    0.000 
#    0.000    6.667    0.000    0.000    0.000    0.000 
#
# Total GULP energy -594725.162596 kJ/mol
# GULP energy per Si atom -12390.107554 kJ/mol
# Density = 1.880760 g / cm^3
# Si number density = 18.850505 Si / 1000 Ang^3
#
#
#
# Elastic Constant Matrix: (Units=GPa)
#
#
# Indices 1 2 3 4 5 6 
#
# 1 111.0941 47.2869 33.7186 0.0000 0.0000 0.0000
# 2 47.2869 102.1305 53.1461 0.0000 0.0000 0.0000
# 3 33.7186 53.1461 82.3587 0.0000 0.0000 0.0000
# 4 0.0000 0.0000 0.0000 28.0030 0.0000 0.0000
# 5 0.0000 0.0000 0.0000 0.0000 33.3378 0.0000
# 6 0.0000 0.0000 0.0000 0.0000 0.0000 216.6923
#
#
#
# Elastic Compliance Matrix: (Units=1/GPa)
#
#
# Indices 1 2 3 4 5 6 
#
# 1 0.011405 -0.004292 -0.001900 0.000000 0.000000 0.000000
# 2 -0.004292 0.016357 -0.008798 0.000000 0.000000 0.000000
# 3 -0.001900 -0.008798 0.018597 0.000000 0.000000 0.000000
# 4 0.000000 0.000000 0.000000 0.035710 0.000000 0.000000
# 5 0.000000 0.000000 0.000000 0.000000 0.029996 0.000000
# 6 0.000000 0.000000 0.000000 0.000000 0.000000 0.004615
#
#
# Mechanical properties :
#
#
# Convention : Reuss Voigt Hill
#
# Bulk Modulus (GPa) = 61.05136 62.65406 61.85271
# Shear Modulus (GPa) = 32.86909 66.36873 49.61891
#
# Velocity S-wave (km/s) = 4.18026 5.94006 5.13609
# Velocity P-wave (km/s) = 7.46705 8.96411 8.24961
#
# Compressibility (1/GPa) = 0.01637965
#
# Stress axis : x y z
#
# Youngs Moduli (GPa) = 87.68231 61.13687 53.77210
#
# Poissons Ratio (x) = 0.26240 0.10215
# Poissons Ratio (y) = 0.37633 0.47308
# Poissons Ratio (z) = 0.16657 0.53787
#
# Static dielectric constant tensor:
#      x y z
#    x 3.700240 0.000000 0.000000 
#    y 0.000000 4.105350 0.000000 
#    z 0.000000 0.000000 3.293610 
# 
# 
# High freq. dielectric constant tensor:
#      x y z
#    x 1.752850 0.000000 0.000000 
#    y 0.000000 1.744100 0.000000 
#    z 0.000000 0.000000 1.699110 
# 
# From -- ./inp_files/59878.got.cif
#   From: 2010.06.25/outbox.cif.g09.slc.cpg/sg71_30_cif.got.tgz:59878.got - 2010.06.28 04:59:45.
