data_PCOD8290779
_publ_section_title
;
Structure prediction by ZEFSAII (Michael W. Deem and Ramdas Pophale) SiO2 
 PCOD8290779
Probable space group: I M M M
;
_chemical_formula_sum "Si O2"
_cell_formula_units_Z 104
_cell_length_a 28.695635
_cell_length_b 21.224972
_cell_length_c 9.211092
_cell_angle_alpha 90.000000
_cell_angle_beta 90.000000
_cell_angle_gamma 90.000000
_cell_volume 5610.144993
_symmetry_space_group_name_H-M "I M M M"
_symmetry_group_IT_number 71
_symmetry_cell_setting 'orthorhombic'
loop_
_space_group_symop_operation_xyz
x,y,z
-x,-y,z
x,-y,-z
-x,y,-z
-x,-y,-z
x,y,-z
-x,y,z
x,-y,z
1/2+x,1/2+y,1/2+z
1/2-x,1/2-y,1/2+z
1/2+x,1/2-y,1/2-z
1/2-x,1/2+y,1/2-z
1/2-x,1/2-y,1/2-z
1/2+x,1/2+y,1/2-z
1/2-x,1/2+y,1/2+z
1/2+x,1/2-y,1/2+z
loop_
_atom_site_type_symbol
_atom_site_label
_atom_site_fract_x
_atom_site_fract_y
_atom_site_fract_z
Si Si1 0.444955 0.500000 0.673014
Si Si2 0.895209 0.884851 0.669793
Si Si3 0.306759 0.689741 0.168514
Si Si4 0.551635 0.136557 0.669878
Si Si5 0.299846 0.815677 0.670763
Si Si6 0.554221 0.741550 0.835541
Si Si7 0.358649 0.068444 0.328469
O O1 0.500000 0.500000 0.719860
O O2 0.441103 0.500000 0.500000
O O3 0.417162 0.559911 0.734696
O O4 0.902173 0.901752 0.500000
O O5 0.840623 0.869759 0.705495
O O6 0.921394 0.821719 0.716513
O O7 0.320327 0.752901 0.255398
O O8 0.254097 0.671419 0.208954
O O9 0.312205 0.706835 0.000000
O O10 0.549898 0.148484 0.500000
O O11 0.500000 0.119336 0.729836
O O12 0.571355 0.200648 0.738387
O O13 0.587108 0.080819 0.710033
O O14 0.308064 0.808004 0.500000
O O15 0.326503 0.876342 0.736182
O O16 0.500000 0.729837 0.815780
O O17 0.567955 0.757500 0.000000
O O18 0.351486 0.067090 0.500000
O O19 0.345153 0.000000 0.262620
#
# Coordination Sequence:
#
# PCOD8290779 Si02
#       7
#     8  16  16  16  16  16  16
#     4  11  25  41  55  75 105 139 175 215 262 319
#     4  10  20  35  54  76 101 133 172 211 254 307
#     4   9  18  32  52  79 103 126 164 211 256 302
#     4   9  17  28  44  68  95 123 160 205 246 285
#     4   9  17  31  51  76 102 132 167 206 256 306
#     4   9  17  29  47  70  94 122 156 195 242 292
#     4   9  17  29  45  67  95 128 164 198 237 287
#
# _framework density 18.537845999999998
#
# number of rings (size 3 to 8) (size 9 to 14) (size 15 to 20)
#    0.000    2.692    0.000    1.615    0.000    2.769 
#    1.385    3.077    0.000    1.846    0.000    2.154 
#    0.000    0.000    0.000    0.000    0.000    0.000 
#
# Total GULP energy -644516.190894 kJ/mol
# GULP energy per Si atom -12394.542133 kJ/mol
# Density = 1.849565 g / cm^3
# Si number density = 18.537846 Si / 1000 Ang^3
#
#
#
# Elastic Constant Matrix: (Units=GPa)
#
#
# Indices 1 2 3 4 5 6 
#
# 1 91.9994 74.3261 30.4670 0.0000 0.0000 0.0000
# 2 74.3261 119.9070 41.2147 0.0000 0.0000 0.0000
# 3 30.4670 41.2147 36.3623 0.0000 0.0000 0.0000
# 4 0.0000 0.0000 0.0000 22.3032 0.0000 0.0000
# 5 0.0000 0.0000 0.0000 0.0000 19.2309 0.0000
# 6 0.0000 0.0000 0.0000 0.0000 0.0000 28.2464
#
#
#
# Elastic Compliance Matrix: (Units=1/GPa)
#
#
# Indices 1 2 3 4 5 6 
#
# 1 0.022303 -0.012126 -0.004943 0.000000 0.000000 0.000000
# 2 -0.012126 0.020255 -0.012798 0.000000 0.000000 0.000000
# 3 -0.004943 -0.012798 0.046149 0.000000 0.000000 0.000000
# 4 0.000000 0.000000 0.000000 0.044837 0.000000 0.000000
# 5 0.000000 0.000000 0.000000 0.000000 0.052000 0.000000
# 6 0.000000 0.000000 0.000000 0.000000 0.000000 0.035403
#
#
# Mechanical properties :
#
#
# Convention : Reuss Voigt Hill
#
# Bulk Modulus (GPa) = 34.51538 60.03161 47.27349
# Shear Modulus (GPa) = 17.22129 20.77349 18.99739
#
# Velocity S-wave (km/s) = 3.05122 3.35117 3.20471
# Velocity P-wave (km/s) = 5.57428 6.88675 6.26498
#
# Compressibility (1/GPa) = 0.02897259
#
# Stress axis : x y z
#
# Youngs Moduli (GPa) = 44.83683 49.37005 21.66899
#
# Poissons Ratio (x) = 0.59865 0.10712
# Poissons Ratio (y) = 0.54368 0.27733
# Poissons Ratio (z) = 0.22164 0.63185
#
# Static dielectric constant tensor:
#      x y z
#    x 3.744020 0.000000 0.000000 
#    y 0.000000 3.669770 0.000000 
#    z 0.000000 0.000000 3.211310 
# 
# 
# High freq. dielectric constant tensor:
#      x y z
#    x 1.734000 0.000000 0.000000 
#    y 0.000000 1.711760 0.000000 
#    z 0.000000 0.000000 1.690870 
# 
# From -- ./inp_files/16945.got.cif
#   From: 2010.06.25/outbox.cif.g09.slc.cpg/sg71_9_cif.got.tgz:16945.got - 2010.06.28 04:59:45.
