data_PCOD8290599
_publ_section_title
;
Structure prediction by ZEFSAII (Michael W. Deem and Ramdas Pophale) SiO2 
 PCOD8290599
Probable space group: I M M M
;
_chemical_formula_sum "Si O2"
_cell_formula_units_Z 80
_cell_length_a 18.304561
_cell_length_b 25.638937
_cell_length_c 8.905513
_cell_angle_alpha 90.000000
_cell_angle_beta 90.000000
_cell_angle_gamma 90.000000
_cell_volume 4179.441731
_symmetry_space_group_name_H-M "I M M M"
_symmetry_group_IT_number 71
_symmetry_cell_setting 'orthorhombic'
loop_
_space_group_symop_operation_xyz
x,y,z
-x,-y,z
x,-y,-z
-x,y,-z
-x,-y,-z
x,y,-z
-x,y,z
x,-y,z
1/2+x,1/2+y,1/2+z
1/2-x,1/2-y,1/2+z
1/2+x,1/2-y,1/2-z
1/2-x,1/2+y,1/2-z
1/2-x,1/2-y,1/2-z
1/2+x,1/2+y,1/2-z
1/2-x,1/2+y,1/2+z
1/2+x,1/2-y,1/2+z
loop_
_atom_site_type_symbol
_atom_site_label
_atom_site_fract_x
_atom_site_fract_y
_atom_site_fract_z
Si Si1 0.673505 0.098735 0.322843
Si Si2 0.582133 0.500000 0.678611
Si Si3 0.581638 0.000000 0.678252
Si Si4 0.084463 0.807015 0.674917
Si Si5 0.669724 0.600282 0.322070
Si Si6 0.083825 0.700203 0.826979
O O1 0.687270 0.095397 0.500000
O O2 0.749236 0.095023 0.238140
O O3 0.633876 0.152170 0.277635
O O4 0.623680 0.051239 0.265119
O O5 0.500000 0.500000 0.743901
O O6 0.580549 0.500000 0.500000
O O7 0.623285 0.448748 0.739035
O O8 0.500000 0.000000 0.746716
O O9 0.576921 0.000000 0.500000
O O10 0.100980 0.813063 0.500000
O O11 0.133700 0.846901 0.765303
O O12 0.106550 0.749027 0.725161
O O13 0.000000 0.817903 0.713626
O O14 0.671330 0.601155 0.500000
O O15 0.000000 0.683931 0.799552
O O16 0.096640 0.715388 0.000000
#
# Coordination Sequence:
#
# PCOD8290599 Si02
#       6
#    16   8   8  16  16  16
#     4  10  20  34  54  81 113 144 177 222 270 316
#     4   9  19  36  57  79 102 133 176 220 260 309
#     4   9  17  32  57  85 110 141 182 225 270 320
#     4  10  21  37  57  81 108 138 176 224 273 318
#     4  11  22  36  56  80 109 144 179 217 264 321
#     4   9  18  34  56  80 106 141 184 223 262 314
#
# _framework density 19.141313
#
# number of rings (size 3 to 8) (size 9 to 14) (size 15 to 20)
#    0.000    2.200    0.000    3.000    0.000    6.000 
#    0.000    1.500    0.000    6.000    0.000    0.000 
#    0.000    0.000    0.000    0.000    0.000    0.000 
#
# Total GULP energy -496144.744220 kJ/mol
# GULP energy per Si atom -12403.618605 kJ/mol
# Density = 1.909775 g / cm^3
# Si number density = 19.141313 Si / 1000 Ang^3
#
#
#
# Elastic Constant Matrix: (Units=GPa)
#
#
# Indices 1 2 3 4 5 6 
#
# 1 163.5033 100.4995 50.1785 0.0000 0.0000 0.0000
# 2 100.4995 146.7683 43.5580 0.0000 0.0000 0.0000
# 3 50.1785 43.5580 50.1199 0.0000 0.0000 0.0000
# 4 0.0000 0.0000 0.0000 17.0636 0.0000 0.0000
# 5 0.0000 0.0000 0.0000 0.0000 30.7003 0.0000
# 6 0.0000 0.0000 0.0000 0.0000 0.0000 23.5031
#
#
#
# Elastic Compliance Matrix: (Units=1/GPa)
#
#
# Indices 1 2 3 4 5 6 
#
# 1 0.011969 -0.006252 -0.006550 0.000000 0.000000 0.000000
# 2 -0.006252 0.012447 -0.004558 0.000000 0.000000 0.000000
# 3 -0.006550 -0.004558 0.030471 0.000000 0.000000 0.000000
# 4 0.000000 0.000000 0.000000 0.058604 0.000000 0.000000
# 5 0.000000 0.000000 0.000000 0.000000 0.032573 0.000000
# 6 0.000000 0.000000 0.000000 0.000000 0.000000 0.042548
#
#
# Mechanical properties :
#
#
# Convention : Reuss Voigt Hill
#
# Bulk Modulus (GPa) = 49.58489 83.20704 66.39597
# Shear Modulus (GPa) = 21.73401 25.33044 23.53223
#
# Velocity S-wave (km/s) = 3.37330 3.64172 3.51008
# Velocity P-wave (km/s) = 6.41351 7.82605 7.15472
#
# Compressibility (1/GPa) = 0.02016744
#
# Stress axis : x y z
#
# Youngs Moduli (GPa) = 83.54952 80.33851 32.81821
#
# Poissons Ratio (x) = 0.50227 0.21494
# Poissons Ratio (y) = 0.52235 0.14960
# Poissons Ratio (z) = 0.54721 0.36621
#
# Static dielectric constant tensor:
#      x y z
#    x 3.608610 0.000000 0.000000 
#    y 0.000000 3.659290 0.000000 
#    z 0.000000 0.000000 3.271620 
# 
# 
# High freq. dielectric constant tensor:
#      x y z
#    x 1.752460 0.000000 0.000000 
#    y 0.000000 1.760180 0.000000 
#    z 0.000000 0.000000 1.722790 
# 
# From -- ./inp_files/8388.got.cif
#   From: 2010.06.25/outbox.cif.g09.slc.cpg/sg71_5_cif.got.tgz:8388.got - 2010.06.28 04:59:45.
