data_PCOD8290938
_publ_section_title
;
Structure prediction by ZEFSAII (Michael W. Deem and Ramdas Pophale) SiO2 
 PCOD8290938
Probable space group: I M M M
;
_chemical_formula_sum "Si O2"
_cell_formula_units_Z 104
_cell_length_a 20.901462
_cell_length_b 28.758875
_cell_length_c 9.045292
_cell_angle_alpha 90.000000
_cell_angle_beta 90.000000
_cell_angle_gamma 90.000000
_cell_volume 5437.147933
_symmetry_space_group_name_H-M "I M M M"
_symmetry_group_IT_number 71
_symmetry_cell_setting 'orthorhombic'
loop_
_space_group_symop_operation_xyz
x,y,z
-x,-y,z
x,-y,-z
-x,y,-z
-x,-y,-z
x,y,-z
-x,y,z
x,-y,z
1/2+x,1/2+y,1/2+z
1/2-x,1/2-y,1/2+z
1/2+x,1/2-y,1/2-z
1/2-x,1/2+y,1/2-z
1/2-x,1/2-y,1/2-z
1/2+x,1/2+y,1/2-z
1/2-x,1/2+y,1/2+z
1/2+x,1/2-y,1/2+z
loop_
_atom_site_type_symbol
_atom_site_label
_atom_site_fract_x
_atom_site_fract_y
_atom_site_fract_z
Si Si1 0.624282 0.890175 0.674402
Si Si2 0.315459 0.299193 0.826312
Si Si3 0.730110 0.054294 0.832886
Si Si4 0.570956 0.363671 0.829260
Si Si5 0.375506 0.448390 0.326485
Si Si6 0.185232 0.692494 0.326176
Si Si7 0.500000 0.946717 0.324432
O O1 0.620974 0.882334 0.500000
O O2 0.686277 0.919958 0.715133
O O3 0.630480 0.839840 0.752918
O O4 0.561954 0.918183 0.731989
O O5 0.377776 0.326618 0.770033
O O6 0.254978 0.320028 0.738997
O O7 0.329695 0.245737 0.785721
O O8 0.301989 0.304901 0.000000
O O9 0.802738 0.065089 0.787116
O O10 0.715748 0.000000 0.823835
O O11 0.716353 0.072178 0.000000
O O12 0.500000 0.343427 0.800758
O O13 0.576438 0.412678 0.747844
O O14 0.583382 0.373338 0.000000
O O15 0.386013 0.447010 0.500000
O O16 0.390976 0.500000 0.266461
O O17 0.185918 0.683459 0.500000
O O18 0.500000 0.949411 0.500000
O O19 0.500000 0.000000 0.261472
#
# Coordination Sequence:
#
# PCOD8290938 Si02
#       7
#    16  16  16  16  16  16   8
#     4  11  21  34  54  79 107 142 183 225 270 324
#     4   9  19  37  58  81 107 140 177 216 267 325
#     4   9  18  33  53  78 107 136 171 221 274 317
#     4  10  21  36  53  75 104 137 175 215 256 303
#     4   9  19  35  53  75 105 139 173 211 257 310
#     4  10  20  35  57  84 110 136 171 221 276 324
#     4   9  20  38  55  73 105 149 191 229 272 325
#
# _framework density 19.127676000000001
#
# number of rings (size 3 to 8) (size 9 to 14) (size 15 to 20)
#    0.000    2.385    0.000    3.231    0.000    6.154 
#    1.385    4.615    0.000    2.769    0.000    0.000 
#    0.000    0.000    0.000    0.000    0.000    0.000 
#
# Total GULP energy -644815.714485 kJ/mol
# GULP energy per Si atom -12400.302202 kJ/mol
# Density = 1.908414 g / cm^3
# Si number density = 19.127676 Si / 1000 Ang^3
#
#
#
# Elastic Constant Matrix: (Units=GPa)
#
#
# Indices 1 2 3 4 5 6 
#
# 1 102.2039 65.7576 35.7519 0.0000 0.0000 0.0000
# 2 65.7576 107.0072 30.8639 0.0000 0.0000 0.0000
# 3 35.7519 30.8639 50.1042 0.0000 0.0000 0.0000
# 4 0.0000 0.0000 0.0000 32.5005 0.0000 0.0000
# 5 0.0000 0.0000 0.0000 0.0000 23.7872 0.0000
# 6 0.0000 0.0000 0.0000 0.0000 0.0000 32.7853
#
#
#
# Elastic Compliance Matrix: (Units=1/GPa)
#
#
# Indices 1 2 3 4 5 6 
#
# 1 0.018196 -0.009044 -0.007413 0.000000 0.000000 0.000000
# 2 -0.009044 0.015859 -0.003316 0.000000 0.000000 0.000000
# 3 -0.007413 -0.003316 0.027291 0.000000 0.000000 0.000000
# 4 0.000000 0.000000 0.000000 0.030769 0.000000 0.000000
# 5 0.000000 0.000000 0.000000 0.000000 0.042039 0.000000
# 6 0.000000 0.000000 0.000000 0.000000 0.000000 0.030501
#
#
# Mechanical properties :
#
#
# Convention : Reuss Voigt Hill
#
# Bulk Modulus (GPa) = 45.87056 58.22910 52.04983
# Shear Modulus (GPa) = 23.64426 26.27739 24.96083
#
# Velocity S-wave (km/s) = 3.51968 3.71049 3.61634
# Velocity P-wave (km/s) = 6.36795 6.99038 6.68641
#
# Compressibility (1/GPa) = 0.02180047
#
# Stress axis : x y z
#
# Youngs Moduli (GPa) = 54.95647 63.05536 36.64263
#
# Poissons Ratio (x) = 0.57025 0.27163
# Poissons Ratio (y) = 0.49701 0.12150
# Poissons Ratio (z) = 0.40740 0.20909
#
# Static dielectric constant tensor:
#      x y z
#    x 3.499460 0.000000 0.000000 
#    y 0.000000 3.671920 0.000000 
#    z 0.000000 0.000000 3.314470 
# 
# 
# High freq. dielectric constant tensor:
#      x y z
#    x 1.735860 0.000000 0.000000 
#    y 0.000000 1.754340 0.000000 
#    z 0.000000 0.000000 1.731020 
# 
# From -- ./inp_files/11055.got.cif
#   From: 2010.06.25/outbox.cif.g09.slc.cpg/sg71_6_cif.got.tgz:11055.got - 2010.06.28 04:59:45.
