data_PCOD8290939
_publ_section_title
;
Structure prediction by ZEFSAII (Michael W. Deem and Ramdas Pophale) SiO2 
 PCOD8290939
Probable space group: I M M M
;
_chemical_formula_sum "Si O2"
_cell_formula_units_Z 88
_cell_length_a 9.244559
_cell_length_b 18.976254
_cell_length_c 24.926278
_cell_angle_alpha 90.000000
_cell_angle_beta 90.000000
_cell_angle_gamma 90.000000
_cell_volume 4372.744656
_symmetry_space_group_name_H-M "I M M M"
_symmetry_group_IT_number 71
_symmetry_cell_setting 'orthorhombic'
loop_
_space_group_symop_operation_xyz
x,y,z
-x,-y,z
x,-y,-z
-x,y,-z
-x,-y,-z
x,y,-z
-x,y,z
x,-y,z
1/2+x,1/2+y,1/2+z
1/2-x,1/2-y,1/2+z
1/2+x,1/2-y,1/2-z
1/2-x,1/2+y,1/2-z
1/2-x,1/2-y,1/2-z
1/2+x,1/2+y,1/2-z
1/2-x,1/2+y,1/2+z
1/2+x,1/2-y,1/2+z
loop_
_atom_site_type_symbol
_atom_site_label
_atom_site_fract_x
_atom_site_fract_y
_atom_site_fract_z
Si Si1 0.167595 0.698157 0.347375
Si Si2 0.828409 0.079533 0.441455
Si Si3 0.667802 0.355663 0.167350
Si Si4 0.169286 0.862212 0.938107
Si Si5 0.668326 0.919732 0.763989
Si Si6 0.661313 0.000000 0.063326
O O1 0.192980 0.773397 0.319019
O O2 0.264167 0.699176 0.401437
O O3 0.222594 0.635555 0.308716
O O4 0.000000 0.688342 0.363432
O O5 0.770322 0.106186 0.500000
O O6 0.772598 0.128501 0.392785
O O7 0.000000 0.081091 0.442856
O O8 0.773619 0.000000 0.431323
O O9 0.500000 0.375873 0.171663
O O10 0.751017 0.404829 0.208700
O O11 0.250598 0.932217 0.917813
O O12 0.000000 0.872017 0.928154
O O13 0.202352 0.844865 0.000000
O O14 0.500000 0.907903 0.753177
O O15 0.700724 0.000000 0.782871
O O16 0.500000 0.000000 0.089574
O O17 0.647191 0.000000 0.000000
#
# Coordination Sequence:
#
# PCOD8290939 Si02
#       6
#    16  16  16  16  16   8
#     4  10  22  37  55  81 111 147 191 235 282 341
#     4   8  14  26  47  77 110 139 169 214 273 331
#     4  10  20  35  57  84 110 140 184 234 282 336
#     4  10  21  36  54  80 114 149 188 234 282 332
#     4  10  22  39  57  78 107 144 185 231 286 347
#     4   9  17  31  53  77 103 141 185 229 278 329
#
# _framework density 20.124661
#
# number of rings (size 3 to 8) (size 9 to 14) (size 15 to 20)
#    0.000    2.455    0.000    2.455    1.273    5.455 
#    0.000    1.818    0.000    0.545    0.000    2.545 
#    0.000    0.000    0.000    0.000    0.000    0.000 
#
# Total GULP energy -545509.283678 kJ/mol
# GULP energy per Si atom -12397.938265 kJ/mol
# Density = 2.007886 g / cm^3
# Si number density = 20.124661 Si / 1000 Ang^3
#
#
#
# Elastic Constant Matrix: (Units=GPa)
#
#
# Indices 1 2 3 4 5 6 
#
# 1 56.8791 21.4689 32.8460 0.0000 0.0000 0.0000
# 2 21.4689 94.7808 46.2920 0.0000 0.0000 0.0000
# 3 32.8460 46.2920 109.7283 0.0000 0.0000 0.0000
# 4 0.0000 0.0000 0.0000 33.8681 0.0000 0.0000
# 5 0.0000 0.0000 0.0000 0.0000 32.7136 0.0000
# 6 0.0000 0.0000 0.0000 0.0000 0.0000 23.6179
#
#
#
# Elastic Compliance Matrix: (Units=1/GPa)
#
#
# Indices 1 2 3 4 5 6 
#
# 1 0.021609 -0.002186 -0.005546 0.000000 0.000000 0.000000
# 2 -0.002186 0.013510 -0.005045 0.000000 0.000000 0.000000
# 3 -0.005546 -0.005045 0.012902 0.000000 0.000000 0.000000
# 4 0.000000 0.000000 0.000000 0.029526 0.000000 0.000000
# 5 0.000000 0.000000 0.000000 0.000000 0.030568 0.000000
# 6 0.000000 0.000000 0.000000 0.000000 0.000000 0.042341
#
#
# Mechanical properties :
#
#
# Convention : Reuss Voigt Hill
#
# Bulk Modulus (GPa) = 44.51101 51.40025 47.95563
# Shear Modulus (GPa) = 27.24798 28.75868 28.00333
#
# Velocity S-wave (km/s) = 3.68361 3.78435 3.73432
# Velocity P-wave (km/s) = 6.34489 6.68516 6.51725
#
# Compressibility (1/GPa) = 0.02246635
#
# Stress axis : x y z
#
# Youngs Moduli (GPa) = 46.27703 74.01964 77.50666
#
# Poissons Ratio (x) = 0.16179 0.42987
# Poissons Ratio (y) = 0.10115 0.39104
# Poissons Ratio (z) = 0.25667 0.37345
#
# Static dielectric constant tensor:
#      x y z
#    x 3.371140 0.000000 0.000000 
#    y 0.000000 3.680360 0.000000 
#    z 0.000000 0.000000 3.778130 
# 
# 
# High freq. dielectric constant tensor:
#      x y z
#    x 1.755900 0.000000 0.000000 
#    y 0.000000 1.783830 0.000000 
#    z 0.000000 0.000000 1.790090 
# 
# From -- ./inp_files/10498.got.cif
#   From: 2010.06.25/outbox.cif.g09.slc.cpg/sg71_6_cif.got.tgz:10498.got - 2010.06.28 04:59:45.
