data_PCOD8290457
_publ_section_title
;
Structure prediction by ZEFSAII (Michael W. Deem and Ramdas Pophale) SiO2 
 PCOD8290457
Probable space group: I M M M
;
_chemical_formula_sum "Si O2"
_cell_formula_units_Z 88
_cell_length_a 19.561046
_cell_length_b 8.818444
_cell_length_c 30.434410
_cell_angle_alpha 90.000000
_cell_angle_beta 90.000000
_cell_angle_gamma 90.000000
_cell_volume 5249.874513
_symmetry_space_group_name_H-M "I M M M"
_symmetry_group_IT_number 71
_symmetry_cell_setting 'orthorhombic'
loop_
_space_group_symop_operation_xyz
x,y,z
-x,-y,z
x,-y,-z
-x,y,-z
-x,-y,-z
x,y,-z
-x,y,z
x,-y,z
1/2+x,1/2+y,1/2+z
1/2-x,1/2-y,1/2+z
1/2+x,1/2-y,1/2-z
1/2-x,1/2+y,1/2-z
1/2-x,1/2-y,1/2-z
1/2+x,1/2+y,1/2-z
1/2-x,1/2+y,1/2+z
1/2+x,1/2-y,1/2+z
loop_
_atom_site_type_symbol
_atom_site_label
_atom_site_fract_x
_atom_site_fract_y
_atom_site_fract_z
Si Si1 0.712594 0.678483 0.207636
Si Si2 0.850964 0.678222 0.051044
Si Si3 0.074925 0.169573 0.819554
Si Si4 0.422925 0.176031 0.769957
Si Si5 0.000000 0.320358 0.951561
Si Si6 0.791342 0.826617 0.870808
O O1 0.719405 0.500000 0.212571
O O2 0.750000 0.750000 0.250000
O O3 0.633157 0.726087 0.204238
O O4 0.744502 0.730882 0.161793
O O5 0.840846 0.500000 0.057221
O O6 0.791886 0.761520 0.079562
O O7 0.926899 0.729131 0.069337
O O8 0.841631 0.723728 0.000000
O O9 0.086272 0.292367 0.781617
O O10 0.130489 0.192832 0.856534
O O11 0.000000 0.192874 0.841177
O O12 0.081199 0.000000 0.798896
O O13 0.500000 0.221066 0.785138
O O14 0.408779 0.000000 0.778627
O O15 0.000000 0.500000 0.954971
O O16 0.000000 0.249854 0.000000
O O17 0.766119 0.000000 0.870484
#
# Coordination Sequence:
#
# PCOD8290457 Si02
#       6
#    16  16  16  16   8  16
#     4  12  23  36  53  73 101 134 169 209 252 298
#     4   9  18  33  50  68  93 127 168 212 256 302
#     4   9  18  31  45  64  94 132 171 210 251 294
#     4  10  20  34  53  75  99 130 167 205 247 297
#     4   7  12  26  47  67  89 123 165 209 255 297
#     4  11  22  33  49  72  98 131 168 211 258 303
#
# _framework density 16.762305000000001
#
# number of rings (size 3 to 8) (size 9 to 14) (size 15 to 20)
#    0.000    2.091    1.818    3.818    1.273    2.182 
#    0.000    0.000    0.000    1.636    0.000    0.000 
#    0.000    0.727    0.000    7.636    0.000    3.273 
#
# Total GULP energy -545211.842553 kJ/mol
# GULP energy per Si atom -12391.178240 kJ/mol
# Density = 1.672415 g / cm^3
# Si number density = 16.762305 Si / 1000 Ang^3
#
#
#
# Elastic Constant Matrix: (Units=GPa)
#
#
# Indices 1 2 3 4 5 6 
#
# 1 78.8844 45.4328 40.5423 0.0000 0.0000 0.0000
# 2 45.4328 94.0375 39.3037 0.0000 0.0000 0.0000
# 3 40.5423 39.3037 75.0407 0.0000 0.0000 0.0000
# 4 0.0000 0.0000 0.0000 23.4875 0.0000 0.0000
# 5 0.0000 0.0000 0.0000 0.0000 26.4902 0.0000
# 6 0.0000 0.0000 0.0000 0.0000 0.0000 24.5160
#
#
#
# Elastic Compliance Matrix: (Units=1/GPa)
#
#
# Indices 1 2 3 4 5 6 
#
# 1 0.020405 -0.006722 -0.007503 0.000000 0.000000 0.000000
# 2 -0.006722 0.015829 -0.004659 0.000000 0.000000 0.000000
# 3 -0.007503 -0.004659 0.019820 0.000000 0.000000 0.000000
# 4 0.000000 0.000000 0.000000 0.042576 0.000000 0.000000
# 5 0.000000 0.000000 0.000000 0.000000 0.037750 0.000000
# 6 0.000000 0.000000 0.000000 0.000000 0.000000 0.040790
#
#
# Mechanical properties :
#
#
# Convention : Reuss Voigt Hill
#
# Bulk Modulus (GPa) = 54.68920 55.39114 55.04017
# Shear Modulus (GPa) = 22.62112 23.07764 22.84938
#
# Velocity S-wave (km/s) = 3.67757 3.71449 3.69608
# Velocity P-wave (km/s) = 7.12249 7.17729 7.14994
#
# Compressibility (1/GPa) = 0.01828515
#
# Stress axis : x y z
#
# Youngs Moduli (GPa) = 49.00872 63.17518 50.45412
#
# Poissons Ratio (x) = 0.42467 0.37856
# Poissons Ratio (y) = 0.32944 0.23506
# Poissons Ratio (z) = 0.36772 0.29433
#
# Static dielectric constant tensor:
#      x y z
#    x 3.261300 0.000000 0.000000 
#    y 0.000000 3.152660 0.000000 
#    z 0.000000 0.000000 2.865860 
# 
# 
# High freq. dielectric constant tensor:
#      x y z
#    x 1.629120 0.000000 0.000000 
#    y 0.000000 1.649510 0.000000 
#    z 0.000000 0.000000 1.615060 
# 
# From -- ./inp_files/16859.got.cif
#   From: 2010.06.25/outbox.cif.g09.slc.cpg/sg71_9_cif.got.tgz:16859.got - 2010.06.28 04:59:45.
