data_PCOD8290304
_publ_section_title
;
Structure prediction by ZEFSAII (Michael W. Deem and Ramdas Pophale) SiO2 
 PCOD8290304
Probable space group: I M M M
;
_chemical_formula_sum "Si O2"
_cell_formula_units_Z 104
_cell_length_a 21.554068
_cell_length_b 9.001050
_cell_length_c 27.018363
_cell_angle_alpha 90.000000
_cell_angle_beta 90.000000
_cell_angle_gamma 90.000000
_cell_volume 5241.812174
_symmetry_space_group_name_H-M "I M M M"
_symmetry_group_IT_number 71
_symmetry_cell_setting 'orthorhombic'
loop_
_space_group_symop_operation_xyz
x,y,z
-x,-y,z
x,-y,-z
-x,y,-z
-x,-y,-z
x,y,-z
-x,y,z
x,-y,z
1/2+x,1/2+y,1/2+z
1/2-x,1/2-y,1/2+z
1/2+x,1/2-y,1/2-z
1/2-x,1/2+y,1/2-z
1/2-x,1/2-y,1/2-z
1/2+x,1/2+y,1/2-z
1/2-x,1/2+y,1/2+z
1/2+x,1/2-y,1/2+z
loop_
_atom_site_type_symbol
_atom_site_label
_atom_site_fract_x
_atom_site_fract_y
_atom_site_fract_z
Si Si1 0.927132 0.675668 0.753038
Si Si2 0.067432 0.675544 0.865346
Si Si3 0.612529 0.838456 0.945794
Si Si4 0.500000 0.662440 0.940769
Si Si5 0.801978 0.822188 0.715192
Si Si6 0.832890 0.325082 0.943126
Si Si7 0.231879 0.333915 0.616839
O O1 0.919393 0.500000 0.744071
O O2 0.911952 0.719340 0.809905
O O3 0.872779 0.759823 0.722331
O O4 0.000000 0.720052 0.740310
O O5 0.063529 0.500000 0.868913
O O6 0.113183 0.736610 0.907231
O O7 0.000000 0.744954 0.876453
O O8 0.561460 0.736742 0.919652
O O9 0.666095 0.850232 0.907232
O O10 0.582574 0.000000 0.953445
O O11 0.633495 0.776001 0.000000
O O12 0.500000 0.500000 0.919026
O O13 0.500000 0.672936 0.000000
O O14 0.750000 0.750000 0.750000
O O15 0.775041 0.779830 0.661719
O O16 0.803083 0.000000 0.721473
O O17 0.821534 0.500000 0.936088
O O18 0.773084 0.235475 0.926495
O O19 0.849309 0.287729 0.000000
O O20 0.255088 0.500000 0.633055
#
# Coordination Sequence:
#
# PCOD8290304 Si02
#       7
#    16  16  16   8  16  16  16
#     4   9  18  36  62  89 119 158 203 248 296 355
#     4   8  15  30  54  83 114 150 191 232 276 333
#     4   9  18  34  55  77 104 141 183 223 268 328
#     4   9  17  29  49  77 105 135 173 219 269 317
#     4  12  25  41  62  87 117 152 195 247 303 362
#     4  10  20  33  53  84 120 156 194 240 291 342
#     4  11  23  39  58  81 109 147 193 238 291 347
#
# _framework density 19.840467
#
# number of rings (size 3 to 8) (size 9 to 14) (size 15 to 20)
#    0.000    2.231    0.000    4.385    0.000    4.923 
#    1.385    3.077    0.000    1.385    0.000    1.077 
#    0.000    0.000    0.000    0.000    0.000    0.000 
#
# Total GULP energy -644226.538860 kJ/mol
# GULP energy per Si atom -12388.971901 kJ/mol
# Density = 1.979531 g / cm^3
# Si number density = 19.840467 Si / 1000 Ang^3
#
#
#
# Elastic Constant Matrix: (Units=GPa)
#
#
# Indices 1 2 3 4 5 6 
#
# 1 73.4369 36.6453 8.7697 0.0000 0.0000 0.0000
# 2 36.6453 92.0787 21.1099 0.0000 0.0000 0.0000
# 3 8.7697 21.1099 61.1805 0.0000 0.0000 0.0000
# 4 0.0000 0.0000 0.0000 24.3970 0.0000 0.0000
# 5 0.0000 0.0000 0.0000 0.0000 40.5616 0.0000
# 6 0.0000 0.0000 0.0000 0.0000 0.0000 23.9223
#
#
#
# Elastic Compliance Matrix: (Units=1/GPa)
#
#
# Indices 1 2 3 4 5 6 
#
# 1 0.016992 -0.006737 -0.000111 0.000000 0.000000 0.000000
# 2 -0.006737 0.014464 -0.004025 0.000000 0.000000 0.000000
# 3 -0.000111 -0.004025 0.017750 0.000000 0.000000 0.000000
# 4 0.000000 0.000000 0.000000 0.040989 0.000000 0.000000
# 5 0.000000 0.000000 0.000000 0.000000 0.024654 0.000000
# 6 0.000000 0.000000 0.000000 0.000000 0.000000 0.041802
#
#
# Mechanical properties :
#
#
# Convention : Reuss Voigt Hill
#
# Bulk Modulus (GPa) = 36.41686 39.97175 38.19431
# Shear Modulus (GPa) = 26.65947 28.45426 27.55687
#
# Velocity S-wave (km/s) = 3.66962 3.79113 3.73087
# Velocity P-wave (km/s) = 6.02905 6.27327 6.15237
#
# Compressibility (1/GPa) = 0.02745981
#
# Stress axis : x y z
#
# Youngs Moduli (GPa) = 58.85043 69.13585 56.33855
#
# Poissons Ratio (x) = 0.46577 0.00626
# Poissons Ratio (y) = 0.39648 0.22677
# Poissons Ratio (z) = 0.00654 0.27828
#
# Static dielectric constant tensor:
#      x y z
#    x 4.021490 0.000000 0.000000 
#    y 0.000000 3.857270 0.000000 
#    z 0.000000 0.000000 4.320740 
# 
# 
# High freq. dielectric constant tensor:
#      x y z
#    x 1.782540 0.000000 0.000000 
#    y 0.000000 1.756160 0.000000 
#    z 0.000000 0.000000 1.768260 
# 
# From -- ./inp_files/66403.got.cif
#   From: 2010.06.25/outbox.cif.g09.slc.cpg/sg71_34_cif.got.tgz:66403.got - 2010.06.28 04:59:45.
