data_PCOD8290890
_publ_section_title
;
Structure prediction by ZEFSAII (Michael W. Deem and Ramdas Pophale) SiO2 
 PCOD8290890
Probable space group: I M M M
;
_chemical_formula_sum "Si O2"
_cell_formula_units_Z 72
_cell_length_a 7.730266
_cell_length_b 23.131054
_cell_length_c 21.669615
_cell_angle_alpha 90.000000
_cell_angle_beta 90.000000
_cell_angle_gamma 90.000000
_cell_volume 3874.726529
_symmetry_space_group_name_H-M "I M M M"
_symmetry_group_IT_number 71
_symmetry_cell_setting 'orthorhombic'
loop_
_space_group_symop_operation_xyz
x,y,z
-x,-y,z
x,-y,-z
-x,y,-z
-x,-y,-z
x,y,-z
-x,y,z
x,-y,z
1/2+x,1/2+y,1/2+z
1/2-x,1/2-y,1/2+z
1/2+x,1/2-y,1/2-z
1/2-x,1/2+y,1/2-z
1/2-x,1/2-y,1/2-z
1/2+x,1/2+y,1/2-z
1/2-x,1/2+y,1/2+z
1/2+x,1/2-y,1/2+z
loop_
_atom_site_type_symbol
_atom_site_label
_atom_site_fract_x
_atom_site_fract_y
_atom_site_fract_z
Si Si1 0.000000 0.433059 0.669061
Si Si2 0.200977 0.432430 0.000000
Si Si3 0.000000 0.664123 0.427379
Si Si4 0.308222 0.253928 0.429352
Si Si5 0.196959 0.136601 0.617836
Si Si6 0.699185 0.433178 0.762371
O O1 0.173531 0.417071 0.706610
O O2 0.000000 0.500000 0.650269
O O3 0.000000 0.397137 0.606244
O O4 0.286212 0.406235 0.939408
O O5 0.238589 0.500000 0.000000
O O6 0.000000 0.417112 0.000000
O O7 0.830372 0.699453 0.406110
O O8 0.000000 0.651581 0.500000
O O9 0.265672 0.236884 0.500000
O O10 0.500000 0.281132 0.423073
O O11 0.305102 0.195249 0.389849
O O12 0.260248 0.104045 0.679090
O O13 0.000000 0.155862 0.624409
O O14 0.500000 0.420031 0.743422
O O15 0.721511 0.500000 0.780878
#
# Coordination Sequence:
#
# PCOD8290890 Si02
#       6
#     8   8   8  16  16  16
#     4  10  22  41  66  89 112 144 181 233 295 351
#     4  11  23  31  43  77 117 155 207 259 287 320
#     4  10  22  41  64  90 115 141 182 230 292 362
#     4  10  20  35  56  82 115 156 191 231 283 335
#     4  11  20  33  54  77 112 158 204 245 283 327
#     4   9  20  37  57  81 114 156 196 233 281 338
#
# _framework density 18.581956000000002
#
# number of rings (size 3 to 8) (size 9 to 14) (size 15 to 20)
#    0.000    1.889    2.222    1.667    3.111    2.889 
#    0.000    1.111    0.000    0.000    0.000    6.222 
#    0.000    0.000    0.000    0.000    0.000    0.000 
#
# Total GULP energy -446478.374284 kJ/mol
# GULP energy per Si atom -12402.177063 kJ/mol
# Density = 1.853966 g / cm^3
# Si number density = 18.581956 Si / 1000 Ang^3
#
#
#
# Elastic Constant Matrix: (Units=GPa)
#
#
# Indices 1 2 3 4 5 6 
#
# 1 107.5921 46.0945 38.8878 0.0000 0.0000 0.0000
# 2 46.0945 94.8815 60.7865 0.0000 0.0000 0.0000
# 3 38.8878 60.7865 81.9189 0.0000 0.0000 0.0000
# 4 0.0000 0.0000 0.0000 35.0588 0.0000 0.0000
# 5 0.0000 0.0000 0.0000 0.0000 10.2464 0.0000
# 6 0.0000 0.0000 0.0000 0.0000 0.0000 18.2500
#
#
#
# Elastic Compliance Matrix: (Units=1/GPa)
#
#
# Indices 1 2 3 4 5 6 
#
# 1 0.012025 -0.004164 -0.002618 0.000000 0.000000 0.000000
# 2 -0.004164 0.021532 -0.014001 0.000000 0.000000 0.000000
# 3 -0.002618 -0.014001 0.023839 0.000000 0.000000 0.000000
# 4 0.000000 0.000000 0.000000 0.028524 0.000000 0.000000
# 5 0.000000 0.000000 0.000000 0.000000 0.097595 0.000000
# 6 0.000000 0.000000 0.000000 0.000000 0.000000 0.054795
#
#
# Mechanical properties :
#
#
# Convention : Reuss Voigt Hill
#
# Bulk Modulus (GPa) = 63.17334 63.99223 63.58279
# Shear Modulus (GPa) = 17.53446 21.95261 19.74353
#
# Velocity S-wave (km/s) = 3.07519 3.44087 3.26315
# Velocity P-wave (km/s) = 6.83227 7.09216 6.96343
#
# Compressibility (1/GPa) = 0.01582946
#
# Stress axis : x y z
#
# Youngs Moduli (GPa) = 83.16166 46.44189 41.94796
#
# Poissons Ratio (x) = 0.19340 0.10983
# Poissons Ratio (y) = 0.34632 0.58730
# Poissons Ratio (z) = 0.21773 0.65022
#
# Static dielectric constant tensor:
#      x y z
#    x 3.639720 0.000000 0.000000 
#    y 0.000000 3.204780 0.000000 
#    z 0.000000 0.000000 3.128980 
# 
# 
# High freq. dielectric constant tensor:
#      x y z
#    x 1.739650 0.000000 0.000000 
#    y 0.000000 1.708520 0.000000 
#    z 0.000000 0.000000 1.694760 
# 
# From -- ./inp_files/50218.got.cif
#   From: 2010.06.25/outbox.cif.g09.slc.cpg/sg71_26_cif.got.tgz:50218.got - 2010.06.28 04:59:45.
