data_PCOD8290151
_publ_section_title
;
Structure prediction by ZEFSAII (Michael W. Deem and Ramdas Pophale) SiO2 
 PCOD8290151
Probable space group: I M M M
;
_chemical_formula_sum "Si O2"
_cell_formula_units_Z 88
_cell_length_a 24.584314
_cell_length_b 15.857887
_cell_length_c 12.352373
_cell_angle_alpha 90.000000
_cell_angle_beta 90.000000
_cell_angle_gamma 90.000000
_cell_volume 4815.637753
_symmetry_space_group_name_H-M "I M M M"
_symmetry_group_IT_number 71
_symmetry_cell_setting 'orthorhombic'
loop_
_space_group_symop_operation_xyz
x,y,z
-x,-y,z
x,-y,-z
-x,y,-z
-x,-y,-z
x,y,-z
-x,y,z
x,-y,z
1/2+x,1/2+y,1/2+z
1/2-x,1/2-y,1/2+z
1/2+x,1/2-y,1/2-z
1/2-x,1/2+y,1/2-z
1/2-x,1/2-y,1/2-z
1/2+x,1/2+y,1/2-z
1/2-x,1/2+y,1/2+z
1/2+x,1/2-y,1/2+z
loop_
_atom_site_type_symbol
_atom_site_label
_atom_site_fract_x
_atom_site_fract_y
_atom_site_fract_z
Si Si1 0.763486 0.904619 0.625360
Si Si2 0.939251 0.196378 0.197424
Si Si3 0.935078 0.906093 0.000000
Si Si4 0.560488 0.881219 0.377643
Si Si5 0.660087 0.907671 0.770598
Si Si6 0.146684 0.231126 0.374452
O O1 0.750013 0.893255 0.500000
O O2 0.707699 0.887669 0.686848
O O3 0.805545 0.832295 0.662519
O O4 0.785805 0.000000 0.648387
O O5 0.940012 0.281382 0.129543
O O6 0.905740 0.203093 0.307470
O O7 0.000000 0.168415 0.231748
O O8 0.911910 0.132203 0.111863
O O9 0.000000 0.894982 0.000000
O O10 0.914086 0.000000 0.000000
O O11 0.576142 0.907808 0.500000
O O12 0.500000 0.915948 0.349042
O O13 0.603551 0.917898 0.293409
O O14 0.660098 0.830170 0.855056
O O15 0.669566 0.000000 0.827386
O O16 0.133039 0.218770 0.500000
#
# Coordination Sequence:
#
# PCOD8290151 Si02
#       6
#    16  16   8  16  16  16
#     4   9  18  34  55  77 100 128 169 221 271 318
#     4   9  17  31  50  74 105 138 173 213 259 311
#     4   9  16  28  50  78 105 135 169 211 269 323
#     4   9  16  28  48  73 103 133 163 207 261 313
#     4  10  20  33  51  74 102 137 176 216 260 311
#     4  10  21  35  53  76 103 142 182 216 257 305
#
# _framework density 18.273800000000001
#
# number of rings (size 3 to 8) (size 9 to 14) (size 15 to 20)
#    0.000    2.636    0.909    1.091    0.000    2.909 
#    0.000    0.909    2.000    0.000    0.000   10.182 
#    0.000    0.000    0.000    0.000    0.000    0.000 
#
# Total GULP energy -545236.598556 kJ/mol
# GULP energy per Si atom -12391.740876 kJ/mol
# Density = 1.823221 g / cm^3
# Si number density = 18.273800 Si / 1000 Ang^3
#
#
#
# Elastic Constant Matrix: (Units=GPa)
#
#
# Indices 1 2 3 4 5 6 
#
# 1 85.4696 40.4761 41.5895 0.0000 0.0000 0.0000
# 2 40.4761 122.7975 43.5919 0.0000 0.0000 0.0000
# 3 41.5895 43.5919 78.2657 0.0000 0.0000 0.0000
# 4 0.0000 0.0000 0.0000 14.7648 0.0000 0.0000
# 5 0.0000 0.0000 0.0000 0.0000 22.2936 0.0000
# 6 0.0000 0.0000 0.0000 0.0000 0.0000 14.9722
#
#
#
# Elastic Compliance Matrix: (Units=1/GPa)
#
#
# Indices 1 2 3 4 5 6 
#
# 1 0.016576 -0.002913 -0.007186 0.000000 0.000000 0.000000
# 2 -0.002913 0.010662 -0.004391 0.000000 0.000000 0.000000
# 3 -0.007186 -0.004391 0.019041 0.000000 0.000000 0.000000
# 4 0.000000 0.000000 0.000000 0.067729 0.000000 0.000000
# 5 0.000000 0.000000 0.000000 0.000000 0.044856 0.000000
# 6 0.000000 0.000000 0.000000 0.000000 0.000000 0.066791
#
#
# Mechanical properties :
#
#
# Convention : Reuss Voigt Hill
#
# Bulk Modulus (GPa) = 57.80232 59.76086 58.78159
# Shear Modulus (GPa) = 19.20116 21.13112 20.16614
#
# Velocity S-wave (km/s) = 3.24504 3.40422 3.32558
# Velocity P-wave (km/s) = 6.76316 6.94447 6.85441
#
# Compressibility (1/GPa) = 0.01730034
#
# Stress axis : x y z
#
# Youngs Moduli (GPa) = 60.32724 93.78851 52.51788
#
# Poissons Ratio (x) = 0.27319 0.37740
# Poissons Ratio (y) = 0.17572 0.23059
# Poissons Ratio (z) = 0.43352 0.41180
#
# Static dielectric constant tensor:
#      x y z
#    x 3.348320 0.000000 0.000000 
#    y 0.000000 3.610560 0.000000 
#    z 0.000000 0.000000 3.099300 
# 
# 
# High freq. dielectric constant tensor:
#      x y z
#    x 1.695190 0.000000 0.000000 
#    y 0.000000 1.725150 0.000000 
#    z 0.000000 0.000000 1.686940 
# 
# From -- ./inp_files/28588.got.cif
#   From: 2010.06.25/outbox.cif.g09.slc.cpg/sg71_15_cif.got.tgz:28588.got - 2010.06.28 04:59:45.
