data_PCOD8290087
_publ_section_title
;
Structure prediction by ZEFSAII (Michael W. Deem and Ramdas Pophale) SiO2 
 PCOD8290087
Probable space group: I M M M
;
_chemical_formula_sum "Si O2"
_cell_formula_units_Z 88
_cell_length_a 24.316326
_cell_length_b 9.102127
_cell_length_c 22.265904
_cell_angle_alpha 90.000000
_cell_angle_beta 90.000000
_cell_angle_gamma 90.000000
_cell_volume 4928.118932
_symmetry_space_group_name_H-M "I M M M"
_symmetry_group_IT_number 71
_symmetry_cell_setting 'orthorhombic'
loop_
_space_group_symop_operation_xyz
x,y,z
-x,-y,z
x,-y,-z
-x,y,-z
-x,-y,-z
x,y,-z
-x,y,z
x,-y,z
1/2+x,1/2+y,1/2+z
1/2-x,1/2-y,1/2+z
1/2+x,1/2-y,1/2-z
1/2-x,1/2+y,1/2-z
1/2-x,1/2-y,1/2-z
1/2+x,1/2+y,1/2-z
1/2-x,1/2+y,1/2+z
1/2+x,1/2-y,1/2+z
loop_
_atom_site_type_symbol
_atom_site_label
_atom_site_fract_x
_atom_site_fract_y
_atom_site_fract_z
Si Si1 0.438014 0.173602 0.431992
Si Si2 0.867435 0.173027 0.703232
Si Si3 0.064615 0.664080 0.384532
Si Si4 0.856358 0.168760 0.157731
Si Si5 0.565646 0.334219 0.000000
Si Si6 0.238027 0.672161 0.312107
O O1 0.424783 0.225578 0.500000
O O2 0.500000 0.224719 0.414471
O O3 0.393390 0.237966 0.386826
O O4 0.434160 0.000000 0.427827
O O5 0.922293 0.241465 0.674939
O O6 0.867959 0.214243 0.773430
O O7 0.817606 0.249707 0.665134
O O8 0.864073 0.000000 0.693421
O O9 0.090120 0.500000 0.381151
O O10 0.088857 0.748835 0.442142
O O11 0.000000 0.652235 0.390138
O O12 0.791116 0.195597 0.144467
O O13 0.872045 0.000000 0.147563
O O14 0.588913 0.500000 0.000000
O O15 0.500000 0.336995 0.000000
O O16 0.228251 0.500000 0.301183
O O17 0.250000 0.750000 0.250000
#
# Coordination Sequence:
#
# PCOD8290087 Si02
#       6
#    16  16  16  16   8  16
#     4   9  19  35  53  74 101 134 172 212 254 304
#     4  10  20  33  50  75 105 135 169 211 258 306
#     4  10  20  33  50  73 101 134 171 209 252 302
#     4   9  19  33  51  76 102 130 165 207 255 305
#     4   9  17  31  51  71  93 127 167 203 242 291
#     4   9  17  31  50  73 100 129 165 204 248 303
#
# _framework density 17.856712000000002
#
# number of rings (size 3 to 8) (size 9 to 14) (size 15 to 20)
#    0.000    2.636    0.000    3.545    0.000    8.000 
#    0.000    4.545    2.000    0.000    0.000    0.000 
#    0.000    0.000    0.000    0.000    0.000    0.000 
#
# Total GULP energy -545300.689524 kJ/mol
# GULP energy per Si atom -12393.197489 kJ/mol
# Density = 1.781607 g / cm^3
# Si number density = 17.856712 Si / 1000 Ang^3
#
#
#
# Elastic Constant Matrix: (Units=GPa)
#
#
# Indices 1 2 3 4 5 6 
#
# 1 64.0967 43.2383 44.6388 0.0000 0.0000 0.0000
# 2 43.2383 113.1672 53.7308 0.0000 0.0000 0.0000
# 3 44.6388 53.7308 86.4092 0.0000 0.0000 0.0000
# 4 0.0000 0.0000 0.0000 33.0744 0.0000 0.0000
# 5 0.0000 0.0000 0.0000 0.0000 19.5613 0.0000
# 6 0.0000 0.0000 0.0000 0.0000 0.0000 33.6195
#
#
#
# Elastic Compliance Matrix: (Units=1/GPa)
#
#
# Indices 1 2 3 4 5 6 
#
# 1 0.026294 -0.005104 -0.010410 0.000000 0.000000 0.000000
# 2 -0.005104 0.013529 -0.005776 0.000000 0.000000 0.000000
# 3 -0.010410 -0.005776 0.020542 0.000000 0.000000 0.000000
# 4 0.000000 0.000000 0.000000 0.030235 0.000000 0.000000
# 5 0.000000 0.000000 0.000000 0.000000 0.051121 0.000000
# 6 0.000000 0.000000 0.000000 0.000000 0.000000 0.029745
#
#
# Mechanical properties :
#
#
# Convention : Reuss Voigt Hill
#
# Bulk Modulus (GPa) = 56.22401 60.76544 58.49472
# Shear Modulus (GPa) = 22.73003 25.38873 24.05938
#
# Velocity S-wave (km/s) = 3.57166 3.77477 3.67462
# Velocity P-wave (km/s) = 6.96876 7.28710 7.12971
#
# Compressibility (1/GPa) = 0.01778600
#
# Stress axis : x y z
#
# Youngs Moduli (GPa) = 38.03144 73.91611 48.68055
#
# Poissons Ratio (x) = 0.37725 0.50676
# Poissons Ratio (y) = 0.19410 0.28117
# Poissons Ratio (z) = 0.39590 0.42693
#
# Static dielectric constant tensor:
#      x y z
#    x 3.383480 0.000000 0.000000 
#    y 0.000000 3.498060 0.000000 
#    z 0.000000 0.000000 3.138990 
# 
# 
# High freq. dielectric constant tensor:
#      x y z
#    x 1.683840 0.000000 0.000000 
#    y 0.000000 1.704190 0.000000 
#    z 0.000000 0.000000 1.667420 
# 
# From -- ./inp_files/50529.got.cif
#   From: 2010.06.25/outbox.cif.g09.slc.cpg/sg71_26_cif.got.tgz:50529.got - 2010.06.28 04:59:45.
