data_PCOD8290156
_publ_section_title
;
Structure prediction by ZEFSAII (Michael W. Deem and Ramdas Pophale) SiO2 
 PCOD8290156
Probable space group: I M M M
;
_chemical_formula_sum "Si O2"
_cell_formula_units_Z 112
_cell_length_a 28.925114
_cell_length_b 14.774049
_cell_length_c 14.223940
_cell_angle_alpha 90.000000
_cell_angle_beta 90.000000
_cell_angle_gamma 90.000000
_cell_volume 6078.473477
_symmetry_space_group_name_H-M "I M M M"
_symmetry_group_IT_number 71
_symmetry_cell_setting 'orthorhombic'
loop_
_space_group_symop_operation_xyz
x,y,z
-x,-y,z
x,-y,-z
-x,y,-z
-x,-y,-z
x,y,-z
-x,y,z
x,-y,z
1/2+x,1/2+y,1/2+z
1/2-x,1/2-y,1/2+z
1/2+x,1/2-y,1/2-z
1/2-x,1/2+y,1/2-z
1/2-x,1/2-y,1/2-z
1/2+x,1/2+y,1/2-z
1/2-x,1/2+y,1/2+z
1/2+x,1/2-y,1/2+z
loop_
_atom_site_type_symbol
_atom_site_label
_atom_site_fract_x
_atom_site_fract_y
_atom_site_fract_z
Si Si1 0.947118 0.601135 0.300904
Si Si2 0.723917 0.239720 0.109402
Si Si3 0.620789 0.402615 0.759120
Si Si4 0.052245 0.859206 0.894167
Si Si5 0.116112 0.255398 0.393822
Si Si6 0.726119 0.392828 0.744703
Si Si7 0.945854 0.350038 0.100410
O O1 0.945452 0.500000 0.340610
O O2 0.914931 0.659107 0.367982
O O3 0.926959 0.600515 0.193616
O O4 0.000000 0.638393 0.302312
O O5 0.669591 0.220843 0.120014
O O6 0.738148 0.334469 0.160870
O O7 0.747936 0.152187 0.156191
O O8 0.738549 0.247486 0.000000
O O9 0.621799 0.500000 0.811276
O O10 0.587514 0.413235 0.670143
O O11 0.600904 0.328832 0.830282
O O12 0.672069 0.379905 0.723125
O O13 0.065993 0.754682 0.888585
O O14 0.000000 0.874654 0.857936
O O15 0.056952 0.895700 0.000000
O O16 0.105535 0.227375 0.500000
O O17 0.739501 0.500000 0.756568
O O18 0.000000 0.366694 0.094046
O O19 0.924382 0.385303 0.000000
#
# Coordination Sequence:
#
# PCOD8290156 Si02
#       7
#    16  16  16  16  16  16  16
#     4  10  20  33  51  75 102 134 173 217 264 309
#     4   9  19  36  57  80 104 135 174 211 255 312
#     4  10  20  34  54  79 104 133 169 209 256 305
#     4   9  17  30  49  73 103 138 171 203 245 301
#     4  10  21  37  55  74  99 134 174 216 259 300
#     4   9  19  35  55  81 109 134 166 213 263 308
#     4   8  14  27  48  71  95 127 166 204 246 298
#
# _framework density 18.425678999999999
#
# number of rings (size 3 to 8) (size 9 to 14) (size 15 to 20)
#    0.000    2.714    1.429    0.857    0.000    3.429 
#    0.000    8.571    0.000    0.000    0.000    4.000 
#    0.000    0.000    0.000    0.000    0.000    0.000 
#
# Total GULP energy -693992.243222 kJ/mol
# GULP energy per Si atom -12392.718629 kJ/mol
# Density = 1.838374 g / cm^3
# Si number density = 18.425679 Si / 1000 Ang^3
#
#
#
# Elastic Constant Matrix: (Units=GPa)
#
#
# Indices 1 2 3 4 5 6 
#
# 1 54.4188 40.2707 47.4834 0.0000 0.0000 0.0000
# 2 40.2707 109.7222 51.6978 0.0000 0.0000 0.0000
# 3 47.4834 51.6978 112.2746 0.0000 0.0000 0.0000
# 4 0.0000 0.0000 0.0000 6.9675 0.0000 0.0000
# 5 0.0000 0.0000 0.0000 0.0000 27.8605 0.0000
# 6 0.0000 0.0000 0.0000 0.0000 0.0000 24.4922
#
#
#
# Elastic Compliance Matrix: (Units=1/GPa)
#
#
# Indices 1 2 3 4 5 6 
#
# 1 0.032902 -0.007049 -0.010669 0.000000 0.000000 0.000000
# 2 -0.007049 0.013149 -0.003074 0.000000 0.000000 0.000000
# 3 -0.010669 -0.003074 0.014834 0.000000 0.000000 0.000000
# 4 0.000000 0.000000 0.000000 0.143524 0.000000 0.000000
# 5 0.000000 0.000000 0.000000 0.000000 0.035893 0.000000
# 6 0.000000 0.000000 0.000000 0.000000 0.000000 0.040829
#
#
# Mechanical properties :
#
#
# Convention : Reuss Voigt Hill
#
# Bulk Modulus (GPa) = 51.80800 61.70216 56.75508
# Shear Modulus (GPa) = 15.19071 20.99496 18.09283
#
# Velocity S-wave (km/s) = 2.87441 3.37922 3.13699
# Velocity P-wave (km/s) = 6.26056 6.98464 6.63249
#
# Compressibility (1/GPa) = 0.01930204
#
# Stress axis : x y z
#
# Youngs Moduli (GPa) = 30.39374 76.05056 67.41176
#
# Poissons Ratio (x) = 0.53606 0.71923
# Poissons Ratio (y) = 0.21424 0.20720
# Poissons Ratio (z) = 0.32427 0.23375
#
# Static dielectric constant tensor:
#      x y z
#    x 3.184270 0.000000 0.000000 
#    y 0.000000 3.727810 0.000000 
#    z 0.000000 0.000000 3.499790 
# 
# 
# High freq. dielectric constant tensor:
#      x y z
#    x 1.688970 0.000000 0.000000 
#    y 0.000000 1.717370 0.000000 
#    z 0.000000 0.000000 1.713100 
# 
# From -- ./inp_files/39251.got.cif
#   From: 2010.06.25/outbox.cif.g09.slc.cpg/sg71_20_cif.got.tgz:39251.got - 2010.06.28 04:59:45.
