data_PCOD8290115
_publ_section_title
;
Structure prediction by ZEFSAII (Michael W. Deem and Ramdas Pophale) SiO2 
 PCOD8290115
Probable space group: I M M M
;
_chemical_formula_sum "Si O2"
_cell_formula_units_Z 72
_cell_length_a 8.969399
_cell_length_b 32.283406
_cell_length_c 13.589720
_cell_angle_alpha 90.000000
_cell_angle_beta 90.000000
_cell_angle_gamma 90.000000
_cell_volume 3935.076688
_symmetry_space_group_name_H-M "I M M M"
_symmetry_group_IT_number 71
_symmetry_cell_setting 'orthorhombic'
loop_
_space_group_symop_operation_xyz
x,y,z
-x,-y,z
x,-y,-z
-x,y,-z
-x,-y,-z
x,y,-z
-x,y,z
x,-y,z
1/2+x,1/2+y,1/2+z
1/2-x,1/2-y,1/2+z
1/2+x,1/2-y,1/2-z
1/2-x,1/2+y,1/2-z
1/2-x,1/2-y,1/2-z
1/2+x,1/2+y,1/2-z
1/2-x,1/2+y,1/2+z
1/2+x,1/2-y,1/2+z
loop_
_atom_site_type_symbol
_atom_site_label
_atom_site_fract_x
_atom_site_fract_y
_atom_site_fract_z
Si Si1 0.163865 0.355190 0.108765
Si Si2 0.676596 0.000000 0.615055
Si Si3 0.174527 0.136288 0.112506
Si Si4 0.172789 0.922350 0.286827
Si Si5 0.332304 0.791878 0.223660
O O1 0.295650 0.386832 0.133750
O O2 0.169247 0.314823 0.173483
O O3 0.000000 0.376924 0.119275
O O4 0.191710 0.338857 0.000000
O O5 0.732154 0.038557 0.679298
O O6 0.500000 0.000000 0.613334
O O7 0.734625 0.000000 0.500000
O O8 0.223397 0.096921 0.180583
O O9 0.254229 0.179221 0.141763
O O10 0.000000 0.144088 0.126793
O O11 0.215378 0.125152 0.000000
O O12 0.000000 0.934802 0.286412
O O13 0.500000 0.782556 0.187017
O O14 0.250000 0.750000 0.250000
#
# Coordination Sequence:
#
# PCOD8290115 Si02
#       5
#    16   8  16  16  16
#     4   9  18  33  51  70  97 134 168 200 249 310
#     4  11  23  37  54  77 108 144 173 201 250 315
#     4   9  19  37  58  77 102 139 178 217 266 318
#     4  10  20  34  54  80 105 130 167 214 257 301
#     4  10  20  33  50  75 105 136 174 218 260 306
#
# _framework density 18.296976000000001
#
# number of rings (size 3 to 8) (size 9 to 14) (size 15 to 20)
#    0.000    2.333    0.000    2.333    0.000    7.111 
#    0.000    2.778    0.000    3.333    0.000    0.000 
#    0.000    0.000    0.000    0.000    0.000    0.000 
#
# Total GULP energy -446135.076539 kJ/mol
# GULP energy per Si atom -12392.641015 kJ/mol
# Density = 1.825533 g / cm^3
# Si number density = 18.296976 Si / 1000 Ang^3
#
#
#
# Elastic Constant Matrix: (Units=GPa)
#
#
# Indices 1 2 3 4 5 6 
#
# 1 77.6558 50.8075 44.5774 0.0001 -0.0001 -0.0001
# 2 50.8075 112.6323 56.3682 0.0009 0.0001 0.0001
# 3 44.5774 56.3682 133.4966 0.0032 0.0003 0.0002
# 4 0.0001 0.0009 0.0032 13.9566 0.0001 0.0001
# 5 -0.0001 0.0001 0.0003 0.0001 24.3844 0.0003
# 6 -0.0001 0.0001 0.0002 0.0001 0.0003 36.6928
#
#
#
# Elastic Compliance Matrix: (Units=1/GPa)
#
#
# Indices 1 2 3 4 5 6 
#
# 1 0.019511 -0.007025 -0.003549 0.000001 0.000000 0.000000
# 2 -0.007025 0.013787 -0.003476 0.000000 0.000000 0.000000
# 3 -0.003549 -0.003476 0.010143 -0.000002 0.000000 0.000000
# 4 0.000001 0.000000 -0.000002 0.071651 0.000000 0.000000
# 5 0.000000 0.000000 0.000000 0.000000 0.041010 0.000000
# 6 0.000000 0.000000 0.000000 0.000000 0.000000 0.027253
#
#
# Mechanical properties :
#
#
# Convention : Reuss Voigt Hill
#
# Bulk Modulus (GPa) = 65.18026 69.69898 67.43962
# Shear Modulus (GPa) = 23.08745 26.47553 24.78149
#
# Velocity S-wave (km/s) = 3.55606 3.80806 3.68421
# Velocity P-wave (km/s) = 7.24994 7.58360 7.41864
#
# Compressibility (1/GPa) = 0.01534207
#
# Stress axis : x y z
#
# Youngs Moduli (GPa) = 51.25379 72.53309 98.58664
#
# Poissons Ratio (x) = 0.50955 0.34986
# Poissons Ratio (y) = 0.36006 0.34264
# Poissons Ratio (z) = 0.18189 0.25209
#
# Static dielectric constant tensor:
#      x y z
#    x 3.596910 0.000000 0.000000 
#    y 0.000000 3.453580 0.000000 
#    z 0.000000 0.000000 3.650810 
# 
# 
# High freq. dielectric constant tensor:
#      x y z
#    x 1.715460 0.000000 0.000000 
#    y 0.000000 1.701100 0.000000 
#    z 0.000000 0.000000 1.711090 
# 
# From -- ./inp_files/6010.got.cif
#   From: 2010.06.25/outbox.cif.g09.slc.cpg/sg71_4_cif.got.tgz:6010.got - 2010.06.28 04:59:45.
