data_PCOD8290144
_publ_section_title
;
Structure prediction by ZEFSAII (Michael W. Deem and Ramdas Pophale) SiO2 
 PCOD8290144
Probable space group: I M M M
;
_chemical_formula_sum "Si O2"
_cell_formula_units_Z 80
_cell_length_a 25.393109
_cell_length_b 9.099740
_cell_length_c 18.563041
_cell_angle_alpha 90.000000
_cell_angle_beta 90.000000
_cell_angle_gamma 90.000000
_cell_volume 4289.374687
_symmetry_space_group_name_H-M "I M M M"
_symmetry_group_IT_number 71
_symmetry_cell_setting 'orthorhombic'
loop_
_space_group_symop_operation_xyz
x,y,z
-x,-y,z
x,-y,-z
-x,y,-z
-x,-y,-z
x,y,-z
-x,y,z
x,-y,z
1/2+x,1/2+y,1/2+z
1/2-x,1/2-y,1/2+z
1/2+x,1/2-y,1/2-z
1/2-x,1/2+y,1/2-z
1/2-x,1/2-y,1/2-z
1/2+x,1/2+y,1/2-z
1/2-x,1/2+y,1/2+z
1/2+x,1/2-y,1/2+z
loop_
_atom_site_type_symbol
_atom_site_label
_atom_site_fract_x
_atom_site_fract_y
_atom_site_fract_z
Si Si1 0.598254 0.673966 0.919876
Si Si2 0.188464 0.327921 0.173266
Si Si3 0.500000 0.325256 0.666586
Si Si4 0.191122 0.170989 0.680640
Si Si5 0.000000 0.175378 0.329401
Si Si6 0.897008 0.171720 0.916331
O O1 0.592684 0.500000 0.924742
O O2 0.654076 0.718261 0.885408
O O3 0.551159 0.736920 0.870816
O O4 0.595023 0.742459 0.000000
O O5 0.177613 0.500000 0.175061
O O6 0.172228 0.260844 0.249922
O O7 0.249510 0.291260 0.157445
O O8 0.154738 0.256344 0.109852
O O9 0.500000 0.500000 0.664872
O O10 0.500000 0.263484 0.747967
O O11 0.447977 0.267256 0.626036
O O12 0.184543 0.000000 0.700055
O O13 0.000000 0.000000 0.327442
O O14 0.888527 0.000000 0.901500
O O15 0.905819 0.204715 0.000000
#
# Coordination Sequence:
#
# PCOD8290144 Si02
#       6
#    16  16   8  16   8  16
#     4   9  16  26  43  70 101 128 156 195 244 294
#     4  10  20  33  51  74 100 132 170 212 255 299
#     4   9  17  31  52  75  98 129 170 210 250 301
#     4   9  18  33  52  72  98 135 174 208 244 294
#     4   9  15  23  41  70 100 125 152 198 252 291
#     4  10  20  34  53  76 102 132 167 209 256 307
#
# _framework density 18.650738
#
# number of rings (size 3 to 8) (size 9 to 14) (size 15 to 20)
#    0.000    2.600    0.000    2.400    0.000    7.600 
#    0.000    2.500    0.000    1.800    0.000    0.000 
#    0.000    3.200    0.000    0.000    0.000    0.000 
#
# Total GULP energy -496046.588167 kJ/mol
# GULP energy per Si atom -12401.164704 kJ/mol
# Density = 1.860829 g / cm^3
# Si number density = 18.650738 Si / 1000 Ang^3
#
#
#
# Elastic Constant Matrix: (Units=GPa)
#
#
# Indices 1 2 3 4 5 6 
#
# 1 127.0617 29.5985 87.8164 0.0000 0.0000 0.0000
# 2 29.5985 35.3658 34.8821 0.0000 0.0000 0.0000
# 3 87.8164 34.8821 165.8533 0.0000 0.0000 0.0000
# 4 0.0000 0.0000 0.0000 19.3825 0.0000 0.0000
# 5 0.0000 0.0000 0.0000 0.0000 36.5770 0.0000
# 6 0.0000 0.0000 0.0000 0.0000 0.0000 20.5629
#
#
#
# Elastic Compliance Matrix: (Units=1/GPa)
#
#
# Indices 1 2 3 4 5 6 
#
# 1 0.013133 -0.005214 -0.005857 0.000000 0.000000 0.000000
# 2 -0.005214 0.037747 -0.005178 0.000000 0.000000 0.000000
# 3 -0.005857 -0.005178 0.010220 0.000000 0.000000 0.000000
# 4 0.000000 0.000000 0.000000 0.051593 0.000000 0.000000
# 5 0.000000 0.000000 0.000000 0.000000 0.027340 0.000000
# 6 0.000000 0.000000 0.000000 0.000000 0.000000 0.048631
#
#
# Mechanical properties :
#
#
# Convention : Reuss Voigt Hill
#
# Bulk Modulus (GPa) = 34.96392 70.31940 52.64166
# Shear Modulus (GPa) = 21.67361 27.03672 24.35516
#
# Velocity S-wave (km/s) = 3.41262 3.81153 3.61758
# Velocity P-wave (km/s) = 5.85793 7.56013 6.76280
#
# Compressibility (1/GPa) = 0.02860091
#
# Stress axis : x y z
#
# Youngs Moduli (GPa) = 76.14570 26.49212 97.85145
#
# Poissons Ratio (x) = 0.13814 0.57310
# Poissons Ratio (y) = 0.39705 0.50668
# Poissons Ratio (z) = 0.44598 0.13718
#
# Static dielectric constant tensor:
#      x y z
#    x 3.586420 0.000000 0.000000 
#    y 0.000000 2.973990 0.000000 
#    z 0.000000 0.000000 3.552600 
# 
# 
# High freq. dielectric constant tensor:
#      x y z
#    x 1.738320 0.000000 0.000000 
#    y 0.000000 1.672380 0.000000 
#    z 0.000000 0.000000 1.731030 
# 
# From -- ./inp_files/48623.got.cif
#   From: 2010.06.25/outbox.cif.g09.slc.cpg/sg71_25_cif.got.tgz:48623.got - 2010.06.28 04:59:45.
