data_PCOD8290047
_publ_section_title
;
Structure prediction by ZEFSAII (Michael W. Deem and Ramdas Pophale) SiO2 
 PCOD8290047
Probable space group: I M M M
;
_chemical_formula_sum "Si O2"
_cell_formula_units_Z 120
_cell_length_a 26.319179
_cell_length_b 27.829637
_cell_length_c 9.090732
_cell_angle_alpha 90.000000
_cell_angle_beta 90.000000
_cell_angle_gamma 90.000000
_cell_volume 6658.535723
_symmetry_space_group_name_H-M "I M M M"
_symmetry_group_IT_number 71
_symmetry_cell_setting 'orthorhombic'
loop_
_space_group_symop_operation_xyz
x,y,z
-x,-y,z
x,-y,-z
-x,y,-z
-x,-y,-z
x,y,-z
-x,y,z
x,-y,z
1/2+x,1/2+y,1/2+z
1/2-x,1/2-y,1/2+z
1/2+x,1/2-y,1/2-z
1/2-x,1/2+y,1/2-z
1/2-x,1/2-y,1/2-z
1/2+x,1/2+y,1/2-z
1/2-x,1/2+y,1/2+z
1/2+x,1/2-y,1/2+z
loop_
_atom_site_type_symbol
_atom_site_label
_atom_site_fract_x
_atom_site_fract_y
_atom_site_fract_z
Si Si1 0.000000 0.056454 0.829052
Si Si2 0.701585 0.383122 0.830986
Si Si3 0.559617 0.294287 0.333105
Si Si4 0.587485 0.612840 0.169929
Si Si5 0.295467 0.053793 0.673057
Si Si6 0.753849 0.699088 0.672590
Si Si7 0.942301 0.302289 0.669483
Si Si8 0.150964 0.634868 0.669753
O O1 0.949274 0.077666 0.758075
O O2 0.000000 0.000000 0.802274
O O3 0.000000 0.070329 0.000000
O O4 0.645324 0.404973 0.809670
O O5 0.740719 0.424589 0.782094
O O6 0.709515 0.335749 0.732317
O O7 0.710612 0.367964 0.000000
O O8 0.579728 0.297808 0.500000
O O9 0.500000 0.304311 0.325979
O O10 0.586359 0.333336 0.231441
O O11 0.573309 0.242201 0.270818
O O12 0.570740 0.613051 0.000000
O O13 0.302711 0.053128 0.500000
O O14 0.340269 0.086215 0.739793
O O15 0.299066 0.000000 0.737787
O O16 0.746261 0.706286 0.500000
O O17 0.750000 0.750000 0.750000
O O18 0.808335 0.675882 0.712126
O O19 0.935442 0.286509 0.500000
O O20 0.905291 0.346284 0.708635
O O21 0.000000 0.318912 0.701257
O O22 0.156371 0.621364 0.500000
#
# Coordination Sequence:
#
# PCOD8290047 Si02
#       8
#     8  16  16  16  16  16  16  16
#     4  11  25  43  59  77 105 139 177 227 282 331
#     4   9  20  36  53  77 105 135 175 222 268 318
#     4  10  20  33  50  74 106 142 178 217 260 309
#     4  11  22  36  57  79 103 137 178 225 271 322
#     4   9  18  35  58  80 103 133 171 217 268 321
#     4  10  20  33  49  73 107 144 178 216 264 318
#     4   9  18  33  53  77 107 143 181 218 258 308
#     4   9  19  34  52  77 107 138 174 218 261 310
#
# _framework density 18.021979999999999
#
# number of rings (size 3 to 8) (size 9 to 14) (size 15 to 20)
#    0.000    2.333    0.667    1.400    1.867    4.000 
#    0.000    1.333    0.000    0.400    0.000    2.800 
#    0.000    0.000    0.000    0.000    0.000    0.000 
#
# Total GULP energy -744128.731490 kJ/mol
# GULP energy per Si atom -12402.145525 kJ/mol
# Density = 1.798096 g / cm^3
# Si number density = 18.021980 Si / 1000 Ang^3
#
#
#
# Elastic Constant Matrix: (Units=GPa)
#
#
# Indices 1 2 3 4 5 6 
#
# 1 94.9451 57.7412 43.9616 0.0000 0.0000 0.0000
# 2 57.7412 134.8339 62.2696 0.0000 0.0000 0.0000
# 3 43.9616 62.2696 89.9965 0.0000 0.0000 0.0000
# 4 0.0000 0.0000 0.0000 30.2553 0.0000 0.0000
# 5 0.0000 0.0000 0.0000 0.0000 25.4069 0.0000
# 6 0.0000 0.0000 0.0000 0.0000 0.0000 18.6120
#
#
#
# Elastic Compliance Matrix: (Units=1/GPa)
#
#
# Indices 1 2 3 4 5 6 
#
# 1 0.015306 -0.004558 -0.004323 0.000000 0.000000 0.000000
# 2 -0.004558 0.012257 -0.006254 0.000000 0.000000 0.000000
# 3 -0.004323 -0.006254 0.017550 0.000000 0.000000 0.000000
# 4 0.000000 0.000000 0.000000 0.033052 0.000000 0.000000
# 5 0.000000 0.000000 0.000000 0.000000 0.039359 0.000000
# 6 0.000000 0.000000 0.000000 0.000000 0.000000 0.053729
#
#
# Mechanical properties :
#
#
# Convention : Reuss Voigt Hill
#
# Bulk Modulus (GPa) = 67.37142 71.96895 69.67019
# Shear Modulus (GPa) = 24.21641 25.24170 24.72905
#
# Velocity S-wave (km/s) = 3.66965 3.74653 3.70829
# Velocity P-wave (km/s) = 7.44441 7.66394 7.55497
#
# Compressibility (1/GPa) = 0.01484309
#
# Stress axis : x y z
#
# Youngs Moduli (GPa) = 65.33341 81.58719 56.97888
#
# Poissons Ratio (x) = 0.37190 0.24631
# Poissons Ratio (y) = 0.29781 0.35635
# Poissons Ratio (z) = 0.28242 0.51025
#
# Static dielectric constant tensor:
#      x y z
#    x 3.376430 0.000000 0.000000 
#    y 0.000000 3.257910 0.000000 
#    z 0.000000 0.000000 3.424580 
# 
# 
# High freq. dielectric constant tensor:
#      x y z
#    x 1.694000 0.000000 0.000000 
#    y 0.000000 1.684670 0.000000 
#    z 0.000000 0.000000 1.703540 
# 
# From -- ./inp_files/15630.got.cif
#   From: 2010.06.25/outbox.cif.g09.slc.cpg/sg71_8_cif.got.tgz:15630.got - 2010.06.28 04:59:45.
