data_PCOD8290084
_publ_section_title
;
Structure prediction by ZEFSAII (Michael W. Deem and Ramdas Pophale) SiO2 
 PCOD8290084
Probable space group: I M M M
;
_chemical_formula_sum "Si O2"
_cell_formula_units_Z 88
_cell_length_a 18.911744
_cell_length_b 9.169578
_cell_length_c 27.837133
_cell_angle_alpha 90.000000
_cell_angle_beta 90.000000
_cell_angle_gamma 90.000000
_cell_volume 4827.312720
_symmetry_space_group_name_H-M "I M M M"
_symmetry_group_IT_number 71
_symmetry_cell_setting 'orthorhombic'
loop_
_space_group_symop_operation_xyz
x,y,z
-x,-y,z
x,-y,-z
-x,y,-z
-x,-y,-z
x,y,-z
-x,y,z
x,-y,z
1/2+x,1/2+y,1/2+z
1/2-x,1/2-y,1/2+z
1/2+x,1/2-y,1/2-z
1/2-x,1/2+y,1/2-z
1/2-x,1/2-y,1/2-z
1/2+x,1/2+y,1/2-z
1/2-x,1/2+y,1/2+z
1/2+x,1/2-y,1/2+z
loop_
_atom_site_type_symbol
_atom_site_label
_atom_site_fract_x
_atom_site_fract_y
_atom_site_fract_z
Si Si1 0.080714 0.830769 0.767196
Si Si2 0.824671 0.832413 0.852395
Si Si3 0.139710 0.831791 0.398318
Si Si4 0.786744 0.668415 0.054370
Si Si5 0.000000 0.172424 0.448651
Si Si6 0.179206 0.328892 0.307374
O O1 0.102308 0.810225 0.823249
O O2 0.140076 0.747704 0.736818
O O3 0.000000 0.772265 0.759999
O O4 0.084303 0.000000 0.752690
O O5 0.830247 0.748974 0.903361
O O6 0.760910 0.778981 0.816717
O O7 0.810642 0.000000 0.865577
O O8 0.203862 0.810030 0.435311
O O9 0.069686 0.775127 0.422857
O O10 0.139503 0.721034 0.354651
O O11 0.136378 0.000000 0.380632
O O12 0.808358 0.500000 0.057036
O O13 0.802784 0.727596 0.000000
O O14 0.000000 0.248817 0.500000
O O15 0.000000 0.000000 0.453461
O O16 0.173348 0.500000 0.298565
#
# Coordination Sequence:
#
# PCOD8290084 Si02
#       6
#    16  16  16  16   8  16
#     4  10  21  36  54  74  98 129 167 208 249 295
#     4   9  19  35  53  75 101 130 164 204 248 295
#     4   9  17  29  46  68  96 129 166 205 242 284
#     4   9  17  30  50  75 100 127 163 206 247 290
#     4   9  16  26  43  65  89 123 167 209 242 275
#     4  10  20  33  50  73 101 131 163 201 246 296
#
# _framework density 18.229604999999999
#
# number of rings (size 3 to 8) (size 9 to 14) (size 15 to 20)
#    0.000    2.636    0.000    1.636    1.273    4.364 
#    0.000    0.000    0.000    2.727    0.000    3.818 
#    0.000    0.000    0.000    0.000    0.000    0.000 
#
# Total GULP energy -545169.675570 kJ/mol
# GULP energy per Si atom -12390.219899 kJ/mol
# Density = 1.818811 g / cm^3
# Si number density = 18.229605 Si / 1000 Ang^3
#
#
#
# Elastic Constant Matrix: (Units=GPa)
#
#
# Indices 1 2 3 4 5 6 
#
# 1 47.0479 20.4470 41.1513 0.0000 0.0000 0.0000
# 2 20.4470 44.3280 39.2165 0.0000 0.0000 0.0000
# 3 41.1513 39.2165 114.2753 0.0000 0.0000 0.0000
# 4 0.0000 0.0000 0.0000 31.3213 0.0000 0.0000
# 5 0.0000 0.0000 0.0000 0.0000 27.3273 0.0000
# 6 0.0000 0.0000 0.0000 0.0000 0.0000 24.3281
#
#
#
# Elastic Compliance Matrix: (Units=1/GPa)
#
#
# Indices 1 2 3 4 5 6 
#
# 1 0.032328 -0.006624 -0.009368 0.000000 0.000000 0.000000
# 2 -0.006624 0.033751 -0.009197 0.000000 0.000000 0.000000
# 3 -0.009368 -0.009197 0.015281 0.000000 0.000000 0.000000
# 4 0.000000 0.000000 0.000000 0.031927 0.000000 0.000000
# 5 0.000000 0.000000 0.000000 0.000000 0.036593 0.000000
# 6 0.000000 0.000000 0.000000 0.000000 0.000000 0.041105
#
#
# Mechanical properties :
#
#
# Convention : Reuss Voigt Hill
#
# Bulk Modulus (GPa) = 32.27786 45.25342 38.76564
# Shear Modulus (GPa) = 19.86564 23.58442 21.72503
#
# Velocity S-wave (km/s) = 3.30471 3.60077 3.45591
# Velocity P-wave (km/s) = 5.68386 6.49349 6.10211
#
# Compressibility (1/GPa) = 0.03098099
#
# Stress axis : x y z
#
# Youngs Moduli (GPa) = 30.93310 29.62859 65.44177
#
# Poissons Ratio (x) = 0.19625 0.61309
# Poissons Ratio (y) = 0.20489 0.60189
# Poissons Ratio (z) = 0.28979 0.27251
#
# Static dielectric constant tensor:
#      x y z
#    x 3.326230 0.000000 0.000000 
#    y 0.000000 3.189020 0.000000 
#    z 0.000000 0.000000 3.453710 
# 
# 
# High freq. dielectric constant tensor:
#      x y z
#    x 1.689660 0.000000 0.000000 
#    y 0.000000 1.687310 0.000000 
#    z 0.000000 0.000000 1.711010 
# 
# From -- ./inp_files/63220.got.cif
#   From: 2010.06.25/outbox.cif.g09.slc.cpg/sg71_32_cif.got.tgz:63220.got - 2010.06.28 04:59:45.
