data_PCOD8290182
_publ_section_title
;
Structure prediction by ZEFSAII (Michael W. Deem and Ramdas Pophale) SiO2 
 PCOD8290182
Probable space group: I M M M
;
_chemical_formula_sum "Si O2"
_cell_formula_units_Z 96
_cell_length_a 24.942374
_cell_length_b 9.362229
_cell_length_c 23.250522
_cell_angle_alpha 90.000000
_cell_angle_beta 90.000000
_cell_angle_gamma 90.000000
_cell_volume 5429.373945
_symmetry_space_group_name_H-M "I M M M"
_symmetry_group_IT_number 71
_symmetry_cell_setting 'orthorhombic'
loop_
_space_group_symop_operation_xyz
x,y,z
-x,-y,z
x,-y,-z
-x,y,-z
-x,-y,-z
x,y,-z
-x,y,z
x,-y,z
1/2+x,1/2+y,1/2+z
1/2-x,1/2-y,1/2+z
1/2+x,1/2-y,1/2-z
1/2-x,1/2+y,1/2-z
1/2-x,1/2-y,1/2-z
1/2+x,1/2+y,1/2-z
1/2-x,1/2+y,1/2+z
1/2+x,1/2-y,1/2+z
loop_
_atom_site_type_symbol
_atom_site_label
_atom_site_fract_x
_atom_site_fract_y
_atom_site_fract_z
Si Si1 0.148464 0.666421 0.634044
Si Si2 0.246957 0.163324 0.066548
Si Si3 0.938252 0.833382 0.565226
Si Si4 0.847160 0.332029 0.878015
Si Si5 0.695256 0.165200 0.254112
Si Si6 0.438024 0.336507 0.433765
O O1 0.138805 0.500000 0.622547
O O2 0.201829 0.719259 0.601584
O O3 0.097095 0.749028 0.610924
O O4 0.155707 0.701949 0.701373
O O5 0.196703 0.261700 0.080773
O O6 0.233128 0.000000 0.083304
O O7 0.261175 0.177593 0.000000
O O8 0.923993 0.786506 0.500000
O O9 0.000000 0.797895 0.578402
O O10 0.926883 0.000000 0.572981
O O11 0.847239 0.500000 0.889269
O O12 0.835702 0.293330 0.811964
O O13 0.905016 0.268585 0.893006
O O14 0.750000 0.250000 0.250000
O O15 0.711457 0.000000 0.252785
O O16 0.426034 0.299176 0.500000
O O17 0.500000 0.311923 0.419339
O O18 0.421558 0.500000 0.421480
#
# Coordination Sequence:
#
# PCOD8290182 Si02
#       6
#    16  16  16  16  16  16
#     4  10  20  35  55  78 104 138 181 222 261 308
#     4  10  20  33  51  76 106 139 174 215 263 317
#     4   9  19  36  56  79 109 142 174 214 267 321
#     4  11  22  34  52  80 109 138 175 218 268 318
#     4  10  21  37  55  76 105 142 182 220 260 310
#     4   9  19  37  59  80 104 139 181 220 261 314
#
# _framework density 17.681597
#
# number of rings (size 3 to 8) (size 9 to 14) (size 15 to 20)
#    0.000    2.167    1.667    2.500    0.000    6.333 
#    0.000    2.500    0.000    5.000    0.000    0.000 
#    0.000    0.000    0.000    0.000    0.000    0.000 
#
# Total GULP energy -595359.998152 kJ/mol
# GULP energy per Si atom -12403.333295 kJ/mol
# Density = 1.764135 g / cm^3
# Si number density = 17.681597 Si / 1000 Ang^3
#
#
#
# Elastic Constant Matrix: (Units=GPa)
#
#
# Indices 1 2 3 4 5 6 
#
# 1 102.1652 53.7868 51.2702 0.0000 0.0000 0.0000
# 2 53.7868 69.1744 43.9851 0.0000 0.0000 0.0000
# 3 51.2702 43.9851 98.6885 0.0000 0.0000 0.0000
# 4 0.0000 0.0000 0.0000 28.7853 0.0000 0.0000
# 5 0.0000 0.0000 0.0000 0.0000 26.5661 0.0000
# 6 0.0000 0.0000 0.0000 0.0000 0.0000 36.8382
#
#
#
# Elastic Compliance Matrix: (Units=1/GPa)
#
#
# Indices 1 2 3 4 5 6 
#
# 1 0.017786 -0.011100 -0.004293 0.000000 0.000000 0.000000
# 2 -0.011100 0.027101 -0.006312 0.000000 0.000000 0.000000
# 3 -0.004293 -0.006312 0.015176 0.000000 0.000000 0.000000
# 4 0.000000 0.000000 0.000000 0.034740 0.000000 0.000000
# 5 0.000000 0.000000 0.000000 0.000000 0.037642 0.000000
# 6 0.000000 0.000000 0.000000 0.000000 0.000000 0.027146
#
#
# Mechanical properties :
#
#
# Convention : Reuss Voigt Hill
#
# Bulk Modulus (GPa) = 60.04843 63.12357 61.58600
# Shear Modulus (GPa) = 23.97484 26.50366 25.23925
#
# Velocity S-wave (km/s) = 3.68628 3.87582 3.78223
# Velocity P-wave (km/s) = 7.22170 7.47040 7.34710
#
# Compressibility (1/GPa) = 0.01665322
#
# Stress axis : x y z
#
# Youngs Moduli (GPa) = 56.22320 36.89956 65.89181
#
# Poissons Ratio (x) = 0.40959 0.28287
# Poissons Ratio (y) = 0.62408 0.41591
# Poissons Ratio (z) = 0.24137 0.23291
#
# Static dielectric constant tensor:
#      x y z
#    x 3.207790 0.000000 0.000000 
#    y 0.000000 3.250210 0.000000 
#    z 0.000000 0.000000 3.525860 
# 
# 
# High freq. dielectric constant tensor:
#      x y z
#    x 1.681390 0.000000 0.000000 
#    y 0.000000 1.681970 0.000000 
#    z 0.000000 0.000000 1.687300 
# 
# From -- ./inp_files/10911.got.cif
#   From: 2010.06.25/outbox.cif.g09.slc.cpg/sg71_6_cif.got.tgz:10911.got - 2010.06.28 04:59:45.
