data_PCOD8290105
_publ_section_title
;
Structure prediction by ZEFSAII (Michael W. Deem and Ramdas Pophale) SiO2 
 PCOD8290105
Probable space group: I M M M
;
_chemical_formula_sum "Si O2"
_cell_formula_units_Z 72
_cell_length_a 27.700458
_cell_length_b 9.164197
_cell_length_c 14.416812
_cell_angle_alpha 90.000000
_cell_angle_beta 90.000000
_cell_angle_gamma 90.000000
_cell_volume 3659.743107
_symmetry_space_group_name_H-M "I M M M"
_symmetry_group_IT_number 71
_symmetry_cell_setting 'orthorhombic'
loop_
_space_group_symop_operation_xyz
x,y,z
-x,-y,z
x,-y,-z
-x,y,-z
-x,-y,-z
x,y,-z
-x,y,z
x,-y,z
1/2+x,1/2+y,1/2+z
1/2-x,1/2-y,1/2+z
1/2+x,1/2-y,1/2-z
1/2-x,1/2+y,1/2-z
1/2-x,1/2-y,1/2-z
1/2+x,1/2+y,1/2-z
1/2-x,1/2+y,1/2+z
1/2+x,1/2-y,1/2+z
loop_
_atom_site_type_symbol
_atom_site_label
_atom_site_fract_x
_atom_site_fract_y
_atom_site_fract_z
Si Si1 0.408063 0.826609 0.720427
Si Si2 0.500000 0.826729 0.604648
Si Si3 0.305305 0.840391 0.656687
Si Si4 0.123305 0.831385 0.397159
Si Si5 0.218896 0.660338 0.367593
O O1 0.453093 0.771380 0.659969
O O2 0.359993 0.779284 0.664131
O O3 0.409738 0.751139 0.821541
O O4 0.408313 0.000000 0.737231
O O5 0.500000 0.762509 0.500000
O O6 0.500000 0.000000 0.599937
O O7 0.270436 0.730115 0.601134
O O8 0.283137 0.858145 0.758121
O O9 0.305843 0.000000 0.608049
O O10 0.099701 0.816274 0.500000
O O11 0.176517 0.763713 0.403153
O O12 0.127880 0.000000 0.367916
O O13 0.214527 0.500000 0.413709
#
# Coordination Sequence:
#
# PCOD8290105 Si02
#       5
#    16   8  16  16  16
#     4   9  18  33  55  80 105 137 175 216 263 312
#     4   9  18  36  62  87 106 126 163 217 270 317
#     4   8  14  25  42  68 101 134 170 209 249 297
#     4  10  20  33  50  74 106 144 181 216 257 307
#     4   9  16  26  44  70 100 137 177 213 249 293
#
# _framework density 19.673513
#
# number of rings (size 3 to 8) (size 9 to 14) (size 15 to 20)
#    0.000    3.000    0.000    2.667    0.000    7.111 
#    0.000    2.222    0.000    8.667    0.000    0.000 
#    0.000    0.000    0.000    0.000    0.000    0.000 
#
# Total GULP energy -446118.737895 kJ/mol
# GULP energy per Si atom -12392.187164 kJ/mol
# Density = 1.962874 g / cm^3
# Si number density = 19.673513 Si / 1000 Ang^3
#
#
#
# Elastic Constant Matrix: (Units=GPa)
#
#
# Indices 1 2 3 4 5 6 
#
# 1 144.0749 40.6286 57.3007 0.0000 0.0000 0.0000
# 2 40.6286 88.4075 40.0778 0.0000 0.0000 0.0000
# 3 57.3007 40.0778 105.2747 0.0000 0.0000 0.0000
# 4 0.0000 0.0000 0.0000 10.9477 0.0000 0.0000
# 5 0.0000 0.0000 0.0000 0.0000 3.1552 0.0000
# 6 0.0000 0.0000 0.0000 0.0000 0.0000 23.9317
#
#
#
# Elastic Compliance Matrix: (Units=1/GPa)
#
#
# Indices 1 2 3 4 5 6 
#
# 1 0.009255 -0.002380 -0.004131 0.000000 0.000000 0.000000
# 2 -0.002380 0.014283 -0.004142 0.000000 0.000000 0.000000
# 3 -0.004131 -0.004142 0.013324 0.000000 0.000000 0.000000
# 4 0.000000 0.000000 0.000000 0.091344 0.000000 0.000000
# 5 0.000000 0.000000 0.000000 0.000000 0.316939 0.000000
# 6 0.000000 0.000000 0.000000 0.000000 0.000000 0.041786
#
#
# Mechanical properties :
#
#
# Convention : Reuss Voigt Hill
#
# Bulk Modulus (GPa) = 64.28680 68.19679 66.24179
# Shear Modulus (GPa) = 9.73856 20.92358 15.33107
#
# Velocity S-wave (km/s) = 2.22729 3.26474 2.79458
# Velocity P-wave (km/s) = 6.27393 6.99649 6.64504
#
# Compressibility (1/GPa) = 0.01555529
#
# Stress axis : x y z
#
# Youngs Moduli (GPa) = 108.04724 70.01429 75.05033
#
# Poissons Ratio (x) = 0.16667 0.31006
# Poissons Ratio (y) = 0.25720 0.31084
# Poissons Ratio (z) = 0.44638 0.28998
#
# Static dielectric constant tensor:
#      x y z
#    x 3.533190 0.000000 0.000000 
#    y 0.000000 3.775180 0.000000 
#    z 0.000000 0.000000 3.473400 
# 
# 
# High freq. dielectric constant tensor:
#      x y z
#    x 1.745400 0.000000 0.000000 
#    y 0.000000 1.755680 0.000000 
#    z 0.000000 0.000000 1.754550 
# 
# From -- ./inp_files/6109.got.cif
#   From: 2010.06.25/outbox.cif.g09.slc.cpg/sg71_4_cif.got.tgz:6109.got - 2010.06.28 04:59:45.
