data_PCOD8290840
_publ_section_title
;
Structure prediction by ZEFSAII (Michael W. Deem and Ramdas Pophale) SiO2 
 PCOD8290840
Probable space group: I M M M
;
_chemical_formula_sum "Si O2"
_cell_formula_units_Z 72
_cell_length_a 29.595110
_cell_length_b 14.449656
_cell_length_c 8.808430
_cell_angle_alpha 90.000000
_cell_angle_beta 90.000000
_cell_angle_gamma 90.000000
_cell_volume 3766.829595
_symmetry_space_group_name_H-M "I M M M"
_symmetry_group_IT_number 71
_symmetry_cell_setting 'orthorhombic'
loop_
_space_group_symop_operation_xyz
x,y,z
-x,-y,z
x,-y,-z
-x,y,-z
-x,-y,-z
x,y,-z
-x,y,z
x,-y,z
1/2+x,1/2+y,1/2+z
1/2-x,1/2-y,1/2+z
1/2+x,1/2-y,1/2-z
1/2-x,1/2+y,1/2-z
1/2-x,1/2-y,1/2-z
1/2+x,1/2+y,1/2-z
1/2-x,1/2+y,1/2+z
1/2+x,1/2-y,1/2+z
loop_
_atom_site_type_symbol
_atom_site_label
_atom_site_fract_x
_atom_site_fract_y
_atom_site_fract_z
Si Si1 0.842062 0.500000 0.180569
Si Si2 0.053099 0.188245 0.176153
Si Si3 0.053674 0.000000 0.670798
Si Si4 0.123831 0.313297 0.679563
Si Si5 0.209056 0.804316 0.679012
Si Si6 0.739312 0.500000 0.820244
O O1 0.868114 0.411000 0.241817
O O2 0.790632 0.500000 0.243624
O O3 0.843570 0.500000 0.000000
O O4 0.071224 0.091150 0.243395
O O5 0.076322 0.273078 0.263360
O O6 0.000000 0.199003 0.203563
O O7 0.065696 0.191352 0.000000
O O8 0.073526 0.000000 0.500000
O O9 0.000000 0.000000 0.668183
O O10 0.122828 0.327174 0.500000
O O11 0.162236 0.240715 0.732090
O O12 0.214469 0.799117 0.500000
O O13 0.250000 0.750000 0.750000
O O14 0.211897 0.910266 0.737427
O O15 0.742579 0.500000 0.000000
#
# Coordination Sequence:
#
# PCOD8290840 Si02
#       6
#     8  16   8  16  16   8
#     4  11  21  37  61  81 109 155 197 236 288 354
#     4  10  21  38  60  86 118 156 198 241 286 344
#     4   9  17  32  57  86 116 151 187 229 288 345
#     4  11  23  37  58  87 118 150 192 245 295 347
#     4  10  20  35  55  81 112 147 188 232 281 337
#     4   9  18  34  56  80 110 151 190 228 279 336
#
# _framework density 19.114217
#
# number of rings (size 3 to 8) (size 9 to 14) (size 15 to 20)
#    0.000    1.889    2.222    2.000    0.000    4.444 
#    0.000    3.333    0.000    3.333    0.000    0.000 
#    0.000    0.000    0.000    0.000    0.000    0.000 
#
# Total GULP energy -446480.143787 kJ/mol
# GULP energy per Si atom -12402.226216 kJ/mol
# Density = 1.907071 g / cm^3
# Si number density = 19.114217 Si / 1000 Ang^3
#
#
#
# Elastic Constant Matrix: (Units=GPa)
#
#
# Indices 1 2 3 4 5 6 
#
# 1 65.1202 55.7226 37.6784 0.0000 0.0000 0.0000
# 2 55.7226 180.2058 50.4843 0.0000 0.0000 0.0000
# 3 37.6784 50.4843 79.8705 0.0000 0.0000 0.0000
# 4 0.0000 0.0000 0.0000 33.0077 0.0000 0.0000
# 5 0.0000 0.0000 0.0000 0.0000 26.7734 0.0000
# 6 0.0000 0.0000 0.0000 0.0000 0.0000 21.7989
#
#
#
# Elastic Compliance Matrix: (Units=1/GPa)
#
#
# Indices 1 2 3 4 5 6 
#
# 1 0.024703 -0.005315 -0.008294 0.000000 0.000000 0.000000
# 2 -0.005315 0.007887 -0.002478 0.000000 0.000000 0.000000
# 3 -0.008294 -0.002478 0.017999 0.000000 0.000000 0.000000
# 4 0.000000 0.000000 0.000000 0.030296 0.000000 0.000000
# 5 0.000000 0.000000 0.000000 0.000000 0.037351 0.000000
# 6 0.000000 0.000000 0.000000 0.000000 0.000000 0.045874
#
#
# Mechanical properties :
#
#
# Convention : Reuss Voigt Hill
#
# Bulk Modulus (GPa) = 54.30241 68.10745 61.20493
# Shear Modulus (GPa) = 24.70092 28.40341 26.55217
#
# Velocity S-wave (km/s) = 3.59873 3.85903 3.73115
# Velocity P-wave (km/s) = 6.76306 7.45421 7.11703
#
# Compressibility (1/GPa) = 0.01841539
#
# Stress axis : x y z
#
# Youngs Moduli (GPa) = 40.48063 126.79325 55.55847
#
# Poissons Ratio (x) = 0.67392 0.46080
# Poissons Ratio (y) = 0.21516 0.13766
# Poissons Ratio (z) = 0.33575 0.31416
#
# Static dielectric constant tensor:
#      x y z
#    x 3.389750 0.000000 0.000000 
#    y 0.000000 3.949230 0.000000 
#    z 0.000000 0.000000 3.482170 
# 
# 
# High freq. dielectric constant tensor:
#      x y z
#    x 1.730220 0.000000 0.000000 
#    y 0.000000 1.754670 0.000000 
#    z 0.000000 0.000000 1.741260 
# 
# From -- ./inp_files/6223.got.cif
#   From: 2010.06.25/outbox.cif.g09.slc.cpg/sg71_4_cif.got.tgz:6223.got - 2010.06.28 04:59:45.
