data_PCOD8290052
_publ_section_title
;
Structure prediction by ZEFSAII (Michael W. Deem and Ramdas Pophale) SiO2 
 PCOD8290052
Probable space group: I M M M
;
_chemical_formula_sum "Si O2"
_cell_formula_units_Z 60
_cell_length_a 29.126214
_cell_length_b 10.612789
_cell_length_c 11.415593
_cell_angle_alpha 90.000000
_cell_angle_beta 90.000000
_cell_angle_gamma 90.000000
_cell_volume 3528.678102
_symmetry_space_group_name_H-M "I M M M"
_symmetry_group_IT_number 71
_symmetry_cell_setting 'orthorhombic'
loop_
_space_group_symop_operation_xyz
x,y,z
-x,-y,z
x,-y,-z
-x,y,-z
-x,-y,-z
x,y,-z
-x,y,z
x,-y,z
1/2+x,1/2+y,1/2+z
1/2-x,1/2-y,1/2+z
1/2+x,1/2-y,1/2-z
1/2-x,1/2+y,1/2-z
1/2-x,1/2-y,1/2-z
1/2+x,1/2+y,1/2-z
1/2-x,1/2+y,1/2+z
1/2+x,1/2-y,1/2+z
loop_
_atom_site_type_symbol
_atom_site_label
_atom_site_fract_x
_atom_site_fract_y
_atom_site_fract_z
Si Si1 0.333466 0.000000 0.631909
Si Si2 0.550131 0.648274 0.630077
Si Si3 0.254124 0.500000 0.000000
Si Si4 0.449828 0.000000 0.864402
Si Si5 0.881590 0.707783 0.282270
Si Si6 0.841662 0.857601 0.500000
O O1 0.347107 0.875102 0.703658
O O2 0.356126 0.000000 0.500000
O O3 0.278085 0.000000 0.616223
O O4 0.555594 0.705739 0.500000
O O5 0.500000 0.691228 0.680921
O O6 0.551363 0.500000 0.623672
O O7 0.593655 0.688008 0.705162
O O8 0.286300 0.624835 0.000000
O O9 0.422153 0.876584 0.831695
O O10 0.500000 0.000000 0.801593
O O11 0.458257 0.000000 0.000000
O O12 0.854774 0.777947 0.385694
O O13 0.864270 0.000000 0.500000
#
# Coordination Sequence:
#
# PCOD8290052 Si02
#       6
#     8  16   4   8  16   8
#     4   9  21  38  57  83 104 134 182 229 281 329
#     4   9  18  32  51  79 114 148 185 223 257 303
#     4   8  22  44  50  86 108 126 184 242 278 320
#     4  10  20  33  49  79 114 139 175 211 250 308
#     4  11  19  34  60  77 109 148 180 217 273 325
#     4  10  22  37  55  81 110 139 183 226 271 334
#
# _framework density 17.003534999999999
#
# number of rings (size 3 to 8) (size 9 to 14) (size 15 to 20)
#    0.800    1.467    1.333    3.200    0.000    1.067 
#    0.000    0.000    0.000    9.600    0.000    0.000 
#    0.000    0.000    0.000    0.000    0.000    0.000 
#
# Total GULP energy -371676.114592 kJ/mol
# GULP energy per Si atom -12389.203820 kJ/mol
# Density = 1.696483 g / cm^3
# Si number density = 17.003535 Si / 1000 Ang^3
#
#
#
# Elastic Constant Matrix: (Units=GPa)
#
#
# Indices 1 2 3 4 5 6 
#
# 1 142.6068 52.3373 66.3764 0.0000 0.0000 0.0000
# 2 52.3373 81.8170 53.6874 0.0000 0.0000 0.0000
# 3 66.3764 53.6874 115.0831 0.0000 0.0000 0.0000
# 4 0.0000 0.0000 0.0000 28.6755 0.0000 0.0000
# 5 0.0000 0.0000 0.0000 0.0000 -195.9665 0.0000
# 6 0.0000 0.0000 0.0000 0.0000 0.0000 21.2885
#
#
#
# Elastic Compliance Matrix: (Units=1/GPa)
#
#
# Indices 1 2 3 4 5 6 
#
# 1 0.010387 -0.003910 -0.004167 0.000000 0.000000 0.000000
# 2 -0.003910 0.019087 -0.006649 0.000000 0.000000 0.000000
# 3 -0.004167 -0.006649 0.014194 0.000000 0.000000 0.000000
# 4 0.000000 0.000000 0.000000 0.034873 0.000000 0.000000
# 5 0.000000 0.000000 0.000000 0.000000 -0.005103 0.000000
# 6 0.000000 0.000000 0.000000 0.000000 0.000000 0.046974
#
#
# Mechanical properties :
#
#
# Convention : Reuss Voigt Hill
#
# Bulk Modulus (GPa) = 70.34132 76.03433 73.18782
# Shear Modulus (GPa) = 32.34128 -18.06010 7.14059
#
# Velocity S-wave (km/s) = 4.36596 -3.26258 2.05148
# Velocity P-wave (km/s) = 8.17765 5.53365 6.98195
#
# Compressibility (1/GPa) = 0.01421640
#
# Stress axis : x y z
#
# Youngs Moduli (GPa) = 96.27730 52.39292 70.45106
#
# Poissons Ratio (x) = 0.20486 0.29354
# Poissons Ratio (y) = 0.37646 0.46841
# Poissons Ratio (z) = 0.40115 0.34835
#
# Static dielectric constant tensor:
#      x y z
#    x 3.124190 0.000000 0.000000 
#    y 0.000000 3.074470 0.000000 
#    z 0.000000 0.000000 3.212550 
# 
# 
# High freq. dielectric constant tensor:
#      x y z
#    x 1.651380 0.000000 0.000000 
#    y 0.000000 1.654820 0.000000 
#    z 0.000000 0.000000 1.656480 
# 
# From -- ./inp_files/29572.got.cif
#   From: 2010.06.25/outbox.cif.g09.slc.cpg/sg71_15_cif.got.tgz:29572.got - 2010.06.28 04:59:45.
