data_PCOD8290740
_publ_section_title
;
Structure prediction by ZEFSAII (Michael W. Deem and Ramdas Pophale) SiO2 
 PCOD8290740
Probable space group: I M M M
;
_chemical_formula_sum "Si O2"
_cell_formula_units_Z 104
_cell_length_a 22.203932
_cell_length_b 14.467959
_cell_length_c 16.241582
_cell_angle_alpha 90.000000
_cell_angle_beta 90.000000
_cell_angle_gamma 90.000000
_cell_volume 5217.536394
_symmetry_space_group_name_H-M "I M M M"
_symmetry_group_IT_number 71
_symmetry_cell_setting 'orthorhombic'
loop_
_space_group_symop_operation_xyz
x,y,z
-x,-y,z
x,-y,-z
-x,y,-z
-x,-y,-z
x,y,-z
-x,y,z
x,-y,z
1/2+x,1/2+y,1/2+z
1/2-x,1/2-y,1/2+z
1/2+x,1/2-y,1/2-z
1/2-x,1/2+y,1/2-z
1/2-x,1/2-y,1/2-z
1/2+x,1/2+y,1/2-z
1/2-x,1/2+y,1/2+z
1/2+x,1/2-y,1/2+z
loop_
_atom_site_type_symbol
_atom_site_label
_atom_site_fract_x
_atom_site_fract_y
_atom_site_fract_z
Si Si1 0.000000 0.391327 0.092763
Si Si2 0.701336 0.101967 0.186977
Si Si3 0.913417 0.602759 0.594131
Si Si4 0.934105 0.213442 0.316685
Si Si5 0.768015 0.749423 0.094429
Si Si6 0.331505 0.603005 0.903325
Si Si7 0.118672 0.310073 0.175163
O O1 0.060746 0.362517 0.139906
O O2 0.000000 0.500000 0.088023
O O3 0.000000 0.349535 0.000000
O O4 0.594784 0.278639 0.274009
O O5 0.755068 0.171439 0.162704
O O6 0.660907 0.127406 0.266048
O O7 0.728800 0.000000 0.200932
O O8 0.928672 0.624401 0.500000
O O9 0.937985 0.500000 0.618678
O O10 0.943319 0.682231 0.648934
O O11 0.841608 0.604806 0.606821
O O12 0.892273 0.150729 0.372779
O O13 0.000000 0.166881 0.311890
O O14 0.838430 0.723579 0.101058
O O15 0.755016 0.779059 0.000000
O O16 0.324830 0.500000 0.865327
O O17 0.272982 0.662064 0.878524
O O18 0.337341 0.596291 0.000000
#
# Coordination Sequence:
#
# PCOD8290740 Si02
#       7
#     8  16  16  16  16  16  16
#     4  11  24  42  64  90 124 165 206 246 292 349
#     4  10  20  34  59  92 123 155 191 241 299 359
#     4   9  17  30  50  79 115 151 186 226 280 351
#     4  11  22  37  56  81 114 156 200 244 294 349
#     4  11  22  39  62  88 120 158 200 246 300 364
#     4  10  22  39  59  85 119 157 199 250 301 355
#     4  11  22  40  59  89 120 156 202 246 297 349
#
# _framework density 19.932777999999999
#
# number of rings (size 3 to 8) (size 9 to 14) (size 15 to 20)
#    0.000    1.615    3.846    2.308    0.000    4.615 
#    0.000    3.077    0.000    0.000    0.000    0.000 
#    0.000    2.462    0.000    0.000    0.000    0.000 
#
# Total GULP energy -644492.176531 kJ/mol
# GULP energy per Si atom -12394.080318 kJ/mol
# Density = 1.988741 g / cm^3
# Si number density = 19.932778 Si / 1000 Ang^3
#
#
#
# Elastic Constant Matrix: (Units=GPa)
#
#
# Indices 1 2 3 4 5 6 
#
# 1 131.1544 41.0181 32.1963 0.0000 0.0000 0.0000
# 2 41.0181 97.9747 30.3920 0.0000 0.0000 0.0000
# 3 32.1963 30.3920 67.2368 0.0000 0.0000 0.0000
# 4 0.0000 0.0000 0.0000 16.1981 0.0000 0.0000
# 5 0.0000 0.0000 0.0000 0.0000 9.5497 0.0000
# 6 0.0000 0.0000 0.0000 0.0000 0.0000 8.8220
#
#
#
# Elastic Compliance Matrix: (Units=1/GPa)
#
#
# Indices 1 2 3 4 5 6 
#
# 1 0.009309 -0.002925 -0.003136 0.000000 0.000000 0.000000
# 2 -0.002925 0.012790 -0.004381 0.000000 0.000000 0.000000
# 3 -0.003136 -0.004381 0.018355 0.000000 0.000000 0.000000
# 4 0.000000 0.000000 0.000000 0.061735 0.000000 0.000000
# 5 0.000000 0.000000 0.000000 0.000000 0.104715 0.000000
# 6 0.000000 0.000000 0.000000 0.000000 0.000000 0.113353
#
#
# Mechanical properties :
#
#
# Convention : Reuss Voigt Hill
#
# Bulk Modulus (GPa) = 51.09503 55.95320 53.52411
# Shear Modulus (GPa) = 14.38172 19.76460 17.07316
#
# Velocity S-wave (km/s) = 2.68901 3.15232 2.92984
# Velocity P-wave (km/s) = 5.94393 6.43284 6.19321
#
# Compressibility (1/GPa) = 0.01957138
#
# Stress axis : x y z
#
# Youngs Moduli (GPa) = 107.42270 78.18549 54.48248
#
# Poissons Ratio (x) = 0.22866 0.17084
# Poissons Ratio (y) = 0.31417 0.23868
# Poissons Ratio (z) = 0.33684 0.34252
#
# Static dielectric constant tensor:
#      x y z
#    x 3.621350 0.000000 0.000000 
#    y 0.000000 3.670000 0.000000 
#    z 0.000000 0.000000 3.623040 
# 
# 
# High freq. dielectric constant tensor:
#      x y z
#    x 1.778250 0.000000 0.000000 
#    y 0.000000 1.758230 0.000000 
#    z 0.000000 0.000000 1.775310 
# 
# From -- ./inp_files/54147.got.cif
#   From: 2010.06.25/outbox.cif.g09.slc.cpg/sg71_28_cif.got.tgz:54147.got - 2010.06.28 04:59:45.
