data_PCOD8290514
_publ_section_title
;
Structure prediction by ZEFSAII (Michael W. Deem and Ramdas Pophale) SiO2 
 PCOD8290514
Probable space group: I M M M
;
_chemical_formula_sum "Si O2"
_cell_formula_units_Z 96
_cell_length_a 29.797149
_cell_length_b 8.932514
_cell_length_c 19.323767
_cell_angle_alpha 90.000000
_cell_angle_beta 90.000000
_cell_angle_gamma 90.000000
_cell_volume 5143.280503
_symmetry_space_group_name_H-M "I M M M"
_symmetry_group_IT_number 71
_symmetry_cell_setting 'orthorhombic'
loop_
_space_group_symop_operation_xyz
x,y,z
-x,-y,z
x,-y,-z
-x,y,-z
-x,-y,-z
x,y,-z
-x,y,z
x,-y,z
1/2+x,1/2+y,1/2+z
1/2-x,1/2-y,1/2+z
1/2+x,1/2-y,1/2-z
1/2-x,1/2+y,1/2-z
1/2-x,1/2-y,1/2-z
1/2+x,1/2+y,1/2-z
1/2-x,1/2+y,1/2+z
1/2+x,1/2-y,1/2+z
loop_
_atom_site_type_symbol
_atom_site_label
_atom_site_fract_x
_atom_site_fract_y
_atom_site_fract_z
Si Si1 0.208871 0.824422 0.289838
Si Si2 0.262877 0.175969 0.921622
Si Si3 0.053278 0.832378 0.424191
Si Si4 0.877002 0.825307 0.801319
Si Si5 0.552864 0.828425 0.211161
Si Si6 0.831530 0.672291 0.921307
O O1 0.250000 0.750000 0.250000
O O2 0.204400 0.758190 0.367533
O O3 0.162980 0.785145 0.251176
O O4 0.217603 0.000000 0.293800
O O5 0.212633 0.230918 0.907189
O O6 0.264150 0.000000 0.908075
O O7 0.277835 0.216113 0.000000
O O8 0.071031 0.779785 0.500000
O O9 0.070508 0.720910 0.364835
O O10 0.000000 0.833410 0.425486
O O11 0.070973 0.000000 0.407960
O O12 0.923802 0.772041 0.769156
O O13 0.870641 0.735854 0.872758
O O14 0.879460 0.000000 0.817781
O O15 0.500000 0.801931 0.218408
O O16 0.566275 0.000000 0.221883
O O17 0.820936 0.500000 0.903513
O O18 0.848070 0.689902 0.000000
#
# Coordination Sequence:
#
# PCOD8290514 Si02
#       6
#    16  16  16  16  16  16
#     4  11  22  35  54  80 110 144 181 224 272 323
#     4  10  20  34  53  78 110 148 187 226 270 322
#     4   8  14  27  49  75 102 134 173 217 265 318
#     4  11  23  37  56  82 110 145 185 225 273 328
#     4  10  21  36  55  80 109 142 182 230 281 330
#     4  10  20  34  55  82 110 142 180 223 270 322
#
# _framework density 18.665130000000001
#
# number of rings (size 3 to 8) (size 9 to 14) (size 15 to 20)
#    0.000    2.000    1.667    3.000    0.000    5.333 
#    0.000    2.500    0.000    1.500    0.000    3.500 
#    0.000    0.000    0.000    0.000    0.000    0.000 
#
# Total GULP energy -595262.625568 kJ/mol
# GULP energy per Si atom -12401.304699 kJ/mol
# Density = 1.862265 g / cm^3
# Si number density = 18.665130 Si / 1000 Ang^3
#
#
#
# Elastic Constant Matrix: (Units=GPa)
#
#
# Indices 1 2 3 4 5 6 
#
# 1 41.1027 31.4179 31.1827 0.0000 0.0000 0.0000
# 2 31.4179 93.6458 53.8335 0.0000 0.0000 0.0000
# 3 31.1827 53.8335 119.6849 0.0000 0.0000 0.0000
# 4 0.0000 0.0000 0.0000 38.7205 0.0000 0.0000
# 5 0.0000 0.0000 0.0000 0.0000 25.1609 0.0000
# 6 0.0000 0.0000 0.0000 0.0000 0.0000 25.5949
#
#
#
# Elastic Compliance Matrix: (Units=1/GPa)
#
#
# Indices 1 2 3 4 5 6 
#
# 1 0.034938 -0.008752 -0.005166 0.000000 0.000000 0.000000
# 2 -0.008752 0.016595 -0.005184 0.000000 0.000000 0.000000
# 3 -0.005166 -0.005184 0.012033 0.000000 0.000000 0.000000
# 4 0.000000 0.000000 0.000000 0.025826 0.000000 0.000000
# 5 0.000000 0.000000 0.000000 0.000000 0.039744 0.000000
# 6 0.000000 0.000000 0.000000 0.000000 0.000000 0.039070
#
#
# Mechanical properties :
#
#
# Convention : Reuss Voigt Hill
#
# Bulk Modulus (GPa) = 39.42917 54.14461 46.78689
# Shear Modulus (GPa) = 23.27038 27.09521 25.18280
#
# Velocity S-wave (km/s) = 3.53474 3.81418 3.67712
# Velocity P-wave (km/s) = 6.15057 6.96195 6.56880
#
# Compressibility (1/GPa) = 0.02536193
#
# Stress axis : x y z
#
# Youngs Moduli (GPa) = 28.62178 60.25960 83.10430
#
# Poissons Ratio (x) = 0.52738 0.42935
# Poissons Ratio (y) = 0.25049 0.43082
# Poissons Ratio (z) = 0.14787 0.31239
#
# Static dielectric constant tensor:
#      x y z
#    x 3.048900 0.000000 0.000000 
#    y 0.000000 3.538740 0.000000 
#    z 0.000000 0.000000 3.760430 
# 
# 
# High freq. dielectric constant tensor:
#      x y z
#    x 1.682780 0.000000 0.000000 
#    y 0.000000 1.737560 0.000000 
#    z 0.000000 0.000000 1.735520 
# 
# From -- ./inp_files/50811.got.cif
#   From: 2010.06.25/outbox.cif.g09.slc.cpg/sg71_26_cif.got.tgz:50811.got - 2010.06.28 04:59:45.
