data_PCOD8290386
_publ_section_title
;
Structure prediction by ZEFSAII (Michael W. Deem and Ramdas Pophale) SiO2 
 PCOD8290386
Probable space group: I M M M
;
_chemical_formula_sum "Si O2"
_cell_formula_units_Z 88
_cell_length_a 27.833582
_cell_length_b 18.386262
_cell_length_c 9.161912
_cell_angle_alpha 90.000000
_cell_angle_beta 90.000000
_cell_angle_gamma 90.000000
_cell_volume 4688.659141
_symmetry_space_group_name_H-M "I M M M"
_symmetry_group_IT_number 71
_symmetry_cell_setting 'orthorhombic'
loop_
_space_group_symop_operation_xyz
x,y,z
-x,-y,z
x,-y,-z
-x,y,-z
-x,-y,-z
x,y,-z
-x,y,z
x,-y,z
1/2+x,1/2+y,1/2+z
1/2-x,1/2-y,1/2+z
1/2+x,1/2-y,1/2-z
1/2-x,1/2+y,1/2-z
1/2-x,1/2-y,1/2-z
1/2+x,1/2+y,1/2-z
1/2-x,1/2+y,1/2+z
1/2+x,1/2-y,1/2+z
loop_
_atom_site_type_symbol
_atom_site_label
_atom_site_fract_x
_atom_site_fract_y
_atom_site_fract_z
Si Si1 0.685263 0.329232 0.672566
Si Si2 0.906855 0.130583 0.670402
Si Si3 0.054064 0.710760 0.669652
Si Si4 0.265201 0.916471 0.330716
Si Si5 0.145389 0.674131 0.166983
Si Si6 0.554027 0.500000 0.657887
O O1 0.684541 0.340921 0.500000
O O2 0.644039 0.375654 0.749517
O O3 0.735103 0.359847 0.734508
O O4 0.676395 0.244929 0.716180
O O5 0.899010 0.116414 0.500000
O O6 0.934330 0.205438 0.700945
O O7 0.938415 0.069239 0.741632
O O8 0.056640 0.692603 0.500000
O O9 0.095373 0.662911 0.746739
O O10 0.000000 0.693485 0.728427
O O11 0.251038 0.906153 0.500000
O O12 0.321278 0.896267 0.307505
O O13 0.257359 0.000000 0.280911
O O14 0.130279 0.683724 0.000000
O O15 0.500000 0.500000 0.610554
O O16 0.582489 0.500000 0.500000
#
# Coordination Sequence:
#
# PCOD8290386 Si02
#       6
#    16  16  16  16  16   8
#     4  10  20  34  53  77 105 135 172 217 262 308
#     4  10  20  34  52  72  99 135 175 214 256 309
#     4   9  18  33  54  79 103 129 167 214 260 310
#     4  10  21  36  54  76 105 139 176 215 259 313
#     4   9  19  35  54  78 105 136 173 215 261 309
#     4  11  23  35  47  67  99 137 175 219 266 305
#
# _framework density 18.768692999999999
#
# number of rings (size 3 to 8) (size 9 to 14) (size 15 to 20)
#    0.000    2.273    0.000    2.455    1.273    4.364 
#    0.000    0.000    0.000    0.545    0.000    3.818 
#    0.000    0.000    0.000    0.000    0.000    0.000 
#
# Total GULP energy -545441.031050 kJ/mol
# GULP energy per Si atom -12396.387069 kJ/mol
# Density = 1.872598 g / cm^3
# Si number density = 18.768693 Si / 1000 Ang^3
#
#
#
# Elastic Constant Matrix: (Units=GPa)
#
#
# Indices 1 2 3 4 5 6 
#
# 1 119.5310 24.7297 46.0308 0.0000 0.0000 0.0000
# 2 24.7297 39.5635 21.6532 0.0000 0.0000 0.0000
# 3 46.0308 21.6532 73.0010 0.0000 0.0000 0.0000
# 4 0.0000 0.0000 0.0000 24.4631 0.0000 0.0000
# 5 0.0000 0.0000 0.0000 0.0000 34.9422 0.0000
# 6 0.0000 0.0000 0.0000 0.0000 0.0000 55.7172
#
#
#
# Elastic Compliance Matrix: (Units=1/GPa)
#
#
# Indices 1 2 3 4 5 6 
#
# 1 0.011520 -0.003850 -0.006122 0.000000 0.000000 0.000000
# 2 -0.003850 0.031461 -0.006904 0.000000 0.000000 0.000000
# 3 -0.006122 -0.006904 0.019606 0.000000 0.000000 0.000000
# 4 0.000000 0.000000 0.000000 0.040878 0.000000 0.000000
# 5 0.000000 0.000000 0.000000 0.000000 0.028619 0.000000
# 6 0.000000 0.000000 0.000000 0.000000 0.000000 0.017948
#
#
# Mechanical properties :
#
#
# Convention : Reuss Voigt Hill
#
# Bulk Modulus (GPa) = 34.67988 46.32475 40.50232
# Shear Modulus (GPa) = 25.85363 32.33663 29.09513
#
# Velocity S-wave (km/s) = 3.71548 4.15529 3.94152
# Velocity P-wave (km/s) = 6.07651 6.91067 6.50697
#
# Compressibility (1/GPa) = 0.02883516
#
# Stress axis : x y z
#
# Youngs Moduli (GPa) = 86.80440 31.78530 51.00350
#
# Poissons Ratio (x) = 0.12238 0.31224
# Poissons Ratio (y) = 0.33422 0.35213
# Poissons Ratio (z) = 0.53142 0.21945
#
# Static dielectric constant tensor:
#      x y z
#    x 3.525920 0.000000 0.000000 
#    y 0.000000 3.230070 0.000000 
#    z 0.000000 0.000000 3.450010 
# 
# 
# High freq. dielectric constant tensor:
#      x y z
#    x 1.731240 0.000000 0.000000 
#    y 0.000000 1.701320 0.000000 
#    z 0.000000 0.000000 1.733420 
# 
# From -- ./inp_files/10405.got.cif
#   From: 2010.06.25/outbox.cif.g09.slc.cpg/sg71_6_cif.got.tgz:10405.got - 2010.06.28 04:59:45.
