data_PCOD8290049
_publ_section_title
;
Structure prediction by ZEFSAII (Michael W. Deem and Ramdas Pophale) SiO2 
 PCOD8290049
Probable space group: I M M M
;
_chemical_formula_sum "Si O2"
_cell_formula_units_Z 88
_cell_length_a 15.503420
_cell_length_b 13.043374
_cell_length_c 25.465952
_cell_angle_alpha 90.000000
_cell_angle_beta 90.000000
_cell_angle_gamma 90.000000
_cell_volume 5149.646005
_symmetry_space_group_name_H-M "I M M M"
_symmetry_group_IT_number 71
_symmetry_cell_setting 'orthorhombic'
loop_
_space_group_symop_operation_xyz
x,y,z
-x,-y,z
x,-y,-z
-x,y,-z
-x,-y,-z
x,y,-z
-x,y,z
x,-y,z
1/2+x,1/2+y,1/2+z
1/2-x,1/2-y,1/2+z
1/2+x,1/2-y,1/2-z
1/2-x,1/2+y,1/2-z
1/2-x,1/2-y,1/2-z
1/2+x,1/2+y,1/2-z
1/2-x,1/2+y,1/2+z
1/2+x,1/2-y,1/2+z
loop_
_atom_site_type_symbol
_atom_site_label
_atom_site_fract_x
_atom_site_fract_y
_atom_site_fract_z
Si Si1 0.207795 0.617661 0.403082
Si Si2 0.598877 0.879605 0.690626
Si Si3 0.101883 0.314174 0.500000
Si Si4 0.293170 0.614841 0.000000
Si Si5 0.176719 0.696953 0.090266
Si Si6 0.095529 0.377998 0.692720
Si Si7 0.500000 0.113201 0.440825
O O1 0.237225 0.500000 0.397735
O O2 0.138648 0.627966 0.449358
O O3 0.292651 0.685259 0.414273
O O4 0.164313 0.661570 0.349814
O O5 0.500000 0.850616 0.672733
O O6 0.672394 0.836839 0.651387
O O7 0.617905 0.835679 0.749017
O O8 0.608872 0.000000 0.692730
O O9 0.128115 0.194514 0.500000
O O10 0.000000 0.324069 0.500000
O O11 0.237663 0.627691 0.946611
O O12 0.330927 0.500000 0.000000
O O13 0.080464 0.685451 0.070137
O O14 0.095654 0.500000 0.692573
O O15 0.000000 0.338629 0.676943
O O16 0.500000 0.080386 0.500000
O O17 0.500000 0.000000 0.410617
#
# Coordination Sequence:
#
# PCOD8290049 Si02
#       7
#    16  16   8   8  16  16   8
#     4  10  21  35  49  69 100 130 163 207 242 278
#     4   9  16  27  47  74  99 122 157 204 244 284
#     4  10  21  35  55  77  92 123 168 200 239 290
#     4  10  20  33  49  75 108 131 148 191 248 297
#     4  11  20  30  49  74 101 129 166 197 238 290
#     4   8  15  29  49  71  95 126 161 201 246 282
#     4  11  20  32  53  75  99 127 156 197 245 295
#
# _framework density 17.088553999999998
#
# number of rings (size 3 to 8) (size 9 to 14) (size 15 to 20)
#    0.000    2.273    1.818    3.545    0.000    2.364 
#    0.000    0.455    0.000    0.545    0.000    0.000 
#    0.000    1.818    0.000    0.000    0.000    0.000 
#
# Total GULP energy -545230.175069 kJ/mol
# GULP energy per Si atom -12391.594888 kJ/mol
# Density = 1.704966 g / cm^3
# Si number density = 17.088554 Si / 1000 Ang^3
#
#
#
# Elastic Constant Matrix: (Units=GPa)
#
#
# Indices 1 2 3 4 5 6 
#
# 1 86.8620 38.8933 35.0020 0.0000 0.0000 0.0000
# 2 38.8933 75.4503 28.0123 0.0000 0.0000 0.0000
# 3 35.0020 28.0123 105.9804 0.0000 0.0000 0.0000
# 4 0.0000 0.0000 0.0000 5.6963 0.0000 0.0000
# 5 0.0000 0.0000 0.0000 0.0000 24.8218 0.0000
# 6 0.0000 0.0000 0.0000 0.0000 0.0000 18.4145
#
#
#
# Elastic Compliance Matrix: (Units=1/GPa)
#
#
# Indices 1 2 3 4 5 6 
#
# 1 0.016028 -0.006982 -0.003448 0.000000 0.000000 0.000000
# 2 -0.006982 0.017737 -0.002382 0.000000 0.000000 0.000000
# 3 -0.003448 -0.002382 0.011204 0.000000 0.000000 0.000000
# 4 0.000000 0.000000 0.000000 0.175553 0.000000 0.000000
# 5 0.000000 0.000000 0.000000 0.000000 0.040287 0.000000
# 6 0.000000 0.000000 0.000000 0.000000 0.000000 0.054305
#
#
# Mechanical properties :
#
#
# Convention : Reuss Voigt Hill
#
# Bulk Modulus (GPa) = 51.69363 52.45643 52.07503
# Shear Modulus (GPa) = 14.40140 20.87885 17.64012
#
# Velocity S-wave (km/s) = 2.90617 3.49922 3.21639
# Velocity P-wave (km/s) = 6.44804 6.86218 6.65833
#
# Compressibility (1/GPa) = 0.01934475
#
# Stress axis : x y z
#
# Youngs Moduli (GPa) = 62.38968 56.37813 89.25222
#
# Poissons Ratio (x) = 0.39364 0.30776
# Poissons Ratio (y) = 0.43561 0.21263
# Poissons Ratio (z) = 0.21513 0.13431
#
# Static dielectric constant tensor:
#      x y z
#    x 3.005950 0.000000 0.000000 
#    y 0.000000 2.860420 0.000000 
#    z 0.000000 0.000000 3.867470 
# 
# 
# High freq. dielectric constant tensor:
#      x y z
#    x 1.639310 0.000000 0.000000 
#    y 0.000000 1.624680 0.000000 
#    z 0.000000 0.000000 1.686560 
# 
# From -- ./inp_files/65384.got.cif
#   From: 2010.06.25/outbox.cif.g09.slc.cpg/sg71_33_cif.got.tgz:65384.got - 2010.06.28 04:59:45.
