data_PCOD8290776
_publ_section_title
;
Structure prediction by ZEFSAII (Michael W. Deem and Ramdas Pophale) SiO2 
 PCOD8290776
Probable space group: I M M M
;
_chemical_formula_sum "Si O2"
_cell_formula_units_Z 88
_cell_length_a 8.858600
_cell_length_b 24.135965
_cell_length_c 22.802197
_cell_angle_alpha 90.000000
_cell_angle_beta 90.000000
_cell_angle_gamma 90.000000
_cell_volume 4875.357340
_symmetry_space_group_name_H-M "I M M M"
_symmetry_group_IT_number 71
_symmetry_cell_setting 'orthorhombic'
loop_
_space_group_symop_operation_xyz
x,y,z
-x,-y,z
x,-y,-z
-x,y,-z
-x,-y,-z
x,y,-z
-x,y,z
x,-y,z
1/2+x,1/2+y,1/2+z
1/2-x,1/2-y,1/2+z
1/2+x,1/2-y,1/2-z
1/2-x,1/2+y,1/2-z
1/2-x,1/2-y,1/2-z
1/2+x,1/2+y,1/2-z
1/2-x,1/2+y,1/2+z
1/2+x,1/2-y,1/2+z
loop_
_atom_site_type_symbol
_atom_site_label
_atom_site_fract_x
_atom_site_fract_y
_atom_site_fract_z
Si Si1 0.178910 0.938803 0.281407
Si Si2 0.820941 0.871818 0.392525
Si Si3 0.675479 0.762816 0.431540
Si Si4 0.326561 0.434965 0.650758
Si Si5 0.824287 0.434823 0.000000
Si Si6 0.675484 0.149299 0.067205
O O1 0.236037 0.895757 0.330180
O O2 0.228575 0.919211 0.216485
O O3 0.000000 0.943163 0.282293
O O4 0.246025 0.000000 0.295001
O O5 0.765015 0.808941 0.395339
O O6 0.750099 0.909295 0.442756
O O7 0.000000 0.873816 0.398898
O O8 0.709524 0.772262 0.500000
O O9 0.500000 0.767754 0.417125
O O10 0.733390 0.703019 0.410881
O O11 0.500000 0.417384 0.640922
O O12 0.306189 0.500000 0.639887
O O13 0.221453 0.403390 0.605173
O O14 0.795438 0.500000 0.000000
O O15 0.000000 0.419298 0.000000
O O16 0.500000 0.161966 0.075017
O O17 0.716361 0.135811 0.000000
#
# Coordination Sequence:
#
# PCOD8290776 Si02
#       6
#    16  16  16  16   8  16
#     4   8  16  32  53  77 105 138 176 218 263 313
#     4  11  20  32  54  79 104 137 180 224 269 317
#     4  10  20  35  54  75 105 141 177 218 267 319
#     4   9  18  35  58  81 107 139 174 212 259 318
#     4  11  23  35  47  71 109 145 180 225 270 311
#     4  10  21  36  55  80 109 137 172 217 263 312
#
# _framework density 18.049958
#
# number of rings (size 3 to 8) (size 9 to 14) (size 15 to 20)
#    0.000    2.273    0.909    3.545    0.000    4.000 
#    0.000    4.545    0.000    2.182    0.000    0.000 
#    0.000    0.000    0.000    0.000    0.000    0.000 
#
# Total GULP energy -545657.060768 kJ/mol
# GULP energy per Si atom -12401.296836 kJ/mol
# Density = 1.800888 g / cm^3
# Si number density = 18.049958 Si / 1000 Ang^3
#
#
#
# Elastic Constant Matrix: (Units=GPa)
#
#
# Indices 1 2 3 4 5 6 
#
# 1 66.5924 41.1090 38.7843 0.0000 0.0000 0.0000
# 2 41.1090 100.8595 68.4331 0.0000 0.0000 0.0000
# 3 38.7843 68.4331 110.5296 0.0000 0.0000 0.0000
# 4 0.0000 0.0000 0.0000 32.4854 0.0000 0.0000
# 5 0.0000 0.0000 0.0000 0.0000 17.3466 0.0000
# 6 0.0000 0.0000 0.0000 0.0000 0.0000 34.1721
#
#
#
# Elastic Compliance Matrix: (Units=1/GPa)
#
#
# Indices 1 2 3 4 5 6 
#
# 1 0.020839 -0.006091 -0.003541 0.000000 0.000000 0.000000
# 2 -0.006091 0.018877 -0.009550 0.000000 0.000000 0.000000
# 3 -0.003541 -0.009550 0.016203 0.000000 0.000000 0.000000
# 4 0.000000 0.000000 0.000000 0.030783 0.000000 0.000000
# 5 0.000000 0.000000 0.000000 0.000000 0.057648 0.000000
# 6 0.000000 0.000000 0.000000 0.000000 0.000000 0.029264
#
#
# Mechanical properties :
#
#
# Convention : Reuss Voigt Hill
#
# Bulk Modulus (GPa) = 56.96609 63.84824 60.40717
# Shear Modulus (GPa) = 22.95356 25.44450 24.19903
#
# Velocity S-wave (km/s) = 3.56991 3.75863 3.66549
# Velocity P-wave (km/s) = 6.97289 7.36792 7.17312
#
# Compressibility (1/GPa) = 0.01755430
#
# Stress axis : x y z
#
# Youngs Moduli (GPa) = 47.98610 52.97353 61.71737
#
# Poissons Ratio (x) = 0.32267 0.21855
# Poissons Ratio (y) = 0.29229 0.58942
# Poissons Ratio (z) = 0.16993 0.50591
#
# Static dielectric constant tensor:
#      x y z
#    x 3.229820 0.000000 0.000000 
#    y 0.000000 3.369290 0.000000 
#    z 0.000000 0.000000 3.460750 
# 
# 
# High freq. dielectric constant tensor:
#      x y z
#    x 1.691960 0.000000 0.000000 
#    y 0.000000 1.703220 0.000000 
#    z 0.000000 0.000000 1.692050 
# 
# From -- ./inp_files/10484.got.cif
#   From: 2010.06.25/outbox.cif.g09.slc.cpg/sg71_6_cif.got.tgz:10484.got - 2010.06.28 04:59:45.
