data_PCOD8290999
_publ_section_title
;
Structure prediction by ZEFSAII (Michael W. Deem and Ramdas Pophale) SiO2 
 PCOD8290999
Probable space group: I M M M
;
_chemical_formula_sum "Si O2"
_cell_formula_units_Z 104
_cell_length_a 28.330767
_cell_length_b 21.080772
_cell_length_c 8.928550
_cell_angle_alpha 90.000000
_cell_angle_beta 90.000000
_cell_angle_gamma 90.000000
_cell_volume 5332.437557
_symmetry_space_group_name_H-M "I M M M"
_symmetry_group_IT_number 71
_symmetry_cell_setting 'orthorhombic'
loop_
_space_group_symop_operation_xyz
x,y,z
-x,-y,z
x,-y,-z
-x,y,-z
-x,-y,-z
x,y,-z
-x,y,z
x,-y,z
1/2+x,1/2+y,1/2+z
1/2-x,1/2-y,1/2+z
1/2+x,1/2-y,1/2-z
1/2-x,1/2+y,1/2-z
1/2-x,1/2-y,1/2-z
1/2+x,1/2+y,1/2-z
1/2-x,1/2+y,1/2+z
1/2+x,1/2-y,1/2+z
loop_
_atom_site_type_symbol
_atom_site_label
_atom_site_fract_x
_atom_site_fract_y
_atom_site_fract_z
Si Si1 0.054636 0.256688 0.329207
Si Si2 0.890802 0.382201 0.322562
Si Si3 0.691198 0.185165 0.323931
Si Si4 0.555440 0.000000 0.678088
Si Si5 0.363902 0.570246 0.826736
Si Si6 0.553021 0.629781 0.676155
Si Si7 0.199897 0.814918 0.324545
O O1 0.066391 0.239366 0.500000
O O2 0.081234 0.319236 0.277414
O O3 0.072178 0.198092 0.229706
O O4 0.000000 0.270880 0.303817
O O5 0.888616 0.394476 0.500000
O O6 0.838280 0.371131 0.256574
O O7 0.917938 0.439460 0.244487
O O8 0.681225 0.182907 0.500000
O O9 0.745696 0.173219 0.283915
O O10 0.677613 0.254657 0.260807
O O11 0.500000 0.000000 0.725428
O O12 0.560420 0.000000 0.500000
O O13 0.343071 0.500000 0.797194
O O14 0.413363 0.575510 0.740195
O O15 0.326623 0.621972 0.768425
O O16 0.374659 0.581314 0.000000
O O17 0.553934 0.627268 0.500000
O O18 0.500000 0.618474 0.737550
O O19 0.193247 0.802066 0.500000
#
# Coordination Sequence:
#
# PCOD8290999 Si02
#       7
#    16  16  16   8  16  16  16
#     4   9  18  33  54  79 106 140 182 225 270 321
#     4  11  22  37  58  84 115 151 190 234 285 343
#     4  10  20  35  58  87 115 145 184 233 288 341
#     4  11  25  43  61  83 115 155 199 245 292 349
#     4  10  21  37  56  77 103 140 186 226 266 321
#     4  10  21  35  52  78 111 143 176 221 275 326
#     4   9  19  37  58  83 113 147 186 232 287 342
#
# _framework density 19.503274999999999
#
# number of rings (size 3 to 8) (size 9 to 14) (size 15 to 20)
#    0.000    2.077    0.000    3.000    0.000    8.923 
#    1.385    3.077    0.000    0.000    0.000    0.000 
#    0.000    0.000    0.000    0.000    0.000    0.000 
#
# Total GULP energy -644891.316696 kJ/mol
# GULP energy per Si atom -12401.756090 kJ/mol
# Density = 1.945889 g / cm^3
# Si number density = 19.503275 Si / 1000 Ang^3
#
#
#
# Elastic Constant Matrix: (Units=GPa)
#
#
# Indices 1 2 3 4 5 6 
#
# 1 97.0236 68.8152 40.6964 0.0000 0.0000 0.0000
# 2 68.8152 119.4425 44.7778 0.0000 0.0000 0.0000
# 3 40.6964 44.7778 68.7495 0.0000 0.0000 0.0000
# 4 0.0000 0.0000 0.0000 27.6391 0.0000 0.0000
# 5 0.0000 0.0000 0.0000 0.0000 28.7874 0.0000
# 6 0.0000 0.0000 0.0000 0.0000 0.0000 32.4150
#
#
#
# Elastic Compliance Matrix: (Units=1/GPa)
#
#
# Indices 1 2 3 4 5 6 
#
# 1 0.018831 -0.008825 -0.005399 0.000000 0.000000 0.000000
# 2 -0.008825 0.015213 -0.004684 0.000000 0.000000 0.000000
# 3 -0.005399 -0.004684 0.020792 0.000000 0.000000 0.000000
# 4 0.000000 0.000000 0.000000 0.036181 0.000000 0.000000
# 5 0.000000 0.000000 0.000000 0.000000 0.034737 0.000000
# 6 0.000000 0.000000 0.000000 0.000000 0.000000 0.030850
#
#
# Mechanical properties :
#
#
# Convention : Reuss Voigt Hill
#
# Bulk Modulus (GPa) = 58.75704 65.97718 62.36711
# Shear Modulus (GPa) = 24.98831 26.49669 25.74250
#
# Velocity S-wave (km/s) = 3.58332 3.68989 3.63699
# Velocity P-wave (km/s) = 6.87840 7.21498 7.04870
#
# Compressibility (1/GPa) = 0.01701924
#
# Stress axis : x y z
#
# Youngs Moduli (GPa) = 53.10513 65.73432 48.09432
#
# Poissons Ratio (x) = 0.58010 0.25966
# Poissons Ratio (y) = 0.46865 0.22529
# Poissons Ratio (z) = 0.28671 0.30792
#
# Static dielectric constant tensor:
#      x y z
#    x 3.759930 0.000000 0.000000 
#    y 0.000000 3.624860 0.000000 
#    z 0.000000 0.000000 3.503070 
# 
# 
# High freq. dielectric constant tensor:
#      x y z
#    x 1.768330 0.000000 0.000000 
#    y 0.000000 1.754190 0.000000 
#    z 0.000000 0.000000 1.757560 
# 
# From -- ./inp_files/11113.got.cif
#   From: 2010.06.25/outbox.cif.g09.slc.cpg/sg71_6_cif.got.tgz:11113.got - 2010.06.28 04:59:45.
