data_PCOD8290911
_publ_section_title
;
Structure prediction by ZEFSAII (Michael W. Deem and Ramdas Pophale) SiO2 
 PCOD8290911
Probable space group: I M M M
;
_chemical_formula_sum "Si O2"
_cell_formula_units_Z 120
_cell_length_a 12.816660
_cell_length_b 22.248042
_cell_length_c 23.207468
_cell_angle_alpha 90.000000
_cell_angle_beta 90.000000
_cell_angle_gamma 90.000000
_cell_volume 6617.507155
_symmetry_space_group_name_H-M "I M M M"
_symmetry_group_IT_number 71
_symmetry_cell_setting 'orthorhombic'
loop_
_space_group_symop_operation_xyz
x,y,z
-x,-y,z
x,-y,-z
-x,y,-z
-x,-y,-z
x,y,-z
-x,y,z
x,-y,z
1/2+x,1/2+y,1/2+z
1/2-x,1/2-y,1/2+z
1/2+x,1/2-y,1/2-z
1/2-x,1/2+y,1/2-z
1/2-x,1/2-y,1/2-z
1/2+x,1/2+y,1/2-z
1/2-x,1/2+y,1/2+z
1/2+x,1/2-y,1/2+z
loop_
_atom_site_type_symbol
_atom_site_label
_atom_site_fract_x
_atom_site_fract_y
_atom_site_fract_z
Si Si1 0.620030 0.432592 0.140194
Si Si2 0.622178 0.319727 0.066055
Si Si3 0.881561 0.569517 0.565958
Si Si4 0.760678 0.254283 0.340694
Si Si5 0.806570 0.119286 0.867113
Si Si6 0.246133 0.568695 0.747675
Si Si7 0.121172 0.683222 0.241418
Si Si8 0.500000 0.568367 0.568005
O O1 0.500000 0.426344 0.158396
O O2 0.644787 0.500000 0.117839
O O3 0.648253 0.386447 0.089421
O O4 0.685215 0.416863 0.196696
O O5 0.500000 0.305657 0.071451
O O6 0.684424 0.269941 0.101901
O O7 0.659435 0.316543 0.000000
O O8 0.868570 0.589701 0.500000
O O9 0.850742 0.500000 0.572700
O O10 0.806955 0.608680 0.605402
O O11 0.000000 0.580589 0.586499
O O12 0.685029 0.309910 0.355273
O O13 0.849459 0.274549 0.295395
O O14 0.687406 0.202896 0.314195
O O15 0.817901 0.081446 0.808196
O O16 0.897169 0.101148 0.910160
O O17 0.205960 0.500000 0.747181
O O18 0.147174 0.613356 0.745679
O O19 0.000000 0.689941 0.227814
O O20 0.500000 0.500000 0.589679
O O21 0.500000 0.572107 0.500000
#
# Coordination Sequence:
#
# PCOD8290911 Si02
#       8
#    16  16  16  16  16  16  16   8
#     4   9  18  33  54  81 114 146 178 225 287 343
#     4  10  20  35  58  86 115 148 187 233 280 331
#     4   9  18  34  55  76 102 140 185 233 284 332
#     4  10  22  39  54  82 111 148 186 228 275 333
#     4  11  23  35  54  81 114 149 188 233 280 333
#     4  10  20  35  56  86 113 140 182 232 285 335
#     4  10  21  38  60  80 110 148 186 226 278 336
#     4  11  24  40  56  78 114 156 196 238 280 330
#
# _framework density 18.133716
#
# number of rings (size 3 to 8) (size 9 to 14) (size 15 to 20)
#    0.000    2.067    1.333    2.400    1.867    5.333 
#    0.000    2.667    0.000    0.000    0.000    0.000 
#    0.000    2.133    0.000    0.000    0.000    0.000 
#
# Total GULP energy -744128.226647 kJ/mol
# GULP energy per Si atom -12402.137111 kJ/mol
# Density = 1.809244 g / cm^3
# Si number density = 18.133716 Si / 1000 Ang^3
#
#
#
# Elastic Constant Matrix: (Units=GPa)
#
#
# Indices 1 2 3 4 5 6 
#
# 1 81.9409 40.5429 42.1361 0.0000 0.0000 0.0000
# 2 40.5429 97.7656 44.8429 0.0000 0.0000 0.0000
# 3 42.1361 44.8429 113.9818 0.0000 0.0000 0.0000
# 4 0.0000 0.0000 0.0000 29.0824 0.0000 0.0000
# 5 0.0000 0.0000 0.0000 0.0000 381.6016 0.0000
# 6 0.0000 0.0000 0.0000 0.0000 0.0000 9.3025
#
#
#
# Elastic Compliance Matrix: (Units=1/GPa)
#
#
# Indices 1 2 3 4 5 6 
#
# 1 0.016893 -0.005053 -0.004257 0.000000 0.000000 0.000000
# 2 -0.005053 0.013992 -0.003637 0.000000 0.000000 0.000000
# 3 -0.004257 -0.003637 0.011778 0.000000 0.000000 0.000000
# 4 0.000000 0.000000 0.000000 0.034385 0.000000 0.000000
# 5 0.000000 0.000000 0.000000 0.000000 0.002621 0.000000
# 6 0.000000 0.000000 0.000000 0.000000 0.000000 0.107499
#
#
# Mechanical properties :
#
#
# Convention : Reuss Voigt Hill
#
# Bulk Modulus (GPa) = 59.63210 60.97024 60.30117
# Shear Modulus (GPa) = 22.86754 95.07505 58.97129
#
# Velocity S-wave (km/s) = 3.55498 7.24871 5.70884
# Velocity P-wave (km/s) = 7.05738 10.18597 8.76244
#
# Compressibility (1/GPa) = 0.01676949
#
# Stress axis : x y z
#
# Youngs Moduli (GPa) = 59.19593 71.46890 84.90501
#
# Poissons Ratio (x) = 0.36112 0.36144
# Poissons Ratio (y) = 0.29911 0.30879
# Poissons Ratio (z) = 0.25200 0.25992
#
# Static dielectric constant tensor:
#      x y z
#    x 3.106870 0.000000 0.000000 
#    y 0.000000 3.442590 0.000000 
#    z 0.000000 0.000000 3.368350 
# 
# 
# High freq. dielectric constant tensor:
#      x y z
#    x 1.683940 0.000000 0.000000 
#    y 0.000000 1.711510 0.000000 
#    z 0.000000 0.000000 1.703420 
# 
# From -- ./inp_files/52255.got.cif
#   From: 2010.06.25/outbox.cif.g09.slc.cpg/sg71_27_cif.got.tgz:52255.got - 2010.06.28 04:59:45.
