data_PCOD8290553
_publ_section_title
;
Structure prediction by ZEFSAII (Michael W. Deem and Ramdas Pophale) SiO2 
 PCOD8290553
Probable space group: I M M M
;
_chemical_formula_sum "Si O2"
_cell_formula_units_Z 112
_cell_length_a 13.824405
_cell_length_b 14.704736
_cell_length_c 30.120217
_cell_angle_alpha 90.000000
_cell_angle_beta 90.000000
_cell_angle_gamma 90.000000
_cell_volume 6122.964996
_symmetry_space_group_name_H-M "I M M M"
_symmetry_group_IT_number 71
_symmetry_cell_setting 'orthorhombic'
loop_
_space_group_symop_operation_xyz
x,y,z
-x,-y,z
x,-y,-z
-x,y,-z
-x,-y,-z
x,y,-z
-x,y,z
x,-y,z
1/2+x,1/2+y,1/2+z
1/2-x,1/2-y,1/2+z
1/2+x,1/2-y,1/2-z
1/2-x,1/2+y,1/2-z
1/2-x,1/2-y,1/2-z
1/2+x,1/2+y,1/2-z
1/2-x,1/2+y,1/2+z
1/2+x,1/2-y,1/2+z
loop_
_atom_site_type_symbol
_atom_site_label
_atom_site_fract_x
_atom_site_fract_y
_atom_site_fract_z
Si Si1 0.809795 0.399067 0.948124
Si Si2 0.890885 0.360926 0.550477
Si Si3 0.247256 0.398424 0.373198
Si Si4 0.396528 0.648606 0.051528
Si Si5 0.107246 0.607777 0.296740
Si Si6 0.385093 0.101403 0.301648
Si Si7 0.887711 0.733128 0.878188
O O1 0.853293 0.500000 0.940525
O O2 0.699026 0.399962 0.929241
O O3 0.873879 0.324672 0.923111
O O4 0.811098 0.372518 0.000000
O O5 0.861369 0.384018 0.500000
O O6 0.817303 0.410951 0.582905
O O7 0.883018 0.254663 0.559806
O O8 0.000000 0.395231 0.559688
O O9 0.286564 0.500000 0.361402
O O10 0.182213 0.356496 0.333449
O O11 0.335403 0.330077 0.381301
O O12 0.500000 0.616462 0.073156
O O13 0.403439 0.625908 0.000000
O O14 0.099421 0.500000 0.299626
O O15 0.145113 0.635141 0.247610
O O16 0.000000 0.649445 0.305665
O O17 0.500000 0.096181 0.304531
O O18 0.345078 0.173183 0.337519
O O19 0.343052 0.000000 0.311532
O O20 0.000000 0.754604 0.871561
#
# Coordination Sequence:
#
# PCOD8290553 Si02
#       7
#    16  16  16  16  16  16  16
#     4  10  20  34  54  79 103 129 166 211 259 307
#     4   9  17  31  52  76 103 133 163 199 246 301
#     4  11  22  34  51  75 102 135 173 209 250 299
#     4   8  14  27  48  73 102 133 160 188 233 299
#     4   8  15  30  53  81 108 127 150 196 255 310
#     4   8  15  31  55  79 101 125 156 200 256 311
#     4  11  23  37  52  70  97 135 178 221 258 291
#
# _framework density 18.291792999999998
#
# number of rings (size 3 to 8) (size 9 to 14) (size 15 to 20)
#    0.000    2.714    1.429    2.571    0.000    3.429 
#    0.000    2.857    0.000    0.000    0.000    2.000 
#    0.000    3.429    0.000    0.000    0.000    0.000 
#
# Total GULP energy -693979.558993 kJ/mol
# GULP energy per Si atom -12392.492125 kJ/mol
# Density = 1.825016 g / cm^3
# Si number density = 18.291793 Si / 1000 Ang^3
#
#
#
# Elastic Constant Matrix: (Units=GPa)
#
#
# Indices 1 2 3 4 5 6 
#
# 1 64.8536 38.2021 35.9786 0.0000 0.0000 0.0000
# 2 38.2021 85.8589 38.7871 0.0000 0.0000 0.0000
# 3 35.9786 38.7871 95.2332 0.0000 0.0000 0.0000
# 4 0.0000 0.0000 0.0000 20.1816 0.0000 0.0000
# 5 0.0000 0.0000 0.0000 0.0000 18.7195 0.0000
# 6 0.0000 0.0000 0.0000 0.0000 0.0000 0.4167
#
#
#
# Elastic Compliance Matrix: (Units=1/GPa)
#
#
# Indices 1 2 3 4 5 6 
#
# 1 0.023070 -0.007754 -0.005558 0.000000 0.000000 0.000000
# 2 -0.007754 0.016879 -0.003945 0.000000 0.000000 0.000000
# 3 -0.005558 -0.003945 0.014207 0.000000 0.000000 0.000000
# 4 0.000000 0.000000 0.000000 0.049550 0.000000 0.000000
# 5 0.000000 0.000000 0.000000 0.000000 0.053420 0.000000
# 6 0.000000 0.000000 0.000000 0.000000 0.000000 2.399660
#
#
# Mechanical properties :
#
#
# Convention : Reuss Voigt Hill
#
# Bulk Modulus (GPa) = 50.90999 52.43125 51.67062
# Shear Modulus (GPa) = 1.92467 16.72877 9.32672
#
# Velocity S-wave (km/s) = 1.02688 3.02743 2.26051
# Velocity P-wave (km/s) = 5.41281 6.39895 5.92643
#
# Compressibility (1/GPa) = 0.01964251
#
# Stress axis : x y z
#
# Youngs Moduli (GPa) = 43.34609 59.24366 70.38768
#
# Poissons Ratio (x) = 0.45938 0.39119
# Poissons Ratio (y) = 0.33611 0.27770
# Poissons Ratio (z) = 0.24090 0.23373
#
# Static dielectric constant tensor:
#      x y z
#    x 3.272540 0.000000 0.000000 
#    y 0.000000 3.189540 0.000000 
#    z 0.000000 0.000000 3.454370 
# 
# 
# High freq. dielectric constant tensor:
#      x y z
#    x 1.685220 0.000000 0.000000 
#    y 0.000000 1.694170 0.000000 
#    z 0.000000 0.000000 1.697560 
# 
# From -- ./inp_files/70065.got.cif
#   From: 2010.06.25/outbox.cif.g09.slc.cpg/sg71_36_cif.got.tgz:70065.got - 2010.06.28 04:59:45.
