data_PCOD8290260
_publ_section_title
;
Structure prediction by ZEFSAII (Michael W. Deem and Ramdas Pophale) SiO2 
 PCOD8290260
Probable space group: I M M M
;
_chemical_formula_sum "Si O2"
_cell_formula_units_Z 72
_cell_length_a 17.037005
_cell_length_b 9.216131
_cell_length_c 23.036144
_cell_angle_alpha 90.000000
_cell_angle_beta 90.000000
_cell_angle_gamma 90.000000
_cell_volume 3617.026368
_symmetry_space_group_name_H-M "I M M M"
_symmetry_group_IT_number 71
_symmetry_cell_setting 'orthorhombic'
loop_
_space_group_symop_operation_xyz
x,y,z
-x,-y,z
x,-y,-z
-x,y,-z
-x,-y,-z
x,y,-z
-x,y,z
x,-y,z
1/2+x,1/2+y,1/2+z
1/2-x,1/2-y,1/2+z
1/2+x,1/2-y,1/2-z
1/2-x,1/2+y,1/2-z
1/2-x,1/2-y,1/2-z
1/2+x,1/2+y,1/2-z
1/2-x,1/2+y,1/2+z
1/2+x,1/2-y,1/2+z
loop_
_atom_site_type_symbol
_atom_site_label
_atom_site_fract_x
_atom_site_fract_y
_atom_site_fract_z
Si Si1 0.090294 0.168608 0.113032
Si Si2 0.329921 0.671171 0.733314
Si Si3 0.908526 0.659837 0.329683
Si Si4 0.593282 0.835968 0.500000
Si Si5 0.093456 0.162465 0.436012
O O1 0.144731 0.207984 0.167781
O O2 0.123996 0.256807 0.058038
O O3 0.000000 0.211295 0.127162
O O4 0.095681 0.000000 0.097468
O O5 0.322718 0.500000 0.743245
O O6 0.250000 0.750000 0.750000
O O7 0.396246 0.735392 0.775224
O O8 0.870028 0.500000 0.320250
O O9 0.870330 0.730641 0.387568
O O10 0.000000 0.641323 0.339345
O O11 0.500000 0.829707 0.500000
O O12 0.625118 0.000000 0.500000
O O13 0.119903 0.216329 0.500000
O O14 0.000000 0.160683 0.431900
O O15 0.125328 0.000000 0.424788
#
# Coordination Sequence:
#
# PCOD8290260 Si02
#       5
#    16  16  16   8  16
#     4   9  18  34  57  83 110 143 182 222 269 328
#     4  11  23  38  56  77 107 146 185 226 273 326
#     4  10  20  33  52  79 108 138 176 222 269 319
#     4   9  17  29  51  85 117 141 170 217 274 325
#     4   8  14  26  46  72 101 133 169 211 259 307
#
# _framework density 19.905854999999999
#
# number of rings (size 3 to 8) (size 9 to 14) (size 15 to 20)
#    0.000    2.556    0.000    3.000    0.000    5.778 
#    0.000    4.444    2.444    0.000    0.000    0.000 
#    0.000    0.000    0.000    0.000    0.000    0.000 
#
# Total GULP energy -446292.006549 kJ/mol
# GULP energy per Si atom -12397.000182 kJ/mol
# Density = 1.986055 g / cm^3
# Si number density = 19.905855 Si / 1000 Ang^3
#
#
#
# Elastic Constant Matrix: (Units=GPa)
#
#
# Indices 1 2 3 4 5 6 
#
# 1 35.6368 30.5282 33.3258 0.0000 0.0000 0.0000
# 2 30.5282 140.1596 105.7853 0.0000 0.0000 0.0000
# 3 33.3258 105.7853 186.1110 0.0000 0.0000 0.0000
# 4 0.0000 0.0000 0.0000 35.0008 0.0000 0.0000
# 5 0.0000 0.0000 0.0000 0.0000 14.9012 0.0000
# 6 0.0000 0.0000 0.0000 0.0000 0.0000 22.6141
#
#
#
# Elastic Compliance Matrix: (Units=1/GPa)
#
#
# Indices 1 2 3 4 5 6 
#
# 1 0.035724 -0.005172 -0.003457 0.000000 0.000000 0.000000
# 2 -0.005172 0.013244 -0.006602 0.000000 0.000000 0.000000
# 3 -0.003457 -0.006602 0.009745 0.000000 0.000000 0.000000
# 4 0.000000 0.000000 0.000000 0.028571 0.000000 0.000000
# 5 0.000000 0.000000 0.000000 0.000000 0.067109 0.000000
# 6 0.000000 0.000000 0.000000 0.000000 0.000000 0.044220
#
#
# Mechanical properties :
#
#
# Convention : Reuss Voigt Hill
#
# Bulk Modulus (GPa) = 35.39668 77.90956 56.65312
# Shear Modulus (GPa) = 20.96516 27.32109 24.14313
#
# Velocity S-wave (km/s) = 3.24885 3.70877 3.48640
# Velocity P-wave (km/s) = 5.64748 7.58709 6.68797
#
# Compressibility (1/GPa) = 0.02825124
#
# Stress axis : x y z
#
# Youngs Moduli (GPa) = 27.99216 75.50697 102.62068
#
# Poissons Ratio (x) = 0.39050 0.35479
# Poissons Ratio (y) = 0.14477 0.67747
# Poissons Ratio (z) = 0.09678 0.49847
#
# Static dielectric constant tensor:
#      x y z
#    x 3.155180 0.000000 0.000000 
#    y 0.000000 3.991860 0.000000 
#    z 0.000000 0.000000 3.927980 
# 
# 
# High freq. dielectric constant tensor:
#      x y z
#    x 1.729310 0.000000 0.000000 
#    y 0.000000 1.783170 0.000000 
#    z 0.000000 0.000000 1.790290 
# 
# From -- ./inp_files/7992.got.cif
#   From: 2010.06.25/outbox.cif.g09.slc.cpg/sg71_4_cif.got.tgz:7992.got - 2010.06.28 04:59:45.
