data_PCOD8290502
_publ_section_title
;
Structure prediction by ZEFSAII (Michael W. Deem and Ramdas Pophale) SiO2 
 PCOD8290502
Probable space group: I M M M
;
_chemical_formula_sum "Si O2"
_cell_formula_units_Z 104
_cell_length_a 27.329222
_cell_length_b 9.096389
_cell_length_c 21.911668
_cell_angle_alpha 90.000000
_cell_angle_beta 90.000000
_cell_angle_gamma 90.000000
_cell_volume 5447.180065
_symmetry_space_group_name_H-M "I M M M"
_symmetry_group_IT_number 71
_symmetry_cell_setting 'orthorhombic'
loop_
_space_group_symop_operation_xyz
x,y,z
-x,-y,z
x,-y,-z
-x,y,-z
-x,-y,-z
x,y,-z
-x,y,z
x,-y,z
1/2+x,1/2+y,1/2+z
1/2-x,1/2-y,1/2+z
1/2+x,1/2-y,1/2-z
1/2-x,1/2+y,1/2-z
1/2-x,1/2-y,1/2-z
1/2+x,1/2+y,1/2-z
1/2-x,1/2+y,1/2+z
1/2+x,1/2-y,1/2+z
loop_
_atom_site_type_symbol
_atom_site_label
_atom_site_fract_x
_atom_site_fract_y
_atom_site_fract_z
Si Si1 0.126347 0.674817 0.933047
Si Si2 0.944604 0.830402 0.615173
Si Si3 0.762724 0.325703 0.071395
Si Si4 0.554505 0.828406 0.666212
Si Si5 0.389014 0.164487 0.211845
Si Si6 0.058358 0.662970 0.500000
Si Si7 0.274987 0.830328 0.807437
O O1 0.124726 0.500000 0.930416
O O2 0.181373 0.722417 0.915517
O O3 0.084715 0.743706 0.889603
O O4 0.113533 0.733576 0.000000
O O5 0.911406 0.792818 0.671707
O O6 0.921002 0.744499 0.558768
O O7 0.000000 0.778937 0.628493
O O8 0.942444 0.000000 0.599170
O O9 0.755147 0.500000 0.079379
O O10 0.732343 0.243975 0.125314
O O11 0.748572 0.283182 0.000000
O O12 0.500000 0.757056 0.672966
O O13 0.589570 0.798407 0.722606
O O14 0.547490 0.000000 0.655030
O O15 0.331390 0.177341 0.210494
O O16 0.405664 0.000000 0.191150
O O17 0.079663 0.500000 0.500000
O O18 0.000000 0.668012 0.500000
O O19 0.250000 0.750000 0.750000
O O20 0.257314 0.000000 0.810959
#
# Coordination Sequence:
#
# PCOD8290502 Si02
#       7
#    16  16  16  16  16   8  16
#     4   8  14  26  46  73 105 139 172 207 256 320
#     4  10  20  34  53  78 107 137 173 219 267 315
#     4   9  18  35  58  81 109 147 185 225 280 342
#     4   9  16  26  44  71 102 136 175 218 259 307
#     4  10  21  36  52  73 102 142 185 223 272 331
#     4   9  17  31  53  77 101 135 175 211 253 309
#     4  11  23  38  58  82 109 144 187 237 287 339
#
# _framework density 19.092448000000001
#
# number of rings (size 3 to 8) (size 9 to 14) (size 15 to 20)
#    0.000    2.538    0.000    3.462    0.000    6.769 
#    1.385    1.538    0.000    0.000    0.000    0.000 
#    0.000    0.000    0.000   11.231    0.000   10.769 
#
# Total GULP energy -644288.117363 kJ/mol
# GULP energy per Si atom -12390.156103 kJ/mol
# Density = 1.904899 g / cm^3
# Si number density = 19.092448 Si / 1000 Ang^3
#
#
#
# Elastic Constant Matrix: (Units=GPa)
#
#
# Indices 1 2 3 4 5 6 
#
# 1 94.2670 26.6002 60.0100 0.0000 0.0000 0.0000
# 2 26.6002 68.0223 45.2526 0.0000 0.0000 0.0000
# 3 60.0100 45.2526 134.6338 0.0000 0.0000 0.0000
# 4 0.0000 0.0000 0.0000 8.9332 0.0000 0.0000
# 5 0.0000 0.0000 0.0000 0.0000 39.5790 0.0000
# 6 0.0000 0.0000 0.0000 0.0000 0.0000 21.4867
#
#
#
# Elastic Compliance Matrix: (Units=1/GPa)
#
#
# Indices 1 2 3 4 5 6 
#
# 1 0.014984 -0.001824 -0.006066 0.000000 0.000000 0.000000
# 2 -0.001824 0.019157 -0.005626 0.000000 0.000000 0.000000
# 3 -0.006066 -0.005626 0.012022 0.000000 0.000000 0.000000
# 4 0.000000 0.000000 0.000000 0.111942 0.000000 0.000000
# 5 0.000000 0.000000 0.000000 0.000000 0.025266 0.000000
# 6 0.000000 0.000000 0.000000 0.000000 0.000000 0.046541
#
#
# Mechanical properties :
#
#
# Convention : Reuss Voigt Hill
#
# Bulk Modulus (GPa) = 52.26912 62.29431 57.28172
# Shear Modulus (GPa) = 18.98823 25.00380 21.99601
#
# Velocity S-wave (km/s) = 3.15706 3.62279 3.39791
# Velocity P-wave (km/s) = 6.38166 7.08506 6.74254
#
# Compressibility (1/GPa) = 0.01913175
#
# Stress axis : x y z
#
# Youngs Moduli (GPa) = 66.73602 52.19988 83.17957
#
# Poissons Ratio (x) = 0.09523 0.50455
# Poissons Ratio (y) = 0.12175 0.46796
# Poissons Ratio (z) = 0.40481 0.29367
#
# Static dielectric constant tensor:
#      x y z
#    x 3.403340 0.000000 0.000000 
#    y 0.000000 3.256220 0.000000 
#    z 0.000000 0.000000 3.904350 
# 
# 
# High freq. dielectric constant tensor:
#      x y z
#    x 1.736470 0.000000 0.000000 
#    y 0.000000 1.707660 0.000000 
#    z 0.000000 0.000000 1.757340 
# 
# From -- ./inp_files/56252.got.cif
#   From: 2010.06.25/outbox.cif.g09.slc.cpg/sg71_29_cif.got.tgz:56252.got - 2010.06.28 04:59:45.
