data_PCOD8290850
_publ_section_title
;
Structure prediction by ZEFSAII (Michael W. Deem and Ramdas Pophale) SiO2 
 PCOD8290850
Probable space group: I M M M
;
_chemical_formula_sum "Si O2"
_cell_formula_units_Z 72
_cell_length_a 25.588566
_cell_length_b 8.985096
_cell_length_c 17.265721
_cell_angle_alpha 90.000000
_cell_angle_beta 90.000000
_cell_angle_gamma 90.000000
_cell_volume 3969.660710
_symmetry_space_group_name_H-M "I M M M"
_symmetry_group_IT_number 71
_symmetry_cell_setting 'orthorhombic'
loop_
_space_group_symop_operation_xyz
x,y,z
-x,-y,z
x,-y,-z
-x,y,-z
-x,-y,-z
x,y,-z
-x,y,z
x,-y,z
1/2+x,1/2+y,1/2+z
1/2-x,1/2-y,1/2+z
1/2+x,1/2-y,1/2-z
1/2-x,1/2+y,1/2-z
1/2-x,1/2-y,1/2-z
1/2+x,1/2+y,1/2-z
1/2-x,1/2+y,1/2+z
1/2+x,1/2-y,1/2+z
loop_
_atom_site_type_symbol
_atom_site_label
_atom_site_fract_x
_atom_site_fract_y
_atom_site_fract_z
Si Si1 0.655075 0.330777 0.413885
Si Si2 0.195615 0.675972 0.231647
Si Si3 0.411277 0.828369 0.201059
Si Si4 0.941870 0.668411 0.127355
Si Si5 0.500000 0.178407 0.911125
O O1 0.679015 0.315765 0.500000
O O2 0.660739 0.500000 0.384009
O O3 0.683980 0.217808 0.356994
O O4 0.594165 0.285807 0.417076
O O5 0.200740 0.500000 0.238684
O O6 0.250000 0.750000 0.250000
O O7 0.148320 0.735676 0.288018
O O8 0.441893 0.802208 0.280718
O O9 0.447246 0.758915 0.131968
O O10 0.404568 0.000000 0.181492
O O11 0.922100 0.500000 0.111155
O O12 0.000000 0.690662 0.095369
O O13 0.500000 0.000000 0.906287
O O14 0.500000 0.234416 0.000000
#
# Coordination Sequence:
#
# PCOD8290850 Si02
#       5
#    16  16  16  16   8
#     4  10  21  35  50  72 103 133 165 213 266 310
#     4  10  20  35  56  77 100 135 178 219 260 316
#     4   8  14  26  44  68  99 132 167 207 251 302
#     4   9  16  28  48  70  97 136 174 206 245 304
#     4   9  14  22  42  72 104 133 162 204 259 311
#
# _framework density 18.137568999999999
#
# number of rings (size 3 to 8) (size 9 to 14) (size 15 to 20)
#    0.000    2.778    1.111    2.667    0.000    2.667 
#    0.000    3.333    0.000    4.000    0.000    0.000 
#    0.000   30.222    0.000    0.000    0.000    0.000 
#
# Total GULP energy -445982.841669 kJ/mol
# GULP energy per Si atom -12388.412269 kJ/mol
# Density = 1.809629 g / cm^3
# Si number density = 18.137569 Si / 1000 Ang^3
#
#
#
# Elastic Constant Matrix: (Units=GPa)
#
#
# Indices 1 2 3 4 5 6 
#
# 1 137.9897 31.5728 51.7221 0.0000 0.0000 0.0000
# 2 31.5728 47.6410 22.2557 0.0000 0.0000 0.0000
# 3 51.7221 22.2557 93.3555 0.0000 0.0000 0.0000
# 4 0.0000 0.0000 0.0000 19.7575 0.0000 0.0000
# 5 0.0000 0.0000 0.0000 0.0000 8.3994 0.0000
# 6 0.0000 0.0000 0.0000 0.0000 0.0000 28.9193
#
#
#
# Elastic Compliance Matrix: (Units=1/GPa)
#
#
# Indices 1 2 3 4 5 6 
#
# 1 0.009942 -0.004519 -0.004431 0.000000 0.000000 0.000000
# 2 -0.004519 0.025675 -0.003617 0.000000 0.000000 0.000000
# 3 -0.004431 -0.003617 0.014029 0.000000 0.000000 0.000000
# 4 0.000000 0.000000 0.000000 0.050614 0.000000 0.000000
# 5 0.000000 0.000000 0.000000 0.000000 0.119056 0.000000
# 6 0.000000 0.000000 0.000000 0.000000 0.000000 0.034579
#
#
# Mechanical properties :
#
#
# Convention : Reuss Voigt Hill
#
# Bulk Modulus (GPa) = 40.79666 54.45415 47.62540
# Shear Modulus (GPa) = 17.40959 22.97761 20.19360
#
# Velocity S-wave (km/s) = 3.10153 3.56315 3.34032
# Velocity P-wave (km/s) = 5.94707 6.85683 6.41809
#
# Compressibility (1/GPa) = 0.02451181
#
# Stress axis : x y z
#
# Youngs Moduli (GPa) = 100.58780 38.94875 71.28157
#
# Poissons Ratio (x) = 0.17600 0.31583
# Poissons Ratio (y) = 0.45452 0.25785
# Poissons Ratio (z) = 0.44568 0.14089
#
# Static dielectric constant tensor:
#      x y z
#    x 3.611600 0.000000 0.000000 
#    y 0.000000 3.076390 0.000000 
#    z 0.000000 0.000000 3.313790 
# 
# 
# High freq. dielectric constant tensor:
#      x y z
#    x 1.701810 0.000000 0.000000 
#    y 0.000000 1.667490 0.000000 
#    z 0.000000 0.000000 1.688830 
# 
# From -- ./inp_files/8143.got.cif
#   From: 2010.06.25/outbox.cif.g09.slc.cpg/sg71_5_cif.got.tgz:8143.got - 2010.06.28 04:59:45.
