data_PCOD8290870
_publ_section_title
;
Structure prediction by ZEFSAII (Michael W. Deem and Ramdas Pophale) SiO2 
 PCOD8290870
Probable space group: I M M M
;
_chemical_formula_sum "Si O2"
_cell_formula_units_Z 104
_cell_length_a 26.420538
_cell_length_b 21.757905
_cell_length_c 9.066205
_cell_angle_alpha 90.000000
_cell_angle_beta 90.000000
_cell_angle_gamma 90.000000
_cell_volume 5211.758315
_symmetry_space_group_name_H-M "I M M M"
_symmetry_group_IT_number 71
_symmetry_cell_setting 'orthorhombic'
loop_
_space_group_symop_operation_xyz
x,y,z
-x,-y,z
x,-y,-z
-x,y,-z
-x,-y,-z
x,y,-z
-x,y,z
x,-y,z
1/2+x,1/2+y,1/2+z
1/2-x,1/2-y,1/2+z
1/2+x,1/2-y,1/2-z
1/2-x,1/2+y,1/2-z
1/2-x,1/2-y,1/2-z
1/2+x,1/2+y,1/2-z
1/2-x,1/2+y,1/2+z
1/2+x,1/2-y,1/2+z
loop_
_atom_site_type_symbol
_atom_site_label
_atom_site_fract_x
_atom_site_fract_y
_atom_site_fract_z
Si Si1 0.770975 0.071614 0.174243
Si Si2 0.627456 0.568838 0.834492
Si Si3 0.442674 0.676468 0.169662
Si Si4 0.391427 0.219561 0.329899
Si Si5 0.939408 0.500000 0.163976
Si Si6 0.940814 0.614775 0.338050
Si Si7 0.775511 0.309381 0.173716
O O1 0.828722 0.085610 0.218664
O O2 0.738027 0.124157 0.256033
O O3 0.756703 0.000000 0.218281
O O4 0.764662 0.080760 0.000000
O O5 0.609039 0.500000 0.810132
O O6 0.576355 0.607136 0.811243
O O7 0.649462 0.579249 0.000000
O O8 0.500000 0.682032 0.230120
O O9 0.401904 0.713562 0.265173
O O10 0.440640 0.698413 0.000000
O O11 0.405192 0.218715 0.500000
O O12 0.431375 0.177013 0.247178
O O13 0.334898 0.198033 0.299376
O O14 0.916719 0.558840 0.246893
O O15 0.000000 0.500000 0.160464
O O16 0.917029 0.500000 0.000000
O O17 0.915609 0.616528 0.500000
O O18 0.000000 0.604156 0.353978
O O19 0.750000 0.250000 0.250000
O O20 0.761772 0.309184 0.000000
#
# Coordination Sequence:
#
# PCOD8290870 Si02
#       7
#    16  16  16  16   8  16  16
#     4  10  21  38  61  89 120 154 194 242 295 354
#     4   9  18  34  58  86 116 153 193 233 282 341
#     4  10  21  36  55  82 116 153 193 238 286 339
#     4  11  24  39  55  80 110 145 188 234 287 340
#     4   9  17  31  53  79 107 141 179 219 265 317
#     4  10  20  35  56  81 109 143 184 227 272 325
#     4  11  24  41  62  87 115 150 193 243 295 352
#
# _framework density 19.954878999999998
#
# number of rings (size 3 to 8) (size 9 to 14) (size 15 to 20)
#    0.000    1.923    0.000    3.462    0.000   10.769 
#    1.385    1.538    0.000    0.000    0.000    3.231 
#    0.000    0.000    0.000    0.000    0.000    0.000 
#
# Total GULP energy -644627.972238 kJ/mol
# GULP energy per Si atom -12396.691774 kJ/mol
# Density = 1.990946 g / cm^3
# Si number density = 19.954879 Si / 1000 Ang^3
#
#
#
# Elastic Constant Matrix: (Units=GPa)
#
#
# Indices 1 2 3 4 5 6 
#
# 1 70.0566 48.0983 49.8743 0.0000 0.0000 0.0000
# 2 48.0983 130.9357 70.1917 0.0000 0.0000 0.0000
# 3 49.8743 70.1917 133.4659 0.0000 0.0000 0.0000
# 4 0.0000 0.0000 0.0000 26.1930 0.0000 0.0000
# 5 0.0000 0.0000 0.0000 0.0000 26.6303 0.0000
# 6 0.0000 0.0000 0.0000 0.0000 0.0000 29.6460
#
#
#
# Elastic Compliance Matrix: (Units=1/GPa)
#
#
# Indices 1 2 3 4 5 6 
#
# 1 0.021583 -0.005020 -0.005425 0.000000 0.000000 0.000000
# 2 -0.005020 0.011804 -0.004332 0.000000 0.000000 0.000000
# 3 -0.005425 -0.004332 0.011798 0.000000 0.000000 0.000000
# 4 0.000000 0.000000 0.000000 0.038178 0.000000 0.000000
# 5 0.000000 0.000000 0.000000 0.000000 0.037551 0.000000
# 6 0.000000 0.000000 0.000000 0.000000 0.000000 0.033731
#
#
# Mechanical properties :
#
#
# Convention : Reuss Voigt Hill
#
# Bulk Modulus (GPa) = 63.97683 74.53186 69.25434
# Shear Modulus (GPa) = 26.39785 27.58013 26.98899
#
# Velocity S-wave (km/s) = 3.64108 3.72173 3.68163
# Velocity P-wave (km/s) = 7.05741 7.47660 7.27003
#
# Compressibility (1/GPa) = 0.01563066
#
# Stress axis : x y z
#
# Youngs Moduli (GPa) = 46.33276 84.72007 84.76029
#
# Poissons Ratio (x) = 0.42530 0.45984
# Poissons Ratio (y) = 0.23259 0.36716
# Poissons Ratio (z) = 0.25136 0.36699
#
# Static dielectric constant tensor:
#      x y z
#    x 3.400020 0.000000 0.000000 
#    y 0.000000 3.912090 0.000000 
#    z 0.000000 0.000000 3.861410 
# 
# 
# High freq. dielectric constant tensor:
#      x y z
#    x 1.756110 0.000000 0.000000 
#    y 0.000000 1.794710 0.000000 
#    z 0.000000 0.000000 1.787040 
# 
# From -- ./inp_files/11098.got.cif
#   From: 2010.06.25/outbox.cif.g09.slc.cpg/sg71_6_cif.got.tgz:11098.got - 2010.06.28 04:59:45.
