data_PCOD8290590
_publ_section_title
;
Structure prediction by ZEFSAII (Michael W. Deem and Ramdas Pophale) SiO2 
 PCOD8290590
Probable space group: I M M M
;
_chemical_formula_sum "Si O2"
_cell_formula_units_Z 72
_cell_length_a 23.168377
_cell_length_b 17.095396
_cell_length_c 8.859406
_cell_angle_alpha 90.000000
_cell_angle_beta 90.000000
_cell_angle_gamma 90.000000
_cell_volume 3508.967787
_symmetry_space_group_name_H-M "I M M M"
_symmetry_group_IT_number 71
_symmetry_cell_setting 'orthorhombic'
loop_
_space_group_symop_operation_xyz
x,y,z
-x,-y,z
x,-y,-z
-x,y,-z
-x,-y,-z
x,y,-z
-x,y,z
x,-y,z
1/2+x,1/2+y,1/2+z
1/2-x,1/2-y,1/2+z
1/2+x,1/2-y,1/2-z
1/2-x,1/2+y,1/2-z
1/2-x,1/2-y,1/2-z
1/2+x,1/2+y,1/2-z
1/2-x,1/2+y,1/2+z
1/2+x,1/2-y,1/2+z
loop_
_atom_site_type_symbol
_atom_site_label
_atom_site_fract_x
_atom_site_fract_y
_atom_site_fract_z
Si Si1 0.227496 0.170254 0.821870
Si Si2 0.826914 0.591321 0.165658
Si Si3 0.500000 0.407328 0.670170
Si Si4 0.618224 0.408968 0.821660
Si Si5 0.563076 0.906907 0.169204
O O1 0.250000 0.250000 0.750000
O O2 0.274702 0.105088 0.780365
O O3 0.166475 0.145045 0.753658
O O4 0.221342 0.178343 0.000000
O O5 0.836014 0.500000 0.149746
O O6 0.886413 0.629498 0.227509
O O7 0.813813 0.627824 0.000000
O O8 0.500000 0.500000 0.665939
O O9 0.500000 0.373314 0.500000
O O10 0.556851 0.378843 0.758844
O O11 0.629128 0.500000 0.779852
O O12 0.619546 0.396784 0.000000
O O13 0.500000 0.881373 0.232029
O O14 0.567427 0.000000 0.166320
O O15 0.571249 0.874435 0.000000
#
# Coordination Sequence:
#
# PCOD8290590 Si02
#       5
#    16  16   8  16  16
#     4  12  25  40  58  79 110 150 191 234 285 343
#     4  10  20  34  54  81 111 142 181 228 276 328
#     4   9  17  31  55  89 123 153 190 235 284 339
#     4  10  20  36  60  90 122 154 191 237 289 344
#     4   8  14  26  46  73 104 137 174 217 264 312
#
# _framework density 20.518854000000001
#
# number of rings (size 3 to 8) (size 9 to 14) (size 15 to 20)
#    0.000    2.111    0.000    5.000    0.000    7.111 
#    0.000    2.222    2.444    0.000    0.000    0.000 
#    0.000    0.000    0.000    0.000    0.000    0.000 
#
# Total GULP energy -446296.536402 kJ/mol
# GULP energy per Si atom -12397.126011 kJ/mol
# Density = 2.047215 g / cm^3
# Si number density = 20.518854 Si / 1000 Ang^3
#
#
#
# Elastic Constant Matrix: (Units=GPa)
#
#
# Indices 1 2 3 4 5 6 
#
# 1 198.8553 41.6148 87.1754 0.0000 0.0000 0.0000
# 2 41.6148 38.4084 38.7967 0.0000 0.0000 0.0000
# 3 87.1754 38.7967 155.6807 0.0000 0.0000 0.0000
# 4 0.0000 0.0000 0.0000 21.7470 0.0000 0.0000
# 5 0.0000 0.0000 0.0000 0.0000 43.9926 0.0000
# 6 0.0000 0.0000 0.0000 0.0000 0.0000 15.4574
#
#
#
# Elastic Compliance Matrix: (Units=1/GPa)
#
#
# Indices 1 2 3 4 5 6 
#
# 1 0.007338 -0.005078 -0.002843 0.000000 0.000000 0.000000
# 2 -0.005078 0.038309 -0.006703 0.000000 0.000000 0.000000
# 3 -0.002843 -0.006703 0.009686 0.000000 0.000000 0.000000
# 4 0.000000 0.000000 0.000000 0.045983 0.000000 0.000000
# 5 0.000000 0.000000 0.000000 0.000000 0.022731 0.000000
# 6 0.000000 0.000000 0.000000 0.000000 0.000000 0.064694
#
#
# Mechanical properties :
#
#
# Convention : Reuss Voigt Hill
#
# Bulk Modulus (GPa) = 38.33866 80.90204 59.62035
# Shear Modulus (GPa) = 22.05688 31.26324 26.66006
#
# Velocity S-wave (km/s) = 3.28221 3.90761 3.60849
# Velocity P-wave (km/s) = 5.75231 7.73776 6.81770
#
# Compressibility (1/GPa) = 0.02608333
#
# Stress axis : x y z
#
# Youngs Moduli (GPa) = 136.27493 26.10321 103.24043
#
# Poissons Ratio (x) = 0.13257 0.29356
# Poissons Ratio (y) = 0.69207 0.69204
# Poissons Ratio (z) = 0.38749 0.17498
#
# Static dielectric constant tensor:
#      x y z
#    x 4.154330 0.000000 0.000000 
#    y 0.000000 3.422360 0.000000 
#    z 0.000000 0.000000 4.262630 
# 
# 
# High freq. dielectric constant tensor:
#      x y z
#    x 1.822680 0.000000 0.000000 
#    y 0.000000 1.754420 0.000000 
#    z 0.000000 0.000000 1.812450 
# 
# From -- ./inp_files/12187.got.cif
#   From: 2010.06.25/outbox.cif.g09.slc.cpg/sg71_7_cif.got.tgz:12187.got - 2010.06.28 04:59:45.
