data_PCOD8290914
_publ_section_title
;
Structure prediction by ZEFSAII (Michael W. Deem and Ramdas Pophale) SiO2 
 PCOD8290914
Probable space group: I M M M
;
_chemical_formula_sum "Si O2"
_cell_formula_units_Z 72
_cell_length_a 9.355218
_cell_length_b 28.425012
_cell_length_c 14.056559
_cell_angle_alpha 90.000000
_cell_angle_beta 90.000000
_cell_angle_gamma 90.000000
_cell_volume 3737.950868
_symmetry_space_group_name_H-M "I M M M"
_symmetry_group_IT_number 71
_symmetry_cell_setting 'orthorhombic'
loop_
_space_group_symop_operation_xyz
x,y,z
-x,-y,z
x,-y,-z
-x,y,-z
-x,-y,-z
x,y,-z
-x,y,z
x,-y,z
1/2+x,1/2+y,1/2+z
1/2-x,1/2-y,1/2+z
1/2+x,1/2-y,1/2-z
1/2-x,1/2+y,1/2-z
1/2-x,1/2-y,1/2-z
1/2+x,1/2+y,1/2-z
1/2-x,1/2+y,1/2+z
1/2+x,1/2-y,1/2+z
loop_
_atom_site_type_symbol
_atom_site_label
_atom_site_fract_x
_atom_site_fract_y
_atom_site_fract_z
Si Si1 0.659237 0.779603 0.613513
Si Si2 0.669166 0.000000 0.888804
Si Si3 0.333839 0.415834 0.708032
Si Si4 0.330372 0.678052 0.605264
Si Si5 0.334779 0.368752 0.893727
O O1 0.655476 0.777329 0.500000
O O2 0.500000 0.788547 0.653720
O O3 0.721702 0.728617 0.648253
O O4 0.757429 0.822521 0.647377
O O5 0.734791 0.045224 0.838187
O O6 0.500000 0.000000 0.873949
O O7 0.710196 0.000000 0.000000
O O8 0.500000 0.426530 0.683580
O O9 0.282161 0.365384 0.669566
O O10 0.309348 0.412868 0.822423
O O11 0.265911 0.669629 0.500000
O O12 0.500000 0.680808 0.598908
O O13 0.500000 0.355117 0.894974
O O14 0.281534 0.382905 0.000000
#
# Coordination Sequence:
#
# PCOD8290914 Si02
#       5
#    16   8  16  16  16
#     4   8  14  26  45  69 100 139 177 212 254 301
#     4  11  25  43  60  81 108 128 149 201 272 323
#     4  10  20  35  57  79  99 135 182 215 249 306
#     4   8  14  26  46  73 101 129 171 222 257 293
#     4   9  18  32  49  74 109 142 174 216 257 291
#
# _framework density 19.261890000000001
#
# number of rings (size 3 to 8) (size 9 to 14) (size 15 to 20)
#    0.000    3.000    0.000    2.333    0.000    3.556 
#    0.000    1.667    0.000    7.333    0.000    0.000 
#    0.000    0.000    0.000    0.000    0.000    0.000 
#
# Total GULP energy -446108.965842 kJ/mol
# GULP energy per Si atom -12391.915718 kJ/mol
# Density = 1.921805 g / cm^3
# Si number density = 19.261890 Si / 1000 Ang^3
#
#
#
# Elastic Constant Matrix: (Units=GPa)
#
#
# Indices 1 2 3 4 5 6 
#
# 1 62.8351 55.8734 39.0175 0.0000 0.0000 0.0000
# 2 55.8734 121.0774 66.7154 0.0000 0.0000 -0.0001
# 3 39.0175 66.7154 94.0878 0.0004 -0.0001 -0.0005
# 4 0.0000 0.0000 0.0004 28.4682 0.0000 -0.0002
# 5 0.0000 0.0000 -0.0001 0.0000 17.4167 0.0000
# 6 0.0000 -0.0001 -0.0005 -0.0002 0.0000 43.8844
#
#
#
# Elastic Compliance Matrix: (Units=1/GPa)
#
#
# Indices 1 2 3 4 5 6 
#
# 1 0.027879 -0.010660 -0.004003 0.000000 0.000000 0.000000
# 2 -0.010660 0.017631 -0.008081 0.000000 0.000000 0.000000
# 3 -0.004003 -0.008081 0.018019 0.000000 0.000000 0.000000
# 4 0.000000 0.000000 0.000000 0.035127 0.000000 0.000000
# 5 0.000000 0.000000 0.000000 0.000000 0.057416 0.000000
# 6 0.000000 0.000000 0.000000 0.000000 0.000000 0.022787
#
#
# Mechanical properties :
#
#
# Convention : Reuss Voigt Hill
#
# Bulk Modulus (GPa) = 55.42869 66.80144 61.11506
# Shear Modulus (GPa) = 21.70519 25.71347 23.70933
#
# Velocity S-wave (km/s) = 3.36049 3.65765 3.51221
# Velocity P-wave (km/s) = 6.62541 7.25216 6.94586
#
# Compressibility (1/GPa) = 0.01804120
#
# Stress axis : x y z
#
# Youngs Moduli (GPa) = 35.86965 56.71749 55.49830
#
# Poissons Ratio (x) = 0.60459 0.22214
# Poissons Ratio (y) = 0.38236 0.44851
# Poissons Ratio (z) = 0.14357 0.45836
#
# Static dielectric constant tensor:
#      x y z
#    x 3.286360 0.000000 0.000000 
#    y 0.000000 3.668620 0.000000 
#    z 0.000000 0.000000 3.711410 
# 
# 
# High freq. dielectric constant tensor:
#      x y z
#    x 1.716340 0.000000 0.000000 
#    y 0.000000 1.738520 0.000000 
#    z 0.000000 0.000000 1.753820 
# 
# From -- ./inp_files/31427.got.cif
#   From: 2010.06.25/outbox.cif.g09.slc.cpg/sg71_16_cif.got.tgz:31427.got - 2010.06.28 04:59:45.
