data_PCOD8290109
_publ_section_title
;
Structure prediction by ZEFSAII (Michael W. Deem and Ramdas Pophale) SiO2 
 PCOD8290109
Probable space group: I M M M
;
_chemical_formula_sum "Si O2"
_cell_formula_units_Z 120
_cell_length_a 9.102433
_cell_length_b 27.020190
_cell_length_c 27.028126
_cell_angle_alpha 90.000000
_cell_angle_beta 90.000000
_cell_angle_gamma 90.000000
_cell_volume 6647.553241
_symmetry_space_group_name_H-M "I M M M"
_symmetry_group_IT_number 71
_symmetry_cell_setting 'orthorhombic'
loop_
_space_group_symop_operation_xyz
x,y,z
-x,-y,z
x,-y,-z
-x,y,-z
-x,-y,-z
x,y,-z
-x,y,z
x,-y,z
1/2+x,1/2+y,1/2+z
1/2-x,1/2-y,1/2+z
1/2+x,1/2-y,1/2-z
1/2-x,1/2+y,1/2-z
1/2-x,1/2-y,1/2-z
1/2+x,1/2+y,1/2-z
1/2-x,1/2+y,1/2+z
1/2+x,1/2-y,1/2+z
loop_
_atom_site_type_symbol
_atom_site_label
_atom_site_fract_x
_atom_site_fract_y
_atom_site_fract_z
Si Si1 0.328282 0.801337 0.741345
Si Si2 0.672550 0.555401 0.814160
Si Si3 0.167314 0.500000 0.558519
Si Si4 0.670416 0.592090 0.395017
Si Si5 0.170322 0.643584 0.141452
Si Si6 0.168283 0.110733 0.216086
Si Si7 0.829376 0.317164 0.557561
Si Si8 0.169596 0.716463 0.943454
O O1 0.500000 0.794267 0.749492
O O2 0.250000 0.750000 0.750000
O O3 0.288822 0.820053 0.686460
O O4 0.269133 0.840660 0.781239
O O5 0.500000 0.556793 0.822282
O O6 0.733910 0.500000 0.822256
O O7 0.743581 0.591951 0.854400
O O8 0.714735 0.571936 0.758500
O O9 0.173120 0.500000 0.500000
O O10 0.247166 0.548546 0.577439
O O11 0.000000 0.500000 0.577611
O O12 0.500000 0.591088 0.410168
O O13 0.691224 0.584315 0.336442
O O14 0.738318 0.644252 0.410383
O O15 0.216613 0.670392 0.090652
O O16 0.000000 0.630161 0.142256
O O17 0.000000 0.127716 0.223056
O O18 0.804703 0.329292 0.500000
O O19 0.769999 0.262913 0.570675
O O20 0.000000 0.320073 0.571931
O O21 0.000000 0.731111 0.933817
O O22 0.195268 0.700160 0.000000
#
# Coordination Sequence:
#
# PCOD8290109 Si02
#       8
#    16  16   8  16  16  16  16  16
#     4  10  20  33  50  74 108 142 175 213 259 313
#     4   9  18  34  57  79 103 136 173 213 260 317
#     4  11  25  43  59  77 105 139 177 227 282 331
#     4  11  23  37  58  81 103 135 178 226 273 322
#     4   9  19  34  52  77 107 137 173 217 262 309
#     4   9  20  36  53  76 105 136 174 217 263 311
#     4  10  21  36  53  76 107 140 175 218 267 318
#     4   9  18  34  56  80 107 141 179 217 260 311
#
# _framework density 18.051753999999999
#
# number of rings (size 3 to 8) (size 9 to 14) (size 15 to 20)
#    0.000    2.333    0.000    1.800    2.800    5.333 
#    0.000    0.000    0.000    0.400    0.000    2.800 
#    0.000    0.000    0.000    0.000    0.000    0.000 
#
# Total GULP energy -744186.659916 kJ/mol
# GULP energy per Si atom -12403.110999 kJ/mol
# Density = 1.801067 g / cm^3
# Si number density = 18.051754 Si / 1000 Ang^3
#
#
#
# Elastic Constant Matrix: (Units=GPa)
#
#
# Indices 1 2 3 4 5 6 
#
# 1 92.3533 64.4833 42.2305 0.0000 0.0000 0.0000
# 2 64.4833 145.0719 56.1117 0.0000 0.0000 0.0000
# 3 42.2305 56.1117 78.5692 0.0000 0.0000 0.0000
# 4 0.0000 0.0000 0.0000 24.2689 0.0000 0.0000
# 5 0.0000 0.0000 0.0000 0.0000 25.5281 0.0000
# 6 0.0000 0.0000 0.0000 0.0000 0.0000 38.9860
#
#
#
# Elastic Compliance Matrix: (Units=1/GPa)
#
#
# Indices 1 2 3 4 5 6 
#
# 1 0.017113 -0.005594 -0.005203 0.000000 0.000000 0.000000
# 2 -0.005594 0.011353 -0.005101 0.000000 0.000000 0.000000
# 3 -0.005203 -0.005101 0.019167 0.000000 0.000000 0.000000
# 4 0.000000 0.000000 0.000000 0.041205 0.000000 0.000000
# 5 0.000000 0.000000 0.000000 0.000000 0.039172 0.000000
# 6 0.000000 0.000000 0.000000 0.000000 0.000000 0.025650
#
#
# Mechanical properties :
#
#
# Convention : Reuss Voigt Hill
#
# Bulk Modulus (GPa) = 63.14425 71.29395 67.21910
# Shear Modulus (GPa) = 26.21427 27.96786 27.09107
#
# Velocity S-wave (km/s) = 3.81487 3.94040 3.87815
# Velocity P-wave (km/s) = 7.37969 7.76417 7.57437
#
# Compressibility (1/GPa) = 0.01583675
#
# Stress axis : x y z
#
# Youngs Moduli (GPa) = 58.43444 88.08502 52.17268
#
# Poissons Ratio (x) = 0.49277 0.27146
# Poissons Ratio (y) = 0.32690 0.26613
# Poissons Ratio (z) = 0.30404 0.44931
#
# Static dielectric constant tensor:
#      x y z
#    x 3.437120 0.000000 0.000000 
#    y 0.000000 4.101050 0.000000 
#    z 0.000000 0.000000 3.384740 
# 
# 
# High freq. dielectric constant tensor:
#      x y z
#    x 1.704830 0.000000 0.000000 
#    y 0.000000 1.696570 0.000000 
#    z 0.000000 0.000000 1.691730 
# 
# From -- ./inp_files/63838.got.cif
#   From: 2010.06.25/outbox.cif.g09.slc.cpg/sg71_32_cif.got.tgz:63838.got - 2010.06.28 04:59:45.
