data_PCOD8290419
_publ_section_title
;
Structure prediction by ZEFSAII (Michael W. Deem and Ramdas Pophale) SiO2 
 PCOD8290419
Probable space group: I M M M
;
_chemical_formula_sum "Si O2"
_cell_formula_units_Z 96
_cell_length_a 17.936852
_cell_length_b 28.352807
_cell_length_c 9.526048
_cell_angle_alpha 90.000000
_cell_angle_beta 90.000000
_cell_angle_gamma 90.000000
_cell_volume 4844.567952
_symmetry_space_group_name_H-M "I M M M"
_symmetry_group_IT_number 71
_symmetry_cell_setting 'orthorhombic'
loop_
_space_group_symop_operation_xyz
x,y,z
-x,-y,z
x,-y,-z
-x,y,-z
-x,-y,-z
x,y,-z
-x,y,z
x,-y,z
1/2+x,1/2+y,1/2+z
1/2-x,1/2-y,1/2+z
1/2+x,1/2-y,1/2-z
1/2-x,1/2+y,1/2-z
1/2-x,1/2-y,1/2-z
1/2+x,1/2+y,1/2-z
1/2-x,1/2+y,1/2+z
1/2+x,1/2-y,1/2+z
loop_
_atom_site_type_symbol
_atom_site_label
_atom_site_fract_x
_atom_site_fract_y
_atom_site_fract_z
Si Si1 0.411935 0.698386 0.841461
Si Si2 0.164379 0.383413 0.839287
Si Si3 0.913801 0.550520 0.651028
Si Si4 0.413719 0.788012 0.338452
Si Si5 0.696432 0.445693 0.162871
Si Si6 0.911825 0.109130 0.837248
O O1 0.500000 0.695786 0.851300
O O2 0.388026 0.746305 0.764151
O O3 0.382718 0.654922 0.748233
O O4 0.377727 0.696513 0.000000
O O5 0.097705 0.409443 0.763444
O O6 0.148780 0.328266 0.809903
O O7 0.241901 0.406845 0.787681
O O8 0.154924 0.395393 0.000000
O O9 0.877961 0.564571 0.500000
O O10 0.879767 0.500000 0.700303
O O11 0.000000 0.544324 0.629922
O O12 0.408933 0.771014 0.500000
O O13 0.500000 0.803730 0.307107
O O14 0.722637 0.500000 0.185757
O O15 0.625382 0.436139 0.262465
O O16 0.674833 0.437569 0.000000
O O17 0.000000 0.103025 0.825202
O O18 0.887576 0.113322 0.000000
#
# Coordination Sequence:
#
# PCOD8290419 Si02
#       6
#    16  16  16  16  16  16
#     4   9  17  31  54  83 112 141 174 214 263 318
#     4  10  20  34  52  75 105 143 185 225 266 313
#     4   9  18  31  46  67  97 134 178 228 277 320
#     4   9  17  30  50  78 112 147 183 223 263 303
#     4  10  22  39  57  79 109 143 179 222 272 325
#     4  10  21  38  61  86 109 134 169 216 269 328
#
# _framework density 19.816008
#
# number of rings (size 3 to 8) (size 9 to 14) (size 15 to 20)
#    0.000    2.500    0.000    2.500    0.000    7.000 
#    0.000    5.000    0.000    0.000    0.000    0.000 
#    0.000    0.000    0.000    0.000    0.000    0.000 
#
# Total GULP energy -594732.512330 kJ/mol
# GULP energy per Si atom -12390.260674 kJ/mol
# Density = 1.977091 g / cm^3
# Si number density = 19.816008 Si / 1000 Ang^3
#
#
#
# Elastic Constant Matrix: (Units=GPa)
#
#
# Indices 1 2 3 4 5 6 
#
# 1 47.1825 39.0011 40.2862 0.0006 0.0001 0.0000
# 2 39.0011 102.2032 64.0068 0.0007 0.0000 0.0001
# 3 40.2862 64.0068 100.8141 -0.0017 0.0029 0.0022
# 4 0.0006 0.0007 -0.0017 54.4792 0.0038 0.0026
# 5 0.0001 0.0000 0.0029 0.0038 20.8132 0.0005
# 6 0.0000 0.0001 0.0022 0.0026 0.0005 23.4295
#
#
#
# Elastic Compliance Matrix: (Units=1/GPa)
#
#
# Indices 1 2 3 4 5 6 
#
# 1 0.035515 -0.007744 -0.009276 -0.000001 0.000001 0.000001
# 2 -0.007744 0.017931 -0.008290 0.000000 0.000001 0.000001
# 3 -0.009276 -0.008290 0.018889 0.000001 -0.000003 -0.000002
# 4 -0.000001 0.000000 0.000001 0.018356 -0.000003 -0.000002
# 5 0.000001 0.000001 -0.000003 -0.000003 0.048046 -0.000001
# 6 0.000001 0.000001 -0.000002 -0.000002 -0.000001 0.042681
#
#
# Mechanical properties :
#
#
# Convention : Reuss Voigt Hill
#
# Bulk Modulus (GPa) = 46.04741 59.64314 52.84527
# Shear Modulus (GPa) = 20.89628 26.87142 23.88385
#
# Velocity S-wave (km/s) = 3.25085 3.68645 3.47548
# Velocity P-wave (km/s) = 6.11381 6.94865 6.54455
#
# Compressibility (1/GPa) = 0.02171675
#
# Stress axis : x y z
#
# Youngs Moduli (GPa) = 28.15700 55.76847 52.93980
#
# Poissons Ratio (x) = 0.43185 0.49106
# Poissons Ratio (y) = 0.21804 0.43888
# Poissons Ratio (z) = 0.26118 0.46233
#
# Static dielectric constant tensor:
#      x y z
#    x 3.308910 0.000000 0.000000 
#    y 0.000000 3.657980 0.000000 
#    z 0.000000 0.000000 3.747380 
# 
# 
# High freq. dielectric constant tensor:
#      x y z
#    x 1.741790 0.000000 0.000000 
#    y 0.000000 1.772790 0.000000 
#    z 0.000000 0.000000 1.779680 
# 
# From -- ./inp_files/10972.got.cif
#   From: 2010.06.25/outbox.cif.g09.slc.cpg/sg71_6_cif.got.tgz:10972.got - 2010.06.28 04:59:45.
