data_PCOD8290513
_publ_section_title
;
Structure prediction by ZEFSAII (Michael W. Deem and Ramdas Pophale) SiO2 
 PCOD8290513
Probable space group: I M M M
;
_chemical_formula_sum "Si O2"
_cell_formula_units_Z 56
_cell_length_a 8.907541
_cell_length_b 10.626602
_cell_length_c 30.269399
_cell_angle_alpha 90.000000
_cell_angle_beta 90.000000
_cell_angle_gamma 90.000000
_cell_volume 2865.207262
_symmetry_space_group_name_H-M "I M M M"
_symmetry_group_IT_number 71
_symmetry_cell_setting 'orthorhombic'
loop_
_space_group_symop_operation_xyz
x,y,z
-x,-y,z
x,-y,-z
-x,y,-z
-x,-y,-z
x,y,-z
-x,y,z
x,-y,z
1/2+x,1/2+y,1/2+z
1/2-x,1/2-y,1/2+z
1/2+x,1/2-y,1/2-z
1/2-x,1/2+y,1/2-z
1/2-x,1/2-y,1/2-z
1/2+x,1/2+y,1/2-z
1/2-x,1/2+y,1/2+z
1/2+x,1/2-y,1/2+z
loop_
_atom_site_type_symbol
_atom_site_label
_atom_site_fract_x
_atom_site_fract_y
_atom_site_fract_z
Si Si1 0.163969 0.357129 0.629756
Si Si2 0.822467 0.147452 0.782277
Si Si3 0.822591 0.247650 0.050415
Si Si4 0.667520 0.500000 0.052252
O O1 0.132447 0.500000 0.640368
O O2 0.267019 0.306288 0.669453
O O3 0.249872 0.353277 0.582880
O O4 0.000000 0.288203 0.627807
O O5 0.750000 0.250000 0.750000
O O6 0.000000 0.161962 0.780274
O O7 0.778382 0.000000 0.771841
O O8 0.760345 0.380045 0.068325
O O9 0.000000 0.246064 0.054208
O O10 0.772184 0.219695 0.000000
O O11 0.500000 0.500000 0.072751
O O12 0.657907 0.500000 0.000000
#
# Coordination Sequence:
#
# PCOD8290513 Si02
#       4
#    16  16  16   8
#     4  10  21  37  57  81 111 147 186 230 280 332
#     4  10  21  39  63  89 118 151 189 236 290 348
#     4  10  20  34  53  78 110 147 187 230 277 331
#     4   9  17  31  51  73 101 139 181 227 277 325
#
# _framework density 19.544834999999999
#
# number of rings (size 3 to 8) (size 9 to 14) (size 15 to 20)
#    0.000    2.143    0.000    3.000    0.000    7.429 
#    2.571    2.857    0.000    0.000    0.000    0.000 
#    0.000    0.000    0.000    0.000    0.000    0.000 
#
# Total GULP energy -346970.895830 kJ/mol
# GULP energy per Si atom -12391.817708 kJ/mol
# Density = 1.950035 g / cm^3
# Si number density = 19.544835 Si / 1000 Ang^3
#
#
#
# Elastic Constant Matrix: (Units=GPa)
#
#
# Indices 1 2 3 4 5 6 
#
# 1 131.3685 39.3342 66.4894 0.0000 0.0000 0.0000
# 2 39.3342 59.3216 45.6274 0.0000 0.0000 0.0000
# 3 66.4894 45.6274 132.1105 0.0000 0.0000 0.0000
# 4 0.0000 0.0000 0.0000 28.1131 0.0000 0.0000
# 5 0.0000 0.0000 0.0000 0.0000 35.7025 0.0000
# 6 0.0000 0.0000 0.0000 0.0000 0.0000 32.1747
#
#
#
# Elastic Compliance Matrix: (Units=1/GPa)
#
#
# Indices 1 2 3 4 5 6 
#
# 1 0.010899 -0.004096 -0.004071 0.000000 0.000000 0.000000
# 2 -0.004096 0.024494 -0.006398 0.000000 0.000000 0.000000
# 3 -0.004071 -0.006398 0.011828 0.000000 0.000000 0.000000
# 4 0.000000 0.000000 0.000000 0.035571 0.000000 0.000000
# 5 0.000000 0.000000 0.000000 0.000000 0.028009 0.000000
# 6 0.000000 0.000000 0.000000 0.000000 0.000000 0.031080
#
#
# Mechanical properties :
#
#
# Convention : Reuss Voigt Hill
#
# Bulk Modulus (GPa) = 55.27422 69.52251 62.39836
# Shear Modulus (GPa) = 28.24203 30.62138 29.43171
#
# Velocity S-wave (km/s) = 3.80542 3.96248 3.88475
# Velocity P-wave (km/s) = 6.90293 7.52217 7.21919
#
# Compressibility (1/GPa) = 0.01809162
#
# Stress axis : x y z
#
# Youngs Moduli (GPa) = 91.75343 40.82581 84.54541
#
# Poissons Ratio (x) = 0.16721 0.34416
# Poissons Ratio (y) = 0.37579 0.54095
# Poissons Ratio (z) = 0.37350 0.26122
#
# Static dielectric constant tensor:
#      x y z
#    x 3.946770 0.000000 0.000000 
#    y 0.000000 3.565060 0.000000 
#    z 0.000000 0.000000 3.476610 
# 
# 
# High freq. dielectric constant tensor:
#      x y z
#    x 1.781540 0.000000 0.000000 
#    y 0.000000 1.745480 0.000000 
#    z 0.000000 0.000000 1.750420 
# 
# From -- ./inp_files/3310.got.cif
#   From: 2010.06.25/outbox.cif.g09.slc.cpg/sg71_2_cif.got.tgz:3310.got - 2010.06.28 04:59:45.
