data_PCOD8290994
_publ_section_title
;
Structure prediction by ZEFSAII (Michael W. Deem and Ramdas Pophale) SiO2 
 PCOD8290994
Probable space group: I M M M
;
_chemical_formula_sum "Si O2"
_cell_formula_units_Z 104
_cell_length_a 7.901869
_cell_length_b 29.205803
_cell_length_c 22.125407
_cell_angle_alpha 90.000000
_cell_angle_beta 90.000000
_cell_angle_gamma 90.000000
_cell_volume 5106.110927
_symmetry_space_group_name_H-M "I M M M"
_symmetry_group_IT_number 71
_symmetry_cell_setting 'orthorhombic'
loop_
_space_group_symop_operation_xyz
x,y,z
-x,-y,z
x,-y,-z
-x,y,-z
-x,-y,-z
x,y,-z
-x,y,z
x,-y,z
1/2+x,1/2+y,1/2+z
1/2-x,1/2-y,1/2+z
1/2+x,1/2-y,1/2-z
1/2-x,1/2+y,1/2-z
1/2-x,1/2-y,1/2-z
1/2+x,1/2+y,1/2-z
1/2-x,1/2+y,1/2+z
1/2+x,1/2-y,1/2+z
loop_
_atom_site_type_symbol
_atom_site_label
_atom_site_fract_x
_atom_site_fract_y
_atom_site_fract_z
Si Si1 0.308021 0.450298 0.387998
Si Si2 0.308318 0.796321 0.826563
Si Si3 0.500000 0.553137 0.928491
Si Si4 0.696346 0.642669 0.434543
Si Si5 0.302352 0.197884 0.691784
Si Si6 0.698724 0.101978 0.639489
Si Si7 0.690681 0.948577 0.240842
O O1 0.500000 0.454450 0.409725
O O2 0.217726 0.500000 0.401059
O O3 0.217329 0.407022 0.420206
O O4 0.309408 0.440240 0.316322
O O5 0.500000 0.812075 0.831713
O O6 0.216062 0.820522 0.881952
O O7 0.235684 0.811567 0.760592
O O8 0.291983 0.741779 0.835369
O O9 0.500000 0.500000 0.906322
O O10 0.671985 0.578938 0.907558
O O11 0.500000 0.555187 0.000000
O O12 0.766693 0.660130 0.500000
O O13 0.500000 0.632857 0.439924
O O14 0.500000 0.209414 0.696565
O O15 0.269039 0.156400 0.645178
O O16 0.500000 0.091518 0.622775
O O17 0.747910 0.083715 0.705185
O O18 0.500000 0.936943 0.220474
O O19 0.705448 0.000000 0.265736
#
# Coordination Sequence:
#
# PCOD8290994 Si02
#       7
#    16  16   8  16  16  16  16
#     4   9  18  31  49  76 107 142 187 237 285 330
#     4  10  20  35  58  86 116 147 185 234 291 349
#     4  11  26  44  62  88 120 158 207 257 302 360
#     4  10  21  36  52  72 105 150 194 232 274 331
#     4   9  19  36  59  90 120 145 180 232 295 359
#     4  10  21  38  62  89 120 157 196 241 299 362
#     4   9  17  30  50  79 113 144 176 222 282 340
#
# _framework density 20.367751999999999
#
# number of rings (size 3 to 8) (size 9 to 14) (size 15 to 20)
#    0.000    2.385    0.000    1.846    2.154    4.308 
#    0.000    3.077    0.000    0.923    0.000    3.231 
#    0.000    0.000    0.000    0.000    0.000    0.000 
#
# Total GULP energy -644315.976590 kJ/mol
# GULP energy per Si atom -12390.691857 kJ/mol
# Density = 2.032139 g / cm^3
# Si number density = 20.367752 Si / 1000 Ang^3
#
#
#
# Elastic Constant Matrix: (Units=GPa)
#
#
# Indices 1 2 3 4 5 6 
#
# 1 53.9018 27.8361 26.6205 0.0000 0.0000 0.0000
# 2 27.8361 110.4704 65.2805 0.0000 0.0000 0.0000
# 3 26.6205 65.2805 102.5393 -0.0001 0.0000 0.0000
# 4 0.0000 0.0000 -0.0001 25.3008 0.0000 0.0000
# 5 0.0000 0.0000 0.0000 0.0000 15.8929 0.0000
# 6 0.0000 0.0000 0.0000 0.0000 0.0000 22.2033
#
#
#
# Elastic Compliance Matrix: (Units=1/GPa)
#
#
# Indices 1 2 3 4 5 6 
#
# 1 0.022090 -0.003490 -0.003513 0.000000 0.000000 0.000000
# 2 -0.003490 0.015063 -0.008684 0.000000 0.000000 0.000000
# 3 -0.003513 -0.008684 0.016193 0.000000 0.000000 0.000000
# 4 0.000000 0.000000 0.000000 0.039524 0.000000 0.000000
# 5 0.000000 0.000000 0.000000 0.000000 0.062921 0.000000
# 6 0.000000 0.000000 0.000000 0.000000 0.000000 0.045038
#
#
# Mechanical properties :
#
#
# Convention : Reuss Voigt Hill
#
# Bulk Modulus (GPa) = 45.51236 56.26507 50.88872
# Shear Modulus (GPa) = 20.87452 22.49103 21.68278
#
# Velocity S-wave (km/s) = 3.20485 3.32663 3.26631
# Velocity P-wave (km/s) = 6.00738 6.51458 6.26611
#
# Compressibility (1/GPa) = 0.02197205
#
# Stress axis : x y z
#
# Youngs Moduli (GPa) = 45.27036 66.38719 61.75645
#
# Poissons Ratio (x) = 0.23171 0.21693
# Poissons Ratio (y) = 0.15801 0.53627
# Poissons Ratio (z) = 0.15902 0.57648
#
# Static dielectric constant tensor:
#      x y z
#    x 3.531670 0.000000 0.000000 
#    y 0.000000 3.884800 0.000000 
#    z 0.000000 0.000000 3.631970 
# 
# 
# High freq. dielectric constant tensor:
#      x y z
#    x 1.779360 0.000000 0.000000 
#    y 0.000000 1.806290 0.000000 
#    z 0.000000 0.000000 1.771530 
# 
# From -- ./inp_files/51158.got.cif
#   From: 2010.06.25/outbox.cif.g09.slc.cpg/sg71_26_cif.got.tgz:51158.got - 2010.06.28 04:59:45.
