data_PCOD8290370
_publ_section_title
;
Structure prediction by ZEFSAII (Michael W. Deem and Ramdas Pophale) SiO2 
 PCOD8290370
Probable space group: I M M M
;
_chemical_formula_sum "Si O2"
_cell_formula_units_Z 120
_cell_length_a 18.821130
_cell_length_b 14.432008
_cell_length_c 23.989303
_cell_angle_alpha 90.000000
_cell_angle_beta 90.000000
_cell_angle_gamma 90.000000
_cell_volume 6516.135179
_symmetry_space_group_name_H-M "I M M M"
_symmetry_group_IT_number 71
_symmetry_cell_setting 'orthorhombic'
loop_
_space_group_symop_operation_xyz
x,y,z
-x,-y,z
x,-y,-z
-x,y,-z
-x,-y,-z
x,y,-z
-x,y,z
x,-y,z
1/2+x,1/2+y,1/2+z
1/2-x,1/2-y,1/2+z
1/2+x,1/2-y,1/2-z
1/2-x,1/2+y,1/2-z
1/2-x,1/2-y,1/2-z
1/2+x,1/2+y,1/2-z
1/2-x,1/2+y,1/2+z
1/2+x,1/2-y,1/2+z
loop_
_atom_site_type_symbol
_atom_site_label
_atom_site_fract_x
_atom_site_fract_y
_atom_site_fract_z
Si Si1 0.306684 0.390722 0.368805
Si Si2 0.416259 0.500000 0.061598
Si Si3 0.786740 0.393624 0.733861
Si Si4 0.577446 0.777560 0.776949
Si Si5 0.419576 0.308974 0.109445
Si Si6 0.419756 0.249648 0.348544
Si Si7 0.200952 0.609998 0.859793
Si Si8 0.718257 0.753863 0.934993
O O1 0.316507 0.500000 0.377998
O O2 0.277281 0.363898 0.307034
O O3 0.381682 0.338236 0.376841
O O4 0.252828 0.350139 0.414718
O O5 0.500000 0.500000 0.055842
O O6 0.390807 0.411100 0.095539
O O7 0.381373 0.500000 0.000000
O O8 0.802447 0.500000 0.726365
O O9 0.859966 0.349426 0.713745
O O10 0.767018 0.369948 0.797857
O O11 0.500000 0.827513 0.783221
O O12 0.584464 0.698817 0.823943
O O13 0.580989 0.729106 0.717139
O O14 0.500000 0.291445 0.087289
O O15 0.366063 0.238806 0.078041
O O16 0.500000 0.241017 0.371837
O O17 0.378599 0.153453 0.362147
O O18 0.197414 0.500000 0.873091
O O19 0.249854 0.663852 0.903531
O O20 0.732822 0.741315 0.000000
#
# Coordination Sequence:
#
# PCOD8290370 Si02
#       8
#    16   8  16  16  16  16  16  16
#     4  10  21  37  57  78 105 142 183 231 281 327
#     4   9  18  32  46  62  92 140 193 229 254 298
#     4   9  17  32  54  79 107 142 179 217 268 324
#     4   9  17  30  50  79 113 146 176 216 261 312
#     4  10  20  34  51  73 107 151 189 223 264 303
#     4   9  19  34  55  84 114 139 171 216 271 336
#     4   9  20  35  56  84 112 143 177 218 272 333
#     4  11  23  36  55  80 108 145 189 234 270 312
#
# _framework density 18.415825000000002
#
# number of rings (size 3 to 8) (size 9 to 14) (size 15 to 20)
#    0.000    2.467    1.333    0.400    2.800    3.733 
#    1.200    2.667    0.000    6.800    0.000    8.400 
#    0.000    0.000    0.000    0.000    0.000    0.000 
#
# Total GULP energy -743680.117151 kJ/mol
# GULP energy per Si atom -12394.668619 kJ/mol
# Density = 1.837391 g / cm^3
# Si number density = 18.415825 Si / 1000 Ang^3
#
#
#
# Elastic Constant Matrix: (Units=GPa)
#
#
# Indices 1 2 3 4 5 6 
#
# 1 100.9461 37.9196 28.4048 0.0000 0.0000 0.0000
# 2 37.9196 81.8822 32.9620 0.0000 0.0000 0.0000
# 3 28.4048 32.9620 87.7375 0.0000 0.0000 0.0000
# 4 0.0000 0.0000 0.0000 17.9927 0.0000 0.0000
# 5 0.0000 0.0000 0.0000 0.0000 10.0044 0.0000
# 6 0.0000 0.0000 0.0000 0.0000 0.0000 20.4975
#
#
#
# Elastic Compliance Matrix: (Units=1/GPa)
#
#
# Indices 1 2 3 4 5 6 
#
# 1 0.012335 -0.004836 -0.002177 0.000000 0.000000 0.000000
# 2 -0.004836 0.016285 -0.004552 0.000000 0.000000 0.000000
# 3 -0.002177 -0.004552 0.013813 0.000000 0.000000 0.000000
# 4 0.000000 0.000000 0.000000 0.055578 0.000000 0.000000
# 5 0.000000 0.000000 0.000000 0.000000 0.099956 0.000000
# 6 0.000000 0.000000 0.000000 0.000000 0.000000 0.048787
#
#
# Mechanical properties :
#
#
# Convention : Reuss Voigt Hill
#
# Bulk Modulus (GPa) = 51.80698 52.12650 51.96674
# Shear Modulus (GPa) = 18.09509 21.11755 19.60632
#
# Velocity S-wave (km/s) = 3.13802 3.38998 3.26643
# Velocity P-wave (km/s) = 6.42825 6.60979 6.51965
#
# Compressibility (1/GPa) = 0.01930242
#
# Stress axis : x y z
#
# Youngs Moduli (GPa) = 81.06693 61.40643 72.39790
#
# Poissons Ratio (x) = 0.29698 0.15758
# Poissons Ratio (y) = 0.39207 0.32958
# Poissons Ratio (z) = 0.17645 0.27954
#
# Static dielectric constant tensor:
#      x y z
#    x 3.564210 0.000000 0.000000 
#    y 0.000000 3.299580 0.000000 
#    z 0.000000 0.000000 3.320090 
# 
# 
# High freq. dielectric constant tensor:
#      x y z
#    x 1.719730 0.000000 0.000000 
#    y 0.000000 1.700050 0.000000 
#    z 0.000000 0.000000 1.697590 
# 
# From -- ./inp_files/55129.got.cif
#   From: 2010.06.25/outbox.cif.g09.slc.cpg/sg71_28_cif.got.tgz:55129.got - 2010.06.28 04:59:45.
