data_PCOD8290081
_publ_section_title
;
Structure prediction by ZEFSAII (Michael W. Deem and Ramdas Pophale) SiO2 
 PCOD8290081
Probable space group: I M M M
;
_chemical_formula_sum "Si O2"
_cell_formula_units_Z 104
_cell_length_a 32.746414
_cell_length_b 19.885756
_cell_length_c 8.806750
_cell_angle_alpha 90.000000
_cell_angle_beta 90.000000
_cell_angle_gamma 90.000000
_cell_volume 5734.842862
_symmetry_space_group_name_H-M "I M M M"
_symmetry_group_IT_number 71
_symmetry_cell_setting 'orthorhombic'
loop_
_space_group_symop_operation_xyz
x,y,z
-x,-y,z
x,-y,-z
-x,y,-z
-x,-y,-z
x,y,-z
-x,y,z
x,-y,z
1/2+x,1/2+y,1/2+z
1/2-x,1/2-y,1/2+z
1/2+x,1/2-y,1/2-z
1/2-x,1/2+y,1/2-z
1/2-x,1/2-y,1/2-z
1/2+x,1/2+y,1/2-z
1/2-x,1/2+y,1/2+z
1/2+x,1/2-y,1/2+z
loop_
_atom_site_type_symbol
_atom_site_label
_atom_site_fract_x
_atom_site_fract_y
_atom_site_fract_z
Si Si1 0.131594 0.310306 0.319722
Si Si2 0.768916 0.076745 0.177728
Si Si3 0.047067 0.000000 0.833250
Si Si4 0.159711 0.176840 0.178235
Si Si5 0.079936 0.871816 0.674721
Si Si6 0.183251 0.577717 0.175728
Si Si7 0.955707 0.730231 0.675115
O O1 0.130917 0.303992 0.500000
O O2 0.159988 0.249615 0.258794
O O3 0.149617 0.381010 0.268362
O O4 0.084808 0.305383 0.254534
O O5 0.802621 0.130308 0.231878
O O6 0.728244 0.096089 0.267695
O O7 0.782829 0.000000 0.216098
O O8 0.759741 0.083608 0.000000
O O9 0.057292 0.936790 0.731376
O O10 0.000000 0.000000 0.866420
O O11 0.069159 0.000000 0.000000
O O12 0.119523 0.136463 0.221885
O O13 0.161385 0.189280 0.000000
O O14 0.093600 0.878840 0.500000
O O15 0.049102 0.809969 0.695627
O O16 0.173414 0.500000 0.206140
O O17 0.180045 0.596688 0.000000
O O18 0.957771 0.710222 0.500000
O O19 0.000000 0.709556 0.749842
#
# Coordination Sequence:
#
# PCOD8290081 Si02
#       7
#    16  16   8  16  16  16  16
#     4  10  20  34  55  81 108 138 175 216 261 316
#     4   9  19  35  54  76 103 140 182 220 262 312
#     4  11  23  35  47  67  97 135 181 231 281 327
#     4  10  20  34  53  77 108 142 176 220 268 313
#     4  10  20  33  50  73 100 136 178 222 270 320
#     4  10  21  37  57  80 105 135 171 214 265 320
#     4   8  15  30  52  76 101 129 166 212 257 303
#
# _framework density 18.13476
#
# number of rings (size 3 to 8) (size 9 to 14) (size 15 to 20)
#    0.000    2.385    0.000    3.462    1.077    4.000 
#    0.000    0.000    0.000    9.692    0.000    3.231 
#    0.000    0.000    0.000    0.000    0.000    0.000 
#
# Total GULP energy -644582.538779 kJ/mol
# GULP energy per Si atom -12395.818053 kJ/mol
# Density = 1.809348 g / cm^3
# Si number density = 18.134760 Si / 1000 Ang^3
#
#
#
# Elastic Constant Matrix: (Units=GPa)
#
#
# Indices 1 2 3 4 5 6 
#
# 1 116.1447 65.6050 36.1961 0.0000 0.0000 0.0000
# 2 65.6050 84.1972 31.9639 0.0000 0.0000 0.0000
# 3 36.1961 31.9639 53.7725 0.0000 0.0000 0.0000
# 4 0.0000 0.0000 0.0000 28.6261 0.0000 0.0000
# 5 0.0000 0.0000 0.0000 0.0000 23.7759 0.0000
# 6 0.0000 0.0000 0.0000 0.0000 0.0000 46.1254
#
#
#
# Elastic Compliance Matrix: (Units=1/GPa)
#
#
# Indices 1 2 3 4 5 6 
#
# 1 0.016138 -0.010913 -0.004376 0.000000 0.000000 0.000000
# 2 -0.010913 0.022718 -0.006158 0.000000 0.000000 0.000000
# 3 -0.004376 -0.006158 0.025203 0.000000 0.000000 0.000000
# 4 0.000000 0.000000 0.000000 0.034933 0.000000 0.000000
# 5 0.000000 0.000000 0.000000 0.000000 0.042059 0.000000
# 6 0.000000 0.000000 0.000000 0.000000 0.000000 0.021680
#
#
# Mechanical properties :
#
#
# Convention : Reuss Voigt Hill
#
# Bulk Modulus (GPa) = 47.24901 57.96049 52.60475
# Shear Modulus (GPa) = 23.50931 27.72879 25.61905
#
# Velocity S-wave (km/s) = 3.60442 3.91454 3.76267
# Velocity P-wave (km/s) = 6.59040 7.24305 6.92442
#
# Compressibility (1/GPa) = 0.02116446
#
# Stress axis : x y z
#
# Youngs Moduli (GPa) = 61.96488 44.01753 39.67774
#
# Poissons Ratio (x) = 0.48038 0.17363
# Poissons Ratio (y) = 0.67624 0.24434
# Poissons Ratio (z) = 0.27116 0.27107
#
# Static dielectric constant tensor:
#      x y z
#    x 3.506490 0.000000 0.000000 
#    y 0.000000 3.261020 0.000000 
#    z 0.000000 0.000000 3.299790 
# 
# 
# High freq. dielectric constant tensor:
#      x y z
#    x 1.704020 0.000000 0.000000 
#    y 0.000000 1.690250 0.000000 
#    z 0.000000 0.000000 1.698740 
# 
# From -- ./inp_files/16991.got.cif
#   From: 2010.06.25/outbox.cif.g09.slc.cpg/sg71_9_cif.got.tgz:16991.got - 2010.06.28 04:59:45.
