data_PCOD8290925
_publ_section_title
;
Structure prediction by ZEFSAII (Michael W. Deem and Ramdas Pophale) SiO2 
 PCOD8290925
Probable space group: I M M M
;
_chemical_formula_sum "Si O2"
_cell_formula_units_Z 104
_cell_length_a 27.217632
_cell_length_b 21.809622
_cell_length_c 8.425722
_cell_angle_alpha 90.000000
_cell_angle_beta 90.000000
_cell_angle_gamma 90.000000
_cell_volume 5001.561372
_symmetry_space_group_name_H-M "I M M M"
_symmetry_group_IT_number 71
_symmetry_cell_setting 'orthorhombic'
loop_
_space_group_symop_operation_xyz
x,y,z
-x,-y,z
x,-y,-z
-x,y,-z
-x,-y,-z
x,y,-z
-x,y,z
x,-y,z
1/2+x,1/2+y,1/2+z
1/2-x,1/2-y,1/2+z
1/2+x,1/2-y,1/2-z
1/2-x,1/2+y,1/2-z
1/2-x,1/2-y,1/2-z
1/2+x,1/2+y,1/2-z
1/2-x,1/2+y,1/2+z
1/2+x,1/2-y,1/2+z
loop_
_atom_site_type_symbol
_atom_site_label
_atom_site_fract_x
_atom_site_fract_y
_atom_site_fract_z
Si Si1 0.446526 0.500000 0.688229
Si Si2 0.778975 0.690629 0.187919
Si Si3 0.390718 0.183642 0.312483
Si Si4 0.225150 0.069597 0.685406
Si Si5 0.944047 0.793324 0.315825
Si Si6 0.054361 0.433105 0.187976
Si Si7 0.877811 0.893675 0.184525
O O1 0.500000 0.500000 0.768181
O O2 0.450740 0.500000 0.500000
O O3 0.418396 0.440584 0.747897
O O4 0.750000 0.750000 0.250000
O O5 0.835258 0.697973 0.241797
O O6 0.759622 0.624435 0.255485
O O7 0.773533 0.689893 0.000000
O O8 0.397407 0.194157 0.500000
O O9 0.430391 0.223270 0.216393
O O10 0.403855 0.114590 0.259628
O O11 0.234530 0.064063 0.500000
O O12 0.170410 0.093487 0.715109
O O13 0.233701 0.000000 0.758414
O O14 0.939196 0.809760 0.500000
O O15 0.902332 0.828250 0.214993
O O16 0.000000 0.806552 0.257324
O O17 0.069251 0.500000 0.255509
O O18 0.000000 0.414568 0.251330
O O19 0.052235 0.435776 0.000000
O O20 0.864604 0.901700 0.000000
#
# Coordination Sequence:
#
# PCOD8290925 Si02
#       7
#     8  16  16  16  16  16  16
#     4   9  18  32  51  77 107 135 169 221 276 319
#     4  10  22  38  56  81 110 146 190 236 286 335
#     4  10  20  35  57  83 109 142 189 237 280 331
#     4  10  21  38  59  83 117 157 193 233 288 349
#     4  11  24  39  55  80 115 152 188 228 282 346
#     4   8  14  26  48  80 113 139 166 211 271 328
#     4  11  21  36  58  83 111 144 188 235 279 328
#
# _framework density 20.793507000000002
#
# number of rings (size 3 to 8) (size 9 to 14) (size 15 to 20)
#    0.000    2.077    0.769    3.231    0.000    6.769 
#    0.000    3.077    0.000    2.308    0.000    4.308 
#    0.000    0.000    0.000    0.000    0.000    0.000 
#
# Total GULP energy -644453.727090 kJ/mol
# GULP energy per Si atom -12393.340906 kJ/mol
# Density = 2.074618 g / cm^3
# Si number density = 20.793507 Si / 1000 Ang^3
#
#
#
# Elastic Constant Matrix: (Units=GPa)
#
#
# Indices 1 2 3 4 5 6 
#
# 1 94.2982 46.2793 11.0885 0.0000 0.0000 0.0000
# 2 46.2793 138.7879 11.2513 0.0000 0.0000 0.0000
# 3 11.0885 11.2513 18.3284 0.0000 0.0000 0.0000
# 4 0.0000 0.0000 0.0000 18.2875 0.0000 0.0000
# 5 0.0000 0.0000 0.0000 0.0000 23.0015 0.0000
# 6 0.0000 0.0000 0.0000 0.0000 0.0000 48.2931
#
#
#
# Elastic Compliance Matrix: (Units=1/GPa)
#
#
# Indices 1 2 3 4 5 6 
#
# 1 0.013197 -0.003950 -0.005559 0.000000 0.000000 0.000000
# 2 -0.003950 0.008765 -0.002991 0.000000 0.000000 0.000000
# 3 -0.005559 -0.002991 0.059759 0.000000 0.000000 0.000000
# 4 0.000000 0.000000 0.000000 0.054682 0.000000 0.000000
# 5 0.000000 0.000000 0.000000 0.000000 0.043476 0.000000
# 6 0.000000 0.000000 0.000000 0.000000 0.000000 0.020707
#
#
# Mechanical properties :
#
#
# Convention : Reuss Voigt Hill
#
# Bulk Modulus (GPa) = 17.63012 43.18365 30.40688
# Shear Modulus (GPa) = 20.45052 30.10278 25.27665
#
# Velocity S-wave (km/s) = 3.13949 3.80899 3.49033
# Velocity P-wave (km/s) = 4.65177 6.33700 5.55862
#
# Compressibility (1/GPa) = 0.05672112
#
# Stress axis : x y z
#
# Youngs Moduli (GPa) = 75.77559 114.09275 16.73377
#
# Poissons Ratio (x) = 0.45065 0.09303
# Poissons Ratio (y) = 0.29930 0.05005
# Poissons Ratio (z) = 0.42126 0.34124
#
# Static dielectric constant tensor:
#      x y z
#    x 3.873070 0.000000 0.000000 
#    y 0.000000 4.247380 0.000000 
#    z 0.000000 0.000000 3.308930 
# 
# 
# High freq. dielectric constant tensor:
#      x y z
#    x 1.816380 0.000000 0.000000 
#    y 0.000000 1.833300 0.000000 
#    z 0.000000 0.000000 1.772290 
# 
# From -- ./inp_files/14972.got.cif
#   From: 2010.06.25/outbox.cif.g09.slc.cpg/sg71_8_cif.got.tgz:14972.got - 2010.06.28 04:59:45.
