data_PCOD8290250
_publ_section_title
;
Structure prediction by ZEFSAII (Michael W. Deem and Ramdas Pophale) SiO2 
 PCOD8290250
Probable space group: I M M M
;
_chemical_formula_sum "Si O2"
_cell_formula_units_Z 96
_cell_length_a 9.075901
_cell_length_b 19.490247
_cell_length_c 30.365671
_cell_angle_alpha 90.000000
_cell_angle_beta 90.000000
_cell_angle_gamma 90.000000
_cell_volume 5371.430678
_symmetry_space_group_name_H-M "I M M M"
_symmetry_group_IT_number 71
_symmetry_cell_setting 'orthorhombic'
loop_
_space_group_symop_operation_xyz
x,y,z
-x,-y,z
x,-y,-z
-x,y,-z
-x,-y,-z
x,y,-z
-x,y,z
x,-y,z
1/2+x,1/2+y,1/2+z
1/2-x,1/2-y,1/2+z
1/2+x,1/2-y,1/2-z
1/2-x,1/2+y,1/2-z
1/2-x,1/2-y,1/2-z
1/2+x,1/2+y,1/2-z
1/2-x,1/2+y,1/2+z
1/2+x,1/2-y,1/2+z
loop_
_atom_site_type_symbol
_atom_site_label
_atom_site_fract_x
_atom_site_fract_y
_atom_site_fract_z
Si Si1 0.665547 0.425504 0.447643
Si Si2 0.827053 0.203948 0.630125
Si Si3 0.828936 0.706412 0.450833
Si Si4 0.327967 0.282268 0.707845
Si Si5 0.328348 0.077936 0.335393
Si Si6 0.332403 0.423761 0.254599
O O1 0.669164 0.423978 0.500000
O O2 0.500000 0.415856 0.430140
O O3 0.726348 0.500000 0.431395
O O4 0.760604 0.362460 0.429435
O O5 0.793487 0.229841 0.580786
O O6 0.747476 0.254362 0.664121
O O7 0.761561 0.127477 0.632198
O O8 0.000000 0.203011 0.640798
O O9 0.766553 0.722618 0.500000
O O10 0.000000 0.691746 0.453522
O O11 0.500000 0.262109 0.708035
O O12 0.250000 0.250000 0.750000
O O13 0.306880 0.365187 0.708714
O O14 0.500000 0.095631 0.338106
O O15 0.276554 0.091149 0.285670
O O16 0.295916 0.000000 0.349987
O O17 0.500000 0.419273 0.236627
O O18 0.301892 0.500000 0.274555
#
# Coordination Sequence:
#
# PCOD8290250 Si02
#       6
#    16  16  16  16  16  16
#     4   8  14  26  46  72  99 127 163 208 257 308
#     4  11  22  35  53  77 105 138 174 214 262 313
#     4   9  19  35  53  74 101 135 178 224 265 307
#     4  11  21  33  52  77 107 139 172 212 255 306
#     4  10  20  33  52  78 104 131 168 213 256 305
#     4   9  18  33  52  73 100 137 176 211 252 302
#
# _framework density 17.872333000000001
#
# number of rings (size 3 to 8) (size 9 to 14) (size 15 to 20)
#    0.000    2.333    1.667    2.000    0.000    3.333 
#    0.000    2.500    0.000    3.500    0.000    3.500 
#    0.000    0.000    0.000    0.000    0.000    0.000 
#
# Total GULP energy -594997.585348 kJ/mol
# GULP energy per Si atom -12395.783028 kJ/mol
# Density = 1.783165 g / cm^3
# Si number density = 17.872333 Si / 1000 Ang^3
#
#
#
# Elastic Constant Matrix: (Units=GPa)
#
#
# Indices 1 2 3 4 5 6 
#
# 1 91.6003 61.2658 44.0358 0.0000 0.0000 0.0000
# 2 61.2658 145.8183 53.0602 0.0000 0.0000 0.0000
# 3 44.0358 53.0602 67.8125 0.0000 0.0000 0.0000
# 4 0.0000 0.0000 0.0000 23.8134 0.0000 0.0000
# 5 0.0000 0.0000 0.0000 0.0000 19.7756 0.0000
# 6 0.0000 0.0000 0.0000 0.0000 0.0000 31.4143
#
#
#
# Elastic Compliance Matrix: (Units=1/GPa)
#
#
# Indices 1 2 3 4 5 6 
#
# 1 0.017821 -0.004581 -0.007988 0.000000 0.000000 0.000000
# 2 -0.004581 0.010765 -0.005449 0.000000 0.000000 0.000000
# 3 -0.007988 -0.005449 0.024197 0.000000 0.000000 0.000000
# 4 0.000000 0.000000 0.000000 0.041993 0.000000 0.000000
# 5 0.000000 0.000000 0.000000 0.000000 0.050567 0.000000
# 6 0.000000 0.000000 0.000000 0.000000 0.000000 0.031833
#
#
# Mechanical properties :
#
#
# Convention : Reuss Voigt Hill
#
# Bulk Modulus (GPa) = 59.70835 69.10606 64.40721
# Shear Modulus (GPa) = 22.85250 24.79196 23.82223
#
# Velocity S-wave (km/s) = 3.57970 3.72851 3.65487
# Velocity P-wave (km/s) = 7.11101 7.56876 7.34346
#
# Compressibility (1/GPa) = 0.01674808
#
# Stress axis : x y z
#
# Youngs Moduli (GPa) = 56.11327 92.89303 41.32710
#
# Poissons Ratio (x) = 0.42552 0.33014
# Poissons Ratio (y) = 0.25704 0.22517
# Poissons Ratio (z) = 0.44825 0.50613
#
# Static dielectric constant tensor:
#      x y z
#    x 3.445460 0.000000 0.000000 
#    y 0.000000 3.758840 0.000000 
#    z 0.000000 0.000000 3.109220 
# 
# 
# High freq. dielectric constant tensor:
#      x y z
#    x 1.698360 0.000000 0.000000 
#    y 0.000000 1.705690 0.000000 
#    z 0.000000 0.000000 1.647470 
# 
# From -- ./inp_files/63195.got.cif
#   From: 2010.06.25/outbox.cif.g09.slc.cpg/sg71_32_cif.got.tgz:63195.got - 2010.06.28 04:59:45.
