data_PCOD8290722
_publ_section_title
;
Structure prediction by ZEFSAII (Michael W. Deem and Ramdas Pophale) SiO2 
 PCOD8290722
Probable space group: I M M M
;
_chemical_formula_sum "Si O2"
_cell_formula_units_Z 64
_cell_length_a 7.564933
_cell_length_b 23.882201
_cell_length_c 16.827982
_cell_angle_alpha 90.000000
_cell_angle_beta 90.000000
_cell_angle_gamma 90.000000
_cell_volume 3040.265239
_symmetry_space_group_name_H-M "I M M M"
_symmetry_group_IT_number 71
_symmetry_cell_setting 'orthorhombic'
loop_
_space_group_symop_operation_xyz
x,y,z
-x,-y,z
x,-y,-z
-x,y,-z
-x,-y,-z
x,y,-z
-x,y,z
x,-y,z
1/2+x,1/2+y,1/2+z
1/2-x,1/2-y,1/2+z
1/2+x,1/2-y,1/2-z
1/2-x,1/2+y,1/2-z
1/2-x,1/2-y,1/2-z
1/2+x,1/2+y,1/2-z
1/2-x,1/2+y,1/2+z
1/2+x,1/2-y,1/2+z
loop_
_atom_site_type_symbol
_atom_site_label
_atom_site_fract_x
_atom_site_fract_y
_atom_site_fract_z
Si Si1 0.295273 0.245666 0.909997
Si Si2 0.289679 0.866483 0.821125
Si Si3 0.711727 0.063868 0.500000
Si Si4 0.500000 0.434501 0.408249
Si Si5 0.197854 0.635367 0.856399
O O1 0.500000 0.260323 0.901671
O O2 0.240329 0.195030 0.852961
O O3 0.190473 0.300662 0.884714
O O4 0.245827 0.228825 0.000000
O O5 0.500000 0.877847 0.830299
O O6 0.216617 0.869979 0.730780
O O7 0.180958 0.911632 0.870595
O O8 0.500000 0.068142 0.500000
O O9 0.790993 0.095463 0.422150
O O10 0.778106 0.000000 0.500000
O O11 0.500000 0.500000 0.394091
O O12 0.500000 0.417941 0.500000
O O13 0.000000 0.613426 0.846949
#
# Coordination Sequence:
#
# PCOD8290722 Si02
#       5
#    16  16   8   8  16
#     4  10  20  34  56  86 124 164 202 257 322 374
#     4  10  23  41  63  93 127 163 209 257 316 376
#     4   9  18  34  55  83 121 163 211 258 303 369
#     4  11  26  46  68  95 123 159 207 260 316 373
#     4  10  20  35  58  88 120 164 210 256 314 363
#
# _framework density 21.050795000000001
#
# number of rings (size 3 to 8) (size 9 to 14) (size 15 to 20)
#    0.000    2.000    1.250    1.500    3.500    3.000 
#    0.000    3.750    0.000    0.750    0.000    0.000 
#    0.000    0.000    0.000    0.000    0.000    0.000 
#
# Total GULP energy -396757.843856 kJ/mol
# GULP energy per Si atom -12398.682620 kJ/mol
# Density = 2.100288 g / cm^3
# Si number density = 21.050795 Si / 1000 Ang^3
#
#
#
# Elastic Constant Matrix: (Units=GPa)
#
#
# Indices 1 2 3 4 5 6 
#
# 1 51.8795 27.8919 33.1716 0.0000 0.0000 0.0000
# 2 27.8919 130.4569 109.9312 0.0000 0.0000 0.0000
# 3 33.1716 109.9312 203.9439 0.0001 0.0000 0.0000
# 4 0.0000 0.0000 0.0001 20.0361 0.0000 0.0000
# 5 0.0000 0.0000 0.0000 0.0000 0.2625 0.0000
# 6 0.0000 0.0000 0.0000 0.0000 0.0000 15.1346
#
#
#
# Elastic Compliance Matrix: (Units=1/GPa)
#
#
# Indices 1 2 3 4 5 6 
#
# 1 0.022185 -0.003119 -0.001927 0.000000 0.000000 0.000000
# 2 -0.003119 0.014483 -0.007300 0.000000 -0.000001 0.000000
# 3 -0.001927 -0.007300 0.009151 0.000000 0.000001 0.000000
# 4 0.000000 0.000000 0.000000 0.049910 0.000000 0.000000
# 5 0.000000 -0.000001 0.000001 0.000000 3.809872 -0.000001
# 6 0.000000 0.000000 0.000000 0.000000 -0.000001 0.066074
#
#
# Mechanical properties :
#
#
# Convention : Reuss Voigt Hill
#
# Bulk Modulus (GPa) = 47.33136 80.91887 64.12511
# Shear Modulus (GPa) = 1.24894 21.43901 11.34397
#
# Velocity S-wave (km/s) = 0.77109 3.19477 2.32391
# Velocity P-wave (km/s) = 4.82969 7.22025 6.14239
#
# Compressibility (1/GPa) = 0.02112764
#
# Stress axis : x y z
#
# Youngs Moduli (GPa) = 45.07643 69.04486 109.27322
#
# Poissons Ratio (x) = 0.21537 0.21056
# Poissons Ratio (y) = 0.14061 0.79764
# Poissons Ratio (z) = 0.08686 0.50400
#
# Static dielectric constant tensor:
#      x y z
#    x 3.595120 0.000000 0.000000 
#    y 0.000000 3.643260 0.000000 
#    z 0.000000 0.000000 4.202710 
# 
# 
# High freq. dielectric constant tensor:
#      x y z
#    x 1.810230 0.000000 0.000000 
#    y 0.000000 1.813950 0.000000 
#    z 0.000000 0.000000 1.845140 
# 
# From -- ./inp_files/7825.got.cif
#   From: 2010.06.25/outbox.cif.g09.slc.cpg/sg71_4_cif.got.tgz:7825.got - 2010.06.28 04:59:45.
