data_PCOD8290139
_publ_section_title
;
Structure prediction by ZEFSAII (Michael W. Deem and Ramdas Pophale) SiO2 
 PCOD8290139
Probable space group: I M M M
;
_chemical_formula_sum "Si O2"
_cell_formula_units_Z 104
_cell_length_a 26.351475
_cell_length_b 9.114852
_cell_length_c 23.916223
_cell_angle_alpha 90.000000
_cell_angle_beta 90.000000
_cell_angle_gamma 90.000000
_cell_volume 5744.432690
_symmetry_space_group_name_H-M "I M M M"
_symmetry_group_IT_number 71
_symmetry_cell_setting 'orthorhombic'
loop_
_space_group_symop_operation_xyz
x,y,z
-x,-y,z
x,-y,-z
-x,y,-z
-x,-y,-z
x,y,-z
-x,y,z
x,-y,z
1/2+x,1/2+y,1/2+z
1/2-x,1/2-y,1/2+z
1/2+x,1/2-y,1/2-z
1/2-x,1/2+y,1/2-z
1/2-x,1/2-y,1/2-z
1/2+x,1/2+y,1/2-z
1/2-x,1/2+y,1/2+z
1/2+x,1/2-y,1/2+z
loop_
_atom_site_type_symbol
_atom_site_label
_atom_site_fract_x
_atom_site_fract_y
_atom_site_fract_z
Si Si1 0.500000 0.334790 0.433475
Si Si2 0.400693 0.829826 0.434766
Si Si3 0.209190 0.671566 0.356020
Si Si4 0.172412 0.169251 0.856470
Si Si5 0.643702 0.328667 0.232801
Si Si6 0.944000 0.172362 0.653446
Si Si7 0.636375 0.673327 0.063984
O O1 0.500000 0.500000 0.409986
O O2 0.500000 0.331698 0.500000
O O3 0.549857 0.253080 0.410917
O O4 0.393055 0.798888 0.500000
O O5 0.351113 0.770016 0.404246
O O6 0.408058 0.000000 0.422091
O O7 0.197333 0.500000 0.358313
O O8 0.268500 0.705005 0.354320
O O9 0.186322 0.737447 0.299412
O O10 0.185746 0.747338 0.410999
O O11 0.146021 0.210852 0.797843
O O12 0.162492 0.000000 0.871476
O O13 0.655221 0.500000 0.222323
O O14 0.588060 0.285760 0.208923
O O15 0.913354 0.225375 0.598427
O O16 0.000000 0.247060 0.655513
O O17 0.951217 0.000000 0.650058
O O18 0.644741 0.500000 0.070082
O O19 0.628948 0.721150 0.000000
#
# Coordination Sequence:
#
# PCOD8290139 Si02
#       7
#     8  16  16  16  16  16  16
#     4   9  17  33  57  77  97 131 169 205 248 297
#     4  10  21  36  54  77 105 136 171 212 258 310
#     4  10  20  33  51  73 101 136 172 213 262 310
#     4  10  21  35  51  76 104 133 173 216 258 310
#     4   9  18  34  53  74 101 131 170 213 255 309
#     4   8  14  27  49  75 101 128 160 204 254 300
#     4   9  18  32  50  73 101 134 172 211 253 307
#
# _framework density 18.104486999999999
#
# number of rings (size 3 to 8) (size 9 to 14) (size 15 to 20)
#    0.000    2.692    0.000    2.538    0.000    4.923 
#    1.385    4.615    0.000    7.385    0.000    4.308 
#    0.000    0.000    0.000    0.000    0.000    0.000 
#
# Total GULP energy -644788.357088 kJ/mol
# GULP energy per Si atom -12399.776098 kJ/mol
# Density = 1.806328 g / cm^3
# Si number density = 18.104487 Si / 1000 Ang^3
#
#
#
# Elastic Constant Matrix: (Units=GPa)
#
#
# Indices 1 2 3 4 5 6 
#
# 1 118.1059 48.5718 69.8161 0.0000 0.0000 0.0000
# 2 48.5718 72.5571 44.7922 0.0000 0.0000 0.0000
# 3 69.8161 44.7922 96.5831 0.0000 0.0000 0.0000
# 4 0.0000 0.0000 0.0000 24.2135 0.0000 0.0000
# 5 0.0000 0.0000 0.0000 0.0000 17.1728 0.0000
# 6 0.0000 0.0000 0.0000 0.0000 0.0000 29.5100
#
#
#
# Elastic Compliance Matrix: (Units=1/GPa)
#
#
# Indices 1 2 3 4 5 6 
#
# 1 0.015981 -0.004997 -0.009234 0.000000 0.000000 0.000000
# 2 -0.004997 0.020874 -0.006068 0.000000 0.000000 0.000000
# 3 -0.009234 -0.006068 0.019843 0.000000 0.000000 0.000000
# 4 0.000000 0.000000 0.000000 0.041299 0.000000 0.000000
# 5 0.000000 0.000000 0.000000 0.000000 0.058232 0.000000
# 6 0.000000 0.000000 0.000000 0.000000 0.000000 0.033887
#
#
# Mechanical properties :
#
#
# Convention : Reuss Voigt Hill
#
# Bulk Modulus (GPa) = 62.11947 68.17848 65.14897
# Shear Modulus (GPa) = 21.17913 22.45031 21.81472
#
# Velocity S-wave (km/s) = 3.42399 3.52524 3.47498
# Velocity P-wave (km/s) = 7.07232 7.36952 7.22245
#
# Compressibility (1/GPa) = 0.01609801
#
# Stress axis : x y z
#
# Youngs Moduli (GPa) = 62.57474 47.90701 50.39516
#
# Poissons Ratio (x) = 0.23941 0.46537
# Poissons Ratio (y) = 0.31271 0.30581
# Poissons Ratio (z) = 0.57784 0.29071
#
# Static dielectric constant tensor:
#      x y z
#    x 3.527450 0.000000 0.000000 
#    y 0.000000 3.220250 0.000000 
#    z 0.000000 0.000000 3.319500 
# 
# 
# High freq. dielectric constant tensor:
#      x y z
#    x 1.706740 0.000000 0.000000 
#    y 0.000000 1.686830 0.000000 
#    z 0.000000 0.000000 1.694240 
# 
# From -- ./inp_files/15260.got.cif
#   From: 2010.06.25/outbox.cif.g09.slc.cpg/sg71_8_cif.got.tgz:15260.got - 2010.06.28 04:59:45.
