data_PCOD8290338
_publ_section_title
;
Structure prediction by ZEFSAII (Michael W. Deem and Ramdas Pophale) SiO2 
 PCOD8290338
Probable space group: I M M M
;
_chemical_formula_sum "Si O2"
_cell_formula_units_Z 112
_cell_length_a 13.662659
_cell_length_b 31.783604
_cell_length_c 14.327815
_cell_angle_alpha 90.000000
_cell_angle_beta 90.000000
_cell_angle_gamma 90.000000
_cell_volume 6221.832792
_symmetry_space_group_name_H-M "I M M M"
_symmetry_group_IT_number 71
_symmetry_cell_setting 'orthorhombic'
loop_
_space_group_symop_operation_xyz
x,y,z
-x,-y,z
x,-y,-z
-x,y,-z
-x,-y,-z
x,y,-z
-x,y,z
x,-y,z
1/2+x,1/2+y,1/2+z
1/2-x,1/2-y,1/2+z
1/2+x,1/2-y,1/2-z
1/2-x,1/2+y,1/2-z
1/2-x,1/2-y,1/2-z
1/2+x,1/2+y,1/2-z
1/2-x,1/2+y,1/2+z
1/2+x,1/2-y,1/2+z
loop_
_atom_site_type_symbol
_atom_site_label
_atom_site_fract_x
_atom_site_fract_y
_atom_site_fract_z
Si Si1 0.112501 0.802465 0.894470
Si Si2 0.197360 0.451781 0.108585
Si Si3 0.107713 0.907294 0.606798
Si Si4 0.786924 0.749621 0.605139
Si Si5 0.388869 0.164360 0.102166
Si Si6 0.693956 0.332810 0.788623
Si Si7 0.110204 0.622728 0.214431
O O1 0.169170 0.757446 0.891479
O O2 0.166902 0.834077 0.821736
O O3 0.000000 0.795088 0.865661
O O4 0.120493 0.821336 0.000000
O O5 0.175671 0.500000 0.132705
O O6 0.310709 0.442017 0.132660
O O7 0.127231 0.423908 0.174221
O O8 0.174326 0.442120 0.000000
O O9 0.119247 0.893886 0.500000
O O10 0.118543 0.864792 0.665107
O O11 0.000000 0.926670 0.626612
O O12 0.822149 0.760088 0.500000
O O13 0.831933 0.705292 0.640791
O O14 0.823226 0.785738 0.674192
O O15 0.500000 0.178953 0.094149
O O16 0.379054 0.124682 0.172630
O O17 0.348359 0.150923 0.000000
O O18 0.803936 0.346262 0.820950
O O19 0.000000 0.637398 0.185108
#
# Coordination Sequence:
#
# PCOD8290338 Si02
#       7
#    16  16  16  16  16  16  16
#     4  10  21  34  47  66  94 131 175 217 256 301
#     4   9  19  36  56  78 105 135 166 200 242 301
#     4   9  18  32  51  78 107 132 164 209 259 304
#     4  10  20  34  49  69  96 132 176 217 254 296
#     4   9  18  33  52  73  96 126 167 212 254 294
#     4  11  20  33  50  72 100 138 172 215 258 298
#     4  10  21  34  52  76 101 130 168 208 253 303
#
# _framework density 18.001127
#
# number of rings (size 3 to 8) (size 9 to 14) (size 15 to 20)
#    0.000    2.286    1.429    1.286    0.000    3.143 
#    0.000    3.571    0.000    0.429    0.000    2.000 
#    0.000    0.000    0.000   15.143    0.000    0.286 
#
# Total GULP energy -693842.975160 kJ/mol
# GULP energy per Si atom -12390.053128 kJ/mol
# Density = 1.796016 g / cm^3
# Si number density = 18.001127 Si / 1000 Ang^3
#
#
#
# Elastic Constant Matrix: (Units=GPa)
#
#
# Indices 1 2 3 4 5 6 
#
# 1 80.3256 21.5093 28.7067 0.0001 -0.0001 -0.0001
# 2 21.5093 87.9648 54.0883 -0.0008 0.0003 0.0002
# 3 28.7067 54.0883 83.5673 -0.0070 0.0018 0.0008
# 4 0.0001 -0.0008 -0.0070 23.9823 0.0009 0.0005
# 5 -0.0001 0.0003 0.0018 0.0009 24.8049 0.0000
# 6 -0.0001 0.0002 0.0008 0.0005 0.0000 14.8274
#
#
#
# Elastic Compliance Matrix: (Units=1/GPa)
#
#
# Indices 1 2 3 4 5 6 
#
# 1 0.014224 -0.000787 -0.004377 -0.000001 0.000000 0.000000
# 2 -0.000787 0.018927 -0.011980 -0.000003 0.000001 0.000000
# 3 -0.004377 -0.011980 0.021224 0.000006 -0.000001 -0.000001
# 4 -0.000001 -0.000003 0.000006 0.041697 -0.000002 -0.000002
# 5 0.000000 0.000001 -0.000001 -0.000002 0.040315 0.000000
# 6 0.000000 0.000000 -0.000001 -0.000002 0.000000 0.067443
#
#
# Mechanical properties :
#
#
# Convention : Reuss Voigt Hill
#
# Bulk Modulus (GPa) = 49.78222 51.16290 50.47256
# Shear Modulus (GPa) = 20.42373 22.55982 21.49177
#
# Velocity S-wave (km/s) = 3.37201 3.54396 3.45905
# Velocity P-wave (km/s) = 6.54795 6.72532 6.63723
#
# Compressibility (1/GPa) = 0.02008749
#
# Stress axis : x y z
#
# Youngs Moduli (GPa) = 70.30242 52.83476 47.11653
#
# Poissons Ratio (x) = 0.04157 0.20623
# Poissons Ratio (y) = 0.05531 0.56446
# Poissons Ratio (z) = 0.30772 0.63296
#
# Static dielectric constant tensor:
#      x y z
#    x 3.590370 0.000000 0.000000 
#    y 0.000000 2.963810 0.000000 
#    z 0.000000 0.000000 3.475660 
# 
# 
# High freq. dielectric constant tensor:
#      x y z
#    x 1.714850 0.000000 0.000000 
#    y 0.000000 1.648260 0.000000 
#    z 0.000000 0.000000 1.698460 
# 
# From -- ./inp_files/35358.got.cif
#   From: 2010.06.25/outbox.cif.g09.slc.cpg/sg71_18_cif.got.tgz:35358.got - 2010.06.28 04:59:45.
