data_PCOD8290025
_publ_section_title
;
Structure prediction by ZEFSAII (Michael W. Deem and Ramdas Pophale) SiO2 
 PCOD8290025
Probable space group: I M M M
;
_chemical_formula_sum "Si O2"
_cell_formula_units_Z 88
_cell_length_a 26.312184
_cell_length_b 18.597911
_cell_length_c 9.121669
_cell_angle_alpha 90.000000
_cell_angle_beta 90.000000
_cell_angle_gamma 90.000000
_cell_volume 4463.703833
_symmetry_space_group_name_H-M "I M M M"
_symmetry_group_IT_number 71
_symmetry_cell_setting 'orthorhombic'
loop_
_space_group_symop_operation_xyz
x,y,z
-x,-y,z
x,-y,-z
-x,y,-z
-x,-y,-z
x,y,-z
-x,y,z
x,-y,z
1/2+x,1/2+y,1/2+z
1/2-x,1/2-y,1/2+z
1/2+x,1/2-y,1/2-z
1/2-x,1/2+y,1/2-z
1/2-x,1/2-y,1/2-z
1/2+x,1/2+y,1/2-z
1/2-x,1/2+y,1/2+z
1/2+x,1/2-y,1/2+z
loop_
_atom_site_type_symbol
_atom_site_label
_atom_site_fract_x
_atom_site_fract_y
_atom_site_fract_z
Si Si1 0.884619 0.709388 0.161447
Si Si2 0.286714 0.302990 0.336960
Si Si3 0.500000 0.084430 0.337641
Si Si4 0.557642 0.323064 0.170237
Si Si5 0.153603 0.082587 0.672127
Si Si6 0.601316 0.081067 0.172990
O O1 0.839899 0.764782 0.145452
O O2 0.931172 0.749836 0.241405
O O3 0.862047 0.641115 0.256036
O O4 0.902099 0.682999 0.000000
O O5 0.264377 0.319721 0.500000
O O6 0.250000 0.250000 0.250000
O O7 0.299127 0.376986 0.251161
O O8 0.500000 0.119543 0.500000
O O9 0.548570 0.107572 0.244178
O O10 0.500000 0.000000 0.353460
O O11 0.500000 0.349150 0.206190
O O12 0.598037 0.385286 0.213275
O O13 0.563386 0.303726 0.000000
O O14 0.163591 0.089709 0.500000
O O15 0.154105 0.000000 0.723992
O O16 0.616759 0.000000 0.219443
O O17 0.598215 0.087218 0.000000
#
# Coordination Sequence:
#
# PCOD8290025 Si02
#       6
#    16  16   8  16  16  16
#     4  10  21  35  52  75 103 137 177 223 273 325
#     4  10  21  38  60  83 107 139 179 223 275 331
#     4   9  17  29  45  65  91 127 168 207 250 299
#     4   9  18  32  51  77 110 148 186 223 265 315
#     4   9  18  34  57  85 116 148 183 224 269 320
#     4  10  20  33  49  70  98 133 174 219 265 313
#
# _framework density 19.714569000000001
#
# number of rings (size 3 to 8) (size 9 to 14) (size 15 to 20)
#    0.000    2.455    0.000    1.909    1.273    5.455 
#    0.000    2.727    0.000    1.091    0.000    5.091 
#    0.000    0.000    0.000    0.000    0.000    0.000 
#
# Total GULP energy -545259.397340 kJ/mol
# GULP energy per Si atom -12392.259030 kJ/mol
# Density = 1.966970 g / cm^3
# Si number density = 19.714569 Si / 1000 Ang^3
#
#
#
# Elastic Constant Matrix: (Units=GPa)
#
#
# Indices 1 2 3 4 5 6 
#
# 1 55.4071 29.4370 28.2326 0.0000 0.0000 0.0000
# 2 29.4370 146.2347 66.0516 0.0000 0.0000 0.0000
# 3 28.2326 66.0516 112.2965 0.0000 0.0000 0.0000
# 4 0.0000 0.0000 0.0000 31.5646 0.0000 0.0000
# 5 0.0000 0.0000 0.0000 0.0000 22.1877 0.0000
# 6 0.0000 0.0000 0.0000 0.0000 0.0000 22.9308
#
#
#
# Elastic Compliance Matrix: (Units=1/GPa)
#
#
# Indices 1 2 3 4 5 6 
#
# 1 0.021378 -0.002554 -0.003872 0.000000 0.000000 0.000000
# 2 -0.002554 0.009618 -0.005015 0.000000 0.000000 0.000000
# 3 -0.003872 -0.005015 0.012828 0.000000 0.000000 0.000000
# 4 0.000000 0.000000 0.000000 0.031681 0.000000 0.000000
# 5 0.000000 0.000000 0.000000 0.000000 0.045070 0.000000
# 6 0.000000 0.000000 0.000000 0.000000 0.000000 0.043609
#
#
# Mechanical properties :
#
#
# Convention : Reuss Voigt Hill
#
# Bulk Modulus (GPa) = 47.75263 62.37564 55.06413
# Shear Modulus (GPa) = 25.76679 28.01776 26.89228
#
# Velocity S-wave (km/s) = 3.61916 3.77393 3.69735
# Velocity P-wave (km/s) = 6.46057 7.12026 6.79842
#
# Compressibility (1/GPa) = 0.02094126
#
# Stress axis : x y z
#
# Youngs Moduli (GPa) = 46.77601 103.97594 77.95346
#
# Poissons Ratio (x) = 0.26560 0.30186
# Poissons Ratio (y) = 0.11949 0.39092
# Poissons Ratio (z) = 0.18113 0.52141
#
# Static dielectric constant tensor:
#      x y z
#    x 3.530430 0.000000 0.000000 
#    y 0.000000 3.728690 0.000000 
#    z 0.000000 0.000000 3.962620 
# 
# 
# High freq. dielectric constant tensor:
#      x y z
#    x 1.741630 0.000000 0.000000 
#    y 0.000000 1.771060 0.000000 
#    z 0.000000 0.000000 1.776820 
# 
# From -- ./inp_files/16656.got.cif
#   From: 2010.06.25/outbox.cif.g09.slc.cpg/sg71_9_cif.got.tgz:16656.got - 2010.06.28 04:59:45.
