data_PCOD8290736
_publ_section_title
;
Structure prediction by ZEFSAII (Michael W. Deem and Ramdas Pophale) SiO2 
 PCOD8290736
Probable space group: I M M M
;
_chemical_formula_sum "Si O2"
_cell_formula_units_Z 72
_cell_length_a 20.307367
_cell_length_b 8.697042
_cell_length_c 20.086799
_cell_angle_alpha 90.000000
_cell_angle_beta 90.000000
_cell_angle_gamma 90.000000
_cell_volume 3547.610395
_symmetry_space_group_name_H-M "I M M M"
_symmetry_group_IT_number 71
_symmetry_cell_setting 'orthorhombic'
loop_
_space_group_symop_operation_xyz
x,y,z
-x,-y,z
x,-y,-z
-x,y,-z
-x,-y,-z
x,y,-z
-x,y,z
x,-y,z
1/2+x,1/2+y,1/2+z
1/2-x,1/2-y,1/2+z
1/2+x,1/2-y,1/2-z
1/2-x,1/2+y,1/2-z
1/2-x,1/2-y,1/2-z
1/2+x,1/2+y,1/2-z
1/2-x,1/2+y,1/2+z
1/2+x,1/2-y,1/2+z
loop_
_atom_site_type_symbol
_atom_site_label
_atom_site_fract_x
_atom_site_fract_y
_atom_site_fract_z
Si Si1 0.619379 0.815317 0.361492
Si Si2 0.245493 0.680656 0.323049
Si Si3 0.076161 0.666566 0.000000
Si Si4 0.858343 0.179976 0.575460
Si Si5 0.000000 0.680426 0.772352
Si Si6 0.500000 0.322593 0.870166
O O1 0.687634 0.729149 0.357037
O O2 0.595756 0.749038 0.432428
O O3 0.566743 0.755937 0.306762
O O4 0.627383 0.000000 0.357919
O O5 0.237949 0.500000 0.315895
O O6 0.250000 0.750000 0.250000
O O7 0.184540 0.737136 0.368000
O O8 0.111788 0.500000 0.000000
O O9 0.000000 0.639289 0.000000
O O10 0.840421 0.234954 0.500000
O O11 0.935401 0.217388 0.586941
O O12 0.844605 0.000000 0.582373
O O13 0.000000 0.500000 0.783046
O O14 0.000000 0.720966 0.695629
O O15 0.500000 0.500000 0.848327
#
# Coordination Sequence:
#
# PCOD8290736 Si02
#       6
#    16  16   8  16   8   8
#     4  10  20  36  60  89 120 158 204 248 299 357
#     4  12  26  43  62  88 124 163 207 254 304 360
#     4   9  16  32  59  89 119 156 199 244 291 357
#     4  10  22  42  67  93 122 159 201 247 305 369
#     4  10  20  34  57  89 122 157 202 250 297 356
#     4  10  21  38  63  91 119 151 196 247 301 363
#
# _framework density 20.295352999999999
#
# number of rings (size 3 to 8) (size 9 to 14) (size 15 to 20)
#    0.000    1.667    1.111    3.667    1.556    7.111 
#    0.000    0.000    0.000    2.667    0.000    0.000 
#    0.000    0.000    0.000    0.000    0.000    0.000 
#
# Total GULP energy -446188.161295 kJ/mol
# GULP energy per Si atom -12394.115592 kJ/mol
# Density = 2.024916 g / cm^3
# Si number density = 20.295353 Si / 1000 Ang^3
#
#
#
# Elastic Constant Matrix: (Units=GPa)
#
#
# Indices 1 2 3 4 5 6 
#
# 1 131.9976 44.1065 51.3394 0.0000 0.0000 0.0000
# 2 44.1065 73.5468 45.1473 0.0000 0.0000 0.0000
# 3 51.3394 45.1473 156.1265 0.0000 0.0000 0.0000
# 4 0.0000 0.0000 0.0000 40.0639 0.0000 0.0000
# 5 0.0000 0.0000 0.0000 0.0000 36.2210 0.0000
# 6 0.0000 0.0000 0.0000 0.0000 0.0000 15.5684
#
#
#
# Elastic Compliance Matrix: (Units=1/GPa)
#
#
# Indices 1 2 3 4 5 6 
#
# 1 0.009905 -0.004791 -0.001872 0.000000 0.000000 0.000000
# 2 -0.004791 0.018849 -0.003875 0.000000 0.000000 0.000000
# 3 -0.001872 -0.003875 0.008141 0.000000 0.000000 0.000000
# 4 0.000000 0.000000 0.000000 0.024960 0.000000 0.000000
# 5 0.000000 0.000000 0.000000 0.000000 0.027608 0.000000
# 6 0.000000 0.000000 0.000000 0.000000 0.000000 0.064233
#
#
# Mechanical properties :
#
#
# Convention : Reuss Voigt Hill
#
# Bulk Modulus (GPa) = 63.21445 71.42861 67.32153
# Shear Modulus (GPa) = 27.77098 33.10917 30.44007
#
# Velocity S-wave (km/s) = 3.70312 4.04340 3.87700
# Velocity P-wave (km/s) = 7.03556 7.55445 7.29962
#
# Compressibility (1/GPa) = 0.01581917
#
# Stress axis : x y z
#
# Youngs Moduli (GPa) = 100.96177 53.05390 122.83427
#
# Poissons Ratio (x) = 0.25418 0.22989
# Poissons Ratio (y) = 0.48371 0.47599
# Poissons Ratio (z) = 0.18896 0.20559
#
# Static dielectric constant tensor:
#      x y z
#    x 3.801660 0.000000 0.000000 
#    y 0.000000 3.023580 0.000000 
#    z 0.000000 0.000000 3.880670 
# 
# 
# High freq. dielectric constant tensor:
#      x y z
#    x 1.807560 0.000000 0.000000 
#    y 0.000000 1.761170 0.000000 
#    z 0.000000 0.000000 1.813800 
# 
# From -- ./inp_files/60389.got.cif
#   From: 2010.06.25/outbox.cif.g09.slc.cpg/sg71_31_cif.got.tgz:60389.got - 2010.06.28 04:59:45.
