data_PCOD8290135
_publ_section_title
;
Structure prediction by ZEFSAII (Michael W. Deem and Ramdas Pophale) SiO2 
 PCOD8290135
Probable space group: I M M M
;
_chemical_formula_sum "Si O2"
_cell_formula_units_Z 104
_cell_length_a 28.063262
_cell_length_b 9.209489
_cell_length_c 21.023371
_cell_angle_alpha 90.000000
_cell_angle_beta 90.000000
_cell_angle_gamma 90.000000
_cell_volume 5433.454552
_symmetry_space_group_name_H-M "I M M M"
_symmetry_group_IT_number 71
_symmetry_cell_setting 'orthorhombic'
loop_
_space_group_symop_operation_xyz
x,y,z
-x,-y,z
x,-y,-z
-x,y,-z
-x,-y,-z
x,y,-z
-x,y,z
x,-y,z
1/2+x,1/2+y,1/2+z
1/2-x,1/2-y,1/2+z
1/2+x,1/2-y,1/2-z
1/2-x,1/2+y,1/2-z
1/2-x,1/2-y,1/2-z
1/2+x,1/2+y,1/2-z
1/2-x,1/2+y,1/2+z
1/2+x,1/2-y,1/2+z
loop_
_atom_site_type_symbol
_atom_site_label
_atom_site_fract_x
_atom_site_fract_y
_atom_site_fract_z
Si Si1 0.369001 0.670513 0.241435
Si Si2 0.443526 0.172478 0.000000
Si Si3 0.380488 0.164279 0.571621
Si Si4 0.623687 0.669432 0.096313
Si Si5 0.270651 0.666689 0.929870
Si Si6 0.446785 0.833676 0.315977
Si Si7 0.303390 0.670848 0.646293
O O1 0.374285 0.500000 0.248671
O O2 0.366178 0.719193 0.168612
O O3 0.416724 0.740574 0.267271
O O4 0.322611 0.720023 0.283484
O O5 0.418558 0.239313 0.936938
O O6 0.500000 0.210879 0.000000
O O7 0.435971 0.000000 0.000000
O O8 0.395159 0.199559 0.500000
O O9 0.428108 0.184485 0.612388
O O10 0.340539 0.276549 0.593450
O O11 0.360194 0.000000 0.578941
O O12 0.609443 0.500000 0.091869
O O13 0.673528 0.701954 0.062078
O O14 0.263807 0.500000 0.909956
O O15 0.247189 0.758797 0.872698
O O16 0.247734 0.697432 0.000000
O O17 0.500000 0.772748 0.314183
O O18 0.444276 0.000000 0.293789
O O19 0.297272 0.500000 0.642298
#
# Coordination Sequence:
#
# PCOD8290135 Si02
#       7
#    16   8  16  16  16  16  16
#     4   9  20  37  56  78 108 143 184 228 268 323
#     4  11  25  43  63  91 123 147 175 227 290 343
#     4   9  17  30  48  70  99 138 184 228 267 316
#     4  10  21  41  64  84 108 145 187 224 267 324
#     4  10  20  35  56  81 109 143 184 228 270 319
#     4   9  18  32  50  73 102 136 175 223 279 330
#     4  10  20  33  50  78 112 146 181 222 272 323
#
# _framework density 19.140677
#
# number of rings (size 3 to 8) (size 9 to 14) (size 15 to 20)
#    0.000    2.385    0.769    1.154    0.000    6.769 
#    0.000    4.615    0.000    0.000    0.000    4.308 
#    0.000    0.000    0.000    0.000    0.000    0.000 
#
# Total GULP energy -644568.716432 kJ/mol
# GULP energy per Si atom -12395.552239 kJ/mol
# Density = 1.909711 g / cm^3
# Si number density = 19.140677 Si / 1000 Ang^3
#
#
#
# Elastic Constant Matrix: (Units=GPa)
#
#
# Indices 1 2 3 4 5 6 
#
# 1 106.3232 41.5750 51.8552 0.0000 0.0000 0.0000
# 2 41.5750 54.4134 52.6412 0.0000 0.0000 0.0000
# 3 51.8552 52.6412 137.3852 0.0000 0.0000 0.0000
# 4 0.0000 0.0000 0.0000 27.1240 0.0000 0.0000
# 5 0.0000 0.0000 0.0000 0.0000 23.2947 0.0000
# 6 0.0000 0.0000 0.0000 0.0000 0.0000 29.8505
#
#
#
# Elastic Compliance Matrix: (Units=1/GPa)
#
#
# Indices 1 2 3 4 5 6 
#
# 1 0.013700 -0.008684 -0.001844 0.000000 0.000000 0.000000
# 2 -0.008684 0.034708 -0.010021 0.000000 0.000000 0.000000
# 3 -0.001844 -0.010021 0.011814 0.000000 0.000000 0.000000
# 4 0.000000 0.000000 0.000000 0.036868 0.000000 0.000000
# 5 0.000000 0.000000 0.000000 0.000000 0.042928 0.000000
# 6 0.000000 0.000000 0.000000 0.000000 0.000000 0.033500
#
#
# Mechanical properties :
#
#
# Convention : Reuss Voigt Hill
#
# Bulk Modulus (GPa) = 52.28842 65.58495 58.93669
# Shear Modulus (GPa) = 22.62540 26.19054 24.40797
#
# Velocity S-wave (km/s) = 3.44184 3.70309 3.57485
# Velocity P-wave (km/s) = 6.57056 7.25417 6.92081
#
# Compressibility (1/GPa) = 0.01912469
#
# Stress axis : x y z
#
# Youngs Moduli (GPa) = 72.99197 28.81213 84.64303
#
# Poissons Ratio (x) = 0.25021 0.15604
# Poissons Ratio (y) = 0.63387 0.84820
# Poissons Ratio (z) = 0.13457 0.28873
#
# Static dielectric constant tensor:
#      x y z
#    x 3.469620 0.000000 0.000000 
#    y 0.000000 3.418510 0.000000 
#    z 0.000000 0.000000 3.701640 
# 
# 
# High freq. dielectric constant tensor:
#      x y z
#    x 1.739090 0.000000 0.000000 
#    y 0.000000 1.733250 0.000000 
#    z 0.000000 0.000000 1.752000 
# 
# From -- ./inp_files/15023.got.cif
#   From: 2010.06.25/outbox.cif.g09.slc.cpg/sg71_8_cif.got.tgz:15023.got - 2010.06.28 04:59:45.
