data_PCOD8290630
_publ_section_title
;
Structure prediction by ZEFSAII (Michael W. Deem and Ramdas Pophale) SiO2 
 PCOD8290630
Probable space group: I M M M
;
_chemical_formula_sum "Si O2"
_cell_formula_units_Z 92
_cell_length_a 7.640184
_cell_length_b 29.344482
_cell_length_c 23.908852
_cell_angle_alpha 90.000000
_cell_angle_beta 90.000000
_cell_angle_gamma 90.000000
_cell_volume 5360.298675
_symmetry_space_group_name_H-M "I M M M"
_symmetry_group_IT_number 71
_symmetry_cell_setting 'orthorhombic'
loop_
_space_group_symop_operation_xyz
x,y,z
-x,-y,z
x,-y,-z
-x,y,-z
-x,-y,-z
x,y,-z
-x,y,z
x,-y,z
1/2+x,1/2+y,1/2+z
1/2-x,1/2-y,1/2+z
1/2+x,1/2-y,1/2-z
1/2-x,1/2+y,1/2-z
1/2-x,1/2-y,1/2-z
1/2+x,1/2+y,1/2-z
1/2-x,1/2+y,1/2+z
1/2+x,1/2-y,1/2+z
loop_
_atom_site_type_symbol
_atom_site_label
_atom_site_fract_x
_atom_site_fract_y
_atom_site_fract_z
Si Si1 0.500000 0.450807 0.177654
Si Si2 0.304446 0.754225 0.500000
Si Si3 0.797602 0.449411 0.733372
Si Si4 0.292333 0.775945 0.879862
Si Si5 0.000000 0.825798 0.500000
Si Si6 0.500000 0.636313 0.884468
Si Si7 0.701492 0.814772 0.320328
Si Si8 0.204208 0.648700 0.298616
O O1 0.500000 0.500000 0.149689
O O2 0.324217 0.444153 0.213280
O O3 0.500000 0.416788 0.126944
O O4 0.500000 0.774162 0.500000
O O5 0.279702 0.724915 0.443220
O O6 0.172555 0.795591 0.500000
O O7 0.765088 0.500000 0.705137
O O8 0.748802 0.405468 0.694691
O O9 0.000000 0.445504 0.752198
O O10 0.500000 0.769643 0.882701
O O11 0.216345 0.738229 0.837115
O O12 0.228415 0.824150 0.853263
O O13 0.000000 0.860217 0.550142
O O14 0.677979 0.658498 0.863081
O O15 0.500000 0.830503 0.326561
O O16 0.775716 0.827546 0.258386
O O17 0.000000 0.655860 0.296328
#
# Coordination Sequence:
#
# PCOD8290630 Si02
#       8
#     8   8  16  16   4   8  16  16
#     4  10  20  34  55  80 102 132 175 212 258 318
#     4  12  22  38  54  71  96 140 189 218 248 307
#     4   9  17  32  52  76 107 138 167 207 255 312
#     4  11  20  35  52  73 107 140 170 215 258 303
#     4  12  24  40  55  72 104 134 185 226 260 294
#     4  12  22  36  57  76 102 140 172 224 262 302
#     4  11  20  34  51  76 105 135 170 207 256 320
#     4   9  19  31  50  79 108 136 167 207 262 314
#
# _framework density 17.163222000000001
#
# number of rings (size 3 to 8) (size 9 to 14) (size 15 to 20)
#    0.000    1.565    5.217    1.043    0.000    0.000 
#    6.261    0.217    0.000    0.000    0.000    0.609 
#    0.000    9.739    0.000    0.000    0.000    0.000 
#
# Total GULP energy -569877.980028 kJ/mol
# GULP energy per Si atom -12388.651740 kJ/mol
# Density = 1.712416 g / cm^3
# Si number density = 17.163222 Si / 1000 Ang^3
#
#
#
# Elastic Constant Matrix: (Units=GPa)
#
#
# Indices 1 2 3 4 5 6 
#
# 1 88.3466 27.0322 16.7132 0.0000 0.0000 0.0000
# 2 27.0322 154.8545 62.4037 0.0000 0.0000 0.0000
# 3 16.7132 62.4037 79.8658 0.0000 0.0000 0.0000
# 4 0.0000 0.0000 0.0000 21.2494 0.0000 0.0000
# 5 0.0000 0.0000 0.0000 0.0000 81.3351 0.0000
# 6 0.0000 0.0000 0.0000 0.0000 0.0000 12.4880
#
#
#
# Elastic Compliance Matrix: (Units=1/GPa)
#
#
# Indices 1 2 3 4 5 6 
#
# 1 0.012047 -0.001587 -0.001281 0.000000 0.000000 0.000000
# 2 -0.001587 0.009634 -0.007196 0.000000 0.000000 0.000000
# 3 -0.001281 -0.007196 0.018412 0.000000 0.000000 0.000000
# 4 0.000000 0.000000 0.000000 0.047060 0.000000 0.000000
# 5 0.000000 0.000000 0.000000 0.000000 0.012295 0.000000
# 6 0.000000 0.000000 0.000000 0.000000 0.000000 0.080077
#
#
# Mechanical properties :
#
#
# Convention : Reuss Voigt Hill
#
# Bulk Modulus (GPa) = 50.08663 59.48502 54.78582
# Shear Modulus (GPa) = 24.23565 37.47570 30.85567
#
# Velocity S-wave (km/s) = 3.76183 4.67785 4.24462
# Velocity P-wave (km/s) = 6.93645 7.99438 7.48413
#
# Compressibility (1/GPa) = 0.01996541
#
# Stress axis : x y z
#
# Youngs Moduli (GPa) = 83.00880 103.79375 54.31318
#
# Poissons Ratio (x) = 0.16468 0.06959
# Poissons Ratio (y) = 0.13170 0.39083
# Poissons Ratio (z) = 0.10636 0.74689
#
# Static dielectric constant tensor:
#      x y z
#    x 3.399740 0.000000 0.000000 
#    y 0.000000 3.640980 0.000000 
#    z 0.000000 0.000000 3.238960 
# 
# 
# High freq. dielectric constant tensor:
#      x y z
#    x 1.677470 0.000000 0.000000 
#    y 0.000000 1.660340 0.000000 
#    z 0.000000 0.000000 1.627930 
# 
# From -- ./inp_files/57950.got.cif
#   From: 2010.06.25/outbox.cif.g09.slc.cpg/sg71_29_cif.got.tgz:57950.got - 2010.06.28 04:59:45.
