data_PCOD8290154
_publ_section_title
;
Structure prediction by ZEFSAII (Michael W. Deem and Ramdas Pophale) SiO2 
 PCOD8290154
Probable space group: I M M M
;
_chemical_formula_sum "Si O2"
_cell_formula_units_Z 64
_cell_length_a 9.615143
_cell_length_b 40.792113
_cell_length_c 9.343604
_cell_angle_alpha 90.000000
_cell_angle_beta 90.000000
_cell_angle_gamma 90.000000
_cell_volume 3664.767046
_symmetry_space_group_name_H-M "I M M M"
_symmetry_group_IT_number 71
_symmetry_cell_setting 'orthorhombic'
loop_
_space_group_symop_operation_xyz
x,y,z
-x,-y,z
x,-y,-z
-x,y,-z
-x,-y,-z
x,y,-z
-x,y,z
x,-y,z
1/2+x,1/2+y,1/2+z
1/2-x,1/2-y,1/2+z
1/2+x,1/2-y,1/2-z
1/2-x,1/2+y,1/2-z
1/2-x,1/2-y,1/2-z
1/2+x,1/2+y,1/2-z
1/2-x,1/2+y,1/2+z
1/2+x,1/2-y,1/2+z
loop_
_atom_site_type_symbol
_atom_site_label
_atom_site_fract_x
_atom_site_fract_y
_atom_site_fract_z
Si Si1 0.839306 0.962712 0.164413
Si Si2 0.656674 0.088315 0.331115
Si Si3 0.836443 0.722944 0.333173
Si Si4 0.835188 0.339366 0.158483
O O1 0.751835 0.938961 0.262511
O O2 0.000000 0.958141 0.203356
O O3 0.793099 0.000000 0.194908
O O4 0.811974 0.953694 0.000000
O O5 0.659095 0.083618 0.500000
O O6 0.500000 0.084094 0.272271
O O7 0.716085 0.124588 0.291884
O O8 0.799426 0.724339 0.500000
O O9 0.750000 0.750000 0.250000
O O10 0.787175 0.687723 0.272784
O O11 0.000000 0.728713 0.305994
O O12 0.000000 0.340863 0.147973
O O13 0.775652 0.330599 0.000000
#
# Coordination Sequence:
#
# PCOD8290154 Si02
#       4
#    16  16  16  16
#     4   9  19  35  51  68  95 131 167 201 239 285
#     4   9  18  32  51  76 101 124 156 199 244 290
#     4  10  20  33  51  75 100 128 164 202 240 285
#     4   8  15  30  50  70  96 129 160 194 240 289
#
# _framework density 17.463592999999999
#
# number of rings (size 3 to 8) (size 9 to 14) (size 15 to 20)
#    0.000    3.000    0.000    3.000    0.000    4.500 
#    0.000    7.500    0.000    1.500    0.000    0.000 
#    0.000    0.000    0.000    0.000    0.000    0.000 
#
# Total GULP energy -396679.426344 kJ/mol
# GULP energy per Si atom -12396.232073 kJ/mol
# Density = 1.742384 g / cm^3
# Si number density = 17.463593 Si / 1000 Ang^3
#
#
#
# Elastic Constant Matrix: (Units=GPa)
#
#
# Indices 1 2 3 4 5 6 
#
# 1 45.3263 52.7903 38.3543 0.0023 0.0002 0.0002
# 2 52.7903 138.3510 70.4898 0.0026 0.0003 0.0010
# 3 38.3543 70.4898 85.6999 0.0037 -0.0003 0.0001
# 4 0.0023 0.0026 0.0037 39.1821 0.0010 0.0000
# 5 0.0002 0.0003 -0.0003 0.0010 29.4267 0.0037
# 6 0.0002 0.0010 0.0001 0.0000 0.0037 27.2241
#
#
#
# Elastic Compliance Matrix: (Units=1/GPa)
#
#
# Indices 1 2 3 4 5 6 
#
# 1 0.044353 -0.011723 -0.010207 -0.000001 0.000000 0.000000
# 2 -0.011723 0.015541 -0.007536 0.000000 0.000000 0.000000
# 3 -0.010207 -0.007536 0.022435 -0.000001 0.000000 0.000000
# 4 -0.000001 0.000000 -0.000001 0.025522 -0.000001 0.000000
# 5 0.000000 0.000000 0.000000 -0.000001 0.033983 -0.000005
# 6 0.000000 0.000000 0.000000 0.000000 -0.000005 0.036732
#
#
# Mechanical properties :
#
#
# Convention : Reuss Voigt Hill
#
# Bulk Modulus (GPa) = 42.74189 65.84953 54.29571
# Shear Modulus (GPa) = 20.38341 26.34944 23.36642
#
# Velocity S-wave (km/s) = 3.42013 3.88857 3.66185
# Velocity P-wave (km/s) = 6.33438 7.61248 7.00265
#
# Compressibility (1/GPa) = 0.02339625
#
# Stress axis : x y z
#
# Youngs Moduli (GPa) = 22.54637 64.34717 44.57246
#
# Poissons Ratio (x) = 0.75434 0.45497
# Poissons Ratio (y) = 0.26431 0.33590
# Poissons Ratio (z) = 0.23014 0.48492
#
# Static dielectric constant tensor:
#      x y z
#    x 3.007560 0.000000 0.000000 
#    y 0.000000 3.544210 0.000000 
#    z 0.000000 0.000000 3.298380 
# 
# 
# High freq. dielectric constant tensor:
#      x y z
#    x 1.644640 0.000000 0.000000 
#    y 0.000000 1.688220 0.000000 
#    z 0.000000 0.000000 1.674830 
# 
# From -- ./inp_files/3693.got.cif
#   From: 2010.06.25/outbox.cif.g09.slc.cpg/sg71_2_cif.got.tgz:3693.got - 2010.06.28 04:59:45.
