data_PCOD8290677
_publ_section_title
;
Structure prediction by ZEFSAII (Michael W. Deem and Ramdas Pophale) SiO2 
 PCOD8290677
Probable space group: I M M M
;
_chemical_formula_sum "Si O2"
_cell_formula_units_Z 64
_cell_length_a 14.849367
_cell_length_b 7.885520
_cell_length_c 27.947029
_cell_angle_alpha 90.000000
_cell_angle_beta 90.000000
_cell_angle_gamma 90.000000
_cell_volume 3272.456815
_symmetry_space_group_name_H-M "I M M M"
_symmetry_group_IT_number 71
_symmetry_cell_setting 'orthorhombic'
loop_
_space_group_symop_operation_xyz
x,y,z
-x,-y,z
x,-y,-z
-x,y,-z
-x,-y,-z
x,y,-z
-x,y,z
x,-y,z
1/2+x,1/2+y,1/2+z
1/2-x,1/2-y,1/2+z
1/2+x,1/2-y,1/2-z
1/2-x,1/2+y,1/2-z
1/2-x,1/2-y,1/2-z
1/2+x,1/2+y,1/2-z
1/2-x,1/2+y,1/2+z
1/2+x,1/2-y,1/2+z
loop_
_atom_site_type_symbol
_atom_site_label
_atom_site_fract_x
_atom_site_fract_y
_atom_site_fract_z
Si Si1 0.160479 0.698487 0.117301
Si Si2 0.000000 0.691819 0.290170
Si Si3 0.000000 0.798831 0.553661
Si Si4 0.500000 0.200011 0.685614
Si Si5 0.102406 0.000000 0.055959
Si Si6 0.134067 0.195615 0.632863
O O1 0.147672 0.500000 0.101935
O O2 0.148141 0.824755 0.072916
O O3 0.260656 0.732359 0.136232
O O4 0.090416 0.756859 0.157985
O O5 0.089915 0.725745 0.320076
O O6 0.000000 0.500000 0.274701
O O7 0.000000 0.787088 0.238437
O O8 0.088200 0.735198 0.583588
O O9 0.000000 0.718067 0.500000
O O10 0.000000 0.000000 0.548082
O O11 0.500000 0.000000 0.687773
O O12 0.000000 0.000000 0.073581
O O13 0.111765 0.000000 0.000000
O O14 0.110604 0.000000 0.634916
#
# Coordination Sequence:
#
# PCOD8290677 Si02
#       6
#    16   8   8   8   8  16
#     4  10  21  40  62  83 118 159 195 246 295 345
#     4  10  20  34  55  83 117 153 190 245 302 349
#     4   8  14  28  51  77 105 137 180 231 279 342
#     4   9  19  37  57  81 113 152 201 241 292 359
#     4  11  24  40  60  91 121 153 203 244 290 357
#     4   9  19  35  55  81 113 150 194 238 291 352
#
# _framework density 19.557172000000001
#
# number of rings (size 3 to 8) (size 9 to 14) (size 15 to 20)
#    0.000    2.500    1.250    1.125    1.750    2.500 
#    4.500    3.750    0.000    1.500    0.000    0.000 
#    0.000    0.000    0.000    0.000    0.000    0.000 
#
# Total GULP energy -396556.687291 kJ/mol
# GULP energy per Si atom -12392.396478 kJ/mol
# Density = 1.951266 g / cm^3
# Si number density = 19.557172 Si / 1000 Ang^3
#
#
#
# Elastic Constant Matrix: (Units=GPa)
#
#
# Indices 1 2 3 4 5 6 
#
# 1 157.2104 32.0444 61.4054 0.0000 0.0000 0.0000
# 2 32.0444 66.9144 31.6329 0.0000 0.0000 0.0000
# 3 61.4054 31.6329 112.2086 0.0000 0.0000 0.0000
# 4 0.0000 0.0000 0.0000 19.6467 0.0000 0.0000
# 5 0.0000 0.0000 0.0000 0.0000 17.8840 0.0000
# 6 0.0000 0.0000 0.0000 0.0000 0.0000 12.9195
#
#
#
# Elastic Compliance Matrix: (Units=1/GPa)
#
#
# Indices 1 2 3 4 5 6 
#
# 1 0.008343 -0.002119 -0.003968 0.000000 0.000000 0.000000
# 2 -0.002119 0.017781 -0.003853 0.000000 0.000000 0.000000
# 3 -0.003968 -0.003853 0.012170 0.000000 0.000000 0.000000
# 4 0.000000 0.000000 0.000000 0.050899 0.000000 0.000000
# 5 0.000000 0.000000 0.000000 0.000000 0.055916 0.000000
# 6 0.000000 0.000000 0.000000 0.000000 0.000000 0.077403
#
#
# Mechanical properties :
#
#
# Convention : Reuss Voigt Hill
#
# Bulk Modulus (GPa) = 54.31035 65.16654 59.73844
# Shear Modulus (GPa) = 20.11839 24.17341 22.14590
#
# Velocity S-wave (km/s) = 3.21081 3.51955 3.36872
# Velocity P-wave (km/s) = 6.44795 7.06468 6.76335
#
# Compressibility (1/GPa) = 0.01841270
#
# Stress axis : x y z
#
# Youngs Moduli (GPa) = 119.86377 56.24058 82.17190
#
# Poissons Ratio (x) = 0.11920 0.32606
# Poissons Ratio (y) = 0.25404 0.31659
# Poissons Ratio (z) = 0.47563 0.21668
#
# Static dielectric constant tensor:
#      x y z
#    x 3.721440 0.000000 0.000000 
#    y 0.000000 3.462890 0.000000 
#    z 0.000000 0.000000 3.676150 
# 
# 
# High freq. dielectric constant tensor:
#      x y z
#    x 1.767260 0.000000 0.000000 
#    y 0.000000 1.748700 0.000000 
#    z 0.000000 0.000000 1.758450 
# 
# From -- ./inp_files/65125.got.cif
#   From: 2010.06.25/outbox.cif.g09.slc.cpg/sg71_33_cif.got.tgz:65125.got - 2010.06.28 04:59:45.
