data_PCOD8290460
_publ_section_title
;
Structure prediction by ZEFSAII (Michael W. Deem and Ramdas Pophale) SiO2 
 PCOD8290460
Probable space group: I M M M
;
_chemical_formula_sum "Si O2"
_cell_formula_units_Z 88
_cell_length_a 8.901458
_cell_length_b 30.008769
_cell_length_c 18.138304
_cell_angle_alpha 90.000000
_cell_angle_beta 90.000000
_cell_angle_gamma 90.000000
_cell_volume 4845.136357
_symmetry_space_group_name_H-M "I M M M"
_symmetry_group_IT_number 71
_symmetry_cell_setting 'orthorhombic'
loop_
_space_group_symop_operation_xyz
x,y,z
-x,-y,z
x,-y,-z
-x,y,-z
-x,-y,-z
x,y,-z
-x,y,z
x,-y,z
1/2+x,1/2+y,1/2+z
1/2-x,1/2-y,1/2+z
1/2+x,1/2-y,1/2-z
1/2-x,1/2+y,1/2-z
1/2-x,1/2-y,1/2-z
1/2+x,1/2+y,1/2-z
1/2-x,1/2+y,1/2+z
1/2+x,1/2-y,1/2+z
loop_
_atom_site_type_symbol
_atom_site_label
_atom_site_fract_x
_atom_site_fract_y
_atom_site_fract_z
Si Si1 0.325511 0.948070 0.000000
Si Si2 0.823797 0.447652 0.339760
Si Si3 0.176861 0.290905 0.292854
Si Si4 0.172360 0.154307 0.582027
Si Si5 0.674408 0.620273 0.235309
Si Si6 0.830494 0.253503 0.084876
O O1 0.263106 0.929913 0.920833
O O2 0.500000 0.937998 0.000000
O O3 0.294015 0.000000 0.000000
O O4 0.793070 0.500000 0.332037
O O5 0.735796 0.424118 0.273563
O O6 0.000000 0.437207 0.332230
O O7 0.250000 0.250000 0.250000
O O8 0.237418 0.337787 0.266234
O O9 0.225408 0.283559 0.377427
O O10 0.000000 0.290026 0.283712
O O11 0.211614 0.135061 0.500000
O O12 0.200019 0.117506 0.646128
O O13 0.273791 0.196684 0.600968
O O14 0.000000 0.170487 0.583971
O O15 0.500000 0.625670 0.254150
O O16 0.000000 0.250736 0.115757
O O17 0.823879 0.241694 0.000000
#
# Coordination Sequence:
#
# PCOD8290460 Si02
#       6
#     8  16  16  16  16  16
#     4   7  12  28  55  81 103 133 175 217 257 309
#     4   9  18  35  59  83 107 138 177 221 267 319
#     4  12  23  36  54  76 107 145 182 222 269 321
#     4   9  18  33  53  75 101 138 182 223 264 318
#     4  11  22  35  54  81 110 140 176 222 274 324
#     4  10  20  34  53  76 103 137 179 226 270 314
#
# _framework density 18.162544
#
# number of rings (size 3 to 8) (size 9 to 14) (size 15 to 20)
#    0.000    2.091    1.818    3.818    0.000    2.182 
#    1.636    0.455    0.000    2.182    0.000    3.818 
#    0.000    0.000    0.000    0.000    0.000    0.000 
#
# Total GULP energy -545229.329060 kJ/mol
# GULP energy per Si atom -12391.575660 kJ/mol
# Density = 1.812121 g / cm^3
# Si number density = 18.162544 Si / 1000 Ang^3
#
#
#
# Elastic Constant Matrix: (Units=GPa)
#
#
# Indices 1 2 3 4 5 6 
#
# 1 108.9839 41.4711 55.2839 0.0000 0.0000 0.0000
# 2 41.4711 61.3122 53.8551 0.0001 0.0000 0.0000
# 3 55.2839 53.8551 143.0474 0.0003 0.0000 0.0000
# 4 0.0000 0.0001 0.0003 29.7318 0.0000 0.0000
# 5 0.0000 0.0000 0.0000 0.0000 27.8117 0.0000
# 6 0.0000 0.0000 0.0000 0.0000 0.0000 28.5862
#
#
#
# Elastic Compliance Matrix: (Units=1/GPa)
#
#
# Indices 1 2 3 4 5 6 
#
# 1 0.012950 -0.006519 -0.002551 0.000000 0.000000 0.000000
# 2 -0.006519 0.027650 -0.007890 0.000000 0.000000 0.000000
# 3 -0.002551 -0.007890 0.010947 0.000000 0.000000 0.000000
# 4 0.000000 0.000000 0.000000 0.033634 0.000000 0.000000
# 5 0.000000 0.000000 0.000000 0.000000 0.035956 0.000000
# 6 0.000000 0.000000 0.000000 0.000000 0.000000 0.034982
#
#
# Mechanical properties :
#
#
# Convention : Reuss Voigt Hill
#
# Bulk Modulus (GPa) = 56.73023 68.28485 62.50754
# Shear Modulus (GPa) = 25.52126 28.07483 26.79805
#
# Velocity S-wave (km/s) = 3.75261 3.93587 3.84533
# Velocity P-wave (km/s) = 7.07663 7.63760 7.36246
#
# Compressibility (1/GPa) = 0.01762729
#
# Stress axis : x y z
#
# Youngs Moduli (GPa) = 77.21928 36.16622 91.34900
#
# Poissons Ratio (x) = 0.23577 0.23299
# Poissons Ratio (y) = 0.50339 0.72078
# Poissons Ratio (z) = 0.19695 0.28537
#
# Static dielectric constant tensor:
#      x y z
#    x 3.503660 0.000000 0.000000 
#    y 0.000000 3.066220 0.000000 
#    z 0.000000 0.000000 3.887120 
# 
# 
# High freq. dielectric constant tensor:
#      x y z
#    x 1.703100 0.000000 0.000000 
#    y 0.000000 1.657920 0.000000 
#    z 0.000000 0.000000 1.727980 
# 
# From -- ./inp_files/8763.got.cif
#   From: 2010.06.25/outbox.cif.g09.slc.cpg/sg71_5_cif.got.tgz:8763.got - 2010.06.28 04:59:45.
