data_PCOD8290102
_publ_section_title
;
Structure prediction by ZEFSAII (Michael W. Deem and Ramdas Pophale) SiO2 
 PCOD8290102
Probable space group: I M M M
;
_chemical_formula_sum "Si O2"
_cell_formula_units_Z 104
_cell_length_a 20.410777
_cell_length_b 8.778399
_cell_length_c 32.353527
_cell_angle_alpha 90.000000
_cell_angle_beta 90.000000
_cell_angle_gamma 90.000000
_cell_volume 5796.909048
_symmetry_space_group_name_H-M "I M M M"
_symmetry_group_IT_number 71
_symmetry_cell_setting 'orthorhombic'
loop_
_space_group_symop_operation_xyz
x,y,z
-x,-y,z
x,-y,-z
-x,y,-z
-x,-y,-z
x,y,-z
-x,y,z
x,-y,z
1/2+x,1/2+y,1/2+z
1/2-x,1/2-y,1/2+z
1/2+x,1/2-y,1/2-z
1/2-x,1/2+y,1/2-z
1/2-x,1/2-y,1/2-z
1/2+x,1/2+y,1/2-z
1/2-x,1/2+y,1/2+z
1/2+x,1/2-y,1/2+z
loop_
_atom_site_type_symbol
_atom_site_label
_atom_site_fract_x
_atom_site_fract_y
_atom_site_fract_z
Si Si1 0.685520 0.677542 0.154811
Si Si2 0.424221 0.824855 0.306702
Si Si3 0.425338 0.678911 0.219216
Si Si4 0.320639 0.680716 0.635410
Si Si5 0.341334 0.827578 0.927987
Si Si6 0.428385 0.818181 0.000000
Si Si7 0.696492 0.671728 0.544785
O O1 0.698135 0.500000 0.160595
O O2 0.629949 0.734659 0.186963
O O3 0.755903 0.760021 0.159470
O O4 0.657217 0.712943 0.110021
O O5 0.500000 0.802100 0.317674
O O6 0.408752 0.767035 0.261026
O O7 0.384663 0.726532 0.339758
O O8 0.402768 0.000000 0.309924
O O9 0.500000 0.718033 0.204177
O O10 0.419391 0.500000 0.227744
O O11 0.313017 0.500000 0.632470
O O12 0.328247 0.748144 0.588136
O O13 0.395236 0.758685 0.958400
O O14 0.274490 0.826505 0.953442
O O15 0.356501 0.000000 0.912684
O O16 0.500000 0.749167 0.000000
O O17 0.425339 0.000000 0.000000
O O18 0.675849 0.749453 0.500000
O O19 0.669581 0.500000 0.543372
#
# Coordination Sequence:
#
# PCOD8290102 Si02
#       7
#    16  16  16  16  16   8  16
#     4  10  20  33  50  74 105 135 168 217 266 307
#     4  10  21  37  57  79 104 133 165 207 257 308
#     4   9  19  36  55  73  97 136 181 216 254 307
#     4  10  20  33  54  81 106 135 171 209 254 307
#     4   9  16  28  46  66  93 130 169 212 257 301
#     4   9  16  26  43  67  93 127 174 221 260 299
#     4   8  13  25  47  71  94 124 163 205 243 283
#
# _framework density 17.940595999999999
#
# number of rings (size 3 to 8) (size 9 to 14) (size 15 to 20)
#    0.000    2.692    0.769    2.308    0.000    3.385 
#    0.000    0.385    0.000    2.308    0.000    3.231 
#    0.000    0.000    0.000    0.000    0.000    0.000 
#
# Total GULP energy -644291.345554 kJ/mol
# GULP energy per Si atom -12390.218184 kJ/mol
# Density = 1.789976 g / cm^3
# Si number density = 17.940596 Si / 1000 Ang^3
#
#
#
# Elastic Constant Matrix: (Units=GPa)
#
#
# Indices 1 2 3 4 5 6 
#
# 1 80.6351 23.9304 63.2947 0.0000 0.0000 0.0000
# 2 23.9304 40.8401 28.2506 0.0000 0.0000 0.0000
# 3 63.2947 28.2506 113.5557 0.0000 0.0000 0.0000
# 4 0.0000 0.0000 0.0000 22.9564 0.0000 0.0000
# 5 0.0000 0.0000 0.0000 0.0000 21.0605 0.0000
# 6 0.0000 0.0000 0.0000 0.0000 0.0000 22.3389
#
#
#
# Elastic Compliance Matrix: (Units=1/GPa)
#
#
# Indices 1 2 3 4 5 6 
#
# 1 0.023055 -0.005580 -0.011462 0.000000 0.000000 0.000000
# 2 -0.005580 0.030926 -0.004584 0.000000 0.000000 0.000000
# 3 -0.011462 -0.004584 0.016336 0.000000 0.000000 0.000000
# 4 0.000000 0.000000 0.000000 0.043561 0.000000 0.000000
# 5 0.000000 0.000000 0.000000 0.000000 0.047482 0.000000
# 6 0.000000 0.000000 0.000000 0.000000 0.000000 0.044765
#
#
# Mechanical properties :
#
#
# Convention : Reuss Voigt Hill
#
# Bulk Modulus (GPa) = 36.94879 51.77581 44.36230
# Shear Modulus (GPa) = 19.34998 21.24151 20.29575
#
# Velocity S-wave (km/s) = 3.28770 3.44465 3.36709
# Velocity P-wave (km/s) = 5.92045 6.68903 6.31644
#
# Compressibility (1/GPa) = 0.02706448
#
# Stress axis : x y z
#
# Youngs Moduli (GPa) = 43.37458 32.33517 61.21631
#
# Poissons Ratio (x) = 0.18044 0.70168
# Poissons Ratio (y) = 0.24204 0.28059
# Poissons Ratio (z) = 0.49717 0.14821
#
# Static dielectric constant tensor:
#      x y z
#    x 3.250850 0.000000 0.000000 
#    y 0.000000 3.090570 0.000000 
#    z 0.000000 0.000000 3.510370 
# 
# 
# High freq. dielectric constant tensor:
#      x y z
#    x 1.678720 0.000000 0.000000 
#    y 0.000000 1.670700 0.000000 
#    z 0.000000 0.000000 1.703200 
# 
# From -- ./inp_files/70719.got.cif
#   From: 2010.06.25/outbox.cif.g09.slc.cpg/sg71_36_cif.got.tgz:70719.got - 2010.06.28 04:59:45.
