data_PCOD8290634
_publ_section_title
;
Structure prediction by ZEFSAII (Michael W. Deem and Ramdas Pophale) SiO2 
 PCOD8290634
Probable space group: I M M M
;
_chemical_formula_sum "Si O2"
_cell_formula_units_Z 104
_cell_length_a 20.037540
_cell_length_b 31.578134
_cell_length_c 9.162607
_cell_angle_alpha 90.000000
_cell_angle_beta 90.000000
_cell_angle_gamma 90.000000
_cell_volume 5797.622382
_symmetry_space_group_name_H-M "I M M M"
_symmetry_group_IT_number 71
_symmetry_cell_setting 'orthorhombic'
loop_
_space_group_symop_operation_xyz
x,y,z
-x,-y,z
x,-y,-z
-x,y,-z
-x,-y,-z
x,y,-z
-x,y,z
x,-y,z
1/2+x,1/2+y,1/2+z
1/2-x,1/2-y,1/2+z
1/2+x,1/2-y,1/2-z
1/2-x,1/2+y,1/2-z
1/2-x,1/2-y,1/2-z
1/2+x,1/2+y,1/2-z
1/2-x,1/2+y,1/2+z
1/2+x,1/2-y,1/2+z
loop_
_atom_site_type_symbol
_atom_site_label
_atom_site_fract_x
_atom_site_fract_y
_atom_site_fract_z
Si Si1 0.000000 0.451030 0.329243
Si Si2 0.424177 0.775444 0.830767
Si Si3 0.371939 0.074301 0.336294
Si Si4 0.751189 0.046371 0.166995
Si Si5 0.806558 0.135618 0.828916
Si Si6 0.181464 0.332057 0.835358
Si Si7 0.923783 0.176761 0.333493
O O1 0.936398 0.428787 0.262210
O O2 0.000000 0.500000 0.287983
O O3 0.000000 0.442856 0.500000
O O4 0.500000 0.788130 0.784957
O O5 0.369455 0.799305 0.735998
O O6 0.413041 0.726050 0.801450
O O7 0.413182 0.786577 0.000000
O O8 0.385884 0.057915 0.500000
O O9 0.313836 0.045999 0.267676
O O10 0.353130 0.122961 0.336190
O O11 0.798980 0.085543 0.210101
O O12 0.786381 0.000000 0.187740
O O13 0.727622 0.052133 0.000000
O O14 0.750630 0.164893 0.752941
O O15 0.878929 0.148863 0.773278
O O16 0.801113 0.143736 0.000000
O O17 0.197594 0.316953 0.000000
O O18 0.904331 0.166439 0.500000
O O19 0.000000 0.163907 0.302917
#
# Coordination Sequence:
#
# PCOD8290634 Si02
#       7
#     8  16  16  16  16  16  16
#     4  11  23  35  47  65  91 129 175 217 261 311
#     4   9  19  35  54  76 102 137 179 218 257 304
#     4  10  21  34  48  70  99 130 168 215 262 306
#     4   9  18  34  54  75 101 132 167 208 254 305
#     4  10  20  34  55  81 106 134 172 213 255 306
#     4  10  21  35  51  74 105 138 173 214 261 307
#     4   9  19  37  58  79 106 137 168 207 258 310
#
# _framework density 17.938388
#
# number of rings (size 3 to 8) (size 9 to 14) (size 15 to 20)
#    0.000    2.385    0.000    3.000    1.077    7.077 
#    0.000    1.538    0.000    0.462    0.000    3.231 
#    0.000    0.000    0.000    0.000    0.000    0.000 
#
# Total GULP energy -644755.242906 kJ/mol
# GULP energy per Si atom -12399.139287 kJ/mol
# Density = 1.789756 g / cm^3
# Si number density = 17.938388 Si / 1000 Ang^3
#
#
#
# Elastic Constant Matrix: (Units=GPa)
#
#
# Indices 1 2 3 4 5 6 
#
# 1 103.8008 51.4539 54.9471 0.0001 0.0000 0.0000
# 2 51.4539 70.7609 42.0907 0.0000 0.0002 0.0000
# 3 54.9471 42.0907 89.5690 -0.0022 -0.0028 -0.0015
# 4 0.0001 0.0000 -0.0022 26.0767 -0.0004 0.0001
# 5 0.0000 0.0002 -0.0028 -0.0004 37.0043 -0.0006
# 6 0.0000 0.0000 -0.0015 0.0001 -0.0006 -8.3206
#
#
#
# Elastic Compliance Matrix: (Units=1/GPa)
#
#
# Indices 1 2 3 4 5 6 
#
# 1 0.017481 -0.008789 -0.006594 -0.000001 0.000000 0.000001
# 2 -0.008789 0.024034 -0.005902 0.000000 -0.000001 0.000001
# 3 -0.006594 -0.005902 0.017983 0.000002 0.000001 -0.000003
# 4 -0.000001 0.000000 0.000002 0.038348 0.000000 0.000000
# 5 0.000000 -0.000001 0.000001 0.000000 0.027024 -0.000002
# 6 0.000001 0.000001 -0.000003 0.000000 -0.000002 -0.120183
#
#
# Mechanical properties :
#
#
# Convention : Reuss Voigt Hill
#
# Bulk Modulus (GPa) = 59.07439 62.34601 60.71020
# Shear Modulus (GPa) = 94.51719 18.66134 56.58926
#
# Velocity S-wave (km/s) = 7.26666 3.22887 5.62272
# Velocity P-wave (km/s) = 10.16902 6.98082 8.72184
#
# Compressibility (1/GPa) = 0.01692781
#
# Stress axis : x y z
#
# Youngs Moduli (GPa) = 57.20497 41.60758 55.60757
#
# Poissons Ratio (x) = 0.36570 0.36666
# Poissons Ratio (y) = 0.50279 0.32822
# Poissons Ratio (z) = 0.37719 0.24558
#
# Static dielectric constant tensor:
#      x y z
#    x 3.204600 0.000000 0.000000 
#    y 0.000000 3.312300 0.000000 
#    z 0.000000 0.000000 3.472190 
# 
# 
# High freq. dielectric constant tensor:
#      x y z
#    x 1.680530 0.000000 0.000000 
#    y 0.000000 1.692250 0.000000 
#    z 0.000000 0.000000 1.704270 
# 
# From -- ./inp_files/11083.got.cif
#   From: 2010.06.25/outbox.cif.g09.slc.cpg/sg71_6_cif.got.tgz:11083.got - 2010.06.28 04:59:45.
