data_PCOD8290588
_publ_section_title
;
Structure prediction by ZEFSAII (Michael W. Deem and Ramdas Pophale) SiO2 
 PCOD8290588
Probable space group: I M M M
;
_chemical_formula_sum "Si O2"
_cell_formula_units_Z 88
_cell_length_a 9.283991
_cell_length_b 27.541117
_cell_length_c 17.123520
_cell_angle_alpha 90.000000
_cell_angle_beta 90.000000
_cell_angle_gamma 90.000000
_cell_volume 4378.338212
_symmetry_space_group_name_H-M "I M M M"
_symmetry_group_IT_number 71
_symmetry_cell_setting 'orthorhombic'
loop_
_space_group_symop_operation_xyz
x,y,z
-x,-y,z
x,-y,-z
-x,y,-z
-x,-y,-z
x,y,-z
-x,y,z
x,-y,z
1/2+x,1/2+y,1/2+z
1/2-x,1/2-y,1/2+z
1/2+x,1/2-y,1/2-z
1/2-x,1/2+y,1/2-z
1/2-x,1/2-y,1/2-z
1/2+x,1/2+y,1/2-z
1/2-x,1/2+y,1/2+z
1/2+x,1/2-y,1/2+z
loop_
_atom_site_type_symbol
_atom_site_label
_atom_site_fract_x
_atom_site_fract_y
_atom_site_fract_z
Si Si1 0.166761 0.673488 0.665506
Si Si2 0.662185 0.000000 0.906645
Si Si3 0.339648 0.409300 0.591713
Si Si4 0.331452 0.142619 0.659420
Si Si5 0.836492 0.772540 0.588559
Si Si6 0.167422 0.944386 0.409838
O O1 0.264432 0.641379 0.609347
O O2 0.204834 0.661023 0.754118
O O3 0.206231 0.729292 0.647565
O O4 0.000000 0.663251 0.645917
O O5 0.744351 0.047028 0.872939
O O6 0.500000 0.000000 0.873307
O O7 0.659538 0.000000 0.000000
O O8 0.351363 0.416078 0.500000
O O9 0.500000 0.410902 0.628607
O O10 0.500000 0.138264 0.644059
O O11 0.266709 0.181670 0.599916
O O12 0.260995 0.090110 0.645753
O O13 0.819215 0.753614 0.500000
O O14 0.000000 0.789531 0.604628
O O15 0.205294 0.933711 0.500000
O O16 0.000000 0.934051 0.394451
O O17 0.205389 0.000000 0.389075
#
# Coordination Sequence:
#
# PCOD8290588 Si02
#       6
#    16   8  16  16  16  16
#     4  10  22  39  56  79 113 155 194 228 278 343
#     4   9  17  31  53  77 103 141 184 227 278 335
#     4  10  20  34  54  81 110 141 186 242 291 335
#     4  11  23  37  56  86 120 151 185 232 290 344
#     4  10  21  38  61  84 108 147 197 240 280 339
#     4   9  19  38  63  87 112 148 194 237 279 337
#
# _framework density 20.098949999999999
#
# number of rings (size 3 to 8) (size 9 to 14) (size 15 to 20)
#    0.000    2.091    0.000    3.545    0.000    8.364 
#    1.636    0.909    0.000    0.000    0.000    0.000 
#    0.000    0.000    0.000    0.000    0.000    0.000 
#
# Total GULP energy -545750.099716 kJ/mol
# GULP energy per Si atom -12403.411357 kJ/mol
# Density = 2.005320 g / cm^3
# Si number density = 20.098950 Si / 1000 Ang^3
#
#
#
# Elastic Constant Matrix: (Units=GPa)
#
#
# Indices 1 2 3 4 5 6 
#
# 1 114.4443 73.9582 34.6759 0.0000 0.0000 0.0000
# 2 73.9582 140.0231 43.1416 0.0000 0.0000 0.0000
# 3 34.6759 43.1416 61.5119 -0.0006 -0.0001 -0.0006
# 4 0.0000 0.0000 -0.0006 21.2215 0.0000 0.0001
# 5 0.0000 0.0000 -0.0001 0.0000 26.9985 -0.0002
# 6 0.0000 0.0000 -0.0006 0.0001 -0.0002 33.4727
#
#
#
# Elastic Compliance Matrix: (Units=1/GPa)
#
#
# Indices 1 2 3 4 5 6 
#
# 1 0.013803 -0.006242 -0.003403 0.000000 0.000000 0.000000
# 2 -0.006242 0.011933 -0.004851 0.000000 0.000000 0.000000
# 3 -0.003403 -0.004851 0.021577 0.000001 0.000000 0.000000
# 4 0.000000 0.000000 0.000001 0.047122 0.000000 0.000000
# 5 0.000000 0.000000 0.000000 0.000000 0.037039 0.000000
# 6 0.000000 0.000000 0.000000 0.000000 0.000000 0.029875
#
#
# Mechanical properties :
#
#
# Convention : Reuss Voigt Hill
#
# Bulk Modulus (GPa) = 54.57942 68.83675 61.70809
# Shear Modulus (GPa) = 25.45200 27.28543 26.36872
#
# Velocity S-wave (km/s) = 3.56242 3.68850 3.62601
# Velocity P-wave (km/s) = 6.64345 7.24316 6.94977
#
# Compressibility (1/GPa) = 0.01832192
#
# Stress axis : x y z
#
# Youngs Moduli (GPa) = 72.44929 83.80109 46.34469
#
# Poissons Ratio (x) = 0.52308 0.15772
# Poissons Ratio (y) = 0.45222 0.22480
# Poissons Ratio (z) = 0.24656 0.40648
#
# Static dielectric constant tensor:
#      x y z
#    x 3.727060 0.000000 0.000000 
#    y 0.000000 3.677640 0.000000 
#    z 0.000000 0.000000 3.428910 
# 
# 
# High freq. dielectric constant tensor:
#      x y z
#    x 1.787640 0.000000 0.000000 
#    y 0.000000 1.793640 0.000000 
#    z 0.000000 0.000000 1.765820 
# 
# From -- ./inp_files/42434.got.cif
#   From: 2010.06.25/outbox.cif.g09.slc.cpg/sg71_22_cif.got.tgz:42434.got - 2010.06.28 04:59:45.
