data_PCOD8290066
_publ_section_title
;
Structure prediction by ZEFSAII (Michael W. Deem and Ramdas Pophale) SiO2 
 PCOD8290066
Probable space group: I M M M
;
_chemical_formula_sum "Si O2"
_cell_formula_units_Z 112
_cell_length_a 14.502536
_cell_length_b 10.423572
_cell_length_c 35.566987
_cell_angle_alpha 90.000000
_cell_angle_beta 90.000000
_cell_angle_gamma 90.000000
_cell_volume 5376.598406
_symmetry_space_group_name_H-M "I M M M"
_symmetry_group_IT_number 71
_symmetry_cell_setting 'orthorhombic'
loop_
_space_group_symop_operation_xyz
x,y,z
-x,-y,z
x,-y,-z
-x,y,-z
-x,-y,-z
x,y,-z
-x,y,z
x,-y,z
1/2+x,1/2+y,1/2+z
1/2-x,1/2-y,1/2+z
1/2+x,1/2-y,1/2-z
1/2-x,1/2+y,1/2-z
1/2-x,1/2-y,1/2-z
1/2+x,1/2+y,1/2-z
1/2-x,1/2+y,1/2+z
1/2+x,1/2-y,1/2+z
loop_
_atom_site_type_symbol
_atom_site_label
_atom_site_fract_x
_atom_site_fract_y
_atom_site_fract_z
Si Si1 0.893583 0.359599 0.097430
Si Si2 0.891075 0.648406 0.600419
Si Si3 0.602586 0.273620 0.674241
Si Si4 0.109447 0.857616 0.458049
Si Si5 0.202570 0.641695 0.325468
Si Si6 0.604525 0.145388 0.245707
Si Si7 0.109612 0.143168 0.957492
O O1 0.848510 0.500000 0.089499
O O2 0.883822 0.331671 0.141751
O O3 0.847418 0.248251 0.071449
O O4 0.000000 0.366262 0.086121
O O5 0.863602 0.500000 0.591666
O O6 0.853005 0.741580 0.567669
O O7 0.841814 0.705578 0.637667
O O8 0.000000 0.661165 0.605720
O O9 0.500000 0.337697 0.670467
O O10 0.686721 0.372285 0.670539
O O11 0.615766 0.213224 0.714771
O O12 0.148401 0.834938 0.500000
O O13 0.000000 0.851427 0.458825
O O14 0.140131 0.000000 0.443599
O O15 0.159401 0.500000 0.323599
O O16 0.169092 0.710756 0.286721
O O17 0.500000 0.155540 0.231202
O O18 0.635431 0.000000 0.252761
O O19 0.000000 0.141111 0.953966
O O20 0.146537 0.000000 0.947030
O O21 0.138936 0.179441 0.000000
#
# Coordination Sequence:
#
# PCOD8290066 Si02
#       7
#    16  16  16  16  16  16  16
#     4   9  17  29  46  69  96 126 164 210 255 299
#     4   9  17  30  50  77 108 140 176 219 263 308
#     4  10  20  33  50  72 100 135 173 214 259 307
#     4   8  14  26  46  74 109 146 178 208 252 316
#     4  10  20  33  50  74 103 135 174 216 259 311
#     4   9  17  32  55  78 100 129 166 211 263 315
#     4   8  14  25  42  66  95 125 159 202 255 313
#
# _framework density 20.831014
#
# number of rings (size 3 to 8) (size 9 to 14) (size 15 to 20)
#    0.000    3.000    0.000    2.143    0.000    4.857 
#    0.000    5.714    0.000    1.714    0.000    2.000 
#    0.000    0.000    0.000    0.000    0.000    0.000 
#
# Total GULP energy -693763.057995 kJ/mol
# GULP energy per Si atom -12388.626036 kJ/mol
# Density = 2.078360 g / cm^3
# Si number density = 20.831014 Si / 1000 Ang^3
#
#
#
# Elastic Constant Matrix: (Units=GPa)
#
#
# Indices 1 2 3 4 5 6 
#
# 1 58.8295 17.3014 32.6429 0.0000 0.0000 0.0000
# 2 17.3014 110.5876 76.7000 0.0000 0.0000 0.0000
# 3 32.6429 76.7000 160.2172 0.0000 0.0000 0.0000
# 4 0.0000 0.0000 0.0000 21.5297 0.0000 0.0000
# 5 0.0000 0.0000 0.0000 0.0000 6.8084 0.0000
# 6 0.0000 0.0000 0.0000 0.0000 0.0000 11.5146
#
#
#
# Elastic Compliance Matrix: (Units=1/GPa)
#
#
# Indices 1 2 3 4 5 6 
#
# 1 0.019179 -0.000435 -0.003699 0.000000 0.000000 0.000000
# 2 -0.000435 0.013547 -0.006397 0.000000 0.000000 0.000000
# 3 -0.003699 -0.006397 0.010058 0.000000 0.000000 0.000000
# 4 0.000000 0.000000 0.000000 0.046448 0.000000 0.000000
# 5 0.000000 0.000000 0.000000 0.000000 0.146878 0.000000
# 6 0.000000 0.000000 0.000000 0.000000 0.000000 0.086846
#
#
# Mechanical properties :
#
#
# Convention : Reuss Voigt Hill
#
# Bulk Modulus (GPa) = 46.03689 64.76922 55.40305
# Shear Modulus (GPa) = 14.23456 21.50319 17.86887
#
# Velocity S-wave (km/s) = 2.61690 3.21638 2.93200
# Velocity P-wave (km/s) = 5.59277 6.70475 6.17384
#
# Compressibility (1/GPa) = 0.02172171
#
# Stress axis : x y z
#
# Youngs Moduli (GPa) = 52.14078 73.81563 99.42752
#
# Poissons Ratio (x) = 0.03209 0.36782
# Poissons Ratio (y) = 0.02267 0.63602
# Poissons Ratio (z) = 0.19289 0.47219
#
# Static dielectric constant tensor:
#      x y z
#    x 3.518590 0.000000 0.000000 
#    y 0.000000 3.788160 0.000000 
#    z 0.000000 0.000000 3.992270 
# 
# 
# High freq. dielectric constant tensor:
#      x y z
#    x 1.796420 0.000000 0.000000 
#    y 0.000000 1.788590 0.000000 
#    z 0.000000 0.000000 1.825100 
# 
# From -- ./inp_files/69947.got.cif
#   From: 2010.06.25/outbox.cif.g09.slc.cpg/sg71_35_cif.got.tgz:69947.got - 2010.06.28 04:59:45.
