data_PCOD8290546
_publ_section_title
;
Structure prediction by ZEFSAII (Michael W. Deem and Ramdas Pophale) SiO2 
 PCOD8290546
Probable space group: I M M M
;
_chemical_formula_sum "Si O2"
_cell_formula_units_Z 88
_cell_length_a 24.605949
_cell_length_b 8.533257
_cell_length_c 24.740036
_cell_angle_alpha 90.000000
_cell_angle_beta 90.000000
_cell_angle_gamma 90.000000
_cell_volume 5194.637812
_symmetry_space_group_name_H-M "I M M M"
_symmetry_group_IT_number 71
_symmetry_cell_setting 'orthorhombic'
loop_
_space_group_symop_operation_xyz
x,y,z
-x,-y,z
x,-y,-z
-x,y,-z
-x,-y,-z
x,y,-z
-x,y,z
x,-y,z
1/2+x,1/2+y,1/2+z
1/2-x,1/2-y,1/2+z
1/2+x,1/2-y,1/2-z
1/2-x,1/2+y,1/2-z
1/2-x,1/2-y,1/2-z
1/2+x,1/2+y,1/2-z
1/2-x,1/2+y,1/2+z
1/2+x,1/2-y,1/2+z
loop_
_atom_site_type_symbol
_atom_site_label
_atom_site_fract_x
_atom_site_fract_y
_atom_site_fract_z
Si Si1 0.244262 0.818974 0.337003
Si Si2 0.216700 0.818361 0.938204
Si Si3 0.332408 0.181898 0.750798
Si Si4 0.893976 0.319246 0.101124
Si Si5 0.060377 0.169734 0.000000
Si Si6 0.562169 0.682699 0.708255
O O1 0.237449 0.722489 0.393438
O O2 0.300686 0.776790 0.305240
O O3 0.193091 0.779153 0.299670
O O4 0.242485 0.000000 0.351852
O O5 0.167062 0.715169 0.916997
O O6 0.201911 0.000000 0.935925
O O7 0.233027 0.771220 0.000000
O O8 0.396101 0.225479 0.747313
O O9 0.325398 0.000000 0.763990
O O10 0.898724 0.500000 0.119347
O O11 0.917139 0.209369 0.147795
O O12 0.930438 0.281363 0.050270
O O13 0.000000 0.112694 0.000000
O O14 0.093776 0.000000 0.000000
O O15 0.500000 0.743851 0.715989
O O16 0.565123 0.500000 0.721701
#
# Coordination Sequence:
#
# PCOD8290546 Si02
#       6
#    16  16  16  16   8  16
#     4  10  20  34  54  78 103 133 170 214 261 311
#     4  11  22  35  53  74 102 137 172 213 260 308
#     4  10  20  34  54  78 103 133 170 214 261 311
#     4  12  23  34  49  69  94 127 170 216 259 302
#     4  11  23  37  49  61  83 121 169 217 262 303
#     4  11  23  37  53  73 101 136 172 213 260 308
#
# _framework density 16.940545
#
# number of rings (size 3 to 8) (size 9 to 14) (size 15 to 20)
#    0.000    1.182    2.727    4.636    0.000    6.909 
#    0.000    0.000    0.000    0.000    0.000    0.000 
#    0.000    0.727    0.000    7.636    0.000    3.273 
#
# Total GULP energy -545404.789893 kJ/mol
# GULP energy per Si atom -12395.563407 kJ/mol
# Density = 1.690199 g / cm^3
# Si number density = 16.940545 Si / 1000 Ang^3
#
#
#
# Elastic Constant Matrix: (Units=GPa)
#
#
# Indices 1 2 3 4 5 6 
#
# 1 76.1060 16.6468 40.0561 0.0000 0.0000 0.0000
# 2 16.6468 58.2160 23.3630 0.0000 0.0000 0.0000
# 3 40.0561 23.3630 91.6683 0.0000 0.0000 0.0000
# 4 0.0000 0.0000 0.0000 28.1100 0.0000 0.0000
# 5 0.0000 0.0000 0.0000 0.0000 22.3078 0.0000
# 6 0.0000 0.0000 0.0000 0.0000 0.0000 24.0700
#
#
#
# Elastic Compliance Matrix: (Units=1/GPa)
#
#
# Indices 1 2 3 4 5 6 
#
# 1 0.017298 -0.002131 -0.007016 0.000000 0.000000 0.000000
# 2 -0.002131 0.019397 -0.004012 0.000000 0.000000 0.000000
# 3 -0.007016 -0.004012 0.014997 0.000000 0.000000 0.000000
# 4 0.000000 0.000000 0.000000 0.035574 0.000000 0.000000
# 5 0.000000 0.000000 0.000000 0.000000 0.044827 0.000000
# 6 0.000000 0.000000 0.000000 0.000000 0.000000 0.041545
#
#
# Mechanical properties :
#
#
# Convention : Reuss Voigt Hill
#
# Bulk Modulus (GPa) = 39.41001 42.90245 41.15623
# Shear Modulus (GPa) = 23.99050 24.62585 24.30818
#
# Velocity S-wave (km/s) = 3.76727 3.81683 3.79213
# Velocity P-wave (km/s) = 6.49903 6.69362 6.59704
#
# Compressibility (1/GPa) = 0.02537427
#
# Stress axis : x y z
#
# Youngs Moduli (GPa) = 57.80962 51.55432 66.67932
#
# Poissons Ratio (x) = 0.10986 0.46780
# Poissons Ratio (y) = 0.12319 0.26755
# Poissons Ratio (z) = 0.40557 0.20686
#
# Static dielectric constant tensor:
#      x y z
#    x 3.121140 0.000000 0.000000 
#    y 0.000000 3.254660 0.000000 
#    z 0.000000 0.000000 3.200810 
# 
# 
# High freq. dielectric constant tensor:
#      x y z
#    x 1.622880 0.000000 0.000000 
#    y 0.000000 1.670340 0.000000 
#    z 0.000000 0.000000 1.638260 
# 
# From -- ./inp_files/61102.got.cif
#   From: 2010.06.25/outbox.cif.g09.slc.cpg/sg71_31_cif.got.tgz:61102.got - 2010.06.28 04:59:45.
