data_PCOD8290159
_publ_section_title
;
Structure prediction by ZEFSAII (Michael W. Deem and Ramdas Pophale) SiO2 
 PCOD8290159
Probable space group: I M M M
;
_chemical_formula_sum "Si O2"
_cell_formula_units_Z 64
_cell_length_a 9.292453
_cell_length_b 13.944962
_cell_length_c 28.945981
_cell_angle_alpha 90.000000
_cell_angle_beta 90.000000
_cell_angle_gamma 90.000000
_cell_volume 3750.904276
_symmetry_space_group_name_H-M "I M M M"
_symmetry_group_IT_number 71
_symmetry_cell_setting 'orthorhombic'
loop_
_space_group_symop_operation_xyz
x,y,z
-x,-y,z
x,-y,-z
-x,y,-z
-x,-y,-z
x,y,-z
-x,y,z
x,-y,z
1/2+x,1/2+y,1/2+z
1/2-x,1/2-y,1/2+z
1/2+x,1/2-y,1/2-z
1/2-x,1/2+y,1/2-z
1/2-x,1/2-y,1/2-z
1/2+x,1/2+y,1/2-z
1/2-x,1/2+y,1/2+z
1/2+x,1/2-y,1/2+z
loop_
_atom_site_type_symbol
_atom_site_label
_atom_site_fract_x
_atom_site_fract_y
_atom_site_fract_z
Si Si1 0.839998 0.722833 0.912234
Si Si2 0.828818 0.609335 0.000000
Si Si3 0.000000 0.892419 0.054799
Si Si4 0.166313 0.889967 0.763569
Si Si5 0.667564 0.744184 0.821364
O O1 0.857973 0.834713 0.927753
O O2 0.733392 0.711617 0.869689
O O3 0.000000 0.682388 0.899215
O O4 0.770373 0.661825 0.954094
O O5 0.775443 0.500000 0.000000
O O6 0.000000 0.619190 0.000000
O O7 0.000000 0.000000 0.075454
O O8 0.000000 0.894858 0.000000
O O9 0.258831 0.841789 0.803965
O O10 0.198619 0.841049 0.714524
O O11 0.000000 0.878272 0.777380
O O12 0.212522 0.000000 0.759347
O O13 0.500000 0.764335 0.827792
#
# Coordination Sequence:
#
# PCOD8290159 Si02
#       5
#    16   8   8  16  16
#     4   9  17  32  49  74  99 129 169 202 243 299
#     4   9  16  30  51  75 103 130 166 213 246 279
#     4   9  16  30  52  74  94 126 170 212 236 279
#     4   9  19  36  54  71  95 133 173 205 243 297
#     4  10  20  33  51  75 104 130 160 211 254 297
#
# _framework density 17.062553000000001
#
# number of rings (size 3 to 8) (size 9 to 14) (size 15 to 20)
#    0.750    2.000    1.250    0.750    0.000    3.500 
#    0.000    0.625    0.000    0.750    0.000    1.750 
#    0.000    0.000    0.000    0.000    0.000    0.000 
#
# Total GULP energy -396681.157134 kJ/mol
# GULP energy per Si atom -12396.286160 kJ/mol
# Density = 1.702372 g / cm^3
# Si number density = 17.062553 Si / 1000 Ang^3
#
#
#
# Elastic Constant Matrix: (Units=GPa)
#
#
# Indices 1 2 3 4 5 6 
#
# 1 63.6280 38.8747 56.3292 0.0000 0.0000 0.0000
# 2 38.8747 133.1155 59.0144 0.0000 0.0000 0.0000
# 3 56.3292 59.0144 132.8582 0.0000 0.0000 0.0000
# 4 0.0000 0.0000 0.0000 13.8795 0.0000 0.0000
# 5 0.0000 0.0000 0.0000 0.0000 33.0487 0.0000
# 6 0.0000 0.0000 0.0000 0.0000 0.0000 14.6872
#
#
#
# Elastic Compliance Matrix: (Units=1/GPa)
#
#
# Indices 1 2 3 4 5 6 
#
# 1 0.026350 -0.003415 -0.009655 0.000000 0.000000 0.000000
# 2 -0.003415 0.009797 -0.002904 0.000000 0.000000 0.000000
# 3 -0.009655 -0.002904 0.012910 0.000000 0.000000 0.000000
# 4 0.000000 0.000000 0.000000 0.072049 0.000000 0.000000
# 5 0.000000 0.000000 0.000000 0.000000 0.030258 0.000000
# 6 0.000000 0.000000 0.000000 0.000000 0.000000 0.068087
#
#
# Mechanical properties :
#
#
# Convention : Reuss Voigt Hill
#
# Bulk Modulus (GPa) = 58.44614 70.89313 64.66963
# Shear Modulus (GPa) = 19.44753 24.01531 21.73142
#
# Velocity S-wave (km/s) = 3.37972 3.75572 3.57267
# Velocity P-wave (km/s) = 7.03978 7.77473 7.41636
#
# Compressibility (1/GPa) = 0.01710977
#
# Stress axis : x y z
#
# Youngs Moduli (GPa) = 37.95021 102.07292 77.45760
#
# Poissons Ratio (x) = 0.34856 0.74787
# Poissons Ratio (y) = 0.12959 0.22493
# Poissons Ratio (z) = 0.36642 0.29641
#
# Static dielectric constant tensor:
#      x y z
#    x 2.887180 0.000000 0.000000 
#    y 0.000000 3.328560 0.000000 
#    z 0.000000 0.000000 3.127350 
# 
# 
# High freq. dielectric constant tensor:
#      x y z
#    x 1.624450 0.000000 0.000000 
#    y 0.000000 1.657770 0.000000 
#    z 0.000000 0.000000 1.664120 
# 
# From -- ./inp_files/62790.got.cif
#   From: 2010.06.25/outbox.cif.g09.slc.cpg/sg71_32_cif.got.tgz:62790.got - 2010.06.28 04:59:45.
