data_PCOD8290219
_publ_section_title
;
Structure prediction by ZEFSAII (Michael W. Deem and Ramdas Pophale) SiO2 
 PCOD8290219
Probable space group: I M M M
;
_chemical_formula_sum "Si O2"
_cell_formula_units_Z 104
_cell_length_a 27.642126
_cell_length_b 22.866997
_cell_length_c 8.957805
_cell_angle_alpha 90.000000
_cell_angle_beta 90.000000
_cell_angle_gamma 90.000000
_cell_volume 5662.160572
_symmetry_space_group_name_H-M "I M M M"
_symmetry_group_IT_number 71
_symmetry_cell_setting 'orthorhombic'
loop_
_space_group_symop_operation_xyz
x,y,z
-x,-y,z
x,-y,-z
-x,y,-z
-x,-y,-z
x,y,-z
-x,y,z
x,-y,z
1/2+x,1/2+y,1/2+z
1/2-x,1/2-y,1/2+z
1/2+x,1/2-y,1/2-z
1/2-x,1/2+y,1/2-z
1/2-x,1/2-y,1/2-z
1/2+x,1/2+y,1/2-z
1/2-x,1/2+y,1/2+z
1/2+x,1/2-y,1/2+z
loop_
_atom_site_type_symbol
_atom_site_label
_atom_site_fract_x
_atom_site_fract_y
_atom_site_fract_z
Si Si1 0.000000 0.569642 0.332939
Si Si2 0.905974 0.433790 0.173793
Si Si3 0.301184 0.261307 0.170266
Si Si4 0.859119 0.135459 0.822584
Si Si5 0.769078 0.936206 0.823983
Si Si6 0.055897 0.066971 0.675291
Si Si7 0.323585 0.869054 0.831844
O O1 0.952576 0.594318 0.252740
O O2 0.000000 0.500000 0.323328
O O3 0.000000 0.593500 0.500000
O O4 0.896670 0.500000 0.228735
O O5 0.860554 0.395236 0.215121
O O6 0.915720 0.431601 0.000000
O O7 0.250000 0.250000 0.250000
O O8 0.337959 0.304718 0.254060
O O9 0.329079 0.200082 0.170142
O O10 0.291894 0.282492 0.000000
O O11 0.821704 0.085091 0.773398
O O12 0.911045 0.114823 0.760032
O O13 0.862813 0.143817 0.000000
O O14 0.729224 0.889110 0.772775
O O15 0.758907 0.000000 0.751909
O O16 0.767987 0.941229 0.000000
O O17 0.064862 0.074075 0.500000
O O18 0.000000 0.080807 0.714763
O O19 0.068015 0.000000 0.724414
O O20 0.333020 0.893119 0.000000
#
# Coordination Sequence:
#
# PCOD8290219 Si02
#       7
#     8  16  16  16  16  16  16
#     4   9  17  31  53  77 101 137 179 211 250 313
#     4  10  20  33  51  79 112 140 170 217 275 323
#     4  11  22  38  58  80 107 145 191 234 276 325
#     4  11  21  35  56  84 115 150 191 233 281 337
#     4   9  17  30  49  76 110 143 176 218 266 319
#     4   9  19  37  60  87 120 155 190 234 292 351
#     4  10  20  35  54  75 103 143 186 223 267 325
#
# _framework density 18.367546000000001
#
# number of rings (size 3 to 8) (size 9 to 14) (size 15 to 20)
#    0.000    2.077    1.538    3.000    0.000    4.923 
#    0.000    0.769    1.692    2.769    0.000    0.000 
#    0.000    0.000    0.000    0.000    0.000    0.000 
#
# Total GULP energy -644638.957111 kJ/mol
# GULP energy per Si atom -12396.903021 kJ/mol
# Density = 1.832574 g / cm^3
# Si number density = 18.367546 Si / 1000 Ang^3
#
#
#
# Elastic Constant Matrix: (Units=GPa)
#
#
# Indices 1 2 3 4 5 6 
#
# 1 126.3848 49.0022 51.4272 0.0000 0.0000 0.0000
# 2 49.0022 97.4912 36.1560 0.0000 0.0000 0.0000
# 3 51.4272 36.1560 87.9861 0.0000 0.0000 0.0000
# 4 0.0000 0.0000 0.0000 26.5019 0.0000 0.0000
# 5 0.0000 0.0000 0.0000 0.0000 33.1931 0.0000
# 6 0.0000 0.0000 0.0000 0.0000 0.0000 20.8946
#
#
#
# Elastic Compliance Matrix: (Units=1/GPa)
#
#
# Indices 1 2 3 4 5 6 
#
# 1 0.011504 -0.003880 -0.005130 0.000000 0.000000 0.000000
# 2 -0.003880 0.013410 -0.003243 0.000000 0.000000 0.000000
# 3 -0.005130 -0.003243 0.015696 0.000000 0.000000 0.000000
# 4 0.000000 0.000000 0.000000 0.037733 0.000000 0.000000
# 5 0.000000 0.000000 0.000000 0.000000 0.030127 0.000000
# 6 0.000000 0.000000 0.000000 0.000000 0.000000 0.047859
#
#
# Mechanical properties :
#
#
# Convention : Reuss Voigt Hill
#
# Bulk Modulus (GPa) = 62.09005 65.00366 63.54686
# Shear Modulus (GPa) = 26.85245 27.80304 27.32775
#
# Velocity S-wave (km/s) = 3.82770 3.89486 3.86142
# Velocity P-wave (km/s) = 7.30839 7.46283 7.38602
#
# Compressibility (1/GPa) = 0.01610564
#
# Stress axis : x y z
#
# Youngs Moduli (GPa) = 86.92673 74.57048 63.70955
#
# Poissons Ratio (x) = 0.28932 0.32681
# Poissons Ratio (y) = 0.33726 0.20660
# Poissons Ratio (z) = 0.44590 0.24182
#
# Static dielectric constant tensor:
#      x y z
#    x 3.417330 0.000000 0.000000 
#    y 0.000000 3.421170 0.000000 
#    z 0.000000 0.000000 3.311560 
# 
# 
# High freq. dielectric constant tensor:
#      x y z
#    x 1.713460 0.000000 0.000000 
#    y 0.000000 1.698390 0.000000 
#    z 0.000000 0.000000 1.706410 
# 
# From -- ./inp_files/15315.got.cif
#   From: 2010.06.25/outbox.cif.g09.slc.cpg/sg71_8_cif.got.tgz:15315.got - 2010.06.28 04:59:45.
