data_PCOD8290636
_publ_section_title
;
Structure prediction by ZEFSAII (Michael W. Deem and Ramdas Pophale) SiO2 
 PCOD8290636
Probable space group: I M M M
;
_chemical_formula_sum "Si O2"
_cell_formula_units_Z 72
_cell_length_a 13.192652
_cell_length_b 32.016742
_cell_length_c 9.104398
_cell_angle_alpha 90.000000
_cell_angle_beta 90.000000
_cell_angle_gamma 90.000000
_cell_volume 3845.567844
_symmetry_space_group_name_H-M "I M M M"
_symmetry_group_IT_number 71
_symmetry_cell_setting 'orthorhombic'
loop_
_space_group_symop_operation_xyz
x,y,z
-x,-y,z
x,-y,-z
-x,y,-z
-x,-y,-z
x,y,-z
-x,y,z
x,-y,z
1/2+x,1/2+y,1/2+z
1/2-x,1/2-y,1/2+z
1/2+x,1/2-y,1/2-z
1/2-x,1/2+y,1/2-z
1/2-x,1/2-y,1/2-z
1/2+x,1/2+y,1/2-z
1/2-x,1/2+y,1/2+z
1/2+x,1/2-y,1/2+z
loop_
_atom_site_type_symbol
_atom_site_label
_atom_site_fract_x
_atom_site_fract_y
_atom_site_fract_z
Si Si1 0.698209 0.812415 0.327012
Si Si2 0.311985 0.092902 0.675356
Si Si3 0.500000 0.950690 0.828982
Si Si4 0.888559 0.238307 0.332046
Si Si5 0.388280 0.546989 0.174302
O O1 0.685837 0.810970 0.500000
O O2 0.680388 0.859284 0.271285
O O3 0.809432 0.796448 0.276007
O O4 0.616088 0.781511 0.257370
O O5 0.323113 0.088518 0.500000
O O6 0.400338 0.067234 0.752112
O O7 0.202749 0.076150 0.731732
O O8 0.500000 0.000000 0.806196
O O9 0.500000 0.938383 0.000000
O O10 0.865630 0.249775 0.500000
O O11 0.000000 0.218822 0.311716
O O12 0.500000 0.562797 0.228537
O O13 0.369651 0.500000 0.232543
O O14 0.387272 0.547077 0.000000
#
# Coordination Sequence:
#
# PCOD8290636 Si02
#       5
#    16  16   8  16  16
#     4   9  19  33  49  75 104 130 169 216 259 303
#     4  10  20  34  55  81 107 137 175 223 270 315
#     4  11  25  41  55  75 107 147 185 223 269 321
#     4   9  18  33  52  72 100 139 174 206 253 312
#     4   8  14  26  47  76 105 130 160 204 260 317
#
# _framework density 18.722853000000001
#
# number of rings (size 3 to 8) (size 9 to 14) (size 15 to 20)
#    0.000    2.778    0.000    1.667    1.556    4.000 
#    0.000    4.444    0.000    0.667    0.000    6.222 
#    0.000    0.000    0.000    0.000    0.000    0.000 
#
# Total GULP energy -446235.538144 kJ/mol
# GULP energy per Si atom -12395.431615 kJ/mol
# Density = 1.868024 g / cm^3
# Si number density = 18.722853 Si / 1000 Ang^3
#
#
#
# Elastic Constant Matrix: (Units=GPa)
#
#
# Indices 1 2 3 4 5 6 
#
# 1 127.0416 46.5875 29.2296 0.0025 -0.0026 -0.0001
# 2 46.5875 105.1607 31.9531 0.0066 -0.0052 -0.0026
# 3 29.2296 31.9531 29.6112 0.0199 -0.0140 -0.0036
# 4 0.0025 0.0066 0.0199 21.4261 -0.0056 -0.0024
# 5 -0.0026 -0.0052 -0.0140 -0.0056 14.8539 0.0010
# 6 -0.0001 -0.0026 -0.0036 -0.0024 0.0010 19.2023
#
#
#
# Elastic Compliance Matrix: (Units=1/GPa)
#
#
# Indices 1 2 3 4 5 6 
#
# 1 0.010528 -0.002241 -0.007974 0.000007 -0.000006 -0.000002
# 2 -0.002241 0.014625 -0.013570 0.000008 -0.000008 -0.000001
# 3 -0.007974 -0.013570 0.056285 -0.000047 0.000047 0.000009
# 4 0.000007 0.000008 -0.000047 0.046672 0.000018 0.000006
# 5 -0.000006 -0.000008 0.000047 0.000018 0.067323 -0.000003
# 6 -0.000002 -0.000001 0.000009 0.000006 -0.000003 0.052077
#
#
# Mechanical properties :
#
#
# Convention : Reuss Voigt Hill
#
# Bulk Modulus (GPa) = 29.52566 53.03934 41.28250
# Shear Modulus (GPa) = 16.32019 21.36600 18.84310
#
# Velocity S-wave (km/s) = 2.95561 3.38179 3.17586
# Velocity P-wave (km/s) = 5.23943 6.60597 5.96198
#
# Compressibility (1/GPa) = 0.03386884
#
# Stress axis : x y z
#
# Youngs Moduli (GPa) = 94.98571 68.37486 17.76671
#
# Poissons Ratio (x) = 0.15324 0.14167
# Poissons Ratio (y) = 0.21288 0.24109
# Poissons Ratio (z) = 0.75740 0.92783
#
# Static dielectric constant tensor:
#      x y z
#    x 3.776900 0.000010 0.000010 
#    y 0.000010 3.551220 -0.000010 
#    z 0.000010 -0.000010 3.136010 
# 
# 
# High freq. dielectric constant tensor:
#      x y z
#    x 1.742860 0.000000 0.000000 
#    y 0.000000 1.724180 0.000000 
#    z 0.000000 0.000000 1.690190 
# 
# From -- ./inp_files/6477.got.cif
#   From: 2010.06.25/outbox.cif.g09.slc.cpg/sg71_4_cif.got.tgz:6477.got - 2010.06.28 04:59:45.
