data_PCOD8290253
_publ_section_title
;
Structure prediction by ZEFSAII (Michael W. Deem and Ramdas Pophale) SiO2 
 PCOD8290253
Probable space group: I M M M
;
_chemical_formula_sum "Si O2"
_cell_formula_units_Z 96
_cell_length_a 29.559725
_cell_length_b 18.905847
_cell_length_c 8.841669
_cell_angle_alpha 90.000000
_cell_angle_beta 90.000000
_cell_angle_gamma 90.000000
_cell_volume 4941.181205
_symmetry_space_group_name_H-M "I M M M"
_symmetry_group_IT_number 71
_symmetry_cell_setting 'orthorhombic'
loop_
_space_group_symop_operation_xyz
x,y,z
-x,-y,z
x,-y,-z
-x,y,-z
-x,-y,-z
x,y,-z
-x,y,z
x,-y,z
1/2+x,1/2+y,1/2+z
1/2-x,1/2-y,1/2+z
1/2+x,1/2-y,1/2-z
1/2-x,1/2+y,1/2-z
1/2-x,1/2-y,1/2-z
1/2+x,1/2+y,1/2-z
1/2-x,1/2+y,1/2+z
1/2+x,1/2-y,1/2+z
loop_
_atom_site_type_symbol
_atom_site_label
_atom_site_fract_x
_atom_site_fract_y
_atom_site_fract_z
Si Si1 0.927874 0.078659 0.671470
Si Si2 0.881872 0.699389 0.676294
Si Si3 0.949157 0.579707 0.320317
Si Si4 0.950644 0.791744 0.830690
Si Si5 0.665943 0.422005 0.327065
Si Si6 0.703267 0.270837 0.323355
O O1 0.934012 0.105529 0.500000
O O2 0.956160 0.126138 0.788095
O O3 0.875162 0.081525 0.712125
O O4 0.947109 0.000000 0.688690
O O5 0.871163 0.691235 0.500000
O O6 0.908762 0.630212 0.742191
O O7 0.916659 0.762687 0.705306
O O8 0.835405 0.718028 0.760065
O O9 0.949193 0.584708 0.500000
O O10 0.938188 0.500000 0.266511
O O11 0.000000 0.601180 0.262700
O O12 0.000000 0.755520 0.821036
O O13 0.930676 0.782585 0.000000
O O14 0.648678 0.414162 0.500000
O O15 0.690164 0.500000 0.307982
O O16 0.697125 0.354512 0.287026
O O17 0.705532 0.256803 0.500000
O O18 0.750000 0.250000 0.250000
#
# Coordination Sequence:
#
# PCOD8290253 Si02
#       6
#    16  16  16  16  16  16
#     4  10  20  33  52  78 107 141 183 231 277 319
#     4  11  21  35  58  85 113 145 185 236 290 340
#     4   8  15  30  54  85 118 151 189 232 280 339
#     4  11  23  36  51  75 110 152 192 228 272 330
#     4   9  18  35  59  82 106 142 186 228 274 331
#     4  11  23  39  60  85 114 147 186 235 291 347
#
# _framework density 19.428553000000001
#
# number of rings (size 3 to 8) (size 9 to 14) (size 15 to 20)
#    0.000    2.000    1.667    3.000    0.000    4.000 
#    0.000    2.500    0.000    7.000    0.000    5.833 
#    0.000    0.000    0.000    0.000    0.000    0.000 
#
# Total GULP energy -594713.492947 kJ/mol
# GULP energy per Si atom -12389.864436 kJ/mol
# Density = 1.938433 g / cm^3
# Si number density = 19.428553 Si / 1000 Ang^3
#
#
#
# Elastic Constant Matrix: (Units=GPa)
#
#
# Indices 1 2 3 4 5 6 
#
# 1 128.3531 65.7632 35.2279 0.0000 0.0000 0.0000
# 2 65.7632 122.8812 32.4325 0.0000 0.0000 0.0000
# 3 35.2279 32.4325 60.5634 0.0000 0.0000 0.0000
# 4 0.0000 0.0000 0.0000 22.9069 0.0000 0.0000
# 5 0.0000 0.0000 0.0000 0.0000 24.4053 0.0000
# 6 0.0000 0.0000 0.0000 0.0000 0.0000 21.0822
#
#
#
# Elastic Compliance Matrix: (Units=1/GPa)
#
#
# Indices 1 2 3 4 5 6 
#
# 1 0.011492 -0.005108 -0.003949 0.000000 0.000000 0.000000
# 2 -0.005108 0.011748 -0.003320 0.000000 0.000000 0.000000
# 3 -0.003949 -0.003320 0.020587 0.000000 0.000000 0.000000
# 4 0.000000 0.000000 0.000000 0.043655 0.000000 0.000000
# 5 0.000000 0.000000 0.000000 0.000000 0.040975 0.000000
# 6 0.000000 0.000000 0.000000 0.000000 0.000000 0.047433
#
#
# Mechanical properties :
#
#
# Convention : Reuss Voigt Hill
#
# Bulk Modulus (GPa) = 52.43216 64.29388 58.36302
# Shear Modulus (GPa) = 24.15445 25.57049 24.86247
#
# Velocity S-wave (km/s) = 3.52979 3.63179 3.58115
# Velocity P-wave (km/s) = 6.60745 7.12396 6.87056
#
# Compressibility (1/GPa) = 0.01907226
#
# Stress axis : x y z
#
# Youngs Moduli (GPa) = 87.01699 85.12193 48.57521
#
# Poissons Ratio (x) = 0.43480 0.19183
# Poissons Ratio (y) = 0.44448 0.16127
# Poissons Ratio (z) = 0.34365 0.28260
#
# Static dielectric constant tensor:
#      x y z
#    x 3.377590 0.000000 0.000000 
#    y 0.000000 3.977530 0.000000 
#    z 0.000000 0.000000 3.389040 
# 
# 
# High freq. dielectric constant tensor:
#      x y z
#    x 1.732580 0.000000 0.000000 
#    y 0.000000 1.764740 0.000000 
#    z 0.000000 0.000000 1.746120 
# 
# From -- ./inp_files/14856.got.cif
#   From: 2010.06.25/outbox.cif.g09.slc.cpg/sg71_8_cif.got.tgz:14856.got - 2010.06.28 04:59:45.
