data_PCOD8290733
_publ_section_title
;
Structure prediction by ZEFSAII (Michael W. Deem and Ramdas Pophale) SiO2 
 PCOD8290733
Probable space group: I M M M
;
_chemical_formula_sum "Si O2"
_cell_formula_units_Z 104
_cell_length_a 22.496518
_cell_length_b 26.226859
_cell_length_c 8.942330
_cell_angle_alpha 90.000000
_cell_angle_beta 90.000000
_cell_angle_gamma 90.000000
_cell_volume 5276.091000
_symmetry_space_group_name_H-M "I M M M"
_symmetry_group_IT_number 71
_symmetry_cell_setting 'orthorhombic'
loop_
_space_group_symop_operation_xyz
x,y,z
-x,-y,z
x,-y,-z
-x,y,-z
-x,-y,-z
x,y,-z
-x,y,z
x,-y,z
1/2+x,1/2+y,1/2+z
1/2-x,1/2-y,1/2+z
1/2+x,1/2-y,1/2-z
1/2-x,1/2+y,1/2-z
1/2-x,1/2-y,1/2-z
1/2+x,1/2+y,1/2-z
1/2-x,1/2+y,1/2+z
1/2+x,1/2-y,1/2+z
loop_
_atom_site_type_symbol
_atom_site_label
_atom_site_fract_x
_atom_site_fract_y
_atom_site_fract_z
Si Si1 0.389847 0.942472 0.324667
Si Si2 0.275175 0.058894 0.162593
Si Si3 0.817467 0.297384 0.323884
Si Si4 0.301305 0.319112 0.177134
Si Si5 0.854210 0.088056 0.178425
Si Si6 0.435517 0.851025 0.172584
Si Si7 0.429723 0.500000 0.175263
O O1 0.392611 0.939994 0.500000
O O2 0.325658 0.920138 0.272938
O O3 0.438888 0.905290 0.256076
O O4 0.401848 0.000000 0.268365
O O5 0.209441 0.065719 0.227777
O O6 0.287153 0.000000 0.141352
O O7 0.281097 0.086315 0.000000
O O8 0.808767 0.302993 0.500000
O O9 0.764658 0.330278 0.245207
O O10 0.816330 0.238441 0.276148
O O11 0.881889 0.316231 0.266458
O O12 0.352551 0.354861 0.251720
O O13 0.300898 0.327836 0.000000
O O14 0.904004 0.051623 0.250272
O O15 0.863934 0.089395 0.000000
O O16 0.500000 0.824153 0.198038
O O17 0.424510 0.862670 0.000000
O O18 0.500000 0.500000 0.203287
O O19 0.414210 0.500000 0.000000
#
# Coordination Sequence:
#
# PCOD8290733 Si02
#       7
#    16  16  16  16  16  16   8
#     4  10  21  34  49  75 109 142 176 219 272 320
#     4   9  17  31  50  75 106 140 177 215 259 310
#     4   9  19  37  57  81 114 148 185 234 289 344
#     4  10  20  34  57  88 117 145 182 233 293 347
#     4  11  21  36  58  85 115 150 189 229 281 342
#     4  10  21  37  56  75  98 138 187 227 267 320
#     4  11  25  43  61  83 115 155 198 243 290 345
#
# _framework density 19.711562000000001
#
# number of rings (size 3 to 8) (size 9 to 14) (size 15 to 20)
#    0.000    2.077    0.769    2.538    0.000    8.308 
#    0.000    2.308    0.000    2.769    0.000    0.000 
#    0.000    0.000    0.000    0.000    0.000    0.000 
#
# Total GULP energy -644549.227539 kJ/mol
# GULP energy per Si atom -12395.177453 kJ/mol
# Density = 1.966670 g / cm^3
# Si number density = 19.711562 Si / 1000 Ang^3
#
#
#
# Elastic Constant Matrix: (Units=GPa)
#
#
# Indices 1 2 3 4 5 6 
#
# 1 114.7065 52.3876 36.2493 0.0000 0.0000 0.0000
# 2 52.3876 90.8494 37.2752 0.0000 0.0000 0.0000
# 3 36.2493 37.2752 68.6072 0.0000 0.0000 0.0000
# 4 0.0000 0.0000 0.0000 28.5614 0.0000 0.0000
# 5 0.0000 0.0000 0.0000 0.0000 24.9366 0.0000
# 6 0.0000 0.0000 0.0000 0.0000 0.0000 25.5164
#
#
#
# Elastic Compliance Matrix: (Units=1/GPa)
#
#
# Indices 1 2 3 4 5 6 
#
# 1 0.012436 -0.005759 -0.003442 0.000000 0.000000 0.000000
# 2 -0.005759 0.016832 -0.006102 0.000000 0.000000 0.000000
# 3 -0.003442 -0.006102 0.019710 0.000000 0.000000 0.000000
# 4 0.000000 0.000000 0.000000 0.035012 0.000000 0.000000
# 5 0.000000 0.000000 0.000000 0.000000 0.040102 0.000000
# 6 0.000000 0.000000 0.000000 0.000000 0.000000 0.039191
#
#
# Mechanical properties :
#
#
# Convention : Reuss Voigt Hill
#
# Bulk Modulus (GPa) = 54.43174 58.44303 56.43739
# Shear Modulus (GPa) = 24.99867 25.68625 25.34246
#
# Velocity S-wave (km/s) = 3.56508 3.61377 3.58951
# Velocity P-wave (km/s) = 6.67985 6.86483 6.77297
#
# Compressibility (1/GPa) = 0.01837163
#
# Stress axis : x y z
#
# Youngs Moduli (GPa) = 80.41413 59.41174 50.73680
#
# Poissons Ratio (x) = 0.34214 0.17462
# Poissons Ratio (y) = 0.46309 0.30960
# Poissons Ratio (z) = 0.27676 0.36254
#
# Static dielectric constant tensor:
#      x y z
#    x 3.564200 0.000000 0.000000 
#    y 0.000000 3.784030 0.000000 
#    z 0.000000 0.000000 3.568410 
# 
# 
# High freq. dielectric constant tensor:
#      x y z
#    x 1.753770 0.000000 0.000000 
#    y 0.000000 1.773070 0.000000 
#    z 0.000000 0.000000 1.764890 
# 
# From -- ./inp_files/11125.got.cif
#   From: 2010.06.25/outbox.cif.g09.slc.cpg/sg71_6_cif.got.tgz:11125.got - 2010.06.28 04:59:45.
