data_PCOD8290892
_publ_section_title
;
Structure prediction by ZEFSAII (Michael W. Deem and Ramdas Pophale) SiO2 
 PCOD8290892
Probable space group: I M M M
;
_chemical_formula_sum "Si O2"
_cell_formula_units_Z 80
_cell_length_a 8.893109
_cell_length_b 21.794894
_cell_length_c 22.330468
_cell_angle_alpha 90.000000
_cell_angle_beta 90.000000
_cell_angle_gamma 90.000000
_cell_volume 4328.188847
_symmetry_space_group_name_H-M "I M M M"
_symmetry_group_IT_number 71
_symmetry_cell_setting 'orthorhombic'
loop_
_space_group_symop_operation_xyz
x,y,z
-x,-y,z
x,-y,-z
-x,y,-z
-x,-y,-z
x,y,-z
-x,y,z
x,-y,z
1/2+x,1/2+y,1/2+z
1/2-x,1/2-y,1/2+z
1/2+x,1/2-y,1/2-z
1/2-x,1/2+y,1/2-z
1/2-x,1/2-y,1/2-z
1/2+x,1/2+y,1/2-z
1/2-x,1/2+y,1/2+z
1/2+x,1/2-y,1/2+z
loop_
_atom_site_type_symbol
_atom_site_label
_atom_site_fract_x
_atom_site_fract_y
_atom_site_fract_z
Si Si1 0.175838 0.202393 0.166838
Si Si2 0.824558 0.665544 0.785396
Si Si3 0.176838 0.375808 0.430785
Si Si4 0.335618 0.427525 0.000000
Si Si5 0.823163 0.928577 0.370689
Si Si6 0.330443 0.500000 0.428895
O O1 0.214569 0.273807 0.176467
O O2 0.235686 0.163945 0.223154
O O3 0.257700 0.181058 0.106395
O O4 0.000000 0.190457 0.159936
O O5 0.773292 0.606850 0.822201
O O6 0.000000 0.661932 0.770679
O O7 0.220403 0.365059 0.500000
O O8 0.246708 0.439163 0.405586
O O9 0.000000 0.379735 0.421934
O O10 0.257455 0.409156 0.936944
O O11 0.356858 0.500000 0.000000
O O12 0.500000 0.396784 0.000000
O O13 0.000000 0.912530 0.366098
O O14 0.796532 0.000000 0.358625
O O15 0.500000 0.500000 0.403817
O O16 0.327478 0.500000 0.500000
#
# Coordination Sequence:
#
# PCOD8290892 Si02
#       6
#    16  16  16   8  16   8
#     4  10  21  38  58  77 103 143 184 222 267 323
#     4  10  21  37  56  78 106 141 179 224 274 321
#     4  10  20  35  56  83 113 142 177 223 270 316
#     4   7  12  26  49  75 103 137 173 210 253 302
#     4   9  17  32  55  81 109 141 179 220 262 316
#     4   9  17  31  53  79 109 145 177 210 261 320
#
# _framework density 18.483483
#
# number of rings (size 3 to 8) (size 9 to 14) (size 15 to 20)
#    0.000    2.600    0.000    3.300    0.000    5.200 
#    3.600    0.500    0.000    1.800    0.000    0.000 
#    0.000    0.000    0.000    0.000    0.000    0.000 
#
# Total GULP energy -495875.053364 kJ/mol
# GULP energy per Si atom -12396.876334 kJ/mol
# Density = 1.844141 g / cm^3
# Si number density = 18.483483 Si / 1000 Ang^3
#
#
#
# Elastic Constant Matrix: (Units=GPa)
#
#
# Indices 1 2 3 4 5 6 
#
# 1 79.7841 34.1221 41.7147 0.0000 0.0000 0.0000
# 2 34.1221 63.2837 45.2657 0.0000 0.0000 0.0000
# 3 41.7147 45.2657 93.0324 0.0000 0.0000 0.0000
# 4 0.0000 0.0000 0.0000 30.4234 0.0000 0.0000
# 5 0.0000 0.0000 0.0000 0.0000 28.4834 0.0000
# 6 0.0000 0.0000 0.0000 0.0000 0.0000 31.5343
#
#
#
# Elastic Compliance Matrix: (Units=1/GPa)
#
#
# Indices 1 2 3 4 5 6 
#
# 1 0.017716 -0.005936 -0.005055 0.000000 0.000000 0.000000
# 2 -0.005936 0.026226 -0.010099 0.000000 0.000000 0.000000
# 3 -0.005055 -0.010099 0.017929 0.000000 0.000000 0.000000
# 4 0.000000 0.000000 0.000000 0.032869 0.000000 0.000000
# 5 0.000000 0.000000 0.000000 0.000000 0.035108 0.000000
# 6 0.000000 0.000000 0.000000 0.000000 0.000000 0.031711
#
#
# Mechanical properties :
#
#
# Convention : Reuss Voigt Hill
#
# Bulk Modulus (GPa) = 50.78562 53.14505 51.96534
# Shear Modulus (GPa) = 23.77507 25.75475 24.76491
#
# Velocity S-wave (km/s) = 3.59038 3.73687 3.66435
# Velocity P-wave (km/s) = 6.68757 6.88724 6.78814
#
# Compressibility (1/GPa) = 0.01969061
#
# Stress axis : x y z
#
# Youngs Moduli (GPa) = 56.44694 38.12989 55.77469
#
# Poissons Ratio (x) = 0.22635 0.28195
# Poissons Ratio (y) = 0.33509 0.56326
# Poissons Ratio (z) = 0.28535 0.38507
#
# Static dielectric constant tensor:
#      x y z
#    x 3.328020 0.000000 0.000000 
#    y 0.000000 3.284640 0.000000 
#    z 0.000000 0.000000 3.468200 
# 
# 
# High freq. dielectric constant tensor:
#      x y z
#    x 1.713720 0.000000 0.000000 
#    y 0.000000 1.704400 0.000000 
#    z 0.000000 0.000000 1.715640 
# 
# From -- ./inp_files/50419.got.cif
#   From: 2010.06.25/outbox.cif.g09.slc.cpg/sg71_26_cif.got.tgz:50419.got - 2010.06.28 04:59:45.
