data_PCOD8290158
_publ_section_title
;
Structure prediction by ZEFSAII (Michael W. Deem and Ramdas Pophale) SiO2 
 PCOD8290158
Probable space group: I M M M
;
_chemical_formula_sum "Si O2"
_cell_formula_units_Z 96
_cell_length_a 14.904759
_cell_length_b 15.148250
_cell_length_c 23.696345
_cell_angle_alpha 90.000000
_cell_angle_beta 90.000000
_cell_angle_gamma 90.000000
_cell_volume 5350.184838
_symmetry_space_group_name_H-M "I M M M"
_symmetry_group_IT_number 71
_symmetry_cell_setting 'orthorhombic'
loop_
_space_group_symop_operation_xyz
x,y,z
-x,-y,z
x,-y,-z
-x,y,-z
-x,-y,-z
x,y,-z
-x,y,z
x,-y,z
1/2+x,1/2+y,1/2+z
1/2-x,1/2-y,1/2+z
1/2+x,1/2-y,1/2-z
1/2-x,1/2+y,1/2-z
1/2-x,1/2-y,1/2-z
1/2+x,1/2+y,1/2-z
1/2-x,1/2+y,1/2+z
1/2+x,1/2-y,1/2+z
loop_
_atom_site_type_symbol
_atom_site_label
_atom_site_fract_x
_atom_site_fract_y
_atom_site_fract_z
Si Si1 0.394227 0.000000 0.436364
Si Si2 0.717358 0.099453 0.167748
Si Si3 0.404070 0.500000 0.564893
Si Si4 0.898012 0.287516 0.752051
Si Si5 0.213699 0.167353 0.935659
Si Si6 0.895069 0.681623 0.882593
Si Si7 0.100907 0.903752 0.228363
O O1 0.363219 0.083832 0.399681
O O2 0.500000 0.000000 0.442655
O O3 0.352407 0.000000 0.500000
O O4 0.666254 0.150224 0.216866
O O5 0.703668 0.152574 0.108479
O O6 0.824221 0.097721 0.179991
O O7 0.679000 0.000000 0.163647
O O8 0.500000 0.500000 0.597649
O O9 0.425880 0.500000 0.500000
O O10 0.349535 0.586273 0.580309
O O11 0.871161 0.298477 0.817665
O O12 0.884756 0.184304 0.733294
O O13 0.000000 0.318579 0.741999
O O14 0.160259 0.256580 0.924624
O O15 0.249162 0.165727 0.000000
O O16 0.000000 0.696215 0.894351
O O17 0.000000 0.895258 0.201975
O O18 0.108490 0.000000 0.260541
#
# Coordination Sequence:
#
# PCOD8290158 Si02
#       7
#     8  16   8  16  16  16  16
#     4   9  18  32  47  66  98 140 179 214 257 313
#     4  11  22  35  53  77 109 147 182 229 278 322
#     4   9  18  30  45  70 101 131 170 213 254 316
#     4  10  21  36  55  79 107 140 185 232 276 326
#     4  11  21  33  50  74 104 142 178 217 272 332
#     4  10  20  33  51  75 103 138 178 224 270 324
#     4   9  18  33  53  78 108 139 168 208 267 330
#
# _framework density 17.943306
#
# number of rings (size 3 to 8) (size 9 to 14) (size 15 to 20)
#    0.000    2.000    2.500    1.500    1.167    2.667 
#    0.000    0.000    0.000    0.500    0.000    1.167 
#    0.000    0.000    0.000    4.167    0.000    0.333 
#
# Total GULP energy -594632.842500 kJ/mol
# GULP energy per Si atom -12388.184219 kJ/mol
# Density = 1.790247 g / cm^3
# Si number density = 17.943306 Si / 1000 Ang^3
#
#
#
# Elastic Constant Matrix: (Units=GPa)
#
#
# Indices 1 2 3 4 5 6 
#
# 1 37.8106 23.9613 28.8945 0.0000 0.0000 0.0000
# 2 23.9613 151.6438 45.5874 0.0000 0.0000 0.0000
# 3 28.8945 45.5874 87.7298 0.0000 0.0000 0.0000
# 4 0.0000 0.0000 0.0000 24.1055 0.0000 0.0000
# 5 0.0000 0.0000 0.0000 0.0000 14.2224 0.0000
# 6 0.0000 0.0000 0.0000 0.0000 0.0000 20.3653
#
#
#
# Elastic Compliance Matrix: (Units=1/GPa)
#
#
# Indices 1 2 3 4 5 6 
#
# 1 0.036142 -0.002527 -0.010591 0.000000 0.000000 0.000000
# 2 -0.002527 0.007992 -0.003321 0.000000 0.000000 0.000000
# 3 -0.010591 -0.003321 0.016612 0.000000 0.000000 0.000000
# 4 0.000000 0.000000 0.000000 0.041484 0.000000 0.000000
# 5 0.000000 0.000000 0.000000 0.000000 0.070312 0.000000
# 6 0.000000 0.000000 0.000000 0.000000 0.000000 0.049103
#
#
# Mechanical properties :
#
#
# Convention : Reuss Voigt Hill
#
# Bulk Modulus (GPa) = 35.88095 52.67451 44.27773
# Shear Modulus (GPa) = 18.95288 23.65471 21.30380
#
# Velocity S-wave (km/s) = 3.25355 3.63478 3.44944
# Velocity P-wave (km/s) = 5.84417 6.85823 6.37141
#
# Compressibility (1/GPa) = 0.02786994
#
# Stress axis : x y z
#
# Youngs Moduli (GPa) = 27.66844 125.12605 60.19674
#
# Poissons Ratio (x) = 0.31621 0.63752
# Poissons Ratio (y) = 0.06992 0.19989
# Poissons Ratio (z) = 0.29302 0.41549
#
# Static dielectric constant tensor:
#      x y z
#    x 3.027830 0.000000 0.000000 
#    y 0.000000 3.746510 0.000000 
#    z 0.000000 0.000000 3.145550 
# 
# 
# High freq. dielectric constant tensor:
#      x y z
#    x 1.648490 0.000000 0.000000 
#    y 0.000000 1.719490 0.000000 
#    z 0.000000 0.000000 1.673440 
# 
# From -- ./inp_files/34772.got.cif
#   From: 2010.06.25/outbox.cif.g09.slc.cpg/sg71_18_cif.got.tgz:34772.got - 2010.06.28 04:59:45.
