data_PCOD8290874
_publ_section_title
;
Structure prediction by ZEFSAII (Michael W. Deem and Ramdas Pophale) SiO2 
 PCOD8290874
Probable space group: I M M M
;
_chemical_formula_sum "Si O2"
_cell_formula_units_Z 96
_cell_length_a 11.990428
_cell_length_b 17.867903
_cell_length_c 22.709010
_cell_angle_alpha 90.000000
_cell_angle_beta 90.000000
_cell_angle_gamma 90.000000
_cell_volume 4865.264697
_symmetry_space_group_name_H-M "I M M M"
_symmetry_group_IT_number 71
_symmetry_cell_setting 'orthorhombic'
loop_
_space_group_symop_operation_xyz
x,y,z
-x,-y,z
x,-y,-z
-x,y,-z
-x,-y,-z
x,y,-z
-x,y,z
x,-y,z
1/2+x,1/2+y,1/2+z
1/2-x,1/2-y,1/2+z
1/2+x,1/2-y,1/2-z
1/2-x,1/2+y,1/2-z
1/2-x,1/2-y,1/2-z
1/2+x,1/2+y,1/2-z
1/2-x,1/2+y,1/2+z
1/2+x,1/2-y,1/2+z
loop_
_atom_site_type_symbol
_atom_site_label
_atom_site_fract_x
_atom_site_fract_y
_atom_site_fract_z
Si Si1 0.000000 0.912974 0.717070
Si Si2 0.624182 0.162872 0.433794
Si Si3 0.500000 0.588475 0.649468
Si Si4 0.874416 0.415079 0.258430
Si Si5 0.216265 0.157655 0.330876
Si Si6 0.126008 0.313896 0.634056
Si Si7 0.667524 0.334349 0.434431
O O1 0.106292 0.890750 0.678531
O O2 0.000000 0.877781 0.783585
O O3 0.000000 0.000000 0.725994
O O4 0.656859 0.138150 0.500000
O O5 0.500000 0.132076 0.417700
O O6 0.719713 0.131379 0.390435
O O7 0.616640 0.252154 0.429261
O O8 0.500000 0.500000 0.651625
O O9 0.610036 0.614734 0.614976
O O10 0.826829 0.500000 0.255917
O O11 0.800405 0.357118 0.222283
O O12 0.873500 0.387137 0.325355
O O13 0.000000 0.412937 0.233324
O O14 0.182511 0.244494 0.331663
O O15 0.199256 0.332443 0.576590
O O16 0.000000 0.293222 0.614644
O O17 0.646307 0.366825 0.500000
#
# Coordination Sequence:
#
# PCOD8290874 Si02
#       7
#     8  16   8  16  16  16  16
#     4  11  24  39  57  83 122 161 191 232 291 352
#     4   9  18  35  59  85 112 142 184 242 300 342
#     4  11  23  38  57  83 118 158 197 241 290 344
#     4  10  21  36  55  79 111 152 193 240 297 351
#     4  11  20  36  57  85 114 149 197 239 286 346
#     4  10  21  37  55  83 116 149 196 241 290 343
#     4  10  20  35  56  81 113 151 190 238 291 341
#
# _framework density 19.731711000000001
#
# number of rings (size 3 to 8) (size 9 to 14) (size 15 to 20)
#    0.000    1.833    1.667    2.750    0.000    4.333 
#    0.000    0.417    0.000    2.500    0.000    9.333 
#    0.000    0.000    0.000    0.000    0.000    0.000 
#
# Total GULP energy -595066.592217 kJ/mol
# GULP energy per Si atom -12397.220671 kJ/mol
# Density = 1.968680 g / cm^3
# Si number density = 19.731711 Si / 1000 Ang^3
#
#
#
# Elastic Constant Matrix: (Units=GPa)
#
#
# Indices 1 2 3 4 5 6 
#
# 1 148.8900 30.5442 70.8419 0.0000 0.0000 0.0000
# 2 30.5442 51.9800 25.0644 0.0000 0.0000 0.0000
# 3 70.8419 25.0644 115.0843 0.0000 0.0000 0.0000
# 4 0.0000 0.0000 0.0000 15.7391 0.0000 0.0000
# 5 0.0000 0.0000 0.0000 0.0000 40.9839 0.0000
# 6 0.0000 0.0000 0.0000 0.0000 0.0000 20.1386
#
#
#
# Elastic Compliance Matrix: (Units=1/GPa)
#
#
# Indices 1 2 3 4 5 6 
#
# 1 0.009963 -0.003237 -0.005428 0.000000 0.000000 0.000000
# 2 -0.003237 0.022547 -0.002918 0.000000 0.000000 0.000000
# 3 -0.005428 -0.002918 0.012666 0.000000 0.000000 0.000000
# 4 0.000000 0.000000 0.000000 0.063536 0.000000 0.000000
# 5 0.000000 0.000000 0.000000 0.000000 0.024400 0.000000
# 6 0.000000 0.000000 0.000000 0.000000 0.000000 0.049656
#
#
# Mechanical properties :
#
#
# Convention : Reuss Voigt Hill
#
# Bulk Modulus (GPa) = 45.43295 63.20613 54.31954
# Shear Modulus (GPa) = 23.44435 28.00591 25.72513
#
# Velocity S-wave (km/s) = 3.45070 3.77149 3.61466
# Velocity P-wave (km/s) = 6.24114 7.14618 6.70894
#
# Compressibility (1/GPa) = 0.02201046
#
# Stress axis : x y z
#
# Youngs Moduli (GPa) = 100.37101 44.35109 78.95150
#
# Poissons Ratio (x) = 0.14357 0.42854
# Poissons Ratio (y) = 0.32491 0.23038
# Poissons Ratio (z) = 0.54480 0.12941
#
# Static dielectric constant tensor:
#      x y z
#    x 3.836410 0.000000 0.000000 
#    y 0.000000 3.319840 0.000000 
#    z 0.000000 0.000000 3.619910 
# 
# 
# High freq. dielectric constant tensor:
#      x y z
#    x 1.786130 0.000000 0.000000 
#    y 0.000000 1.743630 0.000000 
#    z 0.000000 0.000000 1.760380 
# 
# From -- ./inp_files/24252.got.cif
#   From: 2010.06.25/outbox.cif.g09.slc.cpg/sg71_13_cif.got.tgz:24252.got - 2010.06.28 04:59:45.
