data_PCOD8290856
_publ_section_title
;
Structure prediction by ZEFSAII (Michael W. Deem and Ramdas Pophale) SiO2 
 PCOD8290856
Probable space group: I M M M
;
_chemical_formula_sum "Si O2"
_cell_formula_units_Z 80
_cell_length_a 29.867853
_cell_length_b 18.632644
_cell_length_c 7.770271
_cell_angle_alpha 90.000000
_cell_angle_beta 90.000000
_cell_angle_gamma 90.000000
_cell_volume 4324.288466
_symmetry_space_group_name_H-M "I M M M"
_symmetry_group_IT_number 71
_symmetry_cell_setting 'orthorhombic'
loop_
_space_group_symop_operation_xyz
x,y,z
-x,-y,z
x,-y,-z
-x,y,-z
-x,-y,-z
x,y,-z
-x,y,z
x,-y,z
1/2+x,1/2+y,1/2+z
1/2-x,1/2-y,1/2+z
1/2+x,1/2-y,1/2-z
1/2-x,1/2+y,1/2-z
1/2-x,1/2-y,1/2-z
1/2+x,1/2+y,1/2-z
1/2-x,1/2+y,1/2+z
1/2+x,1/2-y,1/2+z
loop_
_atom_site_type_symbol
_atom_site_label
_atom_site_fract_x
_atom_site_fract_y
_atom_site_fract_z
Si Si1 0.948491 0.701694 0.198273
Si Si2 0.309661 0.585093 0.312724
Si Si3 0.783987 0.414664 0.809213
Si Si4 0.551364 0.689366 0.000000
Si Si5 0.869454 0.914582 0.500000
Si Si6 0.381030 0.079672 0.295415
O O1 0.937799 0.766900 0.326013
O O2 0.919345 0.634340 0.263177
O O3 0.000000 0.678107 0.215127
O O4 0.937310 0.723498 0.000000
O O5 0.328029 0.608780 0.500000
O O6 0.308157 0.500000 0.294841
O O7 0.258746 0.614895 0.296099
O O8 0.342601 0.614781 0.166264
O O9 0.782666 0.500000 0.818304
O O10 0.832202 0.393027 0.726398
O O11 0.779467 0.382081 0.000000
O O12 0.581190 0.618263 0.000000
O O13 0.500000 0.664200 0.000000
O O14 0.874638 0.000000 0.500000
O O15 0.377938 0.075578 0.500000
O O16 0.392297 0.000000 0.222659
#
# Coordination Sequence:
#
# PCOD8290856 Si02
#       6
#    16  16  16   8   8  16
#     4   9  18  34  54  74  99 137 177 209 249 300
#     4   9  16  27  46  74 103 129 159 195 241 302
#     4   8  12  22  41  67 102 136 166 201 239 282
#     4  10  22  39  57  76  98 127 167 207 251 317
#     4  10  20  35  56  79 101 124 155 207 263 303
#     4   8  14  25  46  77 106 137 176 216 252 280
#
# _framework density 18.500152
#
# number of rings (size 3 to 8) (size 9 to 14) (size 15 to 20)
#    0.000    3.200    1.000    1.200    0.000    1.400 
#    1.800    2.500    0.000    3.000    0.000    5.600 
#    0.000    0.000    0.000    0.000    0.000    0.000 
#
# Total GULP energy -495606.764113 kJ/mol
# GULP energy per Si atom -12390.169103 kJ/mol
# Density = 1.845805 g / cm^3
# Si number density = 18.500152 Si / 1000 Ang^3
#
#
#
# Elastic Constant Matrix: (Units=GPa)
#
#
# Indices 1 2 3 4 5 6 
#
# 1 128.0211 51.5818 50.8868 0.0000 0.0000 0.0000
# 2 51.5818 43.0403 26.7645 0.0000 0.0000 0.0000
# 3 50.8868 26.7645 102.9464 0.0000 0.0000 0.0000
# 4 0.0000 0.0000 0.0000 10.1951 0.0000 0.0000
# 5 0.0000 0.0000 0.0000 0.0000 11.7052 0.0000
# 6 0.0000 0.0000 0.0000 0.0000 0.0000 11.9004
#
#
#
# Elastic Compliance Matrix: (Units=1/GPa)
#
#
# Indices 1 2 3 4 5 6 
#
# 1 0.016102 -0.017115 -0.003510 0.000000 0.000000 0.000000
# 2 -0.017115 0.045907 -0.003475 0.000000 0.000000 0.000000
# 3 -0.003510 -0.003475 0.012352 0.000000 0.000000 0.000000
# 4 0.000000 0.000000 0.000000 0.098086 0.000000 0.000000
# 5 0.000000 0.000000 0.000000 0.000000 0.085432 0.000000
# 6 0.000000 0.000000 0.000000 0.000000 0.000000 0.084031
#
#
# Mechanical properties :
#
#
# Convention : Reuss Voigt Hill
#
# Bulk Modulus (GPa) = 38.22440 59.16379 48.69410
# Shear Modulus (GPa) = 12.53666 16.41180 14.47423
#
# Velocity S-wave (km/s) = 2.60600 2.98168 2.80015
# Velocity P-wave (km/s) = 5.45541 6.62597 6.06898
#
# Compressibility (1/GPa) = 0.02616130
#
# Stress axis : x y z
#
# Youngs Moduli (GPa) = 62.10275 21.78325 80.95811
#
# Poissons Ratio (x) = 0.37283 0.28414
# Poissons Ratio (y) = 1.06291 0.28132
# Poissons Ratio (z) = 0.21796 0.07569
#
# Static dielectric constant tensor:
#      x y z
#    x 3.609270 0.000000 0.000000 
#    y 0.000000 2.848360 0.000000 
#    z 0.000000 0.000000 3.471910 
# 
# 
# High freq. dielectric constant tensor:
#      x y z
#    x 1.725620 0.000000 0.000000 
#    y 0.000000 1.653940 0.000000 
#    z 0.000000 0.000000 1.715660 
# 
# From -- ./inp_files/14579.got.cif
#   From: 2010.06.25/outbox.cif.g09.slc.cpg/sg71_8_cif.got.tgz:14579.got - 2010.06.28 04:59:45.
