data_PCOD8290230
_publ_section_title
;
Structure prediction by ZEFSAII (Michael W. Deem and Ramdas Pophale) SiO2 
 PCOD8290230
Probable space group: I M M M
;
_chemical_formula_sum "Si O2"
_cell_formula_units_Z 88
_cell_length_a 8.805395
_cell_length_b 27.536851
_cell_length_c 19.046572
_cell_angle_alpha 90.000000
_cell_angle_beta 90.000000
_cell_angle_gamma 90.000000
_cell_volume 4618.276598
_symmetry_space_group_name_H-M "I M M M"
_symmetry_group_IT_number 71
_symmetry_cell_setting 'orthorhombic'
loop_
_space_group_symop_operation_xyz
x,y,z
-x,-y,z
x,-y,-z
-x,y,-z
-x,-y,-z
x,y,-z
-x,y,z
x,-y,z
1/2+x,1/2+y,1/2+z
1/2-x,1/2-y,1/2+z
1/2+x,1/2-y,1/2-z
1/2-x,1/2+y,1/2-z
1/2-x,1/2-y,1/2-z
1/2+x,1/2+y,1/2-z
1/2-x,1/2+y,1/2+z
1/2+x,1/2-y,1/2+z
loop_
_atom_site_type_symbol
_atom_site_label
_atom_site_fract_x
_atom_site_fract_y
_atom_site_fract_z
Si Si1 0.319135 0.227610 0.079909
Si Si2 0.822671 0.445262 0.719535
Si Si3 0.672823 0.582842 0.139956
Si Si4 0.834865 0.444411 0.000000
Si Si5 0.171898 0.809787 0.681988
Si Si6 0.181043 0.848961 0.172118
O O1 0.500000 0.225146 0.083718
O O2 0.250249 0.268380 0.133371
O O3 0.248757 0.175973 0.102824
O O4 0.267409 0.238837 0.000000
O O5 0.785789 0.500000 0.692421
O O6 0.774995 0.441569 0.800519
O O7 0.733658 0.405118 0.673796
O O8 0.000000 0.434191 0.713360
O O9 0.500000 0.565342 0.151181
O O10 0.682684 0.640714 0.139321
O O11 0.733043 0.567364 0.065834
O O12 0.873414 0.500000 0.000000
O O13 0.000000 0.417087 0.000000
O O14 0.244697 0.818978 0.759409
O O15 0.000000 0.793335 0.694037
O O16 0.000000 0.848972 0.171686
#
# Coordination Sequence:
#
# PCOD8290230 Si02
#       6
#    16  16  16   8  16  16
#     4  10  20  34  55  79 107 144 182 219 266 323
#     4  10  20  35  56  80 106 136 173 218 268 324
#     4  10  20  33  52  76 103 136 180 228 271 318
#     4  11  23  35  45  63  99 145 187 227 274 323
#     4   8  17  33  53  78 104 138 180 220 265 315
#     4  10  20  35  55  80 111 142 178 224 267 315
#
# _framework density 19.054727
#
# number of rings (size 3 to 8) (size 9 to 14) (size 15 to 20)
#    0.000    2.273    0.000    4.091    1.273    4.727 
#    0.000    4.545    0.000    0.545    0.000    3.818 
#    0.000    0.000    0.000    0.000    0.000    0.000 
#
# Total GULP energy -545377.770546 kJ/mol
# GULP energy per Si atom -12394.949331 kJ/mol
# Density = 1.901136 g / cm^3
# Si number density = 19.054727 Si / 1000 Ang^3
#
#
#
# Elastic Constant Matrix: (Units=GPa)
#
#
# Indices 1 2 3 4 5 6 
#
# 1 52.1097 36.1449 27.2761 0.0000 0.0000 0.0000
# 2 36.1449 97.0985 45.4928 0.0000 0.0000 0.0000
# 3 27.2761 45.4928 64.1667 -0.0002 -0.0001 0.0000
# 4 0.0000 0.0000 -0.0002 19.9464 0.0000 0.0000
# 5 0.0000 0.0000 -0.0001 0.0000 29.6534 0.0000
# 6 0.0000 0.0000 0.0000 0.0000 0.0000 26.4183
#
#
#
# Elastic Compliance Matrix: (Units=1/GPa)
#
#
# Indices 1 2 3 4 5 6 
#
# 1 0.027656 -0.007168 -0.006674 0.000000 0.000000 0.000000
# 2 -0.007168 0.017279 -0.009204 0.000000 0.000000 0.000000
# 3 -0.006674 -0.009204 0.024947 0.000000 0.000000 0.000000
# 4 0.000000 0.000000 0.000000 0.050134 0.000000 0.000000
# 5 0.000000 0.000000 0.000000 0.000000 0.033723 0.000000
# 6 0.000000 0.000000 0.000000 0.000000 0.000000 0.037853
#
#
# Mechanical properties :
#
#
# Convention : Reuss Voigt Hill
#
# Bulk Modulus (GPa) = 42.03391 47.91136 44.97264
# Shear Modulus (GPa) = 20.35728 22.16769 21.26248
#
# Velocity S-wave (km/s) = 3.27212 3.41452 3.34408
# Velocity P-wave (km/s) = 6.03185 6.38310 6.20996
#
# Compressibility (1/GPa) = 0.02379032
#
# Stress axis : x y z
#
# Youngs Moduli (GPa) = 36.15910 57.87319 40.08564
#
# Poissons Ratio (x) = 0.41483 0.26753
# Poissons Ratio (y) = 0.25918 0.36893
# Poissons Ratio (z) = 0.24133 0.53264
#
# Static dielectric constant tensor:
#      x y z
#    x 3.375930 0.000000 0.000000 
#    y 0.000000 3.622850 0.000000 
#    z 0.000000 0.000000 3.470040 
# 
# 
# High freq. dielectric constant tensor:
#      x y z
#    x 1.732650 0.000000 0.000000 
#    y 0.000000 1.745390 0.000000 
#    z 0.000000 0.000000 1.719730 
# 
# From -- ./inp_files/10937.got.cif
#   From: 2010.06.25/outbox.cif.g09.slc.cpg/sg71_6_cif.got.tgz:10937.got - 2010.06.28 04:59:45.
