data_PCOD8290545
_publ_section_title
;
Structure prediction by ZEFSAII (Michael W. Deem and Ramdas Pophale) SiO2 
 PCOD8290545
Probable space group: I M M M
;
_chemical_formula_sum "Si O2"
_cell_formula_units_Z 96
_cell_length_a 16.859244
_cell_length_b 24.355734
_cell_length_c 13.092983
_cell_angle_alpha 90.000000
_cell_angle_beta 90.000000
_cell_angle_gamma 90.000000
_cell_volume 5376.231021
_symmetry_space_group_name_H-M "I M M M"
_symmetry_group_IT_number 71
_symmetry_cell_setting 'orthorhombic'
loop_
_space_group_symop_operation_xyz
x,y,z
-x,-y,z
x,-y,-z
-x,y,-z
-x,-y,-z
x,y,-z
-x,y,z
x,-y,z
1/2+x,1/2+y,1/2+z
1/2-x,1/2-y,1/2+z
1/2+x,1/2-y,1/2-z
1/2-x,1/2+y,1/2-z
1/2-x,1/2-y,1/2-z
1/2+x,1/2+y,1/2-z
1/2-x,1/2+y,1/2+z
1/2+x,1/2-y,1/2+z
loop_
_atom_site_type_symbol
_atom_site_label
_atom_site_fract_x
_atom_site_fract_y
_atom_site_fract_z
Si Si1 0.909598 0.239881 0.879808
Si Si2 0.592791 0.439406 0.385936
Si Si3 0.911085 0.562590 0.813867
Si Si4 0.191231 0.343189 0.115189
Si Si5 0.305037 0.357420 0.703827
Si Si6 0.322392 0.062274 0.114181
O O1 0.874309 0.299039 0.847916
O O2 0.843502 0.197339 0.841479
O O3 0.000000 0.232698 0.834595
O O4 0.916120 0.233960 0.000000
O O5 0.617255 0.417654 0.500000
O O6 0.500000 0.440677 0.377137
O O7 0.628130 0.500000 0.371147
O O8 0.623457 0.401281 0.293628
O O9 0.899935 0.500000 0.848672
O O10 0.850083 0.597594 0.880793
O O11 0.894241 0.569956 0.693280
O O12 0.000000 0.582847 0.835497
O O13 0.269309 0.342583 0.186005
O O14 0.219976 0.331034 0.000000
O O15 0.240913 0.388976 0.632997
O O16 0.286601 0.000000 0.127213
O O17 0.356096 0.069712 0.000000
#
# Coordination Sequence:
#
# PCOD8290545 Si02
#       6
#    16  16  16  16  16  16
#     4  10  20  34  54  77  97 119 151 194 244 293
#     4   9  17  29  48  77 109 134 156 190 239 289
#     4   9  18  32  50  71  93 122 163 205 243 284
#     4  10  22  37  50  68  96 128 162 202 243 278
#     4  11  19  30  50  74  98 127 162 197 232 282
#     4   9  17  28  44  70 104 135 157 186 235 291
#
# _framework density 17.856375
#
# number of rings (size 3 to 8) (size 9 to 14) (size 15 to 20)
#    0.000    2.333    0.000    4.000    0.000    5.000 
#    0.000    2.500    0.000    2.000    0.000    1.167 
#    0.000    0.000    0.000    0.000    0.000    0.000 
#
# Total GULP energy -594662.643190 kJ/mol
# GULP energy per Si atom -12388.805066 kJ/mol
# Density = 1.781573 g / cm^3
# Si number density = 17.856375 Si / 1000 Ang^3
#
#
#
# Elastic Constant Matrix: (Units=GPa)
#
#
# Indices 1 2 3 4 5 6 
#
# 1 75.8869 43.7871 32.6090 0.0000 0.0000 0.0000
# 2 43.7871 90.8553 29.4065 -0.0001 0.0000 0.0000
# 3 32.6090 29.4065 58.2667 -0.0002 -0.0001 0.0000
# 4 0.0000 -0.0001 -0.0002 20.8252 0.0000 0.0000
# 5 0.0000 0.0000 -0.0001 0.0000 24.7128 0.0000
# 6 0.0000 0.0000 0.0000 0.0000 0.0000 32.5653
#
#
#
# Elastic Compliance Matrix: (Units=1/GPa)
#
#
# Indices 1 2 3 4 5 6 
#
# 1 0.020916 -0.007520 -0.007910 0.000000 0.000000 0.000000
# 2 -0.007520 0.015859 -0.003795 0.000000 0.000000 0.000000
# 3 -0.007910 -0.003795 0.023505 0.000000 0.000000 0.000000
# 4 0.000000 0.000000 0.000000 0.048019 0.000000 0.000000
# 5 0.000000 0.000000 0.000000 0.000000 0.040465 0.000000
# 6 0.000000 0.000000 0.000000 0.000000 0.000000 0.030708
#
#
# Mechanical properties :
#
#
# Convention : Reuss Voigt Hill
#
# Bulk Modulus (GPa) = 45.81144 48.51267 47.16205
# Shear Modulus (GPa) = 22.20270 23.56776 22.88523
#
# Velocity S-wave (km/s) = 3.53002 3.63692 3.58387
# Velocity P-wave (km/s) = 6.50584 6.69802 6.60263
#
# Compressibility (1/GPa) = 0.02182861
#
# Stress axis : x y z
#
# Youngs Moduli (GPa) = 47.81125 63.05535 42.54424
#
# Poissons Ratio (x) = 0.47417 0.33654
# Poissons Ratio (y) = 0.35953 0.16147
# Poissons Ratio (z) = 0.37820 0.23932
#
# Static dielectric constant tensor:
#      x y z
#    x 3.365540 0.000000 0.000000 
#    y 0.000000 3.564080 0.000000 
#    z 0.000000 0.000000 3.133900 
# 
# 
# High freq. dielectric constant tensor:
#      x y z
#    x 1.688820 0.000000 0.000000 
#    y 0.000000 1.703870 0.000000 
#    z 0.000000 0.000000 1.658180 
# 
# From -- ./inp_files/24234.got.cif
#   From: 2010.06.25/outbox.cif.g09.slc.cpg/sg71_13_cif.got.tgz:24234.got - 2010.06.28 04:59:45.
