data_PCOD8290268
_publ_section_title
;
Structure prediction by ZEFSAII (Michael W. Deem and Ramdas Pophale) SiO2 
 PCOD8290268
Probable space group: I M M M
;
_chemical_formula_sum "Si O2"
_cell_formula_units_Z 104
_cell_length_a 8.969207
_cell_length_b 27.922817
_cell_length_c 23.897594
_cell_angle_alpha 90.000000
_cell_angle_beta 90.000000
_cell_angle_gamma 90.000000
_cell_volume 5985.045492
_symmetry_space_group_name_H-M "I M M M"
_symmetry_group_IT_number 71
_symmetry_cell_setting 'orthorhombic'
loop_
_space_group_symop_operation_xyz
x,y,z
-x,-y,z
x,-y,-z
-x,y,-z
-x,-y,-z
x,y,-z
-x,y,z
x,-y,z
1/2+x,1/2+y,1/2+z
1/2-x,1/2-y,1/2+z
1/2+x,1/2-y,1/2-z
1/2-x,1/2+y,1/2-z
1/2-x,1/2-y,1/2-z
1/2+x,1/2+y,1/2-z
1/2-x,1/2+y,1/2+z
1/2+x,1/2-y,1/2+z
loop_
_atom_site_type_symbol
_atom_site_label
_atom_site_fract_x
_atom_site_fract_y
_atom_site_fract_z
Si Si1 0.674775 0.825638 0.564709
Si Si2 0.173557 0.055234 0.853603
Si Si3 0.335491 0.281160 0.566335
Si Si4 0.170302 0.625831 0.433907
Si Si5 0.677138 0.500000 0.062599
Si Si6 0.175432 0.555276 0.760893
Si Si7 0.676656 0.591279 0.868615
O O1 0.718545 0.833433 0.500000
O O2 0.500000 0.835824 0.573600
O O3 0.715851 0.771849 0.585038
O O4 0.773885 0.859977 0.602413
O O5 0.228977 0.085173 0.906464
O O6 0.261707 0.072230 0.798675
O O7 0.000000 0.064372 0.843423
O O8 0.207591 0.000000 0.867015
O O9 0.344865 0.281049 0.500000
O O10 0.500000 0.292621 0.590752
O O11 0.221316 0.321634 0.587575
O O12 0.192475 0.621228 0.500000
O O13 0.000000 0.618470 0.416022
O O14 0.500000 0.500000 0.060447
O O15 0.736088 0.453023 0.094275
O O16 0.744008 0.500000 0.000000
O O17 0.218908 0.500000 0.771888
O O18 0.250523 0.588228 0.807665
O O19 0.000000 0.563367 0.761624
O O20 0.500000 0.590153 0.862230
#
# Coordination Sequence:
#
# PCOD8290268 Si02
#       7
#    16  16  16  16   8  16  16
#     4   9  18  32  49  72 102 134 171 215 261 306
#     4  10  21  36  55  78 104 135 172 209 246 295
#     4   8  15  30  51  72  98 134 172 209 249 298
#     4  10  20  33  52  80 111 139 167 202 247 298
#     4   9  18  30  43  65  99 135 168 207 256 303
#     4  10  20  35  54  73  97 130 172 216 258 302
#     4  11  20  31  49  71 100 135 173 215 257 307
#
# _framework density 17.376643999999999
#
# number of rings (size 3 to 8) (size 9 to 14) (size 15 to 20)
#    0.000    2.385    0.769    3.231    0.000    4.308 
#    0.000    3.077    0.000    2.769    0.000    0.000 
#    0.000    0.000    0.000    0.000    0.000    0.000 
#
# Total GULP energy -644853.314153 kJ/mol
# GULP energy per Si atom -12401.025272 kJ/mol
# Density = 1.733709 g / cm^3
# Si number density = 17.376644 Si / 1000 Ang^3
#
#
#
# Elastic Constant Matrix: (Units=GPa)
#
#
# Indices 1 2 3 4 5 6 
#
# 1 80.1523 46.4691 39.1789 0.0000 0.0000 0.0000
# 2 46.4691 102.9614 46.4440 0.0000 0.0000 0.0000
# 3 39.1789 46.4440 67.0152 -0.0001 0.0000 0.0000
# 4 0.0000 0.0000 -0.0001 10.8306 0.0000 0.0000
# 5 0.0000 0.0000 0.0000 0.0000 29.2799 0.0000
# 6 0.0000 0.0000 0.0000 0.0000 0.0000 30.0570
#
#
#
# Elastic Compliance Matrix: (Units=1/GPa)
#
#
# Indices 1 2 3 4 5 6 
#
# 1 0.019240 -0.005251 -0.007609 0.000000 0.000000 0.000000
# 2 -0.005251 0.015563 -0.007716 0.000000 0.000000 0.000000
# 3 -0.007609 -0.007716 0.024718 0.000000 0.000000 0.000000
# 4 0.000000 0.000000 0.000000 0.092331 0.000000 0.000000
# 5 0.000000 0.000000 0.000000 0.000000 0.034153 0.000000
# 6 0.000000 0.000000 0.000000 0.000000 0.000000 0.033270
#
#
# Mechanical properties :
#
#
# Convention : Reuss Voigt Hill
#
# Bulk Modulus (GPa) = 54.43995 57.14588 55.79291
# Shear Modulus (GPa) = 18.75831 21.90264 20.33047
#
# Velocity S-wave (km/s) = 3.28916 3.55415 3.42422
# Velocity P-wave (km/s) = 6.76921 7.05696 6.91458
#
# Compressibility (1/GPa) = 0.01836886
#
# Stress axis : x y z
#
# Youngs Moduli (GPa) = 51.97507 64.25599 40.45716
#
# Poissons Ratio (x) = 0.33743 0.30783
# Poissons Ratio (y) = 0.27294 0.31215
# Poissons Ratio (z) = 0.39547 0.49577
#
# Static dielectric constant tensor:
#      x y z
#    x 3.235270 0.000000 0.000000 
#    y 0.000000 3.314020 0.000000 
#    z 0.000000 0.000000 3.051280 
# 
# 
# High freq. dielectric constant tensor:
#      x y z
#    x 1.674480 0.000000 0.000000 
#    y 0.000000 1.668220 0.000000 
#    z 0.000000 0.000000 1.650360 
# 
# From -- ./inp_files/15250.got.cif
#   From: 2010.06.25/outbox.cif.g09.slc.cpg/sg71_8_cif.got.tgz:15250.got - 2010.06.28 04:59:45.
