data_PCOD8290562
_publ_section_title
;
Structure prediction by ZEFSAII (Michael W. Deem and Ramdas Pophale) SiO2 
 PCOD8290562
Probable space group: I M M M
;
_chemical_formula_sum "Si O2"
_cell_formula_units_Z 96
_cell_length_a 28.030301
_cell_length_b 8.771904
_cell_length_c 20.268214
_cell_angle_alpha 90.000000
_cell_angle_beta 90.000000
_cell_angle_gamma 90.000000
_cell_volume 4983.530409
_symmetry_space_group_name_H-M "I M M M"
_symmetry_group_IT_number 71
_symmetry_cell_setting 'orthorhombic'
loop_
_space_group_symop_operation_xyz
x,y,z
-x,-y,z
x,-y,-z
-x,y,-z
-x,-y,-z
x,y,-z
-x,y,z
x,-y,z
1/2+x,1/2+y,1/2+z
1/2-x,1/2-y,1/2+z
1/2+x,1/2-y,1/2-z
1/2-x,1/2+y,1/2-z
1/2-x,1/2-y,1/2-z
1/2+x,1/2+y,1/2-z
1/2-x,1/2+y,1/2+z
1/2+x,1/2-y,1/2+z
loop_
_atom_site_type_symbol
_atom_site_label
_atom_site_fract_x
_atom_site_fract_y
_atom_site_fract_z
Si Si1 0.277859 0.819325 0.810949
Si Si2 0.381696 0.323202 0.424041
Si Si3 0.444956 0.179060 0.681440
Si Si4 0.614020 0.818828 0.192845
Si Si5 0.217714 0.321409 0.076335
Si Si6 0.446533 0.818556 0.072810
O O1 0.250000 0.750000 0.750000
O O2 0.331964 0.759726 0.805263
O O3 0.257033 0.764375 0.880550
O O4 0.274968 0.000000 0.807337
O O5 0.393608 0.290247 0.500000
O O6 0.371941 0.500000 0.410831
O O7 0.427096 0.265948 0.383378
O O8 0.334753 0.231688 0.401428
O O9 0.500000 0.219921 0.693777
O O10 0.414507 0.240122 0.743360
O O11 0.437762 0.000000 0.670663
O O12 0.589034 0.749936 0.127443
O O13 0.612197 0.000000 0.190572
O O14 0.221682 0.500000 0.089535
O O15 0.226981 0.279055 0.000000
O O16 0.500000 0.759544 0.087469
O O17 0.446236 0.000000 0.075843
O O18 0.429962 0.763793 0.000000
#
# Coordination Sequence:
#
# PCOD8290562 Si02
#       6
#    16  16  16  16  16  16
#     4  11  22  35  54  79 109 145 184 227 273 323
#     4  10  21  37  57  80 106 137 175 221 272 326
#     4  10  20  34  54  79 108 143 181 221 266 319
#     4   9  18  31  47  71 103 137 174 216 259 305
#     4  10  21  38  59  81 108 142 180 225 278 336
#     4   8  13  23  42  68  98 131 164 200 246 298
#
# _framework density 19.263451
#
# number of rings (size 3 to 8) (size 9 to 14) (size 15 to 20)
#    0.000    2.333    0.000    3.500    0.000    6.667 
#    0.000    4.167    0.000    0.000    0.000    0.000 
#    0.000    0.000    0.000   14.333    0.000   12.667 
#
# Total GULP energy -595283.089894 kJ/mol
# GULP energy per Si atom -12401.731039 kJ/mol
# Density = 1.921961 g / cm^3
# Si number density = 19.263451 Si / 1000 Ang^3
#
#
#
# Elastic Constant Matrix: (Units=GPa)
#
#
# Indices 1 2 3 4 5 6 
#
# 1 157.2863 37.8060 92.4643 0.0000 0.0000 0.0000
# 2 37.8060 48.7560 35.9966 0.0000 0.0000 0.0000
# 3 92.4643 35.9966 134.4977 0.0000 0.0000 0.0000
# 4 0.0000 0.0000 0.0000 26.2104 0.0000 0.0000
# 5 0.0000 0.0000 0.0000 0.0000 44.6818 0.0000
# 6 0.0000 0.0000 0.0000 0.0000 0.0000 25.3392
#
#
#
# Elastic Compliance Matrix: (Units=1/GPa)
#
#
# Indices 1 2 3 4 5 6 
#
# 1 0.011191 -0.003736 -0.006694 0.000000 0.000000 0.000000
# 2 -0.003736 0.026808 -0.004607 0.000000 0.000000 0.000000
# 3 -0.006694 -0.004607 0.013270 0.000000 0.000000 0.000000
# 4 0.000000 0.000000 0.000000 0.038153 0.000000 0.000000
# 5 0.000000 0.000000 0.000000 0.000000 0.022380 0.000000
# 6 0.000000 0.000000 0.000000 0.000000 0.000000 0.039465
#
#
# Mechanical properties :
#
#
# Convention : Reuss Voigt Hill
#
# Bulk Modulus (GPa) = 47.17710 74.78596 60.98153
# Shear Modulus (GPa) = 26.53878 30.86450 28.70164
#
# Velocity S-wave (km/s) = 3.71573 4.00713 3.86418
# Velocity P-wave (km/s) = 6.55382 7.76637 7.18571
#
# Compressibility (1/GPa) = 0.02119673
#
# Stress axis : x y z
#
# Youngs Moduli (GPa) = 89.35979 37.30230 75.35949
#
# Poissons Ratio (x) = 0.13934 0.50443
# Poissons Ratio (y) = 0.33380 0.34716
# Poissons Ratio (z) = 0.59814 0.17184
#
# Static dielectric constant tensor:
#      x y z
#    x 3.665070 0.000000 0.000000 
#    y 0.000000 3.180080 0.000000 
#    z 0.000000 0.000000 3.745170 
# 
# 
# High freq. dielectric constant tensor:
#      x y z
#    x 1.753250 0.000000 0.000000 
#    y 0.000000 1.716970 0.000000 
#    z 0.000000 0.000000 1.764110 
# 
# From -- ./inp_files/10948.got.cif
#   From: 2010.06.25/outbox.cif.g09.slc.cpg/sg71_6_cif.got.tgz:10948.got - 2010.06.28 04:59:45.
