data_PCOD8290065
_publ_section_title
;
Structure prediction by ZEFSAII (Michael W. Deem and Ramdas Pophale) SiO2 
 PCOD8290065
Probable space group: I M M M
;
_chemical_formula_sum "Si O2"
_cell_formula_units_Z 72
_cell_length_a 13.493481
_cell_length_b 33.858466
_cell_length_c 9.194861
_cell_angle_alpha 90.000000
_cell_angle_beta 90.000000
_cell_angle_gamma 90.000000
_cell_volume 4200.842975
_symmetry_space_group_name_H-M "I M M M"
_symmetry_group_IT_number 71
_symmetry_cell_setting 'orthorhombic'
loop_
_space_group_symop_operation_xyz
x,y,z
-x,-y,z
x,-y,-z
-x,y,-z
-x,-y,-z
x,y,-z
-x,y,z
x,-y,z
1/2+x,1/2+y,1/2+z
1/2-x,1/2-y,1/2+z
1/2+x,1/2-y,1/2-z
1/2-x,1/2+y,1/2-z
1/2-x,1/2-y,1/2-z
1/2+x,1/2+y,1/2-z
1/2-x,1/2+y,1/2+z
1/2+x,1/2-y,1/2+z
loop_
_atom_site_type_symbol
_atom_site_label
_atom_site_fract_x
_atom_site_fract_y
_atom_site_fract_z
Si Si1 0.609808 0.763844 0.332296
Si Si2 0.384328 0.609412 0.830996
Si Si3 0.615225 0.000000 0.328235
Si Si4 0.768948 0.043482 0.835785
Si Si5 0.303156 0.692631 0.829657
O O1 0.624332 0.752764 0.500000
O O2 0.500000 0.780875 0.301366
O O3 0.623279 0.723568 0.244300
O O4 0.689549 0.797147 0.286287
O O5 0.500000 0.614984 0.800266
O O6 0.344712 0.573082 0.738611
O O7 0.327560 0.648613 0.776239
O O8 0.363341 0.601054 0.000000
O O9 0.666215 0.960792 0.256888
O O10 0.500000 0.000000 0.288823
O O11 0.633647 0.000000 0.500000
O O12 0.820288 0.000000 0.838413
O O13 0.744546 0.057593 0.000000
O O14 0.322703 0.695860 0.000000
#
# Coordination Sequence:
#
# PCOD8290065 Si02
#       5
#    16  16   8  16  16
#     4   9  17  30  49  72  98 130 166 206 253 301
#     4  10  20  33  50  72 100 134 170 211 257 303
#     4   9  17  33  58  81 100 127 163 200 240 291
#     4   9  20  35  52  76 104 133 165 206 250 298
#     4   9  18  32  49  71 100 132 168 209 251 300
#
# _framework density 17.139417999999999
#
# number of rings (size 3 to 8) (size 9 to 14) (size 15 to 20)
#    0.667    2.111    0.000    1.333    0.000    4.000 
#    0.000    3.333    0.000    4.000    0.000    0.000 
#    0.000    0.000    0.000    0.000    0.000    0.000 
#
# Total GULP energy -446201.566835 kJ/mol
# GULP energy per Si atom -12394.487968 kJ/mol
# Density = 1.710041 g / cm^3
# Si number density = 17.139418 Si / 1000 Ang^3
#
#
#
# Elastic Constant Matrix: (Units=GPa)
#
#
# Indices 1 2 3 4 5 6 
#
# 1 109.7939 56.6268 47.7983 -0.0007 0.0042 0.0008
# 2 56.6268 103.7078 46.8658 0.0022 -0.0003 -0.0006
# 3 47.7983 46.8658 73.4929 0.0111 -0.0035 -0.0042
# 4 -0.0007 0.0022 0.0111 26.3448 -0.0019 -0.0018
# 5 0.0042 -0.0003 -0.0035 -0.0019 21.0502 0.0009
# 6 0.0008 -0.0006 -0.0042 -0.0018 0.0009 24.5680
#
#
#
# Elastic Compliance Matrix: (Units=1/GPa)
#
#
# Indices 1 2 3 4 5 6 
#
# 1 0.014400 -0.005100 -0.006113 0.000003 -0.000004 -0.000002
# 2 -0.005100 0.015352 -0.006473 0.000001 0.000000 -0.000001
# 3 -0.006113 -0.006473 0.021710 -0.000009 0.000005 0.000004
# 4 0.000003 0.000001 -0.000009 0.037958 0.000003 0.000003
# 5 -0.000004 0.000000 0.000005 0.000003 0.047505 -0.000002
# 6 -0.000002 -0.000001 0.000004 0.000003 -0.000002 0.040703
#
#
# Mechanical properties :
#
#
# Convention : Reuss Voigt Hill
#
# Bulk Modulus (GPa) = 62.14996 65.50847 63.82922
# Shear Modulus (GPa) = 22.89743 23.43951 23.16847
#
# Velocity S-wave (km/s) = 3.65903 3.70209 3.68062
# Velocity P-wave (km/s) = 7.36149 7.52183 7.44209
#
# Compressibility (1/GPa) = 0.01609011
#
# Stress axis : x y z
#
# Youngs Moduli (GPa) = 69.44642 65.13614 46.06092
#
# Poissons Ratio (x) = 0.33220 0.28157
# Poissons Ratio (y) = 0.35418 0.29816
# Poissons Ratio (z) = 0.42452 0.42164
#
# Static dielectric constant tensor:
#      x y z
#    x 3.240630 0.000000 0.000010 
#    y 0.000000 3.074210 -0.000010 
#    z 0.000010 -0.000010 3.211660 
# 
# 
# High freq. dielectric constant tensor:
#      x y z
#    x 1.659540 0.000000 0.000000 
#    y 0.000000 1.643060 0.000000 
#    z 0.000000 0.000000 1.665410 
# 
# From -- ./inp_files/6434.got.cif
#   From: 2010.06.25/outbox.cif.g09.slc.cpg/sg71_4_cif.got.tgz:6434.got - 2010.06.28 04:59:45.
