data_PCOD8290812
_publ_section_title
;
Structure prediction by ZEFSAII (Michael W. Deem and Ramdas Pophale) SiO2 
 PCOD8290812
Probable space group: I M M M
;
_chemical_formula_sum "Si O2"
_cell_formula_units_Z 64
_cell_length_a 14.918170
_cell_length_b 8.821415
_cell_length_c 26.151255
_cell_angle_alpha 90.000000
_cell_angle_beta 90.000000
_cell_angle_gamma 90.000000
_cell_volume 3441.488646
_symmetry_space_group_name_H-M "I M M M"
_symmetry_group_IT_number 71
_symmetry_cell_setting 'orthorhombic'
loop_
_space_group_symop_operation_xyz
x,y,z
-x,-y,z
x,-y,-z
-x,y,-z
-x,-y,-z
x,y,-z
-x,y,z
x,-y,z
1/2+x,1/2+y,1/2+z
1/2-x,1/2-y,1/2+z
1/2+x,1/2-y,1/2-z
1/2-x,1/2+y,1/2-z
1/2-x,1/2-y,1/2-z
1/2+x,1/2+y,1/2-z
1/2-x,1/2+y,1/2+z
1/2+x,1/2-y,1/2+z
loop_
_atom_site_type_symbol
_atom_site_label
_atom_site_fract_x
_atom_site_fract_y
_atom_site_fract_z
Si Si1 0.500000 0.178307 0.827159
Si Si2 0.500000 0.320098 0.716535
Si Si3 0.896777 0.820276 0.500000
Si Si4 0.834816 0.319988 0.395808
Si Si5 0.641700 0.679666 0.364250
Si Si6 0.500000 0.319475 0.443800
O O1 0.500000 0.253720 0.772434
O O2 0.586372 0.233382 0.858413
O O3 0.500000 0.000000 0.819365
O O4 0.500000 0.500000 0.719821
O O5 0.589630 0.262540 0.686605
O O6 0.845998 0.756872 0.549367
O O7 0.000000 0.764142 0.500000
O O8 0.891358 0.000000 0.500000
O O9 0.834905 0.500000 0.404079
O O10 0.743432 0.261213 0.368761
O O11 0.641108 0.500000 0.363060
O O12 0.588274 0.737435 0.414138
O O13 0.500000 0.500000 0.447012
O O14 0.500000 0.246087 0.500000
#
# Coordination Sequence:
#
# PCOD8290812 Si02
#       6
#     8   8   8  16  16   8
#     4  10  21  34  50  76 104 133 176 221 260 309
#     4   9  18  35  55  76 104 137 173 218 263 302
#     4  11  23  37  53  76 109 140 170 211 259 310
#     4  10  20  35  55  78 104 137 176 214 255 306
#     4   8  16  30  49  75 104 132 171 215 254 300
#     4   8  13  22  40  72 103 126 161 213 257 290
#
# _framework density 18.596603000000002
#
# number of rings (size 3 to 8) (size 9 to 14) (size 15 to 20)
#    0.000    2.750    1.250    1.875    1.750    2.500 
#    0.000    1.250    0.000    0.000    0.000    1.750 
#    0.000    0.000    0.000    0.000    0.000    0.000 
#
# Total GULP energy -396662.430922 kJ/mol
# GULP energy per Si atom -12395.700966 kJ/mol
# Density = 1.855428 g / cm^3
# Si number density = 18.596603 Si / 1000 Ang^3
#
#
#
# Elastic Constant Matrix: (Units=GPa)
#
#
# Indices 1 2 3 4 5 6 
#
# 1 185.8411 24.4703 92.4129 0.0000 0.0000 0.0000
# 2 24.4703 21.1908 30.4524 0.0000 0.0000 0.0000
# 3 92.4129 30.4524 183.4107 0.0000 0.0000 0.0000
# 4 0.0000 0.0000 0.0000 29.9205 0.0000 0.0000
# 5 0.0000 0.0000 0.0000 0.0000 -0.0041 0.0000
# 6 0.0000 0.0000 0.0000 0.0000 0.0000 8.1314
#
#
#
# Elastic Compliance Matrix: (Units=1/GPa)
#
#
# Indices 1 2 3 4 5 6 
#
# 1 0.007456 -0.004218 -0.003057 0.000000 0.000000 0.000000
# 2 -0.004218 0.064364 -0.008562 0.000000 0.000000 0.000000
# 3 -0.003057 -0.008562 0.008414 0.000000 0.000000 0.000000
# 4 0.000000 0.000000 0.000000 0.033422 0.000000 0.000000
# 5 0.000000 0.000000 0.000000 0.000000********** 0.000000
# 6 0.000000 0.000000 0.000000 0.000000 0.000000 0.122980
#
#
# Mechanical properties :
#
#
# Convention : Reuss Voigt Hill
#
# Bulk Modulus (GPa) = 20.59195 76.12376 48.35785
# Shear Modulus (GPa) = -0.02063 23.81669 11.89803
#
# Velocity S-wave (km/s) = -0.10543 3.58257 2.53216
# Velocity P-wave (km/s) = 3.32899 7.62471 5.88296
#
# Compressibility (1/GPa) = 0.04856267
#
# Stress axis : x y z
#
# Youngs Moduli (GPa) = 134.11568 15.53659 118.85169
#
# Poissons Ratio (x) = 0.06553 0.36328
# Poissons Ratio (y) = 0.56565 1.01755
# Poissons Ratio (z) = 0.40994 0.13302
#
# Static dielectric constant tensor:
#      x y z
#    x 3.980830 0.000000 0.000000 
#    y 0.000000 2.932290 0.000000 
#    z 0.000000 0.000000 3.601320 
# 
# 
# High freq. dielectric constant tensor:
#      x y z
#    x 1.734390 0.000000 0.000000 
#    y 0.000000 1.673360 0.000000 
#    z 0.000000 0.000000 1.728970 
# 
# From -- ./inp_files/38797.got.cif
#   From: 2010.06.25/outbox.cif.g09.slc.cpg/sg71_20_cif.got.tgz:38797.got - 2010.06.28 04:59:45.
