data_PCOD8290782
_publ_section_title
;
Structure prediction by ZEFSAII (Michael W. Deem and Ramdas Pophale) SiO2 
 PCOD8290782
Probable space group: I M M M
;
_chemical_formula_sum "Si O2"
_cell_formula_units_Z 104
_cell_length_a 9.470760
_cell_length_b 22.369780
_cell_length_c 26.536786
_cell_angle_alpha 90.000000
_cell_angle_beta 90.000000
_cell_angle_gamma 90.000000
_cell_volume 5622.052106
_symmetry_space_group_name_H-M "I M M M"
_symmetry_group_IT_number 71
_symmetry_cell_setting 'orthorhombic'
loop_
_space_group_symop_operation_xyz
x,y,z
-x,-y,z
x,-y,-z
-x,y,-z
-x,-y,-z
x,y,-z
-x,y,z
x,-y,z
1/2+x,1/2+y,1/2+z
1/2-x,1/2-y,1/2+z
1/2+x,1/2-y,1/2-z
1/2-x,1/2+y,1/2-z
1/2-x,1/2-y,1/2-z
1/2+x,1/2+y,1/2-z
1/2-x,1/2+y,1/2+z
1/2+x,1/2-y,1/2+z
loop_
_atom_site_type_symbol
_atom_site_label
_atom_site_fract_x
_atom_site_fract_y
_atom_site_fract_z
Si Si1 0.659779 0.888932 0.944158
Si Si2 0.845251 0.218188 0.941807
Si Si3 0.161251 0.565888 0.340673
Si Si4 0.164367 0.170802 0.791106
Si Si5 0.831333 0.432888 0.000000
Si Si6 0.665504 0.845022 0.584905
Si Si7 0.837475 0.305319 0.192851
O O1 0.500000 0.866517 0.948856
O O2 0.746793 0.833712 0.920656
O O3 0.674919 0.939715 0.901715
O O4 0.711481 0.910920 0.000000
O O5 0.770707 0.282258 0.934119
O O6 0.000000 0.215472 0.914648
O O7 0.866162 0.205695 0.000000
O O8 0.200575 0.500000 0.319268
O O9 0.265164 0.616001 0.319996
O O10 0.000000 0.582382 0.325816
O O11 0.187473 0.234542 0.819882
O O12 0.232692 0.173960 0.736001
O O13 0.000000 0.156502 0.784495
O O14 0.773891 0.399503 0.949112
O O15 0.769047 0.500000 0.000000
O O16 0.000000 0.435290 0.000000
O O17 0.500000 0.843004 0.574160
O O18 0.696750 0.848041 0.644755
O O19 0.000000 0.314212 0.210027
#
# Coordination Sequence:
#
# PCOD8290782 Si02
#       7
#    16  16  16  16   8  16  16
#     4   9  18  31  47  71 102 130 162 205 247 290
#     4   9  15  25  44  69  98 131 164 199 243 292
#     4  10  21  36  53  72  98 136 174 206 247 300
#     4  10  20  35  54  77 103 131 169 215 263 310
#     4   9  16  26  42  68 103 137 168 205 248 296
#     4   9  15  26  44  69  99 133 169 204 246 299
#     4   9  18  32  53  78 105 133 165 210 264 315
#
# _framework density 18.498583
#
# number of rings (size 3 to 8) (size 9 to 14) (size 15 to 20)
#    0.000    2.692    0.769    1.385    0.000    3.077 
#    0.000    3.077    0.000    2.769    0.000    3.231 
#    0.000    4.308    0.000    0.000    0.000    0.000 
#
# Total GULP energy -644205.893351 kJ/mol
# GULP energy per Si atom -12388.574872 kJ/mol
# Density = 1.845648 g / cm^3
# Si number density = 18.498583 Si / 1000 Ang^3
#
#
#
# Elastic Constant Matrix: (Units=GPa)
#
#
# Indices 1 2 3 4 5 6 
#
# 1 68.9839 41.8737 38.1015 0.0000 0.0000 0.0000
# 2 41.8737 100.6360 57.7803 0.0000 0.0000 0.0000
# 3 38.1015 57.7803 88.8184 0.0000 0.0000 0.0000
# 4 0.0000 0.0000 0.0000 22.7380 0.0000 0.0000
# 5 0.0000 0.0000 0.0000 0.0000 19.0414 0.0000
# 6 0.0000 0.0000 0.0000 0.0000 0.0000 19.1516
#
#
#
# Elastic Compliance Matrix: (Units=1/GPa)
#
#
# Indices 1 2 3 4 5 6 
#
# 1 0.020830 -0.005645 -0.005263 0.000000 0.000000 0.000000
# 2 -0.005645 0.017391 -0.008892 0.000000 0.000000 0.000000
# 3 -0.005263 -0.008892 0.019301 0.000000 0.000000 0.000000
# 4 0.000000 0.000000 0.000000 0.043979 0.000000 0.000000
# 5 0.000000 0.000000 0.000000 0.000000 0.052517 0.000000
# 6 0.000000 0.000000 0.000000 0.000000 0.000000 0.052215
#
#
# Mechanical properties :
#
#
# Convention : Reuss Voigt Hill
#
# Bulk Modulus (GPa) = 55.79881 59.32771 57.56326
# Shear Modulus (GPa) = 19.85642 20.23174 20.04408
#
# Velocity S-wave (km/s) = 3.27984 3.31069 3.29530
# Velocity P-wave (km/s) = 6.67626 6.83779 6.75750
#
# Compressibility (1/GPa) = 0.01792153
#
# Stress axis : x y z
#
# Youngs Moduli (GPa) = 48.00822 57.50084 51.80994
#
# Poissons Ratio (x) = 0.32461 0.27268
# Poissons Ratio (y) = 0.27102 0.46069
# Poissons Ratio (z) = 0.25267 0.51129
#
# Static dielectric constant tensor:
#      x y z
#    x 3.370750 0.000000 0.000000 
#    y 0.000000 3.363120 0.000000 
#    z 0.000000 0.000000 3.427980 
# 
# 
# High freq. dielectric constant tensor:
#      x y z
#    x 1.684810 0.000000 0.000000 
#    y 0.000000 1.700250 0.000000 
#    z 0.000000 0.000000 1.722610 
# 
# From -- ./inp_files/63529.got.cif
#   From: 2010.06.25/outbox.cif.g09.slc.cpg/sg71_32_cif.got.tgz:63529.got - 2010.06.28 04:59:45.
