data_PCOD8290302
_publ_section_title
;
Structure prediction by ZEFSAII (Michael W. Deem and Ramdas Pophale) SiO2 
 PCOD8290302
Probable space group: I M M M
;
_chemical_formula_sum "Si O2"
_cell_formula_units_Z 112
_cell_length_a 13.397966
_cell_length_b 32.632100
_cell_length_c 13.530407
_cell_angle_alpha 90.000000
_cell_angle_beta 90.000000
_cell_angle_gamma 90.000000
_cell_volume 5915.544900
_symmetry_space_group_name_H-M "I M M M"
_symmetry_group_IT_number 71
_symmetry_cell_setting 'orthorhombic'
loop_
_space_group_symop_operation_xyz
x,y,z
-x,-y,z
x,-y,-z
-x,y,-z
-x,-y,-z
x,y,-z
-x,y,z
x,-y,z
1/2+x,1/2+y,1/2+z
1/2-x,1/2-y,1/2+z
1/2+x,1/2-y,1/2-z
1/2-x,1/2+y,1/2-z
1/2-x,1/2-y,1/2-z
1/2+x,1/2+y,1/2-z
1/2-x,1/2+y,1/2+z
1/2+x,1/2-y,1/2+z
loop_
_atom_site_type_symbol
_atom_site_label
_atom_site_fract_x
_atom_site_fract_y
_atom_site_fract_z
Si Si1 0.194850 0.161676 0.386396
Si Si2 0.888247 0.454878 0.729251
Si Si3 0.387459 0.625483 0.699784
Si Si4 0.388394 0.251765 0.116058
Si Si5 0.193729 0.953874 0.113636
Si Si6 0.300400 0.833974 0.885394
Si Si7 0.388475 0.870305 0.698454
O O1 0.164693 0.154091 0.500000
O O2 0.133998 0.130526 0.316823
O O3 0.168432 0.207343 0.349191
O O4 0.313223 0.154478 0.371801
O O5 0.874271 0.500000 0.778834
O O6 0.810172 0.449534 0.640274
O O7 0.872288 0.419534 0.812289
O O8 0.000000 0.450550 0.684743
O O9 0.500000 0.638397 0.674453
O O10 0.372098 0.577551 0.676851
O O11 0.314956 0.654678 0.635444
O O12 0.500000 0.249081 0.163805
O O13 0.320452 0.213073 0.145626
O O14 0.401469 0.253270 0.000000
O O15 0.154859 0.000000 0.134185
O O16 0.181648 0.941823 0.000000
O O17 0.370291 0.861411 0.815087
O O18 0.327035 0.842199 0.000000
O O19 0.500000 0.857244 0.667680
#
# Coordination Sequence:
#
# PCOD8290302 Si02
#       7
#    16  16  16  16  16  16  16
#     4  10  21  39  59  79 103 137 182 233 283 329
#     4   9  17  31  52  79 113 148 178 210 254 312
#     4  11  23  37  55  81 109 142 187 235 276 320
#     4   9  18  34  57  81 106 140 181 223 272 334
#     4  10  20  35  55  81 115 152 185 216 260 324
#     4  10  20  35  53  79 112 145 178 218 268 327
#     4  10  20  33  53  84 113 144 180 219 268 320
#
# _framework density 18.933167000000001
#
# number of rings (size 3 to 8) (size 9 to 14) (size 15 to 20)
#    0.000    2.143    2.857    1.286    0.000    6.000 
#    0.000    5.714    0.000    4.286    0.000    3.000 
#    0.000    0.000    0.000    0.000    0.000    0.000 
#
# Total GULP energy -694075.001171 kJ/mol
# GULP energy per Si atom -12394.196449 kJ/mol
# Density = 1.889007 g / cm^3
# Si number density = 18.933167 Si / 1000 Ang^3
#
#
#
# Elastic Constant Matrix: (Units=GPa)
#
#
# Indices 1 2 3 4 5 6 
#
# 1 122.2705 55.5306 8.0171 0.0000 -0.0002 0.0000
# 2 55.5306 133.2685 35.2072 -0.0002 0.0000 0.0000
# 3 8.0171 35.2072 55.3994 0.0019 0.0012 0.0007
# 4 0.0000 -0.0002 0.0019 26.1945 0.0003 0.0001
# 5 -0.0002 0.0000 0.0012 0.0003 16.6830 -0.0001
# 6 0.0000 0.0000 0.0007 0.0001 -0.0001 27.9177
#
#
#
# Elastic Compliance Matrix: (Units=1/GPa)
#
#
# Indices 1 2 3 4 5 6 
#
# 1 0.010186 -0.004633 0.001470 0.000000 0.000000 0.000000
# 2 -0.004633 0.011125 -0.006399 0.000001 0.000000 0.000000
# 3 0.001470 -0.006399 0.021905 -0.000002 -0.000002 -0.000001
# 4 0.000000 0.000001 -0.000002 0.038176 -0.000001 0.000000
# 5 0.000000 0.000000 -0.000002 -0.000001 0.059941 0.000000
# 6 0.000000 0.000000 -0.000001 0.000000 0.000000 0.035820
#
#
# Mechanical properties :
#
#
# Convention : Reuss Voigt Hill
#
# Bulk Modulus (GPa) = 41.50829 56.49423 49.00126
# Shear Modulus (GPa) = 24.47294 28.30463 26.38879
#
# Velocity S-wave (km/s) = 3.59917 3.87069 3.73739
# Velocity P-wave (km/s) = 6.26444 7.06257 6.67544
#
# Compressibility (1/GPa) = 0.02409157
#
# Stress axis : x y z
#
# Youngs Moduli (GPa) = 98.17168 89.89021 45.65176
#
# Poissons Ratio (x) = 0.41644 -0.06711
# Poissons Ratio (y) = 0.45481 0.29215
# Poissons Ratio (z) = -0.14433 0.57525
#
# Static dielectric constant tensor:
#      x y z
#    x 3.513110 0.000000 0.000000 
#    y 0.000000 3.845870 0.000000 
#    z 0.000000 0.000000 3.117110 
# 
# 
# High freq. dielectric constant tensor:
#      x y z
#    x 1.736920 0.000000 0.000000 
#    y 0.000000 1.748720 0.000000 
#    z 0.000000 0.000000 1.695680 
# 
# From -- ./inp_files/35347.got.cif
#   From: 2010.06.25/outbox.cif.g09.slc.cpg/sg71_18_cif.got.tgz:35347.got - 2010.06.28 04:59:45.
