data_PCOD8290891
_publ_section_title
;
Structure prediction by ZEFSAII (Michael W. Deem and Ramdas Pophale) SiO2 
 PCOD8290891
Probable space group: I M M M
;
_chemical_formula_sum "Si O2"
_cell_formula_units_Z 64
_cell_length_a 8.882875
_cell_length_b 25.773559
_cell_length_c 15.103592
_cell_angle_alpha 90.000000
_cell_angle_beta 90.000000
_cell_angle_gamma 90.000000
_cell_volume 3457.866238
_symmetry_space_group_name_H-M "I M M M"
_symmetry_group_IT_number 71
_symmetry_cell_setting 'orthorhombic'
loop_
_space_group_symop_operation_xyz
x,y,z
-x,-y,z
x,-y,-z
-x,y,-z
-x,-y,-z
x,y,-z
-x,y,z
x,-y,z
1/2+x,1/2+y,1/2+z
1/2-x,1/2-y,1/2+z
1/2+x,1/2-y,1/2-z
1/2-x,1/2+y,1/2-z
1/2-x,1/2-y,1/2-z
1/2+x,1/2+y,1/2-z
1/2-x,1/2+y,1/2+z
1/2+x,1/2-y,1/2+z
loop_
_atom_site_type_symbol
_atom_site_label
_atom_site_fract_x
_atom_site_fract_y
_atom_site_fract_z
Si Si1 0.177876 0.341414 0.152544
Si Si2 0.824719 0.777526 0.500000
Si Si3 0.674273 0.155763 0.000000
Si Si4 0.170480 0.942105 0.674397
Si Si5 0.330074 0.632294 0.678446
O O1 0.228138 0.399826 0.121548
O O2 0.241769 0.330170 0.251714
O O3 0.000000 0.336552 0.151301
O O4 0.247618 0.299439 0.087493
O O5 0.795435 0.716636 0.500000
O O6 0.000000 0.791830 0.500000
O O7 0.747226 0.129583 0.914499
O O8 0.500000 0.142000 0.000000
O O9 0.169633 0.925619 0.778586
O O10 0.000000 0.940159 0.637075
O O11 0.237905 0.000000 0.664047
O O12 0.500000 0.653305 0.666060
#
# Coordination Sequence:
#
# PCOD8290891 Si02
#       5
#    16   8   8  16  16
#     4  10  20  35  56  83 112 140 179 228 272 315
#     4  11  23  39  56  77 108 147 186 222 272 329
#     4  11  23  37  56  81 108 142 185 232 272 314
#     4   8  16  34  58  81 108 144 180 216 267 326
#     4   9  19  36  57  80 110 146 180 219 269 325
#
# _framework density 18.508521999999999
#
# number of rings (size 3 to 8) (size 9 to 14) (size 15 to 20)
#    1.500    1.000    0.000    3.000    0.000    3.500 
#    0.000    1.250    0.000    7.500    0.000    0.000 
#    0.000    0.000    0.000    0.000    0.000    0.000 
#
# Total GULP energy -396468.407421 kJ/mol
# GULP energy per Si atom -12389.637732 kJ/mol
# Density = 1.846640 g / cm^3
# Si number density = 18.508522 Si / 1000 Ang^3
#
#
#
# Elastic Constant Matrix: (Units=GPa)
#
#
# Indices 1 2 3 4 5 6 
#
# 1 114.9327 16.2120 3.8226 0.0001 0.0000 0.0000
# 2 16.2120 32.2197 -20.5651 -0.0001 0.0000 0.0000
# 3 3.8226 -20.5651 39.7861 -0.0018 -0.0003 -0.0002
# 4 0.0001 -0.0001 -0.0018 22.2798 -0.0003 0.0000
# 5 0.0000 0.0000 -0.0003 -0.0003 27.5862 -0.0003
# 6 0.0000 0.0000 -0.0002 0.0000 -0.0003 21.7147
#
#
#
# Elastic Compliance Matrix: (Units=1/GPa)
#
#
# Indices 1 2 3 4 5 6 
#
# 1 0.010076 -0.008489 -0.005356 -0.000001 0.000000 0.000000
# 2 -0.008489 0.053469 0.028453 0.000003 0.000000 0.000000
# 3 -0.005356 0.028453 0.040356 0.000003 0.000000 0.000000
# 4 -0.000001 0.000003 0.000003 0.044884 0.000000 0.000000
# 5 0.000000 0.000000 0.000000 0.000000 0.036250 0.000000
# 6 0.000000 0.000000 0.000000 0.000000 0.000000 0.046052
#
#
# Mechanical properties :
#
#
# Convention : Reuss Voigt Hill
#
# Bulk Modulus (GPa) = 7.51204 20.65306 14.08255
# Shear Modulus (GPa) = 20.30521 26.81407 23.55964
#
# Velocity S-wave (km/s) = 3.31580 3.81036 3.57165
# Velocity P-wave (km/s) = 4.32746 5.52643 4.96328
#
# Compressibility (1/GPa) = 0.13311968
#
# Stress axis : x y z
#
# Youngs Moduli (GPa) = 99.24340 18.70237 24.77931
#
# Poissons Ratio (x) = 0.15876 0.13271
# Poissons Ratio (y) = 0.84243 -0.70505
# Poissons Ratio (z) = 0.53152 -0.53214
#
# Static dielectric constant tensor:
#      x y z
#    x 3.421720 0.000000 0.000000 
#    y 0.000000 3.179460 0.000000 
#    z 0.000000 0.000000 3.212250 
# 
# 
# High freq. dielectric constant tensor:
#      x y z
#    x 1.727730 0.000000 0.000000 
#    y 0.000000 1.695390 0.000000 
#    z 0.000000 0.000000 1.705050 
# 
# From -- ./inp_files/31351.got.cif
#   From: 2010.06.25/outbox.cif.g09.slc.cpg/sg71_16_cif.got.tgz:31351.got - 2010.06.28 04:59:45.
