data_PCOD8290071
_publ_section_title
;
Structure prediction by ZEFSAII (Michael W. Deem and Ramdas Pophale) SiO2 
 PCOD8290071
Probable space group: I M M M
;
_chemical_formula_sum "Si O2"
_cell_formula_units_Z 80
_cell_length_a 25.438377
_cell_length_b 9.134862
_cell_length_c 19.503127
_cell_angle_alpha 90.000000
_cell_angle_beta 90.000000
_cell_angle_gamma 90.000000
_cell_volume 4532.059876
_symmetry_space_group_name_H-M "I M M M"
_symmetry_group_IT_number 71
_symmetry_cell_setting 'orthorhombic'
loop_
_space_group_symop_operation_xyz
x,y,z
-x,-y,z
x,-y,-z
-x,y,-z
-x,-y,-z
x,y,-z
-x,y,z
x,-y,z
1/2+x,1/2+y,1/2+z
1/2-x,1/2-y,1/2+z
1/2+x,1/2-y,1/2-z
1/2-x,1/2+y,1/2-z
1/2-x,1/2-y,1/2-z
1/2+x,1/2+y,1/2-z
1/2-x,1/2+y,1/2+z
1/2+x,1/2-y,1/2+z
loop_
_atom_site_type_symbol
_atom_site_label
_atom_site_fract_x
_atom_site_fract_y
_atom_site_fract_z
Si Si1 0.150204 0.172065 0.420751
Si Si2 0.753841 0.165201 0.918491
Si Si3 0.557912 0.673602 0.824512
Si Si4 0.143144 0.670511 0.079915
Si Si5 0.061367 0.832450 0.169815
O O1 0.139566 0.209573 0.500000
O O2 0.201926 0.252184 0.392020
O O3 0.100734 0.234178 0.377985
O O4 0.158508 0.000000 0.409725
O O5 0.805410 0.247575 0.890697
O O6 0.753775 0.000000 0.890047
O O7 0.754206 0.168527 0.000000
O O8 0.500000 0.737271 0.843108
O O9 0.555144 0.500000 0.829032
O O10 0.573632 0.718913 0.747404
O O11 0.150858 0.500000 0.093951
O O12 0.091960 0.727487 0.118537
O O13 0.135058 0.704113 0.000000
O O14 0.000000 0.815801 0.153775
O O15 0.079326 0.000000 0.158466
#
# Coordination Sequence:
#
# PCOD8290071 Si02
#       5
#    16  16  16  16  16
#     4   9  16  27  47  74 100 125 156 195 235 274
#     4   9  17  30  48  69  95 126 157 190 232 282
#     4   8  15  29  48  70  97 128 160 194 232 273
#     4  10  20  33  50  72  96 120 151 195 241 282
#     4   9  18  33  51  69  93 127 162 193 228 275
#
# _framework density 17.652018000000002
#
# number of rings (size 3 to 8) (size 9 to 14) (size 15 to 20)
#    0.000    3.000    0.000    2.400    0.000    4.800 
#    0.000    6.000    0.000    1.800    0.000    2.800 
#    0.000    0.000    0.000    0.000    0.000    0.000 
#
# Total GULP energy -495942.509223 kJ/mol
# GULP energy per Si atom -12398.562731 kJ/mol
# Density = 1.761184 g / cm^3
# Si number density = 17.652018 Si / 1000 Ang^3
#
#
#
# Elastic Constant Matrix: (Units=GPa)
#
#
# Indices 1 2 3 4 5 6 
#
# 1 130.9117 56.5525 64.0107 0.0000 0.0000 0.0000
# 2 56.5525 73.4264 40.0175 0.0000 0.0000 0.0000
# 3 64.0107 40.0175 64.8448 0.0000 0.0000 0.0000
# 4 0.0000 0.0000 0.0000 15.4044 0.0000 0.0000
# 5 0.0000 0.0000 0.0000 0.0000 11.7884 0.0000
# 6 0.0000 0.0000 0.0000 0.0000 0.0000 28.5160
#
#
#
# Elastic Compliance Matrix: (Units=1/GPa)
#
#
# Indices 1 2 3 4 5 6 
#
# 1 0.016192 -0.005665 -0.012488 0.000000 0.000000 0.000000
# 2 -0.005665 0.022503 -0.008295 0.000000 0.000000 0.000000
# 3 -0.012488 -0.008295 0.032867 0.000000 0.000000 0.000000
# 4 0.000000 0.000000 0.000000 0.064917 0.000000 0.000000
# 5 0.000000 0.000000 0.000000 0.000000 0.084829 0.000000
# 6 0.000000 0.000000 0.000000 0.000000 0.000000 0.035068
#
#
# Mechanical properties :
#
#
# Convention : Reuss Voigt Hill
#
# Bulk Modulus (GPa) = 53.57021 65.59380 59.58201
# Shear Modulus (GPa) = 15.84817 18.38192 17.11505
#
# Velocity S-wave (km/s) = 2.99960 3.23050 3.11719
# Velocity P-wave (km/s) = 6.51234 7.15226 6.83979
#
# Compressibility (1/GPa) = 0.01866709
#
# Stress axis : x y z
#
# Youngs Moduli (GPa) = 61.75908 44.43815 30.42525
#
# Poissons Ratio (x) = 0.25175 0.37994
# Poissons Ratio (y) = 0.34988 0.25238
# Poissons Ratio (z) = 0.77122 0.36862
#
# Static dielectric constant tensor:
#      x y z
#    x 3.564950 0.000000 0.000000 
#    y 0.000000 3.120020 0.000000 
#    z 0.000000 0.000000 3.109440 
# 
# 
# High freq. dielectric constant tensor:
#      x y z
#    x 1.694170 0.000000 0.000000 
#    y 0.000000 1.664170 0.000000 
#    z 0.000000 0.000000 1.657160 
# 
# From -- ./inp_files/8319.got.cif
#   From: 2010.06.25/outbox.cif.g09.slc.cpg/sg71_5_cif.got.tgz:8319.got - 2010.06.28 04:59:45.
