data_PCOD8290644
_publ_section_title
;
Structure prediction by ZEFSAII (Michael W. Deem and Ramdas Pophale) SiO2 
 PCOD8290644
Probable space group: I M M M
;
_chemical_formula_sum "Si O2"
_cell_formula_units_Z 120
_cell_length_a 18.847455
_cell_length_b 21.059481
_cell_length_c 17.490425
_cell_angle_alpha 90.000000
_cell_angle_beta 90.000000
_cell_angle_gamma 90.000000
_cell_volume 6942.257872
_symmetry_space_group_name_H-M "I M M M"
_symmetry_group_IT_number 71
_symmetry_cell_setting 'orthorhombic'
loop_
_space_group_symop_operation_xyz
x,y,z
-x,-y,z
x,-y,-z
-x,y,-z
-x,-y,-z
x,y,-z
-x,y,z
x,-y,z
1/2+x,1/2+y,1/2+z
1/2-x,1/2-y,1/2+z
1/2+x,1/2-y,1/2-z
1/2-x,1/2+y,1/2-z
1/2-x,1/2-y,1/2-z
1/2+x,1/2+y,1/2-z
1/2-x,1/2+y,1/2+z
1/2+x,1/2-y,1/2+z
loop_
_atom_site_type_symbol
_atom_site_label
_atom_site_fract_x
_atom_site_fract_y
_atom_site_fract_z
Si Si1 0.575501 0.755066 0.410812
Si Si2 0.710868 0.207030 0.345484
Si Si3 0.918812 0.112875 0.912433
Si Si4 0.184005 0.928371 0.209021
Si Si5 0.082441 0.729587 0.590398
Si Si6 0.648852 0.641200 0.860574
Si Si7 0.205732 0.326247 0.674088
Si Si8 0.579352 0.425645 0.000000
O O1 0.568041 0.748307 0.500000
O O2 0.500000 0.780158 0.377467
O O3 0.637606 0.804019 0.390163
O O4 0.590494 0.684284 0.379478
O O5 0.767772 0.155469 0.374048
O O6 0.739877 0.277274 0.366049
O O7 0.689686 0.202109 0.257203
O O8 0.869777 0.067572 0.861672
O O9 0.000000 0.090461 0.904943
O O10 0.893337 0.107247 0.000000
O O11 0.143763 0.891089 0.277441
O O12 0.257569 0.895012 0.181695
O O13 0.202992 0.000000 0.234858
O O14 0.096943 0.738474 0.500000
O O15 0.103006 0.794182 0.635272
O O16 0.132352 0.673010 0.624615
O O17 0.000000 0.713019 0.605603
O O18 0.621897 0.593565 0.924752
O O19 0.571574 0.500000 0.000000
O O20 0.500000 0.394649 0.000000
#
# Coordination Sequence:
#
# PCOD8290644 Si02
#       8
#    16  16  16  16  16  16  16   8
#     4   9  17  28  46  73 102 129 156 196 255 311
#     4   9  17  31  50  72 102 130 168 217 265 313
#     4   9  19  34  49  69 100 134 169 210 255 308
#     4  11  22  37  54  73 104 143 185 225 257 307
#     4  10  20  34  55  81 109 138 173 225 283 334
#     4  10  21  35  52  77 107 142 180 217 262 318
#     4   9  19  33  48  75 100 131 173 221 267 315
#     4  11  22  36  52  74 111 151 188 222 250 305
#
# _framework density 17.285442
#
# number of rings (size 3 to 8) (size 9 to 14) (size 15 to 20)
#    0.000    2.333    2.000    2.400    0.933    3.200 
#    0.000    0.667    0.000    0.400    0.000    0.933 
#    0.000    2.133    0.000    0.000    0.000    0.000 
#
# Total GULP energy -743669.369290 kJ/mol
# GULP energy per Si atom -12394.489488 kJ/mol
# Density = 1.724610 g / cm^3
# Si number density = 17.285442 Si / 1000 Ang^3
#
#
#
# Elastic Constant Matrix: (Units=GPa)
#
#
# Indices 1 2 3 4 5 6 
#
# 1 129.4757 40.3102 55.1718 0.0000 0.0000 0.0000
# 2 40.3102 60.2192 34.9992 0.0000 0.0000 0.0000
# 3 55.1718 34.9992 75.9391 0.0000 0.0000 0.0000
# 4 0.0000 0.0000 0.0000 19.5564 0.0000 0.0000
# 5 0.0000 0.0000 0.0000 0.0000 27.1750 0.0000
# 6 0.0000 0.0000 0.0000 0.0000 0.0000 20.0967
#
#
#
# Elastic Compliance Matrix: (Units=1/GPa)
#
#
# Indices 1 2 3 4 5 6 
#
# 1 0.011853 -0.004001 -0.006767 0.000000 0.000000 0.000000
# 2 -0.004001 0.024032 -0.008169 0.000000 0.000000 0.000000
# 3 -0.006767 -0.008169 0.021850 0.000000 0.000000 0.000000
# 4 0.000000 0.000000 0.000000 0.051134 0.000000 0.000000
# 5 0.000000 0.000000 0.000000 0.000000 0.036799 0.000000
# 6 0.000000 0.000000 0.000000 0.000000 0.000000 0.049759
#
#
# Mechanical properties :
#
#
# Convention : Reuss Voigt Hill
#
# Bulk Modulus (GPa) = 50.35259 58.51072 54.43165
# Shear Modulus (GPa) = 20.84007 22.37581 21.60794
#
# Velocity S-wave (km/s) = 3.47600 3.60180 3.53946
# Velocity P-wave (km/s) = 6.73078 7.15685 6.94708
#
# Compressibility (1/GPa) = 0.01985995
#
# Stress axis : x y z
#
# Youngs Moduli (GPa) = 84.36828 41.61092 45.76613
#
# Poissons Ratio (x) = 0.16648 0.30972
# Poissons Ratio (y) = 0.33755 0.37388
# Poissons Ratio (z) = 0.57095 0.33993
#
# Static dielectric constant tensor:
#      x y z
#    x 3.460550 0.000000 0.000000 
#    y 0.000000 2.923120 0.000000 
#    z 0.000000 0.000000 3.202320 
# 
# 
# High freq. dielectric constant tensor:
#      x y z
#    x 1.670180 0.000000 0.000000 
#    y 0.000000 1.624290 0.000000 
#    z 0.000000 0.000000 1.669390 
# 
# From -- ./inp_files/46478.got.cif
#   From: 2010.06.25/outbox.cif.g09.slc.cpg/sg71_24_cif.got.tgz:46478.got - 2010.06.28 04:59:45.
