data_PCOD8290820
_publ_section_title
;
Structure prediction by ZEFSAII (Michael W. Deem and Ramdas Pophale) SiO2 
 PCOD8290820
Probable space group: I M M M
;
_chemical_formula_sum "Si O2"
_cell_formula_units_Z 88
_cell_length_a 33.754933
_cell_length_b 8.995392
_cell_length_c 15.655032
_cell_angle_alpha 90.000000
_cell_angle_beta 90.000000
_cell_angle_gamma 90.000000
_cell_volume 4753.475980
_symmetry_space_group_name_H-M "I M M M"
_symmetry_group_IT_number 71
_symmetry_cell_setting 'orthorhombic'
loop_
_space_group_symop_operation_xyz
x,y,z
-x,-y,z
x,-y,-z
-x,y,-z
-x,-y,-z
x,y,-z
-x,y,z
x,-y,z
1/2+x,1/2+y,1/2+z
1/2-x,1/2-y,1/2+z
1/2+x,1/2-y,1/2-z
1/2-x,1/2+y,1/2-z
1/2-x,1/2-y,1/2-z
1/2+x,1/2+y,1/2-z
1/2-x,1/2+y,1/2+z
1/2+x,1/2-y,1/2+z
loop_
_atom_site_type_symbol
_atom_site_label
_atom_site_fract_x
_atom_site_fract_y
_atom_site_fract_z
Si Si1 0.250944 0.324091 0.158492
Si Si2 0.953144 0.665703 0.500000
Si Si3 0.384662 0.175703 0.751386
Si Si4 0.672725 0.829284 0.903946
Si Si5 0.833553 0.323890 0.906224
Si Si6 0.045487 0.825167 0.671460
O O1 0.252836 0.500000 0.169524
O O2 0.250000 0.250000 0.250000
O O3 0.288205 0.269908 0.104062
O O4 0.211373 0.272495 0.109664
O O5 0.934146 0.500000 0.500000
O O6 0.939144 0.753148 0.416554
O O7 0.000000 0.654311 0.500000
O O8 0.359589 0.222538 0.834886
O O9 0.362586 0.238245 0.667169
O O10 0.427149 0.257486 0.754024
O O11 0.391667 0.000000 0.747644
O O12 0.684476 0.000000 0.886023
O O13 0.655445 0.809136 0.000000
O O14 0.835437 0.500000 0.902596
O O15 0.846943 0.265736 0.000000
O O16 0.000000 0.783033 0.691412
O O17 0.051062 0.000000 0.664458
#
# Coordination Sequence:
#
# PCOD8290820 Si02
#       6
#    16   8  16  16  16  16
#     4  11  20  34  55  78 108 144 185 224 267 320
#     4   9  17  31  53  79 105 139 181 215 253 315
#     4  10  20  35  55  79 106 140 181 223 270 324
#     4  10  21  36  52  76 111 146 179 219 266 315
#     4   9  18  34  56  79 104 137 180 230 276 315
#     4  10  21  36  53  77 110 143 177 221 272 323
#
# _framework density 18.512768000000001
#
# number of rings (size 3 to 8) (size 9 to 14) (size 15 to 20)
#    0.000    2.091    1.818    1.909    1.273    4.000 
#    0.000    0.000    0.000    3.273    0.000    3.818 
#    0.000    0.000    0.000    0.000    0.000    0.000 
#
# Total GULP energy -545602.928965 kJ/mol
# GULP energy per Si atom -12400.066567 kJ/mol
# Density = 1.847063 g / cm^3
# Si number density = 18.512768 Si / 1000 Ang^3
#
#
#
# Elastic Constant Matrix: (Units=GPa)
#
#
# Indices 1 2 3 4 5 6 
#
# 1 111.8679 42.4152 62.1913 0.0000 0.0000 0.0000
# 2 42.4152 61.5238 31.8252 0.0000 0.0000 0.0000
# 3 62.1913 31.8252 140.5034 0.0000 0.0000 0.0000
# 4 0.0000 0.0000 0.0000 20.1758 0.0000 0.0000
# 5 0.0000 0.0000 0.0000 0.0000 27.0320 0.0000
# 6 0.0000 0.0000 0.0000 0.0000 0.0000 30.9397
#
#
#
# Elastic Compliance Matrix: (Units=1/GPa)
#
#
# Indices 1 2 3 4 5 6 
#
# 1 0.014375 -0.007497 -0.004665 0.000000 0.000000 0.000000
# 2 -0.007497 0.022321 -0.001737 0.000000 0.000000 0.000000
# 3 -0.004665 -0.001737 0.009576 0.000000 0.000000 0.000000
# 4 0.000000 0.000000 0.000000 0.049564 0.000000 0.000000
# 5 0.000000 0.000000 0.000000 0.000000 0.036993 0.000000
# 6 0.000000 0.000000 0.000000 0.000000 0.000000 0.032321
#
#
# Mechanical properties :
#
#
# Convention : Reuss Voigt Hill
#
# Bulk Modulus (GPa) = 54.13271 65.19538 59.66404
# Shear Modulus (GPa) = 25.11215 27.46039 26.28627
#
# Velocity S-wave (km/s) = 3.68703 3.85557 3.77224
# Velocity P-wave (km/s) = 6.88693 7.42384 7.16042
#
# Compressibility (1/GPa) = 0.01847312
#
# Stress axis : x y z
#
# Youngs Moduli (GPa) = 69.56531 44.80011 104.43307
#
# Poissons Ratio (x) = 0.33588 0.48714
# Poissons Ratio (y) = 0.52156 0.18144
# Poissons Ratio (z) = 0.32450 0.07784
#
# Static dielectric constant tensor:
#      x y z
#    x 3.444160 0.000000 0.000000 
#    y 0.000000 3.274590 0.000000 
#    z 0.000000 0.000000 3.568790 
# 
# 
# High freq. dielectric constant tensor:
#      x y z
#    x 1.714000 0.000000 0.000000 
#    y 0.000000 1.702010 0.000000 
#    z 0.000000 0.000000 1.712190 
# 
# From -- ./inp_files/49246.got.cif
#   From: 2010.06.25/outbox.cif.g09.slc.cpg/sg71_25_cif.got.tgz:49246.got - 2010.06.28 04:59:45.
