data_PCOD8290661
_publ_section_title
;
Structure prediction by ZEFSAII (Michael W. Deem and Ramdas Pophale) SiO2 
 PCOD8290661
Probable space group: I M M M
;
_chemical_formula_sum "Si O2"
_cell_formula_units_Z 104
_cell_length_a 27.082292
_cell_length_b 22.040750
_cell_length_c 9.281272
_cell_angle_alpha 90.000000
_cell_angle_beta 90.000000
_cell_angle_gamma 90.000000
_cell_volume 5540.121449
_symmetry_space_group_name_H-M "I M M M"
_symmetry_group_IT_number 71
_symmetry_cell_setting 'orthorhombic'
loop_
_space_group_symop_operation_xyz
x,y,z
-x,-y,z
x,-y,-z
-x,y,-z
-x,-y,-z
x,y,-z
-x,y,z
x,-y,z
1/2+x,1/2+y,1/2+z
1/2-x,1/2-y,1/2+z
1/2+x,1/2-y,1/2-z
1/2-x,1/2+y,1/2-z
1/2-x,1/2-y,1/2-z
1/2+x,1/2+y,1/2-z
1/2-x,1/2+y,1/2+z
1/2+x,1/2-y,1/2+z
loop_
_atom_site_type_symbol
_atom_site_label
_atom_site_fract_x
_atom_site_fract_y
_atom_site_fract_z
Si Si1 0.148564 0.070549 0.332100
Si Si2 0.943664 0.152931 0.666374
Si Si3 0.910384 0.728528 0.832962
Si Si4 0.285010 0.338034 0.331603
Si Si5 0.183509 0.282009 0.667539
Si Si6 0.555033 0.103680 0.653536
Si Si7 0.559055 0.000000 0.844890
O O1 0.161449 0.079239 0.500000
O O2 0.094754 0.099201 0.296416
O O3 0.192113 0.101224 0.237856
O O4 0.146121 0.000000 0.289683
O O5 0.938850 0.171983 0.500000
O O6 0.930147 0.210537 0.762138
O O7 0.000000 0.131680 0.700720
O O8 0.864786 0.696375 0.750459
O O9 0.949903 0.675113 0.810645
O O10 0.898304 0.742404 0.000000
O O11 0.300019 0.334346 0.500000
O O12 0.225594 0.333558 0.314648
O O13 0.305803 0.281582 0.244480
O O14 0.173348 0.268402 0.500000
O O15 0.583002 0.096066 0.500000
O O16 0.500000 0.078132 0.639017
O O17 0.580987 0.060585 0.769943
O O18 0.500000 0.000000 0.858248
O O19 0.584011 0.000000 0.000000
#
# Coordination Sequence:
#
# PCOD8290661 Si02
#       7
#    16  16  16  16  16  16   8
#     4  10  21  37  58  83 113 152 195 237 284 341
#     4  10  21  36  54  79 114 154 193 237 288 337
#     4  11  21  33  53  82 112 145 184 226 278 334
#     4  10  20  35  57  84 109 138 176 222 275 329
#     4  10  20  34  55  82 111 139 172 217 273 335
#     4   9  18  32  49  70 100 138 175 213 262 320
#     4   9  17  29  47  71  95 125 171 219 257 303
#
# _framework density 18.772151999999998
#
# number of rings (size 3 to 8) (size 9 to 14) (size 15 to 20)
#    0.000    2.077    1.538    2.077    0.000    5.538 
#    0.000    3.077    1.692    0.000    0.000    2.154 
#    0.000    0.000    0.000    0.000    0.000    0.000 
#
# Total GULP energy -644258.083613 kJ/mol
# GULP energy per Si atom -12389.578531 kJ/mol
# Density = 1.872943 g / cm^3
# Si number density = 18.772152 Si / 1000 Ang^3
#
#
#
# Elastic Constant Matrix: (Units=GPa)
#
#
# Indices 1 2 3 4 5 6 
#
# 1 81.4244 37.6207 45.8694 0.0000 0.0000 0.0000
# 2 37.6207 134.4003 69.2155 0.0000 0.0000 0.0000
# 3 45.8694 69.2155 129.4466 0.0000 0.0000 0.0000
# 4 0.0000 0.0000 0.0000 28.2270 0.0000 0.0000
# 5 0.0000 0.0000 0.0000 0.0000 25.4573 0.0000
# 6 0.0000 0.0000 0.0000 0.0000 0.0000 24.7625
#
#
#
# Elastic Compliance Matrix: (Units=1/GPa)
#
#
# Indices 1 2 3 4 5 6 
#
# 1 0.015770 -0.002120 -0.004454 0.000000 0.000000 0.000000
# 2 -0.002120 0.010553 -0.004891 0.000000 0.000000 0.000000
# 3 -0.004454 -0.004891 0.011919 0.000000 0.000000 0.000000
# 4 0.000000 0.000000 0.000000 0.035427 0.000000 0.000000
# 5 0.000000 0.000000 0.000000 0.000000 0.039281 0.000000
# 6 0.000000 0.000000 0.000000 0.000000 0.000000 0.040384
#
#
# Mechanical properties :
#
#
# Convention : Reuss Voigt Hill
#
# Bulk Modulus (GPa) = 65.31656 72.29805 68.80730
# Shear Modulus (GPa) = 27.56792 28.52710 28.04751
#
# Velocity S-wave (km/s) = 3.83633 3.90250 3.86955
# Velocity P-wave (km/s) = 7.38195 7.67483 7.52981
#
# Compressibility (1/GPa) = 0.01531005
#
# Stress axis : x y z
#
# Youngs Moduli (GPa) = 63.41010 94.75968 83.89915
#
# Poissons Ratio (x) = 0.20092 0.37373
# Poissons Ratio (y) = 0.13445 0.41038
# Poissons Ratio (z) = 0.28246 0.46351
#
# Static dielectric constant tensor:
#      x y z
#    x 3.667370 0.000000 0.000000 
#    y 0.000000 3.302490 0.000000 
#    z 0.000000 0.000000 3.707080 
# 
# 
# High freq. dielectric constant tensor:
#      x y z
#    x 1.711850 0.000000 0.000000 
#    y 0.000000 1.716760 0.000000 
#    z 0.000000 0.000000 1.741310 
# 
# From -- ./inp_files/17045.got.cif
#   From: 2010.06.25/outbox.cif.g09.slc.cpg/sg71_9_cif.got.tgz:17045.got - 2010.06.28 04:59:45.
