data_PCOD8290202
_publ_section_title
;
Structure prediction by ZEFSAII (Michael W. Deem and Ramdas Pophale) SiO2 
 PCOD8290202
Probable space group: I M M M
;
_chemical_formula_sum "Si O2"
_cell_formula_units_Z 88
_cell_length_a 8.697521
_cell_length_b 27.867826
_cell_length_c 18.070547
_cell_angle_alpha 90.000000
_cell_angle_beta 90.000000
_cell_angle_gamma 90.000000
_cell_volume 4379.957286
_symmetry_space_group_name_H-M "I M M M"
_symmetry_group_IT_number 71
_symmetry_cell_setting 'orthorhombic'
loop_
_space_group_symop_operation_xyz
x,y,z
-x,-y,z
x,-y,-z
-x,y,-z
-x,-y,-z
x,y,-z
-x,y,z
x,-y,z
1/2+x,1/2+y,1/2+z
1/2-x,1/2-y,1/2+z
1/2+x,1/2-y,1/2-z
1/2-x,1/2+y,1/2-z
1/2-x,1/2-y,1/2-z
1/2+x,1/2+y,1/2-z
1/2-x,1/2+y,1/2+z
1/2+x,1/2-y,1/2+z
loop_
_atom_site_type_symbol
_atom_site_label
_atom_site_fract_x
_atom_site_fract_y
_atom_site_fract_z
Si Si1 0.320149 0.181319 0.914587
Si Si2 0.680702 0.765019 0.671469
Si Si3 0.816256 0.500000 0.581664
Si Si4 0.182886 0.643868 0.917621
Si Si5 0.182865 0.588990 0.672157
Si Si6 0.317283 0.945925 0.670588
O O1 0.500000 0.190948 0.901296
O O2 0.225318 0.228135 0.892862
O O3 0.257999 0.139112 0.861187
O O4 0.288076 0.168011 0.000000
O O5 0.500000 0.766771 0.682462
O O6 0.750000 0.750000 0.750000
O O7 0.742111 0.816779 0.642099
O O8 0.748573 0.500000 0.500000
O O9 0.750931 0.453166 0.621455
O O10 0.000000 0.500000 0.582214
O O11 0.235964 0.590054 0.894503
O O12 0.000000 0.646370 0.919386
O O13 0.249013 0.654175 0.000000
O O14 0.244880 0.578813 0.754379
O O15 0.000000 0.589052 0.670674
O O16 0.500000 0.949798 0.674496
O O17 0.249832 0.000000 0.659239
#
# Coordination Sequence:
#
# PCOD8290202 Si02
#       6
#    16  16   8  16  16  16
#     4  10  20  33  51  77 110 145 179 217 260 309
#     4  11  22  37  56  77 103 137 177 220 268 321
#     4   9  14  20  34  58  92 134 174 211 257 309
#     4   9  18  31  47  69  99 134 168 204 253 313
#     4   9  15  25  40  65 101 138 174 213 258 305
#     4   9  15  24  40  63  94 133 170 205 251 308
#
# _framework density 20.091519999999999
#
# number of rings (size 3 to 8) (size 9 to 14) (size 15 to 20)
#    0.000    2.455    0.909    2.727    0.000    6.545 
#    0.000    1.818    0.000    0.000    0.000    0.636 
#    0.000    4.364    0.000   13.455    0.000   14.909 
#
# Total GULP energy -545353.994748 kJ/mol
# GULP energy per Si atom -12394.408972 kJ/mol
# Density = 2.004579 g / cm^3
# Si number density = 20.091520 Si / 1000 Ang^3
#
#
#
# Elastic Constant Matrix: (Units=GPa)
#
#
# Indices 1 2 3 4 5 6 
#
# 1 18.4604 16.6916 15.7245 0.0000 0.0000 0.0000
# 2 16.6916 168.7801 72.2775 0.0000 0.0000 0.0000
# 3 15.7245 72.2775 145.1204 -0.0002 0.0000 0.0000
# 4 0.0000 0.0000 -0.0002 42.6929 0.0000 0.0000
# 5 0.0000 0.0000 0.0000 0.0000 17.9694 0.0000
# 6 0.0000 0.0000 0.0000 0.0000 0.0000 15.2588
#
#
#
# Elastic Compliance Matrix: (Units=1/GPa)
#
#
# Indices 1 2 3 4 5 6 
#
# 1 0.061861 -0.004128 -0.004647 0.000000 0.000000 0.000000
# 2 -0.004128 0.007807 -0.003441 0.000000 0.000000 0.000000
# 3 -0.004647 -0.003441 0.009108 0.000000 0.000000 0.000000
# 4 0.000000 0.000000 0.000000 0.023423 0.000000 0.000000
# 5 0.000000 0.000000 0.000000 0.000000 0.055650 0.000000
# 6 0.000000 0.000000 0.000000 0.000000 0.000000 0.065536
#
#
# Mechanical properties :
#
#
# Convention : Reuss Voigt Hill
#
# Bulk Modulus (GPa) = 18.40128 60.19424 39.29776
# Shear Modulus (GPa) = 18.80192 30.36205 24.58199
#
# Velocity S-wave (km/s) = 3.06243 3.89162 3.50165
# Velocity P-wave (km/s) = 4.65652 7.08646 5.99588
#
# Compressibility (1/GPa) = 0.05434404
#
# Stress axis : x y z
#
# Youngs Moduli (GPa) = 16.16537 128.09751 109.79275
#
# Poissons Ratio (x) = 0.52875 0.51022
# Poissons Ratio (y) = 0.06673 0.37778
# Poissons Ratio (z) = 0.07512 0.44076
#
# Static dielectric constant tensor:
#      x y z
#    x 2.940730 0.000000 0.000000 
#    y 0.000000 3.991740 0.000000 
#    z 0.000000 0.000000 3.854130 
# 
# 
# High freq. dielectric constant tensor:
#      x y z
#    x 1.702320 0.000000 0.000000 
#    y 0.000000 1.802860 0.000000 
#    z 0.000000 0.000000 1.797270 
# 
# From -- ./inp_files/42475.got.cif
#   From: 2010.06.25/outbox.cif.g09.slc.cpg/sg71_22_cif.got.tgz:42475.got - 2010.06.28 04:59:45.
