data_PCOD8290373
_publ_section_title
;
Structure prediction by ZEFSAII (Michael W. Deem and Ramdas Pophale) SiO2 
 PCOD8290373
Probable space group: I M M M
;
_chemical_formula_sum "Si O2"
_cell_formula_units_Z 88
_cell_length_a 17.879179
_cell_length_b 29.034532
_cell_length_c 9.201487
_cell_angle_alpha 90.000000
_cell_angle_beta 90.000000
_cell_angle_gamma 90.000000
_cell_volume 4776.616994
_symmetry_space_group_name_H-M "I M M M"
_symmetry_group_IT_number 71
_symmetry_cell_setting 'orthorhombic'
loop_
_space_group_symop_operation_xyz
x,y,z
-x,-y,z
x,-y,-z
-x,y,-z
-x,-y,-z
x,y,-z
-x,y,z
x,-y,z
1/2+x,1/2+y,1/2+z
1/2-x,1/2-y,1/2+z
1/2+x,1/2-y,1/2-z
1/2-x,1/2+y,1/2-z
1/2-x,1/2-y,1/2-z
1/2+x,1/2+y,1/2-z
1/2-x,1/2+y,1/2+z
1/2+x,1/2-y,1/2+z
loop_
_atom_site_type_symbol
_atom_site_label
_atom_site_fract_x
_atom_site_fract_y
_atom_site_fract_z
Si Si1 0.000000 0.789510 0.670736
Si Si2 0.585492 0.000000 0.673381
Si Si3 0.644507 0.272475 0.334991
Si Si4 0.641842 0.551915 0.828920
Si Si5 0.696579 0.921489 0.670979
Si Si6 0.500000 0.394993 0.171949
Si Si7 0.233016 0.678785 0.835738
O O1 0.071634 0.765645 0.739080
O O2 0.000000 0.842365 0.716941
O O3 0.000000 0.781460 0.500000
O O4 0.629676 0.954173 0.732019
O O5 0.500000 0.000000 0.734447
O O6 0.582556 0.000000 0.500000
O O7 0.625697 0.286300 0.500000
O O8 0.696434 0.312824 0.269040
O O9 0.680304 0.222412 0.326496
O O10 0.620909 0.500000 0.790420
O O11 0.722976 0.564097 0.761761
O O12 0.575414 0.582789 0.761001
O O13 0.646235 0.560498 0.000000
O O14 0.697363 0.929920 0.500000
O O15 0.686361 0.867157 0.709782
O O16 0.500000 0.402763 0.000000
O O17 0.264214 0.672179 0.000000
#
# Coordination Sequence:
#
# PCOD8290373 Si02
#       7
#     8   8  16  16  16   8  16
#     4  11  21  34  51  72 102 139 173 212 256 301
#     4   9  16  26  40  65 100 132 161 201 258 313
#     4  10  20  34  51  74 104 136 172 213 254 301
#     4   9  14  21  35  58  93 124 151 190 239 291
#     4   9  15  26  43  66  96 130 162 200 254 309
#     4   9  17  25  38  63  92 128 163 193 236 290
#     4   9  18  33  53  75 100 133 169 210 259 310
#
# _framework density 18.423081
#
# number of rings (size 3 to 8) (size 9 to 14) (size 15 to 20)
#    0.000    2.636    0.909    2.182    0.000    4.727 
#    1.636    0.000    0.000    0.000    0.000    0.636 
#    0.000    5.091    0.000    0.000    0.000    0.000 
#
# Total GULP energy -545322.202900 kJ/mol
# GULP energy per Si atom -12393.686430 kJ/mol
# Density = 1.838115 g / cm^3
# Si number density = 18.423081 Si / 1000 Ang^3
#
#
#
# Elastic Constant Matrix: (Units=GPa)
#
#
# Indices 1 2 3 4 5 6 
#
# 1 113.0519 40.8518 25.9944 -0.0001 -0.0005 -0.0005
# 2 40.8518 86.8673 24.8452 -0.0003 -0.0005 -0.0003
# 3 25.9944 24.8452 55.7950 -0.0006 -0.0010 -0.0019
# 4 -0.0001 -0.0003 -0.0006 11.6822 -0.0003 0.0000
# 5 -0.0005 -0.0005 -0.0010 -0.0003 20.3444 -0.0001
# 6 -0.0005 -0.0003 -0.0019 0.0000 -0.0001 18.5602
#
#
#
# Elastic Compliance Matrix: (Units=1/GPa)
#
#
# Indices 1 2 3 4 5 6 
#
# 1 0.011156 -0.004309 -0.003279 0.000000 0.000000 0.000000
# 2 -0.004309 0.014856 -0.004608 0.000000 0.000000 0.000000
# 3 -0.003279 -0.004608 0.021502 0.000001 0.000001 0.000002
# 4 0.000000 0.000000 0.000001 0.085600 0.000001 0.000000
# 5 0.000000 0.000000 0.000001 0.000001 0.049153 0.000000
# 6 0.000000 0.000000 0.000002 0.000000 0.000000 0.053879
#
#
# Mechanical properties :
#
#
# Convention : Reuss Voigt Hill
#
# Bulk Modulus (GPa) = 43.24623 48.78855 46.01739
# Shear Modulus (GPa) = 18.63958 21.05222 19.84590
#
# Velocity S-wave (km/s) = 3.18425 3.38407 3.28568
# Velocity P-wave (km/s) = 6.08639 6.46599 6.27906
#
# Compressibility (1/GPa) = 0.02312340
#
# Stress axis : x y z
#
# Youngs Moduli (GPa) = 89.63420 67.31253 46.50672
#
# Poissons Ratio (x) = 0.29004 0.15250
# Poissons Ratio (y) = 0.38622 0.21430
# Poissons Ratio (z) = 0.29391 0.31017
#
# Static dielectric constant tensor:
#      x y z
#    x 3.585760 0.000000 0.000000 
#    y 0.000000 3.501880 0.000000 
#    z 0.000000 0.000000 2.921240 
# 
# 
# High freq. dielectric constant tensor:
#      x y z
#    x 1.717340 0.000000 0.000000 
#    y 0.000000 1.725820 0.000000 
#    z 0.000000 0.000000 1.648980 
# 
# From -- ./inp_files/8933.got.cif
#   From: 2010.06.25/outbox.cif.g09.slc.cpg/sg71_5_cif.got.tgz:8933.got - 2010.06.28 04:59:45.
