data_PCOD8290048
_publ_section_title
;
Structure prediction by ZEFSAII (Michael W. Deem and Ramdas Pophale) SiO2 
 PCOD8290048
Probable space group: I M M M
;
_chemical_formula_sum "Si O2"
_cell_formula_units_Z 88
_cell_length_a 13.684783
_cell_length_b 24.306207
_cell_length_c 14.768712
_cell_angle_alpha 90.000000
_cell_angle_beta 90.000000
_cell_angle_gamma 90.000000
_cell_volume 4912.445315
_symmetry_space_group_name_H-M "I M M M"
_symmetry_group_IT_number 71
_symmetry_cell_setting 'orthorhombic'
loop_
_space_group_symop_operation_xyz
x,y,z
-x,-y,z
x,-y,-z
-x,y,-z
-x,-y,-z
x,y,-z
-x,y,z
x,-y,z
1/2+x,1/2+y,1/2+z
1/2-x,1/2-y,1/2+z
1/2+x,1/2-y,1/2-z
1/2-x,1/2+y,1/2-z
1/2-x,1/2-y,1/2-z
1/2+x,1/2+y,1/2-z
1/2-x,1/2+y,1/2+z
1/2+x,1/2-y,1/2+z
loop_
_atom_site_type_symbol
_atom_site_label
_atom_site_fract_x
_atom_site_fract_y
_atom_site_fract_z
Si Si1 0.295884 0.742536 0.600426
Si Si2 0.793772 0.143393 0.768392
Si Si3 0.389026 0.311275 0.101989
Si Si4 0.886504 0.645679 0.844386
Si Si5 0.390368 0.435728 0.398602
Si Si6 0.884659 0.437667 0.000000
O O1 0.311640 0.717680 0.500000
O O2 0.322935 0.697591 0.675005
O O3 0.182390 0.759132 0.614238
O O4 0.365814 0.795432 0.609676
O O5 0.856538 0.142900 0.675200
O O6 0.678428 0.140961 0.746403
O O7 0.817451 0.090118 0.826488
O O8 0.500000 0.292055 0.119847
O O9 0.377900 0.335736 0.000000
O O10 0.000000 0.640964 0.818255
O O11 0.852579 0.596608 0.911387
O O12 0.354392 0.421795 0.500000
O O13 0.500000 0.412666 0.384533
O O14 0.389321 0.500000 0.381621
O O15 0.839737 0.500000 0.000000
O O16 0.000000 0.442062 0.000000
#
# Coordination Sequence:
#
# PCOD8290048 Si02
#       6
#    16  16  16  16  16   8
#     4  10  20  33  49  74 105 136 175 219 268 317
#     4  11  21  31  53  79 105 134 176 221 262 322
#     4   9  18  32  48  68 102 140 168 203 255 317
#     4  10  20  34  51  74 108 143 174 222 271 312
#     4   9  19  37  58  78 102 132 169 217 270 317
#     4   9  18  34  54  72  95 137 186 224 263 310
#
# _framework density 17.913685999999998
#
# number of rings (size 3 to 8) (size 9 to 14) (size 15 to 20)
#    0.000    2.273    0.909    3.818    1.273    4.364 
#    0.000    0.000    0.000    1.636    0.000    3.818 
#    0.000    0.000    0.000    0.000    0.000    0.000 
#
# Total GULP energy -545435.969898 kJ/mol
# GULP energy per Si atom -12396.272043 kJ/mol
# Density = 1.787291 g / cm^3
# Si number density = 17.913686 Si / 1000 Ang^3
#
#
#
# Elastic Constant Matrix: (Units=GPa)
#
#
# Indices 1 2 3 4 5 6 
#
# 1 86.0648 22.4229 41.1040 0.0000 0.0000 0.0000
# 2 22.4229 77.5299 46.9395 -0.0001 0.0000 0.0000
# 3 41.1040 46.9395 119.5667 -0.0002 0.0000 0.0000
# 4 0.0000 -0.0001 -0.0002 31.5728 0.0000 0.0000
# 5 0.0000 0.0000 0.0000 0.0000 24.1229 0.0000
# 6 0.0000 0.0000 0.0000 0.0000 0.0000 18.1704
#
#
#
# Elastic Compliance Matrix: (Units=1/GPa)
#
#
# Indices 1 2 3 4 5 6 
#
# 1 0.014032 -0.001492 -0.004238 0.000000 0.000000 0.000000
# 2 -0.001492 0.017079 -0.006192 0.000000 0.000000 0.000000
# 3 -0.004238 -0.006192 0.012251 0.000000 0.000000 0.000000
# 4 0.000000 0.000000 0.000000 0.031673 0.000000 0.000000
# 5 0.000000 0.000000 0.000000 0.000000 0.041454 0.000000
# 6 0.000000 0.000000 0.000000 0.000000 0.000000 0.055035
#
#
# Mechanical properties :
#
#
# Convention : Reuss Voigt Hill
#
# Bulk Modulus (GPa) = 51.23577 56.01049 53.62313
# Shear Modulus (GPa) = 24.76801 26.28622 25.52711
#
# Velocity S-wave (km/s) = 3.72241 3.83480 3.77902
# Velocity P-wave (km/s) = 6.86576 7.13739 7.00289
#
# Compressibility (1/GPa) = 0.01951761
#
# Stress axis : x y z
#
# Youngs Moduli (GPa) = 71.26569 58.55303 81.62512
#
# Poissons Ratio (x) = 0.08739 0.34592
# Poissons Ratio (y) = 0.10636 0.50539
# Poissons Ratio (z) = 0.30202 0.36254
#
# Static dielectric constant tensor:
#      x y z
#    x 3.338990 0.000000 0.000000 
#    y 0.000000 3.165270 0.000000 
#    z 0.000000 0.000000 3.531750 
# 
# 
# High freq. dielectric constant tensor:
#      x y z
#    x 1.685430 0.000000 0.000000 
#    y 0.000000 1.667270 0.000000 
#    z 0.000000 0.000000 1.703620 
# 
# From -- ./inp_files/34415.got.cif
#   From: 2010.06.25/outbox.cif.g09.slc.cpg/sg71_18_cif.got.tgz:34415.got - 2010.06.28 04:59:45.
