data_PCOD8290033
_publ_section_title
;
Structure prediction by ZEFSAII (Michael W. Deem and Ramdas Pophale) SiO2 
 PCOD8290033
Probable space group: I M M M
;
_chemical_formula_sum "Si O2"
_cell_formula_units_Z 72
_cell_length_a 32.689777
_cell_length_b 13.610831
_cell_length_c 9.119671
_cell_angle_alpha 90.000000
_cell_angle_beta 90.000000
_cell_angle_gamma 90.000000
_cell_volume 4057.661092
_symmetry_space_group_name_H-M "I M M M"
_symmetry_group_IT_number 71
_symmetry_cell_setting 'orthorhombic'
loop_
_space_group_symop_operation_xyz
x,y,z
-x,-y,z
x,-y,-z
-x,y,-z
-x,-y,-z
x,y,-z
-x,y,z
x,-y,z
1/2+x,1/2+y,1/2+z
1/2-x,1/2-y,1/2+z
1/2+x,1/2-y,1/2-z
1/2-x,1/2+y,1/2-z
1/2-x,1/2-y,1/2-z
1/2+x,1/2+y,1/2-z
1/2-x,1/2+y,1/2+z
1/2+x,1/2-y,1/2+z
loop_
_atom_site_type_symbol
_atom_site_label
_atom_site_fract_x
_atom_site_fract_y
_atom_site_fract_z
Si Si1 0.853448 0.391510 0.339007
Si Si2 0.861074 0.112685 0.172588
Si Si3 0.291075 0.276681 0.166979
Si Si4 0.081791 0.714476 0.171505
Si Si5 0.000000 0.614435 0.175317
O O1 0.874173 0.379196 0.500000
O O2 0.836766 0.500000 0.313112
O O3 0.814090 0.325415 0.327757
O O4 0.886134 0.369147 0.213706
O O5 0.818800 0.140622 0.253641
O O6 0.899550 0.180497 0.228222
O O7 0.872211 0.000000 0.208931
O O8 0.853894 0.128943 0.000000
O O9 0.250000 0.250000 0.250000
O O10 0.282307 0.311178 0.000000
O O11 0.038390 0.678240 0.237112
O O12 0.076741 0.720565 0.000000
O O13 0.000000 0.500000 0.232353
O O14 0.000000 0.610959 0.000000
#
# Coordination Sequence:
#
# PCOD8290033 Si02
#       5
#    16  16  16  16   8
#     4   9  18  32  48  66  91 122 152 186 232 281
#     4   9  18  33  51  69  93 128 167 206 246 284
#     4  10  20  33  49  71  97 124 157 197 240 288
#     4   9  17  30  48  70  95 124 159 195 233 284
#     4   9  16  26  44  72 102 127 153 193 244 291
#
# _framework density 17.744212000000001
#
# number of rings (size 3 to 8) (size 9 to 14) (size 15 to 20)
#    0.000    2.778    0.000    1.333    0.000    3.556 
#    0.000    3.333    0.000    5.333    0.000    0.000 
#    0.000    7.111    0.000    0.000    0.000    0.000 
#
# Total GULP energy -446010.400153 kJ/mol
# GULP energy per Si atom -12389.177782 kJ/mol
# Density = 1.770383 g / cm^3
# Si number density = 17.744212 Si / 1000 Ang^3
#
#
#
# Elastic Constant Matrix: (Units=GPa)
#
#
# Indices 1 2 3 4 5 6 
#
# 1 120.9651 59.7549 32.6047 0.0000 0.0000 0.0000
# 2 59.7549 127.7770 30.8277 0.0000 0.0000 0.0000
# 3 32.6047 30.8277 33.4668 0.0000 0.0000 0.0000
# 4 0.0000 0.0000 0.0000 19.4598 0.0000 0.0000
# 5 0.0000 0.0000 0.0000 0.0000 20.3713 0.0000
# 6 0.0000 0.0000 0.0000 0.0000 0.0000 16.7022
#
#
#
# Elastic Compliance Matrix: (Units=1/GPa)
#
#
# Indices 1 2 3 4 5 6 
#
# 1 0.012451 -0.003724 -0.008701 0.000000 0.000000 0.000000
# 2 -0.003724 0.011176 -0.006667 0.000000 0.000000 0.000000
# 3 -0.008701 -0.006667 0.044498 0.000000 0.000000 0.000000
# 4 0.000000 0.000000 0.000000 0.051388 0.000000 0.000000
# 5 0.000000 0.000000 0.000000 0.000000 0.049089 0.000000
# 6 0.000000 0.000000 0.000000 0.000000 0.000000 0.059872
#
#
# Mechanical properties :
#
#
# Convention : Reuss Voigt Hill
#
# Bulk Modulus (GPa) = 33.39675 58.73149 46.06412
# Shear Modulus (GPa) = 18.07416 21.90810 19.99113
#
# Velocity S-wave (km/s) = 3.19501 3.51759 3.36017
# Velocity P-wave (km/s) = 5.69849 7.04760 6.40865
#
# Compressibility (1/GPa) = 0.02994303
#
# Stress axis : x y z
#
# Youngs Moduli (GPa) = 80.31167 89.47721 22.47294
#
# Poissons Ratio (x) = 0.33320 0.19553
# Poissons Ratio (y) = 0.29907 0.14982
# Poissons Ratio (z) = 0.69876 0.59653
#
# Static dielectric constant tensor:
#      x y z
#    x 3.403480 0.000000 0.000000 
#    y 0.000000 3.529550 0.000000 
#    z 0.000000 0.000000 3.328880 
# 
# 
# High freq. dielectric constant tensor:
#      x y z
#    x 1.678610 0.000000 0.000000 
#    y 0.000000 1.689330 0.000000 
#    z 0.000000 0.000000 1.672710 
# 
# From -- ./inp_files/6446.got.cif
#   From: 2010.06.25/outbox.cif.g09.slc.cpg/sg71_4_cif.got.tgz:6446.got - 2010.06.28 04:59:45.
