data_PCOD8290279
_publ_section_title
;
Structure prediction by ZEFSAII (Michael W. Deem and Ramdas Pophale) SiO2 
 PCOD8290279
Probable space group: I M M M
;
_chemical_formula_sum "Si O2"
_cell_formula_units_Z 88
_cell_length_a 8.941838
_cell_length_b 26.256097
_cell_length_c 19.591937
_cell_angle_alpha 90.000000
_cell_angle_beta 90.000000
_cell_angle_gamma 90.000000
_cell_volume 4599.751198
_symmetry_space_group_name_H-M "I M M M"
_symmetry_group_IT_number 71
_symmetry_cell_setting 'orthorhombic'
loop_
_space_group_symop_operation_xyz
x,y,z
-x,-y,z
x,-y,-z
-x,y,-z
-x,-y,-z
x,y,-z
-x,y,z
x,-y,z
1/2+x,1/2+y,1/2+z
1/2-x,1/2-y,1/2+z
1/2+x,1/2-y,1/2-z
1/2-x,1/2+y,1/2-z
1/2-x,1/2-y,1/2-z
1/2+x,1/2+y,1/2-z
1/2-x,1/2+y,1/2+z
1/2+x,1/2-y,1/2+z
loop_
_atom_site_type_symbol
_atom_site_label
_atom_site_fract_x
_atom_site_fract_y
_atom_site_fract_z
Si Si1 0.822695 0.396569 0.389554
Si Si2 0.323331 0.327951 0.500000
Si Si3 0.826753 0.138059 0.609537
Si Si4 0.675108 0.101536 0.266952
Si Si5 0.670919 0.277361 0.000000
Si Si6 0.665961 0.500000 0.769013
Si Si7 0.677907 0.557793 0.000000
Si Si8 0.332364 0.500000 0.607639
O O1 0.749066 0.351633 0.432336
O O2 0.778443 0.386097 0.310770
O O3 0.756967 0.450102 0.416788
O O4 0.000000 0.397393 0.400296
O O5 0.500000 0.337038 0.500000
O O6 0.287699 0.268380 0.500000
O O7 0.735585 0.144077 0.680574
O O8 0.799076 0.189254 0.567111
O O9 0.768186 0.088935 0.566797
O O10 0.000000 0.131694 0.627642
O O11 0.500000 0.095959 0.272251
O O12 0.747675 0.049479 0.294270
O O13 0.500000 0.257129 0.000000
O O14 0.500000 0.500000 0.801297
O O15 0.658551 0.500000 0.688192
O O16 0.742711 0.500000 0.000000
O O17 0.500000 0.557262 0.000000
O O18 0.500000 0.500000 0.576168
#
# Coordination Sequence:
#
# PCOD8290279 Si02
#       8
#    16   8  16  16   8   8   8   8
#     4  10  21  38  58  82 115 154 185 217 274 342
#     4  12  25  40  62  86 105 133 183 243 289 329
#     4   9  18  33  56  81 108 148 189 227 272 327
#     4  10  20  33  52  81 116 148 183 226 273 328
#     4   9  20  41  61  80 108 145 188 229 282 345
#     4   9  17  29  48  73 108 153 188 216 260 315
#     4   8  15  28  47  77 112 145 188 226 258 315
#     4   9  17  32  54  83 116 144 179 224 261 310
#
# _framework density 19.13147
#
# number of rings (size 3 to 8) (size 9 to 14) (size 15 to 20)
#    0.000    2.455    0.000    3.545    1.273    5.455 
#    0.000    4.091    0.000    0.545    0.000    0.000 
#    0.000    0.000    0.000    0.000    0.000    0.000 
#
# Total GULP energy -545541.051076 kJ/mol
# GULP energy per Si atom -12398.660252 kJ/mol
# Density = 1.908793 g / cm^3
# Si number density = 19.131470 Si / 1000 Ang^3
#
#
#
# Elastic Constant Matrix: (Units=GPa)
#
#
# Indices 1 2 3 4 5 6 
#
# 1 99.7536 43.6076 53.7778 0.0000 0.0000 0.0000
# 2 43.6076 99.9250 46.7269 0.0000 0.0000 0.0000
# 3 53.7778 46.7269 113.5539 0.0000 0.0000 0.0000
# 4 0.0000 0.0000 0.0000 18.8329 0.0000 0.0000
# 5 0.0000 0.0000 0.0000 0.0000 29.5130 0.0000
# 6 0.0000 0.0000 0.0000 0.0000 0.0000 31.5824
#
#
#
# Elastic Compliance Matrix: (Units=1/GPa)
#
#
# Indices 1 2 3 4 5 6 
#
# 1 0.014584 -0.003882 -0.005310 0.000000 0.000000 0.000000
# 2 -0.003882 0.013425 -0.003686 0.000000 0.000000 0.000000
# 3 -0.005310 -0.003686 0.012838 0.000000 0.000000 0.000000
# 4 0.000000 0.000000 0.000000 0.053099 0.000000 0.000000
# 5 0.000000 0.000000 0.000000 0.000000 0.033883 0.000000
# 6 0.000000 0.000000 0.000000 0.000000 0.000000 0.031663
#
#
# Mechanical properties :
#
#
# Convention : Reuss Voigt Hill
#
# Bulk Modulus (GPa) = 66.25877 66.82856 66.54367
# Shear Modulus (GPa) = 26.27743 27.26034 26.76888
#
# Velocity S-wave (km/s) = 3.71012 3.77887 3.74466
# Velocity P-wave (km/s) = 7.28436 7.35166 7.31809
#
# Compressibility (1/GPa) = 0.01509234
#
# Stress axis : x y z
#
# Youngs Moduli (GPa) = 68.56838 74.48707 77.89542
#
# Poissons Ratio (x) = 0.28913 0.41359
# Poissons Ratio (y) = 0.26616 0.28713
# Poissons Ratio (z) = 0.36407 0.27456
#
# Static dielectric constant tensor:
#      x y z
#    x 3.432370 0.000000 0.000000 
#    y 0.000000 3.369750 0.000000 
#    z 0.000000 0.000000 3.533620 
# 
# 
# High freq. dielectric constant tensor:
#      x y z
#    x 1.738300 0.000000 0.000000 
#    y 0.000000 1.723660 0.000000 
#    z 0.000000 0.000000 1.748970 
# 
# From -- ./inp_files/50631.got.cif
#   From: 2010.06.25/outbox.cif.g09.slc.cpg/sg71_26_cif.got.tgz:50631.got - 2010.06.28 04:59:45.
