data_PCOD8290009
_publ_section_title
;
Structure prediction by ZEFSAII (Michael W. Deem and Ramdas Pophale) SiO2 
 PCOD8290009
Probable space group: I M M M
;
_chemical_formula_sum "Si O2"
_cell_formula_units_Z 112
_cell_length_a 20.403888
_cell_length_b 22.357928
_cell_length_c 13.507795
_cell_angle_alpha 90.000000
_cell_angle_beta 90.000000
_cell_angle_gamma 90.000000
_cell_volume 6162.102885
_symmetry_space_group_name_H-M "I M M M"
_symmetry_group_IT_number 71
_symmetry_cell_setting 'orthorhombic'
loop_
_space_group_symop_operation_xyz
x,y,z
-x,-y,z
x,-y,-z
-x,y,-z
-x,-y,-z
x,y,-z
-x,y,z
x,-y,z
1/2+x,1/2+y,1/2+z
1/2-x,1/2-y,1/2+z
1/2+x,1/2-y,1/2-z
1/2-x,1/2+y,1/2-z
1/2-x,1/2-y,1/2-z
1/2+x,1/2+y,1/2-z
1/2-x,1/2+y,1/2+z
1/2+x,1/2-y,1/2+z
loop_
_atom_site_type_symbol
_atom_site_label
_atom_site_fract_x
_atom_site_fract_y
_atom_site_fract_z
Si Si1 0.663534 0.657849 0.385914
Si Si2 0.876031 0.435022 0.611587
Si Si3 0.274904 0.109075 0.744430
Si Si4 0.926660 0.693398 0.385718
Si Si5 0.423381 0.430400 0.282843
Si Si6 0.665713 0.568815 0.108035
Si Si7 0.175720 0.269582 0.230121
O O1 0.682758 0.660029 0.500000
O O2 0.725688 0.637623 0.323605
O O3 0.603852 0.610859 0.371282
O O4 0.643626 0.725087 0.350662
O O5 0.846902 0.429110 0.500000
O O6 0.912334 0.500000 0.621478
O O7 0.818186 0.436861 0.692814
O O8 0.922730 0.378470 0.632188
O O9 0.237391 0.076487 0.655683
O O10 0.319622 0.161351 0.694724
O O11 0.914672 0.708925 0.500000
O O12 0.871652 0.730874 0.326566
O O13 0.000000 0.712731 0.352791
O O14 0.500000 0.421362 0.272804
O O15 0.405088 0.500000 0.303213
O O16 0.390130 0.405935 0.181432
O O17 0.651423 0.500000 0.091766
O O18 0.662173 0.600890 0.000000
O O19 0.250000 0.250000 0.250000
#
# Coordination Sequence:
#
# PCOD8290009 Si02
#       7
#    16  16  16  16  16  16  16
#     4  10  20  33  49  69  92 120 157 201 247 293
#     4   9  16  26  45  74 104 134 167 200 237 286
#     4   9  17  31  47  68  98 130 160 197 243 293
#     4   9  18  33  52  74 104 139 170 206 253 301
#     4   9  19  35  51  68  93 123 155 194 244 303
#     4   9  17  29  47  71  97 125 158 198 241 285
#     4   9  19  33  50  72  98 130 168 207 246 291
#
# _framework density 18.175612999999998
#
# number of rings (size 3 to 8) (size 9 to 14) (size 15 to 20)
#    0.000    2.857    0.000    0.857    0.000    6.286 
#    0.000    9.286    0.000    0.000    0.000    0.000 
#    0.000    0.000    0.000   15.143    0.000    0.429 
#
# Total GULP energy -693737.179893 kJ/mol
# GULP energy per Si atom -12388.163927 kJ/mol
# Density = 1.813424 g / cm^3
# Si number density = 18.175613 Si / 1000 Ang^3
#
#
#
# Elastic Constant Matrix: (Units=GPa)
#
#
# Indices 1 2 3 4 5 6 
#
# 1 84.6640 20.0186 27.6123 0.0000 0.0000 0.0000
# 2 20.0186 59.9649 30.4941 0.0000 0.0000 0.0000
# 3 27.6123 30.4941 82.7361 0.0000 0.0000 0.0000
# 4 0.0000 0.0000 0.0000 25.0054 0.0000 0.0000
# 5 0.0000 0.0000 0.0000 0.0000 19.2384 0.0000
# 6 0.0000 0.0000 0.0000 0.0000 0.0000 22.3696
#
#
#
# Elastic Compliance Matrix: (Units=1/GPa)
#
#
# Indices 1 2 3 4 5 6 
#
# 1 0.013613 -0.002749 -0.003530 0.000000 0.000000 0.000000
# 2 -0.002749 0.021078 -0.006851 0.000000 0.000000 0.000000
# 3 -0.003530 -0.006851 0.015790 0.000000 0.000000 0.000000
# 4 0.000000 0.000000 0.000000 0.039991 0.000000 0.000000
# 5 0.000000 0.000000 0.000000 0.000000 0.051979 0.000000
# 6 0.000000 0.000000 0.000000 0.000000 0.000000 0.044704
#
#
# Mechanical properties :
#
#
# Convention : Reuss Voigt Hill
#
# Bulk Modulus (GPa) = 41.28823 42.62389 41.95606
# Shear Modulus (GPa) = 22.57445 23.27202 22.92324
#
# Velocity S-wave (km/s) = 3.52805 3.58215 3.55520
# Velocity P-wave (km/s) = 6.27390 6.37268 6.32348
#
# Compressibility (1/GPa) = 0.02421998
#
# Stress axis : x y z
#
# Youngs Moduli (GPa) = 73.46095 47.44191 63.33197
#
# Poissons Ratio (x) = 0.13044 0.22354
# Poissons Ratio (y) = 0.20198 0.43391
# Poissons Ratio (z) = 0.25930 0.32504
#
# Static dielectric constant tensor:
#      x y z
#    x 3.246570 0.000000 0.000000 
#    y 0.000000 3.637560 0.000000 
#    z 0.000000 0.000000 3.485050 
# 
# 
# High freq. dielectric constant tensor:
#      x y z
#    x 1.685070 0.000000 0.000000 
#    y 0.000000 1.707540 0.000000 
#    z 0.000000 0.000000 1.683820 
# 
# From -- ./inp_files/27818.got.cif
#   From: 2010.06.25/outbox.cif.g09.slc.cpg/sg71_14_cif.got.tgz:27818.got - 2010.06.28 04:59:45.
