data_PCOD8290258
_publ_section_title
;
Structure prediction by ZEFSAII (Michael W. Deem and Ramdas Pophale) SiO2 
 PCOD8290258
Probable space group: I M M M
;
_chemical_formula_sum "Si O2"
_cell_formula_units_Z 80
_cell_length_a 9.157915
_cell_length_b 26.025102
_cell_length_c 18.165465
_cell_angle_alpha 90.000000
_cell_angle_beta 90.000000
_cell_angle_gamma 90.000000
_cell_volume 4329.478308
_symmetry_space_group_name_H-M "I M M M"
_symmetry_group_IT_number 71
_symmetry_cell_setting 'orthorhombic'
loop_
_space_group_symop_operation_xyz
x,y,z
-x,-y,z
x,-y,-z
-x,y,-z
-x,-y,-z
x,y,-z
-x,y,z
x,-y,z
1/2+x,1/2+y,1/2+z
1/2-x,1/2-y,1/2+z
1/2+x,1/2-y,1/2-z
1/2-x,1/2+y,1/2-z
1/2-x,1/2-y,1/2-z
1/2+x,1/2+y,1/2-z
1/2-x,1/2+y,1/2+z
1/2+x,1/2-y,1/2+z
loop_
_atom_site_type_symbol
_atom_site_label
_atom_site_fract_x
_atom_site_fract_y
_atom_site_fract_z
Si Si1 0.836267 0.556680 0.412653
Si Si2 0.331429 0.655896 0.412838
Si Si3 0.165014 0.555972 0.087514
Si Si4 0.826254 0.254085 0.327901
Si Si5 0.170885 0.153820 0.416558
O O1 0.837121 0.556112 0.500000
O O2 0.787375 0.500000 0.383850
O O3 0.723711 0.600049 0.384975
O O4 0.000000 0.569205 0.384025
O O5 0.310035 0.662301 0.500000
O O6 0.500000 0.662037 0.389916
O O7 0.233417 0.697807 0.372823
O O8 0.221752 0.500000 0.115707
O O9 0.260053 0.602635 0.120002
O O10 0.000000 0.564219 0.114279
O O11 0.174617 0.556697 0.000000
O O12 0.750000 0.250000 0.250000
O O13 0.779526 0.203062 0.371138
O O14 0.000000 0.259093 0.319430
O O15 0.226502 0.161838 0.500000
O O16 0.000000 0.145811 0.414176
#
# Coordination Sequence:
#
# PCOD8290258 Si02
#       5
#    16  16  16  16  16
#     4   8  14  26  46  73 104 136 168 203 247 298
#     4  10  20  33  52  79 107 135 170 210 252 302
#     4   8  14  25  43  70 102 131 158 192 236 285
#     4  11  23  38  54  72  99 134 172 215 261 308
#     4   9  18  32  51  75 100 128 163 202 245 293
#
# _framework density 18.477976000000002
#
# number of rings (size 3 to 8) (size 9 to 14) (size 15 to 20)
#    0.000    2.800    0.000    3.000    0.000    4.400 
#    0.000    6.000    0.000    1.200    0.000    5.600 
#    0.000    0.000    0.000    0.000    0.000    0.000 
#
# Total GULP energy -495791.186619 kJ/mol
# GULP energy per Si atom -12394.779665 kJ/mol
# Density = 1.843592 g / cm^3
# Si number density = 18.477976 Si / 1000 Ang^3
#
#
#
# Elastic Constant Matrix: (Units=GPa)
#
#
# Indices 1 2 3 4 5 6 
#
# 1 79.4664 73.9485 35.4577 0.0000 0.0000 0.0000
# 2 73.9485 187.6916 49.9238 0.0000 0.0000 0.0000
# 3 35.4577 49.9238 48.6356 0.0001 0.0000 0.0000
# 4 0.0000 0.0000 0.0001 -3.4237 0.0000 0.0000
# 5 0.0000 0.0000 0.0000 0.0000 21.9934 0.0000
# 6 0.0000 0.0000 0.0000 0.0000 0.0000 36.1684
#
#
#
# Elastic Compliance Matrix: (Units=1/GPa)
#
#
# Indices 1 2 3 4 5 6 
#
# 1 0.023105 -0.006359 -0.010317 0.000000 0.000000 0.000000
# 2 -0.006359 0.009079 -0.004684 0.000000 0.000000 0.000000
# 3 -0.010317 -0.004684 0.032891 0.000001 0.000000 0.000000
# 4 0.000000 0.000000 0.000001 -0.292083 0.000000 0.000000
# 5 0.000000 0.000000 0.000000 0.000000 0.045468 0.000000
# 6 0.000000 0.000000 0.000000 0.000000 0.000000 0.027648
#
#
# Mechanical properties :
#
#
# Convention : Reuss Voigt Hill
#
# Bulk Modulus (GPa) = 44.73284 70.49481 57.61382
# Shear Modulus (GPa) = -48.20593 21.37852 -13.41370
#
# Velocity S-wave (km/s) = -5.11321 3.40512 -2.69723
# Velocity P-wave (km/s) = 3.25556 7.32757 4.64191
#
# Compressibility (1/GPa) = 0.02235494
#
# Stress axis : x y z
#
# Youngs Moduli (GPa) = 43.28125 110.14507 30.40385
#
# Poissons Ratio (x) = 0.70038 0.31369
# Poissons Ratio (y) = 0.27521 0.14240
# Poissons Ratio (z) = 0.44655 0.51587
#
# Static dielectric constant tensor:
#      x y z
#    x 3.464020 0.000000 0.000000 
#    y 0.000000 3.960610 0.000000 
#    z 0.000000 0.000000 3.026080 
# 
# 
# High freq. dielectric constant tensor:
#      x y z
#    x 1.715970 0.000000 0.000000 
#    y 0.000000 1.739400 0.000000 
#    z 0.000000 0.000000 1.665490 
# 
# From -- ./inp_files/8326.got.cif
#   From: 2010.06.25/outbox.cif.g09.slc.cpg/sg71_5_cif.got.tgz:8326.got - 2010.06.28 04:59:45.
