data_PCOD8290254
_publ_section_title
;
Structure prediction by ZEFSAII (Michael W. Deem and Ramdas Pophale) SiO2 
 PCOD8290254
Probable space group: I M M M
;
_chemical_formula_sum "Si O2"
_cell_formula_units_Z 104
_cell_length_a 20.952430
_cell_length_b 8.967587
_cell_length_c 29.268310
_cell_angle_alpha 90.000000
_cell_angle_beta 90.000000
_cell_angle_gamma 90.000000
_cell_volume 5499.302928
_symmetry_space_group_name_H-M "I M M M"
_symmetry_group_IT_number 71
_symmetry_cell_setting 'orthorhombic'
loop_
_space_group_symop_operation_xyz
x,y,z
-x,-y,z
x,-y,-z
-x,y,-z
-x,-y,-z
x,y,-z
-x,y,z
x,-y,z
1/2+x,1/2+y,1/2+z
1/2-x,1/2-y,1/2+z
1/2+x,1/2-y,1/2-z
1/2-x,1/2+y,1/2-z
1/2-x,1/2-y,1/2-z
1/2+x,1/2+y,1/2-z
1/2-x,1/2+y,1/2+z
1/2+x,1/2-y,1/2+z
loop_
_atom_site_type_symbol
_atom_site_label
_atom_site_fract_x
_atom_site_fract_y
_atom_site_fract_z
Si Si1 0.071868 0.334053 0.086016
Si Si2 0.260314 0.326421 0.118573
Si Si3 0.288046 0.325079 0.709161
Si Si4 0.627315 0.676171 0.947794
Si Si5 0.428344 0.327695 0.319081
Si Si6 0.500000 0.834542 0.945992
Si Si7 0.176866 0.167520 0.050681
O O1 0.102148 0.500000 0.083371
O O2 0.078379 0.277537 0.137727
O O3 0.102983 0.214963 0.051038
O O4 0.000000 0.341474 0.069896
O O5 0.264700 0.500000 0.131153
O O6 0.247327 0.232570 0.163738
O O7 0.321750 0.270187 0.089856
O O8 0.203545 0.294406 0.083766
O O9 0.276878 0.500000 0.712129
O O10 0.250000 0.250000 0.750000
O O11 0.365124 0.289855 0.711815
O O12 0.620239 0.500000 0.947686
O O13 0.562076 0.746696 0.929487
O O14 0.644330 0.729265 0.000000
O O15 0.500000 0.300842 0.296244
O O16 0.423503 0.500000 0.334321
O O17 0.500000 0.000000 0.924535
O O18 0.500000 0.843235 0.000000
O O19 0.187112 0.000000 0.069663
O O20 0.205798 0.179296 0.000000
#
# Coordination Sequence:
#
# PCOD8290254 Si02
#       7
#    16  16  16  16  16   8  16
#     4  10  20  33  52  78 107 143 188 236 282 327
#     4  11  22  37  58  83 113 147 188 235 283 334
#     4  11  23  39  62  89 117 148 187 233 287 346
#     4   9  18  33  54  80 111 149 190 230 276 334
#     4   9  18  35  60  86 112 145 186 231 280 339
#     4   9  17  29  49  79 111 145 187 233 277 327
#     4  11  23  36  51  75 110 152 193 232 279 334
#
# _framework density 18.911487999999999
#
# number of rings (size 3 to 8) (size 9 to 14) (size 15 to 20)
#    0.000    1.923    1.538    2.538    0.000    5.846 
#    0.000    3.077    1.692    0.000    0.000    0.000 
#    0.000    0.000    0.000    0.000    0.000    0.000 
#
# Total GULP energy -644191.834331 kJ/mol
# GULP energy per Si atom -12388.304506 kJ/mol
# Density = 1.886844 g / cm^3
# Si number density = 18.911488 Si / 1000 Ang^3
#
#
#
# Elastic Constant Matrix: (Units=GPa)
#
#
# Indices 1 2 3 4 5 6 
#
# 1 130.5399 47.0921 60.9689 0.0000 0.0000 0.0000
# 2 47.0921 64.9826 35.1250 0.0000 0.0000 0.0000
# 3 60.9689 35.1250 87.2119 0.0000 0.0000 0.0000
# 4 0.0000 0.0000 0.0000 26.9341 0.0000 0.0000
# 5 0.0000 0.0000 0.0000 0.0000 28.2622 0.0000
# 6 0.0000 0.0000 0.0000 0.0000 0.0000 27.8032
#
#
#
# Elastic Compliance Matrix: (Units=1/GPa)
#
#
# Indices 1 2 3 4 5 6 
#
# 1 0.012833 -0.005689 -0.006680 0.000000 0.000000 0.000000
# 2 -0.005689 0.022193 -0.004961 0.000000 0.000000 0.000000
# 3 -0.006680 -0.004961 0.018134 0.000000 0.000000 0.000000
# 4 0.000000 0.000000 0.000000 0.037128 0.000000 0.000000
# 5 0.000000 0.000000 0.000000 0.000000 0.035383 0.000000
# 6 0.000000 0.000000 0.000000 0.000000 0.000000 0.035967
#
#
# Mechanical properties :
#
#
# Convention : Reuss Voigt Hill
#
# Bulk Modulus (GPa) = 54.05459 63.23404 58.64432
# Shear Modulus (GPa) = 24.69565 25.90314 25.29939
#
# Velocity S-wave (km/s) = 3.61758 3.70497 3.66153
# Velocity P-wave (km/s) = 6.78927 7.19804 6.99664
#
# Compressibility (1/GPa) = 0.01849982
#
# Stress axis : x y z
#
# Youngs Moduli (GPa) = 77.92638 45.05887 55.14393
#
# Poissons Ratio (x) = 0.25634 0.36836
# Poissons Ratio (y) = 0.44332 0.27359
# Poissons Ratio (z) = 0.52054 0.22355
#
# Static dielectric constant tensor:
#      x y z
#    x 3.961150 0.000000 0.000000 
#    y 0.000000 3.565040 0.000000 
#    z 0.000000 0.000000 3.228490 
# 
# 
# High freq. dielectric constant tensor:
#      x y z
#    x 1.748450 0.000000 0.000000 
#    y 0.000000 1.745010 0.000000 
#    z 0.000000 0.000000 1.693190 
# 
# From -- ./inp_files/70717.got.cif
#   From: 2010.06.25/outbox.cif.g09.slc.cpg/sg71_36_cif.got.tgz:70717.got - 2010.06.28 04:59:45.
