data_PCOD8290374
_publ_section_title
;
Structure prediction by ZEFSAII (Michael W. Deem and Ramdas Pophale) SiO2 
 PCOD8290374
Probable space group: I M M M
;
_chemical_formula_sum "Si O2"
_cell_formula_units_Z 88
_cell_length_a 20.519565
_cell_length_b 12.727391
_cell_length_c 18.651164
_cell_angle_alpha 90.000000
_cell_angle_beta 90.000000
_cell_angle_gamma 90.000000
_cell_volume 4870.947818
_symmetry_space_group_name_H-M "I M M M"
_symmetry_group_IT_number 71
_symmetry_cell_setting 'orthorhombic'
loop_
_space_group_symop_operation_xyz
x,y,z
-x,-y,z
x,-y,-z
-x,y,-z
-x,-y,-z
x,y,-z
-x,y,z
x,-y,z
1/2+x,1/2+y,1/2+z
1/2-x,1/2-y,1/2+z
1/2+x,1/2-y,1/2-z
1/2-x,1/2+y,1/2-z
1/2-x,1/2-y,1/2-z
1/2+x,1/2+y,1/2-z
1/2-x,1/2+y,1/2+z
1/2+x,1/2-y,1/2+z
loop_
_atom_site_type_symbol
_atom_site_label
_atom_site_fract_x
_atom_site_fract_y
_atom_site_fract_z
Si Si1 0.924527 0.618923 0.305376
Si Si2 0.777006 0.124577 0.678134
Si Si3 0.872960 0.760243 0.583980
Si Si4 0.151176 0.753855 0.200132
Si Si5 0.000000 0.884497 0.415236
Si Si6 0.574794 0.378203 0.582865
O O1 0.906804 0.500000 0.284497
O O2 0.879497 0.649821 0.373983
O O3 0.908221 0.695268 0.239415
O O4 0.000000 0.630105 0.325924
O O5 0.809505 0.175153 0.607316
O O6 0.816314 0.158350 0.749127
O O7 0.703435 0.165430 0.679581
O O8 0.777245 0.000000 0.671473
O O9 0.870769 0.737555 0.500000
O O10 0.935574 0.825838 0.610464
O O11 0.123718 0.808559 0.129367
O O12 0.000000 0.893321 0.500000
O O13 0.000000 0.000000 0.379975
O O14 0.589016 0.352774 0.500000
O O15 0.500000 0.350867 0.601703
O O16 0.588386 0.500000 0.599120
#
# Coordination Sequence:
#
# PCOD8290374 Si02
#       6
#    16  16  16  16   8  16
#     4  10  20  34  54  78 104 138 178 218 264 315
#     4  10  21  35  52  75 105 144 183 218 259 310
#     4  10  20  34  51  75 104 137 178 221 265 313
#     4  10  20  35  55  77 107 140 177 219 261 312
#     4   9  16  28  47  69  97 131 165 210 262 305
#     4   9  18  34  58  86 111 135 167 213 270 322
#
# _framework density 18.066298
#
# number of rings (size 3 to 8) (size 9 to 14) (size 15 to 20)
#    0.000    2.273    0.909    2.727    0.000    2.182 
#    0.000    1.818    0.000    1.636    0.000    6.364 
#    0.000    0.000    0.000    0.000    0.000    0.000 
#
# Total GULP energy -545619.563104 kJ/mol
# GULP energy per Si atom -12400.444616 kJ/mol
# Density = 1.802518 g / cm^3
# Si number density = 18.066298 Si / 1000 Ang^3
#
#
#
# Elastic Constant Matrix: (Units=GPa)
#
#
# Indices 1 2 3 4 5 6 
#
# 1 72.7528 41.7598 41.4401 0.0000 0.0000 0.0000
# 2 41.7598 105.3236 47.1566 0.0000 0.0000 0.0000
# 3 41.4401 47.1566 99.9058 0.0000 0.0000 0.0000
# 4 0.0000 0.0000 0.0000 22.7148 0.0000 0.0000
# 5 0.0000 0.0000 0.0000 0.0000 28.6413 0.0000
# 6 0.0000 0.0000 0.0000 0.0000 0.0000 27.8618
#
#
#
# Elastic Compliance Matrix: (Units=1/GPa)
#
#
# Indices 1 2 3 4 5 6 
#
# 1 0.020149 -0.005385 -0.005816 0.000000 0.000000 0.000000
# 2 -0.005385 0.013478 -0.004128 0.000000 0.000000 0.000000
# 3 -0.005816 -0.004128 0.014370 0.000000 0.000000 0.000000
# 4 0.000000 0.000000 0.000000 0.044024 0.000000 0.000000
# 5 0.000000 0.000000 0.000000 0.000000 0.034915 0.000000
# 6 0.000000 0.000000 0.000000 0.000000 0.000000 0.035891
#
#
# Mechanical properties :
#
#
# Convention : Reuss Voigt Hill
#
# Bulk Modulus (GPa) = 57.67234 59.85505 58.76369
# Shear Modulus (GPa) = 25.09226 25.68528 25.38877
#
# Velocity S-wave (km/s) = 3.73084 3.77467 3.75281
# Velocity P-wave (km/s) = 7.10991 7.22497 7.16767
#
# Compressibility (1/GPa) = 0.01733933
#
# Stress axis : x y z
#
# Youngs Moduli (GPa) = 49.63080 74.19568 69.58798
#
# Poissons Ratio (x) = 0.39953 0.40471
# Poissons Ratio (y) = 0.26726 0.28727
# Poissons Ratio (z) = 0.28864 0.30629
#
# Static dielectric constant tensor:
#      x y z
#    x 3.328570 0.000000 0.000000 
#    y 0.000000 3.339910 0.000000 
#    z 0.000000 0.000000 3.176420 
# 
# 
# High freq. dielectric constant tensor:
#      x y z
#    x 1.701320 0.000000 0.000000 
#    y 0.000000 1.700820 0.000000 
#    z 0.000000 0.000000 1.689720 
# 
# From -- ./inp_files/25660.got.cif
#   From: 2010.06.25/outbox.cif.g09.slc.cpg/sg71_13_cif.got.tgz:25660.got - 2010.06.28 04:59:45.
