data_PCOD8290110
_publ_section_title
;
Structure prediction by ZEFSAII (Michael W. Deem and Ramdas Pophale) SiO2 
 PCOD8290110
Probable space group: I M M M
;
_chemical_formula_sum "Si O2"
_cell_formula_units_Z 104
_cell_length_a 29.412617
_cell_length_b 7.862231
_cell_length_c 21.874630
_cell_angle_alpha 90.000000
_cell_angle_beta 90.000000
_cell_angle_gamma 90.000000
_cell_volume 5058.481701
_symmetry_space_group_name_H-M "I M M M"
_symmetry_group_IT_number 71
_symmetry_cell_setting 'orthorhombic'
loop_
_space_group_symop_operation_xyz
x,y,z
-x,-y,z
x,-y,-z
-x,y,-z
-x,-y,-z
x,y,-z
-x,y,z
x,-y,z
1/2+x,1/2+y,1/2+z
1/2-x,1/2-y,1/2+z
1/2+x,1/2-y,1/2-z
1/2-x,1/2+y,1/2-z
1/2-x,1/2-y,1/2-z
1/2+x,1/2+y,1/2-z
1/2-x,1/2+y,1/2+z
1/2+x,1/2-y,1/2+z
loop_
_atom_site_type_symbol
_atom_site_label
_atom_site_fract_x
_atom_site_fract_y
_atom_site_fract_z
Si Si1 0.947771 0.306568 0.252059
Si Si2 0.552150 0.000000 0.071955
Si Si3 0.450438 0.201993 0.385300
Si Si4 0.192965 0.804853 0.308618
Si Si5 0.355922 0.799334 0.432061
Si Si6 0.710107 0.303856 0.675029
Si Si7 0.602394 0.693480 0.863497
O O1 0.929764 0.500000 0.258979
O O2 0.940774 0.237134 0.183607
O O3 0.920141 0.184234 0.296590
O O4 0.000000 0.298881 0.270934
O O5 0.576071 0.173247 0.094046
O O6 0.500000 0.000000 0.095273
O O7 0.554690 0.000000 0.000000
O O8 0.500000 0.273067 0.407985
O O9 0.408192 0.266402 0.426064
O O10 0.453389 0.000000 0.386204
O O11 0.241605 0.781212 0.341450
O O12 0.192315 0.723680 0.239584
O O13 0.153604 0.732505 0.353088
O O14 0.180462 0.000000 0.301184
O O15 0.338962 0.747230 0.500000
O O16 0.324523 0.717620 0.380630
O O17 0.354227 0.000000 0.422831
O O18 0.720337 0.500000 0.685662
O O19 0.601217 0.500000 0.891172
#
# Coordination Sequence:
#
# PCOD8290110 Si02
#       7
#    16   8  16  16  16  16  16
#     4   9  16  28  49  79 114 147 183 232 287 339
#     4  11  26  46  64  86 120 160 205 253 298 360
#     4   8  15  28  48  76 108 146 193 240 286 333
#     4   9  20  37  58  90 120 141 179 238 297 356
#     4  10  20  33  50  74 108 151 195 237 279 327
#     4  10  20  35  58  85 115 150 188 231 290 355
#     4  11  22  37  62  91 120 154 194 242 300 360
#
# _framework density 20.559528
#
# number of rings (size 3 to 8) (size 9 to 14) (size 15 to 20)
#    0.000    2.385    0.769    2.769    1.077    2.769 
#    0.000    3.077    0.000    2.308    0.000    1.077 
#    0.000    0.000    0.000    0.000    0.000    0.000 
#
# Total GULP energy -644403.370080 kJ/mol
# GULP energy per Si atom -12392.372502 kJ/mol
# Density = 2.051273 g / cm^3
# Si number density = 20.559528 Si / 1000 Ang^3
#
#
#
# Elastic Constant Matrix: (Units=GPa)
#
#
# Indices 1 2 3 4 5 6 
#
# 1 133.4914 29.3188 52.4533 0.0000 0.0000 0.0000
# 2 29.3188 59.3238 18.2563 0.0000 0.0000 0.0000
# 3 52.4533 18.2563 76.3088 0.0000 0.0000 0.0000
# 4 0.0000 0.0000 0.0000 17.0263 0.0000 0.0000
# 5 0.0000 0.0000 0.0000 0.0000 25.4376 0.0000
# 6 0.0000 0.0000 0.0000 0.0000 0.0000 19.8845
#
#
#
# Elastic Compliance Matrix: (Units=1/GPa)
#
#
# Indices 1 2 3 4 5 6 
#
# 1 0.010832 -0.003305 -0.006655 0.000000 0.000000 0.000000
# 2 -0.003305 0.019205 -0.002323 0.000000 0.000000 0.000000
# 3 -0.006655 -0.002323 0.018235 0.000000 0.000000 0.000000
# 4 0.000000 0.000000 0.000000 0.058733 0.000000 0.000000
# 5 0.000000 0.000000 0.000000 0.000000 0.039312 0.000000
# 6 0.000000 0.000000 0.000000 0.000000 0.000000 0.050290
#
#
# Mechanical properties :
#
#
# Convention : Reuss Voigt Hill
#
# Bulk Modulus (GPa) = 42.18346 52.13118 47.15732
# Shear Modulus (GPa) = 21.82694 23.74272 22.78483
#
# Velocity S-wave (km/s) = 3.26183 3.40196 3.33263
# Velocity P-wave (km/s) = 5.89477 6.39081 6.14779
#
# Compressibility (1/GPa) = 0.02370598
#
# Stress axis : x y z
#
# Youngs Moduli (GPa) = 92.31871 52.06989 54.84017
#
# Poissons Ratio (x) = 0.17211 0.36496
# Poissons Ratio (y) = 0.30515 0.12737
# Poissons Ratio (z) = 0.61438 0.12094
#
# Static dielectric constant tensor:
#      x y z
#    x 3.958890 0.000000 0.000000 
#    y 0.000000 3.449820 0.000000 
#    z 0.000000 0.000000 3.550780 
# 
# 
# High freq. dielectric constant tensor:
#      x y z
#    x 1.814490 0.000000 0.000000 
#    y 0.000000 1.783010 0.000000 
#    z 0.000000 0.000000 1.778930 
# 
# From -- ./inp_files/56238.got.cif
#   From: 2010.06.25/outbox.cif.g09.slc.cpg/sg71_29_cif.got.tgz:56238.got - 2010.06.28 04:59:45.
