data_PCOD8290078
_publ_section_title
;
Structure prediction by ZEFSAII (Michael W. Deem and Ramdas Pophale) SiO2 
 PCOD8290078
Probable space group: I M M M
;
_chemical_formula_sum "Si O2"
_cell_formula_units_Z 72
_cell_length_a 9.226014
_cell_length_b 16.415030
_cell_length_c 27.390617
_cell_angle_alpha 90.000000
_cell_angle_beta 90.000000
_cell_angle_gamma 90.000000
_cell_volume 4148.180115
_symmetry_space_group_name_H-M "I M M M"
_symmetry_group_IT_number 71
_symmetry_cell_setting 'orthorhombic'
loop_
_space_group_symop_operation_xyz
x,y,z
-x,-y,z
x,-y,-z
-x,y,-z
-x,-y,-z
x,y,-z
-x,y,z
x,-y,z
1/2+x,1/2+y,1/2+z
1/2-x,1/2-y,1/2+z
1/2+x,1/2-y,1/2-z
1/2-x,1/2+y,1/2-z
1/2-x,1/2-y,1/2-z
1/2+x,1/2+y,1/2-z
1/2-x,1/2+y,1/2+z
1/2+x,1/2-y,1/2+z
loop_
_atom_site_type_symbol
_atom_site_label
_atom_site_fract_x
_atom_site_fract_y
_atom_site_fract_z
Si Si1 0.833446 0.409191 0.304514
Si Si2 0.331404 0.839811 0.556994
Si Si3 0.333698 0.325908 0.771130
Si Si4 0.663197 0.500000 0.057846
Si Si5 0.334309 0.756502 0.868025
O O1 0.812840 0.500000 0.326255
O O2 0.742378 0.404154 0.253748
O O3 0.781861 0.342246 0.344231
O O4 0.000000 0.391146 0.291187
O O5 0.304765 0.823639 0.500000
O O6 0.500000 0.851169 0.568674
O O7 0.268121 0.762275 0.586002
O O8 0.248094 0.920144 0.575727
O O9 0.500000 0.323928 0.754654
O O10 0.250000 0.250000 0.750000
O O11 0.320520 0.319109 0.829757
O O12 0.500000 0.500000 0.079651
O O13 0.657461 0.500000 0.000000
O O14 0.500000 0.764519 0.886083
#
# Coordination Sequence:
#
# PCOD8290078 Si02
#       5
#    16  16  16   8  16
#     4   9  18  33  52  74 101 132 166 205 247 292
#     4  10  20  33  50  73 100 129 164 205 247 293
#     4   9  17  30  48  70  96 126 160 199 241 287
#     4   9  17  31  51  71  93 123 157 195 241 291
#     4   9  18  32  50  72  98 131 167 203 244 291
#
# _framework density 17.357009000000001
#
# number of rings (size 3 to 8) (size 9 to 14) (size 15 to 20)
#    0.000    2.778    0.000    3.000    0.000    7.556 
#    2.000    0.000    0.000    0.667    0.000    4.667 
#    0.000    0.000    0.000    0.000    0.000    0.000 
#
# Total GULP energy -446170.021685 kJ/mol
# GULP energy per Si atom -12393.611713 kJ/mol
# Density = 1.731750 g / cm^3
# Si number density = 17.357009 Si / 1000 Ang^3
#
#
#
# Elastic Constant Matrix: (Units=GPa)
#
#
# Indices 1 2 3 4 5 6 
#
# 1 109.6873 46.7916 49.3813 0.0000 0.0000 0.0000
# 2 46.7916 102.7666 45.5988 0.0000 0.0000 0.0000
# 3 49.3813 45.5988 64.2901 0.0000 0.0000 0.0000
# 4 0.0000 0.0000 0.0000 23.9644 0.0000 0.0000
# 5 0.0000 0.0000 0.0000 0.0000 30.1431 0.0000
# 6 0.0000 0.0000 0.0000 0.0000 0.0000 25.3361
#
#
#
# Elastic Compliance Matrix: (Units=1/GPa)
#
#
# Indices 1 2 3 4 5 6 
#
# 1 0.014328 -0.002394 -0.009308 0.000000 0.000000 0.000000
# 2 -0.002394 0.014600 -0.008516 0.000000 0.000000 0.000000
# 3 -0.009308 -0.008516 0.028744 0.000000 0.000000 0.000000
# 4 0.000000 0.000000 0.000000 0.041729 0.000000 0.000000
# 5 0.000000 0.000000 0.000000 0.000000 0.033175 0.000000
# 6 0.000000 0.000000 0.000000 0.000000 0.000000 0.039469
#
#
# Mechanical properties :
#
#
# Convention : Reuss Voigt Hill
#
# Bulk Modulus (GPa) = 58.01725 62.25416 60.13570
# Shear Modulus (GPa) = 22.91205 24.88688 23.89947
#
# Velocity S-wave (km/s) = 3.63719 3.79069 3.71473
# Velocity P-wave (km/s) = 7.15103 7.42320 7.28838
#
# Compressibility (1/GPa) = 0.01723625
#
# Stress axis : x y z
#
# Youngs Moduli (GPa) = 69.79136 68.49530 34.79008
#
# Poissons Ratio (x) = 0.16398 0.32381
# Poissons Ratio (y) = 0.16709 0.29627
# Poissons Ratio (z) = 0.64959 0.58331
#
# Static dielectric constant tensor:
#      x y z
#    x 3.507200 0.000000 0.000000 
#    y 0.000000 -3.210300 0.000000 
#    z 0.000000 0.000000 3.405840 
# 
# 
# High freq. dielectric constant tensor:
#      x y z
#    x 1.681560 0.000000 0.000000 
#    y 0.000000 1.654070 0.000000 
#    z 0.000000 0.000000 1.644240 
# 
# From -- ./inp_files/7945.got.cif
#   From: 2010.06.25/outbox.cif.g09.slc.cpg/sg71_4_cif.got.tgz:7945.got - 2010.06.28 04:59:45.
