data_PCOD8290127
_publ_section_title
;
Structure prediction by ZEFSAII (Michael W. Deem and Ramdas Pophale) SiO2 
 PCOD8290127
Probable space group: I M M M
;
_chemical_formula_sum "Si O2"
_cell_formula_units_Z 120
_cell_length_a 27.081234
_cell_length_b 27.559514
_cell_length_c 8.924062
_cell_angle_alpha 90.000000
_cell_angle_beta 90.000000
_cell_angle_gamma 90.000000
_cell_volume 6660.434832
_symmetry_space_group_name_H-M "I M M M"
_symmetry_group_IT_number 71
_symmetry_cell_setting 'orthorhombic'
loop_
_space_group_symop_operation_xyz
x,y,z
-x,-y,z
x,-y,-z
-x,y,-z
-x,-y,-z
x,y,-z
-x,y,z
x,-y,z
1/2+x,1/2+y,1/2+z
1/2-x,1/2-y,1/2+z
1/2+x,1/2-y,1/2-z
1/2-x,1/2+y,1/2-z
1/2-x,1/2-y,1/2-z
1/2+x,1/2+y,1/2-z
1/2-x,1/2+y,1/2+z
1/2+x,1/2-y,1/2+z
loop_
_atom_site_type_symbol
_atom_site_label
_atom_site_fract_x
_atom_site_fract_y
_atom_site_fract_z
Si Si1 0.290365 0.553593 0.321804
Si Si2 0.406655 0.885588 0.677353
Si Si3 0.055620 0.812763 0.676089
Si Si4 0.354771 0.641735 0.324271
Si Si5 0.821421 0.443879 0.673858
Si Si6 0.500000 0.053809 0.677760
Si Si7 0.802102 0.241123 0.823851
Si Si8 0.607485 0.786223 0.823268
O O1 0.291364 0.553955 0.500000
O O2 0.305803 0.500000 0.262732
O O3 0.328371 0.593601 0.258006
O O4 0.234574 0.565735 0.271373
O O5 0.406819 0.878232 0.500000
O O6 0.355353 0.909575 0.726128
O O7 0.451106 0.919284 0.734556
O O8 0.416452 0.834400 0.756528
O O9 0.058702 0.820159 0.500000
O O10 0.091506 0.852397 0.750398
O O11 0.072017 0.758459 0.720476
O O12 0.000000 0.821115 0.735186
O O13 0.363156 0.637211 0.500000
O O14 0.319848 0.686966 0.284341
O O15 0.827927 0.429815 0.500000
O O16 0.835555 0.500000 0.699999
O O17 0.500000 0.051303 0.500000
O O18 0.500000 0.000000 0.747565
O O19 0.750000 0.250000 0.750000
O O20 0.839268 0.279769 0.752335
O O21 0.798944 0.250061 0.000000
O O22 0.614415 0.791053 0.000000
#
# Coordination Sequence:
#
# PCOD8290127 Si02
#       8
#    16  16  16  16  16   8  16  16
#     4   8  15  30  53  79 107 138 170 206 252 304
#     4  11  22  35  53  77 101 133 175 222 272 323
#     4   9  19  36  56  76 101 135 171 212 264 316
#     4   9  18  32  52  79 105 135 174 212 254 306
#     4   9  18  33  53  76 102 136 175 214 260 313
#     4   9  20  38  55  71  99 139 175 215 276 335
#     4  10  20  33  50  76 109 141 175 212 256 312
#     4  10  21  36  53  74 102 136 173 217 266 314
#
# _framework density 18.016840999999999
#
# number of rings (size 3 to 8) (size 9 to 14) (size 15 to 20)
#    0.000    2.600    0.000    2.400    2.800    2.133 
#    0.000    1.667    0.000    4.000    0.000    2.800 
#    0.000    0.000    0.000    0.000    0.000    0.000 
#
# Total GULP energy -744033.895108 kJ/mol
# GULP energy per Si atom -12400.564918 kJ/mol
# Density = 1.797583 g / cm^3
# Si number density = 18.016841 Si / 1000 Ang^3
#
#
#
# Elastic Constant Matrix: (Units=GPa)
#
#
# Indices 1 2 3 4 5 6 
#
# 1 146.9682 71.9212 36.8581 0.0000 0.0000 0.0000
# 2 71.9212 117.1782 30.1764 0.0000 0.0000 0.0000
# 3 36.8581 30.1764 48.9601 0.0000 0.0000 0.0000
# 4 0.0000 0.0000 0.0000 22.9029 0.0000 0.0000
# 5 0.0000 0.0000 0.0000 0.0000 28.1343 0.0000
# 6 0.0000 0.0000 0.0000 0.0000 0.0000 27.6715
#
#
#
# Elastic Compliance Matrix: (Units=1/GPa)
#
#
# Indices 1 2 3 4 5 6 
#
# 1 0.010564 -0.005273 -0.004703 0.000000 0.000000 0.000000
# 2 -0.005273 0.012776 -0.003905 0.000000 0.000000 0.000000
# 3 -0.004703 -0.003905 0.026372 0.000000 0.000000 0.000000
# 4 0.000000 0.000000 0.000000 0.043663 0.000000 0.000000
# 5 0.000000 0.000000 0.000000 0.000000 0.035544 0.000000
# 6 0.000000 0.000000 0.000000 0.000000 0.000000 0.036138
#
#
# Mechanical properties :
#
#
# Convention : Reuss Voigt Hill
#
# Bulk Modulus (GPa) = 45.55669 65.66865 55.61267
# Shear Modulus (GPa) = 24.98316 27.35179 26.16748
#
# Velocity S-wave (km/s) = 3.72782 3.90054 3.81516
# Velocity P-wave (km/s) = 6.62340 7.53745 7.09516
#
# Compressibility (1/GPa) = 0.02195067
#
# Stress axis : x y z
#
# Youngs Moduli (GPa) = 94.66158 78.27207 37.91898
#
# Poissons Ratio (x) = 0.41271 0.17833
# Poissons Ratio (y) = 0.49913 0.14807
# Poissons Ratio (z) = 0.44518 0.30565
#
# Static dielectric constant tensor:
#      x y z
#    x 3.402630 0.000000 0.000000 
#    y 0.000000 3.520840 0.000000 
#    z 0.000000 0.000000 3.137130 
# 
# 
# High freq. dielectric constant tensor:
#      x y z
#    x 1.698070 0.000000 0.000000 
#    y 0.000000 1.695460 0.000000 
#    z 0.000000 0.000000 1.680960 
# 
# From -- ./inp_files/15603.got.cif
#   From: 2010.06.25/outbox.cif.g09.slc.cpg/sg71_8_cif.got.tgz:15603.got - 2010.06.28 04:59:45.
