data_PCOD8290746
_publ_section_title
;
Structure prediction by ZEFSAII (Michael W. Deem and Ramdas Pophale) SiO2 
 PCOD8290746
Probable space group: I M M M
;
_chemical_formula_sum "Si O2"
_cell_formula_units_Z 120
_cell_length_a 19.118769
_cell_length_b 12.651639
_cell_length_c 26.284279
_cell_angle_alpha 90.000000
_cell_angle_beta 90.000000
_cell_angle_gamma 90.000000
_cell_volume 6357.740326
_symmetry_space_group_name_H-M "I M M M"
_symmetry_group_IT_number 71
_symmetry_cell_setting 'orthorhombic'
loop_
_space_group_symop_operation_xyz
x,y,z
-x,-y,z
x,-y,-z
-x,y,-z
-x,-y,-z
x,y,-z
-x,y,z
x,-y,z
1/2+x,1/2+y,1/2+z
1/2-x,1/2-y,1/2+z
1/2+x,1/2-y,1/2-z
1/2-x,1/2+y,1/2-z
1/2-x,1/2-y,1/2-z
1/2+x,1/2+y,1/2-z
1/2-x,1/2+y,1/2+z
1/2+x,1/2-y,1/2+z
loop_
_atom_site_type_symbol
_atom_site_label
_atom_site_fract_x
_atom_site_fract_y
_atom_site_fract_z
Si Si1 0.420138 0.619799 0.271225
Si Si2 0.902135 0.883696 0.056974
Si Si3 0.000000 0.625673 0.560022
Si Si4 0.075790 0.277695 0.140180
Si Si5 0.630898 0.119927 0.871519
Si Si6 0.251754 0.184132 0.943624
Si Si7 0.783923 0.619830 0.118972
Si Si8 0.694483 0.717413 0.793704
O O1 0.500000 0.639360 0.253065
O O2 0.410718 0.500000 0.290648
O O3 0.398435 0.699111 0.315862
O O4 0.366677 0.641423 0.225943
O O5 0.936224 0.793149 0.090520
O O6 0.818842 0.881239 0.059263
O O7 0.926411 0.000000 0.075512
O O8 0.928662 0.863274 0.000000
O O9 0.933403 0.665317 0.593891
O O10 0.000000 0.500000 0.556993
O O11 0.000000 0.667597 0.500000
O O12 0.133955 0.366986 0.132659
O O13 0.000000 0.329960 0.152930
O O14 0.697032 0.119778 0.908008
O O15 0.652577 0.186013 0.821061
O O16 0.614576 0.000000 0.853665
O O17 0.238605 0.305196 0.927130
O O18 0.283557 0.186926 0.000000
O O19 0.771254 0.500000 0.101895
O O20 0.737338 0.647053 0.167237
O O21 0.750000 0.750000 0.750000
#
# Coordination Sequence:
#
# PCOD8290746 Si02
#       8
#    16  16   8  16  16  16  16  16
#     4  10  21  37  58  80 105 141 185 234 285 337
#     4   9  17  29  48  75 106 138 172 218 276 330
#     4   9  18  34  56  86 123 159 189 223 283 362
#     4  10  20  35  52  75 105 138 180 224 273 333
#     4  10  21  34  55  86 117 151 187 230 285 348
#     4   9  18  33  53  79 108 140 180 227 277 332
#     4  10  21  37  55  78 105 138 184 230 275 331
#     4  11  22  39  56  81 111 150 191 240 284 338
#
# _framework density 18.874631000000001
#
# number of rings (size 3 to 8) (size 9 to 14) (size 15 to 20)
#    0.000    2.200    1.333    1.600    0.933    4.000 
#    0.000    0.667    0.000    0.000    0.000    3.733 
#    0.000    5.600    0.000    0.000    0.000    0.000 
#
# Total GULP energy -743556.544659 kJ/mol
# GULP energy per Si atom -12392.609078 kJ/mol
# Density = 1.883167 g / cm^3
# Si number density = 18.874631 Si / 1000 Ang^3
#
#
#
# Elastic Constant Matrix: (Units=GPa)
#
#
# Indices 1 2 3 4 5 6 
#
# 1 80.5796 11.5961 19.9326 0.0000 0.0000 0.0000
# 2 11.5961 66.5584 9.6947 0.0000 0.0000 0.0000
# 3 19.9326 9.6947 70.3678 0.0000 0.0000 0.0000
# 4 0.0000 0.0000 0.0000 18.3074 0.0000 0.0000
# 5 0.0000 0.0000 0.0000 0.0000 24.1575 0.0000
# 6 0.0000 0.0000 0.0000 0.0000 0.0000 106.5556
#
#
#
# Elastic Compliance Matrix: (Units=1/GPa)
#
#
# Indices 1 2 3 4 5 6 
#
# 1 0.013563 -0.001840 -0.003588 0.000000 0.000000 0.000000
# 2 -0.001840 0.015582 -0.001625 0.000000 0.000000 0.000000
# 3 -0.003588 -0.001625 0.015451 0.000000 0.000000 0.000000
# 4 0.000000 0.000000 0.000000 0.054623 0.000000 0.000000
# 5 0.000000 0.000000 0.000000 0.000000 0.041395 0.000000
# 6 0.000000 0.000000 0.000000 0.000000 0.000000 0.009385
#
#
# Mechanical properties :
#
#
# Convention : Reuss Voigt Hill
#
# Bulk Modulus (GPa) = 32.79999 33.32806 33.06403
# Shear Modulus (GPa) = 28.69134 41.55628 35.12381
#
# Velocity S-wave (km/s) = 3.90308 4.69732 4.31850
# Velocity P-wave (km/s) = 6.14228 6.86408 6.51319
#
# Compressibility (1/GPa) = 0.03048781
#
# Stress axis : x y z
#
# Youngs Moduli (GPa) = 73.73259 64.17757 64.71904
#
# Poissons Ratio (x) = 0.11810 0.23223
# Poissons Ratio (y) = 0.13569 0.10520
# Poissons Ratio (z) = 0.26457 0.10432
#
# Static dielectric constant tensor:
#      x y z
#    x 3.649230 0.000000 0.000000 
#    y 0.000000 3.157520 0.000000 
#    z 0.000000 0.000000 3.611100 
# 
# 
# High freq. dielectric constant tensor:
#      x y z
#    x 1.750430 0.000000 0.000000 
#    y 0.000000 1.706380 0.000000 
#    z 0.000000 0.000000 1.732070 
# 
# From -- ./inp_files/66636.got.cif
#   From: 2010.06.25/outbox.cif.g09.slc.cpg/sg71_34_cif.got.tgz:66636.got - 2010.06.28 04:59:45.
