data_PCOD8290845
_publ_section_title
;
Structure prediction by ZEFSAII (Michael W. Deem and Ramdas Pophale) SiO2 
 PCOD8290845
Probable space group: I M M M
;
_chemical_formula_sum "Si O2"
_cell_formula_units_Z 88
_cell_length_a 13.307975
_cell_length_b 15.210083
_cell_length_c 22.689428
_cell_angle_alpha 90.000000
_cell_angle_beta 90.000000
_cell_angle_gamma 90.000000
_cell_volume 4592.689742
_symmetry_space_group_name_H-M "I M M M"
_symmetry_group_IT_number 71
_symmetry_cell_setting 'orthorhombic'
loop_
_space_group_symop_operation_xyz
x,y,z
-x,-y,z
x,-y,-z
-x,y,-z
-x,-y,-z
x,y,-z
-x,y,z
x,-y,z
1/2+x,1/2+y,1/2+z
1/2-x,1/2-y,1/2+z
1/2+x,1/2-y,1/2-z
1/2-x,1/2+y,1/2-z
1/2-x,1/2-y,1/2-z
1/2+x,1/2+y,1/2-z
1/2-x,1/2+y,1/2+z
1/2+x,1/2-y,1/2+z
loop_
_atom_site_type_symbol
_atom_site_label
_atom_site_fract_x
_atom_site_fract_y
_atom_site_fract_z
Si Si1 0.618596 0.401890 0.678128
Si Si2 0.617545 0.271111 0.218619
Si Si3 0.383876 0.290568 0.566464
Si Si4 0.111444 0.000000 0.568533
Si Si5 0.244854 0.151095 0.619357
Si Si6 0.613616 0.903923 0.282230
O O1 0.500000 0.408127 0.682091
O O2 0.665157 0.500000 0.685856
O O3 0.656577 0.338673 0.730820
O O4 0.649213 0.363884 0.614105
O O5 0.500000 0.283266 0.207004
O O6 0.676069 0.284901 0.158331
O O7 0.646359 0.172319 0.237522
O O8 0.370260 0.327800 0.500000
O O9 0.500000 0.262729 0.577301
O O10 0.312075 0.206398 0.573769
O O11 0.171429 0.086925 0.585105
O O12 0.095582 0.000000 0.500000
O O13 0.000000 0.000000 0.598861
O O14 0.318634 0.094768 0.659942
O O15 0.500000 0.884896 0.303040
O O16 0.622523 0.000000 0.251485
#
# Coordination Sequence:
#
# PCOD8290845 Si02
#       6
#    16  16  16   8  16  16
#     4   9  18  32  52  80 115 151 187 230 281 336
#     4  10  21  36  55  83 118 150 187 233 285 344
#     4  10  21  37  56  79 111 151 194 239 286 339
#     4  11  26  44  59  81 113 147 191 243 287 338
#     4  12  21  37  58  83 108 148 191 231 284 339
#     4  10  20  35  55  82 117 150 182 228 285 339
#
# _framework density 19.160886000000001
#
# number of rings (size 3 to 8) (size 9 to 14) (size 15 to 20)
#    0.000    1.727    2.727    2.182    1.273    0.364 
#    0.000    1.818    0.000    2.182    0.000    0.000 
#    0.000    0.000    0.000   16.364    0.000    0.364 
#
# Total GULP energy -545501.784633 kJ/mol
# GULP energy per Si atom -12397.767833 kJ/mol
# Density = 1.911727 g / cm^3
# Si number density = 19.160886 Si / 1000 Ang^3
#
#
#
# Elastic Constant Matrix: (Units=GPa)
#
#
# Indices 1 2 3 4 5 6 
#
# 1 83.8065 31.3722 25.5068 0.0000 0.0000 0.0000
# 2 31.3722 135.8553 31.7924 0.0000 0.0000 0.0000
# 3 25.5068 31.7924 80.7957 0.0000 0.0000 0.0000
# 4 0.0000 0.0000 0.0000 -18.2079 0.0000 0.0000
# 5 0.0000 0.0000 0.0000 0.0000 28.9017 0.0000
# 6 0.0000 0.0000 0.0000 0.0000 0.0000 1.4511
#
#
#
# Elastic Compliance Matrix: (Units=1/GPa)
#
#
# Indices 1 2 3 4 5 6 
#
# 1 0.013877 -0.002400 -0.003436 0.000000 0.000000 0.000000
# 2 -0.002400 0.008523 -0.002596 0.000000 0.000000 0.000000
# 3 -0.003436 -0.002596 0.014483 0.000000 0.000000 0.000000
# 4 0.000000 0.000000 0.000000 -0.054921 0.000000 0.000000
# 5 0.000000 0.000000 0.000000 0.000000 0.034600 0.000000
# 6 0.000000 0.000000 0.000000 0.000000 0.000000 0.689150
#
#
# Mechanical properties :
#
#
# Convention : Reuss Voigt Hill
#
# Bulk Modulus (GPa) = 49.95613 53.08891 51.52252
# Shear Modulus (GPa) = 6.85638 16.54805 11.70221
#
# Velocity S-wave (km/s) = 1.89370 2.94196 2.47399
# Velocity P-wave (km/s) = 5.55967 6.26955 5.92525
#
# Compressibility (1/GPa) = 0.02001756
#
# Stress axis : x y z
#
# Youngs Moduli (GPa) = 72.06363 117.33635 69.04582
#
# Poissons Ratio (x) = 0.28164 0.23726
# Poissons Ratio (y) = 0.17297 0.17923
# Poissons Ratio (z) = 0.24763 0.30458
#
# Static dielectric constant tensor:
#      x y z
#    x 3.698380 0.000000 0.000000 
#    y 0.000000 3.769190 0.000000 
#    z 0.000000 0.000000 3.297880 
# 
# 
# High freq. dielectric constant tensor:
#      x y z
#    x 1.756670 0.000000 0.000000 
#    y 0.000000 1.746460 0.000000 
#    z 0.000000 0.000000 1.723770 
# 
# From -- ./inp_files/52903.got.cif
#   From: 2010.06.25/outbox.cif.g09.slc.cpg/sg71_27_cif.got.tgz:52903.got - 2010.06.28 04:59:45.
