data_PCOD8290280
_publ_section_title
;
Structure prediction by ZEFSAII (Michael W. Deem and Ramdas Pophale) SiO2 
 PCOD8290280
Probable space group: I M M M
;
_chemical_formula_sum "Si O2"
_cell_formula_units_Z 80
_cell_length_a 28.313625
_cell_length_b 14.896780
_cell_length_c 9.221209
_cell_angle_alpha 90.000000
_cell_angle_beta 90.000000
_cell_angle_gamma 90.000000
_cell_volume 3889.338523
_symmetry_space_group_name_H-M "I M M M"
_symmetry_group_IT_number 71
_symmetry_cell_setting 'orthorhombic'
loop_
_space_group_symop_operation_xyz
x,y,z
-x,-y,z
x,-y,-z
-x,y,-z
-x,-y,-z
x,y,-z
-x,y,z
x,-y,z
1/2+x,1/2+y,1/2+z
1/2-x,1/2-y,1/2+z
1/2+x,1/2-y,1/2-z
1/2-x,1/2+y,1/2-z
1/2-x,1/2-y,1/2-z
1/2+x,1/2+y,1/2-z
1/2-x,1/2+y,1/2+z
1/2+x,1/2-y,1/2+z
loop_
_atom_site_type_symbol
_atom_site_label
_atom_site_fract_x
_atom_site_fract_y
_atom_site_fract_z
Si Si1 0.727222 0.831954 0.833361
Si Si2 0.874564 0.396055 0.328061
Si Si3 0.053608 0.734223 0.167198
Si Si4 0.091052 0.105802 0.332604
Si Si5 0.176581 0.099459 0.844798
O O1 0.750000 0.750000 0.750000
O O2 0.677374 0.865978 0.770684
O O3 0.767687 0.906938 0.810159
O O4 0.720114 0.805719 0.000000
O O5 0.878821 0.382331 0.500000
O O6 0.882114 0.500000 0.286637
O O7 0.913802 0.337197 0.249127
O O8 0.055452 0.833448 0.239550
O O9 0.000000 0.699669 0.179932
O O10 0.069317 0.741629 0.000000
O O11 0.085928 0.130919 0.500000
O O12 0.143827 0.139507 0.283026
O O13 0.080707 0.000000 0.307951
O O14 0.157226 0.000000 0.864005
O O15 0.168763 0.150819 0.000000
#
# Coordination Sequence:
#
# PCOD8290280 Si02
#       5
#    16  16  16  16  16
#     4  10  20  33  52  81 116 152 190 232 279 334
#     4  10  22  41  64  89 119 157 202 251 300 350
#     4  11  25  43  62  85 114 150 195 249 307 365
#     4  10  21  37  59  89 123 156 193 240 293 353
#     4   9  17  31  52  77 109 149 186 219 263 325
#
# _framework density 20.569051999999999
#
# number of rings (size 3 to 8) (size 9 to 14) (size 15 to 20)
#    0.000    2.000    0.000    3.000    0.000   11.200 
#    0.000    4.000    0.000    3.600    0.000    0.000 
#    0.000    0.000    0.000    0.000    0.000    0.000 
#
# Total GULP energy -495565.132983 kJ/mol
# GULP energy per Si atom -12389.128325 kJ/mol
# Density = 2.052224 g / cm^3
# Si number density = 20.569052 Si / 1000 Ang^3
#
#
#
# Elastic Constant Matrix: (Units=GPa)
#
#
# Indices 1 2 3 4 5 6 
#
# 1 120.7403 47.2415 47.8991 0.0000 0.0000 0.0000
# 2 47.2415 108.2975 57.9934 0.0000 0.0000 0.0000
# 3 47.8991 57.9934 93.8999 0.0000 0.0000 0.0000
# 4 0.0000 0.0000 0.0000 28.3837 0.0000 0.0000
# 5 0.0000 0.0000 0.0000 0.0000 34.2555 0.0000
# 6 0.0000 0.0000 0.0000 0.0000 0.0000 28.3605
#
#
#
# Elastic Compliance Matrix: (Units=1/GPa)
#
#
# Indices 1 2 3 4 5 6 
#
# 1 0.010869 -0.002648 -0.003909 0.000000 0.000000 0.000000
# 2 -0.002648 0.014442 -0.007569 0.000000 0.000000 0.000000
# 3 -0.003909 -0.007569 0.017318 0.000000 0.000000 0.000000
# 4 0.000000 0.000000 0.000000 0.035231 0.000000 0.000000
# 5 0.000000 0.000000 0.000000 0.000000 0.029192 0.000000
# 6 0.000000 0.000000 0.000000 0.000000 0.000000 0.035260
#
#
# Mechanical properties :
#
#
# Convention : Reuss Voigt Hill
#
# Bulk Modulus (GPa) = 69.55177 69.91174 69.73175
# Shear Modulus (GPa) = 28.51321 29.52020 29.01671
#
# Velocity S-wave (km/s) = 3.72724 3.79248 3.76000
# Velocity P-wave (km/s) = 7.23949 7.29656 7.26808
#
# Compressibility (1/GPa) = 0.01437778
#
# Stress axis : x y z
#
# Youngs Moduli (GPa) = 92.00442 69.24237 57.74298
#
# Poissons Ratio (x) = 0.18336 0.22571
# Poissons Ratio (y) = 0.24363 0.43704
# Poissons Ratio (z) = 0.35964 0.52408
#
# Static dielectric constant tensor:
#      x y z
#    x 4.106860 0.000000 0.000000 
#    y 0.000000 2.830420 0.000000 
#    z 0.000000 0.000000 3.812790 
# 
# 
# High freq. dielectric constant tensor:
#      x y z
#    x 1.808480 0.000000 0.000000 
#    y 0.000000 1.797430 0.000000 
#    z 0.000000 0.000000 1.801630 
# 
# From -- ./inp_files/14521.got.cif
#   From: 2010.06.25/outbox.cif.g09.slc.cpg/sg71_8_cif.got.tgz:14521.got - 2010.06.28 04:59:45.
