data_PCOD8290282
_publ_section_title
;
Structure prediction by ZEFSAII (Michael W. Deem and Ramdas Pophale) SiO2 
 PCOD8290282
Probable space group: I M M M
;
_chemical_formula_sum "Si O2"
_cell_formula_units_Z 88
_cell_length_a 23.699850
_cell_length_b 8.773243
_cell_length_c 21.857390
_cell_angle_alpha 90.000000
_cell_angle_beta 90.000000
_cell_angle_gamma 90.000000
_cell_volume 4544.687829
_symmetry_space_group_name_H-M "I M M M"
_symmetry_group_IT_number 71
_symmetry_cell_setting 'orthorhombic'
loop_
_space_group_symop_operation_xyz
x,y,z
-x,-y,z
x,-y,-z
-x,y,-z
-x,-y,-z
x,y,-z
-x,y,z
x,-y,z
1/2+x,1/2+y,1/2+z
1/2-x,1/2-y,1/2+z
1/2+x,1/2-y,1/2-z
1/2-x,1/2+y,1/2-z
1/2-x,1/2-y,1/2-z
1/2+x,1/2+y,1/2-z
1/2-x,1/2+y,1/2+z
1/2+x,1/2-y,1/2+z
loop_
_atom_site_type_symbol
_atom_site_label
_atom_site_fract_x
_atom_site_fract_y
_atom_site_fract_z
Si Si1 0.355058 0.176380 0.657174
Si Si2 0.757513 0.327656 0.066252
Si Si3 0.566084 0.670464 0.431604
Si Si4 0.150502 0.322224 0.603877
Si Si5 0.435182 0.818791 0.000000
Si Si6 0.689807 0.321286 0.230240
O O1 0.300303 0.223812 0.618375
O O2 0.409800 0.211699 0.617296
O O3 0.355624 0.277759 0.718055
O O4 0.354755 0.000000 0.675277
O O5 0.736108 0.500000 0.079420
O O6 0.705753 0.210803 0.063844
O O7 0.787790 0.319969 0.000000
O O8 0.581781 0.725124 0.500000
O O9 0.500000 0.669155 0.422429
O O10 0.590189 0.500000 0.420584
O O11 0.144227 0.500000 0.618406
O O12 0.096964 0.264361 0.562608
O O13 0.160895 0.234411 0.667514
O O14 0.500000 0.756990 0.000000
O O15 0.434334 0.000000 0.000000
O O16 0.699375 0.500000 0.225535
O O17 0.750000 0.250000 0.250000
#
# Coordination Sequence:
#
# PCOD8290282 Si02
#       6
#    16  16  16  16   8  16
#     4  11  22  36  56  85 118 157 198 241 292 348
#     4  10  20  33  52  81 119 155 188 238 296 347
#     4   9  19  37  59  83 115 156 198 242 290 339
#     4  11  21  36  60  88 115 152 196 240 298 361
#     4   9  20  40  65  93 123 155 198 251 300 353
#     4  12  24  39  58  84 119 159 196 240 296 360
#
# _framework density 19.363265999999999
#
# number of rings (size 3 to 8) (size 9 to 14) (size 15 to 20)
#    0.000    1.545    2.727    3.818    0.000    2.182 
#    0.000    1.818    0.000    7.636    0.000    0.000 
#    0.000    0.000    0.000    0.000    0.000    0.000 
#
# Total GULP energy -545341.009991 kJ/mol
# GULP energy per Si atom -12394.113863 kJ/mol
# Density = 1.931919 g / cm^3
# Si number density = 19.363266 Si / 1000 Ang^3
#
#
#
# Elastic Constant Matrix: (Units=GPa)
#
#
# Indices 1 2 3 4 5 6 
#
# 1 81.0071 34.9069 54.2288 0.0000 0.0000 0.0000
# 2 34.9069 86.0774 51.9573 0.0000 0.0000 0.0000
# 3 54.2288 51.9573 158.9802 0.0000 0.0000 0.0000
# 4 0.0000 0.0000 0.0000 32.3273 0.0000 0.0000
# 5 0.0000 0.0000 0.0000 0.0000 -4.0396 0.0000
# 6 0.0000 0.0000 0.0000 0.0000 0.0000 25.5734
#
#
#
# Elastic Compliance Matrix: (Units=1/GPa)
#
#
# Indices 1 2 3 4 5 6 
#
# 1 0.017172 -0.004270 -0.004462 0.000000 0.000000 0.000000
# 2 -0.004270 0.015534 -0.003620 0.000000 0.000000 0.000000
# 3 -0.004462 -0.003620 0.008995 0.000000 0.000000 0.000000
# 4 0.000000 0.000000 0.000000 0.030934 0.000000 0.000000
# 5 0.000000 0.000000 0.000000 0.000000 -0.247546 0.000000
# 6 0.000000 0.000000 0.000000 0.000000 0.000000 0.039103
#
#
# Mechanical properties :
#
#
# Convention : Reuss Voigt Hill
#
# Bulk Modulus (GPa) = 58.83576 67.58341 63.20959
# Shear Modulus (GPa) = -47.42104 23.10366 -12.15869
#
# Velocity S-wave (km/s) = -4.95413 3.45798 -2.50856
# Velocity P-wave (km/s) = 1.50774 7.13597 4.93198
#
# Compressibility (1/GPa) = 0.01699646
#
# Stress axis : x y z
#
# Youngs Moduli (GPa) = 58.23585 64.37293 111.17132
#
# Poissons Ratio (x) = 0.27490 0.49600
# Poissons Ratio (y) = 0.24869 0.40247
# Poissons Ratio (z) = 0.25983 0.23305
#
# Static dielectric constant tensor:
#      x y z
#    x 3.455550 0.000000 0.000000 
#    y 0.000000 3.627640 0.000000 
#    z 0.000000 0.000000 3.895390 
# 
# 
# High freq. dielectric constant tensor:
#      x y z
#    x 1.728640 0.000000 0.000000 
#    y 0.000000 1.747330 0.000000 
#    z 0.000000 0.000000 1.771340 
# 
# From -- ./inp_files/55555.got.cif
#   From: 2010.06.25/outbox.cif.g09.slc.cpg/sg71_28_cif.got.tgz:55555.got - 2010.06.28 04:59:45.
