data_PCOD8290860
_publ_section_title
;
Structure prediction by ZEFSAII (Michael W. Deem and Ramdas Pophale) SiO2 
 PCOD8290860
Probable space group: I M M M
;
_chemical_formula_sum "Si O2"
_cell_formula_units_Z 104
_cell_length_a 23.153078
_cell_length_b 8.771868
_cell_length_c 27.874307
_cell_angle_alpha 90.000000
_cell_angle_beta 90.000000
_cell_angle_gamma 90.000000
_cell_volume 5661.153119
_symmetry_space_group_name_H-M "I M M M"
_symmetry_group_IT_number 71
_symmetry_cell_setting 'orthorhombic'
loop_
_space_group_symop_operation_xyz
x,y,z
-x,-y,z
x,-y,-z
-x,y,-z
-x,-y,-z
x,y,-z
-x,y,z
x,-y,z
1/2+x,1/2+y,1/2+z
1/2-x,1/2-y,1/2+z
1/2+x,1/2-y,1/2-z
1/2-x,1/2+y,1/2-z
1/2-x,1/2-y,1/2-z
1/2+x,1/2+y,1/2-z
1/2-x,1/2+y,1/2+z
1/2+x,1/2-y,1/2+z
loop_
_atom_site_type_symbol
_atom_site_label
_atom_site_fract_x
_atom_site_fract_y
_atom_site_fract_z
Si Si1 0.936711 0.820299 0.732772
Si Si2 0.244325 0.820585 0.697175
Si Si3 0.931765 0.667033 0.000000
Si Si4 0.359439 0.677801 0.681465
Si Si5 0.432217 0.823260 0.602864
Si Si6 0.565400 0.819903 0.054567
Si Si7 0.631167 0.321341 0.141096
O O1 0.888733 0.757879 0.769672
O O2 0.919170 0.779737 0.678678
O O3 0.000000 0.747845 0.742743
O O4 0.939886 0.000000 0.740340
O O5 0.250000 0.750000 0.750000
O O6 0.302360 0.774338 0.669477
O O7 0.191012 0.759084 0.664620
O O8 0.237267 0.000000 0.703692
O O9 0.913450 0.744067 0.050278
O O10 0.903650 0.500000 0.000000
O O11 0.000000 0.648334 0.000000
O O12 0.344022 0.500000 0.685629
O O13 0.403703 0.706755 0.639100
O O14 0.500000 0.811684 0.610759
O O15 0.412652 0.000000 0.609453
O O16 0.500000 0.763119 0.067028
O O17 0.613758 0.753139 0.090472
O O18 0.567728 0.000000 0.058897
O O19 0.580794 0.769600 0.000000
O O20 0.636585 0.500000 0.132018
#
# Coordination Sequence:
#
# PCOD8290860 Si02
#       7
#    16  16   8  16  16  16  16
#     4   9  17  30  48  73 107 140 168 205 257 312
#     4  11  22  38  57  78 104 139 183 226 266 313
#     4   7  12  26  49  73  99 133 169 207 256 311
#     4  11  21  34  51  75 107 144 179 216 267 319
#     4   9  17  31  52  78 106 137 175 218 265 318
#     4   9  19  36  57  84 118 149 176 215 273 334
#     4  10  20  35  56  80 106 140 184 226 264 314
#
# _framework density 18.370815
#
# number of rings (size 3 to 8) (size 9 to 14) (size 15 to 20)
#    0.000    2.385    1.538    3.231    0.000    3.385 
#    0.000    1.154    1.692    4.154    0.000    0.000 
#    0.000    0.000    0.000    0.000    0.000    0.000 
#
# Total GULP energy -644327.444562 kJ/mol
# GULP energy per Si atom -12390.912395 kJ/mol
# Density = 1.832900 g / cm^3
# Si number density = 18.370815 Si / 1000 Ang^3
#
#
#
# Elastic Constant Matrix: (Units=GPa)
#
#
# Indices 1 2 3 4 5 6 
#
# 1 108.0166 28.1129 53.2531 0.0000 0.0000 0.0000
# 2 28.1129 35.7353 28.7494 0.0000 0.0000 0.0000
# 3 53.2531 28.7494 133.2201 0.0000 0.0000 0.0000
# 4 0.0000 0.0000 0.0000 27.7805 0.0000 0.0000
# 5 0.0000 0.0000 0.0000 0.0000 21.5919 0.0000
# 6 0.0000 0.0000 0.0000 0.0000 0.0000 25.9321
#
#
#
# Elastic Compliance Matrix: (Units=1/GPa)
#
#
# Indices 1 2 3 4 5 6 
#
# 1 0.012924 -0.007274 -0.003597 0.000000 0.000000 0.000000
# 2 -0.007274 0.037957 -0.005283 0.000000 0.000000 0.000000
# 3 -0.003597 -0.005283 0.010084 0.000000 0.000000 0.000000
# 4 0.000000 0.000000 0.000000 0.035997 0.000000 0.000000
# 5 0.000000 0.000000 0.000000 0.000000 0.046314 0.000000
# 6 0.000000 0.000000 0.000000 0.000000 0.000000 0.038562
#
#
# Mechanical properties :
#
#
# Convention : Reuss Voigt Hill
#
# Bulk Modulus (GPa) = 34.89552 55.24476 45.07014
# Shear Modulus (GPa) = 22.35162 26.18468 24.26815
#
# Velocity S-wave (km/s) = 3.49190 3.77946 3.63852
# Velocity P-wave (km/s) = 5.94088 7.01307 6.49912
#
# Compressibility (1/GPa) = 0.02865697
#
# Stress axis : x y z
#
# Youngs Moduli (GPa) = 77.37482 26.34593 99.16473
#
# Poissons Ratio (x) = 0.19164 0.35665
# Poissons Ratio (y) = 0.56282 0.52394
# Poissons Ratio (z) = 0.27828 0.13920
#
# Static dielectric constant tensor:
#      x y z
#    x 3.574900 0.000000 0.000000 
#    y 0.000000 3.080920 0.000000 
#    z 0.000000 0.000000 3.576340 
# 
# 
# High freq. dielectric constant tensor:
#      x y z
#    x 1.703950 0.000000 0.000000 
#    y 0.000000 1.682820 0.000000 
#    z 0.000000 0.000000 1.718310 
# 
# From -- ./inp_files/50883.got.cif
#   From: 2010.06.25/outbox.cif.g09.slc.cpg/sg71_26_cif.got.tgz:50883.got - 2010.06.28 04:59:45.
