data_PCOD8290864
_publ_section_title
;
Structure prediction by ZEFSAII (Michael W. Deem and Ramdas Pophale) SiO2 
 PCOD8290864
Probable space group: I M M M
;
_chemical_formula_sum "Si O2"
_cell_formula_units_Z 88
_cell_length_a 9.542740
_cell_length_b 18.887418
_cell_length_c 24.867459
_cell_angle_alpha 90.000000
_cell_angle_beta 90.000000
_cell_angle_gamma 90.000000
_cell_volume 4482.054094
_symmetry_space_group_name_H-M "I M M M"
_symmetry_group_IT_number 71
_symmetry_cell_setting 'orthorhombic'
loop_
_space_group_symop_operation_xyz
x,y,z
-x,-y,z
x,-y,-z
-x,y,-z
-x,-y,-z
x,y,-z
-x,y,z
x,-y,z
1/2+x,1/2+y,1/2+z
1/2-x,1/2-y,1/2+z
1/2+x,1/2-y,1/2-z
1/2-x,1/2+y,1/2-z
1/2-x,1/2-y,1/2-z
1/2+x,1/2+y,1/2-z
1/2-x,1/2+y,1/2+z
1/2+x,1/2-y,1/2+z
loop_
_atom_site_type_symbol
_atom_site_label
_atom_site_fract_x
_atom_site_fract_y
_atom_site_fract_z
Si Si1 0.166734 0.652572 0.938856
Si Si2 0.666027 0.920182 0.058649
Si Si3 0.337314 0.580678 0.762487
Si Si4 0.848769 0.500000 0.063048
Si Si5 0.838986 0.800166 0.345421
Si Si6 0.661827 0.857790 0.168955
O O1 0.228272 0.573877 0.923149
O O2 0.245626 0.705324 0.899130
O O3 0.000000 0.655412 0.930395
O O4 0.205319 0.672686 0.000000
O O5 0.500000 0.919498 0.056615
O O6 0.717147 0.871007 0.107932
O O7 0.720154 0.000000 0.068817
O O8 0.722927 0.893180 0.000000
O O9 0.500000 0.593945 0.749633
O O10 0.311168 0.500000 0.782435
O O11 0.285337 0.636115 0.807572
O O12 0.251294 0.593683 0.708446
O O13 0.000000 0.500000 0.092377
O O14 0.877534 0.500000 0.000000
O O15 0.819486 0.724843 0.315857
O O16 0.000000 0.811861 0.362223
O O17 0.500000 0.880904 0.174568
#
# Coordination Sequence:
#
# PCOD8290864 Si02
#       6
#    16  16  16   8  16  16
#     4   9  18  33  53  77 106 141 181 224 268 314
#     4   8  14  26  47  76 106 132 161 205 260 310
#     4  10  22  39  56  75 104 141 178 221 277 334
#     4   7  12  26  47  69  95 129 171 219 262 297
#     4  10  22  36  52  78 110 143 179 222 272 328
#     4  10  20  35  56  81 106 136 179 224 264 315
#
# _framework density 19.633856999999999
#
# number of rings (size 3 to 8) (size 9 to 14) (size 15 to 20)
#    0.000    2.818    0.000    2.727    1.273    3.636 
#    0.000    1.818    0.000    2.182    0.000    2.545 
#    0.000    0.000    0.000    0.000    0.000    0.000 
#
# Total GULP energy -545237.492519 kJ/mol
# GULP energy per Si atom -12391.761194 kJ/mol
# Density = 1.958917 g / cm^3
# Si number density = 19.633857 Si / 1000 Ang^3
#
#
#
# Elastic Constant Matrix: (Units=GPa)
#
#
# Indices 1 2 3 4 5 6 
#
# 1 36.3043 19.7090 35.3325 0.0000 0.0000 0.0000
# 2 19.7090 87.9998 41.5256 0.0000 0.0000 0.0000
# 3 35.3325 41.5256 110.4470 0.0000 0.0000 0.0000
# 4 0.0000 0.0000 0.0000 31.6547 0.0000 0.0000
# 5 0.0000 0.0000 0.0000 0.0000 32.3127 0.0000
# 6 0.0000 0.0000 0.0000 0.0000 0.0000 9.2841
#
#
#
# Elastic Compliance Matrix: (Units=1/GPa)
#
#
# Indices 1 2 3 4 5 6 
#
# 1 0.040932 -0.003633 -0.011728 0.000000 0.000000 0.000000
# 2 -0.003633 0.014137 -0.004153 0.000000 0.000000 0.000000
# 3 -0.011728 -0.004153 0.014368 0.000000 0.000000 0.000000
# 4 0.000000 0.000000 0.000000 0.031591 0.000000 0.000000
# 5 0.000000 0.000000 0.000000 0.000000 0.030948 0.000000
# 6 0.000000 0.000000 0.000000 0.000000 0.000000 0.107711
#
#
# Mechanical properties :
#
#
# Convention : Reuss Voigt Hill
#
# Bulk Modulus (GPa) = 32.88646 47.54281 40.21464
# Shear Modulus (GPa) = 17.31001 23.86257 20.58629
#
# Velocity S-wave (km/s) = 2.97247 3.49001 3.24158
# Velocity P-wave (km/s) = 5.34481 6.36455 5.87684
#
# Compressibility (1/GPa) = 0.03040765
#
# Stress axis : x y z
#
# Youngs Moduli (GPa) = 24.43099 70.73613 69.60144
#
# Poissons Ratio (x) = 0.25698 0.81631
# Poissons Ratio (y) = 0.08876 0.28906
# Poissons Ratio (z) = 0.28653 0.29377
#
# Static dielectric constant tensor:
#      x y z
#    x 3.148830 0.000000 0.000000 
#    y 0.000000 3.729580 0.000000 
#    z 0.000000 0.000000 3.622130 
# 
# 
# High freq. dielectric constant tensor:
#      x y z
#    x 1.722960 0.000000 0.000000 
#    y 0.000000 1.769880 0.000000 
#    z 0.000000 0.000000 1.761640 
# 
# From -- ./inp_files/57525.got.cif
#   From: 2010.06.25/outbox.cif.g09.slc.cpg/sg71_29_cif.got.tgz:57525.got - 2010.06.28 04:59:45.
