data_PCOD8290292
_publ_section_title
;
Structure prediction by ZEFSAII (Michael W. Deem and Ramdas Pophale) SiO2 
 PCOD8290292
Probable space group: I M M M
;
_chemical_formula_sum "Si O2"
_cell_formula_units_Z 104
_cell_length_a 9.389323
_cell_length_b 29.213365
_cell_length_c 20.041192
_cell_angle_alpha 90.000000
_cell_angle_beta 90.000000
_cell_angle_gamma 90.000000
_cell_volume 5497.173105
_symmetry_space_group_name_H-M "I M M M"
_symmetry_group_IT_number 71
_symmetry_cell_setting 'orthorhombic'
loop_
_space_group_symop_operation_xyz
x,y,z
-x,-y,z
x,-y,-z
-x,y,-z
-x,-y,-z
x,y,-z
-x,y,z
x,-y,z
1/2+x,1/2+y,1/2+z
1/2-x,1/2-y,1/2+z
1/2+x,1/2-y,1/2-z
1/2-x,1/2+y,1/2-z
1/2-x,1/2-y,1/2-z
1/2+x,1/2+y,1/2-z
1/2-x,1/2+y,1/2+z
1/2+x,1/2-y,1/2+z
loop_
_atom_site_type_symbol
_atom_site_label
_atom_site_fract_x
_atom_site_fract_y
_atom_site_fract_z
Si Si1 0.665151 0.831691 0.500000
Si Si2 0.341249 0.167336 0.112025
Si Si3 0.835000 0.053009 0.285016
Si Si4 0.834317 0.081389 0.864702
Si Si5 0.667415 0.872028 0.641375
Si Si6 0.165079 0.738235 0.500000
Si Si7 0.841802 0.294807 0.241612
Si Si8 0.657503 0.000000 0.922193
O O1 0.500000 0.818661 0.500000
O O2 0.704965 0.861555 0.564707
O O3 0.748259 0.784548 0.500000
O O4 0.500000 0.150413 0.089780
O O5 0.222464 0.128635 0.104830
O O6 0.347165 0.180390 0.188461
O O7 0.293861 0.209684 0.066028
O O8 0.807464 0.076927 0.214087
O O9 0.745645 0.080791 0.339836
O O10 0.000000 0.055756 0.304727
O O11 0.784677 0.000000 0.282895
O O12 0.000000 0.076113 0.881970
O O13 0.745966 0.043543 0.901796
O O14 0.500000 0.879212 0.653438
O O15 0.723353 0.829614 0.686716
O O16 0.000000 0.751485 0.500000
O O17 0.750000 0.250000 0.250000
O O18 0.000000 0.279988 0.218687
O O19 0.500000 0.000000 0.888325
O O20 0.637025 0.000000 0.000000
#
# Coordination Sequence:
#
# PCOD8290292 Si02
#       8
#     8  16  16  16  16   8  16   8
#     4  10  22  40  61  85 119 152 190 244 296 353
#     4  10  21  37  54  80 116 152 193 237 284 344
#     4  10  21  39  61  88 119 150 190 244 299 352
#     4  11  22  38  59  85 116 150 193 245 293 340
#     4  10  21  38  59  86 116 152 195 240 295 358
#     4  10  22  38  58  82 116 158 198 239 287 351
#     4  10  20  33  53  80 111 146 191 239 284 342
#     4  11  25  41  59  83 115 158 199 236 285 345
#
# _framework density 18.918814999999999
#
# number of rings (size 3 to 8) (size 9 to 14) (size 15 to 20)
#    0.000    1.769    2.308    1.615    1.077    4.000 
#    0.000    0.385    0.000    2.308    0.000    0.000 
#    0.000    0.000    0.000    0.000    0.000    0.000 
#
# Total GULP energy -644851.341972 kJ/mol
# GULP energy per Si atom -12400.987346 kJ/mol
# Density = 1.887576 g / cm^3
# Si number density = 18.918815 Si / 1000 Ang^3
#
#
#
# Elastic Constant Matrix: (Units=GPa)
#
#
# Indices 1 2 3 4 5 6 
#
# 1 98.5304 64.3971 35.2609 0.0000 0.0000 0.0000
# 2 64.3971 100.0420 22.0974 0.0000 0.0000 0.0000
# 3 35.2609 22.0974 88.6384 -0.0002 0.0001 0.0000
# 4 0.0000 0.0000 -0.0002 31.7288 0.0000 0.0000
# 5 0.0000 0.0000 0.0001 0.0000 19.4451 0.0000
# 6 0.0000 0.0000 0.0000 0.0000 0.0000 46.5192
#
#
#
# Elastic Compliance Matrix: (Units=1/GPa)
#
#
# Indices 1 2 3 4 5 6 
#
# 1 0.019307 -0.011357 -0.004849 0.000000 0.000000 0.000000
# 2 -0.011357 0.017259 0.000215 0.000000 0.000000 0.000000
# 3 -0.004849 0.000215 0.013157 0.000000 0.000000 0.000000
# 4 0.000000 0.000000 0.000000 0.031517 0.000000 0.000000
# 5 0.000000 0.000000 0.000000 0.000000 0.051427 0.000000
# 6 0.000000 0.000000 0.000000 0.000000 0.000000 0.021496
#
#
# Mechanical properties :
#
#
# Convention : Reuss Voigt Hill
#
# Bulk Modulus (GPa) = 56.36570 58.96908 57.66739
# Shear Modulus (GPa) = 26.03366 30.56898 28.30132
#
# Velocity S-wave (km/s) = 3.71357 4.02406 3.87193
# Velocity P-wave (km/s) = 6.94591 7.26828 7.10892
#
# Compressibility (1/GPa) = 0.01774128
#
# Stress axis : x y z
#
# Youngs Moduli (GPa) = 51.79426 57.94169 76.00415
#
# Poissons Ratio (x) = 0.65804 0.36856
# Poissons Ratio (y) = 0.58822 -0.01636
# Poissons Ratio (z) = 0.25116 -0.01247
#
# Static dielectric constant tensor:
#      x y z
#    x 3.607450 0.000000 0.000000 
#    y 0.000000 -0.163520 0.000020 
#    z 0.000000 0.000020 4.002510 
# 
# 
# High freq. dielectric constant tensor:
#      x y z
#    x 1.735940 0.000000 0.000000 
#    y 0.000000 1.734790 0.000000 
#    z 0.000000 0.000000 1.736260 
# 
# From -- ./inp_files/50968.got.cif
#   From: 2010.06.25/outbox.cif.g09.slc.cpg/sg71_26_cif.got.tgz:50968.got - 2010.06.28 04:59:45.
