data_PCOD8290229
_publ_section_title
;
Structure prediction by ZEFSAII (Michael W. Deem and Ramdas Pophale) SiO2 
 PCOD8290229
Probable space group: I M M M
;
_chemical_formula_sum "Si O2"
_cell_formula_units_Z 96
_cell_length_a 25.585563
_cell_length_b 23.141585
_cell_length_c 9.148528
_cell_angle_alpha 90.000000
_cell_angle_beta 90.000000
_cell_angle_gamma 90.000000
_cell_volume 5416.756343
_symmetry_space_group_name_H-M "I M M M"
_symmetry_group_IT_number 71
_symmetry_cell_setting 'orthorhombic'
loop_
_space_group_symop_operation_xyz
x,y,z
-x,-y,z
x,-y,-z
-x,y,-z
-x,-y,-z
x,y,-z
-x,y,z
x,-y,z
1/2+x,1/2+y,1/2+z
1/2-x,1/2-y,1/2+z
1/2+x,1/2-y,1/2-z
1/2-x,1/2+y,1/2-z
1/2-x,1/2-y,1/2-z
1/2+x,1/2+y,1/2-z
1/2-x,1/2+y,1/2+z
1/2+x,1/2-y,1/2+z
loop_
_atom_site_type_symbol
_atom_site_label
_atom_site_fract_x
_atom_site_fract_y
_atom_site_fract_z
Si Si1 0.249070 0.433669 0.831740
Si Si2 0.347608 0.113825 0.834319
Si Si3 0.346576 0.638287 0.173665
Si Si4 0.057729 0.935169 0.326157
Si Si5 0.625317 0.763301 0.165678
Si Si6 0.559820 0.845290 0.328456
O O1 0.266728 0.500000 0.815068
O O2 0.196526 0.423579 0.742144
O O3 0.294914 0.393405 0.765350
O O4 0.237727 0.418163 0.000000
O O5 0.333480 0.182884 0.830223
O O6 0.403265 0.106362 0.749474
O O7 0.354111 0.091746 0.000000
O O8 0.398337 0.607509 0.238583
O O9 0.347243 0.705141 0.225302
O O10 0.345730 0.632501 0.000000
O O11 0.059607 0.934393 0.500000
O O12 0.000000 0.915171 0.272883
O O13 0.069270 0.000000 0.270002
O O14 0.575412 0.781608 0.265172
O O15 0.605270 0.752737 0.000000
O O16 0.570343 0.846129 0.500000
O O17 0.500000 0.859170 0.290399
#
# Coordination Sequence:
#
# PCOD8290229 Si02
#       6
#    16  16  16  16  16  16
#     4  10  20  33  52  75  99 132 172 214 256 299
#     4   9  19  34  51  74 102 134 168 205 252 303
#     4   9  16  28  44  67  99 132 169 209 250 294
#     4   8  13  21  35  58  90 128 167 206 247 288
#     4   8  17  30  46  72 101 131 163 198 245 298
#     4   9  17  31  52  76 102 132 164 200 246 299
#
# _framework density 17.722783
#
# number of rings (size 3 to 8) (size 9 to 14) (size 15 to 20)
#    1.000    2.167    0.000    1.500    0.000    5.000 
#    0.000    2.500    0.000    0.500    0.000    3.500 
#    0.000    0.000    0.000    8.833    0.000    7.667 
#
# Total GULP energy -594640.544746 kJ/mol
# GULP energy per Si atom -12388.344682 kJ/mol
# Density = 1.768245 g / cm^3
# Si number density = 17.722783 Si / 1000 Ang^3
#
#
#
# Elastic Constant Matrix: (Units=GPa)
#
#
# Indices 1 2 3 4 5 6 
#
# 1 106.8070 18.3046 38.8774 0.0000 0.0000 0.0000
# 2 18.3046 33.8565 12.1377 0.0000 0.0000 0.0000
# 3 38.8774 12.1377 61.0372 0.0000 0.0000 0.0000
# 4 0.0000 0.0000 0.0000 14.8229 0.0000 0.0000
# 5 0.0000 0.0000 0.0000 0.0000 16.2254 0.0000
# 6 0.0000 0.0000 0.0000 0.0000 0.0000 31.5868
#
#
#
# Elastic Compliance Matrix: (Units=1/GPa)
#
#
# Indices 1 2 3 4 5 6 
#
# 1 0.012741 -0.004284 -0.007263 0.000000 0.000000 0.000000
# 2 -0.004284 0.033245 -0.003882 0.000000 0.000000 0.000000
# 3 -0.007263 -0.003882 0.021782 0.000000 0.000000 0.000000
# 4 0.000000 0.000000 0.000000 0.067463 0.000000 0.000000
# 5 0.000000 0.000000 0.000000 0.000000 0.061632 0.000000
# 6 0.000000 0.000000 0.000000 0.000000 0.000000 0.031659
#
#
# Mechanical properties :
#
#
# Convention : Reuss Voigt Hill
#
# Bulk Modulus (GPa) = 27.09453 37.81556 32.45505
# Shear Modulus (GPa) = 18.40383 21.35241 19.87812
#
# Velocity S-wave (km/s) = 3.22596 3.47479 3.35268
# Velocity P-wave (km/s) = 5.40342 6.12229 5.77405
#
# Compressibility (1/GPa) = 0.03690781
#
# Stress axis : x y z
#
# Youngs Moduli (GPa) = 78.48855 30.08010 45.91027
#
# Poissons Ratio (x) = 0.12888 0.33345
# Poissons Ratio (y) = 0.33628 0.17822
# Poissons Ratio (z) = 0.57007 0.11677
#
# Static dielectric constant tensor:
#      x y z
#    x 3.246470 0.000000 0.000000 
#    y 0.000000 3.192580 0.000000 
#    z 0.000000 0.000000 2.935710 
# 
# 
# High freq. dielectric constant tensor:
#      x y z
#    x 1.677510 0.000000 0.000000 
#    y 0.000000 1.671420 0.000000 
#    z 0.000000 0.000000 1.650370 
# 
# From -- ./inp_files/14892.got.cif
#   From: 2010.06.25/outbox.cif.g09.slc.cpg/sg71_8_cif.got.tgz:14892.got - 2010.06.28 04:59:45.
