data_PCOD8290606
_publ_section_title
;
Structure prediction by ZEFSAII (Michael W. Deem and Ramdas Pophale) SiO2 
 PCOD8290606
Probable space group: I M M M
;
_chemical_formula_sum "Si O2"
_cell_formula_units_Z 96
_cell_length_a 24.206414
_cell_length_b 9.081063
_cell_length_c 21.305871
_cell_angle_alpha 90.000000
_cell_angle_beta 90.000000
_cell_angle_gamma 90.000000
_cell_volume 4683.455936
_symmetry_space_group_name_H-M "I M M M"
_symmetry_group_IT_number 71
_symmetry_cell_setting 'orthorhombic'
loop_
_space_group_symop_operation_xyz
x,y,z
-x,-y,z
x,-y,-z
-x,y,-z
-x,-y,-z
x,y,-z
-x,y,z
x,-y,z
1/2+x,1/2+y,1/2+z
1/2-x,1/2-y,1/2+z
1/2+x,1/2-y,1/2-z
1/2-x,1/2+y,1/2-z
1/2-x,1/2-y,1/2-z
1/2+x,1/2+y,1/2-z
1/2-x,1/2+y,1/2+z
1/2+x,1/2-y,1/2+z
loop_
_atom_site_type_symbol
_atom_site_label
_atom_site_fract_x
_atom_site_fract_y
_atom_site_fract_z
Si Si1 0.061635 0.667559 0.765380
Si Si2 0.561873 0.672679 0.605387
Si Si3 0.169654 0.672848 0.930462
Si Si4 0.746869 0.167440 0.683444
Si Si5 0.562657 0.837577 0.927461
Si Si6 0.871840 0.834450 0.664985
O O1 0.074777 0.500000 0.785947
O O2 0.066205 0.775028 0.823575
O O3 0.107620 0.719696 0.716879
O O4 0.000000 0.678036 0.735671
O O5 0.500000 0.708482 0.579079
O O6 0.573449 0.500000 0.602322
O O7 0.609118 0.754230 0.566358
O O8 0.162378 0.500000 0.920826
O O9 0.205737 0.734095 0.870723
O O10 0.196538 0.704351 0.000000
O O11 0.750000 0.250000 0.750000
O O12 0.807024 0.177007 0.653426
O O13 0.729635 0.000000 0.698133
O O14 0.500000 0.791476 0.914125
O O15 0.601216 0.710891 0.900381
O O16 0.574192 0.000000 0.897618
O O17 0.575478 0.846442 0.000000
O O18 0.889403 0.000000 0.683733
#
# Coordination Sequence:
#
# PCOD8290606 Si02
#       6
#    16  16  16  16  16  16
#     4  10  20  34  54  81 114 151 190 231 276 332
#     4  10  21  37  58  86 119 149 179 224 282 338
#     4  10  22  41  63  85 113 152 196 238 281 338
#     4  10  23  41  60  84 114 150 192 240 291 340
#     4   9  19  36  55  76 107 147 189 232 278 333
#     4  11  22  34  53  82 112 142 182 234 289 342
#
# _framework density 20.497684
#
# number of rings (size 3 to 8) (size 9 to 14) (size 15 to 20)
#    0.000    2.000    0.000    3.500    0.000   10.667 
#    0.000    4.167    0.000    0.000    0.000    0.000 
#    0.000    0.000    0.000    0.000    0.000    0.000 
#
# Total GULP energy -594908.312144 kJ/mol
# GULP energy per Si atom -12393.923170 kJ/mol
# Density = 2.045103 g / cm^3
# Si number density = 20.497684 Si / 1000 Ang^3
#
#
#
# Elastic Constant Matrix: (Units=GPa)
#
#
# Indices 1 2 3 4 5 6 
#
# 1 93.0397 39.2048 56.9170 0.0000 0.0000 0.0000
# 2 39.2048 58.4798 41.2897 0.0000 0.0000 0.0000
# 3 56.9170 41.2897 111.8971 0.0000 0.0000 0.0000
# 4 0.0000 0.0000 0.0000 31.5689 0.0000 0.0000
# 5 0.0000 0.0000 0.0000 0.0000 26.4595 0.0000
# 6 0.0000 0.0000 0.0000 0.0000 0.0000 30.9972
#
#
#
# Elastic Compliance Matrix: (Units=1/GPa)
#
#
# Indices 1 2 3 4 5 6 
#
# 1 0.017722 -0.007460 -0.006262 0.000000 0.000000 0.000000
# 2 -0.007460 0.026265 -0.005897 0.000000 0.000000 0.000000
# 3 -0.006262 -0.005897 0.014298 0.000000 0.000000 0.000000
# 4 0.000000 0.000000 0.000000 0.031677 0.000000 0.000000
# 5 0.000000 0.000000 0.000000 0.000000 0.037794 0.000000
# 6 0.000000 0.000000 0.000000 0.000000 0.000000 0.032261
#
#
# Mechanical properties :
#
#
# Convention : Reuss Voigt Hill
#
# Bulk Modulus (GPa) = 52.50101 59.80441 56.15271
# Shear Modulus (GPa) = 24.31879 26.20547 25.26213
#
# Velocity S-wave (km/s) = 3.44818 3.57943 3.51442
# Velocity P-wave (km/s) = 6.44375 6.80607 6.62739
#
# Compressibility (1/GPa) = 0.01904725
#
# Stress axis : x y z
#
# Youngs Moduli (GPa) = 56.42665 38.07409 69.94027
#
# Poissons Ratio (x) = 0.28402 0.43795
# Poissons Ratio (y) = 0.42093 0.41245
# Poissons Ratio (z) = 0.35333 0.22453
#
# Static dielectric constant tensor:
#      x y z
#    x 3.884240 0.000000 0.000000 
#    y 0.000000 3.513120 0.000000 
#    z 0.000000 0.000000 3.712770 
# 
# 
# High freq. dielectric constant tensor:
#      x y z
#    x 1.800970 0.000000 0.000000 
#    y 0.000000 1.797670 0.000000 
#    z 0.000000 0.000000 1.802520 
# 
# From -- ./inp_files/61544.got.cif
#   From: 2010.06.25/outbox.cif.g09.slc.cpg/sg71_31_cif.got.tgz:61544.got - 2010.06.28 04:59:45.
