data_PCOD8290136
_publ_section_title
;
Structure prediction by ZEFSAII (Michael W. Deem and Ramdas Pophale) SiO2 
 PCOD8290136
Probable space group: I M M M
;
_chemical_formula_sum "Si O2"
_cell_formula_units_Z 104
_cell_length_a 31.969851
_cell_length_b 19.143260
_cell_length_c 9.700458
_cell_angle_alpha 90.000000
_cell_angle_beta 90.000000
_cell_angle_gamma 90.000000
_cell_volume 5936.749847
_symmetry_space_group_name_H-M "I M M M"
_symmetry_group_IT_number 71
_symmetry_cell_setting 'orthorhombic'
loop_
_space_group_symop_operation_xyz
x,y,z
-x,-y,z
x,-y,-z
-x,y,-z
-x,-y,-z
x,y,-z
-x,y,z
x,-y,z
1/2+x,1/2+y,1/2+z
1/2-x,1/2-y,1/2+z
1/2+x,1/2-y,1/2-z
1/2-x,1/2+y,1/2-z
1/2-x,1/2-y,1/2-z
1/2+x,1/2+y,1/2-z
1/2-x,1/2+y,1/2+z
1/2+x,1/2-y,1/2+z
loop_
_atom_site_type_symbol
_atom_site_label
_atom_site_fract_x
_atom_site_fract_y
_atom_site_fract_z
Si Si1 0.208977 0.679220 0.842374
Si Si2 0.500000 0.916389 0.653481
Si Si3 0.306762 0.693501 0.156839
Si Si4 0.046526 0.917155 0.155678
Si Si5 0.571062 0.916981 0.848263
Si Si6 0.623715 0.419210 0.160716
Si Si7 0.836063 0.417790 0.652554
O O1 0.258547 0.673065 0.829626
O O2 0.186532 0.742205 0.760292
O O3 0.193677 0.608141 0.773347
O O4 0.194425 0.684724 0.000000
O O5 0.500000 0.885636 0.500000
O O6 0.540557 0.886402 0.731866
O O7 0.500000 0.000000 0.652202
O O8 0.336032 0.628155 0.199873
O O9 0.316952 0.716813 0.000000
O O10 0.083164 0.890065 0.257041
O O11 0.000000 0.890038 0.200825
O O12 0.046116 0.000000 0.161093
O O13 0.056269 0.891651 0.000000
O O14 0.617416 0.887729 0.821668
O O15 0.571270 0.000000 0.840880
O O16 0.555359 0.893627 0.000000
O O17 0.634049 0.500000 0.199490
O O18 0.613000 0.412804 0.000000
O O19 0.820333 0.394260 0.500000
O O20 0.836822 0.500000 0.661263
#
# Coordination Sequence:
#
# PCOD8290136 Si02
#       7
#    16   8  16  16  16  16  16
#     4  10  20  33  51  72  93 123 163 204 244 289
#     4   9  15  21  33  57  87 115 143 181 226 265
#     4   9  19  35  51  68  95 129 162 197 240 291
#     4   8  14  25  41  64  97 132 160 189 231 282
#     4   8  14  25  40  58  83 116 150 180 216 270
#     4   9  17  29  47  72  99 127 162 202 240 280
#     4   9  18  32  49  70  96 125 157 194 238 288
#
# _framework density 17.518001999999999
#
# number of rings (size 3 to 8) (size 9 to 14) (size 15 to 20)
#    0.000    3.154    0.000    2.077    0.000    4.000 
#    0.000    4.615    0.000    1.846    2.000    0.000 
#    0.000    0.000    0.000    0.000    0.000    0.000 
#
# Total GULP energy -644396.700087 kJ/mol
# GULP energy per Si atom -12392.244232 kJ/mol
# Density = 1.747813 g / cm^3
# Si number density = 17.518002 Si / 1000 Ang^3
#
#
#
# Elastic Constant Matrix: (Units=GPa)
#
#
# Indices 1 2 3 4 5 6 
#
# 1 85.8183 40.9196 65.8162 0.0000 0.0000 0.0000
# 2 40.9196 38.4854 35.6951 0.0000 0.0000 0.0000
# 3 65.8162 35.6951 124.5345 0.0000 0.0000 0.0000
# 4 0.0000 0.0000 0.0000 22.5854 0.0000 0.0000
# 5 0.0000 0.0000 0.0000 0.0000 32.5591 0.0000
# 6 0.0000 0.0000 0.0000 0.0000 0.0000 10.6606
#
#
#
# Elastic Compliance Matrix: (Units=1/GPa)
#
#
# Indices 1 2 3 4 5 6 
#
# 1 0.029569 -0.023081 -0.009012 0.000000 0.000000 0.000000
# 2 -0.023081 0.053410 -0.003110 0.000000 0.000000 0.000000
# 3 -0.009012 -0.003110 0.013684 0.000000 0.000000 0.000000
# 4 0.000000 0.000000 0.000000 0.044276 0.000000 0.000000
# 5 0.000000 0.000000 0.000000 0.000000 0.030713 0.000000
# 6 0.000000 0.000000 0.000000 0.000000 0.000000 0.093804
#
#
# Mechanical properties :
#
#
# Convention : Reuss Voigt Hill
#
# Bulk Modulus (GPa) = 38.08547 59.30002 48.69275
# Shear Modulus (GPa) = 14.50894 20.25484 17.38189
#
# Velocity S-wave (km/s) = 2.88102 3.40403 3.15339
# Velocity P-wave (km/s) = 5.73193 7.02668 6.41207
#
# Compressibility (1/GPa) = 0.02625673
#
# Stress axis : x y z
#
# Youngs Moduli (GPa) = 33.81897 18.72312 73.07811
#
# Poissons Ratio (x) = 0.43215 0.65854
# Poissons Ratio (y) = 0.78059 0.22730
# Poissons Ratio (z) = 0.30476 0.05824
#
# Static dielectric constant tensor:
#      x y z
#    x 3.526320 0.000000 0.000000 
#    y 0.000000 2.829080 0.000000 
#    z 0.000000 0.000000 3.478340 
# 
# 
# High freq. dielectric constant tensor:
#      x y z
#    x 1.679930 0.000000 0.000000 
#    y 0.000000 1.628670 0.000000 
#    z 0.000000 0.000000 1.682660 
# 
# From -- ./inp_files/17008.got.cif
#   From: 2010.06.25/outbox.cif.g09.slc.cpg/sg71_9_cif.got.tgz:17008.got - 2010.06.28 04:59:45.
