data_PCOD8290193
_publ_section_title
;
Structure prediction by ZEFSAII (Michael W. Deem and Ramdas Pophale) SiO2 
 PCOD8290193
Probable space group: I M M M
;
_chemical_formula_sum "Si O2"
_cell_formula_units_Z 64
_cell_length_a 40.828099
_cell_length_b 9.041071
_cell_length_c 9.474306
_cell_angle_alpha 90.000000
_cell_angle_beta 90.000000
_cell_angle_gamma 90.000000
_cell_volume 3497.248128
_symmetry_space_group_name_H-M "I M M M"
_symmetry_group_IT_number 71
_symmetry_cell_setting 'orthorhombic'
loop_
_space_group_symop_operation_xyz
x,y,z
-x,-y,z
x,-y,-z
-x,y,-z
-x,-y,-z
x,y,-z
-x,y,z
x,-y,z
1/2+x,1/2+y,1/2+z
1/2-x,1/2-y,1/2+z
1/2+x,1/2-y,1/2-z
1/2-x,1/2+y,1/2-z
1/2-x,1/2-y,1/2-z
1/2+x,1/2+y,1/2-z
1/2-x,1/2+y,1/2+z
1/2+x,1/2-y,1/2+z
loop_
_atom_site_type_symbol
_atom_site_label
_atom_site_fract_x
_atom_site_fract_y
_atom_site_fract_z
Si Si1 0.221311 0.827193 0.334638
Si Si2 0.156029 0.333325 0.332298
Si Si3 0.037712 0.668835 0.163510
Si Si4 0.091515 0.171920 0.336337
O O1 0.226372 0.795935 0.500000
O O2 0.250000 0.750000 0.250000
O O3 0.187232 0.759044 0.279159
O O4 0.221101 0.000000 0.300692
O O5 0.155202 0.331757 0.500000
O O6 0.158388 0.500000 0.273153
O O7 0.122924 0.258462 0.274299
O O8 0.045981 0.500000 0.204467
O O9 0.059169 0.779558 0.254954
O O10 0.000000 0.703780 0.196995
O O11 0.045279 0.696547 0.000000
O O12 0.086124 0.209106 0.500000
O O13 0.097967 0.000000 0.311760
#
# Coordination Sequence:
#
# PCOD8290193 Si02
#       4
#    16  16  16  16
#     4  10  20  34  53  77 105 136 170 209 253 300
#     4   9  17  31  52  75 100 133 170 207 251 301
#     4   9  19  36  55  74  99 133 171 209 251 300
#     4  10  20  33  51  77 106 133 165 207 252 299
#
# _framework density 18.300101999999999
#
# number of rings (size 3 to 8) (size 9 to 14) (size 15 to 20)
#    0.000    2.500    0.000    3.000    0.000    7.500 
#    0.000    5.000    0.000    7.500    0.000    0.000 
#    0.000    0.000    0.000    0.000    0.000    0.000 
#
# Total GULP energy -396862.982388 kJ/mol
# GULP energy per Si atom -12401.968200 kJ/mol
# Density = 1.825845 g / cm^3
# Si number density = 18.300102 Si / 1000 Ang^3
#
#
#
# Elastic Constant Matrix: (Units=GPa)
#
#
# Indices 1 2 3 4 5 6 
#
# 1 142.4182 77.4071 50.1923 0.0000 0.0000 0.0000
# 2 77.4071 126.4071 44.8867 0.0000 0.0000 0.0000
# 3 50.1923 44.8867 41.9520 0.0000 0.0000 0.0000
# 4 0.0000 0.0000 0.0000 27.5305 0.0000 0.0000
# 5 0.0000 0.0000 0.0000 0.0000 30.9500 0.0000
# 6 0.0000 0.0000 0.0000 0.0000 0.0000 43.6133
#
#
#
# Elastic Compliance Matrix: (Units=1/GPa)
#
#
# Indices 1 2 3 4 5 6 
#
# 1 0.013298 -0.004022 -0.011607 0.000000 0.000000 0.000000
# 2 -0.004022 0.013975 -0.010141 0.000000 0.000000 0.000000
# 3 -0.011607 -0.010141 0.048574 0.000000 0.000000 0.000000
# 4 0.000000 0.000000 0.000000 0.036323 0.000000 0.000000
# 5 0.000000 0.000000 0.000000 0.000000 0.032310 0.000000
# 6 0.000000 0.000000 0.000000 0.000000 0.000000 0.022929
#
#
# Mechanical properties :
#
#
# Convention : Reuss Voigt Hill
#
# Bulk Modulus (GPa) = 41.13922 72.86104 57.00013
# Shear Modulus (GPa) = 22.02156 29.63816 25.82986
#
# Velocity S-wave (km/s) = 3.47271 4.02875 3.76102
# Velocity P-wave (km/s) = 6.21359 7.84487 7.07640
#
# Compressibility (1/GPa) = 0.02430771
#
# Stress axis : x y z
#
# Youngs Moduli (GPa) = 75.19864 71.55889 20.58719
#
# Poissons Ratio (x) = 0.28778 0.23896
# Poissons Ratio (y) = 0.30242 0.20877
# Poissons Ratio (z) = 0.87285 0.72565
#
# Static dielectric constant tensor:
#      x y z
#    x 3.501400 0.000000 0.000000 
#    y 0.000000 3.493340 0.000000 
#    z 0.000000 0.000000 3.041160 
# 
# 
# High freq. dielectric constant tensor:
#      x y z
#    x 1.723370 0.000000 0.000000 
#    y 0.000000 1.722440 0.000000 
#    z 0.000000 0.000000 1.673980 
# 
# From -- ./inp_files/3692.got.cif
#   From: 2010.06.25/outbox.cif.g09.slc.cpg/sg71_2_cif.got.tgz:3692.got - 2010.06.28 04:59:45.
