data_PCOD8290798
_publ_section_title
;
Structure prediction by ZEFSAII (Michael W. Deem and Ramdas Pophale) SiO2 
 PCOD8290798
Probable space group: I M M M
;
_chemical_formula_sum "Si O2"
_cell_formula_units_Z 80
_cell_length_a 25.857271
_cell_length_b 9.161146
_cell_length_c 18.244652
_cell_angle_alpha 90.000000
_cell_angle_beta 90.000000
_cell_angle_gamma 90.000000
_cell_volume 4321.833939
_symmetry_space_group_name_H-M "I M M M"
_symmetry_group_IT_number 71
_symmetry_cell_setting 'orthorhombic'
loop_
_space_group_symop_operation_xyz
x,y,z
-x,-y,z
x,-y,-z
-x,y,-z
-x,-y,-z
x,y,-z
-x,y,z
x,-y,z
1/2+x,1/2+y,1/2+z
1/2-x,1/2-y,1/2+z
1/2+x,1/2-y,1/2-z
1/2-x,1/2+y,1/2-z
1/2-x,1/2-y,1/2-z
1/2+x,1/2+y,1/2-z
1/2-x,1/2+y,1/2+z
1/2+x,1/2-y,1/2+z
loop_
_atom_site_type_symbol
_atom_site_label
_atom_site_fract_x
_atom_site_fract_y
_atom_site_fract_z
Si Si1 0.698524 0.169469 0.584066
Si Si2 0.000000 0.674278 0.417273
Si Si3 0.699051 0.171629 0.915602
Si Si4 0.405808 0.827502 0.336157
Si Si5 0.000000 0.171234 0.085906
Si Si6 0.099122 0.326696 0.668772
O O1 0.686765 0.209776 0.500000
O O2 0.748387 0.255528 0.613397
O O3 0.649356 0.217801 0.631091
O O4 0.710454 0.000000 0.594009
O O5 0.050508 0.736002 0.376248
O O6 0.000000 0.500000 0.416291
O O7 0.000000 0.733735 0.500000
O O8 0.651812 0.233902 0.867223
O O9 0.705232 0.000000 0.905726
O O10 0.688332 0.213651 0.000000
O O11 0.449474 0.742404 0.379533
O O12 0.406131 0.775166 0.252247
O O13 0.416125 0.000000 0.343890
O O14 0.000000 0.000000 0.102524
O O15 0.000000 0.204791 0.000000
O O16 0.099652 0.500000 0.663958
#
# Coordination Sequence:
#
# PCOD8290798 Si02
#       6
#    16   8  16  16   8  16
#     4   9  18  32  49  70  96 128 168 209 248 296
#     4   9  15  24  42  68  98 129 160 200 250 299
#     4   9  17  30  49  73 102 135 169 207 252 298
#     4  10  20  35  55  76 100 132 169 208 249 296
#     4  11  24  39  55  77 104 131 162 204 252 301
#     4   9  17  29  47  73 101 129 166 209 249 293
#
# _framework density 18.510660000000001
#
# number of rings (size 3 to 8) (size 9 to 14) (size 15 to 20)
#    0.000    2.600    0.000    2.100    0.000    7.200 
#    0.000    3.000    0.000    0.000    0.000    0.000 
#    0.000    6.400    0.000    0.000    0.000    0.000 
#
# Total GULP energy -496053.022451 kJ/mol
# GULP energy per Si atom -12401.325561 kJ/mol
# Density = 1.846853 g / cm^3
# Si number density = 18.510660 Si / 1000 Ang^3
#
#
#
# Elastic Constant Matrix: (Units=GPa)
#
#
# Indices 1 2 3 4 5 6 
#
# 1 197.9875 51.5221 108.6635 0.0000 0.0000 0.0000
# 2 51.5221 35.4520 39.3805 0.0000 0.0000 0.0000
# 3 108.6635 39.3805 145.5242 0.0000 0.0000 0.0000
# 4 0.0000 0.0000 0.0000 15.7726 0.0000 0.0000
# 5 0.0000 0.0000 0.0000 0.0000 -13.8726 0.0000
# 6 0.0000 0.0000 0.0000 0.0000 0.0000 1912.2331
#
#
#
# Elastic Compliance Matrix: (Units=1/GPa)
#
#
# Indices 1 2 3 4 5 6 
#
# 1 0.010296 -0.009184 -0.005203 0.000000 0.000000 0.000000
# 2 -0.009184 0.048522 -0.006273 0.000000 0.000000 0.000000
# 3 -0.005203 -0.006273 0.012454 0.000000 0.000000 0.000000
# 4 0.000000 0.000000 0.000000 0.063401 0.000000 0.000000
# 5 0.000000 0.000000 0.000000 0.000000 -0.072085 0.000000
# 6 0.000000 0.000000 0.000000 0.000000 0.000000 0.000523
#
#
# Mechanical properties :
#
#
# Convention : Reuss Voigt Hill
#
# Bulk Modulus (GPa) = 33.38563 86.45512 59.92038
# Shear Modulus (GPa) = 43.69979 394.78645 219.24312
#
# Velocity S-wave (km/s) = 4.86407 14.61979 10.89489
# Velocity P-wave (km/s) = 7.04419 18.21514 13.80963
#
# Compressibility (1/GPa) = 0.02995300
#
# Stress axis : x y z
#
# Youngs Moduli (GPa) = 97.12071 20.60908 80.29302
#
# Poissons Ratio (x) = 0.18928 0.41777
# Poissons Ratio (y) = 0.89197 0.50367
# Poissons Ratio (z) = 0.50533 0.12928
#
# Static dielectric constant tensor:
#      x y z
#    x 3.678960 0.000000 0.000000 
#    y 0.000000 3.025990 0.000000 
#    z 0.000000 0.000000 3.544290 
# 
# 
# High freq. dielectric constant tensor:
#      x y z
#    x 1.736190 0.000000 0.000000 
#    y 0.000000 1.674530 0.000000 
#    z 0.000000 0.000000 1.724980 
# 
# From -- ./inp_files/8438.got.cif
#   From: 2010.06.25/outbox.cif.g09.slc.cpg/sg71_5_cif.got.tgz:8438.got - 2010.06.28 04:59:45.
