data_PCOD8290984
_publ_section_title
;
Structure prediction by ZEFSAII (Michael W. Deem and Ramdas Pophale) SiO2 
 PCOD8290984
Probable space group: I M M M
;
_chemical_formula_sum "Si O2"
_cell_formula_units_Z 72
_cell_length_a 13.535972
_cell_length_b 7.541018
_cell_length_c 35.858288
_cell_angle_alpha 90.000000
_cell_angle_beta 90.000000
_cell_angle_gamma 90.000000
_cell_volume 3660.235052
_symmetry_space_group_name_H-M "I M M M"
_symmetry_group_IT_number 71
_symmetry_cell_setting 'orthorhombic'
loop_
_space_group_symop_operation_xyz
x,y,z
-x,-y,z
x,-y,-z
-x,y,-z
-x,-y,-z
x,y,-z
-x,y,z
x,-y,z
1/2+x,1/2+y,1/2+z
1/2-x,1/2-y,1/2+z
1/2+x,1/2-y,1/2-z
1/2-x,1/2+y,1/2-z
1/2-x,1/2-y,1/2-z
1/2+x,1/2+y,1/2-z
1/2-x,1/2+y,1/2+z
1/2+x,1/2-y,1/2+z
loop_
_atom_site_type_symbol
_atom_site_label
_atom_site_fract_x
_atom_site_fract_y
_atom_site_fract_z
Si Si1 0.113034 0.703511 0.635083
Si Si2 0.117288 0.696959 0.828773
Si Si3 0.382220 0.500000 0.725233
Si Si4 0.885364 0.000000 0.956233
Si Si5 0.706831 0.794428 0.407184
Si Si6 0.117359 0.000000 0.308434
O O1 0.125388 0.500000 0.647240
O O2 0.176842 0.751238 0.598423
O O3 0.000000 0.749005 0.625144
O O4 0.152651 0.824169 0.669373
O O5 0.159912 0.500000 0.820305
O O6 0.152932 0.763731 0.869064
O O7 0.000000 0.694004 0.829691
O O8 0.156538 0.826736 0.796576
O O9 0.500000 0.500000 0.726366
O O10 0.337347 0.500000 0.766894
O O11 0.835377 0.822275 0.940577
O O12 0.000000 0.000000 0.945470
O O13 0.868182 0.000000 0.000000
O O14 0.688908 0.000000 0.417085
O O15 0.000000 0.000000 0.305503
#
# Coordination Sequence:
#
# PCOD8290984 Si02
#       6
#    16  16   8   8  16   8
#     4  10  20  35  58  85 112 148 197 249 294 339
#     4   9  18  31  50  77 107 146 196 240 286 346
#     4   9  17  30  49  71 107 153 190 240 302 346
#     4  11  25  43  64  95 129 155 182 221 276 342
#     4  11  21  37  64  88 118 153 196 240 285 340
#     4   9  18  33  52  79 111 148 196 248 301 346
#
# _framework density 19.670867000000001
#
# number of rings (size 3 to 8) (size 9 to 14) (size 15 to 20)
#    0.000    2.111    2.222    1.333    0.000    3.556 
#    0.000    6.667    0.000    1.333    0.000    1.556 
#    0.000    0.000    0.000    0.000    0.000    0.000 
#
# Total GULP energy -446466.448137 kJ/mol
# GULP energy per Si atom -12401.845782 kJ/mol
# Density = 1.962609 g / cm^3
# Si number density = 19.670867 Si / 1000 Ang^3
#
#
#
# Elastic Constant Matrix: (Units=GPa)
#
#
# Indices 1 2 3 4 5 6 
#
# 1 57.4942 49.7803 50.5885 0.0000 0.0000 0.0000
# 2 49.7803 143.2142 67.6339 0.0000 0.0000 0.0000
# 3 50.5885 67.6339 111.9708 0.0000 0.0000 0.0000
# 4 0.0000 0.0000 0.0000 26.3478 0.0000 0.0000
# 5 0.0000 0.0000 0.0000 0.0000 23.7749 0.0000
# 6 0.0000 0.0000 0.0000 0.0000 0.0000 27.6661
#
#
#
# Elastic Compliance Matrix: (Units=1/GPa)
#
#
# Indices 1 2 3 4 5 6 
#
# 1 0.032229 -0.006053 -0.010905 0.000000 0.000000 0.000000
# 2 -0.006053 0.010906 -0.003853 0.000000 0.000000 0.000000
# 3 -0.010905 -0.003853 0.016185 0.000000 0.000000 0.000000
# 4 0.000000 0.000000 0.000000 0.037954 0.000000 0.000000
# 5 0.000000 0.000000 0.000000 0.000000 0.042061 0.000000
# 6 0.000000 0.000000 0.000000 0.000000 0.000000 0.036145
#
#
# Mechanical properties :
#
#
# Convention : Reuss Voigt Hill
#
# Bulk Modulus (GPa) = 56.50133 72.07606 64.28869
# Shear Modulus (GPa) = 22.42143 25.20286 23.81214
#
# Velocity S-wave (km/s) = 3.37980 3.58331 3.48304
# Velocity P-wave (km/s) = 6.63449 7.33762 6.99489
#
# Compressibility (1/GPa) = 0.01769870
#
# Stress axis : x y z
#
# Youngs Moduli (GPa) = 31.02820 91.69285 61.78502
#
# Poissons Ratio (x) = 0.55497 0.67377
# Poissons Ratio (y) = 0.18780 0.23806
# Poissons Ratio (z) = 0.33836 0.35330
#
# Static dielectric constant tensor:
#      x y z
#    x 3.665410 0.000000 0.000000 
#    y 0.000000 3.824450 0.000000 
#    z 0.000000 0.000000 3.327420 
# 
# 
# High freq. dielectric constant tensor:
#      x y z
#    x 1.777100 0.000000 0.000000 
#    y 0.000000 1.784310 0.000000 
#    z 0.000000 0.000000 1.726260 
# 
# From -- ./inp_files/69719.got.cif
#   From: 2010.06.25/outbox.cif.g09.slc.cpg/sg71_35_cif.got.tgz:69719.got - 2010.06.28 04:59:45.
