data_PCOD8290059
_publ_section_title
;
Structure prediction by ZEFSAII (Michael W. Deem and Ramdas Pophale) SiO2 
 PCOD8290059
Probable space group: I M M M
;
_chemical_formula_sum "Si O2"
_cell_formula_units_Z 96
_cell_length_a 9.530348
_cell_length_b 35.811241
_cell_length_c 16.139844
_cell_angle_alpha 90.000000
_cell_angle_beta 90.000000
_cell_angle_gamma 90.000000
_cell_volume 5508.425285
_symmetry_space_group_name_H-M "I M M M"
_symmetry_group_IT_number 71
_symmetry_cell_setting 'orthorhombic'
loop_
_space_group_symop_operation_xyz
x,y,z
-x,-y,z
x,-y,-z
-x,y,-z
-x,-y,-z
x,y,-z
-x,y,z
x,-y,z
1/2+x,1/2+y,1/2+z
1/2-x,1/2-y,1/2+z
1/2+x,1/2-y,1/2-z
1/2-x,1/2+y,1/2-z
1/2-x,1/2-y,1/2-z
1/2+x,1/2+y,1/2-z
1/2-x,1/2+y,1/2+z
1/2+x,1/2-y,1/2+z
loop_
_atom_site_type_symbol
_atom_site_label
_atom_site_fract_x
_atom_site_fract_y
_atom_site_fract_z
Si Si1 0.166166 0.358248 0.500000
Si Si2 0.838051 0.541821 0.228255
Si Si3 0.840462 0.848603 0.305581
Si Si4 0.164532 0.386814 0.672788
Si Si5 0.336320 0.263680 0.170269
Si Si6 0.333255 0.225852 0.000000
Si Si7 0.162692 0.079383 0.593756
O O1 0.218995 0.381238 0.579512
O O2 0.226583 0.316257 0.500000
O O3 0.000000 0.355526 0.500000
O O4 0.807427 0.500000 0.260986
O O5 0.795209 0.571114 0.299965
O O6 0.748592 0.549336 0.146354
O O7 0.000000 0.546893 0.204095
O O8 0.739695 0.855683 0.228073
O O9 0.813206 0.807764 0.341912
O O10 0.806209 0.878391 0.377304
O O11 0.000000 0.853093 0.274510
O O12 0.000000 0.379158 0.680697
O O13 0.500000 0.253890 0.184839
O O14 0.250000 0.250000 0.250000
O O15 0.279028 0.245334 0.084844
O O16 0.500000 0.227573 0.000000
O O17 0.214228 0.075909 0.500000
O O18 0.000000 0.069360 0.603109
#
# Coordination Sequence:
#
# PCOD8290059 Si02
#       7
#     8  16  16  16  16   8  16
#     4   9  16  28  48  71  92 116 156 199 229 272
#     4   9  18  32  48  68  96 126 154 188 234 285
#     4   9  18  31  48  69  94 123 157 196 236 278
#     4   9  17  31  51  71  92 123 158 193 234 281
#     4  10  20  33  50  71  97 129 165 203 246 292
#     4   9  18  30  47  72  97 126 161 197 242 293
#     4   9  18  31  48  70  94 122 158 196 232 273
#
# _framework density 17.427848999999998
#
# number of rings (size 3 to 8) (size 9 to 14) (size 15 to 20)
#    0.000    2.833    0.000    1.000    1.167    3.000 
#    0.000    2.917    0.000    5.500    0.000    0.000 
#    0.000    5.333    0.000    0.000    0.000    0.000 
#
# Total GULP energy -595124.516652 kJ/mol
# GULP energy per Si atom -12398.427430 kJ/mol
# Density = 1.738818 g / cm^3
# Si number density = 17.427849 Si / 1000 Ang^3
#
#
#
# Elastic Constant Matrix: (Units=GPa)
#
#
# Indices 1 2 3 4 5 6 
#
# 1 35.7975 31.3002 41.5950 0.0000 0.0000 0.0000
# 2 31.3002 115.7437 68.8483 0.0001 0.0000 0.0000
# 3 41.5950 68.8483 160.1326 -0.0001 0.0000 0.0000
# 4 0.0000 0.0001 -0.0001 19.1969 0.0000 0.0000
# 5 0.0000 0.0000 0.0000 0.0000 24.5778 0.0000
# 6 0.0000 0.0000 0.0000 0.0000 0.0000 22.5185
#
#
#
# Elastic Compliance Matrix: (Units=1/GPa)
#
#
# Indices 1 2 3 4 5 6 
#
# 1 0.043662 -0.006800 -0.008418 0.000000 0.000000 0.000000
# 2 -0.006800 0.012668 -0.003680 0.000000 0.000000 0.000000
# 3 -0.008418 -0.003680 0.010014 0.000000 0.000000 0.000000
# 4 0.000000 0.000000 0.000000 0.052092 0.000000 0.000000
# 5 0.000000 0.000000 0.000000 0.000000 0.040687 0.000000
# 6 0.000000 0.000000 0.000000 0.000000 0.000000 0.044408
#
#
# Mechanical properties :
#
#
# Convention : Reuss Voigt Hill
#
# Bulk Modulus (GPa) = 35.02964 66.12898 50.57931
# Shear Modulus (GPa) = 19.93293 24.58733 22.26013
#
# Velocity S-wave (km/s) = 3.38559 3.76015 3.57777
# Velocity P-wave (km/s) = 5.95201 7.54178 6.79356
#
# Compressibility (1/GPa) = 0.02854725
#
# Stress axis : x y z
#
# Youngs Moduli (GPa) = 22.90341 78.94049 99.86489
#
# Poissons Ratio (x) = 0.53682 0.84062
# Poissons Ratio (y) = 0.15575 0.36751
# Poissons Ratio (z) = 0.19279 0.29051
#
# Static dielectric constant tensor:
#      x y z
#    x 3.098400 0.000000 0.000000 
#    y 0.000000 3.370070 0.000000 
#    z 0.000000 0.000000 3.382690 
# 
# 
# High freq. dielectric constant tensor:
#      x y z
#    x 1.651350 0.000000 0.000000 
#    y 0.000000 1.680040 0.000000 
#    z 0.000000 0.000000 1.670420 
# 
# From -- ./inp_files/33241.got.cif
#   From: 2010.06.25/outbox.cif.g09.slc.cpg/sg71_17_cif.got.tgz:33241.got - 2010.06.28 04:59:45.
