data_PCOD8290772
_publ_section_title
;
Structure prediction by ZEFSAII (Michael W. Deem and Ramdas Pophale) SiO2 
 PCOD8290772
Probable space group: I M M M
;
_chemical_formula_sum "Si O2"
_cell_formula_units_Z 96
_cell_length_a 9.104779
_cell_length_b 24.103923
_cell_length_c 23.435787
_cell_angle_alpha 90.000000
_cell_angle_beta 90.000000
_cell_angle_gamma 90.000000
_cell_volume 5143.238719
_symmetry_space_group_name_H-M "I M M M"
_symmetry_group_IT_number 71
_symmetry_cell_setting 'orthorhombic'
loop_
_space_group_symop_operation_xyz
x,y,z
-x,-y,z
x,-y,-z
-x,y,-z
-x,-y,-z
x,y,-z
-x,y,z
x,-y,z
1/2+x,1/2+y,1/2+z
1/2-x,1/2-y,1/2+z
1/2+x,1/2-y,1/2-z
1/2-x,1/2+y,1/2-z
1/2-x,1/2-y,1/2-z
1/2+x,1/2+y,1/2-z
1/2-x,1/2+y,1/2+z
1/2+x,1/2-y,1/2+z
loop_
_atom_site_type_symbol
_atom_site_label
_atom_site_fract_x
_atom_site_fract_y
_atom_site_fract_z
Si Si1 0.828356 0.564018 0.565711
Si Si2 0.326650 0.657957 0.637808
Si Si3 0.833202 0.639555 0.064541
Si Si4 0.171401 0.846257 0.730709
Si Si5 0.327474 0.269267 0.128892
Si Si6 0.829896 0.561655 0.834827
O O1 0.787497 0.577550 0.500000
O O2 0.788730 0.500000 0.579411
O O3 0.737251 0.603139 0.608061
O O4 0.000000 0.574553 0.576030
O O5 0.500000 0.658066 0.628070
O O6 0.283359 0.662314 0.704154
O O7 0.255717 0.713063 0.611675
O O8 0.718566 0.687324 0.080506
O O9 0.802257 0.585327 0.102086
O O10 0.000000 0.661188 0.074498
O O11 0.806344 0.621279 0.000000
O O12 0.221190 0.794126 0.690998
O O13 0.249081 0.902493 0.712433
O O14 0.000000 0.855470 0.722859
O O15 0.500000 0.257973 0.126440
O O16 0.764157 0.500000 0.833130
O O17 0.000000 0.561805 0.818774
#
# Coordination Sequence:
#
# PCOD8290772 Si02
#       6
#    16  16  16  16  16  16
#     4   9  20  40  61  79 103 135 170 209 252 299
#     4  11  22  35  55  82 107 133 169 210 254 308
#     4   9  18  33  52  74 103 138 174 215 261 304
#     4   9  20  36  52  74 105 139 172 210 257 304
#     4  10  20  35  54  75 103 138 174 213 256 303
#     4   9  18  32  51  76 104 136 175 216 257 302
#
# _framework density 18.665282000000001
#
# number of rings (size 3 to 8) (size 9 to 14) (size 15 to 20)
#    0.000    2.500    0.000    2.000    0.000    5.000 
#    0.000    5.833    0.000    0.000    0.000    4.667 
#    0.000    0.000    0.000    0.000    0.000    0.000 
#
# Total GULP energy -595176.469964 kJ/mol
# GULP energy per Si atom -12399.509791 kJ/mol
# Density = 1.862280 g / cm^3
# Si number density = 18.665282 Si / 1000 Ang^3
#
#
#
# Elastic Constant Matrix: (Units=GPa)
#
#
# Indices 1 2 3 4 5 6 
#
# 1 50.2698 41.5246 28.4367 0.0000 0.0000 0.0000
# 2 41.5246 118.7063 18.6850 0.0000 0.0000 0.0000
# 3 28.4367 18.6850 34.3387 0.0000 0.0000 0.0000
# 4 0.0000 0.0000 0.0000 17.8989 0.0000 0.0000
# 5 0.0000 0.0000 0.0000 0.0000 29.1559 0.0000
# 6 0.0000 0.0000 0.0000 0.0000 0.0000 34.3455
#
#
#
# Elastic Compliance Matrix: (Units=1/GPa)
#
#
# Indices 1 2 3 4 5 6 
#
# 1 0.048857 -0.011726 -0.034079 0.000000 0.000000 0.000000
# 2 -0.011726 0.012028 0.003166 0.000000 0.000000 0.000000
# 3 -0.034079 0.003166 0.055620 0.000000 0.000000 0.000000
# 4 0.000000 0.000000 0.000000 0.055869 0.000000 0.000000
# 5 0.000000 0.000000 0.000000 0.000000 0.034298 0.000000
# 6 0.000000 0.000000 0.000000 0.000000 0.000000 0.029116
#
#
# Mechanical properties :
#
#
# Convention : Reuss Voigt Hill
#
# Bulk Modulus (GPa) = 32.02367 42.28971 37.15669
# Shear Modulus (GPa) = 15.08405 23.92461 19.50433
#
# Velocity S-wave (km/s) = 2.84585 3.58407 3.23608
# Velocity P-wave (km/s) = 5.29080 6.31137 5.82349
#
# Compressibility (1/GPa) = 0.03122690
#
# Stress axis : x y z
#
# Youngs Moduli (GPa) = 20.46794 83.14075 17.97900
#
# Poissons Ratio (x) = 0.97494 0.61270
# Poissons Ratio (y) = 0.24002 -0.05692
# Poissons Ratio (z) = 0.69752 -0.26324
#
# Static dielectric constant tensor:
#      x y z
#    x 3.363350 0.000000 0.000000 
#    y 0.000000 3.425840 0.000000 
#    z 0.000000 0.000000 3.414260 
# 
# 
# High freq. dielectric constant tensor:
#      x y z
#    x 1.722120 0.000000 0.000000 
#    y 0.000000 1.726890 0.000000 
#    z 0.000000 0.000000 1.721200 
# 
# From -- ./inp_files/12815.got.cif
#   From: 2010.06.25/outbox.cif.g09.slc.cpg/sg71_7_cif.got.tgz:12815.got - 2010.06.28 04:59:45.
