data_PCOD8290951
_publ_section_title
;
Structure prediction by ZEFSAII (Michael W. Deem and Ramdas Pophale) SiO2 
 PCOD8290951
Probable space group: I M M M
;
_chemical_formula_sum "Si O2"
_cell_formula_units_Z 72
_cell_length_a 18.092194
_cell_length_b 13.895267
_cell_length_c 14.767665
_cell_angle_alpha 90.000000
_cell_angle_beta 90.000000
_cell_angle_gamma 90.000000
_cell_volume 3712.529935
_symmetry_space_group_name_H-M "I M M M"
_symmetry_group_IT_number 71
_symmetry_cell_setting 'orthorhombic'
loop_
_space_group_symop_operation_xyz
x,y,z
-x,-y,z
x,-y,-z
-x,y,-z
-x,-y,-z
x,y,-z
-x,y,z
x,-y,z
1/2+x,1/2+y,1/2+z
1/2-x,1/2-y,1/2+z
1/2+x,1/2-y,1/2-z
1/2-x,1/2+y,1/2-z
1/2-x,1/2-y,1/2-z
1/2+x,1/2+y,1/2-z
1/2-x,1/2+y,1/2+z
1/2+x,1/2-y,1/2+z
loop_
_atom_site_type_symbol
_atom_site_label
_atom_site_fract_x
_atom_site_fract_y
_atom_site_fract_z
Si Si1 0.294992 0.301395 0.396236
Si Si2 0.082588 0.000000 0.606611
Si Si3 0.777523 0.500000 0.606456
Si Si4 0.643858 0.297646 0.104200
Si Si5 0.583796 0.000000 0.771127
Si Si6 0.583125 0.792001 0.725421
O O1 0.321172 0.306290 0.500000
O O2 0.267135 0.405496 0.362317
O O3 0.230703 0.222538 0.383556
O O4 0.363786 0.271894 0.335675
O O5 0.128217 0.093654 0.637147
O O6 0.074283 0.000000 0.500000
O O7 0.000000 0.000000 0.650042
O O8 0.789422 0.500000 0.500000
O O9 0.859097 0.500000 0.646838
O O10 0.596992 0.226728 0.167756
O O11 0.619444 0.279656 0.000000
O O12 0.595868 0.905766 0.708364
O O13 0.500000 0.000000 0.810592
O O14 0.500000 0.761978 0.700158
#
# Coordination Sequence:
#
# PCOD8290951 Si02
#       6
#    16   8   8  16   8  16
#     4  10  22  40  61  86 115 154 202 246 291 348
#     4   9  18  32  50  80 120 152 184 230 282 347
#     4  10  20  38  62  89 119 152 196 248 298 349
#     4  10  20  35  57  84 116 153 191 238 297 356
#     4  10  22  36  56  89 123 153 193 244 296 354
#     4  11  23  39  59  86 119 156 197 243 296 352
#
# _framework density 19.393784
#
# number of rings (size 3 to 8) (size 9 to 14) (size 15 to 20)
#    0.000    1.889    2.222    1.333    0.000    3.778 
#    0.000    5.556    0.000    4.000    0.000    0.000 
#    0.000    0.000    0.000    0.000    0.000    0.000 
#
# Total GULP energy -446402.206614 kJ/mol
# GULP energy per Si atom -12400.061295 kJ/mol
# Density = 1.934964 g / cm^3
# Si number density = 19.393784 Si / 1000 Ang^3
#
#
#
# Elastic Constant Matrix: (Units=GPa)
#
#
# Indices 1 2 3 4 5 6 
#
# 1 143.4458 75.1334 56.2030 0.0000 0.0000 0.0000
# 2 75.1334 141.4026 44.0416 0.0000 0.0000 0.0000
# 3 56.2030 44.0416 63.7755 0.0000 0.0000 0.0000
# 4 0.0000 0.0000 0.0000 19.3972 0.0000 0.0000
# 5 0.0000 0.0000 0.0000 0.0000 24.1545 0.0000
# 6 0.0000 0.0000 0.0000 0.0000 0.0000 33.0998
#
#
#
# Elastic Compliance Matrix: (Units=1/GPa)
#
#
# Indices 1 2 3 4 5 6 
#
# 1 0.012191 -0.003989 -0.007988 0.000000 0.000000 0.000000
# 2 -0.003989 0.010315 -0.003608 0.000000 0.000000 0.000000
# 3 -0.007988 -0.003608 0.025211 0.000000 0.000000 0.000000
# 4 0.000000 0.000000 0.000000 0.051554 0.000000 0.000000
# 5 0.000000 0.000000 0.000000 0.000000 0.041400 0.000000
# 6 0.000000 0.000000 0.000000 0.000000 0.000000 0.030212
#
#
# Mechanical properties :
#
#
# Convention : Reuss Voigt Hill
#
# Bulk Modulus (GPa) = 60.43616 77.70889 69.07252
# Shear Modulus (GPa) = 24.08833 26.88003 25.48418
#
# Velocity S-wave (km/s) = 3.52812 3.72696 3.62890
# Velocity P-wave (km/s) = 6.91571 7.66004 7.29737
#
# Compressibility (1/GPa) = 0.01654639
#
# Stress axis : x y z
#
# Youngs Moduli (GPa) = 82.03003 96.94175 39.66488
#
# Poissons Ratio (x) = 0.38674 0.31685
# Poissons Ratio (y) = 0.32725 0.14311
# Poissons Ratio (z) = 0.65527 0.34975
#
# Static dielectric constant tensor:
#      x y z
#    x 3.457330 0.000000 0.000000 
#    y 0.000000 3.988570 0.000000 
#    z 0.000000 0.000000 3.273400 
# 
# 
# High freq. dielectric constant tensor:
#      x y z
#    x 1.753070 0.000000 0.000000 
#    y 0.000000 1.771200 0.000000 
#    z 0.000000 0.000000 1.727960 
# 
# From -- ./inp_files/34120.got.cif
#   From: 2010.06.25/outbox.cif.g09.slc.cpg/sg71_18_cif.got.tgz:34120.got - 2010.06.28 04:59:45.
