data_PCOD8290653
_publ_section_title
;
Structure prediction by ZEFSAII (Michael W. Deem and Ramdas Pophale) SiO2 
 PCOD8290653
Probable space group: I M M M
;
_chemical_formula_sum "Si O2"
_cell_formula_units_Z 104
_cell_length_a 22.999883
_cell_length_b 8.543016
_cell_length_c 26.866520
_cell_angle_alpha 90.000000
_cell_angle_beta 90.000000
_cell_angle_gamma 90.000000
_cell_volume 5278.958681
_symmetry_space_group_name_H-M "I M M M"
_symmetry_group_IT_number 71
_symmetry_cell_setting 'orthorhombic'
loop_
_space_group_symop_operation_xyz
x,y,z
-x,-y,z
x,-y,-z
-x,y,-z
-x,-y,-z
x,y,-z
-x,y,z
x,-y,z
1/2+x,1/2+y,1/2+z
1/2-x,1/2-y,1/2+z
1/2+x,1/2-y,1/2-z
1/2-x,1/2+y,1/2-z
1/2-x,1/2-y,1/2-z
1/2+x,1/2+y,1/2-z
1/2-x,1/2+y,1/2+z
1/2+x,1/2-y,1/2+z
loop_
_atom_site_type_symbol
_atom_site_label
_atom_site_fract_x
_atom_site_fract_y
_atom_site_fract_z
Si Si1 0.356372 0.823302 0.126888
Si Si2 0.743381 0.184907 0.056801
Si Si3 0.566442 0.185958 0.216000
Si Si4 0.864862 0.682121 0.911894
Si Si5 0.567592 0.672621 0.054508
Si Si6 0.066458 0.183080 0.823302
Si Si7 0.068253 0.824553 0.000000
O O1 0.301423 0.741242 0.098354
O O2 0.383816 0.749859 0.177581
O O3 0.408810 0.812816 0.087884
O O4 0.339587 0.000000 0.139033
O O5 0.807061 0.222317 0.076370
O O6 0.733769 0.000000 0.055405
O O7 0.734662 0.250868 0.000000
O O8 0.500000 0.228071 0.198793
O O9 0.581222 0.273047 0.266931
O O10 0.571612 0.000000 0.222969
O O11 0.850615 0.500000 0.915833
O O12 0.889123 0.721530 0.857499
O O13 0.913394 0.730391 0.951366
O O14 0.500000 0.695733 0.049984
O O15 0.582573 0.500000 0.076802
O O16 0.596038 0.687428 0.000000
O O17 0.000000 0.230251 0.835978
O O18 0.076373 0.000000 0.832050
O O19 0.000000 0.837315 0.000000
O O20 0.095529 0.000000 0.000000
#
# Coordination Sequence:
#
# PCOD8290653 Si02
#       7
#    16  16  16  16  16  16   8
#     4  10  20  34  55  82 108 144 193 239 287 339
#     4  10  21  38  58  79 112 156 197 239 287 339
#     4   9  18  34  56  84 118 149 183 236 293 341
#     4  12  24  38  59  87 117 150 190 233 281 336
#     4   9  18  31  46  69 104 143 181 229 290 347
#     4  10  21  38  61  87 115 149 187 227 281 347
#     4  11  23  39  61  89 121 153 184 223 276 339
#
# _framework density 19.700854
#
# number of rings (size 3 to 8) (size 9 to 14) (size 15 to 20)
#    0.000    1.923    0.769    3.923    0.000    6.462 
#    0.000    3.077    0.000    0.000    0.000    0.000 
#    0.000    0.000    0.000    0.000    0.000    0.000 
#
# Total GULP energy -644362.302673 kJ/mol
# GULP energy per Si atom -12391.582744 kJ/mol
# Density = 1.965601 g / cm^3
# Si number density = 19.700854 Si / 1000 Ang^3
#
#
#
# Elastic Constant Matrix: (Units=GPa)
#
#
# Indices 1 2 3 4 5 6 
#
# 1 86.7372 12.2313 63.7516 0.0000 0.0000 0.0000
# 2 12.2313 23.9581 12.4327 0.0000 0.0000 0.0000
# 3 63.7516 12.4327 114.8404 0.0000 0.0000 0.0000
# 4 0.0000 0.0000 0.0000 16.4939 0.0000 0.0000
# 5 0.0000 0.0000 0.0000 0.0000 31.0058 0.0000
# 6 0.0000 0.0000 0.0000 0.0000 0.0000 19.4560
#
#
#
# Elastic Compliance Matrix: (Units=1/GPa)
#
#
# Indices 1 2 3 4 5 6 
#
# 1 0.019964 -0.004705 -0.010573 0.000000 0.000000 0.000000
# 2 -0.004705 0.045333 -0.002296 0.000000 0.000000 0.000000
# 3 -0.010573 -0.002296 0.014826 0.000000 0.000000 0.000000
# 4 0.000000 0.000000 0.000000 0.060628 0.000000 0.000000
# 5 0.000000 0.000000 0.000000 0.000000 0.032252 0.000000
# 6 0.000000 0.000000 0.000000 0.000000 0.000000 0.051398
#
#
# Mechanical properties :
#
#
# Convention : Reuss Voigt Hill
#
# Bulk Modulus (GPa) = 22.23495 44.70742 33.47118
# Shear Modulus (GPa) = 18.21222 22.53249 20.37236
#
# Velocity S-wave (km/s) = 3.04376 3.38558 3.21921
# Velocity P-wave (km/s) = 4.86450 6.16646 5.55377
#
# Compressibility (1/GPa) = 0.04497424
#
# Stress axis : x y z
#
# Youngs Moduli (GPa) = 50.09053 22.05899 67.45013
#
# Poissons Ratio (x) = 0.10379 0.71316
# Poissons Ratio (y) = 0.23569 0.15484
# Poissons Ratio (z) = 0.52962 0.05064
#
# Static dielectric constant tensor:
#      x y z
#    x 3.573950 0.000000 0.000000 
#    y 0.000000 3.535350 0.000000 
#    z 0.000000 0.000000 3.356510 
# 
# 
# High freq. dielectric constant tensor:
#      x y z
#    x 1.761340 0.000000 0.000000 
#    y 0.000000 1.753440 0.000000 
#    z 0.000000 0.000000 1.772040 
# 
# From -- ./inp_files/66816.got.cif
#   From: 2010.06.25/outbox.cif.g09.slc.cpg/sg71_34_cif.got.tgz:66816.got - 2010.06.28 04:59:45.
