data_PCOD8290311
_publ_section_title
;
Structure prediction by ZEFSAII (Michael W. Deem and Ramdas Pophale) SiO2 
 PCOD8290311
Probable space group: I M M M
;
_chemical_formula_sum "Si O2"
_cell_formula_units_Z 104
_cell_length_a 20.537636
_cell_length_b 32.035992
_cell_length_c 8.793434
_cell_angle_alpha 90.000000
_cell_angle_beta 90.000000
_cell_angle_gamma 90.000000
_cell_volume 5785.583118
_symmetry_space_group_name_H-M "I M M M"
_symmetry_group_IT_number 71
_symmetry_cell_setting 'orthorhombic'
loop_
_space_group_symop_operation_xyz
x,y,z
-x,-y,z
x,-y,-z
-x,y,-z
-x,-y,-z
x,y,-z
-x,y,z
x,-y,z
1/2+x,1/2+y,1/2+z
1/2-x,1/2-y,1/2+z
1/2+x,1/2-y,1/2-z
1/2-x,1/2+y,1/2-z
1/2-x,1/2-y,1/2-z
1/2+x,1/2+y,1/2-z
1/2-x,1/2+y,1/2+z
1/2+x,1/2-y,1/2+z
loop_
_atom_site_type_symbol
_atom_site_label
_atom_site_fract_x
_atom_site_fract_y
_atom_site_fract_z
Si Si1 0.928751 0.500000 0.181530
Si Si2 0.574331 0.310246 0.673447
Si Si3 0.182350 0.863459 0.679527
Si Si4 0.842625 0.572937 0.827862
Si Si5 0.073654 0.286581 0.822135
Si Si6 0.183502 0.343234 0.322500
Si Si7 0.801525 0.954764 0.328606
O O1 0.895850 0.457988 0.241153
O O2 0.000000 0.500000 0.249872
O O3 0.925512 0.500000 0.000000
O O4 0.595858 0.318418 0.500000
O O5 0.500000 0.324188 0.698091
O O6 0.618046 0.337648 0.785066
O O7 0.582830 0.262014 0.715055
O O8 0.194068 0.867124 0.500000
O O9 0.245226 0.839211 0.745665
O O10 0.173318 0.911081 0.747372
O O11 0.844723 0.611598 0.714677
O O12 0.775986 0.547518 0.826743
O O13 0.858334 0.588242 0.000000
O O14 0.130993 0.309671 0.733665
O O15 0.000000 0.300313 0.771795
O O16 0.081895 0.295345 0.000000
O O17 0.193385 0.336846 0.500000
O O18 0.828236 0.956530 0.500000
O O19 0.821550 0.000000 0.250524
#
# Coordination Sequence:
#
# PCOD8290311 Si02
#       7
#     8  16  16  16  16  16  16
#     4   9  16  26  45  71  93 123 172 219 256 299
#     4   9  19  37  59  80 105 136 168 209 263 319
#     4  10  20  33  54  82 108 136 174 217 259 307
#     4   9  16  29  48  68  94 130 171 216 258 300
#     4   9  19  37  58  76  97 134 181 220 258 310
#     4  11  22  34  50  75 108 140 171 216 268 314
#     4   8  13  25  47  71  95 127 166 210 251 287
#
# _framework density 17.975717
#
# number of rings (size 3 to 8) (size 9 to 14) (size 15 to 20)
#    0.000    2.692    0.769    3.692    0.000    2.462 
#    0.000    3.462    0.000    2.308    0.000    3.231 
#    0.000    0.000    0.000    0.000    0.000    0.000 
#
# Total GULP energy -644280.410010 kJ/mol
# GULP energy per Si atom -12390.007885 kJ/mol
# Density = 1.793480 g / cm^3
# Si number density = 17.975717 Si / 1000 Ang^3
#
#
#
# Elastic Constant Matrix: (Units=GPa)
#
#
# Indices 1 2 3 4 5 6 
#
# 1 93.3565 59.7933 31.7414 0.0000 0.0000 0.0001
# 2 59.7933 96.6475 35.0018 -0.0001 0.0002 -0.0002
# 3 31.7414 35.0018 60.5816 -0.0006 -0.0015 0.0007
# 4 0.0000 -0.0001 -0.0006 19.5541 -0.0001 -0.0005
# 5 0.0000 0.0002 -0.0015 -0.0001 25.6723 0.0005
# 6 0.0001 -0.0002 0.0007 -0.0005 0.0005 12.1448
#
#
#
# Elastic Compliance Matrix: (Units=1/GPa)
#
#
# Indices 1 2 3 4 5 6 
#
# 1 0.018437 -0.010000 -0.003882 0.000000 0.000000 0.000000
# 2 -0.010000 0.018509 -0.005454 0.000000 0.000000 0.000001
# 3 -0.003882 -0.005454 0.021692 0.000001 0.000001 -0.000001
# 4 0.000000 0.000000 0.000001 0.051140 0.000000 0.000002
# 5 0.000000 0.000000 0.000001 0.000000 0.038952 -0.000002
# 6 0.000000 0.000001 -0.000001 0.000002 -0.000002 0.082339
#
#
# Mechanical properties :
#
#
# Convention : Reuss Voigt Hill
#
# Bulk Modulus (GPa) = 50.08892 55.96208 53.02550
# Shear Modulus (GPa) = 18.08988 19.74419 18.91704
#
# Velocity S-wave (km/s) = 3.17575 3.31778 3.24754
# Velocity P-wave (km/s) = 6.43214 6.77322 6.60488
#
# Compressibility (1/GPa) = 0.01996450
#
# Stress axis : x y z
#
# Youngs Moduli (GPa) = 54.24018 54.02732 46.10024
#
# Poissons Ratio (x) = 0.54029 0.17896
# Poissons Ratio (y) = 0.54242 0.25144
# Poissons Ratio (z) = 0.21055 0.29468
#
# Static dielectric constant tensor:
#      x y z
#    x 3.209010 0.000000 0.000000 
#    y 0.000000 3.518770 0.000000 
#    z 0.000000 0.000000 3.010070 
# 
# 
# High freq. dielectric constant tensor:
#      x y z
#    x 1.681230 0.000000 0.000000 
#    y 0.000000 1.705340 0.000000 
#    z 0.000000 0.000000 1.664250 
# 
# From -- ./inp_files/11475.got.cif
#   From: 2010.06.25/outbox.cif.g09.slc.cpg/sg71_6_cif.got.tgz:11475.got - 2010.06.28 04:59:45.
