data_PCOD8290499
_publ_section_title
;
Structure prediction by ZEFSAII (Michael W. Deem and Ramdas Pophale) SiO2 
 PCOD8290499
Probable space group: I M M M
;
_chemical_formula_sum "Si O2"
_cell_formula_units_Z 96
_cell_length_a 24.204897
_cell_length_b 8.932272
_cell_length_c 24.391469
_cell_angle_alpha 90.000000
_cell_angle_beta 90.000000
_cell_angle_gamma 90.000000
_cell_volume 5273.550817
_symmetry_space_group_name_H-M "I M M M"
_symmetry_group_IT_number 71
_symmetry_cell_setting 'orthorhombic'
loop_
_space_group_symop_operation_xyz
x,y,z
-x,-y,z
x,-y,-z
-x,y,-z
-x,-y,-z
x,y,-z
-x,y,z
x,-y,z
1/2+x,1/2+y,1/2+z
1/2-x,1/2-y,1/2+z
1/2+x,1/2-y,1/2-z
1/2-x,1/2+y,1/2-z
1/2-x,1/2-y,1/2-z
1/2+x,1/2+y,1/2-z
1/2-x,1/2+y,1/2+z
1/2+x,1/2-y,1/2+z
loop_
_atom_site_type_symbol
_atom_site_label
_atom_site_fract_x
_atom_site_fract_y
_atom_site_fract_z
Si Si1 0.839209 0.170359 0.667696
Si Si2 0.213018 0.828858 0.561041
Si Si3 0.437951 0.674961 0.758264
Si Si4 0.732207 0.676214 0.346395
Si Si5 0.380616 0.823763 0.661073
Si Si6 0.063838 0.827375 0.937168
O O1 0.841493 0.181840 0.600631
O O2 0.896125 0.229662 0.693824
O O3 0.786025 0.266953 0.688012
O O4 0.828647 0.000000 0.686327
O O5 0.199474 0.768369 0.500000
O O6 0.261145 0.729835 0.589777
O O7 0.233935 0.000000 0.558452
O O8 0.500000 0.709795 0.778492
O O9 0.430596 0.500000 0.745215
O O10 0.426993 0.767073 0.703143
O O11 0.727313 0.500000 0.342910
O O12 0.677151 0.748351 0.321410
O O13 0.398012 0.777076 0.599999
O O14 0.374345 0.000000 0.664466
O O15 0.000000 0.787884 0.926828
O O16 0.075149 0.000000 0.922169
O O17 0.079695 0.795509 0.000000
#
# Coordination Sequence:
#
# PCOD8290499 Si02
#       6
#    16  16  16  16  16  16
#     4   8  17  35  55  80 110 142 179 219 271 324
#     4   8  15  31  54  79 109 142 175 215 266 320
#     4  10  21  38  60  81 106 143 184 226 269 320
#     4  10  20  34  53  78 106 139 178 218 263 319
#     4  12  24  36  52  78 111 144 181 224 273 324
#     4   9  19  37  58  77 101 137 181 227 272 319
#
# _framework density 18.204052000000001
#
# number of rings (size 3 to 8) (size 9 to 14) (size 15 to 20)
#    1.000    1.500    0.000    3.500    0.000    5.333 
#    0.000    0.833    0.000    0.500    0.000    3.500 
#    0.000    1.333    0.000    0.000    0.000    0.000 
#
# Total GULP energy -594812.831082 kJ/mol
# GULP energy per Si atom -12391.933981 kJ/mol
# Density = 1.816262 g / cm^3
# Si number density = 18.204052 Si / 1000 Ang^3
#
#
#
# Elastic Constant Matrix: (Units=GPa)
#
#
# Indices 1 2 3 4 5 6 
#
# 1 117.9453 50.2504 32.0847 0.0000 0.0000 0.0000
# 2 50.2504 97.7392 21.5108 0.0000 0.0000 0.0000
# 3 32.0847 21.5108 37.9868 0.0000 0.0000 0.0000
# 4 0.0000 0.0000 0.0000 21.5828 0.0000 0.0000
# 5 0.0000 0.0000 0.0000 0.0000 29.1646 0.0000
# 6 0.0000 0.0000 0.0000 0.0000 0.0000 24.6388
#
#
#
# Elastic Compliance Matrix: (Units=1/GPa)
#
#
# Indices 1 2 3 4 5 6 
#
# 1 0.012688 -0.004758 -0.008022 0.000000 0.000000 0.000000
# 2 -0.004758 0.013472 -0.003610 0.000000 0.000000 0.000000
# 3 -0.008022 -0.003610 0.035145 0.000000 0.000000 0.000000
# 4 0.000000 0.000000 0.000000 0.046333 0.000000 0.000000
# 5 0.000000 0.000000 0.000000 0.000000 0.034288 0.000000
# 6 0.000000 0.000000 0.000000 0.000000 0.000000 0.040586
#
#
# Mechanical properties :
#
#
# Convention : Reuss Voigt Hill
#
# Bulk Modulus (GPa) = 35.05776 51.26255 43.16015
# Shear Modulus (GPa) = 22.24184 25.06559 23.65372
#
# Velocity S-wave (km/s) = 3.49923 3.71472 3.60858
# Velocity P-wave (km/s) = 5.96876 6.82788 6.41273
#
# Compressibility (1/GPa) = 0.02852436
#
# Stress axis : x y z
#
# Youngs Moduli (GPa) = 78.81599 74.22874 28.45330
#
# Poissons Ratio (x) = 0.35315 0.22826
# Poissons Ratio (y) = 0.37497 0.10273
# Poissons Ratio (z) = 0.63229 0.26799
#
# Static dielectric constant tensor:
#      x y z
#    x 3.279390 0.000000 0.000000 
#    y 0.000000 3.196960 0.000000 
#    z 0.000000 0.000000 3.357890 
# 
# 
# High freq. dielectric constant tensor:
#      x y z
#    x 1.689210 0.000000 0.000000 
#    y 0.000000 1.697860 0.000000 
#    z 0.000000 0.000000 1.696540 
# 
# From -- ./inp_files/14827.got.cif
#   From: 2010.06.25/outbox.cif.g09.slc.cpg/sg71_8_cif.got.tgz:14827.got - 2010.06.28 04:59:45.
