data_PCOD8290701
_publ_section_title
;
Structure prediction by ZEFSAII (Michael W. Deem and Ramdas Pophale) SiO2 
 PCOD8290701
Probable space group: I M M M
;
_chemical_formula_sum "Si O2"
_cell_formula_units_Z 104
_cell_length_a 22.423332
_cell_length_b 8.542972
_cell_length_c 26.193465
_cell_angle_alpha 90.000000
_cell_angle_beta 90.000000
_cell_angle_gamma 90.000000
_cell_volume 5017.669855
_symmetry_space_group_name_H-M "I M M M"
_symmetry_group_IT_number 71
_symmetry_cell_setting 'orthorhombic'
loop_
_space_group_symop_operation_xyz
x,y,z
-x,-y,z
x,-y,-z
-x,y,-z
-x,-y,-z
x,y,-z
-x,y,z
x,-y,z
1/2+x,1/2+y,1/2+z
1/2-x,1/2-y,1/2+z
1/2+x,1/2-y,1/2-z
1/2-x,1/2+y,1/2-z
1/2-x,1/2-y,1/2-z
1/2+x,1/2+y,1/2-z
1/2-x,1/2+y,1/2+z
1/2+x,1/2-y,1/2+z
loop_
_atom_site_type_symbol
_atom_site_label
_atom_site_fract_x
_atom_site_fract_y
_atom_site_fract_z
Si Si1 0.433838 0.685759 0.500000
Si Si2 0.064625 0.314825 0.555839
Si Si3 0.313369 0.814870 0.230876
Si Si4 0.067840 0.315613 0.209723
Si Si5 0.719627 0.182364 0.441736
Si Si6 0.885980 0.816738 0.106767
Si Si7 0.824444 0.684089 0.614807
O O1 0.428482 0.500000 0.500000
O O2 0.500000 0.747418 0.500000
O O3 0.405861 0.752364 0.448182
O O4 0.085591 0.253317 0.500000
O O5 0.060485 0.500000 0.553422
O O6 0.108631 0.265740 0.600869
O O7 0.000000 0.243595 0.569440
O O8 0.250000 0.750000 0.250000
O O9 0.374566 0.748280 0.258327
O O10 0.315377 0.761804 0.172511
O O11 0.312654 0.000000 0.237979
O O12 0.067417 0.500000 0.216156
O O13 0.078804 0.271740 0.150909
O O14 0.000000 0.254617 0.225309
O O15 0.707826 0.242930 0.500000
O O16 0.683903 0.276118 0.396855
O O17 0.786762 0.217491 0.425922
O O18 0.705235 0.000000 0.438050
O O19 0.897980 0.000000 0.113935
O O20 0.811926 0.500000 0.607529
#
# Coordination Sequence:
#
# PCOD8290701 Si02
#       7
#     8  16  16  16  16  16  16
#     4   9  18  32  51  77 107 135 168 217 270 315
#     4   8  14  26  47  78 112 139 166 212 273 330
#     4  10  22  39  58  82 111 148 193 240 290 338
#     4  10  22  40  60  84 119 159 195 236 291 352
#     4  11  23  37  54  80 117 154 188 229 285 350
#     4  11  21  36  58  83 112 146 188 234 280 330
#     4  10  20  34  56  83 108 141 190 239 282 334
#
# _framework density 20.726752999999999
#
# number of rings (size 3 to 8) (size 9 to 14) (size 15 to 20)
#    0.000    2.077    0.769    3.231    0.000    6.769 
#    0.000    3.077    0.000    2.308    0.000    4.308 
#    0.000    0.000    0.000    0.000    0.000    0.000 
#
# Total GULP energy -644201.349089 kJ/mol
# GULP energy per Si atom -12388.487482 kJ/mol
# Density = 2.067958 g / cm^3
# Si number density = 20.726753 Si / 1000 Ang^3
#
#
#
# Elastic Constant Matrix: (Units=GPa)
#
#
# Indices 1 2 3 4 5 6 
#
# 1 152.3430 15.3312 60.6812 0.0000 0.0000 0.0000
# 2 15.3312 15.7572 15.4046 0.0000 0.0000 0.0000
# 3 60.6812 15.4046 101.3042 0.0000 0.0000 0.0000
# 4 0.0000 0.0000 0.0000 25.0740 0.0000 0.0000
# 5 0.0000 0.0000 0.0000 0.0000 35.4876 0.0000
# 6 0.0000 0.0000 0.0000 0.0000 0.0000 22.4927
#
#
#
# Elastic Compliance Matrix: (Units=1/GPa)
#
#
# Indices 1 2 3 4 5 6 
#
# 1 0.008833 -0.004019 -0.004680 0.000000 0.000000 0.000000
# 2 -0.004019 0.076373 -0.009206 0.000000 0.000000 0.000000
# 3 -0.004680 -0.009206 0.014074 0.000000 0.000000 0.000000
# 4 0.000000 0.000000 0.000000 0.039882 0.000000 0.000000
# 5 0.000000 0.000000 0.000000 0.000000 0.028179 0.000000
# 6 0.000000 0.000000 0.000000 0.000000 0.000000 0.044459
#
#
# Mechanical properties :
#
#
# Convention : Reuss Voigt Hill
#
# Bulk Modulus (GPa) = 15.75526 50.24870 33.00198
# Shear Modulus (GPa) = 18.60353 28.47670 23.54012
#
# Velocity S-wave (km/s) = 2.99918 3.71065 3.37372
# Velocity P-wave (km/s) = 4.42847 6.53105 5.57969
#
# Compressibility (1/GPa) = 0.06347087
#
# Stress axis : x y z
#
# Youngs Moduli (GPa) = 113.21769 13.09356 71.05182
#
# Poissons Ratio (x) = 0.05262 0.33249
# Poissons Ratio (y) = 0.45501 0.65412
# Poissons Ratio (z) = 0.52981 0.12054
#
# Static dielectric constant tensor:
#      x y z
#    x 4.398770 0.000000 0.000000 
#    y 0.000000 3.289410 0.000000 
#    z 0.000000 0.000000 3.918740 
# 
# 
# High freq. dielectric constant tensor:
#      x y z
#    x 1.832860 0.000000 0.000000 
#    y 0.000000 1.769480 0.000000 
#    z 0.000000 0.000000 1.810870 
# 
# From -- ./inp_files/66455.got.cif
#   From: 2010.06.25/outbox.cif.g09.slc.cpg/sg71_34_cif.got.tgz:66455.got - 2010.06.28 04:59:45.
