data_PCOD8290859
_publ_section_title
;
Structure prediction by ZEFSAII (Michael W. Deem and Ramdas Pophale) SiO2 
 PCOD8290859
Probable space group: I M M M
;
_chemical_formula_sum "Si O2"
_cell_formula_units_Z 88
_cell_length_a 14.044363
_cell_length_b 15.421332
_cell_length_c 22.245658
_cell_angle_alpha 90.000000
_cell_angle_beta 90.000000
_cell_angle_gamma 90.000000
_cell_volume 4818.026554
_symmetry_space_group_name_H-M "I M M M"
_symmetry_group_IT_number 71
_symmetry_cell_setting 'orthorhombic'
loop_
_space_group_symop_operation_xyz
x,y,z
-x,-y,z
x,-y,-z
-x,y,-z
-x,-y,-z
x,y,-z
-x,y,z
x,-y,z
1/2+x,1/2+y,1/2+z
1/2-x,1/2-y,1/2+z
1/2+x,1/2-y,1/2-z
1/2-x,1/2+y,1/2-z
1/2-x,1/2-y,1/2-z
1/2+x,1/2+y,1/2-z
1/2-x,1/2+y,1/2+z
1/2+x,1/2-y,1/2+z
loop_
_atom_site_type_symbol
_atom_site_label
_atom_site_fract_x
_atom_site_fract_y
_atom_site_fract_z
Si Si1 0.612409 0.900228 0.371964
Si Si2 0.611875 0.899834 0.500000
Si Si3 0.109757 0.597751 0.348943
Si Si4 0.228138 0.347472 0.236020
Si Si5 0.391889 0.597591 0.158081
Si Si6 0.387386 0.745451 0.932652
O O1 0.500000 0.893740 0.367709
O O2 0.649973 0.861346 0.436564
O O3 0.657059 0.843443 0.320059
O O4 0.645467 0.000000 0.364198
O O5 0.500000 0.887970 0.500000
O O6 0.638320 0.000000 0.500000
O O7 0.118875 0.500000 0.374655
O O8 0.177669 0.604694 0.291207
O O9 0.143893 0.665227 0.399965
O O10 0.000000 0.616995 0.329989
O O11 0.250000 0.250000 0.250000
O O12 0.326314 0.395093 0.217454
O O13 0.500000 0.621388 0.176836
O O14 0.386407 0.500000 0.132292
O O15 0.353339 0.662745 0.106562
O O16 0.500000 0.742552 0.938642
O O17 0.342370 0.741633 0.000000
#
# Coordination Sequence:
#
# PCOD8290859 Si02
#       6
#    16   8  16  16  16  16
#     4   9  17  31  52  77 103 130 162 203 252 310
#     4   7  12  26  48  74 103 127 150 191 245 301
#     4  10  20  35  56  80 106 135 170 216 267 315
#     4  12  22  33  50  73 104 138 176 219 261 301
#     4  10  21  37  54  73 103 142 179 214 253 302
#     4   9  18  34  54  77 105 135 172 215 258 308
#
# _framework density 18.26474
#
# number of rings (size 3 to 8) (size 9 to 14) (size 15 to 20)
#    0.000    2.273    1.818    3.273    0.000    2.909 
#    1.636    3.636    0.000    0.000    0.000    0.000 
#    0.000    0.000    0.000    3.818    0.000    2.364 
#
# Total GULP energy -545253.611101 kJ/mol
# GULP energy per Si atom -12392.127525 kJ/mol
# Density = 1.822317 g / cm^3
# Si number density = 18.264740 Si / 1000 Ang^3
#
#
#
# Elastic Constant Matrix: (Units=GPa)
#
#
# Indices 1 2 3 4 5 6 
#
# 1 57.8352 20.6460 37.4276 0.0000 0.0000 0.0000
# 2 20.6460 120.0715 54.3143 0.0000 0.0000 0.0000
# 3 37.4276 54.3143 127.8654 0.0000 0.0000 0.0000
# 4 0.0000 0.0000 0.0000 25.9497 0.0000 0.0000
# 5 0.0000 0.0000 0.0000 0.0000 15.5234 0.0000
# 6 0.0000 0.0000 0.0000 0.0000 0.0000 20.7723
#
#
#
# Elastic Compliance Matrix: (Units=1/GPa)
#
#
# Indices 1 2 3 4 5 6 
#
# 1 0.021437 -0.001049 -0.005829 0.000000 0.000000 0.000000
# 2 -0.001049 0.010361 -0.004094 0.000000 0.000000 0.000000
# 3 -0.005829 -0.004094 0.011266 0.000000 0.000000 0.000000
# 4 0.000000 0.000000 0.000000 0.038536 0.000000 0.000000
# 5 0.000000 0.000000 0.000000 0.000000 0.064419 0.000000
# 6 0.000000 0.000000 0.000000 0.000000 0.000000 0.048141
#
#
# Mechanical properties :
#
#
# Convention : Reuss Voigt Hill
#
# Bulk Modulus (GPa) = 47.34997 58.94978 53.14987
# Shear Modulus (GPa) = 22.40702 25.34137 23.87419
#
# Velocity S-wave (km/s) = 3.50636 3.72889 3.61933
# Velocity P-wave (km/s) = 6.50947 7.13335 6.82854
#
# Compressibility (1/GPa) = 0.02111934
#
# Stress axis : x y z
#
# Youngs Moduli (GPa) = 46.64738 96.51926 88.76275
#
# Poissons Ratio (x) = 0.10127 0.51742
# Poissons Ratio (y) = 0.04894 0.36338
# Poissons Ratio (z) = 0.27192 0.39513
#
# Static dielectric constant tensor:
#      x y z
#    x 3.527090 0.000000 0.000000 
#    y 0.000000 3.301040 0.000000 
#    z 0.000000 0.000000 3.703860 
# 
# 
# High freq. dielectric constant tensor:
#      x y z
#    x 1.698290 0.000000 0.000000 
#    y 0.000000 1.692550 0.000000 
#    z 0.000000 0.000000 1.707960 
# 
# From -- ./inp_files/52930.got.cif
#   From: 2010.06.25/outbox.cif.g09.slc.cpg/sg71_27_cif.got.tgz:52930.got - 2010.06.28 04:59:45.
