data_PCOD8290613
_publ_section_title
;
Structure prediction by ZEFSAII (Michael W. Deem and Ramdas Pophale) SiO2 
 PCOD8290613
Probable space group: I M M M
;
_chemical_formula_sum "Si O2"
_cell_formula_units_Z 88
_cell_length_a 20.294229
_cell_length_b 8.661883
_cell_length_c 24.340735
_cell_angle_alpha 90.000000
_cell_angle_beta 90.000000
_cell_angle_gamma 90.000000
_cell_volume 4278.766216
_symmetry_space_group_name_H-M "I M M M"
_symmetry_group_IT_number 71
_symmetry_cell_setting 'orthorhombic'
loop_
_space_group_symop_operation_xyz
x,y,z
-x,-y,z
x,-y,-z
-x,y,-z
-x,-y,-z
x,y,-z
-x,y,z
x,-y,z
1/2+x,1/2+y,1/2+z
1/2-x,1/2-y,1/2+z
1/2+x,1/2-y,1/2-z
1/2-x,1/2+y,1/2-z
1/2-x,1/2-y,1/2-z
1/2+x,1/2+y,1/2-z
1/2-x,1/2+y,1/2+z
1/2+x,1/2-y,1/2+z
loop_
_atom_site_type_symbol
_atom_site_label
_atom_site_fract_x
_atom_site_fract_y
_atom_site_fract_z
Si Si1 0.928692 0.318438 0.328272
Si Si2 0.367637 0.823449 0.939457
Si Si3 0.625776 0.678698 0.367245
Si Si4 0.322982 0.817733 0.256768
Si Si5 0.769753 0.672928 0.062439
Si Si6 0.500000 0.683571 0.563291
O O1 0.930191 0.500000 0.318351
O O2 0.919938 0.279791 0.392724
O O3 0.868421 0.250633 0.292602
O O4 0.000000 0.248557 0.310582
O O5 0.306645 0.710064 0.932080
O O6 0.343254 0.000000 0.932342
O O7 0.399646 0.800260 0.000000
O O8 0.616413 0.500000 0.352436
O O9 0.637766 0.772665 0.311652
O O10 0.690259 0.700357 0.403981
O O11 0.563434 0.742468 0.402223
O O12 0.250000 0.750000 0.250000
O O13 0.315218 0.000000 0.254055
O O14 0.781966 0.500000 0.085540
O O15 0.793572 0.684042 0.000000
O O16 0.500000 0.500000 0.560033
O O17 0.500000 0.748543 0.500000
#
# Coordination Sequence:
#
# PCOD8290613 Si02
#       6
#    16  16  16  16  16   8
#     4   9  19  35  55  81 113 148 186 232 286 341
#     4   9  17  31  55  85 113 144 185 232 284 342
#     4  11  22  37  59  84 114 152 197 247 299 360
#     4  11  23  39  61  86 116 155 200 249 300 358
#     4  10  20  34  54  82 115 149 189 238 289 343
#     4   9  20  38  59  85 117 155 198 247 306 372
#
# _framework density 20.566676999999999
#
# number of rings (size 3 to 8) (size 9 to 14) (size 15 to 20)
#    0.000    2.091    0.000    3.273    1.273    3.636 
#    0.000    4.091    0.000    6.000    0.000    2.545 
#    0.000    0.000    0.000    0.000    0.000    0.000 
#
# Total GULP energy -545407.400317 kJ/mol
# GULP energy per Si atom -12395.622734 kJ/mol
# Density = 2.051987 g / cm^3
# Si number density = 20.566677 Si / 1000 Ang^3
#
#
#
# Elastic Constant Matrix: (Units=GPa)
#
#
# Indices 1 2 3 4 5 6 
#
# 1 137.5746 23.1565 86.4888 0.0000 0.0000 0.0000
# 2 23.1565 46.9547 26.3593 0.0000 0.0000 0.0000
# 3 86.4888 26.3593 143.9598 0.0000 0.0000 0.0000
# 4 0.0000 0.0000 0.0000 27.0275 0.0000 0.0000
# 5 0.0000 0.0000 0.0000 0.0000 36.2721 0.0000
# 6 0.0000 0.0000 0.0000 0.0000 0.0000 20.4632
#
#
#
# Elastic Compliance Matrix: (Units=1/GPa)
#
#
# Indices 1 2 3 4 5 6 
#
# 1 0.011857 -0.002060 -0.006746 0.000000 0.000000 0.000000
# 2 -0.002060 0.024095 -0.003174 0.000000 0.000000 0.000000
# 3 -0.006746 -0.003174 0.011580 0.000000 0.000000 0.000000
# 4 0.000000 0.000000 0.000000 0.036999 0.000000 0.000000
# 5 0.000000 0.000000 0.000000 0.000000 0.027569 0.000000
# 6 0.000000 0.000000 0.000000 0.000000 0.000000 0.048868
#
#
# Mechanical properties :
#
#
# Convention : Reuss Voigt Hill
#
# Bulk Modulus (GPa) = 42.42426 66.72202 54.57314
# Shear Modulus (GPa) = 25.93541 29.58488 27.76014
#
# Velocity S-wave (km/s) = 3.55497 3.79685 3.67790
# Velocity P-wave (km/s) = 6.12559 7.19261 6.68044
#
# Compressibility (1/GPa) = 0.02357142
#
# Stress axis : x y z
#
# Youngs Moduli (GPa) = 84.34153 41.50233 86.35235
#
# Poissons Ratio (x) = 0.08550 0.58253
# Poissons Ratio (y) = 0.17376 0.27409
# Poissons Ratio (z) = 0.56897 0.13173
#
# Static dielectric constant tensor:
#      x y z
#    x 3.807500 0.000000 0.000000 
#    y 0.000000 3.429170 0.000000 
#    z 0.000000 0.000000 4.048670 
# 
# 
# High freq. dielectric constant tensor:
#      x y z
#    x 1.803210 0.000000 0.000000 
#    y 0.000000 1.774970 0.000000 
#    z 0.000000 0.000000 1.818170 
# 
# From -- ./inp_files/10394.got.cif
#   From: 2010.06.25/outbox.cif.g09.slc.cpg/sg71_6_cif.got.tgz:10394.got - 2010.06.28 04:59:45.
