data_PCOD8290017
_publ_section_title
;
Structure prediction by ZEFSAII (Michael W. Deem and Ramdas Pophale) SiO2 
 PCOD8290017
Probable space group: I M M M
;
_chemical_formula_sum "Si O2"
_cell_formula_units_Z 96
_cell_length_a 23.126097
_cell_length_b 27.656949
_cell_length_c 8.518980
_cell_angle_alpha 90.000000
_cell_angle_beta 90.000000
_cell_angle_gamma 90.000000
_cell_volume 5448.716482
_symmetry_space_group_name_H-M "I M M M"
_symmetry_group_IT_number 71
_symmetry_cell_setting 'orthorhombic'
loop_
_space_group_symop_operation_xyz
x,y,z
-x,-y,z
x,-y,-z
-x,y,-z
-x,-y,-z
x,y,-z
-x,y,z
x,-y,z
1/2+x,1/2+y,1/2+z
1/2-x,1/2-y,1/2+z
1/2+x,1/2-y,1/2-z
1/2-x,1/2+y,1/2-z
1/2-x,1/2-y,1/2-z
1/2+x,1/2+y,1/2-z
1/2-x,1/2+y,1/2+z
1/2+x,1/2-y,1/2+z
loop_
_atom_site_type_symbol
_atom_site_label
_atom_site_fract_x
_atom_site_fract_y
_atom_site_fract_z
Si Si1 0.207182 0.852618 0.314970
Si Si2 0.500000 0.755639 0.312504
Si Si3 0.000000 0.364658 0.816504
Si Si4 0.769025 0.447185 0.815521
Si Si5 0.124034 0.386640 0.816318
Si Si6 0.312848 0.798361 0.817864
Si Si7 0.880580 0.211782 0.816987
O O1 0.215652 0.851211 0.500000
O O2 0.224463 0.906353 0.251294
O O3 0.249143 0.812927 0.238388
O O4 0.141919 0.837957 0.265592
O O5 0.500000 0.757138 0.500000
O O6 0.500000 0.810394 0.242774
O O7 0.443395 0.727146 0.250024
O O8 0.943107 0.395822 0.769982
O O9 0.000000 0.355863 0.000000
O O10 0.756793 0.500000 0.738320
O O11 0.835578 0.432531 0.776415
O O12 0.760801 0.451524 0.000000
O O13 0.143267 0.341938 0.711436
O O14 0.130797 0.372774 0.000000
O O15 0.334083 0.753154 0.717441
O O16 0.311992 0.784163 0.000000
O O17 0.884576 0.201587 0.000000
#
# Coordination Sequence:
#
# PCOD8290017 Si02
#       7
#    16   8   8  16  16  16  16
#     4  10  20  33  49  70  95 123 154 194 240 282
#     4   9  18  30  48  67  93 131 163 188 226 271
#     4   9  14  26  45  66  91 127 167 194 229 273
#     4   8  15  29  49  71  93 118 151 194 245 290
#     4   9  16  28  47  67  92 127 164 198 233 276
#     4  11  20  30  45  68  97 127 160 195 233 275
#     4  11  20  33  49  68  95 127 161 191 226 278
#
# _framework density 17.618829000000002
#
# number of rings (size 3 to 8) (size 9 to 14) (size 15 to 20)
#    0.000    2.333    1.667    4.000    0.000    0.000 
#    0.000    3.333    0.000   15.000    0.000    0.583 
#    0.000   10.000    0.000    0.000    0.000    0.000 
#
# Total GULP energy -594820.530516 kJ/mol
# GULP energy per Si atom -12392.094386 kJ/mol
# Density = 1.757873 g / cm^3
# Si number density = 17.618829 Si / 1000 Ang^3
#
#
#
# Elastic Constant Matrix: (Units=GPa)
#
#
# Indices 1 2 3 4 5 6 
#
# 1 71.5299 65.4816 11.5468 0.0000 0.0000 0.0000
# 2 65.4816 108.4054 1.0847 0.0000 0.0000 0.0000
# 3 11.5468 1.0847 26.5223 0.0000 0.0000 0.0000
# 4 0.0000 0.0000 0.0000 13.9648 0.0000 0.0000
# 5 0.0000 0.0000 0.0000 0.0000 20.4680 0.0000
# 6 0.0000 0.0000 0.0000 0.0000 0.0000 12.6632
#
#
#
# Elastic Compliance Matrix: (Units=1/GPa)
#
#
# Indices 1 2 3 4 5 6 
#
# 1 0.036362 -0.021815 -0.014938 0.000000 0.000000 0.000000
# 2 -0.021815 0.022316 0.008585 0.000000 0.000000 0.000000
# 3 -0.014938 0.008585 0.043857 0.000000 0.000000 0.000000
# 4 0.000000 0.000000 0.000000 0.071609 0.000000 0.000000
# 5 0.000000 0.000000 0.000000 0.000000 0.048857 0.000000
# 6 0.000000 0.000000 0.000000 0.000000 0.000000 0.078969
#
#
# Mechanical properties :
#
#
# Convention : Reuss Voigt Hill
#
# Bulk Modulus (GPa) = 21.64625 40.29821 30.97223
# Shear Modulus (GPa) = 13.37958 17.97550 15.67754
#
# Velocity S-wave (km/s) = 2.75869 3.19759 2.98622
# Velocity P-wave (km/s) = 4.73917 6.04605 5.43205
#
# Compressibility (1/GPa) = 0.04619737
#
# Stress axis : x y z
#
# Youngs Moduli (GPa) = 27.50158 44.81158 22.80155
#
# Poissons Ratio (x) = 0.97754 0.34062
# Poissons Ratio (y) = 0.59993 -0.19574
# Poissons Ratio (z) = 0.41083 -0.38469
#
# Static dielectric constant tensor:
#      x y z
#    x 3.540430 0.000000 0.000000 
#    y 0.000000 3.425170 0.000000 
#    z 0.000000 0.000000 2.970790 
# 
# 
# High freq. dielectric constant tensor:
#      x y z
#    x 1.675130 0.000000 0.000000 
#    y 0.000000 1.655520 0.000000 
#    z 0.000000 0.000000 1.653630 
# 
# From -- ./inp_files/13206.got.cif
#   From: 2010.06.25/outbox.cif.g09.slc.cpg/sg71_7_cif.got.tgz:13206.got - 2010.06.28 04:59:45.
