data_PCOD8290501
_publ_section_title
;
Structure prediction by ZEFSAII (Michael W. Deem and Ramdas Pophale) SiO2 
 PCOD8290501
Probable space group: I M M M
;
_chemical_formula_sum "Si O2"
_cell_formula_units_Z 64
_cell_length_a 14.132065
_cell_length_b 28.091767
_cell_length_c 8.882768
_cell_angle_alpha 90.000000
_cell_angle_beta 90.000000
_cell_angle_gamma 90.000000
_cell_volume 3526.411615
_symmetry_space_group_name_H-M "I M M M"
_symmetry_group_IT_number 71
_symmetry_cell_setting 'orthorhombic'
loop_
_space_group_symop_operation_xyz
x,y,z
-x,-y,z
x,-y,-z
-x,y,-z
-x,-y,-z
x,y,-z
-x,y,z
x,-y,z
1/2+x,1/2+y,1/2+z
1/2-x,1/2-y,1/2+z
1/2+x,1/2-y,1/2-z
1/2-x,1/2+y,1/2-z
1/2-x,1/2-y,1/2-z
1/2+x,1/2+y,1/2-z
1/2-x,1/2+y,1/2+z
1/2+x,1/2-y,1/2+z
loop_
_atom_site_type_symbol
_atom_site_label
_atom_site_fract_x
_atom_site_fract_y
_atom_site_fract_z
Si Si1 0.389863 0.500000 0.324221
Si Si2 0.104374 0.500000 0.177632
Si Si3 0.756540 0.674618 0.674248
Si Si4 0.891343 0.255036 0.826197
Si Si5 0.241953 0.926329 0.677713
O O1 0.500000 0.500000 0.288443
O O2 0.367845 0.500000 0.500000
O O3 0.347042 0.547788 0.252983
O O4 0.161630 0.546997 0.228753
O O5 0.000000 0.500000 0.253344
O O6 0.093181 0.500000 0.000000
O O7 0.765795 0.661071 0.500000
O O8 0.850398 0.702662 0.724505
O O9 0.663920 0.706236 0.706853
O O10 0.746432 0.627710 0.771923
O O11 0.000000 0.246659 0.782072
O O12 0.879666 0.269954 0.000000
O O13 0.228494 0.929311 0.500000
#
# Coordination Sequence:
#
# PCOD8290501 Si02
#       5
#     8   8  16  16  16
#     4  10  21  37  56  77 104 139 177 220 268 311
#     4   8  16  32  52  73  98 131 171 210 248 298
#     4  10  20  34  53  78 107 137 172 216 265 314
#     4   9  19  36  55  74 100 137 178 217 260 313
#     4  10  20  34  54  79 106 138 175 215 261 313
#
# _framework density 18.148759999999999
#
# number of rings (size 3 to 8) (size 9 to 14) (size 15 to 20)
#    0.000    2.500    0.000    2.625    0.000    4.500 
#    0.000    5.000    0.000   12.750    0.000    0.000 
#    0.000    0.000    0.000    0.000    0.000    0.000 
#
# Total GULP energy -396856.528987 kJ/mol
# GULP energy per Si atom -12401.766531 kJ/mol
# Density = 1.810745 g / cm^3
# Si number density = 18.148760 Si / 1000 Ang^3
#
#
#
# Elastic Constant Matrix: (Units=GPa)
#
#
# Indices 1 2 3 4 5 6 
#
# 1 149.9976 65.8968 58.7322 0.0030 0.0003 -0.0007
# 2 65.8968 119.5236 42.4816 -0.0025 -0.0009 0.0002
# 3 58.7322 42.4816 70.0256 -0.0435 -0.0037 -0.0014
# 4 0.0030 -0.0025 -0.0435 35.1274 0.0022 -0.0021
# 5 0.0003 -0.0009 -0.0037 0.0022 27.1548 0.0006
# 6 -0.0007 0.0002 -0.0014 -0.0021 0.0006 11.9123
#
#
#
# Elastic Compliance Matrix: (Units=1/GPa)
#
#
# Indices 1 2 3 4 5 6 
#
# 1 0.010993 -0.003549 -0.007067 -0.000010 -0.000001 0.000000
# 2 -0.003549 0.011812 -0.004189 -0.000004 0.000000 -0.000001
# 3 -0.007067 -0.004189 0.022749 0.000028 0.000003 0.000002
# 4 -0.000010 -0.000004 0.000028 0.028468 -0.000002 0.000005
# 5 -0.000001 0.000000 0.000003 -0.000002 0.036826 -0.000002
# 6 0.000000 -0.000001 0.000002 0.000005 -0.000002 0.083947
#
#
# Mechanical properties :
#
#
# Convention : Reuss Voigt Hill
#
# Bulk Modulus (GPa) = 62.72063 74.86311 68.79187
# Shear Modulus (GPa) = 21.76552 26.33465 24.05009
#
# Velocity S-wave (km/s) = 3.46683 3.81339 3.64423
# Velocity P-wave (km/s) = 7.11754 7.79285 7.46284
#
# Compressibility (1/GPa) = 0.01594372
#
# Stress axis : x y z
#
# Youngs Moduli (GPa) = 90.96643 84.65828 43.95716
#
# Poissons Ratio (x) = 0.30045 0.31065
# Poissons Ratio (y) = 0.32284 0.18415
# Poissons Ratio (z) = 0.64287 0.35467
#
# Static dielectric constant tensor:
#      x y z
#    x 3.537980 0.000010 0.000000 
#    y 0.000010 3.326590 0.000000 
#    z 0.000000 0.000000 3.331080 
# 
# 
# High freq. dielectric constant tensor:
#      x y z
#    x 1.706150 0.000000 0.000000 
#    y 0.000000 1.704490 0.000000 
#    z 0.000000 0.000000 1.702580 
# 
# From -- ./inp_files/5857.got.cif
#   From: 2010.06.25/outbox.cif.g09.slc.cpg/sg71_3_cif.got.tgz:5857.got - 2010.06.28 04:59:45.
