data_PCOD8290020
_publ_section_title
;
Structure prediction by ZEFSAII (Michael W. Deem and Ramdas Pophale) SiO2 
 PCOD8290020
Probable space group: I M M M
;
_chemical_formula_sum "Si O2"
_cell_formula_units_Z 96
_cell_length_a 25.090751
_cell_length_b 25.094738
_cell_length_c 9.018066
_cell_angle_alpha 90.000000
_cell_angle_beta 90.000000
_cell_angle_gamma 90.000000
_cell_volume 5678.187585
_symmetry_space_group_name_H-M "I M M M"
_symmetry_group_IT_number 71
_symmetry_cell_setting 'orthorhombic'
loop_
_space_group_symop_operation_xyz
x,y,z
-x,-y,z
x,-y,-z
-x,y,-z
-x,-y,-z
x,y,-z
-x,y,z
x,-y,z
1/2+x,1/2+y,1/2+z
1/2-x,1/2-y,1/2+z
1/2+x,1/2-y,1/2-z
1/2-x,1/2+y,1/2-z
1/2-x,1/2-y,1/2-z
1/2+x,1/2+y,1/2-z
1/2-x,1/2+y,1/2+z
1/2+x,1/2-y,1/2+z
loop_
_atom_site_type_symbol
_atom_site_label
_atom_site_fract_x
_atom_site_fract_y
_atom_site_fract_z
Si Si1 0.000000 0.563133 0.161957
Si Si2 0.893277 0.062679 0.672709
Si Si3 0.309431 0.138326 0.832437
Si Si4 0.805886 0.243989 0.671584
Si Si5 0.000000 0.936719 0.832358
Si Si6 0.815634 0.858804 0.826427
Si Si7 0.885899 0.440384 0.823691
O O1 0.943975 0.578622 0.242774
O O2 0.000000 0.500000 0.142491
O O3 0.000000 0.590428 0.000000
O O4 0.894870 0.077136 0.500000
O O5 0.843837 0.091070 0.751149
O O6 0.947824 0.083907 0.746474
O O7 0.885816 0.000000 0.698449
O O8 0.333750 0.198072 0.813189
O O9 0.247016 0.136392 0.792843
O O10 0.339666 0.099022 0.724044
O O11 0.318047 0.118651 0.000000
O O12 0.797685 0.228900 0.500000
O O13 0.750000 0.250000 0.750000
O O14 0.837880 0.196323 0.753333
O O15 0.000000 0.000000 0.833405
O O16 0.000000 0.914137 0.000000
O O17 0.828363 0.857829 0.000000
O O18 0.872088 0.500000 0.767117
O O19 0.889932 0.440235 0.000000
#
# Coordination Sequence:
#
# PCOD8290020 Si02
#       7
#     8  16  16  16   8  16  16
#     4   7  12  26  45  64  87 116 153 193 227 261
#     4  10  20  33  50  73 100 129 161 198 239 283
#     4   9  19  32  46  68  97 125 152 189 238 286
#     4   9  17  31  49  68  91 121 159 198 236 281
#     4   9  17  31  51  72  95 126 163 199 235 281
#     4  10  20  33  49  70  96 127 160 195 239 285
#     4   9  17  29  47  69  92 121 156 192 230 274
#
# _framework density 16.906803
#
# number of rings (size 3 to 8) (size 9 to 14) (size 15 to 20)
#    0.000    2.833    0.000    3.750    0.000    7.000 
#    0.000    3.750    0.000    2.500    0.000    2.333 
#    0.000    0.000    0.000    0.000    0.000    0.000 
#
# Total GULP energy -594798.667838 kJ/mol
# GULP energy per Si atom -12391.638913 kJ/mol
# Density = 1.686832 g / cm^3
# Si number density = 16.906803 Si / 1000 Ang^3
#
#
#
# Elastic Constant Matrix: (Units=GPa)
#
#
# Indices 1 2 3 4 5 6 
#
# 1 77.6616 47.5099 44.0964 0.0000 0.0000 0.0000
# 2 47.5099 80.8140 49.6789 0.0000 0.0000 0.0000
# 3 44.0964 49.6789 100.6852 0.0000 0.0000 0.0000
# 4 0.0000 0.0000 0.0000 30.0812 0.0000 0.0000
# 5 0.0000 0.0000 0.0000 0.0000 24.2869 0.0000
# 6 0.0000 0.0000 0.0000 0.0000 0.0000 1.8662
#
#
#
# Elastic Compliance Matrix: (Units=1/GPa)
#
#
# Indices 1 2 3 4 5 6 
#
# 1 0.021473 -0.009822 -0.004558 0.000000 0.000000 0.000000
# 2 -0.009822 0.022254 -0.006679 0.000000 0.000000 0.000000
# 3 -0.004558 -0.006679 0.015224 0.000000 0.000000 0.000000
# 4 0.000000 0.000000 0.000000 0.033243 0.000000 0.000000
# 5 0.000000 0.000000 0.000000 0.000000 0.041174 0.000000
# 6 0.000000 0.000000 0.000000 0.000000 0.000000 0.535842
#
#
# Mechanical properties :
#
#
# Convention : Reuss Voigt Hill
#
# Bulk Modulus (GPa) = 59.40664 60.19237 59.79950
# Shear Modulus (GPa) = 6.97410 19.10524 13.03967
#
# Velocity S-wave (km/s) = 2.03322 3.36524 2.78018
# Velocity P-wave (km/s) = 6.38169 7.12598 6.76408
#
# Compressibility (1/GPa) = 0.01683314
#
# Stress axis : x y z
#
# Youngs Moduli (GPa) = 46.56993 44.93615 65.68741
#
# Poissons Ratio (x) = 0.44135 0.29942
# Poissons Ratio (y) = 0.45740 0.43870
# Poissons Ratio (z) = 0.21228 0.30011
#
# Static dielectric constant tensor:
#      x y z
#    x 3.147100 0.000000 0.000000 
#    y 0.000000 3.238980 0.000000 
#    z 0.000000 0.000000 3.204790 
# 
# 
# High freq. dielectric constant tensor:
#      x y z
#    x 1.634390 0.000000 0.000000 
#    y 0.000000 1.637830 0.000000 
#    z 0.000000 0.000000 1.654110 
# 
# From -- ./inp_files/12928.got.cif
#   From: 2010.06.25/outbox.cif.g09.slc.cpg/sg71_7_cif.got.tgz:12928.got - 2010.06.28 04:59:45.
