data_PCOD8290310
_publ_section_title
;
Structure prediction by ZEFSAII (Michael W. Deem and Ramdas Pophale) SiO2 
 PCOD8290310
Probable space group: I M M M
;
_chemical_formula_sum "Si O2"
_cell_formula_units_Z 104
_cell_length_a 23.076155
_cell_length_b 33.001606
_cell_length_c 7.731200
_cell_angle_alpha 90.000000
_cell_angle_beta 90.000000
_cell_angle_gamma 90.000000
_cell_volume 5887.696715
_symmetry_space_group_name_H-M "I M M M"
_symmetry_group_IT_number 71
_symmetry_cell_setting 'orthorhombic'
loop_
_space_group_symop_operation_xyz
x,y,z
-x,-y,z
x,-y,-z
-x,y,-z
-x,-y,-z
x,y,-z
-x,y,z
x,-y,z
1/2+x,1/2+y,1/2+z
1/2-x,1/2-y,1/2+z
1/2+x,1/2-y,1/2-z
1/2-x,1/2+y,1/2-z
1/2-x,1/2-y,1/2-z
1/2+x,1/2+y,1/2-z
1/2-x,1/2+y,1/2+z
1/2+x,1/2-y,1/2+z
loop_
_atom_site_type_symbol
_atom_site_label
_atom_site_fract_x
_atom_site_fract_y
_atom_site_fract_z
Si Si1 0.565349 0.500000 0.293552
Si Si2 0.843305 0.546869 0.000000
Si Si3 0.243931 0.547117 0.697653
Si Si4 0.930836 0.326158 0.693760
Si Si5 0.431345 0.883829 0.500000
Si Si6 0.063857 0.238622 0.296465
Si Si7 0.065143 0.153405 0.200291
Si Si8 0.633390 0.577289 0.294741
O O1 0.500000 0.500000 0.223932
O O2 0.566984 0.500000 0.500000
O O3 0.597084 0.539717 0.218735
O O4 0.808020 0.557942 0.826876
O O5 0.861474 0.500000 0.000000
O O6 0.902198 0.572382 0.000000
O O7 0.225249 0.557354 0.500000
O O8 0.261215 0.500000 0.712628
O O9 0.299310 0.573314 0.758468
O O10 0.908983 0.337731 0.500000
O O11 0.910031 0.359673 0.829804
O O12 0.905928 0.281686 0.752666
O O13 0.000000 0.322624 0.692600
O O14 0.500000 0.890210 0.500000
O O15 0.059062 0.237047 0.500000
O O16 0.095435 0.197604 0.230548
O O17 0.000000 0.237551 0.210867
O O18 0.106349 0.118833 0.283095
O O19 0.000000 0.151847 0.282895
O O20 0.060019 0.143991 0.000000
O O21 0.629512 0.576453 0.500000
#
# Coordination Sequence:
#
# PCOD8290310 Si02
#       8
#     8   8  16  16   8  16  16  16
#     4   9  14  20  36  61  91 127 164 206 258 310
#     4  10  22  37  54  80 104 126 160 194 237 289
#     4   9  17  33  54  71  92 125 169 219 249 274
#     4   8  15  28  47  72 102 132 162 192 222 273
#     4  10  20  33  54  82 108 132 152 179 232 296
#     4   8  14  25  39  58  90 128 160 193 234 283
#     4   9  16  23  35  60  95 127 160 206 255 303
#     4   9  15  25  40  62  90 123 168 214 256 297
#
# _framework density 17.663954
#
# number of rings (size 3 to 8) (size 9 to 14) (size 15 to 20)
#    0.000    3.154    0.769    1.385    1.077    2.615 
#    1.385    0.000    0.000    0.000    0.000    5.923 
#    0.000    0.000    0.000    0.000    0.000    0.000 
#
# Total GULP energy -644273.316322 kJ/mol
# GULP energy per Si atom -12389.871468 kJ/mol
# Density = 1.762375 g / cm^3
# Si number density = 17.663954 Si / 1000 Ang^3
#
#
#
# Elastic Constant Matrix: (Units=GPa)
#
#
# Indices 1 2 3 4 5 6 
#
# 1 54.4310 55.3759 26.8869 0.0000 0.0000 0.0000
# 2 55.3759 132.5147 40.9511 0.0000 0.0000 0.0000
# 3 26.8869 40.9511 61.7775 0.0000 0.0000 0.0000
# 4 0.0000 0.0000 0.0000 10.7833 0.0000 0.0000
# 5 0.0000 0.0000 0.0000 0.0000 7.6687 0.0000
# 6 0.0000 0.0000 0.0000 0.0000 0.0000 12.7491
#
#
#
# Elastic Compliance Matrix: (Units=1/GPa)
#
#
# Indices 1 2 3 4 5 6 
#
# 1 0.034077 -0.012145 -0.006780 0.000000 0.000000 0.000000
# 2 -0.012145 0.013819 -0.003875 0.000000 0.000000 0.000000
# 3 -0.006780 -0.003875 0.021706 0.000000 0.000000 0.000000
# 4 0.000000 0.000000 0.000000 0.092736 0.000000 0.000000
# 5 0.000000 0.000000 0.000000 0.000000 0.130400 0.000000
# 6 0.000000 0.000000 0.000000 0.000000 0.000000 0.078437
#
#
# Mechanical properties :
#
#
# Convention : Reuss Voigt Hill
#
# Bulk Modulus (GPa) = 41.66223 55.01680 48.33952
# Shear Modulus (GPa) = 11.77094 14.60752 13.18923
#
# Velocity S-wave (km/s) = 2.58424 2.87882 2.73550
# Velocity P-wave (km/s) = 5.70452 6.50109 6.11579
#
# Compressibility (1/GPa) = 0.02400255
#
# Stress axis : x y z
#
# Youngs Moduli (GPa) = 29.34547 72.36506 46.06926
#
# Poissons Ratio (x) = 0.87886 0.31237
# Poissons Ratio (y) = 0.35640 0.17850
# Poissons Ratio (z) = 0.19897 0.28038
#
# Static dielectric constant tensor:
#      x y z
#    x 2.823050 0.000000 0.000000 
#    y 0.000000 3.495790 0.000000 
#    z 0.000000 0.000000 3.200700 
# 
# 
# High freq. dielectric constant tensor:
#      x y z
#    x 1.618960 0.000000 0.000000 
#    y 0.000000 1.686280 0.000000 
#    z 0.000000 0.000000 1.675620 
# 
# From -- ./inp_files/13372.got.cif
#   From: 2010.06.25/outbox.cif.g09.slc.cpg/sg71_7_cif.got.tgz:13372.got - 2010.06.28 04:59:45.
