data_PCOD8290867
_publ_section_title
;
Structure prediction by ZEFSAII (Michael W. Deem and Ramdas Pophale) SiO2 
 PCOD8290867
Probable space group: I M M M
;
_chemical_formula_sum "Si O2"
_cell_formula_units_Z 104
_cell_length_a 8.895054
_cell_length_b 20.548918
_cell_length_c 29.784080
_cell_angle_alpha 90.000000
_cell_angle_beta 90.000000
_cell_angle_gamma 90.000000
_cell_volume 5444.045393
_symmetry_space_group_name_H-M "I M M M"
_symmetry_group_IT_number 71
_symmetry_cell_setting 'orthorhombic'
loop_
_space_group_symop_operation_xyz
x,y,z
-x,-y,z
x,-y,-z
-x,y,-z
-x,-y,-z
x,y,-z
-x,y,z
x,-y,z
1/2+x,1/2+y,1/2+z
1/2-x,1/2-y,1/2+z
1/2+x,1/2-y,1/2-z
1/2-x,1/2+y,1/2-z
1/2-x,1/2-y,1/2-z
1/2+x,1/2+y,1/2-z
1/2-x,1/2+y,1/2+z
1/2+x,1/2-y,1/2+z
loop_
_atom_site_type_symbol
_atom_site_label
_atom_site_fract_x
_atom_site_fract_y
_atom_site_fract_z
Si Si1 0.327559 0.291703 0.130625
Si Si2 0.668936 0.500000 0.946917
Si Si3 0.829981 0.639775 0.626541
Si Si4 0.321504 0.072625 0.215016
Si Si5 0.677936 0.866914 0.552165
Si Si6 0.821141 0.310399 0.776757
Si Si7 0.177002 0.928081 0.049618
O O1 0.500000 0.315916 0.130627
O O2 0.319179 0.215065 0.137576
O O3 0.250419 0.311796 0.083653
O O4 0.238313 0.320353 0.172876
O O5 0.500000 0.500000 0.926668
O O6 0.758029 0.436134 0.930848
O O7 0.661454 0.500000 0.000000
O O8 0.758486 0.598848 0.667503
O O9 0.737965 0.627177 0.581780
O O10 0.000000 0.617687 0.618067
O O11 0.500000 0.071537 0.212539
O O12 0.270082 0.122389 0.253400
O O13 0.257785 0.000000 0.224566
O O14 0.721004 0.853093 0.500000
O O15 0.500000 0.867395 0.558391
O O16 0.750000 0.250000 0.750000
O O17 0.000000 0.300833 0.776656
O O18 0.000000 0.923306 0.048406
O O19 0.227482 0.000000 0.065978
O O20 0.241896 0.914793 0.000000
#
# Coordination Sequence:
#
# PCOD8290867 Si02
#       7
#    16   8  16  16  16  16  16
#     4  11  23  39  58  84 116 151 195 239 287 344
#     4   9  17  33  59  87 115 151 191 237 293 343
#     4  10  20  35  56  81 108 143 189 236 281 336
#     4   9  18  35  59  85 112 143 184 235 288 341
#     4  10  21  38  60  87 118 154 197 240 287 349
#     4  11  21  38  62  86 116 154 193 236 293 354
#     4   9  19  35  52  74 109 148 183 225 279 335
#
# _framework density 19.103439999999999
#
# number of rings (size 3 to 8) (size 9 to 14) (size 15 to 20)
#    0.000    2.077    1.538    2.538    0.000    4.923 
#    1.385    3.846    0.000    2.308    0.000    0.000 
#    0.000    0.000    0.000    0.000    0.000    0.000 
#
# Total GULP energy -644739.389752 kJ/mol
# GULP energy per Si atom -12398.834418 kJ/mol
# Density = 1.905996 g / cm^3
# Si number density = 19.103440 Si / 1000 Ang^3
#
#
#
# Elastic Constant Matrix: (Units=GPa)
#
#
# Indices 1 2 3 4 5 6 
#
# 1 80.6432 35.3718 46.5474 0.0000 0.0000 0.0000
# 2 35.3718 103.8327 53.4128 0.0000 0.0000 0.0000
# 3 46.5474 53.4128 124.6709 0.0000 0.0000 0.0000
# 4 0.0000 0.0000 0.0000 37.8566 0.0000 0.0000
# 5 0.0000 0.0000 0.0000 0.0000 32.6021 0.0000
# 6 0.0000 0.0000 0.0000 0.0000 0.0000 29.4715
#
#
#
# Elastic Compliance Matrix: (Units=1/GPa)
#
#
# Indices 1 2 3 4 5 6 
#
# 1 0.016577 -0.003160 -0.004836 0.000000 0.000000 0.000000
# 2 -0.003160 0.012956 -0.004371 0.000000 0.000000 0.000000
# 3 -0.004836 -0.004371 0.011699 0.000000 0.000000 0.000000
# 4 0.000000 0.000000 0.000000 0.026415 0.000000 0.000000
# 5 0.000000 0.000000 0.000000 0.000000 0.030673 0.000000
# 6 0.000000 0.000000 0.000000 0.000000 0.000000 0.033931
#
#
# Mechanical properties :
#
#
# Convention : Reuss Voigt Hill
#
# Bulk Modulus (GPa) = 60.60711 64.42342 62.51526
# Shear Modulus (GPa) = 30.77223 31.57369 31.17296
#
# Velocity S-wave (km/s) = 4.01786 4.06984 4.04393
# Velocity P-wave (km/s) = 7.30198 7.47539 7.38919
#
# Compressibility (1/GPa) = 0.01649971
#
# Stress axis : x y z
#
# Youngs Moduli (GPa) = 60.32324 77.18590 85.47608
#
# Poissons Ratio (x) = 0.24389 0.41333
# Poissons Ratio (y) = 0.19061 0.37361
# Poissons Ratio (z) = 0.29170 0.33737
#
# Static dielectric constant tensor:
#      x y z
#    x 3.412570 0.000000 0.000000 
#    y 0.000000 3.607120 0.000000 
#    z 0.000000 0.000000 3.532910 
# 
# 
# High freq. dielectric constant tensor:
#      x y z
#    x 1.732730 0.000000 0.000000 
#    y 0.000000 1.744090 0.000000 
#    z 0.000000 0.000000 1.743560 
# 
# From -- ./inp_files/63335.got.cif
#   From: 2010.06.25/outbox.cif.g09.slc.cpg/sg71_32_cif.got.tgz:63335.got - 2010.06.28 04:59:45.
