data_PCOD8290643
_publ_section_title
;
Structure prediction by ZEFSAII (Michael W. Deem and Ramdas Pophale) SiO2 
 PCOD8290643
Probable space group: I M M M
;
_chemical_formula_sum "Si O2"
_cell_formula_units_Z 88
_cell_length_a 8.785012
_cell_length_b 22.720234
_cell_length_c 22.644385
_cell_angle_alpha 90.000000
_cell_angle_beta 90.000000
_cell_angle_gamma 90.000000
_cell_volume 4519.763277
_symmetry_space_group_name_H-M "I M M M"
_symmetry_group_IT_number 71
_symmetry_cell_setting 'orthorhombic'
loop_
_space_group_symop_operation_xyz
x,y,z
-x,-y,z
x,-y,-z
-x,y,-z
-x,-y,-z
x,y,-z
-x,y,z
x,-y,z
1/2+x,1/2+y,1/2+z
1/2-x,1/2-y,1/2+z
1/2+x,1/2-y,1/2-z
1/2-x,1/2+y,1/2-z
1/2-x,1/2-y,1/2-z
1/2+x,1/2+y,1/2-z
1/2-x,1/2+y,1/2+z
1/2+x,1/2-y,1/2+z
loop_
_atom_site_type_symbol
_atom_site_label
_atom_site_fract_x
_atom_site_fract_y
_atom_site_fract_z
Si Si1 0.681183 0.936579 0.566101
Si Si2 0.322981 0.227635 0.065722
Si Si3 0.179973 0.877119 0.124085
Si Si4 0.827460 0.311674 0.733836
Si Si5 0.673187 0.828329 0.364332
Si Si6 0.319296 0.500000 0.568090
O O1 0.741761 0.928585 0.500000
O O2 0.500000 0.933665 0.567807
O O3 0.751065 0.884112 0.604224
O O4 0.735867 0.000000 0.590908
O O5 0.500000 0.215227 0.074346
O O6 0.233849 0.166401 0.072322
O O7 0.269402 0.271002 0.117819
O O8 0.288261 0.252918 0.000000
O O9 0.246556 0.853529 0.186203
O O10 0.236897 0.942460 0.104972
O O11 0.000000 0.875848 0.129999
O O12 0.750000 0.250000 0.750000
O O13 0.822801 0.345661 0.795865
O O14 0.000000 0.300127 0.712496
O O15 0.500000 0.816500 0.385353
O O16 0.500000 0.500000 0.564624
O O17 0.256180 0.500000 0.500000
#
# Coordination Sequence:
#
# PCOD8290643 Si02
#       6
#    16  16  16  16  16   8
#     4   8  14  27  49  77 107 136 173 225 276 323
#     4  11  23  36  54  84 118 148 183 235 296 354
#     4  11  22  39  63  87 114 153 198 246 299 356
#     4  11  22  37  57  84 116 152 192 237 289 344
#     4  10  20  34  55  81 108 146 193 233 278 341
#     4   9  20  40  65  91 117 151 202 257 306 365
#
# _framework density 19.470046
#
# number of rings (size 3 to 8) (size 9 to 14) (size 15 to 20)
#    0.000    1.909    1.818    3.273    0.000    3.636 
#    1.636    1.818    0.000    3.818    0.000    2.545 
#    0.000    0.000    0.000    0.000    0.000    0.000 
#
# Total GULP energy -545304.776586 kJ/mol
# GULP energy per Si atom -12393.290377 kJ/mol
# Density = 1.942573 g / cm^3
# Si number density = 19.470046 Si / 1000 Ang^3
#
#
#
# Elastic Constant Matrix: (Units=GPa)
#
#
# Indices 1 2 3 4 5 6 
#
# 1 76.0705 40.5847 35.0318 0.0000 0.0000 0.0000
# 2 40.5847 152.6423 59.4841 0.0000 0.0000 0.0000
# 3 35.0318 59.4841 113.7704 0.0000 0.0000 0.0000
# 4 0.0000 0.0000 0.0000 34.1652 0.0000 0.0000
# 5 0.0000 0.0000 0.0000 0.0000 27.6986 0.0000
# 6 0.0000 0.0000 0.0000 0.0000 0.0000 12.3048
#
#
#
# Elastic Compliance Matrix: (Units=1/GPa)
#
#
# Indices 1 2 3 4 5 6 
#
# 1 0.016339 -0.002994 -0.003466 0.000000 0.000000 0.000000
# 2 -0.002994 0.008776 -0.003667 0.000000 0.000000 0.000000
# 3 -0.003466 -0.003667 0.011774 0.000000 0.000000 0.000000
# 4 0.000000 0.000000 0.000000 0.029270 0.000000 0.000000
# 5 0.000000 0.000000 0.000000 0.000000 0.036103 0.000000
# 6 0.000000 0.000000 0.000000 0.000000 0.000000 0.081269
#
#
# Mechanical properties :
#
#
# Convention : Reuss Voigt Hill
#
# Bulk Modulus (GPa) = 60.10839 68.07606 64.09222
# Shear Modulus (GPa) = 23.88594 28.65924 26.27259
#
# Velocity S-wave (km/s) = 3.50638 3.84078 3.67738
# Velocity P-wave (km/s) = 6.87984 7.39657 7.14288
#
# Compressibility (1/GPa) = 0.01663661
#
# Stress axis : x y z
#
# Youngs Moduli (GPa) = 61.20359 113.94550 84.93310
#
# Poissons Ratio (x) = 0.34111 0.29437
# Poissons Ratio (y) = 0.18322 0.31143
# Poissons Ratio (z) = 0.21212 0.41781
#
# Static dielectric constant tensor:
#      x y z
#    x 3.320220 0.000000 0.000000 
#    y 0.000000 3.864780 0.000000 
#    z 0.000000 0.000000 3.827460 
# 
# 
# High freq. dielectric constant tensor:
#      x y z
#    x 1.734160 0.000000 0.000000 
#    y 0.000000 1.758000 0.000000 
#    z 0.000000 0.000000 1.768770 
# 
# From -- ./inp_files/57556.got.cif
#   From: 2010.06.25/outbox.cif.g09.slc.cpg/sg71_29_cif.got.tgz:57556.got - 2010.06.28 04:59:45.
