data_PCOD8290734
_publ_section_title
;
Structure prediction by ZEFSAII (Michael W. Deem and Ramdas Pophale) SiO2 
 PCOD8290734
Probable space group: I M M M
;
_chemical_formula_sum "Si O2"
_cell_formula_units_Z 88
_cell_length_a 8.859836
_cell_length_b 27.228315
_cell_length_c 19.386984
_cell_angle_alpha 90.000000
_cell_angle_beta 90.000000
_cell_angle_gamma 90.000000
_cell_volume 4676.885107
_symmetry_space_group_name_H-M "I M M M"
_symmetry_group_IT_number 71
_symmetry_cell_setting 'orthorhombic'
loop_
_space_group_symop_operation_xyz
x,y,z
-x,-y,z
x,-y,-z
-x,y,-z
-x,-y,-z
x,y,-z
-x,y,z
x,-y,z
1/2+x,1/2+y,1/2+z
1/2-x,1/2-y,1/2+z
1/2+x,1/2-y,1/2-z
1/2-x,1/2+y,1/2-z
1/2-x,1/2-y,1/2-z
1/2+x,1/2+y,1/2-z
1/2-x,1/2+y,1/2+z
1/2+x,1/2-y,1/2+z
loop_
_atom_site_type_symbol
_atom_site_label
_atom_site_fract_x
_atom_site_fract_y
_atom_site_fract_z
Si Si1 0.675887 0.791028 0.835992
Si Si2 0.826913 0.443182 0.321600
Si Si3 0.323756 0.317977 0.804891
Si Si4 0.677844 0.915888 0.667410
Si Si5 0.824505 0.000000 0.419178
Si Si6 0.824942 0.131717 0.078553
O O1 0.500000 0.799990 0.822559
O O2 0.711547 0.733291 0.843485
O O3 0.765192 0.815546 0.773079
O O4 0.731441 0.818814 0.904275
O O5 0.806331 0.500000 0.339335
O O6 0.773942 0.433441 0.243555
O O7 0.723439 0.413470 0.373939
O O8 0.000000 0.426312 0.330900
O O9 0.500000 0.329853 0.803578
O O10 0.237818 0.360803 0.845910
O O11 0.500000 0.917710 0.657307
O O12 0.751360 0.951200 0.611602
O O13 0.793033 0.000000 0.500000
O O14 0.000000 0.000000 0.401278
O O15 0.000000 0.142920 0.090314
O O16 0.789793 0.117258 0.000000
#
# Coordination Sequence:
#
# PCOD8290734 Si02
#       6
#    16  16  16  16   8  16
#     4  10  20  35  56  84 116 151 194 241 291 348
#     4  10  21  38  59  85 115 149 195 243 289 346
#     4  10  20  34  57  88 118 149 190 242 293 344
#     4  11  21  37  62  91 121 153 194 242 292 351
#     4  11  25  43  63  89 122 159 196 237 293 356
#     4  11  24  39  56  82 118 158 199 245 297 352
#
# _framework density 18.815943000000001
#
# number of rings (size 3 to 8) (size 9 to 14) (size 15 to 20)
#    0.000    1.545    2.727    2.455    0.000    5.818 
#    0.000    2.727    0.000    1.091    0.000    0.000 
#    0.000    0.000    0.000    0.000    0.000    0.000 
#
# Total GULP energy -545805.953461 kJ/mol
# GULP energy per Si atom -12404.680760 kJ/mol
# Density = 1.877312 g / cm^3
# Si number density = 18.815943 Si / 1000 Ang^3
#
#
#
# Elastic Constant Matrix: (Units=GPa)
#
#
# Indices 1 2 3 4 5 6 
#
# 1 83.4334 55.6321 59.8327 0.0000 0.0000 0.0000
# 2 55.6321 137.9538 54.4105 0.0000 0.0000 0.0000
# 3 59.8327 54.4105 89.3427 -0.0001 0.0000 0.0000
# 4 0.0000 0.0000 -0.0001 27.4110 0.0000 0.0000
# 5 0.0000 0.0000 0.0000 0.0000 29.1679 0.0000
# 6 0.0000 0.0000 0.0000 0.0000 0.0000 36.9597
#
#
#
# Elastic Compliance Matrix: (Units=1/GPa)
#
#
# Indices 1 2 3 4 5 6 
#
# 1 0.025095 -0.004595 -0.014007 0.000000 0.000000 0.000000
# 2 -0.004595 0.010382 -0.003245 0.000000 0.000000 0.000000
# 3 -0.014007 -0.003245 0.022550 0.000000 0.000000 0.000000
# 4 0.000000 0.000000 0.000000 0.036482 0.000000 0.000000
# 5 0.000000 0.000000 0.000000 0.000000 0.034284 0.000000
# 6 0.000000 0.000000 0.000000 0.000000 0.000000 0.027057
#
#
# Mechanical properties :
#
#
# Convention : Reuss Voigt Hill
#
# Bulk Modulus (GPa) = 69.77931 72.27561 71.02746
# Shear Modulus (GPa) = 24.47121 28.09802 26.28462
#
# Velocity S-wave (km/s) = 3.61024 3.86853 3.74161
# Velocity P-wave (km/s) = 7.38540 7.64521 7.51643
#
# Compressibility (1/GPa) = 0.01433090
#
# Stress axis : x y z
#
# Youngs Moduli (GPa) = 39.84895 96.32185 44.34593
#
# Poissons Ratio (x) = 0.44262 0.62117
# Poissons Ratio (y) = 0.18311 0.14391
# Poissons Ratio (z) = 0.55818 0.31259
#
# Static dielectric constant tensor:
#      x y z
#    x 3.540610 0.000000 0.000000 
#    y 0.000000 3.640790 0.000000 
#    z 0.000000 0.000000 3.248220 
# 
# 
# High freq. dielectric constant tensor:
#      x y z
#    x 1.743670 0.000000 0.000000 
#    y 0.000000 1.747470 0.000000 
#    z 0.000000 0.000000 1.705140 
# 
# From -- ./inp_files/42498.got.cif
#   From: 2010.06.25/outbox.cif.g09.slc.cpg/sg71_22_cif.got.tgz:42498.got - 2010.06.28 04:59:45.
