data_PCOD8290013
_publ_section_title
;
Structure prediction by ZEFSAII (Michael W. Deem and Ramdas Pophale) SiO2 
 PCOD8290013
Probable space group: I M M M
;
_chemical_formula_sum "Si O2"
_cell_formula_units_Z 72
_cell_length_a 33.678558
_cell_length_b 8.833638
_cell_length_c 14.221585
_cell_angle_alpha 90.000000
_cell_angle_beta 90.000000
_cell_angle_gamma 90.000000
_cell_volume 4230.981122
_symmetry_space_group_name_H-M "I M M M"
_symmetry_group_IT_number 71
_symmetry_cell_setting 'orthorhombic'
loop_
_space_group_symop_operation_xyz
x,y,z
-x,-y,z
x,-y,-z
-x,y,-z
-x,-y,-z
x,y,-z
-x,y,z
x,-y,z
1/2+x,1/2+y,1/2+z
1/2-x,1/2-y,1/2+z
1/2+x,1/2-y,1/2-z
1/2-x,1/2+y,1/2-z
1/2-x,1/2-y,1/2-z
1/2+x,1/2+y,1/2-z
1/2-x,1/2+y,1/2+z
1/2+x,1/2-y,1/2+z
loop_
_atom_site_type_symbol
_atom_site_label
_atom_site_fract_x
_atom_site_fract_y
_atom_site_fract_z
Si Si1 0.079660 0.821988 0.106901
Si Si2 0.000000 0.329417 0.888289
Si Si3 0.771078 0.324946 0.108599
Si Si4 0.688184 0.177838 0.107586
Si Si5 0.842872 0.178773 0.781221
O O1 0.039695 0.750298 0.150204
O O2 0.116139 0.769181 0.171258
O O3 0.074068 0.000000 0.109259
O O4 0.087498 0.766168 0.000000
O O5 0.000000 0.500000 0.851614
O O6 0.000000 0.317375 0.000000
O O7 0.762857 0.500000 0.132268
O O8 0.732344 0.229405 0.136105
O O9 0.807487 0.265025 0.168082
O O10 0.781900 0.301080 0.000000
O O11 0.656740 0.267507 0.172620
O O12 0.684332 0.000000 0.124749
O O13 0.678838 0.221898 0.000000
O O14 0.836681 0.000000 0.789913
#
# Coordination Sequence:
#
# PCOD8290013 Si02
#       5
#    16   8  16  16  16
#     4   9  18  32  49  70  98 130 158 184 222 276
#     4   9  17  29  47  71  98 127 156 187 223 266
#     4  10  20  33  49  69  95 127 161 198 239 283
#     4  10  21  36  51  66  89 124 164 204 244 285
#     4  11  21  32  49  72  97 125 159 199 239 281
#
# _framework density 17.017329
#
# number of rings (size 3 to 8) (size 9 to 14) (size 15 to 20)
#    0.000    2.111    0.000    3.667    0.000    6.667 
#    0.000    2.222    0.000    0.000    0.000    0.778 
#    0.000    6.222    0.000    0.000    0.000    0.000 
#
# Total GULP energy -446486.104055 kJ/mol
# GULP energy per Si atom -12402.391779 kJ/mol
# Density = 1.697860 g / cm^3
# Si number density = 17.017329 Si / 1000 Ang^3
#
#
#
# Elastic Constant Matrix: (Units=GPa)
#
#
# Indices 1 2 3 4 5 6 
#
# 1 102.8708 24.7215 60.5319 0.0000 0.0000 0.0000
# 2 24.7215 44.7516 25.3827 0.0000 0.0000 0.0000
# 3 60.5319 25.3827 74.4377 0.0000 0.0000 0.0000
# 4 0.0000 0.0000 0.0000 26.7366 0.0000 0.0000
# 5 0.0000 0.0000 0.0000 0.0000 21.3457 0.0000
# 6 0.0000 0.0000 0.0000 0.0000 0.0000 27.0136
#
#
#
# Elastic Compliance Matrix: (Units=1/GPa)
#
#
# Indices 1 2 3 4 5 6 
#
# 1 0.018802 -0.002125 -0.014565 0.000000 0.000000 0.000000
# 2 -0.002125 0.027944 -0.007800 0.000000 0.000000 0.000000
# 3 -0.014565 -0.007800 0.027938 0.000000 0.000000 0.000000
# 4 0.000000 0.000000 0.000000 0.037402 0.000000 0.000000
# 5 0.000000 0.000000 0.000000 0.000000 0.046848 0.000000
# 6 0.000000 0.000000 0.000000 0.000000 0.000000 0.037018
#
#
# Mechanical properties :
#
#
# Convention : Reuss Voigt Hill
#
# Bulk Modulus (GPa) = 38.90648 49.25914 44.08281
# Shear Modulus (GPa) = 19.72381 22.44744 21.08563
#
# Velocity S-wave (km/s) = 3.40817 3.63587 3.52386
# Velocity P-wave (km/s) = 6.19677 6.82901 6.52056
#
# Compressibility (1/GPa) = 0.02570266
#
# Stress axis : x y z
#
# Youngs Moduli (GPa) = 53.18566 35.78594 35.79376
#
# Poissons Ratio (x) = 0.07606 0.52133
# Poissons Ratio (y) = 0.11305 0.27920
# Poissons Ratio (z) = 0.77464 0.27914
#
# Static dielectric constant tensor:
#      x y z
#    x 3.175970 0.000000 0.000000 
#    y 0.000000 3.250580 0.000000 
#    z 0.000000 0.000000 3.316090 
# 
# 
# High freq. dielectric constant tensor:
#      x y z
#    x 1.640010 0.000000 0.000000 
#    y 0.000000 1.668790 0.000000 
#    z 0.000000 0.000000 1.642180 
# 
# From -- ./inp_files/6041.got.cif
#   From: 2010.06.25/outbox.cif.g09.slc.cpg/sg71_4_cif.got.tgz:6041.got - 2010.06.28 04:59:45.
