data_PCOD8290753
_publ_section_title
;
Structure prediction by ZEFSAII (Michael W. Deem and Ramdas Pophale) SiO2 
 PCOD8290753
Probable space group: I M M M
;
_chemical_formula_sum "Si O2"
_cell_formula_units_Z 96
_cell_length_a 24.256292
_cell_length_b 24.254374
_cell_length_c 8.445046
_cell_angle_alpha 90.000000
_cell_angle_beta 90.000000
_cell_angle_gamma 90.000000
_cell_volume 4968.399411
_symmetry_space_group_name_H-M "I M M M"
_symmetry_group_IT_number 71
_symmetry_cell_setting 'orthorhombic'
loop_
_space_group_symop_operation_xyz
x,y,z
-x,-y,z
x,-y,-z
-x,y,-z
-x,-y,-z
x,y,-z
-x,y,z
x,-y,z
1/2+x,1/2+y,1/2+z
1/2-x,1/2-y,1/2+z
1/2+x,1/2-y,1/2-z
1/2-x,1/2+y,1/2-z
1/2-x,1/2-y,1/2-z
1/2+x,1/2+y,1/2-z
1/2-x,1/2+y,1/2+z
1/2+x,1/2-y,1/2+z
loop_
_atom_site_type_symbol
_atom_site_label
_atom_site_fract_x
_atom_site_fract_y
_atom_site_fract_z
Si Si1 0.233843 0.145252 0.182683
Si Si2 0.149152 0.062633 0.315807
Si Si3 0.937914 0.438167 0.812002
Si Si4 0.350190 0.151281 0.685076
Si Si5 0.439891 0.646616 0.184769
Si Si6 0.651367 0.271668 0.186085
O O1 0.193149 0.094512 0.210133
O O2 0.288251 0.131255 0.283248
O O3 0.206544 0.203453 0.234246
O O4 0.250394 0.150096 0.000000
O O5 0.165291 0.069164 0.500000
O O6 0.088590 0.087578 0.283959
O O7 0.148239 0.000000 0.259796
O O8 0.923445 0.500000 0.749552
O O9 0.893678 0.393787 0.746479
O O10 0.000000 0.421916 0.756545
O O11 0.935157 0.438633 0.000000
O O12 0.359945 0.160702 0.500000
O O13 0.358828 0.208343 0.776210
O O14 0.500000 0.647655 0.268080
O O15 0.401294 0.695016 0.254125
O O16 0.447446 0.656870 0.000000
O O17 0.658037 0.281163 0.000000
#
# Coordination Sequence:
#
# PCOD8290753 Si02
#       6
#    16  16  16  16  16  16
#     4  11  22  36  53  74 104 139 175 218 263 306
#     4   9  18  33  53  77 106 140 177 216 258 306
#     4   8  16  33  55  78 105 136 169 206 249 300
#     4  11  21  33  54  82 106 132 170 213 257 310
#     4   8  15  29  50  76 104 135 172 213 255 300
#     4  10  20  35  53  75 106 140 173 212 259 311
#
# _framework density 19.322118
#
# number of rings (size 3 to 8) (size 9 to 14) (size 15 to 20)
#    0.000    2.500    0.000    4.500    0.000    2.000 
#    0.000    3.333    0.000   15.000    0.000    9.333 
#    0.000    0.000    0.000    0.000    0.000    0.000 
#
# Total GULP energy -595054.410904 kJ/mol
# GULP energy per Si atom -12396.966894 kJ/mol
# Density = 1.927814 g / cm^3
# Si number density = 19.322118 Si / 1000 Ang^3
#
#
#
# Elastic Constant Matrix: (Units=GPa)
#
#
# Indices 1 2 3 4 5 6 
#
# 1 136.5943 77.2705 8.0321 0.0000 0.0000 0.0000
# 2 77.2705 90.4526 9.3725 0.0000 0.0000 0.0000
# 3 8.0321 9.3725 35.1388 0.0000 0.0000 0.0000
# 4 0.0000 0.0000 0.0000 24.4690 0.0000 0.0000
# 5 0.0000 0.0000 0.0000 0.0000 12.0032 0.0000
# 6 0.0000 0.0000 0.0000 0.0000 0.0000 30.1893
#
#
#
# Elastic Compliance Matrix: (Units=1/GPa)
#
#
# Indices 1 2 3 4 5 6 
#
# 1 0.014167 -0.012102 -0.000011 0.000000 0.000000 0.000000
# 2 -0.012102 0.021707 -0.003024 0.000000 0.000000 0.000000
# 3 -0.000011 -0.003024 0.029267 0.000000 0.000000 0.000000
# 4 0.000000 0.000000 0.000000 0.040868 0.000000 0.000000
# 5 0.000000 0.000000 0.000000 0.000000 0.083311 0.000000
# 6 0.000000 0.000000 0.000000 0.000000 0.000000 0.033124
#
#
# Mechanical properties :
#
#
# Convention : Reuss Voigt Hill
#
# Bulk Modulus (GPa) = 28.67791 50.17067 39.42429
# Shear Modulus (GPa) = 18.91503 24.49967 21.70735
#
# Velocity S-wave (km/s) = 3.13218 3.56471 3.35542
# Velocity P-wave (km/s) = 5.28725 6.55474 5.95481
#
# Compressibility (1/GPa) = 0.03487004
#
# Stress axis : x y z
#
# Youngs Moduli (GPa) = 70.58478 46.06858 34.16766
#
# Poissons Ratio (x) = 0.55750 0.00036
# Poissons Ratio (y) = 0.85419 0.10331
# Poissons Ratio (z) = 0.00075 0.13929
#
# Static dielectric constant tensor:
#      x y z
#    x 3.847230 0.000000 0.000000 
#    y 0.000000 3.633270 0.000000 
#    z 0.000000 0.000000 3.144770 
# 
# 
# High freq. dielectric constant tensor:
#      x y z
#    x 1.757490 0.000000 0.000000 
#    y 0.000000 1.754410 0.000000 
#    z 0.000000 0.000000 1.720040 
# 
# From -- ./inp_files/12800.got.cif
#   From: 2010.06.25/outbox.cif.g09.slc.cpg/sg71_7_cif.got.tgz:12800.got - 2010.06.28 04:59:45.
