data_PCOD8290871
_publ_section_title
;
Structure prediction by ZEFSAII (Michael W. Deem and Ramdas Pophale) SiO2 
 PCOD8290871
Probable space group: I M M M
;
_chemical_formula_sum "Si O2"
_cell_formula_units_Z 104
_cell_length_a 27.455681
_cell_length_b 8.713818
_cell_length_c 22.148362
_cell_angle_alpha 90.000000
_cell_angle_beta 90.000000
_cell_angle_gamma 90.000000
_cell_volume 5298.858450
_symmetry_space_group_name_H-M "I M M M"
_symmetry_group_IT_number 71
_symmetry_cell_setting 'orthorhombic'
loop_
_space_group_symop_operation_xyz
x,y,z
-x,-y,z
x,-y,-z
-x,y,-z
-x,-y,-z
x,y,-z
-x,y,z
x,-y,z
1/2+x,1/2+y,1/2+z
1/2-x,1/2-y,1/2+z
1/2+x,1/2-y,1/2-z
1/2-x,1/2+y,1/2-z
1/2-x,1/2-y,1/2-z
1/2+x,1/2+y,1/2-z
1/2-x,1/2+y,1/2+z
1/2+x,1/2-y,1/2+z
loop_
_atom_site_type_symbol
_atom_site_label
_atom_site_fract_x
_atom_site_fract_y
_atom_site_fract_z
Si Si1 0.443187 0.828916 0.500000
Si Si2 0.943175 0.831593 0.566079
Si Si3 0.118157 0.325262 0.345513
Si Si4 0.701578 0.182502 0.068526
Si Si5 0.804786 0.321265 0.930481
Si Si6 0.100708 0.818721 0.115943
Si Si7 0.943857 0.317426 0.234653
O O1 0.500000 0.853092 0.500000
O O2 0.428872 0.732278 0.557842
O O3 0.418248 0.000000 0.500000
O O4 0.919590 0.812764 0.500000
O O5 0.925331 0.692246 0.606939
O O6 0.000000 0.817507 0.560567
O O7 0.928629 0.000000 0.592577
O O8 0.130409 0.500000 0.332408
O O9 0.165234 0.248664 0.379273
O O10 0.096142 0.253907 0.283514
O O11 0.755170 0.236079 0.086581
O O12 0.698689 0.000000 0.069692
O O13 0.688975 0.240754 0.000000
O O14 0.797134 0.500000 0.918819
O O15 0.845827 0.257065 0.885661
O O16 0.820028 0.287509 0.000000
O O17 0.069910 0.762207 0.172568
O O18 0.106554 0.000000 0.117603
O O19 0.939725 0.500000 0.228163
O O20 0.000000 0.273208 0.251883
#
# Coordination Sequence:
#
# PCOD8290871 Si02
#       7
#     8  16  16  16  16  16  16
#     4  11  23  39  61  89 121 153 185 227 282 343
#     4   9  18  31  47  71 105 143 183 233 292 348
#     4  10  20  35  56  81 109 148 195 241 289 340
#     4   9  18  33  55  85 120 150 185 239 296 342
#     4  10  20  36  60  87 116 150 188 230 285 350
#     4  12  24  38  60  88 117 149 189 236 287 341
#     4  10  22  40  59  80 113 156 198 239 286 344
#
# _framework density 19.626868000000002
#
# number of rings (size 3 to 8) (size 9 to 14) (size 15 to 20)
#    0.000    1.923    0.769    3.923    0.000    6.462 
#    0.000    3.077    0.000    0.000    0.000    0.000 
#    0.000    0.000    0.000    0.000    0.000    0.000 
#
# Total GULP energy -644363.803010 kJ/mol
# GULP energy per Si atom -12391.611596 kJ/mol
# Density = 1.958220 g / cm^3
# Si number density = 19.626868 Si / 1000 Ang^3
#
#
#
# Elastic Constant Matrix: (Units=GPa)
#
#
# Indices 1 2 3 4 5 6 
#
# 1 97.8898 19.2251 50.1010 0.0000 0.0000 0.0000
# 2 19.2251 18.8663 11.9567 0.0000 0.0000 0.0000
# 3 50.1010 11.9567 93.7330 0.0000 0.0000 0.0000
# 4 0.0000 0.0000 0.0000 26.1482 0.0000 0.0000
# 5 0.0000 0.0000 0.0000 0.0000 40.4534 0.0000
# 6 0.0000 0.0000 0.0000 0.0000 0.0000 29.6016
#
#
#
# Elastic Compliance Matrix: (Units=1/GPa)
#
#
# Indices 1 2 3 4 5 6 
#
# 1 0.016231 -0.012012 -0.007143 0.000000 0.000000 0.000000
# 2 -0.012012 0.066557 -0.002069 0.000000 0.000000 0.000000
# 3 -0.007143 -0.002069 0.014751 0.000000 0.000000 0.000000
# 4 0.000000 0.000000 0.000000 0.038244 0.000000 0.000000
# 5 0.000000 0.000000 0.000000 0.000000 0.024720 0.000000
# 6 0.000000 0.000000 0.000000 0.000000 0.000000 0.033782
#
#
# Mechanical properties :
#
#
# Convention : Reuss Voigt Hill
#
# Bulk Modulus (GPa) = 18.15262 41.45054 29.80158
# Shear Modulus (GPa) = 19.60048 27.85440 23.72744
#
# Velocity S-wave (km/s) = 3.16358 3.77131 3.48073
# Velocity P-wave (km/s) = 4.75534 6.33473 5.60099
#
# Compressibility (1/GPa) = 0.05508846
#
# Stress axis : x y z
#
# Youngs Moduli (GPa) = 61.61188 15.02476 67.79379
#
# Poissons Ratio (x) = 0.18048 0.48426
# Poissons Ratio (y) = 0.74010 0.14029
# Poissons Ratio (z) = 0.44010 0.03109
#
# Static dielectric constant tensor:
#      x y z
#    x 3.714900 0.000000 0.000000 
#    y 0.000000 3.542460 0.000000 
#    z 0.000000 0.000000 3.641500 
# 
# 
# High freq. dielectric constant tensor:
#      x y z
#    x 1.772050 0.000000 0.000000 
#    y 0.000000 1.754280 0.000000 
#    z 0.000000 0.000000 1.753280 
# 
# From -- ./inp_files/56207.got.cif
#   From: 2010.06.25/outbox.cif.g09.slc.cpg/sg71_29_cif.got.tgz:56207.got - 2010.06.28 04:59:45.
