data_PCOD8290750
_publ_section_title
;
Structure prediction by ZEFSAII (Michael W. Deem and Ramdas Pophale) SiO2 
 PCOD8290750
Probable space group: I M M M
;
_chemical_formula_sum "Si O2"
_cell_formula_units_Z 104
_cell_length_a 22.270608
_cell_length_b 26.206838
_cell_length_c 8.542099
_cell_angle_alpha 90.000000
_cell_angle_beta 90.000000
_cell_angle_gamma 90.000000
_cell_volume 4985.529590
_symmetry_space_group_name_H-M "I M M M"
_symmetry_group_IT_number 71
_symmetry_cell_setting 'orthorhombic'
loop_
_space_group_symop_operation_xyz
x,y,z
-x,-y,z
x,-y,-z
-x,y,-z
-x,-y,-z
x,y,-z
-x,y,z
x,-y,z
1/2+x,1/2+y,1/2+z
1/2-x,1/2-y,1/2+z
1/2+x,1/2-y,1/2-z
1/2-x,1/2+y,1/2-z
1/2-x,1/2-y,1/2-z
1/2+x,1/2+y,1/2-z
1/2-x,1/2+y,1/2+z
1/2+x,1/2-y,1/2+z
loop_
_atom_site_type_symbol
_atom_site_label
_atom_site_fract_x
_atom_site_fract_y
_atom_site_fract_z
Si Si1 0.000000 0.057568 0.313362
Si Si2 0.896165 0.131189 0.313421
Si Si3 0.914377 0.500000 0.682802
Si Si4 0.567553 0.257404 0.186589
Si Si5 0.843006 0.328093 0.679126
Si Si6 0.264105 0.610148 0.183654
Si Si7 0.065119 0.396440 0.823743
Si Si8 0.286205 0.000000 0.684288
O O1 0.059132 0.087109 0.251817
O O2 0.000000 0.056397 0.500000
O O3 0.000000 0.000000 0.245791
O O4 0.895627 0.130888 0.500000
O O5 0.919228 0.185796 0.252157
O O6 0.829767 0.121260 0.244859
O O7 0.930534 0.500000 0.500000
O O8 0.945001 0.546259 0.771967
O O9 0.843416 0.500000 0.706198
O O10 0.500000 0.241704 0.243305
O O11 0.620918 0.220545 0.253739
O O12 0.569775 0.254357 0.000000
O O13 0.827494 0.317618 0.500000
O O14 0.781194 0.345233 0.760127
O O15 0.889525 0.374122 0.696887
O O16 0.248761 0.551857 0.230454
O O17 0.266140 0.615572 0.000000
O O18 0.000000 0.368989 0.818678
O O19 0.092458 0.392841 0.000000
O O20 0.302629 0.000000 0.500000
#
# Coordination Sequence:
#
# PCOD8290750 Si02
#       8
#     8  16   8  16  16  16  16   8
#     4   9  16  26  48  84 121 147 179 228 277 338
#     4   9  17  31  52  80 114 150 184 224 283 350
#     4  12  23  35  56  81 107 145 190 237 284 337
#     4   9  17  32  53  77 108 146 185 234 294 346
#     4  11  22  35  54  79 108 146 198 245 281 330
#     4  10  21  35  54  80 112 149 188 228 283 347
#     4  11  23  38  55  77 108 146 188 237 297 348
#     4  10  20  35  53  73 112 159 189 225 284 344
#
# _framework density 20.860371000000001
#
# number of rings (size 3 to 8) (size 9 to 14) (size 15 to 20)
#    0.000    1.923    2.308    2.308    1.077    3.385 
#    0.000    0.000    0.000    0.923    0.000    0.538 
#    0.000    0.615    0.000    0.000    0.000    0.000 
#
# Total GULP energy -644379.345432 kJ/mol
# GULP energy per Si atom -12391.910489 kJ/mol
# Density = 2.081289 g / cm^3
# Si number density = 20.860371 Si / 1000 Ang^3
#
#
#
# Elastic Constant Matrix: (Units=GPa)
#
#
# Indices 1 2 3 4 5 6 
#
# 1 183.4193 78.2634 12.7361 0.0000 0.0000 0.0000
# 2 78.2634 149.0209 7.0425 0.0000 0.0000 0.0000
# 3 12.7361 7.0425 25.2248 0.0000 0.0000 0.0000
# 4 0.0000 0.0000 0.0000 13.0552 0.0000 0.0000
# 5 0.0000 0.0000 0.0000 0.0000 8.8964 0.0000
# 6 0.0000 0.0000 0.0000 0.0000 0.0000 26.7954
#
#
#
# Elastic Compliance Matrix: (Units=1/GPa)
#
#
# Indices 1 2 3 4 5 6 
#
# 1 0.007192 -0.003654 -0.002611 0.000000 0.000000 0.000000
# 2 -0.003654 0.008656 -0.000572 0.000000 0.000000 0.000000
# 3 -0.002611 -0.000572 0.041122 0.000000 0.000000 0.000000
# 4 0.000000 0.000000 0.000000 0.076598 0.000000 0.000000
# 5 0.000000 0.000000 0.000000 0.000000 0.112405 0.000000
# 6 0.000000 0.000000 0.000000 0.000000 0.000000 0.037320
#
#
# Mechanical properties :
#
#
# Convention : Reuss Voigt Hill
#
# Bulk Modulus (GPa) = 23.09676 61.52767 42.31221
# Shear Modulus (GPa) = 16.05652 27.05759 21.55706
#
# Velocity S-wave (km/s) = 2.77738 3.60541 3.21814
# Velocity P-wave (km/s) = 4.62399 6.84770 5.84261
#
# Compressibility (1/GPa) = 0.04329612
#
# Stress axis : x y z
#
# Youngs Moduli (GPa) = 139.03538 115.52033 24.31812
#
# Poissons Ratio (x) = 0.42210 0.06350
# Poissons Ratio (y) = 0.50803 0.01391
# Poissons Ratio (z) = 0.36307 0.06607
#
# Static dielectric constant tensor:
#      x y z
#    x 4.042310 0.000000 0.000000 
#    y 0.000000 4.031470 0.000000 
#    z 0.000000 0.000000 3.227310 
# 
# 
# High freq. dielectric constant tensor:
#      x y z
#    x 1.829020 0.000000 0.000000 
#    y 0.000000 1.822020 0.000000 
#    z 0.000000 0.000000 1.763020 
# 
# From -- ./inp_files/11206.got.cif
#   From: 2010.06.25/outbox.cif.g09.slc.cpg/sg71_6_cif.got.tgz:11206.got - 2010.06.28 04:59:45.
