data_PCOD8290652
_publ_section_title
;
Structure prediction by ZEFSAII (Michael W. Deem and Ramdas Pophale) SiO2 
 PCOD8290652
Probable space group: I M M M
;
_chemical_formula_sum "Si O2"
_cell_formula_units_Z 104
_cell_length_a 32.131021
_cell_length_b 19.851012
_cell_length_c 9.077678
_cell_angle_alpha 90.000000
_cell_angle_beta 90.000000
_cell_angle_gamma 90.000000
_cell_volume 5790.045165
_symmetry_space_group_name_H-M "I M M M"
_symmetry_group_IT_number 71
_symmetry_cell_setting 'orthorhombic'
loop_
_space_group_symop_operation_xyz
x,y,z
-x,-y,z
x,-y,-z
-x,y,-z
-x,-y,-z
x,y,-z
-x,y,z
x,-y,z
1/2+x,1/2+y,1/2+z
1/2-x,1/2-y,1/2+z
1/2+x,1/2-y,1/2-z
1/2-x,1/2+y,1/2-z
1/2-x,1/2-y,1/2-z
1/2+x,1/2+y,1/2-z
1/2-x,1/2+y,1/2+z
1/2+x,1/2-y,1/2+z
loop_
_atom_site_type_symbol
_atom_site_label
_atom_site_fract_x
_atom_site_fract_y
_atom_site_fract_z
Si Si1 0.128678 0.302809 0.171708
Si Si2 0.771785 0.077173 0.173484
Si Si3 0.045773 0.000000 0.827713
Si Si4 0.166486 0.178178 0.334187
Si Si5 0.075801 0.876502 0.661786
Si Si6 0.187301 0.575952 0.167507
Si Si7 0.953222 0.732016 0.672317
O O1 0.158308 0.247733 0.248529
O O2 0.148742 0.375403 0.201373
O O3 0.081901 0.307492 0.236611
O O4 0.125726 0.284784 0.000000
O O5 0.800635 0.131499 0.251976
O O6 0.724869 0.092607 0.222879
O O7 0.783954 0.000000 0.217103
O O8 0.775424 0.087787 0.000000
O O9 0.069909 0.066068 0.780326
O O10 0.000000 0.000000 0.756160
O O11 0.043205 0.000000 0.000000
O O12 0.182326 0.194469 0.500000
O O13 0.124305 0.137169 0.342265
O O14 0.060634 0.900191 0.500000
O O15 0.050026 0.810967 0.711352
O O16 0.171099 0.500000 0.192671
O O17 0.203267 0.585959 0.000000
O O18 0.943810 0.721112 0.500000
O O19 0.000000 0.707169 0.713357
#
# Coordination Sequence:
#
# PCOD8290652 Si02
#       7
#    16  16   8  16  16  16  16
#     4  10  20  34  55  82 108 134 171 218 264 307
#     4  10  21  35  53  79 107 137 177 223 266 306
#     4  11  23  33  43  65  95 127 165 213 267 309
#     4  10  21  36  53  74 103 140 179 215 260 314
#     4   9  19  34  50  68  91 128 174 212 249 301
#     4   9  19  37  58  79 105 139 174 208 255 318
#     4   9  18  34  55  77 102 134 171 210 256 313
#
# _framework density 17.961863000000001
#
# number of rings (size 3 to 8) (size 9 to 14) (size 15 to 20)
#    0.000    2.385    0.000    3.000    1.077    7.385 
#    0.000    0.000    0.000    0.462    0.000    3.231 
#    0.000    0.000    0.000    0.000    0.000    0.000 
#
# Total GULP energy -644735.785727 kJ/mol
# GULP energy per Si atom -12398.765110 kJ/mol
# Density = 1.792098 g / cm^3
# Si number density = 17.961863 Si / 1000 Ang^3
#
#
#
# Elastic Constant Matrix: (Units=GPa)
#
#
# Indices 1 2 3 4 5 6 
#
# 1 101.7794 65.2200 55.2232 0.0000 0.0000 0.0000
# 2 65.2200 96.9202 54.6204 0.0000 0.0000 0.0000
# 3 55.2232 54.6204 100.3483 0.0000 0.0000 0.0000
# 4 0.0000 0.0000 0.0000 24.4287 0.0000 0.0000
# 5 0.0000 0.0000 0.0000 0.0000 32.3265 0.0000
# 6 0.0000 0.0000 0.0000 0.0000 0.0000 13.8703
#
#
#
# Elastic Compliance Matrix: (Units=1/GPa)
#
#
# Indices 1 2 3 4 5 6 
#
# 1 0.018872 -0.009876 -0.005010 0.000000 0.000000 0.000000
# 2 -0.009876 0.020051 -0.005479 0.000000 0.000000 0.000000
# 3 -0.005010 -0.005479 0.015705 0.000000 0.000000 0.000000
# 4 0.000000 0.000000 0.000000 0.040935 0.000000 0.000000
# 5 0.000000 0.000000 0.000000 0.000000 0.030934 0.000000
# 6 0.000000 0.000000 0.000000 0.000000 0.000000 0.072096
#
#
# Mechanical properties :
#
#
# Convention : Reuss Voigt Hill
#
# Bulk Modulus (GPa) = 71.95401 72.13056 72.04228
# Shear Modulus (GPa) = 20.49537 22.39073 21.44305
#
# Velocity S-wave (km/s) = 3.38161 3.53451 3.45890
# Velocity P-wave (km/s) = 7.44267 7.54333 7.49317
#
# Compressibility (1/GPa) = 0.01389777
#
# Stress axis : x y z
#
# Youngs Moduli (GPa) = 52.98856 49.87159 63.67505
#
# Poissons Ratio (x) = 0.49253 0.31901
# Poissons Ratio (y) = 0.52332 0.34889
# Poissons Ratio (z) = 0.26547 0.27326
#
# Static dielectric constant tensor:
#      x y z
#    x 3.339750 0.000000 0.000000 
#    y 0.000000 3.185640 0.000000 
#    z 0.000000 0.000000 3.497740 
# 
# 
# High freq. dielectric constant tensor:
#      x y z
#    x 1.692230 0.000000 0.000000 
#    y 0.000000 1.680450 0.000000 
#    z 0.000000 0.000000 1.704020 
# 
# From -- ./inp_files/16989.got.cif
#   From: 2010.06.25/outbox.cif.g09.slc.cpg/sg71_9_cif.got.tgz:16989.got - 2010.06.28 04:59:45.
