data_PCOD8290563
_publ_section_title
;
Structure prediction by ZEFSAII (Michael W. Deem and Ramdas Pophale) SiO2 
 PCOD8290563
Probable space group: I M M M
;
_chemical_formula_sum "Si O2"
_cell_formula_units_Z 120
_cell_length_a 7.914553
_cell_length_b 25.857180
_cell_length_c 28.459101
_cell_angle_alpha 90.000000
_cell_angle_beta 90.000000
_cell_angle_gamma 90.000000
_cell_volume 5824.098714
_symmetry_space_group_name_H-M "I M M M"
_symmetry_group_IT_number 71
_symmetry_cell_setting 'orthorhombic'
loop_
_space_group_symop_operation_xyz
x,y,z
-x,-y,z
x,-y,-z
-x,y,-z
-x,-y,-z
x,y,-z
-x,y,z
x,-y,z
1/2+x,1/2+y,1/2+z
1/2-x,1/2-y,1/2+z
1/2+x,1/2-y,1/2-z
1/2-x,1/2+y,1/2-z
1/2-x,1/2-y,1/2-z
1/2+x,1/2+y,1/2-z
1/2-x,1/2+y,1/2+z
1/2+x,1/2-y,1/2+z
loop_
_atom_site_type_symbol
_atom_site_label
_atom_site_fract_x
_atom_site_fract_y
_atom_site_fract_z
Si Si1 0.307479 0.647048 0.189738
Si Si2 0.697883 0.442239 0.352381
Si Si3 0.000000 0.560809 0.052131
Si Si4 0.700308 0.402431 0.550546
Si Si5 0.197527 0.940008 0.380291
Si Si6 0.800700 0.214032 0.051974
Si Si7 0.196007 0.251417 0.350744
Si Si8 0.692355 0.151335 0.206563
O O1 0.500000 0.652661 0.175322
O O2 0.244277 0.594506 0.164528
O O3 0.217235 0.699229 0.169908
O O4 0.292532 0.643585 0.245436
O O5 0.500000 0.429199 0.348588
O O6 0.737023 0.500000 0.334517
O O7 0.760928 0.438091 0.406519
O O8 0.800645 0.402207 0.321380
O O9 0.825673 0.577175 0.078221
O O10 0.000000 0.500000 0.046910
O O11 0.000000 0.586364 0.000000
O O12 0.768614 0.423455 0.500000
O O13 0.500000 0.401059 0.548437
O O14 0.767462 0.344250 0.558575
O O15 0.000000 0.930963 0.395016
O O16 0.225289 0.000000 0.366469
O O17 0.722030 0.248584 0.093146
O O18 0.000000 0.215793 0.057281
O O19 0.747016 0.234654 0.000000
O O20 0.274305 0.302035 0.324454
O O21 0.000000 0.252511 0.339097
O O22 0.500000 0.163475 0.219596
#
# Coordination Sequence:
#
# PCOD8290563 Si02
#       8
#    16  16   8  16  16  16  16  16
#     4  10  22  39  59  82 110 144 187 235 283 336
#     4  10  20  34  54  79 108 145 187 233 284 335
#     4   9  18  34  60  92 124 158 194 234 282 344
#     4   8  14  27  49  76 104 136 179 229 277 324
#     4   9  19  37  61  88 119 156 196 238 287 347
#     4   9  17  31  54  81 108 144 187 227 272 326
#     4  10  21  37  56  81 112 145 183 230 284 338
#     4  11  23  37  55  80 108 144 187 233 288 342
#
# _framework density 20.604046
#
# number of rings (size 3 to 8) (size 9 to 14) (size 15 to 20)
#    0.000    2.467    1.333    1.600    0.933    2.667 
#    0.000    4.667    0.000    2.800    0.000    0.933 
#    0.000    0.000    0.000    0.000    0.000    0.000 
#
# Total GULP energy -743554.436702 kJ/mol
# GULP energy per Si atom -12392.573945 kJ/mol
# Density = 2.055715 g / cm^3
# Si number density = 20.604046 Si / 1000 Ang^3
#
#
#
# Elastic Constant Matrix: (Units=GPa)
#
#
# Indices 1 2 3 4 5 6 
#
# 1 43.2923 20.2698 22.8451 0.0000 0.0000 0.0000
# 2 20.2698 115.0888 67.3261 0.0000 0.0000 0.0000
# 3 22.8451 67.3261 152.8729 0.0000 0.0000 0.0000
# 4 0.0000 0.0000 0.0000 18.7522 0.0000 0.0000
# 5 0.0000 0.0000 0.0000 0.0000 25.8629 0.0000
# 6 0.0000 0.0000 0.0000 0.0000 0.0000 15.4322
#
#
#
# Elastic Compliance Matrix: (Units=1/GPa)
#
#
# Indices 1 2 3 4 5 6 
#
# 1 0.025867 -0.003091 -0.002504 0.000000 0.000000 0.000000
# 2 -0.003091 0.012074 -0.004855 0.000000 0.000000 0.000000
# 3 -0.002504 -0.004855 0.009054 0.000000 0.000000 0.000000
# 4 0.000000 0.000000 0.000000 0.053327 0.000000 0.000000
# 5 0.000000 0.000000 0.000000 0.000000 0.038665 0.000000
# 6 0.000000 0.000000 0.000000 0.000000 0.000000 0.064800
#
#
# Mechanical properties :
#
#
# Convention : Reuss Voigt Hill
#
# Bulk Modulus (GPa) = 38.32312 59.12621 48.72467
# Shear Modulus (GPa) = 21.42369 25.39699 23.41034
#
# Velocity S-wave (km/s) = 3.22806 3.51468 3.37441
# Velocity P-wave (km/s) = 5.70386 6.72528 6.23552
#
# Compressibility (1/GPa) = 0.02609391
#
# Stress axis : x y z
#
# Youngs Moduli (GPa) = 38.65856 82.82464 110.44841
#
# Poissons Ratio (x) = 0.25599 0.27661
# Poissons Ratio (y) = 0.11949 0.53628
# Poissons Ratio (z) = 0.09682 0.40215
#
# Static dielectric constant tensor:
#      x y z
#    x 3.455410 0.000000 0.000000 
#    y 0.000000 3.821790 0.000000 
#    z 0.000000 0.000000 3.861730 
# 
# 
# High freq. dielectric constant tensor:
#      x y z
#    x 1.781390 0.000000 0.000000 
#    y 0.000000 1.793260 0.000000 
#    z 0.000000 0.000000 1.808650 
# 
# From -- ./inp_files/63758.got.cif
#   From: 2010.06.25/outbox.cif.g09.slc.cpg/sg71_32_cif.got.tgz:63758.got - 2010.06.28 04:59:45.
