data_PCOD8290080
_publ_section_title
;
Structure prediction by ZEFSAII (Michael W. Deem and Ramdas Pophale) SiO2 
 PCOD8290080
Probable space group: I M M M
;
_chemical_formula_sum "Si O2"
_cell_formula_units_Z 96
_cell_length_a 28.637035
_cell_length_b 20.193173
_cell_length_c 9.432667
_cell_angle_alpha 90.000000
_cell_angle_beta 90.000000
_cell_angle_gamma 90.000000
_cell_volume 5454.652890
_symmetry_space_group_name_H-M "I M M M"
_symmetry_group_IT_number 71
_symmetry_cell_setting 'orthorhombic'
loop_
_space_group_symop_operation_xyz
x,y,z
-x,-y,z
x,-y,-z
-x,y,-z
-x,-y,-z
x,y,-z
-x,y,z
x,-y,z
1/2+x,1/2+y,1/2+z
1/2-x,1/2-y,1/2+z
1/2+x,1/2-y,1/2-z
1/2-x,1/2+y,1/2-z
1/2-x,1/2-y,1/2-z
1/2+x,1/2+y,1/2-z
1/2-x,1/2+y,1/2+z
1/2+x,1/2-y,1/2+z
loop_
_atom_site_type_symbol
_atom_site_label
_atom_site_fract_x
_atom_site_fract_y
_atom_site_fract_z
Si Si1 0.588999 0.188871 0.337351
Si Si2 0.627094 0.573677 0.167895
Si Si3 0.945333 0.572640 0.655111
Si Si4 0.445791 0.315713 0.833568
Si Si5 0.193361 0.292813 0.159839
Si Si6 0.708920 0.335958 0.835332
O O1 0.574201 0.200010 0.500000
O O2 0.564993 0.123872 0.278476
O O3 0.573092 0.252752 0.250448
O O4 0.643812 0.172234 0.323096
O O5 0.621177 0.500000 0.234221
O O6 0.583947 0.620168 0.215812
O O7 0.676814 0.603865 0.222607
O O8 0.627403 0.567771 0.000000
O O9 0.925511 0.595202 0.500000
O O10 0.924697 0.500000 0.694347
O O11 0.000000 0.566785 0.641763
O O12 0.500000 0.328946 0.797451
O O13 0.438931 0.301627 0.000000
O O14 0.235408 0.345191 0.194476
O O15 0.193026 0.231605 0.264539
O O16 0.200413 0.265792 0.000000
O O17 0.697870 0.327743 0.000000
#
# Coordination Sequence:
#
# PCOD8290080 Si02
#       6
#    16  16  16  16  16  16
#     4  11  21  32  49  76 107 134 164 205 252 303
#     4   9  17  30  50  75 100 128 167 213 258 301
#     4   9  19  36  55  73  96 130 171 210 248 295
#     4  10  20  33  50  73 100 131 172 217 257 299
#     4   9  18  30  47  73 101 126 158 201 246 291
#     4   9  16  30  51  72  94 125 165 203 243 293
#
# _framework density 17.599653
#
# number of rings (size 3 to 8) (size 9 to 14) (size 15 to 20)
#    0.000    2.500    1.667    1.500    0.000    4.000 
#    0.000    3.333    0.000    5.000    0.000    1.167 
#    0.000    0.000    0.000    0.000    0.000    0.000 
#
# Total GULP energy -594792.254113 kJ/mol
# GULP energy per Si atom -12391.505294 kJ/mol
# Density = 1.755960 g / cm^3
# Si number density = 17.599653 Si / 1000 Ang^3
#
#
#
# Elastic Constant Matrix: (Units=GPa)
#
#
# Indices 1 2 3 4 5 6 
#
# 1 111.0670 66.9842 34.7065 0.0000 0.0000 0.0000
# 2 66.9842 130.4427 41.6558 0.0000 0.0000 0.0000
# 3 34.7065 41.6558 51.2458 0.0000 0.0000 0.0000
# 4 0.0000 0.0000 0.0000 8.5729 0.0000 0.0000
# 5 0.0000 0.0000 0.0000 0.0000 20.4245 0.0000
# 6 0.0000 0.0000 0.0000 0.0000 0.0000 26.7432
#
#
#
# Elastic Compliance Matrix: (Units=1/GPa)
#
#
# Indices 1 2 3 4 5 6 
#
# 1 0.013890 -0.005576 -0.004874 0.000000 0.000000 0.000000
# 2 -0.005576 0.012592 -0.006459 0.000000 0.000000 0.000000
# 3 -0.004874 -0.006459 0.028066 0.000000 0.000000 0.000000
# 4 0.000000 0.000000 0.000000 0.116646 0.000000 0.000000
# 5 0.000000 0.000000 0.000000 0.000000 0.048961 0.000000
# 6 0.000000 0.000000 0.000000 0.000000 0.000000 0.037393
#
#
# Mechanical properties :
#
#
# Convention : Reuss Voigt Hill
#
# Bulk Modulus (GPa) = 48.24388 64.38317 56.31352
# Shear Modulus (GPa) = 16.76300 21.10874 18.93587
#
# Velocity S-wave (km/s) = 3.08955 3.46697 3.28368
# Velocity P-wave (km/s) = 6.34022 7.25865 6.81492
#
# Compressibility (1/GPa) = 0.02072802
#
# Stress axis : x y z
#
# Youngs Moduli (GPa) = 71.99675 79.41374 35.63082
#
# Poissons Ratio (x) = 0.44280 0.17368
# Poissons Ratio (y) = 0.40145 0.23016
# Poissons Ratio (z) = 0.35093 0.51297
#
# Static dielectric constant tensor:
#      x y z
#    x 3.581840 0.000000 0.000000 
#    y 0.000000 3.308660 0.000000 
#    z 0.000000 0.000000 3.247040 
# 
# 
# High freq. dielectric constant tensor:
#      x y z
#    x 1.689980 0.000000 0.000000 
#    y 0.000000 1.662960 0.000000 
#    z 0.000000 0.000000 1.663930 
# 
# From -- ./inp_files/10896.got.cif
#   From: 2010.06.25/outbox.cif.g09.slc.cpg/sg71_6_cif.got.tgz:10896.got - 2010.06.28 04:59:45.
