data_PCOD8290315
_publ_section_title
;
Structure prediction by ZEFSAII (Michael W. Deem and Ramdas Pophale) SiO2 
 PCOD8290315
Probable space group: I M M M
;
_chemical_formula_sum "Si O2"
_cell_formula_units_Z 88
_cell_length_a 23.403149
_cell_length_b 7.652669
_cell_length_c 24.234191
_cell_angle_alpha 90.000000
_cell_angle_beta 90.000000
_cell_angle_gamma 90.000000
_cell_volume 4340.260069
_symmetry_space_group_name_H-M "I M M M"
_symmetry_group_IT_number 71
_symmetry_cell_setting 'orthorhombic'
loop_
_space_group_symop_operation_xyz
x,y,z
-x,-y,z
x,-y,-z
-x,y,-z
-x,-y,-z
x,y,-z
-x,y,z
x,-y,z
1/2+x,1/2+y,1/2+z
1/2-x,1/2-y,1/2+z
1/2+x,1/2-y,1/2-z
1/2-x,1/2+y,1/2-z
1/2-x,1/2-y,1/2-z
1/2+x,1/2+y,1/2-z
1/2-x,1/2+y,1/2+z
1/2+x,1/2-y,1/2+z
loop_
_atom_site_type_symbol
_atom_site_label
_atom_site_fract_x
_atom_site_fract_y
_atom_site_fract_z
Si Si1 0.567789 0.000000 0.434418
Si Si2 0.263169 0.204226 0.686637
Si Si3 0.882537 0.199570 0.138902
Si Si4 0.356512 0.302054 0.156181
Si Si5 0.563467 0.794236 0.062256
Si Si6 0.562700 0.292143 0.248392
O O1 0.600226 0.827923 0.411006
O O2 0.500000 0.000000 0.419723
O O3 0.576482 0.000000 0.500000
O O4 0.250000 0.250000 0.750000
O O5 0.316687 0.299607 0.658701
O O6 0.207486 0.274655 0.652852
O O7 0.274649 0.000000 0.679929
O O8 0.919669 0.265185 0.190600
O O9 0.897360 0.000000 0.121488
O O10 0.348603 0.500000 0.175695
O O11 0.387819 0.296449 0.097769
O O12 0.394462 0.206937 0.203346
O O13 0.500000 0.738835 0.082760
O O14 0.570663 0.000000 0.066319
O O15 0.572150 0.729437 0.000000
O O16 0.500000 0.216096 0.236066
O O17 0.562763 0.500000 0.243311
#
# Coordination Sequence:
#
# PCOD8290315 Si02
#       6
#     8  16  16  16  16  16
#     4  11  26  48  72 100 132 166 214 278 336 393
#     4  11  21  37  60  90 128 168 209 258 315 376
#     4  11  22  41  67  95 129 172 213 257 324 396
#     4  10  20  33  54  84 115 152 198 249 302 358
#     4   9  19  36  54  74 108 152 196 245 296 348
#     4   9  17  31  53  84 122 156 192 246 308 370
#
# _framework density 20.275283999999999
#
# number of rings (size 3 to 8) (size 9 to 14) (size 15 to 20)
#    0.000    1.909    2.727    2.182    0.000    4.364 
#    1.636    2.727    0.000    0.000    0.000    0.000 
#    0.000    0.000    0.000    0.000    0.000    0.000 
#
# Total GULP energy -545371.113713 kJ/mol
# GULP energy per Si atom -12394.798039 kJ/mol
# Density = 2.022914 g / cm^3
# Si number density = 20.275284 Si / 1000 Ang^3
#
#
#
# Elastic Constant Matrix: (Units=GPa)
#
#
# Indices 1 2 3 4 5 6 
#
# 1 148.6634 20.5120 51.6284 0.0000 0.0000 0.0000
# 2 20.5120 63.1949 26.3603 0.0000 0.0000 0.0000
# 3 51.6284 26.3603 99.2782 0.0000 0.0000 0.0000
# 4 0.0000 0.0000 0.0000 28.8521 0.0000 0.0000
# 5 0.0000 0.0000 0.0000 0.0000 31.8112 0.0000
# 6 0.0000 0.0000 0.0000 0.0000 0.0000 21.8334
#
#
#
# Elastic Compliance Matrix: (Units=1/GPa)
#
#
# Indices 1 2 3 4 5 6 
#
# 1 0.008265 -0.001001 -0.004032 0.000000 0.000000 0.000000
# 2 -0.001001 0.017916 -0.004237 0.000000 0.000000 0.000000
# 3 -0.004032 -0.004237 0.013295 0.000000 0.000000 0.000000
# 4 0.000000 0.000000 0.000000 0.034660 0.000000 0.000000
# 5 0.000000 0.000000 0.000000 0.000000 0.031435 0.000000
# 6 0.000000 0.000000 0.000000 0.000000 0.000000 0.045801
#
#
# Mechanical properties :
#
#
# Convention : Reuss Voigt Hill
#
# Bulk Modulus (GPa) = 47.76412 56.45976 52.11194
# Shear Modulus (GPa) = 28.26605 30.67505 29.47055
#
# Velocity S-wave (km/s) = 3.73783 3.89386 3.81664
# Velocity P-wave (km/s) = 6.49904 6.93709 6.72163
#
# Compressibility (1/GPa) = 0.02093622
#
# Stress axis : x y z
#
# Youngs Moduli (GPa) = 120.99099 55.81572 75.21816
#
# Poissons Ratio (x) = 0.05585 0.30331
# Poissons Ratio (y) = 0.12107 0.31868
# Poissons Ratio (z) = 0.48789 0.23647
#
# Static dielectric constant tensor:
#      x y z
#    x 4.070580 0.000000 0.000000 
#    y 0.000000 3.490180 0.000000 
#    z 0.000000 0.000000 3.538420 
# 
# 
# High freq. dielectric constant tensor:
#      x y z
#    x 1.806970 0.000000 0.000000 
#    y 0.000000 1.782110 0.000000 
#    z 0.000000 0.000000 1.769780 
# 
# From -- ./inp_files/10508.got.cif
#   From: 2010.06.25/outbox.cif.g09.slc.cpg/sg71_6_cif.got.tgz:10508.got - 2010.06.28 04:59:45.
