data_PCOD8290412
_publ_section_title
;
Structure prediction by ZEFSAII (Michael W. Deem and Ramdas Pophale) SiO2 
 PCOD8290412
Probable space group: I M M M
;
_chemical_formula_sum "Si O2"
_cell_formula_units_Z 88
_cell_length_a 25.414812
_cell_length_b 21.026518
_cell_length_c 8.847864
_cell_angle_alpha 90.000000
_cell_angle_beta 90.000000
_cell_angle_gamma 90.000000
_cell_volume 4728.165821
_symmetry_space_group_name_H-M "I M M M"
_symmetry_group_IT_number 71
_symmetry_cell_setting 'orthorhombic'
loop_
_space_group_symop_operation_xyz
x,y,z
-x,-y,z
x,-y,-z
-x,y,-z
-x,-y,-z
x,y,-z
-x,y,z
x,-y,z
1/2+x,1/2+y,1/2+z
1/2-x,1/2-y,1/2+z
1/2+x,1/2-y,1/2-z
1/2-x,1/2+y,1/2-z
1/2-x,1/2-y,1/2-z
1/2+x,1/2+y,1/2-z
1/2-x,1/2+y,1/2+z
1/2+x,1/2-y,1/2+z
loop_
_atom_site_type_symbol
_atom_site_label
_atom_site_fract_x
_atom_site_fract_y
_atom_site_fract_z
Si Si1 0.192796 0.800788 0.326292
Si Si2 0.000000 0.225447 0.319968
Si Si3 0.309342 0.170738 0.322752
Si Si4 0.438592 0.500000 0.167143
Si Si5 0.088449 0.132596 0.324398
Si Si6 0.000000 0.368549 0.320068
Si Si7 0.609938 0.072946 0.179102
O O1 0.196331 0.778193 0.500000
O O2 0.247675 0.832759 0.274794
O O3 0.173176 0.740805 0.228835
O O4 0.149482 0.854145 0.300316
O O5 0.948566 0.188279 0.257488
O O6 0.000000 0.231103 0.500000
O O7 0.000000 0.296861 0.253931
O O8 0.317478 0.162674 0.500000
O O9 0.342852 0.115749 0.243446
O O10 0.500000 0.500000 0.150465
O O11 0.421442 0.564259 0.255168
O O12 0.412071 0.500000 0.000000
O O13 0.072727 0.126920 0.500000
O O14 0.052805 0.403673 0.260689
O O15 0.000000 0.369272 0.500000
O O16 0.618304 0.000000 0.231126
O O17 0.611853 0.078982 0.000000
#
# Coordination Sequence:
#
# PCOD8290412 Si02
#       7
#    16   8  16   8  16   8  16
#     4   9  18  33  52  74  99 133 175 214 252 297
#     4   9  14  20  38  67  98 124 151 198 254 295
#     4  10  20  34  52  75 102 134 169 211 260 304
#     4   9  14  22  36  62 103 133 151 190 251 304
#     4   9  15  24  40  66  98 130 160 195 244 297
#     4   9  17  30  51  78  99 124 167 214 254 300
#     4  10  20  35  55  77 103 135 169 208 255 309
#
# _framework density 18.611868000000001
#
# number of rings (size 3 to 8) (size 9 to 14) (size 15 to 20)
#    0.000    2.636    0.909    1.909    0.000    5.091 
#    1.636    0.455    0.000    1.091    0.000    0.000 
#    0.000    0.727    0.000    0.000    0.000    0.000 
#
# Total GULP energy -545302.324764 kJ/mol
# GULP energy per Si atom -12393.234654 kJ/mol
# Density = 1.856951 g / cm^3
# Si number density = 18.611868 Si / 1000 Ang^3
#
#
#
# Elastic Constant Matrix: (Units=GPa)
#
#
# Indices 1 2 3 4 5 6 
#
# 1 119.3677 88.5319 21.2474 0.0000 0.0000 0.0000
# 2 88.5319 174.3964 27.1162 0.0000 0.0000 0.0000
# 3 21.2474 27.1162 19.9790 0.0000 0.0000 0.0000
# 4 0.0000 0.0000 0.0000 14.0593 0.0000 0.0000
# 5 0.0000 0.0000 0.0000 0.0000 19.9727 0.0000
# 6 0.0000 0.0000 0.0000 0.0000 0.0000 31.8243
#
#
#
# Elastic Compliance Matrix: (Units=1/GPa)
#
#
# Indices 1 2 3 4 5 6 
#
# 1 0.014110 -0.006121 -0.006697 0.000000 0.000000 0.000000
# 2 -0.006121 0.009924 -0.006959 0.000000 0.000000 0.000000
# 3 -0.006697 -0.006959 0.066619 0.000000 0.000000 0.000000
# 4 0.000000 0.000000 0.000000 0.071127 0.000000 0.000000
# 5 0.000000 0.000000 0.000000 0.000000 0.050068 0.000000
# 6 0.000000 0.000000 0.000000 0.000000 0.000000 0.031423
#
#
# Mechanical properties :
#
#
# Convention : Reuss Voigt Hill
#
# Bulk Modulus (GPa) = 19.57015 65.28156 42.42585
# Shear Modulus (GPa) = 16.67456 24.96110 20.81783
#
# Velocity S-wave (km/s) = 2.99642 3.66613 3.34806
# Velocity P-wave (km/s) = 4.74438 7.28506 6.14740
#
# Compressibility (1/GPa) = 0.05109824
#
# Stress axis : x y z
#
# Youngs Moduli (GPa) = 70.87339 100.77040 15.01063
#
# Poissons Ratio (x) = 0.61686 0.10053
# Poissons Ratio (y) = 0.43385 0.10445
# Poissons Ratio (z) = 0.47465 0.70122
#
# Static dielectric constant tensor:
#      x y z
#    x 3.491170 0.000000 0.000000 
#    y 0.000000 3.644230 0.000000 
#    z 0.000000 0.000000 2.950190 
# 
# 
# High freq. dielectric constant tensor:
#      x y z
#    x 1.732140 0.000000 0.000000 
#    y 0.000000 1.730640 0.000000 
#    z 0.000000 0.000000 1.662740 
# 
# From -- ./inp_files/12639.got.cif
#   From: 2010.06.25/outbox.cif.g09.slc.cpg/sg71_7_cif.got.tgz:12639.got - 2010.06.28 04:59:45.
