data_PCOD8290686
_publ_section_title
;
Structure prediction by ZEFSAII (Michael W. Deem and Ramdas Pophale) SiO2 
 PCOD8290686
Probable space group: I M M M
;
_chemical_formula_sum "Si O2"
_cell_formula_units_Z 88
_cell_length_a 25.201057
_cell_length_b 21.841419
_cell_length_c 8.156454
_cell_angle_alpha 90.000000
_cell_angle_beta 90.000000
_cell_angle_gamma 90.000000
_cell_volume 4489.531243
_symmetry_space_group_name_H-M "I M M M"
_symmetry_group_IT_number 71
_symmetry_cell_setting 'orthorhombic'
loop_
_space_group_symop_operation_xyz
x,y,z
-x,-y,z
x,-y,-z
-x,y,-z
-x,-y,-z
x,y,-z
-x,y,z
x,-y,z
1/2+x,1/2+y,1/2+z
1/2-x,1/2-y,1/2+z
1/2+x,1/2-y,1/2-z
1/2-x,1/2+y,1/2-z
1/2-x,1/2-y,1/2-z
1/2+x,1/2+y,1/2-z
1/2-x,1/2+y,1/2+z
1/2+x,1/2-y,1/2+z
loop_
_atom_site_type_symbol
_atom_site_label
_atom_site_fract_x
_atom_site_fract_y
_atom_site_fract_z
Si Si1 0.562037 0.066210 0.500000
Si Si2 0.000000 0.259048 0.690128
Si Si3 0.000000 0.876548 0.303530
Si Si4 0.610388 0.431647 0.191917
Si Si5 0.806909 0.295387 0.683855
Si Si6 0.914647 0.643283 0.685513
Si Si7 0.693309 0.667559 0.311743
O O1 0.500000 0.062436 0.500000
O O2 0.578651 0.094640 0.672448
O O3 0.588952 0.000000 0.500000
O O4 0.000000 0.192237 0.773251
O O5 0.947601 0.296779 0.739451
O O6 0.000000 0.245767 0.500000
O O7 0.946420 0.909078 0.235562
O O8 0.000000 0.876508 0.500000
O O9 0.623274 0.500000 0.262855
O O10 0.658055 0.383918 0.223840
O O11 0.603509 0.436522 0.000000
O O12 0.793559 0.272609 0.500000
O O13 0.852523 0.345025 0.682586
O O14 0.754174 0.328453 0.757143
O O15 0.828255 0.236589 0.784862
O O16 0.932582 0.621799 0.500000
O O17 0.692104 0.648929 0.500000
#
# Coordination Sequence:
#
# PCOD8290686 Si02
#       7
#     8   8   8  16  16  16  16
#     4  11  24  40  58  84 116 152 192 235 287 351
#     4   9  16  28  53  85 111 140 181 230 290 342
#     4   9  17  32  55  81 108 142 190 237 273 324
#     4  10  20  35  55  78 108 150 195 232 270 325
#     4   9  19  36  58  82 112 143 183 235 287 341
#     4  10  20  37  59  85 116 153 189 236 292 346
#     4  10  20  34  55  85 112 146 183 228 291 343
#
# _framework density 19.601154000000001
#
# number of rings (size 3 to 8) (size 9 to 14) (size 15 to 20)
#    0.000    2.273    0.909    1.909    1.273    5.455 
#    0.000    2.273    0.000    4.364    0.000    0.000 
#    0.000    0.000    0.000    0.000    0.000    0.000 
#
# Total GULP energy -545105.472447 kJ/mol
# GULP energy per Si atom -12388.760737 kJ/mol
# Density = 1.955654 g / cm^3
# Si number density = 19.601154 Si / 1000 Ang^3
#
#
#
# Elastic Constant Matrix: (Units=GPa)
#
#
# Indices 1 2 3 4 5 6 
#
# 1 118.7912 70.9352 25.2825 0.0000 0.0000 0.0000
# 2 70.9352 149.9022 45.7494 0.0000 0.0000 0.0000
# 3 25.2825 45.7494 65.4855 0.0000 0.0000 0.0000
# 4 0.0000 0.0000 0.0000 30.3899 0.0000 0.0000
# 5 0.0000 0.0000 0.0000 0.0000 23.5484 0.0000
# 6 0.0000 0.0000 0.0000 0.0000 0.0000 23.6239
#
#
#
# Elastic Compliance Matrix: (Units=1/GPa)
#
#
# Indices 1 2 3 4 5 6 
#
# 1 0.011769 -0.005316 -0.000830 0.000000 0.000000 0.000000
# 2 -0.005316 0.010880 -0.005549 0.000000 0.000000 0.000000
# 3 -0.000830 -0.005549 0.019467 0.000000 0.000000 0.000000
# 4 0.000000 0.000000 0.000000 0.032906 0.000000 0.000000
# 5 0.000000 0.000000 0.000000 0.000000 0.042466 0.000000
# 6 0.000000 0.000000 0.000000 0.000000 0.000000 0.042330
#
#
# Mechanical properties :
#
#
# Convention : Reuss Voigt Hill
#
# Bulk Modulus (GPa) = 53.39763 68.67923 61.03843
# Shear Modulus (GPa) = 26.39227 28.32657 27.35942
#
# Velocity S-wave (km/s) = 3.67340 3.80563 3.74010
# Velocity P-wave (km/s) = 6.73001 7.37732 7.06109
#
# Compressibility (1/GPa) = 0.01872742
#
# Stress axis : x y z
#
# Youngs Moduli (GPa) = 84.96776 91.91180 51.36811
#
# Poissons Ratio (x) = 0.48860 0.04263
# Poissons Ratio (y) = 0.45169 0.28502
# Poissons Ratio (z) = 0.07052 0.50998
#
# Static dielectric constant tensor:
#      x y z
#    x 3.687020 0.000000 0.000000 
#    y 0.000000 3.760140 0.000000 
#    z 0.000000 0.000000 3.380750 
# 
# 
# High freq. dielectric constant tensor:
#      x y z
#    x 1.771060 0.000000 0.000000 
#    y 0.000000 1.747310 0.000000 
#    z 0.000000 0.000000 1.748080 
# 
# From -- ./inp_files/12622.got.cif
#   From: 2010.06.25/outbox.cif.g09.slc.cpg/sg71_7_cif.got.tgz:12622.got - 2010.06.28 04:59:45.
