data_PCOD8290866
_publ_section_title
;
Structure prediction by ZEFSAII (Michael W. Deem and Ramdas Pophale) SiO2 
 PCOD8290866
Probable space group: I M M M
;
_chemical_formula_sum "Si O2"
_cell_formula_units_Z 72
_cell_length_a 31.702152
_cell_length_b 9.160982
_cell_length_c 12.908574
_cell_angle_alpha 90.000000
_cell_angle_beta 90.000000
_cell_angle_gamma 90.000000
_cell_volume 3748.944771
_symmetry_space_group_name_H-M "I M M M"
_symmetry_group_IT_number 71
_symmetry_cell_setting 'orthorhombic'
loop_
_space_group_symop_operation_xyz
x,y,z
-x,-y,z
x,-y,-z
-x,y,-z
-x,-y,-z
x,y,-z
-x,y,z
x,-y,z
1/2+x,1/2+y,1/2+z
1/2-x,1/2-y,1/2+z
1/2+x,1/2-y,1/2-z
1/2-x,1/2+y,1/2-z
1/2-x,1/2-y,1/2-z
1/2+x,1/2+y,1/2-z
1/2-x,1/2+y,1/2+z
1/2+x,1/2-y,1/2+z
loop_
_atom_site_type_symbol
_atom_site_label
_atom_site_fract_x
_atom_site_fract_y
_atom_site_fract_z
Si Si1 0.050212 0.167313 0.724194
Si Si2 0.892763 0.668047 0.118169
Si Si3 0.279886 0.832026 0.117747
Si Si4 0.312109 0.670366 0.305690
Si Si5 0.453904 0.327508 0.000000
O O1 0.070505 0.270048 0.809662
O O2 0.068277 0.215441 0.609479
O O3 0.000000 0.186260 0.727093
O O4 0.062813 0.000000 0.747641
O O5 0.885142 0.500000 0.146528
O O6 0.849335 0.753290 0.132630
O O7 0.907781 0.686885 0.000000
O O8 0.309317 0.731764 0.188963
O O9 0.230773 0.793587 0.133368
O O10 0.287901 0.000000 0.147382
O O11 0.292503 0.799030 0.000000
O O12 0.321772 0.500000 0.299795
O O13 0.459914 0.500000 0.000000
O O14 0.500000 0.253497 0.000000
#
# Coordination Sequence:
#
# PCOD8290866 Si02
#       5
#    16  16  16  16   8
#     4   9  18  35  60  86 110 140 180 226 276 330
#     4  11  24  39  54  76 110 150 189 229 276 329
#     4   9  18  34  56  81 110 142 177 223 277 329
#     4  10  20  35  56  81 108 141 184 228 271 324
#     4   7  12  28  55  83 107 131 165 213 267 321
#
# _framework density 19.205404999999999
#
# number of rings (size 3 to 8) (size 9 to 14) (size 15 to 20)
#    0.000    2.556    0.000    3.333    0.000    4.889 
#    2.000    2.778    0.000    2.000    0.000    0.000 
#    0.000    0.000    0.000    0.000    0.000    0.000 
#
# Total GULP energy -446275.361825 kJ/mol
# GULP energy per Si atom -12396.537828 kJ/mol
# Density = 1.916169 g / cm^3
# Si number density = 19.205405 Si / 1000 Ang^3
#
#
#
# Elastic Constant Matrix: (Units=GPa)
#
#
# Indices 1 2 3 4 5 6 
#
# 1 44.1736 29.9024 33.4133 0.0000 0.0000 0.0000
# 2 29.9024 96.3105 60.9045 0.0000 0.0000 0.0000
# 3 33.4133 60.9045 132.3817 0.0000 0.0000 0.0000
# 4 0.0000 0.0000 0.0000 33.9014 0.0000 0.0000
# 5 0.0000 0.0000 0.0000 0.0000 26.1966 0.0000
# 6 0.0000 0.0000 0.0000 0.0000 0.0000 31.1193
#
#
#
# Elastic Compliance Matrix: (Units=1/GPa)
#
#
# Indices 1 2 3 4 5 6 
#
# 1 0.030629 -0.006517 -0.004733 0.000000 0.000000 0.000000
# 2 -0.006517 0.016030 -0.005730 0.000000 0.000000 0.000000
# 3 -0.004733 -0.005730 0.011385 0.000000 0.000000 0.000000
# 4 0.000000 0.000000 0.000000 0.029497 0.000000 0.000000
# 5 0.000000 0.000000 0.000000 0.000000 0.038173 0.000000
# 6 0.000000 0.000000 0.000000 0.000000 0.000000 0.032134
#
#
# Mechanical properties :
#
#
# Convention : Reuss Voigt Hill
#
# Bulk Modulus (GPa) = 41.52007 57.92293 49.72150
# Shear Modulus (GPa) = 25.02052 28.15315 26.58683
#
# Velocity S-wave (km/s) = 3.61333 3.83286 3.72471
# Velocity P-wave (km/s) = 6.25093 7.05783 6.66659
#
# Compressibility (1/GPa) = 0.02408474
#
# Stress axis : x y z
#
# Youngs Moduli (GPa) = 32.64848 62.38310 87.83787
#
# Poissons Ratio (x) = 0.40655 0.41570
# Poissons Ratio (y) = 0.21277 0.50331
# Poissons Ratio (z) = 0.15451 0.35745
#
# Static dielectric constant tensor:
#      x y z
#    x 3.212370 0.000000 0.000000 
#    y 0.000000 3.435920 0.000000 
#    z 0.000000 0.000000 3.804840 
# 
# 
# High freq. dielectric constant tensor:
#      x y z
#    x 1.725370 0.000000 0.000000 
#    y 0.000000 1.737400 0.000000 
#    z 0.000000 0.000000 1.762710 
# 
# From -- ./inp_files/29600.got.cif
#   From: 2010.06.25/outbox.cif.g09.slc.cpg/sg71_15_cif.got.tgz:29600.got - 2010.06.28 04:59:45.
