data_PCOD8290262
_publ_section_title
;
Structure prediction by ZEFSAII (Michael W. Deem and Ramdas Pophale) SiO2 
 PCOD8290262
Probable space group: I M M M
;
_chemical_formula_sum "Si O2"
_cell_formula_units_Z 88
_cell_length_a 18.835384
_cell_length_b 8.042211
_cell_length_c 30.385913
_cell_angle_alpha 90.000000
_cell_angle_beta 90.000000
_cell_angle_gamma 90.000000
_cell_volume 4602.801352
_symmetry_space_group_name_H-M "I M M M"
_symmetry_group_IT_number 71
_symmetry_cell_setting 'orthorhombic'
loop_
_space_group_symop_operation_xyz
x,y,z
-x,-y,z
x,-y,-z
-x,y,-z
-x,-y,-z
x,y,-z
-x,y,z
x,-y,z
1/2+x,1/2+y,1/2+z
1/2-x,1/2-y,1/2+z
1/2+x,1/2-y,1/2-z
1/2-x,1/2+y,1/2-z
1/2-x,1/2-y,1/2-z
1/2+x,1/2+y,1/2-z
1/2-x,1/2+y,1/2+z
1/2+x,1/2-y,1/2+z
loop_
_atom_site_type_symbol
_atom_site_label
_atom_site_fract_x
_atom_site_fract_y
_atom_site_fract_z
Si Si1 0.920950 0.694326 0.246457
Si Si2 0.920120 0.000000 0.052205
Si Si3 0.713559 0.310219 0.294042
Si Si4 0.673902 0.811521 0.448841
Si Si5 0.281923 0.194883 0.882140
Si Si6 0.419849 0.303547 0.842893
O O1 0.918810 0.500000 0.238155
O O2 0.870647 0.779478 0.210277
O O3 0.894668 0.732334 0.295839
O O4 0.000000 0.767079 0.239838
O O5 0.881160 0.830116 0.068460
O O6 0.000000 0.000000 0.071707
O O7 0.923274 0.000000 0.000000
O O8 0.732102 0.500000 0.299284
O O9 0.750000 0.250000 0.250000
O O10 0.744288 0.227075 0.338374
O O11 0.690025 0.782986 0.500000
O O12 0.748447 0.789640 0.423664
O O13 0.644198 0.000000 0.440953
O O14 0.366217 0.232819 0.879669
O O15 0.268510 0.000000 0.888201
O O16 0.500000 0.242973 0.853943
O O17 0.415981 0.500000 0.841154
#
# Coordination Sequence:
#
# PCOD8290262 Si02
#       6
#    16   8  16  16  16  16
#     4  10  20  34  51  72 103 143 184 229 280 330
#     4   9  18  36  62  90 121 153 187 233 286 342
#     4  11  22  34  52  78 106 142 185 228 275 329
#     4  10  21  38  62  91 119 151 192 237 287 341
#     4  11  22  36  57  83 111 149 190 233 286 342
#     4  10  20  33  52  79 109 144 188 236 282 332
#
# _framework density 19.118791999999999
#
# number of rings (size 3 to 8) (size 9 to 14) (size 15 to 20)
#    0.000    1.727    2.727    2.182    0.000    4.727 
#    0.000    2.727    0.000    0.545    0.000    3.818 
#    0.000    0.000    0.000    0.000    0.000    0.000 
#
# Total GULP energy -545535.025611 kJ/mol
# GULP energy per Si atom -12398.523309 kJ/mol
# Density = 1.907528 g / cm^3
# Si number density = 19.118792 Si / 1000 Ang^3
#
#
#
# Elastic Constant Matrix: (Units=GPa)
#
#
# Indices 1 2 3 4 5 6 
#
# 1 120.2572 32.7698 44.3352 0.0000 0.0000 0.0000
# 2 32.7698 90.1846 28.4138 0.0000 0.0000 0.0000
# 3 44.3352 28.4138 59.8997 0.0000 0.0000 0.0000
# 4 0.0000 0.0000 0.0000 22.6679 0.0000 0.0000
# 5 0.0000 0.0000 0.0000 0.0000 27.4588 0.0000
# 6 0.0000 0.0000 0.0000 0.0000 0.0000 31.8123
#
#
#
# Elastic Compliance Matrix: (Units=1/GPa)
#
#
# Indices 1 2 3 4 5 6 
#
# 1 0.011676 -0.001787 -0.007794 0.000000 0.000000 0.000000
# 2 -0.001787 0.013310 -0.004991 0.000000 0.000000 0.000000
# 3 -0.007794 -0.004991 0.024831 0.000000 0.000000 0.000000
# 4 0.000000 0.000000 0.000000 0.044115 0.000000 0.000000
# 5 0.000000 0.000000 0.000000 0.000000 0.036418 0.000000
# 6 0.000000 0.000000 0.000000 0.000000 0.000000 0.031434
#
#
# Mechanical properties :
#
#
# Convention : Reuss Voigt Hill
#
# Bulk Modulus (GPa) = 48.37363 53.48657 50.93010
# Shear Modulus (GPa) = 25.27533 27.37596 26.32565
#
# Velocity S-wave (km/s) = 3.63990 3.78813 3.71476
# Velocity P-wave (km/s) = 6.55909 6.86804 6.71534
#
# Compressibility (1/GPa) = 0.02067242
#
# Stress axis : x y z
#
# Youngs Moduli (GPa) = 85.64551 75.13041 40.27171
#
# Poissons Ratio (x) = 0.13425 0.31390
# Poissons Ratio (y) = 0.15304 0.20100
# Poissons Ratio (z) = 0.66756 0.37499
#
# Static dielectric constant tensor:
#      x y z
#    x 3.810420 0.000000 0.000000 
#    y 0.000000 3.589370 0.000000 
#    z 0.000000 0.000000 3.253440 
# 
# 
# High freq. dielectric constant tensor:
#      x y z
#    x 1.748800 0.000000 0.000000 
#    y 0.000000 1.754310 0.000000 
#    z 0.000000 0.000000 1.705000 
# 
# From -- ./inp_files/70339.got.cif
#   From: 2010.06.25/outbox.cif.g09.slc.cpg/sg71_36_cif.got.tgz:70339.got - 2010.06.28 04:59:45.
