data_PCOD8290422
_publ_section_title
;
Structure prediction by ZEFSAII (Michael W. Deem and Ramdas Pophale) SiO2 
 PCOD8290422
Probable space group: I M M M
;
_chemical_formula_sum "Si O2"
_cell_formula_units_Z 120
_cell_length_a 8.875158
_cell_length_b 25.671811
_cell_length_c 27.428131
_cell_angle_alpha 90.000000
_cell_angle_beta 90.000000
_cell_angle_gamma 90.000000
_cell_volume 6249.263184
_symmetry_space_group_name_H-M "I M M M"
_symmetry_group_IT_number 71
_symmetry_cell_setting 'orthorhombic'
loop_
_space_group_symop_operation_xyz
x,y,z
-x,-y,z
x,-y,-z
-x,y,-z
-x,-y,-z
x,y,-z
-x,y,z
x,-y,z
1/2+x,1/2+y,1/2+z
1/2-x,1/2-y,1/2+z
1/2+x,1/2-y,1/2-z
1/2-x,1/2+y,1/2-z
1/2-x,1/2-y,1/2-z
1/2+x,1/2+y,1/2-z
1/2-x,1/2+y,1/2+z
1/2+x,1/2-y,1/2+z
loop_
_atom_site_type_symbol
_atom_site_label
_atom_site_fract_x
_atom_site_fract_y
_atom_site_fract_z
Si Si1 0.830305 0.596975 0.946962
Si Si2 0.822388 0.204052 0.447052
Si Si3 0.319646 0.058897 0.105555
Si Si4 0.835749 0.438455 0.500000
Si Si5 0.679479 0.255180 0.846589
Si Si6 0.676572 0.354931 0.786939
Si Si7 0.171767 0.442342 0.845457
Si Si8 0.820905 0.642322 0.684320
O O1 0.716012 0.644074 0.938777
O O2 0.806388 0.555474 0.904010
O O3 0.000000 0.619727 0.944851
O O4 0.801057 0.570488 0.000000
O O5 0.758803 0.223526 0.500000
O O6 0.755971 0.236407 0.401397
O O7 0.000000 0.209826 0.447018
O O8 0.500000 0.060155 0.102950
O O9 0.258767 0.099068 0.146269
O O10 0.265863 0.000000 0.118726
O O11 0.254819 0.076334 0.051658
O O12 0.856987 0.500000 0.500000
O O13 0.000000 0.411271 0.500000
O O14 0.500000 0.256638 0.847142
O O15 0.737209 0.300424 0.809787
O O16 0.741361 0.199377 0.829731
O O17 0.500000 0.351815 0.776857
O O18 0.711149 0.401429 0.823960
O O19 0.761303 0.370137 0.737667
O O20 0.207639 0.500000 0.825237
O O21 0.000000 0.426484 0.831937
O O22 0.000000 0.641175 0.684667
#
# Coordination Sequence:
#
# PCOD8290422 Si02
#       8
#    16  16  16   8  16  16  16  16
#     4   9  17  30  50  76 103 131 166 208 254 306
#     4   9  16  29  50  73 101 137 170 204 254 312
#     4   8  14  26  46  72 102 132 158 192 240 294
#     4   7  10  20  40  68 101 131 155 183 232 293
#     4   9  18  33  51  74 102 133 170 213 257 305
#     4  11  22  37  54  71  98 135 176 218 261 307
#     4  10  21  36  54  77 103 133 171 213 260 312
#     4  10  20  34  52  76 104 132 170 214 257 302
#
# _framework density 19.202265000000001
#
# number of rings (size 3 to 8) (size 9 to 14) (size 15 to 20)
#    0.000    2.733    1.333    1.600    0.000    1.067 
#    1.200    4.000    0.000    0.000    0.000    3.267 
#    0.000    1.600    0.000    0.000    0.000    0.000 
#
# Total GULP energy -743411.429758 kJ/mol
# GULP energy per Si atom -12390.190496 kJ/mol
# Density = 1.915856 g / cm^3
# Si number density = 19.202265 Si / 1000 Ang^3
#
#
#
# Elastic Constant Matrix: (Units=GPa)
#
#
# Indices 1 2 3 4 5 6 
#
# 1 10.3619 11.8925 15.9265 0.0000 0.0000 0.0000
# 2 11.8925 107.1232 61.4104 0.0000 0.0000 0.0000
# 3 15.9265 61.4104 150.4603 0.0000 0.0000 0.0000
# 4 0.0000 0.0000 0.0000 21.9992 0.0000 0.0000
# 5 0.0000 0.0000 0.0000 0.0000 19.0913 0.0000
# 6 0.0000 0.0000 0.0000 0.0000 0.0000 16.4665
#
#
#
# Elastic Compliance Matrix: (Units=1/GPa)
#
#
# Indices 1 2 3 4 5 6 
#
# 1 0.120168 -0.007896 -0.009497 0.000000 0.000000 0.000000
# 2 -0.007896 0.012705 -0.004350 0.000000 0.000000 0.000000
# 3 -0.009497 -0.004350 0.009427 0.000000 0.000000 0.000000
# 4 0.000000 0.000000 0.000000 0.045456 0.000000 0.000000
# 5 0.000000 0.000000 0.000000 0.000000 0.052380 0.000000
# 6 0.000000 0.000000 0.000000 0.000000 0.000000 0.060729
#
#
# Mechanical properties :
#
#
# Convention : Reuss Voigt Hill
#
# Bulk Modulus (GPa) = 10.12007 49.60045 29.86026
# Shear Modulus (GPa) = 13.25243 23.42580 18.33911
#
# Velocity S-wave (km/s) = 2.62992 3.49657 3.09374
# Velocity P-wave (km/s) = 3.80837 6.49522 5.32408
#
# Compressibility (1/GPa) = 0.09881351
#
# Stress axis : x y z
#
# Youngs Moduli (GPa) = 8.32171 78.70744 106.07898
#
# Poissons Ratio (x) = 0.62149 1.00744
# Poissons Ratio (y) = 0.06571 0.46143
# Poissons Ratio (z) = 0.07903 0.34236
#
# Static dielectric constant tensor:
#      x y z
#    x 3.041820 0.000000 0.000000 
#    y 0.000000 3.435230 0.000000 
#    z 0.000000 0.000000 3.960160 
# 
# 
# High freq. dielectric constant tensor:
#      x y z
#    x 1.695560 0.000000 0.000000 
#    y 0.000000 1.728080 0.000000 
#    z 0.000000 0.000000 1.768300 
# 
# From -- ./inp_files/63756.got.cif
#   From: 2010.06.25/outbox.cif.g09.slc.cpg/sg71_32_cif.got.tgz:63756.got - 2010.06.28 04:59:45.
