data_PCOD8290531
_publ_section_title
;
Structure prediction by ZEFSAII (Michael W. Deem and Ramdas Pophale) SiO2 
 PCOD8290531
Probable space group: I M M M
;
_chemical_formula_sum "Si O2"
_cell_formula_units_Z 104
_cell_length_a 27.681084
_cell_length_b 23.061487
_cell_length_c 8.781787
_cell_angle_alpha 90.000000
_cell_angle_beta 90.000000
_cell_angle_gamma 90.000000
_cell_volume 5606.002660
_symmetry_space_group_name_H-M "I M M M"
_symmetry_group_IT_number 71
_symmetry_cell_setting 'orthorhombic'
loop_
_space_group_symop_operation_xyz
x,y,z
-x,-y,z
x,-y,-z
-x,y,-z
-x,-y,-z
x,y,-z
-x,y,z
x,-y,z
1/2+x,1/2+y,1/2+z
1/2-x,1/2-y,1/2+z
1/2+x,1/2-y,1/2-z
1/2-x,1/2+y,1/2-z
1/2-x,1/2-y,1/2-z
1/2+x,1/2+y,1/2-z
1/2-x,1/2+y,1/2+z
1/2+x,1/2-y,1/2+z
loop_
_atom_site_type_symbol
_atom_site_label
_atom_site_fract_x
_atom_site_fract_y
_atom_site_fract_z
Si Si1 0.000000 0.569002 0.328528
Si Si2 0.903484 0.431248 0.172196
Si Si3 0.303349 0.253431 0.320268
Si Si4 0.858892 0.132277 0.821134
Si Si5 0.767129 0.936532 0.820049
Si Si6 0.054919 0.065514 0.679825
Si Si7 0.321517 0.862667 0.821250
O O1 0.954018 0.592373 0.236460
O O2 0.000000 0.500000 0.334097
O O3 0.000000 0.594240 0.500000
O O4 0.901802 0.500000 0.177010
O O5 0.862950 0.408347 0.285458
O O6 0.896210 0.408471 0.000000
O O7 0.296929 0.258602 0.500000
O O8 0.250000 0.250000 0.250000
O O9 0.336125 0.307111 0.260684
O O10 0.332013 0.195973 0.271113
O O11 0.820862 0.082503 0.775395
O O12 0.909844 0.114725 0.747348
O O13 0.867308 0.136214 0.000000
O O14 0.728613 0.889924 0.759168
O O15 0.757494 0.000000 0.747798
O O16 0.761040 0.939792 0.000000
O O17 0.059425 0.067930 0.500000
O O18 0.000000 0.080364 0.730143
O O19 0.068014 0.000000 0.736545
O O20 0.319560 0.849182 0.000000
#
# Coordination Sequence:
#
# PCOD8290531 Si02
#       7
#     8  16  16  16  16  16  16
#     4   9  17  31  53  79 105 139 181 219 262 323
#     4  10  20  34  53  80 113 145 178 223 278 329
#     4  11  22  38  57  79 107 143 187 231 274 325
#     4  10  20  35  56  81 109 144 187 229 272 325
#     4   9  17  30  49  76 110 142 173 215 267 321
#     4   9  19  36  57  84 118 150 180 222 280 340
#     4  11  21  35  54  78 108 146 186 226 275 328
#
# _framework density 18.551542999999999
#
# number of rings (size 3 to 8) (size 9 to 14) (size 15 to 20)
#    0.000    2.077    1.538    3.000    0.000    4.923 
#    0.000    0.769    1.692    2.769    0.000    0.000 
#    0.000    0.000    0.000    0.000    0.000    0.000 
#
# Total GULP energy -644681.674779 kJ/mol
# GULP energy per Si atom -12397.724515 kJ/mol
# Density = 1.850932 g / cm^3
# Si number density = 18.551543 Si / 1000 Ang^3
#
#
#
# Elastic Constant Matrix: (Units=GPa)
#
#
# Indices 1 2 3 4 5 6 
#
# 1 128.8623 50.7542 31.8276 0.0000 0.0000 0.0000
# 2 50.7542 105.1985 33.9731 0.0000 0.0000 0.0000
# 3 31.8276 33.9731 51.1443 0.0000 0.0000 0.0000
# 4 0.0000 0.0000 0.0000 27.1468 0.0000 0.0000
# 5 0.0000 0.0000 0.0000 0.0000 32.2842 0.0000
# 6 0.0000 0.0000 0.0000 0.0000 0.0000 23.8400
#
#
#
# Elastic Compliance Matrix: (Units=1/GPa)
#
#
# Indices 1 2 3 4 5 6 
#
# 1 0.010158 -0.003640 -0.003903 0.000000 0.000000 0.000000
# 2 -0.003640 0.013406 -0.006640 0.000000 0.000000 0.000000
# 3 -0.003903 -0.006640 0.026392 0.000000 0.000000 0.000000
# 4 0.000000 0.000000 0.000000 0.036837 0.000000 0.000000
# 5 0.000000 0.000000 0.000000 0.000000 0.030975 0.000000
# 6 0.000000 0.000000 0.000000 0.000000 0.000000 0.041946
#
#
# Mechanical properties :
#
#
# Convention : Reuss Voigt Hill
#
# Bulk Modulus (GPa) = 46.31870 57.59054 51.95462
# Shear Modulus (GPa) = 25.60443 27.89755 26.75099
#
# Velocity S-wave (km/s) = 3.71910 3.88207 3.80146
# Velocity P-wave (km/s) = 6.59273 7.15576 6.88001
#
# Compressibility (1/GPa) = 0.02158955
#
# Stress axis : x y z
#
# Youngs Moduli (GPa) = 98.44363 74.59072 37.88979
#
# Poissons Ratio (x) = 0.27153 0.14790
# Poissons Ratio (y) = 0.35837 0.25159
# Poissons Ratio (z) = 0.38426 0.49528
#
# Static dielectric constant tensor:
#      x y z
#    x 3.476490 0.000000 0.000000 
#    y 0.000000 3.536490 0.000000 
#    z 0.000000 0.000000 3.276200 
# 
# 
# High freq. dielectric constant tensor:
#      x y z
#    x 1.721760 0.000000 0.000000 
#    y 0.000000 1.709000 0.000000 
#    z 0.000000 0.000000 1.707740 
# 
# From -- ./inp_files/11517.got.cif
#   From: 2010.06.25/outbox.cif.g09.slc.cpg/sg71_6_cif.got.tgz:11517.got - 2010.06.28 04:59:45.
