data_PCOD8290863
_publ_section_title
;
Structure prediction by ZEFSAII (Michael W. Deem and Ramdas Pophale) SiO2 
 PCOD8290863
Probable space group: I M M M
;
_chemical_formula_sum "Si O2"
_cell_formula_units_Z 64
_cell_length_a 26.076570
_cell_length_b 14.817579
_cell_length_c 8.986446
_cell_angle_alpha 90.000000
_cell_angle_beta 90.000000
_cell_angle_gamma 90.000000
_cell_volume 3472.287572
_symmetry_space_group_name_H-M "I M M M"
_symmetry_group_IT_number 71
_symmetry_cell_setting 'orthorhombic'
loop_
_space_group_symop_operation_xyz
x,y,z
-x,-y,z
x,-y,-z
-x,y,-z
-x,-y,-z
x,y,-z
-x,y,z
x,-y,z
1/2+x,1/2+y,1/2+z
1/2-x,1/2-y,1/2+z
1/2+x,1/2-y,1/2-z
1/2-x,1/2+y,1/2-z
1/2-x,1/2-y,1/2-z
1/2+x,1/2+y,1/2-z
1/2-x,1/2+y,1/2+z
1/2+x,1/2-y,1/2+z
loop_
_atom_site_type_symbol
_atom_site_label
_atom_site_fract_x
_atom_site_fract_y
_atom_site_fract_z
Si Si1 0.329255 0.500000 0.822795
Si Si2 0.440649 0.000000 0.826202
Si Si3 0.285364 0.000000 0.674933
Si Si4 0.389714 0.660274 0.675063
Si Si5 0.630249 0.862985 0.674659
Si Si6 0.000000 0.899124 0.175677
O O1 0.271420 0.500000 0.755916
O O2 0.356715 0.588896 0.764628
O O3 0.330372 0.500000 0.000000
O O4 0.416978 0.909574 0.757125
O O5 0.500000 0.000000 0.786872
O O6 0.429622 0.000000 0.000000
O O7 0.316595 0.089500 0.725447
O O8 0.279135 0.000000 0.500000
O O9 0.384689 0.640023 0.500000
O O10 0.367877 0.758169 0.717801
O O11 0.449064 0.653851 0.727609
O O12 0.620993 0.876380 0.500000
O O13 0.000000 0.000000 0.244982
O O14 0.000000 0.907020 0.000000
#
# Coordination Sequence:
#
# PCOD8290863 Si02
#       6
#     8   8   8  16  16   8
#     4  11  22  35  53  75 109 148 178 213 273 336
#     4  10  21  35  51  77 116 149 172 212 268 322
#     4   8  17  36  54  76 108 139 173 227 276 306
#     4  10  20  35  56  81 106 135 180 228 269 311
#     4   9  19  36  59  80 102 137 185 230 263 308
#     4   9  16  30  52  75 106 135 161 220 276 304
#
# _framework density 18.431654000000002
#
# number of rings (size 3 to 8) (size 9 to 14) (size 15 to 20)
#    0.000    2.500    1.250    1.500    1.750    3.000 
#    0.000    6.250    0.000    0.000    0.000    0.000 
#    0.000    0.000    0.000    0.000    0.000    0.000 
#
# Total GULP energy -396758.206880 kJ/mol
# GULP energy per Si atom -12398.693965 kJ/mol
# Density = 1.838970 g / cm^3
# Si number density = 18.431654 Si / 1000 Ang^3
#
#
#
# Elastic Constant Matrix: (Units=GPa)
#
#
# Indices 1 2 3 4 5 6 
#
# 1 173.1479 95.0874 48.5339 0.0000 0.0000 0.0000
# 2 95.0874 167.5302 44.7034 0.0000 0.0000 0.0000
# 3 48.5339 44.7034 48.4848 0.0000 0.0000 0.0000
# 4 0.0000 0.0000 0.0000 -24.9411 0.0000 0.0000
# 5 0.0000 0.0000 0.0000 0.0000 20.3163 0.0000
# 6 0.0000 0.0000 0.0000 0.0000 0.0000 -2.4025
#
#
#
# Elastic Compliance Matrix: (Units=1/GPa)
#
#
# Indices 1 2 3 4 5 6 
#
# 1 0.009569 -0.003813 -0.006063 0.000000 0.000000 0.000000
# 2 -0.003813 0.009437 -0.004883 0.000000 0.000000 0.000000
# 3 -0.006063 -0.004883 0.031196 0.000000 0.000000 0.000000
# 4 0.000000 0.000000 0.000000 -0.040094 0.000000 0.000000
# 5 0.000000 0.000000 0.000000 0.000000 0.049222 0.000000
# 6 0.000000 0.000000 0.000000 0.000000 0.000000 -0.416227
#
#
# Mechanical properties :
#
#
# Convention : Reuss Voigt Hill
#
# Bulk Modulus (GPa) = 48.34882 85.09025 66.71954
# Shear Modulus (GPa) = -15.60134 11.98375 -1.80879
#
# Velocity S-wave (km/s) = -2.91252 2.55261 -0.99171
# Velocity P-wave (km/s) = 3.87014 7.41305 5.91317
#
# Compressibility (1/GPa) = 0.02068303
#
# Stress axis : x y z
#
# Youngs Moduli (GPa) = 104.50366 105.97054 32.05516
#
# Poissons Ratio (x) = 0.40412 0.19434
# Poissons Ratio (y) = 0.39852 0.15653
# Poissons Ratio (z) = 0.63357 0.51748
#
# Static dielectric constant tensor:
#      x y z
#    x 3.683590 0.000000 0.000000 
#    y 0.000000 3.651350 0.000000 
#    z 0.000000 0.000000 3.112990 
# 
# 
# High freq. dielectric constant tensor:
#      x y z
#    x 1.722670 0.000000 0.000000 
#    y 0.000000 1.722130 0.000000 
#    z 0.000000 0.000000 1.686330 
# 
# From -- ./inp_files/5629.got.cif
#   From: 2010.06.25/outbox.cif.g09.slc.cpg/sg71_3_cif.got.tgz:5629.got - 2010.06.28 04:59:45.
