data_PCOD8290357
_publ_section_title
;
Structure prediction by ZEFSAII (Michael W. Deem and Ramdas Pophale) SiO2 
 PCOD8290357
Probable space group: I M M M
;
_chemical_formula_sum "Si O2"
_cell_formula_units_Z 112
_cell_length_a 21.050426
_cell_length_b 14.398988
_cell_length_c 21.050419
_cell_angle_alpha 90.000000
_cell_angle_beta 90.000000
_cell_angle_gamma 90.000000
_cell_volume 6380.483701
_symmetry_space_group_name_H-M "I M M M"
_symmetry_group_IT_number 71
_symmetry_cell_setting 'orthorhombic'
loop_
_space_group_symop_operation_xyz
x,y,z
-x,-y,z
x,-y,-z
-x,y,-z
-x,-y,-z
x,y,-z
-x,y,z
x,-y,z
1/2+x,1/2+y,1/2+z
1/2-x,1/2-y,1/2+z
1/2+x,1/2-y,1/2-z
1/2-x,1/2+y,1/2-z
1/2-x,1/2-y,1/2-z
1/2+x,1/2+y,1/2-z
1/2-x,1/2+y,1/2+z
1/2+x,1/2-y,1/2+z
loop_
_atom_site_type_symbol
_atom_site_label
_atom_site_fract_x
_atom_site_fract_y
_atom_site_fract_z
Si Si1 0.853635 0.738663 0.247535
Si Si2 0.573826 0.393034 0.677276
Si Si3 0.572651 0.250000 0.072651
Si Si4 0.425398 0.897340 0.825122
Si Si5 0.677276 0.606966 0.573826
Si Si6 0.325122 0.397340 0.074602
Si Si7 0.747535 0.238663 0.646365
O O1 0.894200 0.831883 0.233358
O O2 0.900649 0.653761 0.262025
O O3 0.807541 0.750000 0.307541
O O4 0.814332 0.710004 0.185668
O O5 0.500000 0.365266 0.667688
O O6 0.580149 0.500000 0.698722
O O7 0.610557 0.376506 0.610557
O O8 0.500000 0.276714 0.085568
O O9 0.594261 0.160634 0.112491
O O10 0.612491 0.339367 0.094261
O O11 0.585568 0.223286 0.000000
O O12 0.500000 0.905186 0.819155
O O13 0.395084 0.000000 0.830589
O O14 0.667688 0.634734 0.500000
O O15 0.698722 0.500000 0.580149
O O16 0.733358 0.668117 0.605799
O O17 0.330589 0.500000 0.104916
O O18 0.262025 0.346239 0.099351
O O19 0.319156 0.405186 0.000000
#
# Coordination Sequence:
#
# PCOD8290357 Si02
#       7
#    16  16  16  16  16  16  16
#     4  10  20  34  51  71  99 136 173 208 246 291
#     4   9  18  33  54  80 108 136 168 210 260 313
#     4   9  18  34  53  72  98 128 161 208 258 299
#     4  10  20  34  52  73  98 128 164 207 252 296
#     4   9  18  33  54  80 108 136 168 210 260 313
#     4  10  20  34  52  73  98 128 164 207 252 296
#     4  10  20  34  51  71  99 136 173 208 246 291
#
# _framework density 17.553528
#
# number of rings (size 3 to 8) (size 9 to 14) (size 15 to 20)
#    0.000    2.429    1.429    0.857    0.000    2.571 
#    0.000    7.143    0.000    0.000    0.000    0.000 
#    0.000    0.000    0.000   26.571    0.000    0.571 
#
# Total GULP energy -694211.139236 kJ/mol
# GULP energy per Si atom -12396.627486 kJ/mol
# Density = 1.751357 g / cm^3
# Si number density = 17.553528 Si / 1000 Ang^3
#
#
#
# Elastic Constant Matrix: (Units=GPa)
#
#
# Indices 1 2 3 4 5 6 
#
# 1 77.7072 66.4248 56.1116 0.0000 0.0000 0.0000
# 2 66.4248 154.9453 66.4244 0.0000 0.0000 0.0000
# 3 56.1116 66.4244 77.7067 0.0000 0.0000 0.0000
# 4 0.0000 0.0000 0.0000 29.1495 0.0000 0.0000
# 5 0.0000 0.0000 0.0000 0.0000 29.2229 0.0000
# 6 0.0000 0.0000 0.0000 0.0000 0.0000 29.1496
#
#
#
# Elastic Compliance Matrix: (Units=1/GPa)
#
#
# Indices 1 2 3 4 5 6 
#
# 1 0.029658 -0.005577 -0.016648 0.000000 0.000000 0.000000
# 2 -0.005577 0.011236 -0.005577 0.000000 0.000000 0.000000
# 3 -0.016648 -0.005577 0.029658 0.000000 0.000000 0.000000
# 4 0.000000 0.000000 0.000000 0.034306 0.000000 0.000000
# 5 0.000000 0.000000 0.000000 0.000000 0.034220 0.000000
# 6 0.000000 0.000000 0.000000 0.000000 0.000000 0.034306
#
#
# Mechanical properties :
#
#
# Convention : Reuss Voigt Hill
#
# Bulk Modulus (GPa) = 66.90663 76.47563 71.69113
# Shear Modulus (GPa) = 21.37022 25.59763 23.48393
#
# Velocity S-wave (km/s) = 3.49296 3.82286 3.66163
# Velocity P-wave (km/s) = 7.38012 7.94653 7.66856
#
# Compressibility (1/GPa) = 0.01494620
#
# Stress axis : x y z
#
# Youngs Moduli (GPa) = 33.71782 89.00187 33.71777
#
# Poissons Ratio (x) = 0.49638 0.56135
# Poissons Ratio (y) = 0.18805 0.18805
# Poissons Ratio (z) = 0.56135 0.49637
#
# Static dielectric constant tensor:
#      x y z
#    x 3.319690 0.000000 0.000000 
#    y 0.000000 3.494070 0.000000 
#    z 0.000000 0.000000 3.319690 
# 
# 
# High freq. dielectric constant tensor:
#      x y z
#    x 1.677740 0.000000 0.000000 
#    y 0.000000 1.673830 0.000000 
#    z 0.000000 0.000000 1.677740 
# 
# From -- ./inp_files/55784.got.cif
#   From: 2010.06.25/outbox.cif.g09.slc.cpg/sg71_28_cif.got.tgz:55784.got - 2010.06.28 04:59:45.
