data_PCOD8290170
_publ_section_title
;
Structure prediction by ZEFSAII (Michael W. Deem and Ramdas Pophale) SiO2 
 PCOD8290170
Probable space group: I M M M
;
_chemical_formula_sum "Si O2"
_cell_formula_units_Z 72
_cell_length_a 23.430357
_cell_length_b 9.092096
_cell_length_c 17.622146
_cell_angle_alpha 90.000000
_cell_angle_beta 90.000000
_cell_angle_gamma 90.000000
_cell_volume 3754.064357
_symmetry_space_group_name_H-M "I M M M"
_symmetry_group_IT_number 71
_symmetry_cell_setting 'orthorhombic'
loop_
_space_group_symop_operation_xyz
x,y,z
-x,-y,z
x,-y,-z
-x,y,-z
-x,-y,-z
x,y,-z
-x,y,z
x,-y,z
1/2+x,1/2+y,1/2+z
1/2-x,1/2-y,1/2+z
1/2+x,1/2-y,1/2-z
1/2-x,1/2+y,1/2-z
1/2-x,1/2-y,1/2-z
1/2+x,1/2+y,1/2-z
1/2-x,1/2+y,1/2+z
1/2+x,1/2-y,1/2+z
loop_
_atom_site_type_symbol
_atom_site_label
_atom_site_fract_x
_atom_site_fract_y
_atom_site_fract_z
Si Si1 0.877305 0.175601 0.914707
Si Si2 0.265785 0.674447 0.671634
Si Si3 0.562793 0.835078 0.909692
Si Si4 0.000000 0.838805 0.090072
Si Si5 0.169985 0.163192 0.589495
O O1 0.828433 0.226975 0.856170
O O2 0.939634 0.239976 0.887202
O O3 0.881031 0.000000 0.916766
O O4 0.862771 0.232627 0.000000
O O5 0.262488 0.500000 0.679818
O O6 0.250000 0.750000 0.750000
O O7 0.221083 0.727526 0.608981
O O8 0.500000 0.780876 0.882986
O O9 0.610832 0.726739 0.875987
O O10 0.574199 0.000000 0.879465
O O11 0.565670 0.835799 0.000000
O O12 0.000000 0.000000 0.127977
O O13 0.000000 0.854699 0.000000
O O14 0.165401 0.153437 0.500000
O O15 0.179705 0.000000 0.624249
#
# Coordination Sequence:
#
# PCOD8290170 Si02
#       5
#    16  16  16   8  16
#     4   8  14  26  48  77 103 127 159 203 257 316
#     4  11  22  35  51  71 101 140 177 213 257 311
#     4   8  14  26  46  72 100 129 161 200 249 301
#     4   7  10  20  42  74 105 123 144 193 258 313
#     4  10  20  33  51  76 103 131 169 216 261 307
#
# _framework density 19.179213000000001
#
# number of rings (size 3 to 8) (size 9 to 14) (size 15 to 20)
#    0.000    3.000    0.000    4.000    0.000    2.667 
#    0.000    2.222    2.444    0.000    0.000    2.333 
#    0.000   12.444    0.000    0.000    0.000    0.000 
#
# Total GULP energy -445993.836078 kJ/mol
# GULP energy per Si atom -12388.717669 kJ/mol
# Density = 1.913556 g / cm^3
# Si number density = 19.179213 Si / 1000 Ang^3
#
#
#
# Elastic Constant Matrix: (Units=GPa)
#
#
# Indices 1 2 3 4 5 6 
#
# 1 203.7358 55.5940 50.4528 0.0000 0.0000 0.0000
# 2 55.5940 71.3881 21.9204 0.0000 0.0000 0.0000
# 3 50.4528 21.9204 45.3679 0.0000 0.0000 0.0000
# 4 0.0000 0.0000 0.0000 21.3628 0.0000 0.0000
# 5 0.0000 0.0000 0.0000 0.0000 13.6807 0.0000
# 6 0.0000 0.0000 0.0000 0.0000 0.0000 21.1884
#
#
#
# Elastic Compliance Matrix: (Units=1/GPa)
#
#
# Indices 1 2 3 4 5 6 
#
# 1 0.007599 -0.003902 -0.006565 0.000000 0.000000 0.000000
# 2 -0.003902 0.018452 -0.004576 0.000000 0.000000 0.000000
# 3 -0.006565 -0.004576 0.031554 0.000000 0.000000 0.000000
# 4 0.000000 0.000000 0.000000 0.046810 0.000000 0.000000
# 5 0.000000 0.000000 0.000000 0.000000 0.073096 0.000000
# 6 0.000000 0.000000 0.000000 0.000000 0.000000 0.047196
#
#
# Mechanical properties :
#
#
# Convention : Reuss Voigt Hill
#
# Bulk Modulus (GPa) = 36.33964 64.04736 50.19350
# Shear Modulus (GPa) = 18.94187 24.08136 21.51162
#
# Velocity S-wave (km/s) = 3.14606 3.54728 3.35268
# Velocity P-wave (km/s) = 5.67322 7.08832 6.41988
#
# Compressibility (1/GPa) = 0.02751816
#
# Stress axis : x y z
#
# Youngs Moduli (GPa) = 131.59968 54.19586 31.69146
#
# Poissons Ratio (x) = 0.21146 0.20806
# Poissons Ratio (y) = 0.51346 0.14503
# Poissons Ratio (z) = 0.86399 0.24801
#
# Static dielectric constant tensor:
#      x y z
#    x 4.250000 0.000000 0.000000 
#    y 0.000000 3.555110 0.000000 
#    z 0.000000 0.000000 3.128820 
# 
# 
# High freq. dielectric constant tensor:
#      x y z
#    x 1.772500 0.000000 0.000000 
#    y 0.000000 1.711350 0.000000 
#    z 0.000000 0.000000 1.697480 
# 
# From -- ./inp_files/7952.got.cif
#   From: 2010.06.25/outbox.cif.g09.slc.cpg/sg71_4_cif.got.tgz:7952.got - 2010.06.28 04:59:45.
