data_PCOD8290456
_publ_section_title
;
Structure prediction by ZEFSAII (Michael W. Deem and Ramdas Pophale) SiO2 
 PCOD8290456
Probable space group: I M M M
;
_chemical_formula_sum "Si O2"
_cell_formula_units_Z 96
_cell_length_a 30.412615
_cell_length_b 18.827153
_cell_length_c 9.259889
_cell_angle_alpha 90.000000
_cell_angle_beta 90.000000
_cell_angle_gamma 90.000000
_cell_volume 5302.054613
_symmetry_space_group_name_H-M "I M M M"
_symmetry_group_IT_number 71
_symmetry_cell_setting 'orthorhombic'
loop_
_space_group_symop_operation_xyz
x,y,z
-x,-y,z
x,-y,-z
-x,y,-z
-x,-y,-z
x,y,-z
-x,y,z
x,-y,z
1/2+x,1/2+y,1/2+z
1/2-x,1/2-y,1/2+z
1/2+x,1/2-y,1/2-z
1/2-x,1/2+y,1/2-z
1/2-x,1/2-y,1/2-z
1/2+x,1/2+y,1/2-z
1/2-x,1/2+y,1/2+z
1/2+x,1/2-y,1/2+z
loop_
_atom_site_type_symbol
_atom_site_label
_atom_site_fract_x
_atom_site_fract_y
_atom_site_fract_z
Si Si1 0.549978 0.316203 0.330413
Si Si2 0.295659 0.168044 0.668495
Si Si3 0.950524 0.675296 0.333704
Si Si4 0.869119 0.582021 0.332754
Si Si5 0.375613 0.579414 0.671640
Si Si6 0.207969 0.832352 0.168257
O O1 0.555938 0.305034 0.500000
O O2 0.500000 0.336411 0.289499
O O3 0.564771 0.243092 0.257508
O O4 0.581184 0.379170 0.272856
O O5 0.292185 0.151275 0.500000
O O6 0.335231 0.123940 0.734539
O O7 0.250506 0.143710 0.742867
O O8 0.304591 0.250846 0.698675
O O9 0.948209 0.698024 0.500000
O O10 0.918194 0.610085 0.300334
O O11 0.000000 0.651587 0.290893
O O12 0.856554 0.593360 0.500000
O O13 0.867947 0.500000 0.289095
O O14 0.375828 0.576648 0.500000
O O15 0.376292 0.500000 0.736768
O O16 0.332084 0.619777 0.725324
O O17 0.217887 0.845056 0.000000
#
# Coordination Sequence:
#
# PCOD8290456 Si02
#       6
#    16  16  16  16  16  16
#     4   9  17  30  50  75 101 129 162 201 243 286
#     4  10  20  34  53  75  99 128 164 207 250 293
#     4   9  18  33  53  75  98 127 164 203 241 285
#     4  10  21  35  51  73 101 132 164 200 246 298
#     4   9  17  29  47  72 100 130 164 201 241 286
#     4   9  18  33  52  73  98 130 168 207 246 290
#
# _framework density 18.106188
#
# number of rings (size 3 to 8) (size 9 to 14) (size 15 to 20)
#    0.000    2.667    0.000    1.500    0.000    4.333 
#    0.000    5.833    0.000    1.500    0.000    5.833 
#    0.000    0.000    0.000    0.000    0.000    0.000 
#
# Total GULP energy -595260.915319 kJ/mol
# GULP energy per Si atom -12401.269069 kJ/mol
# Density = 1.806498 g / cm^3
# Si number density = 18.106188 Si / 1000 Ang^3
#
#
#
# Elastic Constant Matrix: (Units=GPa)
#
#
# Indices 1 2 3 4 5 6 
#
# 1 128.3156 71.6985 47.2648 0.0000 0.0000 0.0000
# 2 71.6985 102.0174 40.5740 0.0000 0.0000 0.0000
# 3 47.2648 40.5740 50.0250 0.0000 0.0000 0.0000
# 4 0.0000 0.0000 0.0000 22.4599 0.0000 0.0000
# 5 0.0000 0.0000 0.0000 0.0000 20.4742 0.0000
# 6 0.0000 0.0000 0.0000 0.0000 0.0000 17.1738
#
#
#
# Elastic Compliance Matrix: (Units=1/GPa)
#
#
# Indices 1 2 3 4 5 6 
#
# 1 0.014803 -0.007147 -0.008190 0.000000 0.000000 0.000000
# 2 -0.007147 0.017920 -0.007782 0.000000 0.000000 0.000000
# 3 -0.008190 -0.007782 0.034040 0.000000 0.000000 0.000000
# 4 0.000000 0.000000 0.000000 0.044524 0.000000 0.000000
# 5 0.000000 0.000000 0.000000 0.000000 0.048842 0.000000
# 6 0.000000 0.000000 0.000000 0.000000 0.000000 0.058228
#
#
# Mechanical properties :
#
#
# Convention : Reuss Voigt Hill
#
# Bulk Modulus (GPa) = 48.71940 66.60362 57.66151
# Shear Modulus (GPa) = 18.42044 20.07629 19.24837
#
# Velocity S-wave (km/s) = 3.19306 3.33349 3.26403
# Velocity P-wave (km/s) = 6.36869 7.18895 6.79122
#
# Compressibility (1/GPa) = 0.02052570
#
# Stress axis : x y z
#
# Youngs Moduli (GPa) = 67.55220 55.80349 29.37693
#
# Poissons Ratio (x) = 0.39880 0.24060
# Poissons Ratio (y) = 0.48276 0.22862
# Poissons Ratio (z) = 0.55327 0.43428
#
# Static dielectric constant tensor:
#      x y z
#    x 3.516340 0.000000 0.000000 
#    y 0.000000 3.410550 0.000000 
#    z 0.000000 0.000000 3.170040 
# 
# 
# High freq. dielectric constant tensor:
#      x y z
#    x 1.714720 0.000000 0.000000 
#    y 0.000000 1.695880 0.000000 
#    z 0.000000 0.000000 1.679930 
# 
# From -- ./inp_files/14859.got.cif
#   From: 2010.06.25/outbox.cif.g09.slc.cpg/sg71_8_cif.got.tgz:14859.got - 2010.06.28 04:59:45.
