data_PCOD8290185
_publ_section_title
;
Structure prediction by ZEFSAII (Michael W. Deem and Ramdas Pophale) SiO2 
 PCOD8290185
Probable space group: I M M M
;
_chemical_formula_sum "Si O2"
_cell_formula_units_Z 104
_cell_length_a 9.297835
_cell_length_b 19.303408
_cell_length_c 31.522361
_cell_angle_alpha 90.000000
_cell_angle_beta 90.000000
_cell_angle_gamma 90.000000
_cell_volume 5657.630280
_symmetry_space_group_name_H-M "I M M M"
_symmetry_group_IT_number 71
_symmetry_cell_setting 'orthorhombic'
loop_
_space_group_symop_operation_xyz
x,y,z
-x,-y,z
x,-y,-z
-x,y,-z
-x,-y,-z
x,y,-z
-x,y,z
x,-y,z
1/2+x,1/2+y,1/2+z
1/2-x,1/2-y,1/2+z
1/2+x,1/2-y,1/2-z
1/2-x,1/2+y,1/2-z
1/2-x,1/2-y,1/2-z
1/2+x,1/2+y,1/2-z
1/2-x,1/2+y,1/2+z
1/2+x,1/2-y,1/2+z
loop_
_atom_site_type_symbol
_atom_site_label
_atom_site_fract_x
_atom_site_fract_y
_atom_site_fract_z
Si Si1 0.167267 0.578046 0.418052
Si Si2 0.332114 0.212999 0.875161
Si Si3 0.165614 0.420627 0.087209
Si Si4 0.331909 0.304084 0.952722
Si Si5 0.164761 0.922709 0.327452
Si Si6 0.332395 0.280537 0.210441
Si Si7 0.839345 0.082046 0.000000
O O1 0.211794 0.500000 0.404409
O O2 0.200815 0.630566 0.379258
O O3 0.254913 0.606168 0.458302
O O4 0.000000 0.581096 0.430766
O O5 0.500000 0.227731 0.873470
O O6 0.271441 0.251095 0.917197
O O7 0.266749 0.243623 0.831776
O O8 0.183173 0.500000 0.073559
O O9 0.246705 0.375964 0.051878
O O10 0.234698 0.406720 0.132966
O O11 0.000000 0.398488 0.089855
O O12 0.500000 0.319007 0.946443
O O13 0.301953 0.274113 0.000000
O O14 0.194252 0.863651 0.292161
O O15 0.000000 0.917007 0.343170
O O16 0.195607 0.000000 0.308710
O O17 0.500000 0.263326 0.216023
O O18 0.250000 0.250000 0.250000
O O19 0.000000 0.113855 0.000000
O O20 0.846106 0.000000 0.000000
#
# Coordination Sequence:
#
# PCOD8290185 Si02
#       7
#    16  16  16  16  16  16   8
#     4   9  17  30  51  75  98 132 177 217 256 306
#     4   9  18  34  54  76 104 134 170 219 265 304
#     4  10  20  33  51  76 108 142 174 216 266 310
#     4  10  20  34  53  75 101 140 184 220 258 308
#     4   9  17  33  58  81 103 137 180 220 256 304
#     4  10  20  36  57  81 108 137 171 214 265 315
#     4   9  17  29  45  69 103 137 170 211 256 303
#
# _framework density 18.382255000000001
#
# number of rings (size 3 to 8) (size 9 to 14) (size 15 to 20)
#    0.000    2.538    1.538    0.692    1.077    3.077 
#    0.000    3.846    0.000    0.923    0.000    0.000 
#    0.000    0.000    0.000    0.000    0.000    0.000 
#
# Total GULP energy -644568.384534 kJ/mol
# GULP energy per Si atom -12395.545856 kJ/mol
# Density = 1.834042 g / cm^3
# Si number density = 18.382255 Si / 1000 Ang^3
#
#
#
# Elastic Constant Matrix: (Units=GPa)
#
#
# Indices 1 2 3 4 5 6 
#
# 1 55.6794 35.5703 37.0309 0.0000 0.0000 0.0000
# 2 35.5703 117.5435 72.8483 0.0000 0.0000 0.0000
# 3 37.0309 72.8483 127.4191 0.0000 0.0000 0.0000
# 4 0.0000 0.0000 0.0000 28.7152 0.0000 0.0000
# 5 0.0000 0.0000 0.0000 0.0000 25.3129 0.0000
# 6 0.0000 0.0000 0.0000 0.0000 0.0000 18.0208
#
#
#
# Elastic Compliance Matrix: (Units=1/GPa)
#
#
# Indices 1 2 3 4 5 6 
#
# 1 0.023705 -0.004497 -0.004318 0.000000 0.000000 0.000000
# 2 -0.004497 0.014029 -0.006714 0.000000 0.000000 0.000000
# 3 -0.004318 -0.006714 0.012941 0.000000 0.000000 0.000000
# 4 0.000000 0.000000 0.000000 0.034825 0.000000 0.000000
# 5 0.000000 0.000000 0.000000 0.000000 0.039506 0.000000
# 6 0.000000 0.000000 0.000000 0.000000 0.000000 0.055491
#
#
# Mechanical properties :
#
#
# Convention : Reuss Voigt Hill
#
# Bulk Modulus (GPa) = 50.97523 65.72677 58.35100
# Shear Modulus (GPa) = 22.92579 24.75594 23.84087
#
# Velocity S-wave (km/s) = 3.53536 3.67376 3.60523
# Velocity P-wave (km/s) = 6.66753 7.33680 7.01015
#
# Compressibility (1/GPa) = 0.01961737
#
# Stress axis : x y z
#
# Youngs Moduli (GPa) = 42.18558 71.27874 77.27086
#
# Poissons Ratio (x) = 0.32057 0.33365
# Poissons Ratio (y) = 0.18972 0.51879
# Poissons Ratio (z) = 0.18215 0.47856
#
# Static dielectric constant tensor:
#      x y z
#    x 3.305290 0.000000 0.000000 
#    y 0.000000 3.604420 0.000000 
#    z 0.000000 0.000000 3.208020 
# 
# 
# High freq. dielectric constant tensor:
#      x y z
#    x 1.693160 0.000000 0.000000 
#    y 0.000000 1.723000 0.000000 
#    z 0.000000 0.000000 1.684470 
# 
# From -- ./inp_files/68240.got.cif
#   From: 2010.06.25/outbox.cif.g09.slc.cpg/sg71_35_cif.got.tgz:68240.got - 2010.06.28 04:59:45.
