data_PCOD8290815
_publ_section_title
;
Structure prediction by ZEFSAII (Michael W. Deem and Ramdas Pophale) SiO2 
 PCOD8290815
Probable space group: I M M M
;
_chemical_formula_sum "Si O2"
_cell_formula_units_Z 104
_cell_length_a 22.220234
_cell_length_b 8.910429
_cell_length_c 27.533957
_cell_angle_alpha 90.000000
_cell_angle_beta 90.000000
_cell_angle_gamma 90.000000
_cell_volume 5451.498187
_symmetry_space_group_name_H-M "I M M M"
_symmetry_group_IT_number 71
_symmetry_cell_setting 'orthorhombic'
loop_
_space_group_symop_operation_xyz
x,y,z
-x,-y,z
x,-y,-z
-x,y,-z
-x,-y,-z
x,y,-z
-x,y,z
x,-y,z
1/2+x,1/2+y,1/2+z
1/2-x,1/2-y,1/2+z
1/2+x,1/2-y,1/2-z
1/2-x,1/2+y,1/2-z
1/2-x,1/2-y,1/2-z
1/2+x,1/2+y,1/2-z
1/2-x,1/2+y,1/2+z
1/2+x,1/2-y,1/2+z
loop_
_atom_site_type_symbol
_atom_site_label
_atom_site_fract_x
_atom_site_fract_y
_atom_site_fract_z
Si Si1 0.346684 0.327676 0.114915
Si Si2 0.767144 0.321440 0.056465
Si Si3 0.569105 0.322097 0.200631
Si Si4 0.880653 0.821626 0.893691
Si Si5 0.565520 0.836654 0.056660
Si Si6 0.069067 0.676872 0.802861
Si Si7 0.000000 0.822052 0.053593
O O1 0.336406 0.500000 0.124927
O O2 0.283536 0.260596 0.094854
O O3 0.380325 0.258818 0.162510
O O4 0.392662 0.301076 0.071169
O O5 0.773489 0.500000 0.060214
O O6 0.827526 0.242483 0.073665
O O7 0.753177 0.276464 0.000000
O O8 0.500000 0.283492 0.184720
O O9 0.575657 0.500000 0.207295
O O10 0.585411 0.240013 0.250271
O O11 0.883551 0.753024 0.839693
O O12 0.941214 0.764341 0.919164
O O13 0.875054 0.000000 0.890518
O O14 0.500000 0.812897 0.080503
O O15 0.591466 0.000000 0.073467
O O16 0.558669 0.834261 0.000000
O O17 0.079127 0.500000 0.803272
O O18 0.000000 0.719417 0.816152
O O19 0.000000 0.000000 0.051124
O O20 0.000000 0.751684 0.000000
#
# Coordination Sequence:
#
# PCOD8290815 Si02
#       7
#    16  16  16  16  16  16   8
#     4  10  20  35  55  78 106 145 190 234 278 327
#     4  10  22  39  56  78 113 152 188 229 278 331
#     4   9  18  33  55  83 113 143 183 233 281 328
#     4  11  21  36  59  84 112 145 184 228 275 329
#     4   9  18  31  47  71 104 139 177 227 284 337
#     4  10  20  35  57  85 116 146 178 220 278 341
#     4   9  18  32  53  83 113 137 169 219 272 323
#
# _framework density 19.077324999999998
#
# number of rings (size 3 to 8) (size 9 to 14) (size 15 to 20)
#    0.000    2.231    0.769    2.769    0.000    4.615 
#    0.000    3.077    0.000    1.846    0.000    0.000 
#    0.000    0.000    0.000    0.000    0.000    0.000 
#
# Total GULP energy -644280.860953 kJ/mol
# GULP energy per Si atom -12390.016557 kJ/mol
# Density = 1.903390 g / cm^3
# Si number density = 19.077325 Si / 1000 Ang^3
#
#
#
# Elastic Constant Matrix: (Units=GPa)
#
#
# Indices 1 2 3 4 5 6 
#
# 1 111.0491 29.2022 72.0740 0.0000 0.0000 0.0000
# 2 29.2022 29.4084 43.5375 0.0000 0.0000 0.0000
# 3 72.0740 43.5375 125.1863 0.0000 0.0000 0.0000
# 4 0.0000 0.0000 0.0000 28.5295 0.0000 0.0000
# 5 0.0000 0.0000 0.0000 0.0000 25.0032 0.0000
# 6 0.0000 0.0000 0.0000 0.0000 0.0000 23.5892
#
#
#
# Elastic Compliance Matrix: (Units=1/GPa)
#
#
# Indices 1 2 3 4 5 6 
#
# 1 0.014630 -0.004241 -0.006948 0.000000 0.000000 0.000000
# 2 -0.004241 0.071322 -0.022363 0.000000 0.000000 0.000000
# 3 -0.006948 -0.022363 0.019765 0.000000 0.000000 0.000000
# 4 0.000000 0.000000 0.000000 0.035051 0.000000 0.000000
# 5 0.000000 0.000000 0.000000 0.000000 0.039995 0.000000
# 6 0.000000 0.000000 0.000000 0.000000 0.000000 0.042392
#
#
# Mechanical properties :
#
#
# Convention : Reuss Voigt Hill
#
# Bulk Modulus (GPa) = 25.89746 61.69681 43.79714
# Shear Modulus (GPa) = 16.49453 23.47971 19.98712
#
# Velocity S-wave (km/s) = 2.94362 3.51203 3.24032
# Velocity P-wave (km/s) = 5.01574 6.98974 6.08334
#
# Compressibility (1/GPa) = 0.03861382
#
# Stress axis : x y z
#
# Youngs Moduli (GPa) = 68.35451 14.02086 50.59334
#
# Poissons Ratio (x) = 0.05947 0.35151
# Poissons Ratio (y) = 0.28992 1.13140
# Poissons Ratio (z) = 0.47491 0.31354
#
# Static dielectric constant tensor:
#      x y z
#    x 3.619540 0.000000 0.000000 
#    y 0.000000 3.386790 0.000000 
#    z 0.000000 0.000000 3.605750 
# 
# 
# High freq. dielectric constant tensor:
#      x y z
#    x 1.731790 0.000000 0.000000 
#    y 0.000000 1.728240 0.000000 
#    z 0.000000 0.000000 1.747010 
# 
# From -- ./inp_files/50949.got.cif
#   From: 2010.06.25/outbox.cif.g09.slc.cpg/sg71_26_cif.got.tgz:50949.got - 2010.06.28 04:59:45.
