data_PCOD8290295
_publ_section_title
;
Structure prediction by ZEFSAII (Michael W. Deem and Ramdas Pophale) SiO2 
 PCOD8290295
Probable space group: I M M M
;
_chemical_formula_sum "Si O2"
_cell_formula_units_Z 56
_cell_length_a 7.864273
_cell_length_b 9.818138
_cell_length_c 38.973049
_cell_angle_alpha 90.000000
_cell_angle_beta 90.000000
_cell_angle_gamma 90.000000
_cell_volume 3009.207231
_symmetry_space_group_name_H-M "I M M M"
_symmetry_group_IT_number 71
_symmetry_cell_setting 'orthorhombic'
loop_
_space_group_symop_operation_xyz
x,y,z
-x,-y,z
x,-y,-z
-x,y,-z
-x,-y,-z
x,y,-z
-x,y,z
x,-y,z
1/2+x,1/2+y,1/2+z
1/2-x,1/2-y,1/2+z
1/2+x,1/2-y,1/2-z
1/2-x,1/2+y,1/2-z
1/2-x,1/2-y,1/2-z
1/2+x,1/2+y,1/2-z
1/2-x,1/2+y,1/2+z
1/2+x,1/2-y,1/2+z
loop_
_atom_site_type_symbol
_atom_site_label
_atom_site_fract_x
_atom_site_fract_y
_atom_site_fract_z
Si Si1 0.300258 0.648529 0.779557
Si Si2 0.197923 0.158717 0.355621
Si Si3 0.309717 0.343261 0.584789
Si Si4 0.500000 0.838662 0.038200
O O1 0.500000 0.635425 0.782010
O O2 0.222513 0.500000 0.770726
O O3 0.250000 0.750000 0.750000
O O4 0.236544 0.695432 0.817172
O O5 0.303986 0.252634 0.381145
O O6 0.000000 0.193527 0.360110
O O7 0.232365 0.000000 0.363482
O O8 0.500000 0.330320 0.568997
O O9 0.270149 0.500000 0.594590
O O10 0.170574 0.288590 0.557593
O O11 0.500000 0.000000 0.035571
O O12 0.500000 0.774707 0.000000
#
# Coordination Sequence:
#
# PCOD8290295 Si02
#       4
#    16  16  16   8
#     4   9  19  34  50  71 100 134 174 217 261 312
#     4   9  18  34  54  73  99 139 180 218 264 316
#     4  10  20  33  53  82 109 136 176 219 260 312
#     4   9  18  34  55  79 111 145 173 213 267 315
#
# _framework density 18.609552000000001
#
# number of rings (size 3 to 8) (size 9 to 14) (size 15 to 20)
#    0.000    2.714    1.429    1.714    0.000    4.000 
#    0.000   11.429    0.000    1.714    0.000    2.000 
#    0.000    0.000    0.000    0.000    0.000    0.000 
#
# Total GULP energy -347065.934123 kJ/mol
# GULP energy per Si atom -12395.211933 kJ/mol
# Density = 1.856720 g / cm^3
# Si number density = 18.609552 Si / 1000 Ang^3
#
#
#
# Elastic Constant Matrix: (Units=GPa)
#
#
# Indices 1 2 3 4 5 6 
#
# 1 93.4380 30.4639 54.4307 0.0000 0.0000 0.0000
# 2 30.4639 64.1208 62.3835 0.0000 0.0000 0.0000
# 3 54.4307 62.3835 150.3372 0.0000 0.0000 0.0000
# 4 0.0000 0.0000 0.0000 24.1338 0.0000 0.0000
# 5 0.0000 0.0000 0.0000 0.0000 23.7058 0.0000
# 6 0.0000 0.0000 0.0000 0.0000 0.0000 22.3356
#
#
#
# Elastic Compliance Matrix: (Units=1/GPa)
#
#
# Indices 1 2 3 4 5 6 
#
# 1 0.013868 -0.002857 -0.003835 0.000000 0.000000 0.000000
# 2 -0.002857 0.026743 -0.010063 0.000000 0.000000 0.000000
# 3 -0.003835 -0.010063 0.012216 0.000000 0.000000 0.000000
# 4 0.000000 0.000000 0.000000 0.041436 0.000000 0.000000
# 5 0.000000 0.000000 0.000000 0.000000 0.042184 0.000000
# 6 0.000000 0.000000 0.000000 0.000000 0.000000 0.044771
#
#
# Mechanical properties :
#
#
# Convention : Reuss Voigt Hill
#
# Bulk Modulus (GPa) = 51.76964 66.93914 59.35439
# Shear Modulus (GPa) = 22.60727 24.74291 23.67509
#
# Velocity S-wave (km/s) = 3.48921 3.65030 3.57066
# Velocity P-wave (km/s) = 6.64169 7.33585 6.99738
#
# Compressibility (1/GPa) = 0.01931634
#
# Stress axis : x y z
#
# Youngs Moduli (GPa) = 72.10791 37.39273 81.86007
#
# Poissons Ratio (x) = 0.10684 0.31397
# Poissons Ratio (y) = 0.20603 0.82374
# Poissons Ratio (z) = 0.27656 0.37627
#
# Static dielectric constant tensor:
#      x y z
#    x 3.431050 0.000000 0.000000 
#    y 0.000000 3.150000 0.000000 
#    z 0.000000 0.000000 2.097180 
# 
# 
# High freq. dielectric constant tensor:
#      x y z
#    x 1.723580 0.000000 0.000000 
#    y 0.000000 1.701750 0.000000 
#    z 0.000000 0.000000 1.716110 
# 
# From -- ./inp_files/29385.got.cif
#   From: 2010.06.25/outbox.cif.g09.slc.cpg/sg71_15_cif.got.tgz:29385.got - 2010.06.28 04:59:45.
