data_PCOD8290069
_publ_section_title
;
Structure prediction by ZEFSAII (Michael W. Deem and Ramdas Pophale) SiO2 
 PCOD8290069
Probable space group: I M M M
;
_chemical_formula_sum "Si O2"
_cell_formula_units_Z 104
_cell_length_a 8.790441
_cell_length_b 20.149507
_cell_length_c 32.592957
_cell_angle_alpha 90.000000
_cell_angle_beta 90.000000
_cell_angle_gamma 90.000000
_cell_volume 5772.964033
_symmetry_space_group_name_H-M "I M M M"
_symmetry_group_IT_number 71
_symmetry_cell_setting 'orthorhombic'
loop_
_space_group_symop_operation_xyz
x,y,z
-x,-y,z
x,-y,-z
-x,y,-z
-x,-y,-z
x,y,-z
-x,y,z
x,-y,z
1/2+x,1/2+y,1/2+z
1/2-x,1/2-y,1/2+z
1/2+x,1/2-y,1/2-z
1/2-x,1/2+y,1/2-z
1/2-x,1/2-y,1/2-z
1/2+x,1/2+y,1/2-z
1/2-x,1/2+y,1/2+z
1/2+x,1/2-y,1/2+z
loop_
_atom_site_type_symbol
_atom_site_label
_atom_site_fract_x
_atom_site_fract_y
_atom_site_fract_z
Si Si1 0.674108 0.767445 0.455304
Si Si2 0.322705 0.817689 0.835755
Si Si3 0.676060 0.423548 0.181872
Si Si4 0.819526 0.310519 0.867458
Si Si5 0.680577 0.500000 0.455315
Si Si6 0.174682 0.132976 0.914910
Si Si7 0.320948 0.075589 0.231230
O O1 0.750134 0.786387 0.500000
O O2 0.500000 0.789937 0.457553
O O3 0.746264 0.801216 0.414221
O O4 0.686902 0.688126 0.450354
O O5 0.500000 0.804299 0.830130
O O6 0.239391 0.746164 0.835832
O O7 0.289250 0.852182 0.878538
O O8 0.263717 0.868898 0.800940
O O9 0.500000 0.404329 0.179823
O O10 0.704404 0.500000 0.170760
O O11 0.767277 0.381872 0.148120
O O12 0.736138 0.407038 0.226914
O O13 0.000000 0.304532 0.868421
O O14 0.500000 0.500000 0.458846
O O15 0.755537 0.500000 0.500000
O O16 0.737643 0.564410 0.431908
O O17 0.000000 0.129034 0.898936
O O18 0.500000 0.081396 0.238811
O O19 0.280079 0.000000 0.216684
#
# Coordination Sequence:
#
# PCOD8290069 Si02
#       7
#    16  16  16  16   8  16  16
#     4   8  14  27  48  72  97 126 164 208 248 288
#     4  10  20  33  50  72 102 137 172 214 260 303
#     4  10  21  37  57  80 104 131 163 202 252 306
#     4  10  20  34  55  80 105 133 168 208 252 302
#     4   9  16  26  43  67  93 127 175 225 267 305
#     4   9  17  28  44  68  96 130 171 216 261 303
#     4   9  19  35  53  73  99 136 180 216 251 298
#
# _framework density 18.015008999999999
#
# number of rings (size 3 to 8) (size 9 to 14) (size 15 to 20)
#    0.000    2.692    0.000    2.769    1.077    4.615 
#    0.000    0.000    0.000   16.615    0.000    3.231 
#    0.000    0.000    0.000    0.000    0.000    0.000 
#
# Total GULP energy -644424.229686 kJ/mol
# GULP energy per Si atom -12392.773648 kJ/mol
# Density = 1.797401 g / cm^3
# Si number density = 18.015009 Si / 1000 Ang^3
#
#
#
# Elastic Constant Matrix: (Units=GPa)
#
#
# Indices 1 2 3 4 5 6 
#
# 1 40.1222 26.2869 28.3800 0.0000 0.0000 0.0000
# 2 26.2869 95.9626 63.1145 0.0000 0.0000 0.0000
# 3 28.3800 63.1145 103.1841 0.0000 0.0000 0.0000
# 4 0.0000 0.0000 0.0000 20.1736 0.0000 0.0000
# 5 0.0000 0.0000 0.0000 0.0000 19.3928 0.0000
# 6 0.0000 0.0000 0.0000 0.0000 0.0000 23.8805
#
#
#
# Elastic Compliance Matrix: (Units=1/GPa)
#
#
# Indices 1 2 3 4 5 6 
#
# 1 0.032334 -0.005033 -0.005815 0.000000 0.000000 0.000000
# 2 -0.005033 0.018218 -0.009759 0.000000 0.000000 0.000000
# 3 -0.005815 -0.009759 0.017260 0.000000 0.000000 0.000000
# 4 0.000000 0.000000 0.000000 0.049570 0.000000 0.000000
# 5 0.000000 0.000000 0.000000 0.000000 0.051566 0.000000
# 6 0.000000 0.000000 0.000000 0.000000 0.000000 0.041875
#
#
# Mechanical properties :
#
#
# Convention : Reuss Voigt Hill
#
# Bulk Modulus (GPa) = 37.59580 52.75907 45.17744
# Shear Modulus (GPa) = 19.16424 20.78855 19.97639
#
# Velocity S-wave (km/s) = 3.26512 3.40068 3.33359
# Velocity P-wave (km/s) = 5.92699 6.69098 6.32054
#
# Compressibility (1/GPa) = 0.02659871
#
# Stress axis : x y z
#
# Youngs Moduli (GPa) = 30.92687 54.89108 57.93715
#
# Poissons Ratio (x) = 0.27626 0.33690
# Poissons Ratio (y) = 0.15565 0.56541
# Poissons Ratio (z) = 0.17984 0.53569
#
# Static dielectric constant tensor:
#      x y z
#    x 3.084130 0.000000 0.000000 
#    y 0.000000 3.407690 0.000000 
#    z 0.000000 0.000000 3.448400 
# 
# 
# High freq. dielectric constant tensor:
#      x y z
#    x 1.674640 0.000000 0.000000 
#    y 0.000000 1.691830 0.000000 
#    z 0.000000 0.000000 1.696060 
# 
# From -- ./inp_files/68283.got.cif
#   From: 2010.06.25/outbox.cif.g09.slc.cpg/sg71_35_cif.got.tgz:68283.got - 2010.06.28 04:59:45.
