data_PCOD8290756
_publ_section_title
;
Structure prediction by ZEFSAII (Michael W. Deem and Ramdas Pophale) SiO2 
 PCOD8290756
Probable space group: I M M M
;
_chemical_formula_sum "Si O2"
_cell_formula_units_Z 100
_cell_length_a 22.822017
_cell_length_b 7.668627
_cell_length_c 29.371642
_cell_angle_alpha 90.000000
_cell_angle_beta 90.000000
_cell_angle_gamma 90.000000
_cell_volume 5140.434918
_symmetry_space_group_name_H-M "I M M M"
_symmetry_group_IT_number 71
_symmetry_cell_setting 'orthorhombic'
loop_
_space_group_symop_operation_xyz
x,y,z
-x,-y,z
x,-y,-z
-x,y,-z
-x,-y,-z
x,y,-z
-x,y,z
x,-y,z
1/2+x,1/2+y,1/2+z
1/2-x,1/2-y,1/2+z
1/2+x,1/2-y,1/2-z
1/2-x,1/2+y,1/2-z
1/2-x,1/2-y,1/2-z
1/2+x,1/2+y,1/2-z
1/2-x,1/2+y,1/2+z
1/2+x,1/2-y,1/2+z
loop_
_atom_site_type_symbol
_atom_site_label
_atom_site_fract_x
_atom_site_fract_y
_atom_site_fract_z
Si Si1 0.217801 0.797497 0.316787
Si Si2 0.064558 0.294341 0.448647
Si Si3 0.165299 0.704793 0.772206
Si Si4 0.315904 0.301772 0.087064
Si Si5 0.432832 0.798573 0.340945
Si Si6 0.148176 0.000000 0.000000
Si Si7 0.567848 0.500000 0.588175
Si Si8 0.255238 0.210665 0.500000
O O1 0.165520 0.769099 0.280102
O O2 0.278251 0.712890 0.298205
O O3 0.202071 0.708238 0.365374
O O4 0.226400 0.000000 0.325361
O O5 0.072207 0.224434 0.500000
O O6 0.071920 0.500000 0.447761
O O7 0.114021 0.209616 0.417453
O O8 0.000000 0.240679 0.430331
O O9 0.171472 0.500000 0.772141
O O10 0.106053 0.761834 0.797811
O O11 0.296601 0.500000 0.089565
O O12 0.281781 0.222606 0.043783
O O13 0.500000 0.774219 0.325885
O O14 0.417614 0.674870 0.383336
O O15 0.419744 0.000000 0.354848
O O16 0.107610 0.000000 0.044081
O O17 0.184892 0.179825 0.000000
O O18 0.500000 0.500000 0.573428
O O19 0.266782 0.000000 0.500000
#
# Coordination Sequence:
#
# PCOD8290756 Si02
#       8
#    16  16  16  16  16   4   8   8
#     4   9  19  33  51  77 109 144 179 225 287 340
#     4   9  18  32  51  73  98 134 181 232 277 321
#     4   9  18  34  54  80 108 141 183 228 278 342
#     4  10  20  35  53  76 110 148 183 234 289 340
#     4   9  19  37  62  88 115 150 193 238 287 339
#     4  12  27  40  60  94 115 162 198 234 298 350
#     4  10  23  42  62  90 122 155 197 241 285 346
#     4  10  24  41  56  84 121 152 197 245 294 345
#
# _framework density 19.453607000000002
#
# number of rings (size 3 to 8) (size 9 to 14) (size 15 to 20)
#    0.000    2.560    0.800    0.600    4.480    1.600 
#    0.000    1.600    0.000    5.280    0.000    0.000 
#    0.000    0.000    0.000    0.000    0.000    0.000 
#
# Total GULP energy -619713.851693 kJ/mol
# GULP energy per Si atom -12394.277034 kJ/mol
# Density = 1.940933 g / cm^3
# Si number density = 19.453607 Si / 1000 Ang^3
#
#
#
# Elastic Constant Matrix: (Units=GPa)
#
#
# Indices 1 2 3 4 5 6 
#
# 1 117.0623 31.0245 90.7325 0.0000 0.0000 0.0000
# 2 31.0245 51.4241 31.7497 0.0000 0.0000 0.0000
# 3 90.7325 31.7497 182.6014 0.0000 0.0000 0.0000
# 4 0.0000 0.0000 0.0000 18.9000 0.0000 0.0000
# 5 0.0000 0.0000 0.0000 0.0000 20.7197 0.0000
# 6 0.0000 0.0000 0.0000 0.0000 0.0000 26.9043
#
#
#
# Elastic Compliance Matrix: (Units=1/GPa)
#
#
# Indices 1 2 3 4 5 6 
#
# 1 0.014945 -0.004964 -0.006563 0.000000 0.000000 0.000000
# 2 -0.004964 0.023434 -0.001608 0.000000 0.000000 0.000000
# 3 -0.006563 -0.001608 0.009017 0.000000 0.000000 0.000000
# 4 0.000000 0.000000 0.000000 0.052910 0.000000 0.000000
# 5 0.000000 0.000000 0.000000 0.000000 0.048263 0.000000
# 6 0.000000 0.000000 0.000000 0.000000 0.000000 0.037169
#
#
# Mechanical properties :
#
#
# Convention : Reuss Voigt Hill
#
# Bulk Modulus (GPa) = 47.33567 73.12236 60.22901
# Shear Modulus (GPa) = 22.82590 26.47686 24.65138
#
# Velocity S-wave (km/s) = 3.42914 3.69321 3.56362
# Velocity P-wave (km/s) = 6.32962 7.47369 6.92532
#
# Compressibility (1/GPa) = 0.02112572
#
# Stress axis : x y z
#
# Youngs Moduli (GPa) = 66.91319 42.67331 110.90302
#
# Poissons Ratio (x) = 0.21185 0.72782
# Poissons Ratio (y) = 0.33218 0.17831
# Poissons Ratio (z) = 0.43913 0.06861
#
# Static dielectric constant tensor:
#      x y z
#    x 3.698820 0.000000 0.000000 
#    y 0.000000 3.420150 0.000000 
#    z 0.000000 0.000000 3.764170 
# 
# 
# High freq. dielectric constant tensor:
#      x y z
#    x 1.753160 0.000000 0.000000 
#    y 0.000000 1.751250 0.000000 
#    z 0.000000 0.000000 1.749620 
# 
# From -- ./inp_files/70809.got.cif
#   From: 2010.06.25/outbox.cif.g09.slc.cpg/sg71_36_cif.got.tgz:70809.got - 2010.06.28 04:59:45.
