data_PCOD8290305
_publ_section_title
;
Structure prediction by ZEFSAII (Michael W. Deem and Ramdas Pophale) SiO2 
 PCOD8290305
Probable space group: I M M M
;
_chemical_formula_sum "Si O2"
_cell_formula_units_Z 112
_cell_length_a 25.270120
_cell_length_b 15.732754
_cell_length_c 13.814102
_cell_angle_alpha 90.000000
_cell_angle_beta 90.000000
_cell_angle_gamma 90.000000
_cell_volume 5492.052937
_symmetry_space_group_name_H-M "I M M M"
_symmetry_group_IT_number 71
_symmetry_cell_setting 'orthorhombic'
loop_
_space_group_symop_operation_xyz
x,y,z
-x,-y,z
x,-y,-z
-x,y,-z
-x,-y,-z
x,y,-z
-x,y,z
x,-y,z
1/2+x,1/2+y,1/2+z
1/2-x,1/2-y,1/2+z
1/2+x,1/2-y,1/2-z
1/2-x,1/2+y,1/2-z
1/2-x,1/2-y,1/2-z
1/2+x,1/2+y,1/2-z
1/2-x,1/2+y,1/2+z
1/2+x,1/2-y,1/2+z
loop_
_atom_site_type_symbol
_atom_site_label
_atom_site_fract_x
_atom_site_fract_y
_atom_site_fract_z
Si Si1 0.797601 0.125424 0.608865
Si Si2 0.237626 0.315536 0.391620
Si Si3 0.149659 0.252915 0.114170
Si Si4 0.084246 0.905012 0.613232
Si Si5 0.803731 0.591553 0.214928
Si Si6 0.559204 0.250990 0.760701
Si Si7 0.437274 0.904325 0.891461
O O1 0.789313 0.093003 0.500000
O O2 0.791481 0.226165 0.615213
O O3 0.855021 0.099455 0.646587
O O4 0.755128 0.079008 0.674535
O O5 0.236133 0.352598 0.500000
O O6 0.299217 0.304889 0.358087
O O7 0.203117 0.376402 0.324591
O O8 0.162132 0.349314 0.144582
O O9 0.097357 0.223698 0.171546
O O10 0.138336 0.249106 0.000000
O O11 0.078081 0.884920 0.500000
O O12 0.052603 0.832555 0.669961
O O13 0.062362 0.000000 0.636644
O O14 0.832115 0.500000 0.218178
O O15 0.500000 0.229843 0.721918
O O16 0.583782 0.168505 0.817543
O O17 0.500000 0.897385 0.894657
O O18 0.420532 0.000000 0.857788
O O19 0.415062 0.886658 0.000000
#
# Coordination Sequence:
#
# PCOD8290305 Si02
#       7
#    16  16  16  16  16  16  16
#     4   9  17  31  52  76 105 143 181 213 253 316
#     4   9  18  34  55  78 108 143 174 209 260 326
#     4  10  22  39  56  76 105 143 188 233 274 317
#     4  10  20  33  53  85 121 149 175 216 273 338
#     4  11  20  31  54  84 112 140 170 212 270 334
#     4  11  22  36  56  78 104 145 195 241 282 323
#     4   8  15  30  52  76 100 128 169 223 280 336
#
# _framework density 20.393101999999999
#
# number of rings (size 3 to 8) (size 9 to 14) (size 15 to 20)
#    0.000    2.286    0.000    6.000    0.000    4.000 
#    0.000    1.429    0.000    1.286    0.000    4.000 
#    0.000    0.000    0.000    0.000    0.000    0.000 
#
# Total GULP energy -694177.983370 kJ/mol
# GULP energy per Si atom -12396.035417 kJ/mol
# Density = 2.034669 g / cm^3
# Si number density = 20.393102 Si / 1000 Ang^3
#
#
#
# Elastic Constant Matrix: (Units=GPa)
#
#
# Indices 1 2 3 4 5 6 
#
# 1 46.5457 8.9544 18.7131 0.0000 0.0000 0.0000
# 2 8.9544 84.8564 24.8864 0.0000 0.0000 0.0000
# 3 18.7131 24.8864 75.5184 0.0000 0.0000 0.0000
# 4 0.0000 0.0000 0.0000 2.8513 0.0000 0.0000
# 5 0.0000 0.0000 0.0000 0.0000 27.0301 0.0000
# 6 0.0000 0.0000 0.0000 0.0000 0.0000 -55.3099
#
#
#
# Elastic Compliance Matrix: (Units=1/GPa)
#
#
# Indices 1 2 3 4 5 6 
#
# 1 0.023919 -0.000870 -0.005640 0.000000 0.000000 0.000000
# 2 -0.000870 0.013077 -0.004094 0.000000 0.000000 0.000000
# 3 -0.005640 -0.004094 0.015989 0.000000 0.000000 0.000000
# 4 0.000000 0.000000 0.000000 0.350719 0.000000 0.000000
# 5 0.000000 0.000000 0.000000 0.000000 0.036996 0.000000
# 6 0.000000 0.000000 0.000000 0.000000 0.000000 -0.018080
#
#
# Mechanical properties :
#
#
# Convention : Reuss Voigt Hill
#
# Bulk Modulus (GPa) = 31.46973 34.66982 33.06978
# Shear Modulus (GPa) = 11.00302 5.20541 8.10422
#
# Velocity S-wave (km/s) = 2.32533 1.59940 1.99565
# Velocity P-wave (km/s) = 4.76179 4.52199 4.64344
#
# Compressibility (1/GPa) = 0.03177656
#
# Stress axis : x y z
#
# Youngs Moduli (GPa) = 41.80729 76.46987 62.54468
#
# Poissons Ratio (x) = 0.06652 0.35278
# Poissons Ratio (y) = 0.03637 0.25605
# Poissons Ratio (z) = 0.23581 0.31306
#
# Static dielectric constant tensor:
#      x y z
#    x 3.542710 0.000000 0.000000 
#    y 0.000000 3.716150 0.000000 
#    z 0.000000 0.000000 3.687820 
# 
# 
# High freq. dielectric constant tensor:
#      x y z
#    x 1.786690 0.000000 0.000000 
#    y 0.000000 1.789640 0.000000 
#    z 0.000000 0.000000 1.783030 
# 
# From -- ./inp_files/34855.got.cif
#   From: 2010.06.25/outbox.cif.g09.slc.cpg/sg71_18_cif.got.tgz:34855.got - 2010.06.28 04:59:45.
