data_PCOD8290174
_publ_section_title
;
Structure prediction by ZEFSAII (Michael W. Deem and Ramdas Pophale) SiO2 
 PCOD8290174
Probable space group: I M M M
;
_chemical_formula_sum "Si O2"
_cell_formula_units_Z 72
_cell_length_a 12.900174
_cell_length_b 9.247984
_cell_length_c 32.299486
_cell_angle_alpha 90.000000
_cell_angle_beta 90.000000
_cell_angle_gamma 90.000000
_cell_volume 3853.348148
_symmetry_space_group_name_H-M "I M M M"
_symmetry_group_IT_number 71
_symmetry_cell_setting 'orthorhombic'
loop_
_space_group_symop_operation_xyz
x,y,z
-x,-y,z
x,-y,-z
-x,y,-z
-x,-y,-z
x,y,-z
-x,y,z
x,-y,z
1/2+x,1/2+y,1/2+z
1/2-x,1/2-y,1/2+z
1/2+x,1/2-y,1/2-z
1/2-x,1/2+y,1/2-z
1/2-x,1/2-y,1/2-z
1/2+x,1/2+y,1/2-z
1/2-x,1/2+y,1/2+z
1/2+x,1/2-y,1/2+z
loop_
_atom_site_type_symbol
_atom_site_label
_atom_site_fract_x
_atom_site_fract_y
_atom_site_fract_z
Si Si1 0.179267 0.668595 0.809639
Si Si2 0.882569 0.166815 0.108708
Si Si3 0.500000 0.335908 0.049247
Si Si4 0.701589 0.168574 0.952370
Si Si5 0.113618 0.836133 0.268839
O O1 0.155044 0.500000 0.812609
O O2 0.138791 0.740906 0.850872
O O3 0.119059 0.731006 0.770287
O O4 0.301808 0.702261 0.803819
O O5 0.804401 0.214686 0.072470
O O6 0.000000 0.194539 0.093169
O O7 0.865675 0.000000 0.120341
O O8 0.500000 0.500000 0.065783
O O9 0.396763 0.256143 0.065694
O O10 0.500000 0.329158 0.000000
O O11 0.676144 0.000000 0.947306
O O12 0.722857 0.208840 0.000000
O O13 0.000000 0.819101 0.289250
O O14 0.132241 0.000000 0.252932
#
# Coordination Sequence:
#
# PCOD8290174 Si02
#       5
#    16  16   8  16  16
#     4  10  20  33  51  76 104 134 172 214 258 311
#     4  10  21  36  53  75 106 141 176 216 264 314
#     4   9  17  31  53  79 105 133 167 209 261 317
#     4   9  18  34  56  79 104 137 178 220 260 307
#     4   9  18  34  54  73  98 133 171 212 259 309
#
# _framework density 18.68505
#
# number of rings (size 3 to 8) (size 9 to 14) (size 15 to 20)
#    0.000    2.556    0.000    1.667    0.000    7.111 
#    2.000    2.222    0.000    0.000    0.000    4.667 
#    0.000    0.000    0.000    0.000    0.000    0.000 
#
# Total GULP energy -446380.442582 kJ/mol
# GULP energy per Si atom -12399.456738 kJ/mol
# Density = 1.864252 g / cm^3
# Si number density = 18.685050 Si / 1000 Ang^3
#
#
#
# Elastic Constant Matrix: (Units=GPa)
#
#
# Indices 1 2 3 4 5 6 
#
# 1 159.5987 54.0303 42.0449 0.0000 0.0000 0.0000
# 2 54.0303 74.7643 31.4338 0.0000 0.0000 0.0000
# 3 42.0449 31.4338 53.0259 0.0000 0.0000 0.0000
# 4 0.0000 0.0000 0.0000 13.1337 0.0000 0.0000
# 5 0.0000 0.0000 0.0000 0.0000 9.6898 0.0000
# 6 0.0000 0.0000 0.0000 0.0000 0.0000 23.8025
#
#
#
# Elastic Compliance Matrix: (Units=1/GPa)
#
#
# Indices 1 2 3 4 5 6 
#
# 1 0.008995 -0.004665 -0.004367 0.000000 0.000000 0.000000
# 2 -0.004665 0.020234 -0.008296 0.000000 0.000000 0.000000
# 3 -0.004367 -0.008296 0.027240 0.000000 0.000000 0.000000
# 4 0.000000 0.000000 0.000000 0.076140 0.000000 0.000000
# 5 0.000000 0.000000 0.000000 0.000000 0.103201 0.000000
# 6 0.000000 0.000000 0.000000 0.000000 0.000000 0.042012
#
#
# Mechanical properties :
#
#
# Convention : Reuss Voigt Hill
#
# Bulk Modulus (GPa) = 45.84443 60.26741 53.05592
# Shear Modulus (GPa) = 15.63716 19.98386 17.81051
#
# Velocity S-wave (km/s) = 2.89603 3.27389 3.09074
# Velocity P-wave (km/s) = 5.98091 6.82755 6.41821
#
# Compressibility (1/GPa) = 0.02181290
#
# Stress axis : x y z
#
# Youngs Moduli (GPa) = 111.16806 49.42069 36.71096
#
# Poissons Ratio (x) = 0.23052 0.16033
# Poissons Ratio (y) = 0.51854 0.30457
# Poissons Ratio (z) = 0.48552 0.41002
#
# Static dielectric constant tensor:
#      x y z
#    x 3.752930 0.000000 0.000000 
#    y 0.000000 3.488880 0.000000 
#    z 0.000000 0.000000 3.159030 
# 
# 
# High freq. dielectric constant tensor:
#      x y z
#    x 1.743340 0.000000 0.000000 
#    y 0.000000 1.726310 0.000000 
#    z 0.000000 0.000000 1.693760 
# 
# From -- ./inp_files/65155.got.cif
#   From: 2010.06.25/outbox.cif.g09.slc.cpg/sg71_33_cif.got.tgz:65155.got - 2010.06.28 04:59:45.
