data_PCOD8290291
_publ_section_title
;
Structure prediction by ZEFSAII (Michael W. Deem and Ramdas Pophale) SiO2 
 PCOD8290291
Probable space group: I M M M
;
_chemical_formula_sum "Si O2"
_cell_formula_units_Z 88
_cell_length_a 8.818156
_cell_length_b 17.883475
_cell_length_c 30.724986
_cell_angle_alpha 90.000000
_cell_angle_beta 90.000000
_cell_angle_gamma 90.000000
_cell_volume 4845.307936
_symmetry_space_group_name_H-M "I M M M"
_symmetry_group_IT_number 71
_symmetry_cell_setting 'orthorhombic'
loop_
_space_group_symop_operation_xyz
x,y,z
-x,-y,z
x,-y,-z
-x,y,-z
-x,-y,-z
x,y,-z
-x,y,z
x,-y,z
1/2+x,1/2+y,1/2+z
1/2-x,1/2-y,1/2+z
1/2+x,1/2-y,1/2-z
1/2-x,1/2+y,1/2-z
1/2-x,1/2-y,1/2-z
1/2+x,1/2+y,1/2-z
1/2-x,1/2+y,1/2+z
1/2+x,1/2-y,1/2+z
loop_
_atom_site_type_symbol
_atom_site_label
_atom_site_fract_x
_atom_site_fract_y
_atom_site_fract_z
Si Si1 0.177366 0.412775 0.049424
Si Si2 0.678527 0.419041 0.331188
Si Si3 0.819139 0.238176 0.796810
Si Si4 0.323965 0.857464 0.910966
Si Si5 0.677009 0.305905 0.879117
Si Si6 0.819787 0.582590 0.500000
O O1 0.213153 0.500000 0.056133
O O2 0.261659 0.369624 0.088470
O O3 0.000000 0.396693 0.054186
O O4 0.229939 0.389297 0.000000
O O5 0.500000 0.415847 0.329911
O O6 0.733369 0.500000 0.311719
O O7 0.742285 0.345803 0.306931
O O8 0.733549 0.414247 0.380562
O O9 0.750000 0.250000 0.750000
O O10 0.758048 0.299926 0.831615
O O11 0.000000 0.243709 0.795993
O O12 0.500000 0.876271 0.905383
O O13 0.288316 0.771547 0.902496
O O14 0.260917 0.871978 0.958803
O O15 0.500000 0.320745 0.870982
O O16 0.749473 0.500000 0.500000
O O17 0.000000 0.578306 0.500000
#
# Coordination Sequence:
#
# PCOD8290291 Si02
#       6
#    16  16  16  16  16   8
#     4   9  19  36  56  78 107 144 184 226 274 328
#     4   9  18  33  52  73  98 128 163 206 255 303
#     4  10  20  36  57  78 105 137 174 220 272 327
#     4   9  18  30  46  69  98 133 171 207 243 290
#     4  10  20  33  53  79 106 137 176 219 265 318
#     4   9  16  26  41  63  94 131 166 200 239 277
#
# _framework density 18.161899999999999
#
# number of rings (size 3 to 8) (size 9 to 14) (size 15 to 20)
#    0.000    2.636    0.000    2.182    1.273    3.273 
#    0.000    2.273    0.000    4.909    0.000    0.000 
#    0.000    0.000    0.000    0.000    0.000    0.000 
#
# Total GULP energy -545172.584821 kJ/mol
# GULP energy per Si atom -12390.286019 kJ/mol
# Density = 1.812056 g / cm^3
# Si number density = 18.161900 Si / 1000 Ang^3
#
#
#
# Elastic Constant Matrix: (Units=GPa)
#
#
# Indices 1 2 3 4 5 6 
#
# 1 40.8221 34.7160 38.7621 0.0000 0.0000 0.0000
# 2 34.7160 89.8023 60.6703 0.0000 0.0000 0.0000
# 3 38.7621 60.6703 156.1639 0.0000 0.0000 0.0000
# 4 0.0000 0.0000 0.0000 13.6146 0.0000 0.0000
# 5 0.0000 0.0000 0.0000 0.0000 30.6593 0.0000
# 6 0.0000 0.0000 0.0000 0.0000 0.0000 23.1519
#
#
#
# Elastic Compliance Matrix: (Units=1/GPa)
#
#
# Indices 1 2 3 4 5 6 
#
# 1 0.039421 -0.011700 -0.005240 0.000000 0.000000 0.000000
# 2 -0.011700 0.018571 -0.004311 0.000000 0.000000 0.000000
# 3 -0.005240 -0.004311 0.009379 0.000000 0.000000 0.000000
# 4 0.000000 0.000000 0.000000 0.073451 0.000000 0.000000
# 5 0.000000 0.000000 0.000000 0.000000 0.032617 0.000000
# 6 0.000000 0.000000 0.000000 0.000000 0.000000 0.043193
#
#
# Mechanical properties :
#
#
# Convention : Reuss Voigt Hill
#
# Bulk Modulus (GPa) = 40.20778 61.67614 50.94196
# Shear Modulus (GPa) = 18.69704 23.66114 21.17909
#
# Velocity S-wave (km/s) = 3.21201 3.61333 3.41857
# Velocity P-wave (km/s) = 5.99521 7.17224 6.60998
#
# Compressibility (1/GPa) = 0.02487081
#
# Stress axis : x y z
#
# Youngs Moduli (GPa) = 25.36692 53.84770 106.62318
#
# Poissons Ratio (x) = 0.63001 0.55866
# Poissons Ratio (y) = 0.29679 0.45963
# Poissons Ratio (z) = 0.13291 0.23213
#
# Static dielectric constant tensor:
#      x y z
#    x 3.235210 0.000000 0.000000 
#    y 0.000000 3.756200 0.000000 
#    z 0.000000 0.000000 3.674660 
# 
# 
# High freq. dielectric constant tensor:
#      x y z
#    x 1.693030 0.000000 0.000000 
#    y 0.000000 1.704170 0.000000 
#    z 0.000000 0.000000 1.702280 
# 
# From -- ./inp_files/8858.got.cif
#   From: 2010.06.25/outbox.cif.g09.slc.cpg/sg71_5_cif.got.tgz:8858.got - 2010.06.28 04:59:45.
