data_PCOD8290739
_publ_section_title
;
Structure prediction by ZEFSAII (Michael W. Deem and Ramdas Pophale) SiO2 
 PCOD8290739
Probable space group: I M M M
;
_chemical_formula_sum "Si O2"
_cell_formula_units_Z 100
_cell_length_a 26.270818
_cell_length_b 8.887598
_cell_length_c 22.157754
_cell_angle_alpha 90.000000
_cell_angle_beta 90.000000
_cell_angle_gamma 90.000000
_cell_volume 5173.491438
_symmetry_space_group_name_H-M "I M M M"
_symmetry_group_IT_number 71
_symmetry_cell_setting 'orthorhombic'
loop_
_space_group_symop_operation_xyz
x,y,z
-x,-y,z
x,-y,-z
-x,y,-z
-x,-y,-z
x,y,-z
-x,y,z
x,-y,z
1/2+x,1/2+y,1/2+z
1/2-x,1/2-y,1/2+z
1/2+x,1/2-y,1/2-z
1/2-x,1/2+y,1/2-z
1/2-x,1/2-y,1/2-z
1/2+x,1/2+y,1/2-z
1/2-x,1/2+y,1/2+z
1/2+x,1/2-y,1/2+z
loop_
_atom_site_type_symbol
_atom_site_label
_atom_site_fract_x
_atom_site_fract_y
_atom_site_fract_z
Si Si1 0.118240 0.336912 0.000000
Si Si2 0.877855 0.677429 0.323959
Si Si3 0.085727 0.169299 0.205067
Si Si4 0.261863 0.822841 0.813729
Si Si5 0.829720 0.832014 0.890133
Si Si6 0.500000 0.213446 0.500000
Si Si7 0.500000 0.820156 0.630227
Si Si8 0.056594 0.321296 0.566231
O O1 0.139678 0.258678 0.059669
O O2 0.143200 0.500000 0.000000
O O3 0.056720 0.360675 0.000000
O O4 0.885439 0.500000 0.313007
O O5 0.905896 0.765167 0.270940
O O6 0.819057 0.720163 0.331129
O O7 0.903706 0.738375 0.384840
O O8 0.139289 0.166781 0.171840
O O9 0.048961 0.280489 0.168878
O O10 0.062848 0.000000 0.208990
O O11 0.250000 0.750000 0.750000
O O12 0.225016 0.764716 0.868536
O O13 0.253716 0.000000 0.806609
O O14 0.823021 0.000000 0.916267
O O15 0.500000 0.283802 0.567831
O O16 0.500000 0.000000 0.613301
O O17 0.072687 0.261241 0.500000
O O18 0.056812 0.500000 0.565957
O O19 0.000000 0.263207 0.582516
#
# Coordination Sequence:
#
# PCOD8290739 Si02
#       8
#     8  16  16  16  16   4   8  16
#     4  12  24  41  62  85 110 147 199 250 294 349
#     4  10  20  34  58  89 113 146 193 236 282 336
#     4  11  23  38  56  84 118 151 189 236 290 348
#     4  10  20  36  57  82 112 148 190 234 284 342
#     4  10  22  40  57  79 114 154 192 238 294 350
#     4  12  25  40  61  86 113 146 191 246 299 334
#     4  12  24  41  60  83 117 154 194 244 287 338
#     4   8  15  30  52  80 113 142 174 222 275 329
#
# _framework density 19.329305999999999
#
# number of rings (size 3 to 8) (size 9 to 14) (size 15 to 20)
#    0.000    1.760    3.200    2.160    1.120    1.280 
#    1.440    1.600    0.000    0.480    0.000    1.120 
#    0.000    0.000    0.000    0.000    0.000    0.000 
#
# Total GULP energy -619408.305091 kJ/mol
# GULP energy per Si atom -12388.166102 kJ/mol
# Density = 1.928531 g / cm^3
# Si number density = 19.329306 Si / 1000 Ang^3
#
#
#
# Elastic Constant Matrix: (Units=GPa)
#
#
# Indices 1 2 3 4 5 6 
#
# 1 133.9027 32.9728 89.3430 0.0000 0.0000 0.0000
# 2 32.9728 54.7325 40.2915 0.0000 0.0000 0.0000
# 3 89.3430 40.2915 158.4112 0.0000 0.0000 0.0000
# 4 0.0000 0.0000 0.0000 21.3270 0.0000 0.0000
# 5 0.0000 0.0000 0.0000 0.0000 33.0353 0.0000
# 6 0.0000 0.0000 0.0000 0.0000 0.0000 10.1849
#
#
#
# Elastic Compliance Matrix: (Units=1/GPa)
#
#
# Indices 1 2 3 4 5 6 
#
# 1 0.012322 -0.002839 -0.006228 0.000000 0.000000 0.000000
# 2 -0.002839 0.023134 -0.004283 0.000000 0.000000 0.000000
# 3 -0.006228 -0.004283 0.010914 0.000000 0.000000 0.000000
# 4 0.000000 0.000000 0.000000 0.046889 0.000000 0.000000
# 5 0.000000 0.000000 0.000000 0.000000 0.030271 0.000000
# 6 0.000000 0.000000 0.000000 0.000000 0.000000 0.098185
#
#
# Mechanical properties :
#
#
# Convention : Reuss Voigt Hill
#
# Bulk Modulus (GPa) = 50.83464 74.69567 62.76516
# Shear Modulus (GPa) = 19.61004 25.20536 22.40770
#
# Velocity S-wave (km/s) = 3.18861 3.61501 3.40849
# Velocity P-wave (km/s) = 6.31765 7.49346 6.93054
#
# Compressibility (1/GPa) = 0.01967162
#
# Stress axis : x y z
#
# Youngs Moduli (GPa) = 81.15255 43.22675 91.62184
#
# Poissons Ratio (x) = 0.12272 0.57060
# Poissons Ratio (y) = 0.23039 0.39241
# Poissons Ratio (z) = 0.50540 0.18513
#
# Static dielectric constant tensor:
#      x y z
#    x 4.030390 0.000000 0.000000 
#    y 0.000000 3.310480 0.000000 
#    z 0.000000 0.000000 3.719750 
# 
# 
# High freq. dielectric constant tensor:
#      x y z
#    x 1.762440 0.000000 0.000000 
#    y 0.000000 1.720650 0.000000 
#    z 0.000000 0.000000 1.760230 
# 
# From -- ./inp_files/56318.got.cif
#   From: 2010.06.25/outbox.cif.g09.slc.cpg/sg71_29_cif.got.tgz:56318.got - 2010.06.28 04:59:45.
