data_PCOD8290509
_publ_section_title
;
Structure prediction by ZEFSAII (Michael W. Deem and Ramdas Pophale) SiO2 
 PCOD8290509
Probable space group: I M M M
;
_chemical_formula_sum "Si O2"
_cell_formula_units_Z 104
_cell_length_a 27.101296
_cell_length_b 23.713976
_cell_length_c 8.220522
_cell_angle_alpha 90.000000
_cell_angle_beta 90.000000
_cell_angle_gamma 90.000000
_cell_volume 5283.160828
_symmetry_space_group_name_H-M "I M M M"
_symmetry_group_IT_number 71
_symmetry_cell_setting 'orthorhombic'
loop_
_space_group_symop_operation_xyz
x,y,z
-x,-y,z
x,-y,-z
-x,y,-z
-x,-y,-z
x,y,-z
-x,y,z
x,-y,z
1/2+x,1/2+y,1/2+z
1/2-x,1/2-y,1/2+z
1/2+x,1/2-y,1/2-z
1/2-x,1/2+y,1/2-z
1/2-x,1/2-y,1/2-z
1/2+x,1/2+y,1/2-z
1/2-x,1/2+y,1/2+z
1/2+x,1/2-y,1/2+z
loop_
_atom_site_type_symbol
_atom_site_label
_atom_site_fract_x
_atom_site_fract_y
_atom_site_fract_z
Si Si1 0.388489 0.565652 0.181382
Si Si2 0.704564 0.847763 0.185395
Si Si3 0.871929 0.437351 0.691455
Si Si4 0.444517 0.158464 0.807628
Si Si5 0.634592 0.241789 0.685838
Si Si6 0.445358 0.567086 0.500000
Si Si7 0.309909 0.345190 0.180969
O O1 0.379377 0.500000 0.205600
O O2 0.420863 0.589245 0.331980
O O3 0.335061 0.593970 0.191635
O O4 0.412091 0.577556 0.000000
O O5 0.681021 0.908533 0.233174
O O6 0.680926 0.800159 0.298427
O O7 0.763356 0.846407 0.199660
O O8 0.689830 0.833568 0.000000
O O9 0.878424 0.443579 0.500000
O O10 0.874421 0.500000 0.771566
O O11 0.915651 0.396938 0.760112
O O12 0.500000 0.159625 0.734364
O O13 0.415274 0.215009 0.758832
O O14 0.446848 0.155642 0.000000
O O15 0.624713 0.256104 0.500000
O O16 0.648443 0.299580 0.774957
O O17 0.446022 0.500000 0.500000
O O18 0.500000 0.592305 0.500000
O O19 0.290146 0.332824 0.000000
#
# Coordination Sequence:
#
# PCOD8290509 Si02
#       7
#    16  16  16  16  16   8  16
#     4   9  20  37  56  82 115 146 179 224 278 336
#     4  10  20  34  53  78 109 144 183 225 274 328
#     4   8  15  29  50  80 114 144 181 226 268 318
#     4   9  18  34  56  80 109 145 183 228 282 332
#     4  11  22  36  55  77 105 139 184 233 275 328
#     4   9  18  34  58  82 106 140 180 222 264 318
#     4  11  22  36  56  79 108 143 180 223 276 333
#
# _framework density 19.685186000000002
#
# number of rings (size 3 to 8) (size 9 to 14) (size 15 to 20)
#    0.000    2.385    0.000    3.692    2.154    1.538 
#    0.000    3.846    0.000   12.000    0.000    4.308 
#    0.000    0.000    0.000    0.000    0.000    0.000 
#
# Total GULP energy -644549.104420 kJ/mol
# GULP energy per Si atom -12395.175085 kJ/mol
# Density = 1.964038 g / cm^3
# Si number density = 19.685186 Si / 1000 Ang^3
#
#
#
# Elastic Constant Matrix: (Units=GPa)
#
#
# Indices 1 2 3 4 5 6 
#
# 1 121.8952 55.4581 25.4442 0.0000 0.0000 0.0000
# 2 55.4581 76.1228 18.1657 0.0000 0.0000 0.0000
# 3 25.4442 18.1657 75.8911 0.0000 0.0000 0.0000
# 4 0.0000 0.0000 0.0000 16.4393 0.0000 0.0000
# 5 0.0000 0.0000 0.0000 0.0000 25.6314 0.0000
# 6 0.0000 0.0000 0.0000 0.0000 0.0000 20.0108
#
#
#
# Elastic Compliance Matrix: (Units=1/GPa)
#
#
# Indices 1 2 3 4 5 6 
#
# 1 0.012593 -0.008662 -0.002149 0.000000 0.000000 0.000000
# 2 -0.008662 0.019890 -0.001857 0.000000 0.000000 0.000000
# 3 -0.002149 -0.001857 0.014342 0.000000 0.000000 0.000000
# 4 0.000000 0.000000 0.000000 0.060830 0.000000 0.000000
# 5 0.000000 0.000000 0.000000 0.000000 0.039015 0.000000
# 6 0.000000 0.000000 0.000000 0.000000 0.000000 0.049973
#
#
# Mechanical properties :
#
#
# Convention : Reuss Voigt Hill
#
# Bulk Modulus (GPa) = 46.53336 52.44948 49.49142
# Shear Modulus (GPa) = 21.82066 24.07238 22.94652
#
# Velocity S-wave (km/s) = 3.33300 3.50075 3.41790
# Velocity P-wave (km/s) = 6.20499 6.56066 6.38530
#
# Compressibility (1/GPa) = 0.02148996
#
# Stress axis : x y z
#
# Youngs Moduli (GPa) = 79.40864 50.27609 69.72674
#
# Poissons Ratio (x) = 0.43548 0.14983
# Poissons Ratio (y) = 0.68782 0.12948
# Poissons Ratio (z) = 0.17063 0.09336
#
# Static dielectric constant tensor:
#      x y z
#    x 3.604990 0.000000 0.000000 
#    y 0.000000 3.648290 0.000000 
#    z 0.000000 0.000000 3.568320 
# 
# 
# High freq. dielectric constant tensor:
#      x y z
#    x 1.755570 0.000000 0.000000 
#    y 0.000000 1.760150 0.000000 
#    z 0.000000 0.000000 1.761160 
# 
# From -- ./inp_files/14994.got.cif
#   From: 2010.06.25/outbox.cif.g09.slc.cpg/sg71_8_cif.got.tgz:14994.got - 2010.06.28 04:59:45.
