data_PCOD8290882
_publ_section_title
;
Structure prediction by ZEFSAII (Michael W. Deem and Ramdas Pophale) SiO2 
 PCOD8290882
Probable space group: I M M M
;
_chemical_formula_sum "Si O2"
_cell_formula_units_Z 88
_cell_length_a 11.912118
_cell_length_b 18.076533
_cell_length_c 22.301501
_cell_angle_alpha 90.000000
_cell_angle_beta 90.000000
_cell_angle_gamma 90.000000
_cell_volume 4802.177619
_symmetry_space_group_name_H-M "I M M M"
_symmetry_group_IT_number 71
_symmetry_cell_setting 'orthorhombic'
loop_
_space_group_symop_operation_xyz
x,y,z
-x,-y,z
x,-y,-z
-x,y,-z
-x,-y,-z
x,y,-z
-x,y,z
x,-y,z
1/2+x,1/2+y,1/2+z
1/2-x,1/2-y,1/2+z
1/2+x,1/2-y,1/2-z
1/2-x,1/2+y,1/2-z
1/2-x,1/2-y,1/2-z
1/2+x,1/2+y,1/2-z
1/2-x,1/2+y,1/2+z
1/2+x,1/2-y,1/2+z
loop_
_atom_site_type_symbol
_atom_site_label
_atom_site_fract_x
_atom_site_fract_y
_atom_site_fract_z
Si Si1 0.131668 0.416580 0.000000
Si Si2 0.258564 0.347013 0.319185
Si Si3 0.635441 0.500000 0.715865
Si Si4 0.229369 0.142935 0.603362
Si Si5 0.870321 0.706246 0.568944
Si Si6 0.872186 0.000000 0.650323
Si Si7 0.127605 0.299295 0.790995
O O1 0.170407 0.371512 0.057651
O O2 0.180248 0.500000 0.000000
O O3 0.000000 0.418368 0.000000
O O4 0.311800 0.428044 0.315621
O O5 0.213380 0.338496 0.387298
O O6 0.153051 0.329072 0.275799
O O7 0.355653 0.288797 0.299965
O O8 0.500000 0.500000 0.709315
O O9 0.683723 0.500000 0.783810
O O10 0.147643 0.206660 0.579794
O O11 0.155284 0.070495 0.610402
O O12 0.284653 0.159917 0.666714
O O13 0.840620 0.686156 0.500000
O O14 0.000000 0.686911 0.582542
O O15 0.000000 0.000000 0.666579
O O16 0.000000 0.319522 0.806716
#
# Coordination Sequence:
#
# PCOD8290882 Si02
#       7
#     8  16   8  16  16   8  16
#     4  11  22  34  50  74 116 165 198 233 282 332
#     4  10  21  37  59  85 114 144 190 236 284 343
#     4  11  22  40  62  86 116 150 185 234 297 343
#     4  11  20  37  54  81 114 153 196 237 274 342
#     4  10  21  38  61  85 114 152 189 236 290 339
#     4  11  22  35  55  85 118 151 190 235 285 338
#     4  10  20  35  56  82 111 146 188 237 284 330
#
# _framework density 18.325019000000001
#
# number of rings (size 3 to 8) (size 9 to 14) (size 15 to 20)
#    0.000    1.545    3.636    2.182    0.000    0.000 
#    0.000    3.636    0.000    1.636    0.000    0.000 
#    0.000    0.000    0.000    0.000    0.000    0.000 
#
# Total GULP energy -545552.387793 kJ/mol
# GULP energy per Si atom -12398.917904 kJ/mol
# Density = 1.828331 g / cm^3
# Si number density = 18.325019 Si / 1000 Ang^3
#
#
#
# Elastic Constant Matrix: (Units=GPa)
#
#
# Indices 1 2 3 4 5 6 
#
# 1 75.8315 29.7077 31.1286 0.0000 0.0000 0.0000
# 2 29.7077 115.0792 36.1287 0.0000 0.0000 0.0000
# 3 31.1286 36.1287 112.9381 0.0000 0.0000 0.0000
# 4 0.0000 0.0000 0.0000 25.7905 0.0000 0.0000
# 5 0.0000 0.0000 0.0000 0.0000 4.6836 0.0000
# 6 0.0000 0.0000 0.0000 0.0000 0.0000 21.8913
#
#
#
# Elastic Compliance Matrix: (Units=1/GPa)
#
#
# Indices 1 2 3 4 5 6 
#
# 1 0.015752 -0.003005 -0.003380 0.000000 0.000000 0.000000
# 2 -0.003005 0.010233 -0.002445 0.000000 0.000000 0.000000
# 3 -0.003380 -0.002445 0.010568 0.000000 0.000000 0.000000
# 4 0.000000 0.000000 0.000000 0.038774 0.000000 0.000000
# 5 0.000000 0.000000 0.000000 0.000000 0.213513 0.000000
# 6 0.000000 0.000000 0.000000 0.000000 0.000000 0.045680
#
#
# Mechanical properties :
#
#
# Convention : Reuss Voigt Hill
#
# Bulk Modulus (GPa) = 52.93234 55.30876 54.12055
# Shear Modulus (GPa) = 13.94779 24.26532 19.10655
#
# Velocity S-wave (km/s) = 2.76186 3.64285 3.23251
# Velocity P-wave (km/s) = 6.25448 6.92398 6.59772
#
# Compressibility (1/GPa) = 0.01889204
#
# Stress axis : x y z
#
# Youngs Moduli (GPa) = 63.48388 97.72187 94.62212
#
# Poissons Ratio (x) = 0.29367 0.31985
# Poissons Ratio (y) = 0.19078 0.23138
# Poissons Ratio (z) = 0.21460 0.23896
#
# Static dielectric constant tensor:
#      x y z
#    x 3.174620 0.000000 0.000000 
#    y 0.000000 3.332870 0.000000 
#    z 0.000000 0.000000 3.443750 
# 
# 
# High freq. dielectric constant tensor:
#      x y z
#    x 1.706700 0.000000 0.000000 
#    y 0.000000 1.701090 0.000000 
#    z 0.000000 0.000000 1.717150 
# 
# From -- ./inp_files/24007.got.cif
#   From: 2010.06.25/outbox.cif.g09.slc.cpg/sg71_13_cif.got.tgz:24007.got - 2010.06.28 04:59:45.
