data_PCOD8290603
_publ_section_title
;
Structure prediction by ZEFSAII (Michael W. Deem and Ramdas Pophale) SiO2 
 PCOD8290603
Probable space group: I M M M
;
_chemical_formula_sum "Si O2"
_cell_formula_units_Z 88
_cell_length_a 20.207995
_cell_length_b 9.230725
_cell_length_c 23.856393
_cell_angle_alpha 90.000000
_cell_angle_beta 90.000000
_cell_angle_gamma 90.000000
_cell_volume 4450.039020
_symmetry_space_group_name_H-M "I M M M"
_symmetry_group_IT_number 71
_symmetry_cell_setting 'orthorhombic'
loop_
_space_group_symop_operation_xyz
x,y,z
-x,-y,z
x,-y,-z
-x,y,-z
-x,-y,-z
x,y,-z
-x,y,z
x,-y,z
1/2+x,1/2+y,1/2+z
1/2-x,1/2-y,1/2+z
1/2+x,1/2-y,1/2-z
1/2-x,1/2+y,1/2-z
1/2-x,1/2-y,1/2-z
1/2+x,1/2+y,1/2-z
1/2-x,1/2+y,1/2+z
1/2+x,1/2-y,1/2+z
loop_
_atom_site_type_symbol
_atom_site_label
_atom_site_fract_x
_atom_site_fract_y
_atom_site_fract_z
Si Si1 0.000000 0.170736 0.436243
Si Si2 0.819634 0.167220 0.747700
Si Si3 0.879482 0.669749 0.063569
Si Si4 0.366452 0.667137 0.875669
Si Si5 0.753856 0.663978 0.564291
Si Si6 0.572769 0.333240 0.336133
O O1 0.936602 0.220644 0.400184
O O2 0.000000 0.236539 0.500000
O O3 0.000000 0.000000 0.441669
O O4 0.750000 0.250000 0.750000
O O5 0.861468 0.187436 0.690908
O O6 0.869362 0.226103 0.795596
O O7 0.802255 0.000000 0.757326
O O8 0.875558 0.500000 0.074374
O O9 0.808523 0.736820 0.076827
O O10 0.930325 0.741800 0.106464
O O11 0.902170 0.704087 0.000000
O O12 0.352774 0.500000 0.892806
O O13 0.313414 0.774282 0.900715
O O14 0.774863 0.670005 0.500000
O O15 0.738060 0.500000 0.583388
O O16 0.500000 0.316438 0.307818
O O17 0.586488 0.500000 0.351063
#
# Coordination Sequence:
#
# PCOD8290603 Si02
#       6
#     8  16  16  16  16  16
#     4   9  18  32  53  83 115 147 188 237 286 344
#     4  10  22  38  58  84 113 149 192 240 288 339
#     4  10  21  37  58  84 113 145 185 234 285 337
#     4  10  20  34  56  82 111 149 192 238 288 343
#     4  10  20  34  54  81 113 148 187 234 287 341
#     4  10  22  39  59  83 115 153 190 230 281 342
#
# _framework density 19.775107999999999
#
# number of rings (size 3 to 8) (size 9 to 14) (size 15 to 20)
#    0.000    2.091    0.000    2.727    1.273    8.000 
#    0.000    2.273    0.000    1.636    0.000    0.000 
#    0.000    0.000    0.000    0.000    0.000    0.000 
#
# Total GULP energy -545525.679849 kJ/mol
# GULP energy per Si atom -12398.310906 kJ/mol
# Density = 1.973010 g / cm^3
# Si number density = 19.775108 Si / 1000 Ang^3
#
#
#
# Elastic Constant Matrix: (Units=GPa)
#
#
# Indices 1 2 3 4 5 6 
#
# 1 109.4687 44.1280 72.9995 0.0000 0.0000 0.0000
# 2 44.1280 66.1674 42.9528 0.0000 0.0000 0.0000
# 3 72.9995 42.9528 110.5277 0.0000 0.0000 0.0000
# 4 0.0000 0.0000 0.0000 29.1215 0.0000 0.0000
# 5 0.0000 0.0000 0.0000 0.0000 37.8157 0.0000
# 6 0.0000 0.0000 0.0000 0.0000 0.0000 24.8672
#
#
#
# Elastic Compliance Matrix: (Units=1/GPa)
#
#
# Indices 1 2 3 4 5 6 
#
# 1 0.017782 -0.005664 -0.009543 0.000000 0.000000 0.000000
# 2 -0.005664 0.022016 -0.004815 0.000000 0.000000 0.000000
# 3 -0.009543 -0.004815 0.017222 0.000000 0.000000 0.000000
# 4 0.000000 0.000000 0.000000 0.034339 0.000000 0.000000
# 5 0.000000 0.000000 0.000000 0.000000 0.026444 0.000000
# 6 0.000000 0.000000 0.000000 0.000000 0.000000 0.040214
#
#
# Mechanical properties :
#
#
# Convention : Reuss Voigt Hill
#
# Bulk Modulus (GPa) = 58.90873 67.36939 63.13906
# Shear Modulus (GPa) = 24.54344 26.76645 25.65495
#
# Velocity S-wave (km/s) = 3.52679 3.68304 3.60576
# Velocity P-wave (km/s) = 6.81457 7.22690 7.02376
#
# Compressibility (1/GPa) = 0.01697541
#
# Stress axis : x y z
#
# Youngs Moduli (GPa) = 56.23543 45.42085 58.06617
#
# Poissons Ratio (x) = 0.25727 0.55415
# Poissons Ratio (y) = 0.31853 0.27958
# Poissons Ratio (z) = 0.53668 0.21870
#
# Static dielectric constant tensor:
#      x y z
#    x 3.993450 0.000000 0.000000 
#    y 0.000000 3.567900 0.000000 
#    z 0.000000 0.000000 3.900440 
# 
# 
# High freq. dielectric constant tensor:
#      x y z
#    x 1.775820 0.000000 0.000000 
#    y 0.000000 1.756680 0.000000 
#    z 0.000000 0.000000 1.779030 
# 
# From -- ./inp_files/10392.got.cif
#   From: 2010.06.25/outbox.cif.g09.slc.cpg/sg71_6_cif.got.tgz:10392.got - 2010.06.28 04:59:45.
