data_PCOD8290516
_publ_section_title
;
Structure prediction by ZEFSAII (Michael W. Deem and Ramdas Pophale) SiO2 
 PCOD8290516
Probable space group: I M M M
;
_chemical_formula_sum "Si O2"
_cell_formula_units_Z 96
_cell_length_a 8.679147
_cell_length_b 22.991770
_cell_length_c 24.372070
_cell_angle_alpha 90.000000
_cell_angle_beta 90.000000
_cell_angle_gamma 90.000000
_cell_volume 4863.421017
_symmetry_space_group_name_H-M "I M M M"
_symmetry_group_IT_number 71
_symmetry_cell_setting 'orthorhombic'
loop_
_space_group_symop_operation_xyz
x,y,z
-x,-y,z
x,-y,-z
-x,y,-z
-x,-y,-z
x,y,-z
-x,y,z
x,-y,z
1/2+x,1/2+y,1/2+z
1/2-x,1/2-y,1/2+z
1/2+x,1/2-y,1/2-z
1/2-x,1/2+y,1/2-z
1/2-x,1/2-y,1/2-z
1/2+x,1/2+y,1/2-z
1/2-x,1/2+y,1/2+z
1/2+x,1/2-y,1/2+z
loop_
_atom_site_type_symbol
_atom_site_label
_atom_site_fract_x
_atom_site_fract_y
_atom_site_fract_z
Si Si1 0.178509 0.000000 0.118493
Si Si2 0.167716 0.826545 0.000000
Si Si3 0.681522 0.000000 0.762697
Si Si4 0.816884 0.809752 0.182305
Si Si5 0.819755 0.693838 0.880141
Si Si6 0.320103 0.113130 0.095972
Si Si7 0.666438 0.192629 0.500000
Si Si8 0.319673 0.124974 0.277011
O O1 0.226968 0.945240 0.081844
O O2 0.277320 0.000000 0.173840
O O3 0.000000 0.000000 0.133225
O O4 0.270943 0.839199 0.947557
O O5 0.132304 0.759921 0.000000
O O6 0.000000 0.858785 0.000000
O O7 0.746346 0.059845 0.734992
O O8 0.500000 0.000000 0.755301
O O9 0.755505 0.750961 0.152520
O O10 0.733872 0.865203 0.155120
O O11 0.764183 0.821096 0.245062
O O12 0.000000 0.813907 0.177668
O O13 0.790229 0.637979 0.841523
O O14 0.000000 0.705001 0.890518
O O15 0.745437 0.680458 0.941196
O O16 0.500000 0.100673 0.094608
O O17 0.500000 0.159508 0.500000
O O18 0.500000 0.129289 0.262749
#
# Coordination Sequence:
#
# PCOD8290516 Si02
#       8
#     8   8   8  16  16  16   8  16
#     4  12  24  39  59  80 105 145 196 236 271 321
#     4  11  21  38  60  81 108 145 192 234 273 322
#     4  10  20  34  53  78 112 148 180 226 284 335
#     4  11  20  33  54  81 110 144 186 230 278 332
#     4   9  18  32  53  81 110 145 186 229 279 334
#     4  12  24  38  56  81 113 147 186 231 283 330
#     4   9  16  31  56  81 107 140 183 231 274 328
#     4  10  20  34  53  79 112 147 184 228 283 337
#
# _framework density 19.739191000000002
#
# number of rings (size 3 to 8) (size 9 to 14) (size 15 to 20)
#    0.000    1.500    3.333    3.500    0.000    0.333 
#    0.000    2.500    0.000    0.500    0.000    3.500 
#    0.000    0.000    0.000    2.250    0.000    2.500 
#
# Total GULP energy -594688.595469 kJ/mol
# GULP energy per Si atom -12389.345739 kJ/mol
# Density = 1.969426 g / cm^3
# Si number density = 19.739191 Si / 1000 Ang^3
#
#
#
# Elastic Constant Matrix: (Units=GPa)
#
#
# Indices 1 2 3 4 5 6 
#
# 1 41.3086 13.9556 13.9795 0.0000 0.0000 0.0000
# 2 13.9556 53.2436 26.6814 0.0000 0.0000 0.0000
# 3 13.9795 26.6814 124.8532 0.0000 0.0000 0.0000
# 4 0.0000 0.0000 0.0000 19.9935 0.0000 0.0000
# 5 0.0000 0.0000 0.0000 0.0000 22.3659 0.0000
# 6 0.0000 0.0000 0.0000 0.0000 0.0000 15.0733
#
#
#
# Elastic Compliance Matrix: (Units=1/GPa)
#
#
# Indices 1 2 3 4 5 6 
#
# 1 0.026872 -0.006200 -0.001684 0.000000 0.000000 0.000000
# 2 -0.006200 0.022464 -0.004107 0.000000 0.000000 0.000000
# 3 -0.001684 -0.004107 0.009076 0.000000 0.000000 0.000000
# 4 0.000000 0.000000 0.000000 0.050016 0.000000 0.000000
# 5 0.000000 0.000000 0.000000 0.000000 0.044711 0.000000
# 6 0.000000 0.000000 0.000000 0.000000 0.000000 0.066343
#
#
# Mechanical properties :
#
#
# Convention : Reuss Voigt Hill
#
# Bulk Modulus (GPa) = 29.04266 36.51539 32.77902
# Shear Modulus (GPa) = 19.61247 22.47245 21.04246
#
# Velocity S-wave (km/s) = 3.15553 3.37778 3.26855
# Velocity P-wave (km/s) = 5.29355 5.80961 5.55757
#
# Compressibility (1/GPa) = 0.03443210
#
# Stress axis : x y z
#
# Youngs Moduli (GPa) = 37.21297 44.51483 110.18633
#
# Poissons Ratio (x) = 0.27597 0.18555
# Poissons Ratio (y) = 0.23071 0.45249
# Poissons Ratio (z) = 0.06267 0.18280
#
# Static dielectric constant tensor:
#      x y z
#    x 3.269180 0.000000 0.000000 
#    y 0.000000 3.620080 0.000000 
#    z 0.000000 0.000000 3.840670 
# 
# 
# High freq. dielectric constant tensor:
#      x y z
#    x 1.738150 0.000000 0.000000 
#    y 0.000000 1.751180 0.000000 
#    z 0.000000 0.000000 1.775330 
# 
# From -- ./inp_files/57826.got.cif
#   From: 2010.06.25/outbox.cif.g09.slc.cpg/sg71_29_cif.got.tgz:57826.got - 2010.06.28 04:59:45.
