data_PCOD8290916
_publ_section_title
;
Structure prediction by ZEFSAII (Michael W. Deem and Ramdas Pophale) SiO2 
 PCOD8290916
Probable space group: I M M M
;
_chemical_formula_sum "Si O2"
_cell_formula_units_Z 60
_cell_length_a 15.748618
_cell_length_b 17.088974
_cell_length_c 12.377870
_cell_angle_alpha 90.000000
_cell_angle_beta 90.000000
_cell_angle_gamma 90.000000
_cell_volume 3331.227975
_symmetry_space_group_name_H-M "I M M M"
_symmetry_group_IT_number 71
_symmetry_cell_setting 'orthorhombic'
loop_
_space_group_symop_operation_xyz
x,y,z
-x,-y,z
x,-y,-z
-x,y,-z
-x,-y,-z
x,y,-z
-x,y,z
x,-y,z
1/2+x,1/2+y,1/2+z
1/2-x,1/2-y,1/2+z
1/2+x,1/2-y,1/2-z
1/2-x,1/2+y,1/2-z
1/2-x,1/2-y,1/2-z
1/2+x,1/2+y,1/2-z
1/2-x,1/2+y,1/2+z
1/2+x,1/2-y,1/2+z
loop_
_atom_site_type_symbol
_atom_site_label
_atom_site_fract_x
_atom_site_fract_y
_atom_site_fract_z
Si Si1 0.352473 0.000000 0.118276
Si Si2 0.816737 0.297071 0.877168
Si Si3 0.500000 0.833720 0.623120
Si Si4 0.900554 0.000000 0.872050
Si Si5 0.274941 0.372526 0.687208
Si Si6 0.500000 0.000000 0.711783
O O1 0.296213 0.922375 0.126712
O O2 0.418848 0.000000 0.213114
O O3 0.396113 0.000000 0.000000
O O4 0.753499 0.353068 0.809940
O O5 0.785693 0.208075 0.876848
O O6 0.912464 0.300193 0.825496
O O7 0.816645 0.328874 0.000000
O O8 0.500000 0.806950 0.500000
O O9 0.500000 0.926769 0.633004
O O10 0.861954 0.077538 0.815313
O O11 0.000000 0.000000 0.849532
O O12 0.879869 0.000000 0.000000
#
# Coordination Sequence:
#
# PCOD8290916 Si02
#       6
#     8  16   8   8  16   4
#     4  11  21  35  53  75 108 146 179 216 266 322
#     4  10  20  35  57  82 107 141 177 220 268 314
#     4  10  21  35  55  81 111 140 177 220 265 316
#     4  10  21  36  56  83 107 138 178 225 274 315
#     4  10  20  36  56  79 109 137 176 225 266 323
#     4  12  20  36  48  80 110 146 180 210 260 322
#
# _framework density 18.011375999999998
#
# number of rings (size 3 to 8) (size 9 to 14) (size 15 to 20)
#    0.000    1.733    2.667    3.600    1.867    0.000 
#    0.000    2.667    0.000    1.600    0.000    0.000 
#    0.000    0.000    0.000    0.000    0.000    0.000 
#
# Total GULP energy -371909.682083 kJ/mol
# GULP energy per Si atom -12396.989403 kJ/mol
# Density = 1.797038 g / cm^3
# Si number density = 18.011376 Si / 1000 Ang^3
#
#
#
# Elastic Constant Matrix: (Units=GPa)
#
#
# Indices 1 2 3 4 5 6 
#
# 1 120.2808 40.5853 37.6047 0.0000 0.0000 0.0000
# 2 40.5853 100.9144 25.7980 0.0000 0.0000 0.0000
# 3 37.6047 25.7980 74.9310 0.0000 0.0000 0.0000
# 4 0.0000 0.0000 0.0000 17.9902 0.0000 0.0000
# 5 0.0000 0.0000 0.0000 0.0000 33.8199 0.0000
# 6 0.0000 0.0000 0.0000 0.0000 0.0000 22.7477
#
#
#
# Elastic Compliance Matrix: (Units=1/GPa)
#
#
# Indices 1 2 3 4 5 6 
#
# 1 0.010740 -0.003225 -0.004280 0.000000 0.000000 0.000000
# 2 -0.003225 0.011834 -0.002456 0.000000 0.000000 0.000000
# 3 -0.004280 -0.002456 0.016339 0.000000 0.000000 0.000000
# 4 0.000000 0.000000 0.000000 0.055586 0.000000 0.000000
# 5 0.000000 0.000000 0.000000 0.000000 0.029568 0.000000
# 6 0.000000 0.000000 0.000000 0.000000 0.000000 0.043960
#
#
# Mechanical properties :
#
#
# Convention : Reuss Voigt Hill
#
# Bulk Modulus (GPa) = 52.65397 56.01136 54.33266
# Shear Modulus (GPa) = 25.73602 27.72077 26.72840
#
# Velocity S-wave (km/s) = 3.78415 3.92735 3.85642
# Velocity P-wave (km/s) = 6.95631 7.19241 7.07534
#
# Compressibility (1/GPa) = 0.01899192
#
# Stress axis : x y z
#
# Youngs Moduli (GPa) = 93.10852 84.49974 61.20385
#
# Poissons Ratio (x) = 0.27254 0.26193
# Poissons Ratio (y) = 0.30031 0.15030
# Poissons Ratio (z) = 0.39846 0.20751
#
# Static dielectric constant tensor:
#      x y z
#    x 3.596060 0.000000 0.000000 
#    y 0.000000 3.379870 0.000000 
#    z 0.000000 0.000000 3.193940 
# 
# 
# High freq. dielectric constant tensor:
#      x y z
#    x 1.702840 0.000000 0.000000 
#    y 0.000000 1.703000 0.000000 
#    z 0.000000 0.000000 1.681970 
# 
# From -- ./inp_files/23430.got.cif
#   From: 2010.06.25/outbox.cif.g09.slc.cpg/sg71_12_cif.got.tgz:23430.got - 2010.06.28 04:59:45.
