data_PCOD8290808
_publ_section_title
;
Structure prediction by ZEFSAII (Michael W. Deem and Ramdas Pophale) SiO2 
 PCOD8290808
Probable space group: I M M M
;
_chemical_formula_sum "Si O2"
_cell_formula_units_Z 72
_cell_length_a 30.129429
_cell_length_b 9.052066
_cell_length_c 14.445625
_cell_angle_alpha 90.000000
_cell_angle_beta 90.000000
_cell_angle_gamma 90.000000
_cell_volume 3939.807019
_symmetry_space_group_name_H-M "I M M M"
_symmetry_group_IT_number 71
_symmetry_cell_setting 'orthorhombic'
loop_
_space_group_symop_operation_xyz
x,y,z
-x,-y,z
x,-y,-z
-x,y,-z
-x,-y,-z
x,y,-z
-x,y,z
x,-y,z
1/2+x,1/2+y,1/2+z
1/2-x,1/2-y,1/2+z
1/2+x,1/2-y,1/2-z
1/2-x,1/2+y,1/2-z
1/2-x,1/2-y,1/2-z
1/2+x,1/2+y,1/2-z
1/2-x,1/2+y,1/2+z
1/2+x,1/2-y,1/2+z
loop_
_atom_site_type_symbol
_atom_site_label
_atom_site_fract_x
_atom_site_fract_y
_atom_site_fract_z
Si Si1 0.161691 0.825031 0.500000
Si Si2 0.450062 0.670938 0.681334
Si Si3 0.209343 0.324767 0.198367
Si Si4 0.131277 0.827598 0.302502
Si Si5 0.739069 0.173596 0.500000
Si Si6 0.447216 0.834451 0.500000
O O1 0.135710 0.771143 0.408237
O O2 0.211317 0.756353 0.500000
O O3 0.163784 0.000000 0.500000
O O4 0.500000 0.724751 0.706008
O O5 0.450228 0.500000 0.654458
O O6 0.419140 0.702022 0.770074
O O7 0.429910 0.755223 0.592605
O O8 0.212366 0.500000 0.211419
O O9 0.250000 0.250000 0.250000
O O10 0.163290 0.265449 0.237007
O O11 0.211997 0.277255 0.090635
O O12 0.144122 0.000000 0.294074
O O13 0.745858 0.000000 0.500000
O O14 0.500000 0.829697 0.500000
O O15 0.428310 0.000000 0.500000
#
# Coordination Sequence:
#
# PCOD8290808 Si02
#       6
#     8  16  16  16   8   8
#     4   9  16  32  54  73  99 138 174 206 256 314
#     4   9  18  33  53  78 108 139 173 217 265 309
#     4  11  21  35  54  77 104 136 173 214 259 309
#     4  10  20  35  55  77 103 138 177 215 259 312
#     4   9  18  33  53  73 102 138 168 204 260 312
#     4   9  17  30  51  76 102 137 175 209 256 317
#
# _framework density 18.275006999999999
#
# number of rings (size 3 to 8) (size 9 to 14) (size 15 to 20)
#    0.000    2.333    2.222    1.000    0.000    3.111 
#    0.000    6.667    0.000    3.333    0.000    0.000 
#    0.000    5.333    0.000    0.000    0.000    0.000 
#
# Total GULP energy -446340.847961 kJ/mol
# GULP energy per Si atom -12398.356888 kJ/mol
# Density = 1.823341 g / cm^3
# Si number density = 18.275007 Si / 1000 Ang^3
#
#
#
# Elastic Constant Matrix: (Units=GPa)
#
#
# Indices 1 2 3 4 5 6 
#
# 1 99.9329 33.9347 74.9297 0.0000 0.0000 0.0000
# 2 33.9347 58.2056 45.8170 0.0000 0.0000 0.0000
# 3 74.9297 45.8170 182.6950 0.0000 0.0000 0.0000
# 4 0.0000 0.0000 0.0000 19.7071 0.0000 0.0000
# 5 0.0000 0.0000 0.0000 0.0000 30.7524 0.0000
# 6 0.0000 0.0000 0.0000 0.0000 0.0000 23.4239
#
#
#
# Elastic Compliance Matrix: (Units=1/GPa)
#
#
# Indices 1 2 3 4 5 6 
#
# 1 0.015554 -0.005042 -0.005115 0.000000 0.000000 0.000000
# 2 -0.005042 0.023041 -0.003710 0.000000 0.000000 0.000000
# 3 -0.005115 -0.003710 0.008502 0.000000 0.000000 0.000000
# 4 0.000000 0.000000 0.000000 0.050743 0.000000 0.000000
# 5 0.000000 0.000000 0.000000 0.000000 0.032518 0.000000
# 6 0.000000 0.000000 0.000000 0.000000 0.000000 0.042692
#
#
# Mechanical properties :
#
#
# Convention : Reuss Voigt Hill
#
# Bulk Modulus (GPa) = 51.64705 72.24403 61.94554
# Shear Modulus (GPa) = 24.12697 27.18682 25.65690
#
# Velocity S-wave (km/s) = 3.63742 3.86119 3.75098
# Velocity P-wave (km/s) = 6.77964 7.71335 7.26152
#
# Compressibility (1/GPa) = 0.01936219
#
# Stress axis : x y z
#
# Youngs Moduli (GPa) = 64.29259 43.40157 117.62180
#
# Poissons Ratio (x) = 0.21883 0.60160
# Poissons Ratio (y) = 0.32417 0.43641
# Poissons Ratio (z) = 0.32884 0.16103
#
# Static dielectric constant tensor:
#      x y z
#    x 3.390420 0.000000 0.000000 
#    y 0.000000 3.262360 0.000000 
#    z 0.000000 0.000000 3.749150 
# 
# 
# High freq. dielectric constant tensor:
#      x y z
#    x 1.697380 0.000000 0.000000 
#    y 0.000000 1.686970 0.000000 
#    z 0.000000 0.000000 1.715430 
# 
# From -- ./inp_files/6558.got.cif
#   From: 2010.06.25/outbox.cif.g09.slc.cpg/sg71_4_cif.got.tgz:6558.got - 2010.06.28 04:59:45.
