data_PCOD8290476
_publ_section_title
;
Structure prediction by ZEFSAII (Michael W. Deem and Ramdas Pophale) SiO2 
 PCOD8290476
Probable space group: I M M M
;
_chemical_formula_sum "Si O2"
_cell_formula_units_Z 64
_cell_length_a 8.806120
_cell_length_b 14.188578
_cell_length_c 28.501282
_cell_angle_alpha 90.000000
_cell_angle_beta 90.000000
_cell_angle_gamma 90.000000
_cell_volume 3561.130315
_symmetry_space_group_name_H-M "I M M M"
_symmetry_group_IT_number 71
_symmetry_cell_setting 'orthorhombic'
loop_
_space_group_symop_operation_xyz
x,y,z
-x,-y,z
x,-y,-z
-x,y,-z
-x,-y,-z
x,y,-z
-x,y,z
x,-y,z
1/2+x,1/2+y,1/2+z
1/2-x,1/2-y,1/2+z
1/2+x,1/2-y,1/2-z
1/2-x,1/2+y,1/2-z
1/2-x,1/2-y,1/2-z
1/2+x,1/2+y,1/2-z
1/2-x,1/2+y,1/2+z
1/2+x,1/2-y,1/2+z
loop_
_atom_site_type_symbol
_atom_site_label
_atom_site_fract_x
_atom_site_fract_y
_atom_site_fract_z
Si Si1 0.820538 0.240200 0.053641
Si Si2 0.679720 0.254609 0.699100
Si Si3 0.322465 0.890358 0.872925
Si Si4 0.179242 0.604155 0.875306
O O1 0.738178 0.153070 0.078530
O O2 0.770599 0.337953 0.078457
O O3 0.000000 0.224701 0.058545
O O4 0.767379 0.244768 0.000000
O O5 0.500000 0.261318 0.702781
O O6 0.750000 0.250000 0.750000
O O7 0.739101 0.346313 0.671994
O O8 0.731688 0.160981 0.670916
O O9 0.500000 0.870275 0.868269
O O10 0.284178 0.000000 0.873700
O O11 0.254984 0.500000 0.875797
O O12 0.000000 0.593428 0.874904
#
# Coordination Sequence:
#
# PCOD8290476 Si02
#       4
#    16  16  16  16
#     4   9  18  32  51  76 103 131 165 207 257 310
#     4  10  20  34  53  77 104 134 168 207 254 304
#     4  10  21  36  53  73  99 134 175 215 254 299
#     4   8  15  29  49  73 100 129 163 203 244 292
#
# _framework density 17.971822
#
# number of rings (size 3 to 8) (size 9 to 14) (size 15 to 20)
#    0.000    2.750    0.000    3.000    0.000    4.500 
#    0.000    7.500    0.000   18.000    0.000    7.000 
#    0.000    0.000    0.000    0.000    0.000    0.000 
#
# Total GULP energy -396754.919356 kJ/mol
# GULP energy per Si atom -12398.591230 kJ/mol
# Density = 1.793092 g / cm^3
# Si number density = 17.971822 Si / 1000 Ang^3
#
#
#
# Elastic Constant Matrix: (Units=GPa)
#
#
# Indices 1 2 3 4 5 6 
#
# 1 57.5400 52.0585 48.9796 0.0000 0.0000 0.0000
# 2 52.0585 162.4114 91.1711 0.0000 0.0000 0.0000
# 3 48.9796 91.1711 189.7354 0.0000 0.0000 0.0000
# 4 0.0000 0.0000 0.0000 12.9777 0.0000 0.0000
# 5 0.0000 0.0000 0.0000 0.0000 31.3124 0.0000
# 6 0.0000 0.0000 0.0000 0.0000 0.0000 21.2368
#
#
#
# Elastic Compliance Matrix: (Units=1/GPa)
#
#
# Indices 1 2 3 4 5 6 
#
# 1 0.026291 -0.006323 -0.003749 0.000000 0.000000 0.000000
# 2 -0.006323 0.009952 -0.003150 0.000000 0.000000 0.000000
# 3 -0.003749 -0.003150 0.007752 0.000000 0.000000 0.000000
# 4 0.000000 0.000000 0.000000 0.077055 0.000000 0.000000
# 5 0.000000 0.000000 0.000000 0.000000 0.031936 0.000000
# 6 0.000000 0.000000 0.000000 0.000000 0.000000 0.047088
#
#
# Mechanical properties :
#
#
# Convention : Reuss Voigt Hill
#
# Bulk Modulus (GPa) = 56.97413 88.23390 72.60402
# Shear Modulus (GPa) = 21.51765 27.60388 24.56077
#
# Velocity S-wave (km/s) = 3.46396 3.92338 3.70080
# Velocity P-wave (km/s) = 6.91154 8.35022 7.66471
#
# Compressibility (1/GPa) = 0.01755183
#
# Stress axis : x y z
#
# Youngs Moduli (GPa) = 38.03648 100.48119 129.00202
#
# Poissons Ratio (x) = 0.63531 0.48358
# Poissons Ratio (y) = 0.24049 0.40635
# Poissons Ratio (z) = 0.14259 0.31651
#
# Static dielectric constant tensor:
#      x y z
#    x 3.163230 0.000000 0.000000 
#    y 0.000000 3.597840 0.000000 
#    z 0.000000 0.000000 2.912550 
# 
# 
# High freq. dielectric constant tensor:
#      x y z
#    x 1.678760 0.000000 0.000000 
#    y 0.000000 1.700380 0.000000 
#    z 0.000000 0.000000 1.701200 
# 
# From -- ./inp_files/6323.got.cif
#   From: 2010.06.25/outbox.cif.g09.slc.cpg/sg71_4_cif.got.tgz:6323.got - 2010.06.28 04:59:45.
