data_PCOD8290381
_publ_section_title
;
Structure prediction by ZEFSAII (Michael W. Deem and Ramdas Pophale) SiO2 
 PCOD8290381
Probable space group: I M M M
;
_chemical_formula_sum "Si O2"
_cell_formula_units_Z 104
_cell_length_a 24.517357
_cell_length_b 10.106180
_cell_length_c 23.648045
_cell_angle_alpha 90.000000
_cell_angle_beta 90.000000
_cell_angle_gamma 90.000000
_cell_volume 5859.437459
_symmetry_space_group_name_H-M "I M M M"
_symmetry_group_IT_number 71
_symmetry_cell_setting 'orthorhombic'
loop_
_space_group_symop_operation_xyz
x,y,z
-x,-y,z
x,-y,-z
-x,y,-z
-x,-y,-z
x,y,-z
-x,y,z
x,-y,z
1/2+x,1/2+y,1/2+z
1/2-x,1/2-y,1/2+z
1/2+x,1/2-y,1/2-z
1/2-x,1/2+y,1/2-z
1/2-x,1/2-y,1/2-z
1/2+x,1/2+y,1/2-z
1/2-x,1/2+y,1/2+z
1/2+x,1/2-y,1/2+z
loop_
_atom_site_type_symbol
_atom_site_label
_atom_site_fract_x
_atom_site_fract_y
_atom_site_fract_z
Si Si1 0.142662 0.150744 0.775274
Si Si2 0.589152 0.647379 0.610578
Si Si3 0.199073 0.763809 0.936242
Si Si4 0.179839 0.351584 0.436057
Si Si5 0.220182 0.642449 0.824886
Si Si6 0.000000 0.653249 0.066867
Si Si7 0.654471 0.352585 0.845627
O O1 0.095946 0.174607 0.822177
O O2 0.194417 0.242692 0.787631
O O3 0.119275 0.178601 0.711540
O O4 0.163846 0.000000 0.779031
O O5 0.563454 0.500000 0.601235
O O6 0.647160 0.644903 0.578291
O O7 0.552731 0.766619 0.587489
O O8 0.254826 0.846715 0.928574
O O9 0.200940 0.645914 0.890767
O O10 0.194240 0.707245 0.000000
O O11 0.164049 0.312572 0.500000
O O12 0.160788 0.500000 0.421840
O O13 0.145897 0.253155 0.395383
O O14 0.201205 0.500000 0.801147
O O15 0.284652 0.655637 0.821716
O O16 0.000000 0.500000 0.089208
O O17 0.000000 0.651478 0.000000
O O18 0.641304 0.500000 0.869312
#
# Coordination Sequence:
#
# PCOD8290381 Si02
#       7
#    16  16  16  16  16   8  16
#     4   9  18  31  45  62  84 109 139 178 219 257
#     4  10  20  34  52  69  83 105 142 185 225 269
#     4   9  17  28  43  63  86 112 145 187 228 260
#     4   9  17  28  42  63  91 121 153 186 216 246
#     4   9  17  26  38  59  84 112 145 178 214 257
#     4  11  25  41  53  67  89 113 136 173 230 285
#     4   9  17  28  41  59  85 116 147 177 212 253
#
# _framework density 17.749144999999999
#
# number of rings (size 3 to 8) (size 9 to 14) (size 15 to 20)
#    0.000    2.692    0.000    1.615    0.000    9.538 
#    0.000    3.077    0.000    0.000    0.000    0.000 
#    0.000    0.000    0.000    0.692    0.000   14.462 
#
# Total GULP energy -644272.699219 kJ/mol
# GULP energy per Si atom -12389.859600 kJ/mol
# Density = 1.770875 g / cm^3
# Si number density = 17.749145 Si / 1000 Ang^3
#
#
#
# Elastic Constant Matrix: (Units=GPa)
#
#
# Indices 1 2 3 4 5 6 
#
# 1 19.1013 10.8333 14.7010 0.0000 0.0000 0.0000
# 2 10.8333 112.4228 54.1275 0.0000 0.0000 0.0000
# 3 14.7010 54.1275 122.0540 0.0000 0.0000 0.0000
# 4 0.0000 0.0000 0.0000 28.2379 0.0000 0.0000
# 5 0.0000 0.0000 0.0000 0.0000 16.9019 0.0000
# 6 0.0000 0.0000 0.0000 0.0000 0.0000 6.9699
#
#
#
# Elastic Compliance Matrix: (Units=1/GPa)
#
#
# Indices 1 2 3 4 5 6 
#
# 1 0.058411 -0.002850 -0.005772 0.000000 0.000000 0.000000
# 2 -0.002850 0.011449 -0.004734 0.000000 0.000000 0.000000
# 3 -0.005772 -0.004734 0.010988 0.000000 0.000000 0.000000
# 4 0.000000 0.000000 0.000000 0.035413 0.000000 0.000000
# 5 0.000000 0.000000 0.000000 0.000000 0.059165 0.000000
# 6 0.000000 0.000000 0.000000 0.000000 0.000000 0.143474
#
#
# Mechanical properties :
#
#
# Convention : Reuss Voigt Hill
#
# Bulk Modulus (GPa) = 18.47184 45.87796 32.17490
# Shear Modulus (GPa) = 13.74927 22.01636 17.88281
#
# Velocity S-wave (km/s) = 2.78626 3.52578 3.17761
# Velocity P-wave (km/s) = 4.55859 6.51758 5.62404
#
# Compressibility (1/GPa) = 0.05413646
#
# Stress axis : x y z
#
# Youngs Moduli (GPa) = 17.12018 87.34497 91.01125
#
# Poissons Ratio (x) = 0.24891 0.52528
# Poissons Ratio (y) = 0.04879 0.43085
# Poissons Ratio (z) = 0.09881 0.41349
#
# Static dielectric constant tensor:
#      x y z
#    x 2.755840 0.000000 0.000000 
#    y 0.000000 3.365850 0.000000 
#    z 0.000000 0.000000 3.579670 
# 
# 
# High freq. dielectric constant tensor:
#      x y z
#    x 1.613080 0.000000 0.000000 
#    y 0.000000 1.690810 0.000000 
#    z 0.000000 0.000000 1.699420 
# 
# From -- ./inp_files/13629.got.cif
#   From: 2010.06.25/outbox.cif.g09.slc.cpg/sg71_7_cif.got.tgz:13629.got - 2010.06.28 04:59:45.
