data_PCOD8290628
_publ_section_title
;
Structure prediction by ZEFSAII (Michael W. Deem and Ramdas Pophale) SiO2 
 PCOD8290628
Probable space group: I M M M
;
_chemical_formula_sum "Si O2"
_cell_formula_units_Z 120
_cell_length_a 14.576225
_cell_length_b 21.502427
_cell_length_c 20.114986
_cell_angle_alpha 90.000000
_cell_angle_beta 90.000000
_cell_angle_gamma 90.000000
_cell_volume 6304.523677
_symmetry_space_group_name_H-M "I M M M"
_symmetry_group_IT_number 71
_symmetry_cell_setting 'orthorhombic'
loop_
_space_group_symop_operation_xyz
x,y,z
-x,-y,z
x,-y,-z
-x,y,-z
-x,-y,-z
x,y,-z
-x,y,z
x,-y,z
1/2+x,1/2+y,1/2+z
1/2-x,1/2-y,1/2+z
1/2+x,1/2-y,1/2-z
1/2-x,1/2+y,1/2-z
1/2-x,1/2-y,1/2-z
1/2+x,1/2+y,1/2-z
1/2-x,1/2+y,1/2+z
1/2+x,1/2-y,1/2+z
loop_
_atom_site_type_symbol
_atom_site_label
_atom_site_fract_x
_atom_site_fract_y
_atom_site_fract_z
Si Si1 0.773843 0.327095 0.424695
Si Si2 0.650927 0.841845 0.624557
Si Si3 0.101829 0.794644 0.159993
Si Si4 0.500000 0.932527 0.575930
Si Si5 0.664389 0.306681 0.925624
Si Si6 0.397996 0.635775 0.789485
Si Si7 0.606501 0.929919 0.134497
Si Si8 0.722424 0.930942 0.267920
O O1 0.738012 0.325049 0.500000
O O2 0.682491 0.330674 0.379296
O O3 0.835558 0.266579 0.408460
O O4 0.842692 0.385031 0.417055
O O5 0.601384 0.778743 0.645876
O O6 0.587557 0.892630 0.592148
O O7 0.729995 0.828141 0.571441
O O8 0.690535 0.872555 0.690080
O O9 0.116348 0.805961 0.239017
O O10 0.000000 0.819195 0.138514
O O11 0.500000 0.948595 0.500000
O O12 0.500000 0.000000 0.613912
O O13 0.613058 0.342703 0.866460
O O14 0.622181 0.319361 0.000000
O O15 0.500000 0.608522 0.783326
O O16 0.332007 0.580187 0.763852
O O17 0.500000 0.910229 0.146829
O O18 0.665809 0.925671 0.200872
O O19 0.609494 0.000000 0.106023
O O20 0.706618 0.000000 0.298654
#
# Coordination Sequence:
#
# PCOD8290628 Si02
#       8
#    16  16  16   8  16  16  16  16
#     4  10  21  37  58  83 115 154 192 235 287 345
#     4  10  20  34  55  79 112 149 193 237 284 342
#     4  10  20  36  57  88 116 149 189 240 293 342
#     4  11  22  34  50  78 116 154 192 234 288 353
#     4   9  20  36  55  82 115 150 187 232 286 342
#     4  10  21  36  60  86 113 147 191 236 288 342
#     4  10  22  38  57  83 115 151 192 238 289 347
#     4  10  21  37  58  83 114 149 188 238 289 340
#
# _framework density 19.033951999999999
#
# number of rings (size 3 to 8) (size 9 to 14) (size 15 to 20)
#    0.000    2.067    2.000    0.800    2.800    4.000 
#    0.000    2.000    0.000    4.000    0.000    4.667 
#    0.000    0.000    0.000    0.000    0.000    0.000 
#
# Total GULP energy -743417.949857 kJ/mol
# GULP energy per Si atom -12390.299164 kJ/mol
# Density = 1.899063 g / cm^3
# Si number density = 19.033952 Si / 1000 Ang^3
#
#
#
# Elastic Constant Matrix: (Units=GPa)
#
#
# Indices 1 2 3 4 5 6 
#
# 1 121.2410 40.9341 32.7768 0.0000 -0.0001 0.0000
# 2 40.9341 88.7054 20.4758 0.0000 -0.0003 0.0000
# 3 32.7768 20.4758 80.1205 0.0000 -0.0007 0.0000
# 4 0.0000 0.0000 0.0000 20.4107 -0.0004 0.0000
# 5 -0.0001 -0.0003 -0.0007 -0.0004-5375.3489 0.0002
# 6 0.0000 0.0000 0.0000 0.0000 0.0002 32.2251
#
#
#
# Elastic Compliance Matrix: (Units=1/GPa)
#
#
# Indices 1 2 3 4 5 6 
#
# 1 0.010512 -0.004100 -0.003252 0.000000 0.000000 0.000000
# 2 -0.004100 0.013579 -0.001793 0.000000 0.000000 0.000000
# 3 -0.003252 -0.001793 0.014270 0.000000 0.000000 0.000000
# 4 0.000000 0.000000 0.000000 0.048994 0.000000 0.000000
# 5 0.000000 0.000000 0.000000 0.000000 -0.000186 0.000000
# 6 0.000000 0.000000 0.000000 0.000000 0.000000 0.031032
#
#
# Mechanical properties :
#
#
# Convention : Reuss Voigt Hill
#
# Bulk Modulus (GPa) = 49.82601 53.16004 51.49302
# Shear Modulus (GPa) = 34.92083 -1051.48395 -508.28156
#
# Velocity S-wave (km/s) = 4.28794 -23.52923 -16.35907
# Velocity P-wave (km/s) = 7.12387 26.64914 18.15802
#
# Compressibility (1/GPa) = 0.02006984
#
# Stress axis : x y z
#
# Youngs Moduli (GPa) = 95.13349 73.64254 70.07711
#
# Poissons Ratio (x) = 0.30193 0.22792
# Poissons Ratio (y) = 0.39004 0.12565
# Poissons Ratio (z) = 0.30941 0.13205
#
# Static dielectric constant tensor:
#      x y z
#    x 3.604770 0.000000 0.000000 
#    y 0.000000 3.827140 0.000000 
#    z 0.000000 0.000000 3.351100 
# 
# 
# High freq. dielectric constant tensor:
#      x y z
#    x 1.746810 0.000000 0.000000 
#    y 0.000000 1.732670 0.000000 
#    z 0.000000 0.000000 1.733410 
# 
# From -- ./inp_files/53455.got.cif
#   From: 2010.06.25/outbox.cif.g09.slc.cpg/sg71_27_cif.got.tgz:53455.got - 2010.06.28 04:59:45.
