data_PCOD8290662
_publ_section_title
;
Structure prediction by ZEFSAII (Michael W. Deem and Ramdas Pophale) SiO2 
 PCOD8290662
Probable space group: I M M M
;
_chemical_formula_sum "Si O2"
_cell_formula_units_Z 120
_cell_length_a 15.056479
_cell_length_b 19.553290
_cell_length_c 21.506080
_cell_angle_alpha 90.000000
_cell_angle_beta 90.000000
_cell_angle_gamma 90.000000
_cell_volume 6331.469530
_symmetry_space_group_name_H-M "I M M M"
_symmetry_group_IT_number 71
_symmetry_cell_setting 'orthorhombic'
loop_
_space_group_symop_operation_xyz
x,y,z
-x,-y,z
x,-y,-z
-x,y,-z
-x,-y,-z
x,y,-z
-x,y,z
x,-y,z
1/2+x,1/2+y,1/2+z
1/2-x,1/2-y,1/2+z
1/2+x,1/2-y,1/2-z
1/2-x,1/2+y,1/2-z
1/2-x,1/2-y,1/2-z
1/2+x,1/2+y,1/2-z
1/2-x,1/2+y,1/2+z
1/2+x,1/2-y,1/2+z
loop_
_atom_site_type_symbol
_atom_site_label
_atom_site_fract_x
_atom_site_fract_y
_atom_site_fract_z
Si Si1 0.149416 0.675916 0.122712
Si Si2 0.000000 0.577534 0.927589
Si Si3 0.225832 0.426922 0.214436
Si Si4 0.599957 0.858066 0.928307
Si Si5 0.901244 0.868084 0.690953
Si Si6 0.664323 0.294058 0.929386
Si Si7 0.248508 0.923830 0.145744
Si Si8 0.901098 0.180137 0.825064
O O1 0.183159 0.639195 0.184492
O O2 0.230348 0.693591 0.076856
O O3 0.102671 0.744747 0.145197
O O4 0.085454 0.621937 0.089985
O O5 0.000000 0.500000 0.897773
O O6 0.000000 0.567159 0.000000
O O7 0.187510 0.500000 0.190211
O O8 0.331394 0.429121 0.199500
O O9 0.207695 0.419650 0.286804
O O10 0.500000 0.862906 0.899292
O O11 0.641134 0.783965 0.917091
O O12 0.668874 0.911123 0.899410
O O13 0.593318 0.876219 0.000000
O O14 0.889481 0.834237 0.623320
O O15 0.884848 0.816443 0.750011
O O16 0.000000 0.898826 0.693894
O O17 0.636064 0.315773 0.000000
O O18 0.168348 0.869443 0.139733
O O19 0.210562 0.000000 0.132477
O O20 0.000000 0.151519 0.838072
#
# Coordination Sequence:
#
# PCOD8290662 Si02
#       8
#    16   8  16  16  16  16  16  16
#     4  11  20  36  60  81 110 145 189 237 284 338
#     4  11  24  40  58  84 117 151 188 232 291 358
#     4   9  20  35  54  81 114 147 182 228 283 341
#     4  10  21  36  55  80 113 152 193 237 284 340
#     4   9  19  32  54  83 112 144 185 227 283 332
#     4  10  20  34  55  82 112 147 189 234 282 333
#     4  10  21  38  58  82 116 153 189 235 290 345
#     4  10  20  36  59  89 113 144 189 239 290 343
#
# _framework density 18.952946000000001
#
# number of rings (size 3 to 8) (size 9 to 14) (size 15 to 20)
#    0.000    2.067    2.000    1.200    1.867    3.467 
#    1.200    3.333    0.000    3.600    0.000    4.667 
#    0.000    0.000    0.000    0.000    0.000    0.000 
#
# Total GULP energy -743491.921596 kJ/mol
# GULP energy per Si atom -12391.532027 kJ/mol
# Density = 1.890981 g / cm^3
# Si number density = 18.952946 Si / 1000 Ang^3
#
#
#
# Elastic Constant Matrix: (Units=GPa)
#
#
# Indices 1 2 3 4 5 6 
#
# 1 123.2515 44.6402 26.8780 0.0000 0.0000 0.0000
# 2 44.6402 109.2596 31.9385 0.0000 0.0000 0.0000
# 3 26.8780 31.9385 56.4862 0.0000 0.0000 0.0000
# 4 0.0000 0.0000 0.0000 13.9642 0.0000 0.0000
# 5 0.0000 0.0000 0.0000 0.0000 22.8817 0.0000
# 6 0.0000 0.0000 0.0000 0.0000 0.0000 29.4423
#
#
#
# Elastic Compliance Matrix: (Units=1/GPa)
#
#
# Indices 1 2 3 4 5 6 
#
# 1 0.009905 -0.003198 -0.002905 0.000000 0.000000 0.000000
# 2 -0.003198 0.011997 -0.005262 0.000000 0.000000 0.000000
# 3 -0.002905 -0.005262 0.022061 0.000000 0.000000 0.000000
# 4 0.000000 0.000000 0.000000 0.071612 0.000000 0.000000
# 5 0.000000 0.000000 0.000000 0.000000 0.043703 0.000000
# 6 0.000000 0.000000 0.000000 0.000000 0.000000 0.033965
#
#
# Mechanical properties :
#
#
# Convention : Reuss Voigt Hill
#
# Bulk Modulus (GPa) = 47.09465 55.10120 51.09792
# Shear Modulus (GPa) = 22.41645 25.62701 24.02173
#
# Velocity S-wave (km/s) = 3.44283 3.68113 3.56398
# Velocity P-wave (km/s) = 6.38015 6.87047 6.62984
#
# Compressibility (1/GPa) = 0.02123384
#
# Stress axis : x y z
#
# Youngs Moduli (GPa) = 100.95688 83.35313 45.32888
#
# Poissons Ratio (x) = 0.26654 0.13169
# Poissons Ratio (y) = 0.32283 0.23851
# Poissons Ratio (z) = 0.29330 0.43859
#
# Static dielectric constant tensor:
#      x y z
#    x 3.831490 0.000000 0.000000 
#    y 0.000000 3.441840 0.000000 
#    z 0.000000 0.000000 3.429730 
# 
# 
# High freq. dielectric constant tensor:
#      x y z
#    x 1.743630 0.000000 0.000000 
#    y 0.000000 1.729900 0.000000 
#    z 0.000000 0.000000 1.729360 
# 
# From -- ./inp_files/53430.got.cif
#   From: 2010.06.25/outbox.cif.g09.slc.cpg/sg71_27_cif.got.tgz:53430.got - 2010.06.28 04:59:45.
