data_PCOD8290940
_publ_section_title
;
Structure prediction by ZEFSAII (Michael W. Deem and Ramdas Pophale) SiO2 
 PCOD8290940
Probable space group: I M M M
;
_chemical_formula_sum "Si O2"
_cell_formula_units_Z 88
_cell_length_a 16.053298
_cell_length_b 22.116636
_cell_length_c 12.710866
_cell_angle_alpha 90.000000
_cell_angle_beta 90.000000
_cell_angle_gamma 90.000000
_cell_volume 4512.928764
_symmetry_space_group_name_H-M "I M M M"
_symmetry_group_IT_number 71
_symmetry_cell_setting 'orthorhombic'
loop_
_space_group_symop_operation_xyz
x,y,z
-x,-y,z
x,-y,-z
-x,y,-z
-x,-y,-z
x,y,-z
-x,y,z
x,-y,z
1/2+x,1/2+y,1/2+z
1/2-x,1/2-y,1/2+z
1/2+x,1/2-y,1/2-z
1/2-x,1/2+y,1/2-z
1/2-x,1/2-y,1/2-z
1/2+x,1/2+y,1/2-z
1/2-x,1/2+y,1/2+z
1/2+x,1/2-y,1/2+z
loop_
_atom_site_type_symbol
_atom_site_label
_atom_site_fract_x
_atom_site_fract_y
_atom_site_fract_z
Si Si1 0.664951 0.068352 0.614786
Si Si2 0.325469 0.377652 0.807018
Si Si3 0.090835 0.430607 0.331013
Si Si4 0.901533 0.000000 0.378006
Si Si5 0.092675 0.241314 0.622610
Si Si6 0.277692 0.838408 0.117500
O O1 0.623663 0.078481 0.500000
O O2 0.739817 0.115932 0.628277
O O3 0.596854 0.078788 0.704769
O O4 0.701758 0.000000 0.624166
O O5 0.372412 0.441624 0.811371
O O6 0.384766 0.328326 0.859229
O O7 0.302128 0.355255 0.688781
O O8 0.100542 0.500000 0.362171
O O9 0.162478 0.396262 0.392887
O O10 0.000000 0.406313 0.365457
O O11 0.867909 0.000000 0.500000
O O12 0.000000 0.000000 0.380822
O O13 0.088723 0.255095 0.500000
O O14 0.165475 0.284704 0.669474
O O15 0.000000 0.253898 0.671187
O O16 0.245425 0.821751 0.000000
#
# Coordination Sequence:
#
# PCOD8290940 Si02
#       6
#    16  16  16   8  16  16
#     4   9  16  27  45  70 103 140 171 209 263 325
#     4  11  20  34  55  82 113 146 182 225 273 328
#     4   9  18  31  47  71 100 133 178 229 276 318
#     4  11  22  36  59  91 120 143 173 221 279 333
#     4  10  20  35  57  84 111 140 177 226 282 331
#     4  10  22  37  54  76 106 146 190 229 266 317
#
# _framework density 19.499531000000001
#
# number of rings (size 3 to 8) (size 9 to 14) (size 15 to 20)
#    0.000    2.091    0.909    3.273    1.273    3.273 
#    0.000    2.727    0.000    2.727    0.000    0.000 
#    0.000    0.000    0.000    0.000    0.000    0.000 
#
# Total GULP energy -545330.443947 kJ/mol
# GULP energy per Si atom -12393.873726 kJ/mol
# Density = 1.945515 g / cm^3
# Si number density = 19.499531 Si / 1000 Ang^3
#
#
#
# Elastic Constant Matrix: (Units=GPa)
#
#
# Indices 1 2 3 4 5 6 
#
# 1 64.0321 29.3269 12.9305 0.0000 0.0000 0.0000
# 2 29.3269 97.2594 19.9425 0.0000 0.0000 0.0000
# 3 12.9305 19.9425 69.5167 0.0001 0.0000 0.0000
# 4 0.0000 0.0000 0.0001 20.4588 0.0000 0.0000
# 5 0.0000 0.0000 0.0000 0.0000 19.5448 0.0000
# 6 0.0000 0.0000 0.0000 0.0000 0.0000 24.4281
#
#
#
# Elastic Compliance Matrix: (Units=1/GPa)
#
#
# Indices 1 2 3 4 5 6 
#
# 1 0.018363 -0.005139 -0.001941 0.000000 0.000000 0.000000
# 2 -0.005139 0.012363 -0.002591 0.000000 0.000000 0.000000
# 3 -0.001941 -0.002591 0.015489 0.000000 0.000000 0.000000
# 4 0.000000 0.000000 0.000000 0.048879 0.000000 0.000000
# 5 0.000000 0.000000 0.000000 0.000000 0.051164 0.000000
# 6 0.000000 0.000000 0.000000 0.000000 0.000000 0.040936
#
#
# Mechanical properties :
#
#
# Convention : Reuss Voigt Hill
#
# Bulk Modulus (GPa) = 37.21227 39.46757 38.33992
# Shear Modulus (GPa) = 23.20254 24.12691 23.66473
#
# Velocity S-wave (km/s) = 3.45324 3.52135 3.48746
# Velocity P-wave (km/s) = 5.91819 6.06774 5.99343
#
# Compressibility (1/GPa) = 0.02687285
#
# Stress axis : x y z
#
# Youngs Moduli (GPa) = 54.45782 80.88958 64.56067
#
# Poissons Ratio (x) = 0.41569 0.12534
# Poissons Ratio (y) = 0.27986 0.16725
# Poissons Ratio (z) = 0.10572 0.20955
#
# Static dielectric constant tensor:
#      x y z
#    x 3.496730 0.000000 0.000000 
#    y 0.000000 3.582950 0.000000 
#    z 0.000000 0.000000 3.460800 
# 
# 
# High freq. dielectric constant tensor:
#      x y z
#    x 1.743910 0.000000 0.000000 
#    y 0.000000 1.763270 0.000000 
#    z 0.000000 0.000000 1.739180 
# 
# From -- ./inp_files/23946.got.cif
#   From: 2010.06.25/outbox.cif.g09.slc.cpg/sg71_12_cif.got.tgz:23946.got - 2010.06.28 04:59:45.
