data_PCOD8290942
_publ_section_title
;
Structure prediction by ZEFSAII (Michael W. Deem and Ramdas Pophale) SiO2 
 PCOD8290942
Probable space group: I M M M
;
_chemical_formula_sum "Si O2"
_cell_formula_units_Z 96
_cell_length_a 12.967067
_cell_length_b 25.536959
_cell_length_c 15.364507
_cell_angle_alpha 90.000000
_cell_angle_beta 90.000000
_cell_angle_gamma 90.000000
_cell_volume 5087.794525
_symmetry_space_group_name_H-M "I M M M"
_symmetry_group_IT_number 71
_symmetry_cell_setting 'orthorhombic'
loop_
_space_group_symop_operation_xyz
x,y,z
-x,-y,z
x,-y,-z
-x,y,-z
-x,-y,-z
x,y,-z
-x,y,z
x,-y,z
1/2+x,1/2+y,1/2+z
1/2-x,1/2-y,1/2+z
1/2+x,1/2-y,1/2-z
1/2-x,1/2+y,1/2-z
1/2-x,1/2-y,1/2-z
1/2+x,1/2+y,1/2-z
1/2-x,1/2+y,1/2+z
1/2+x,1/2-y,1/2+z
loop_
_atom_site_type_symbol
_atom_site_label
_atom_site_fract_x
_atom_site_fract_y
_atom_site_fract_z
Si Si1 0.883849 0.911011 0.398879
Si Si2 0.877254 0.938000 0.000000
Si Si3 0.500000 0.062399 0.596588
Si Si4 0.383006 0.689855 0.790379
Si Si5 0.881512 0.284124 0.596232
Si Si6 0.192710 0.558181 0.795810
Si Si7 0.264402 0.628429 0.353503
O O1 0.857884 0.915071 0.500000
O O2 0.873141 0.851398 0.368612
O O3 0.801456 0.945360 0.346549
O O4 0.000000 0.931898 0.379585
O O5 0.834514 0.908324 0.085270
O O6 0.000000 0.932817 0.000000
O O7 0.845684 0.000000 0.000000
O O8 0.500000 0.086697 0.500000
O O9 0.397221 0.083124 0.644592
O O10 0.500000 0.000000 0.591254
O O11 0.500000 0.699632 0.763738
O O12 0.337365 0.743848 0.830658
O O13 0.330015 0.669649 0.702900
O O14 0.873347 0.258544 0.500000
O O15 0.816624 0.337590 0.592684
O O16 0.000000 0.297950 0.617499
O O17 0.160782 0.500000 0.768011
O O18 0.199136 0.591402 0.708960
#
# Coordination Sequence:
#
# PCOD8290942 Si02
#       7
#    16   8   8  16  16  16  16
#     4   9  17  30  50  78 110 140 174 223 281 343
#     4  11  24  42  63  85 117 161 204 252 306 361
#     4   9  18  34  54  75 103 145 193 232 284 354
#     4   9  18  33  55  83 111 143 180 226 284 349
#     4  10  20  35  57  84 112 144 184 230 288 354
#     4  10  21  34  51  75 106 145 190 240 287 343
#     4  11  21  37  57  83 112 147 196 243 291 348
#
# _framework density 18.868687000000001
#
# number of rings (size 3 to 8) (size 9 to 14) (size 15 to 20)
#    0.000    2.167    0.833    2.500    1.167    4.000 
#    0.000    0.833    0.000    0.500    0.000    0.000 
#    0.000    0.000    0.000    0.000    0.000    0.000 
#
# Total GULP energy -594980.825685 kJ/mol
# GULP energy per Si atom -12395.433868 kJ/mol
# Density = 1.882574 g / cm^3
# Si number density = 18.868687 Si / 1000 Ang^3
#
#
#
# Elastic Constant Matrix: (Units=GPa)
#
#
# Indices 1 2 3 4 5 6 
#
# 1 90.0372 43.8407 46.0018 0.0000 0.0000 0.0000
# 2 43.8407 92.7288 47.3544 0.0002 0.0000 -0.0001
# 3 46.0018 47.3544 114.7907 -0.0002 0.0001 0.0000
# 4 0.0000 0.0002 -0.0002 26.9967 0.0000 -0.0001
# 5 0.0000 0.0000 0.0001 0.0000 29.5450 0.0000
# 6 0.0000 -0.0001 0.0000 -0.0001 0.0000 26.0111
#
#
#
# Elastic Compliance Matrix: (Units=1/GPa)
#
#
# Indices 1 2 3 4 5 6 
#
# 1 0.015834 -0.005379 -0.004126 0.000000 0.000000 0.000000
# 2 -0.005379 0.015489 -0.004234 0.000000 0.000000 0.000000
# 3 -0.004126 -0.004234 0.012112 0.000000 0.000000 0.000000
# 4 0.000000 0.000000 0.000000 0.037042 0.000000 0.000000
# 5 0.000000 0.000000 0.000000 0.000000 0.033847 0.000000
# 6 0.000000 0.000000 0.000000 0.000000 0.000000 0.038445
#
#
# Mechanical properties :
#
#
# Convention : Reuss Voigt Hill
#
# Bulk Modulus (GPa) = 62.67148 63.55005 63.11077
# Shear Modulus (GPa) = 26.94455 27.20122 27.07288
#
# Velocity S-wave (km/s) = 3.78299 3.80097 3.79199
# Velocity P-wave (km/s) = 7.23658 7.28124 7.25894
#
# Compressibility (1/GPa) = 0.01595622
#
# Stress axis : x y z
#
# Youngs Moduli (GPa) = 63.15618 64.55999 82.56309
#
# Poissons Ratio (x) = 0.34725 0.34069
# Poissons Ratio (y) = 0.33970 0.34960
# Poissons Ratio (z) = 0.26061 0.27337
#
# Static dielectric constant tensor:
#      x y z
#    x 3.521620 0.000000 0.000000 
#    y 0.000000 3.370780 0.000000 
#    z 0.000000 0.000000 3.436710 
# 
# 
# High freq. dielectric constant tensor:
#      x y z
#    x 1.733240 0.000000 0.000000 
#    y 0.000000 1.722010 0.000000 
#    z 0.000000 0.000000 1.735240 
# 
# From -- ./inp_files/33212.got.cif
#   From: 2010.06.25/outbox.cif.g09.slc.cpg/sg71_17_cif.got.tgz:33212.got - 2010.06.28 04:59:45.
