data_PCOD8290683
_publ_section_title
;
Structure prediction by ZEFSAII (Michael W. Deem and Ramdas Pophale) SiO2 
 PCOD8290683
Probable space group: I M M M
;
_chemical_formula_sum "Si O2"
_cell_formula_units_Z 104
_cell_length_a 21.008014
_cell_length_b 28.211249
_cell_length_c 8.889710
_cell_angle_alpha 90.000000
_cell_angle_beta 90.000000
_cell_angle_gamma 90.000000
_cell_volume 5268.596099
_symmetry_space_group_name_H-M "I M M M"
_symmetry_group_IT_number 71
_symmetry_cell_setting 'orthorhombic'
loop_
_space_group_symop_operation_xyz
x,y,z
-x,-y,z
x,-y,-z
-x,y,-z
-x,-y,-z
x,y,-z
-x,y,z
x,-y,z
1/2+x,1/2+y,1/2+z
1/2-x,1/2-y,1/2+z
1/2+x,1/2-y,1/2-z
1/2-x,1/2+y,1/2-z
1/2-x,1/2-y,1/2-z
1/2+x,1/2+y,1/2-z
1/2-x,1/2+y,1/2+z
1/2+x,1/2-y,1/2+z
loop_
_atom_site_type_symbol
_atom_site_label
_atom_site_fract_x
_atom_site_fract_y
_atom_site_fract_z
Si Si1 0.622669 0.900395 0.824484
Si Si2 0.329652 0.295778 0.674021
Si Si3 0.739718 0.055753 0.667202
Si Si4 0.571344 0.363729 0.827211
Si Si5 0.367349 0.445817 0.323690
Si Si6 0.184643 0.698535 0.326525
Si Si7 0.500000 0.945318 0.321564
O O1 0.680952 0.932370 0.772757
O O2 0.639233 0.845737 0.789243
O O3 0.560849 0.916692 0.735250
O O4 0.610691 0.908588 0.000000
O O5 0.347226 0.301429 0.500000
O O6 0.379408 0.325008 0.770371
O O7 0.258275 0.314701 0.707171
O O8 0.336856 0.240987 0.719547
O O9 0.732165 0.078183 0.500000
O O10 0.803975 0.074412 0.744250
O O11 0.743971 0.000000 0.653886
O O12 0.500000 0.343793 0.805748
O O13 0.575813 0.412783 0.734167
O O14 0.586033 0.375093 0.000000
O O15 0.357445 0.440002 0.500000
O O16 0.382793 0.500000 0.280236
O O17 0.177818 0.714330 0.500000
O O18 0.500000 0.945036 0.500000
O O19 0.500000 0.000000 0.263108
#
# Coordination Sequence:
#
# PCOD8290683 Si02
#       7
#    16  16  16  16  16  16   8
#     4  11  22  37  59  86 115 153 197 243 297 355
#     4  10  20  37  63  91 117 149 190 237 288 346
#     4  10  20  34  55  84 117 152 190 236 290 345
#     4  11  24  40  58  82 115 157 196 233 284 343
#     4  10  21  37  58  85 116 150 192 243 290 335
#     4   9  20  38  60  88 119 147 183 235 294 349
#     4  11  25  43  59  79 115 159 203 253 306 363
#
# _framework density 19.739602999999999
#
# number of rings (size 3 to 8) (size 9 to 14) (size 15 to 20)
#    0.000    1.769    0.000    3.923    0.000    8.923 
#    1.385    1.538    0.000    0.000    0.000    0.000 
#    0.000    0.000    0.000    0.000    0.000    0.000 
#
# Total GULP energy -644945.837359 kJ/mol
# GULP energy per Si atom -12402.804565 kJ/mol
# Density = 1.969467 g / cm^3
# Si number density = 19.739603 Si / 1000 Ang^3
#
#
#
# Elastic Constant Matrix: (Units=GPa)
#
#
# Indices 1 2 3 4 5 6 
#
# 1 97.8758 57.0893 33.6984 0.0000 0.0000 0.0000
# 2 57.0893 81.8846 43.9228 0.0000 0.0000 0.0000
# 3 33.6984 43.9228 73.8612 0.0000 0.0000 0.0000
# 4 0.0000 0.0000 0.0000 36.3140 0.0000 0.0000
# 5 0.0000 0.0000 0.0000 0.0000 31.8292 0.0000
# 6 0.0000 0.0000 0.0000 0.0000 0.0000 23.4050
#
#
#
# Elastic Compliance Matrix: (Units=1/GPa)
#
#
# Indices 1 2 3 4 5 6 
#
# 1 0.017275 -0.011478 -0.001056 0.000000 0.000000 0.000000
# 2 -0.011478 0.025558 -0.009962 0.000000 0.000000 0.000000
# 3 -0.001056 -0.009962 0.019945 0.000000 0.000000 0.000000
# 4 0.000000 0.000000 0.000000 0.027538 0.000000 0.000000
# 5 0.000000 0.000000 0.000000 0.000000 0.031418 0.000000
# 6 0.000000 0.000000 0.000000 0.000000 0.000000 0.042726
#
#
# Mechanical properties :
#
#
# Convention : Reuss Voigt Hill
#
# Bulk Modulus (GPa) = 56.22263 58.11586 57.16924
# Shear Modulus (GPa) = 23.21475 26.23706 24.72590
#
# Velocity S-wave (km/s) = 3.43308 3.64972 3.54305
# Velocity P-wave (km/s) = 6.65272 6.87501 6.76478
#
# Compressibility (1/GPa) = 0.01778643
#
# Stress axis : x y z
#
# Youngs Moduli (GPa) = 57.88556 39.12666 50.13816
#
# Poissons Ratio (x) = 0.44908 0.05296
# Poissons Ratio (y) = 0.66439 0.49947
# Poissons Ratio (z) = 0.06115 0.38978
#
# Static dielectric constant tensor:
#      x y z
#    x 3.748460 0.000000 0.000000 
#    y 0.000000 3.579290 0.000000 
#    z 0.000000 0.000000 3.770200 
# 
# 
# High freq. dielectric constant tensor:
#      x y z
#    x 1.763780 0.000000 0.000000 
#    y 0.000000 1.770480 0.000000 
#    z 0.000000 0.000000 1.783660 
# 
# From -- ./inp_files/11057.got.cif
#   From: 2010.06.25/outbox.cif.g09.slc.cpg/sg71_6_cif.got.tgz:11057.got - 2010.06.28 04:59:45.
