data_PCOD8290312
_publ_section_title
;
Structure prediction by ZEFSAII (Michael W. Deem and Ramdas Pophale) SiO2 
 PCOD8290312
Probable space group: I M M M
;
_chemical_formula_sum "Si O2"
_cell_formula_units_Z 88
_cell_length_a 16.497787
_cell_length_b 10.394132
_cell_length_c 26.479592
_cell_angle_alpha 90.000000
_cell_angle_beta 90.000000
_cell_angle_gamma 90.000000
_cell_volume 4540.725091
_symmetry_space_group_name_H-M "I M M M"
_symmetry_group_IT_number 71
_symmetry_cell_setting 'orthorhombic'
loop_
_space_group_symop_operation_xyz
x,y,z
-x,-y,z
x,-y,-z
-x,y,-z
-x,-y,-z
x,y,-z
-x,y,z
x,-y,z
1/2+x,1/2+y,1/2+z
1/2-x,1/2-y,1/2+z
1/2+x,1/2-y,1/2-z
1/2-x,1/2+y,1/2-z
1/2-x,1/2-y,1/2-z
1/2+x,1/2+y,1/2-z
1/2-x,1/2+y,1/2+z
1/2+x,1/2-y,1/2+z
loop_
_atom_site_type_symbol
_atom_site_label
_atom_site_fract_x
_atom_site_fract_y
_atom_site_fract_z
Si Si1 0.407558 0.852373 0.214884
Si Si2 0.593117 0.850900 0.413794
Si Si3 0.826502 0.781170 0.627777
Si Si4 0.213373 0.142636 0.944692
Si Si5 0.903639 0.000000 0.559807
Si Si6 0.329215 0.145816 0.313337
O O1 0.500000 0.837383 0.232532
O O2 0.396833 0.777008 0.162325
O O3 0.350276 0.788835 0.259120
O O4 0.384584 0.000000 0.203954
O O5 0.500000 0.837177 0.428823
O O6 0.644451 0.752751 0.447447
O O7 0.608410 0.805637 0.356218
O O8 0.622214 0.000000 0.421947
O O9 0.781837 0.669830 0.596648
O O10 0.762441 0.842765 0.667028
O O11 0.864297 0.877843 0.587196
O O12 0.176813 0.000000 0.932977
O O13 0.254221 0.142228 0.000000
O O14 0.881682 0.000000 0.500000
O O15 0.000000 0.000000 0.567433
O O16 0.351264 0.000000 0.302412
#
# Coordination Sequence:
#
# PCOD8290312 Si02
#       6
#    16  16  16  16   8  16
#     4  10  20  33  54  82 112 145 183 226 279 348
#     4   9  18  33  55  82 114 151 192 240 290 346
#     4  11  20  37  57  81 109 148 189 240 288 347
#     4  10  22  37  54  78 109 148 193 243 297 350
#     4  11  24  40  60  86 115 151 197 249 307 354
#     4   9  17  32  54  83 111 145 185 229 281 342
#
# _framework density 19.380164000000001
#
# number of rings (size 3 to 8) (size 9 to 14) (size 15 to 20)
#    0.000    2.091    0.909    2.727    1.273    3.273 
#    0.000    1.818    2.000    0.000    0.000    7.636 
#    0.000    0.000    0.000    0.000    0.000    0.000 
#
# Total GULP energy -545192.534150 kJ/mol
# GULP energy per Si atom -12390.739413 kJ/mol
# Density = 1.933605 g / cm^3
# Si number density = 19.380164 Si / 1000 Ang^3
#
#
#
# Elastic Constant Matrix: (Units=GPa)
#
#
# Indices 1 2 3 4 5 6 
#
# 1 87.7908 31.8955 45.5953 0.0000 0.0000 0.0000
# 2 31.8955 90.8182 48.5964 0.0000 0.0000 0.0000
# 3 45.5953 48.5964 133.8194 0.0000 0.0000 0.0000
# 4 0.0000 0.0000 0.0000 29.5200 0.0000 0.0000
# 5 0.0000 0.0000 0.0000 0.0000 27.1948 0.0000
# 6 0.0000 0.0000 0.0000 0.0000 0.0000 24.8908
#
#
#
# Elastic Compliance Matrix: (Units=1/GPa)
#
#
# Indices 1 2 3 4 5 6 
#
# 1 0.014484 -0.003036 -0.003833 0.000000 0.000000 0.000000
# 2 -0.003036 0.014303 -0.004160 0.000000 0.000000 0.000000
# 3 -0.003833 -0.004160 0.010289 0.000000 0.000000 0.000000
# 4 0.000000 0.000000 0.000000 0.033875 0.000000 0.000000
# 5 0.000000 0.000000 0.000000 0.000000 0.036772 0.000000
# 6 0.000000 0.000000 0.000000 0.000000 0.000000 0.040175
#
#
# Mechanical properties :
#
#
# Convention : Reuss Voigt Hill
#
# Bulk Modulus (GPa) = 58.75492 62.73364 60.74428
# Shear Modulus (GPa) = 28.14853 28.74386 28.44619
#
# Velocity S-wave (km/s) = 3.81522 3.85536 3.83534
# Velocity P-wave (km/s) = 7.05626 7.22902 7.14316
#
# Compressibility (1/GPa) = 0.01701985
#
# Stress axis : x y z
#
# Youngs Moduli (GPa) = 69.04049 69.91474 97.18936
#
# Poissons Ratio (x) = 0.21227 0.37248
# Poissons Ratio (y) = 0.20961 0.40428
# Poissons Ratio (z) = 0.26460 0.29082
#
# Static dielectric constant tensor:
#      x y z
#    x 3.366120 0.000000 0.000000 
#    y 0.000000 3.513860 0.000000 
#    z 0.000000 0.000000 3.731750 
# 
# 
# High freq. dielectric constant tensor:
#      x y z
#    x 1.741330 0.000000 0.000000 
#    y 0.000000 1.737070 0.000000 
#    z 0.000000 0.000000 1.771700 
# 
# From -- ./inp_files/59687.got.cif
#   From: 2010.06.25/outbox.cif.g09.slc.cpg/sg71_30_cif.got.tgz:59687.got - 2010.06.28 04:59:45.
