data_PCOD8290238
_publ_section_title
;
Structure prediction by ZEFSAII (Michael W. Deem and Ramdas Pophale) SiO2 
 PCOD8290238
Probable space group: I M M M
;
_chemical_formula_sum "Si O2"
_cell_formula_units_Z 112
_cell_length_a 15.026450
_cell_length_b 14.990222
_cell_length_c 27.190741
_cell_angle_alpha 90.000000
_cell_angle_beta 90.000000
_cell_angle_gamma 90.000000
_cell_volume 6124.709553
_symmetry_space_group_name_H-M "I M M M"
_symmetry_group_IT_number 71
_symmetry_cell_setting 'orthorhombic'
loop_
_space_group_symop_operation_xyz
x,y,z
-x,-y,z
x,-y,-z
-x,y,-z
-x,-y,-z
x,y,-z
-x,y,z
x,-y,z
1/2+x,1/2+y,1/2+z
1/2-x,1/2-y,1/2+z
1/2+x,1/2-y,1/2-z
1/2-x,1/2+y,1/2-z
1/2-x,1/2-y,1/2-z
1/2+x,1/2+y,1/2-z
1/2-x,1/2+y,1/2+z
1/2+x,1/2-y,1/2+z
loop_
_atom_site_type_symbol
_atom_site_label
_atom_site_fract_x
_atom_site_fract_y
_atom_site_fract_z
Si Si1 0.230665 0.099172 0.084467
Si Si2 0.600191 0.194596 0.054743
Si Si3 0.398283 0.101614 0.634541
Si Si4 0.600434 0.268918 0.843374
Si Si5 0.697480 0.898927 0.811889
Si Si6 0.758859 0.897622 0.705637
Si Si7 0.101219 0.254230 0.944501
O O1 0.329106 0.115506 0.062336
O O2 0.232165 0.108162 0.143581
O O3 0.160504 0.167453 0.062772
O O4 0.201309 0.000000 0.068791
O O5 0.500000 0.155328 0.060351
O O6 0.615946 0.268870 0.097284
O O7 0.612590 0.236945 0.000000
O O8 0.500000 0.120170 0.650515
O O9 0.336801 0.122239 0.681307
O O10 0.367632 0.165041 0.590109
O O11 0.386499 0.000000 0.616337
O O12 0.500000 0.296468 0.830416
O O13 0.617358 0.169894 0.821575
O O14 0.665324 0.339820 0.819395
O O15 0.750948 0.872114 0.762843
O O16 0.658802 0.000000 0.807502
O O17 0.786773 0.000000 0.698674
O O18 0.000000 0.226655 0.933008
O O19 0.112034 0.288918 0.000000
#
# Coordination Sequence:
#
# PCOD8290238 Si02
#       7
#    16  16  16  16  16  16  16
#     4  10  20  34  51  71  99 135 170 204 244 293
#     4   9  18  32  50  73 100 130 166 208 252 294
#     4   9  18  33  54  78 100 126 164 208 254 300
#     4  10  20  33  52  77 104 137 171 203 245 297
#     4   9  19  35  53  73 100 133 168 210 257 295
#     4  10  20  35  54  76 105 136 166 206 251 297
#     4  10  21  35  51  73 101 132 165 204 250 298
#
# _framework density 18.286581000000002
#
# number of rings (size 3 to 8) (size 9 to 14) (size 15 to 20)
#    0.000    2.429    0.000    2.571    0.000    3.143 
#    0.000    9.286    0.000    3.857    0.000    2.000 
#    0.000    0.000    0.000    0.000    0.000    0.143 
#
# Total GULP energy -694258.955660 kJ/mol
# GULP energy per Si atom -12397.481351 kJ/mol
# Density = 1.824496 g / cm^3
# Si number density = 18.286581 Si / 1000 Ang^3
#
#
#
# Elastic Constant Matrix: (Units=GPa)
#
#
# Indices 1 2 3 4 5 6 
#
# 1 86.8346 46.6329 45.4838 0.0000 0.0000 0.0000
# 2 46.6329 75.0286 44.9852 0.0000 0.0000 0.0000
# 3 45.4838 44.9852 131.7982 0.0000 0.0000 0.0000
# 4 0.0000 0.0000 0.0000 21.3632 0.0000 0.0000
# 5 0.0000 0.0000 0.0000 0.0000 22.5347 0.0000
# 6 0.0000 0.0000 0.0000 0.0000 0.0000 20.8527
#
#
#
# Elastic Compliance Matrix: (Units=1/GPa)
#
#
# Indices 1 2 3 4 5 6 
#
# 1 0.018208 -0.009492 -0.003044 0.000000 0.000000 0.000000
# 2 -0.009492 0.021706 -0.004133 0.000000 0.000000 0.000000
# 3 -0.003044 -0.004133 0.010048 0.000000 0.000000 0.000000
# 4 0.000000 0.000000 0.000000 0.046810 0.000000 0.000000
# 5 0.000000 0.000000 0.000000 0.000000 0.044376 0.000000
# 6 0.000000 0.000000 0.000000 0.000000 0.000000 0.047955
#
#
# Mechanical properties :
#
#
# Convention : Reuss Voigt Hill
#
# Bulk Modulus (GPa) = 60.15083 63.09615 61.62349
# Shear Modulus (GPa) = 21.93156 23.38742 22.65949
#
# Velocity S-wave (km/s) = 3.46688 3.58011 3.52395
# Velocity P-wave (km/s) = 6.99933 7.18808 7.09433
#
# Compressibility (1/GPa) = 0.01662488
#
# Stress axis : x y z
#
# Youngs Moduli (GPa) = 54.92105 46.07070 99.51798
#
# Poissons Ratio (x) = 0.43730 0.30292
# Poissons Ratio (y) = 0.52130 0.41130
# Poissons Ratio (z) = 0.16717 0.19041
#
# Static dielectric constant tensor:
#      x y z
#    x 3.297060 0.000000 0.000000 
#    y 0.000000 3.270260 0.000000 
#    z 0.000000 0.000000 3.636780 
# 
# 
# High freq. dielectric constant tensor:
#      x y z
#    x 1.700410 0.000000 0.000000 
#    y 0.000000 1.693250 0.000000 
#    z 0.000000 0.000000 1.723270 
# 
# From -- ./inp_files/34842.got.cif
#   From: 2010.06.25/outbox.cif.g09.slc.cpg/sg71_18_cif.got.tgz:34842.got - 2010.06.28 04:59:45.
