data_PCOD8290356
_publ_section_title
;
Structure prediction by ZEFSAII (Michael W. Deem and Ramdas Pophale) SiO2 
 PCOD8290356
Probable space group: I M M M
;
_chemical_formula_sum "Si O2"
_cell_formula_units_Z 88
_cell_length_a 7.843141
_cell_length_b 30.225218
_cell_length_c 19.275079
_cell_angle_alpha 90.000000
_cell_angle_beta 90.000000
_cell_angle_gamma 90.000000
_cell_volume 4569.362690
_symmetry_space_group_name_H-M "I M M M"
_symmetry_group_IT_number 71
_symmetry_cell_setting 'orthorhombic'
loop_
_space_group_symop_operation_xyz
x,y,z
-x,-y,z
x,-y,-z
-x,y,-z
-x,-y,-z
x,y,-z
-x,y,z
x,-y,z
1/2+x,1/2+y,1/2+z
1/2-x,1/2-y,1/2+z
1/2+x,1/2-y,1/2-z
1/2-x,1/2+y,1/2-z
1/2-x,1/2-y,1/2-z
1/2+x,1/2+y,1/2-z
1/2-x,1/2+y,1/2+z
1/2+x,1/2-y,1/2+z
loop_
_atom_site_type_symbol
_atom_site_label
_atom_site_fract_x
_atom_site_fract_y
_atom_site_fract_z
Si Si1 0.500000 0.947844 0.923014
Si Si2 0.699678 0.448457 0.322070
Si Si3 0.191826 0.295260 0.284437
Si Si4 0.202357 0.162315 0.577202
Si Si5 0.691800 0.619863 0.212342
Si Si6 0.803616 0.238840 0.076954
O O1 0.324586 0.933471 0.884534
O O2 0.500000 0.000000 0.929552
O O3 0.500000 0.926386 0.000000
O O4 0.500000 0.437613 0.340260
O O5 0.721923 0.500000 0.304805
O O6 0.769970 0.421197 0.255187
O O7 0.250000 0.250000 0.250000
O O8 0.305895 0.335606 0.258164
O O9 0.203181 0.290808 0.367676
O O10 0.000000 0.306089 0.262598
O O11 0.253223 0.145459 0.500000
O O12 0.274968 0.128459 0.635977
O O13 0.285708 0.209363 0.593599
O O14 0.000000 0.168120 0.584086
O O15 0.500000 0.606078 0.197836
O O16 0.000000 0.225708 0.081763
O O17 0.730285 0.228847 0.000000
#
# Coordination Sequence:
#
# PCOD8290356 Si02
#       6
#     8  16  16  16  16  16
#     4   9  18  34  58  86 113 141 179 225 272 330
#     4   9  19  36  58  84 113 145 181 225 276 326
#     4  12  23  34  51  75 104 138 178 220 265 317
#     4   9  17  30  50  75 103 137 176 218 262 308
#     4  10  20  34  54  79 107 139 178 223 267 318
#     4  10  20  34  51  71  99 134 172 217 264 310
#
# _framework density 19.258704000000002
#
# number of rings (size 3 to 8) (size 9 to 14) (size 15 to 20)
#    0.000    2.091    1.818    2.182    1.273    1.455 
#    0.000    2.727    0.000    1.636    0.000    3.818 
#    0.000    2.182    0.000    0.182    0.000    0.000 
#
# Total GULP energy -545288.214216 kJ/mol
# GULP energy per Si atom -12392.913959 kJ/mol
# Density = 1.921487 g / cm^3
# Si number density = 19.258704 Si / 1000 Ang^3
#
#
#
# Elastic Constant Matrix: (Units=GPa)
#
#
# Indices 1 2 3 4 5 6 
#
# 1 59.2313 8.0627 24.3444 -0.0001 0.0000 0.0000
# 2 8.0627 62.6726 51.4250 0.0000 0.0000 0.0000
# 3 24.3444 51.4250 168.9815 -0.0002 0.0000 0.0000
# 4 -0.0001 0.0000 -0.0002 28.4960 0.0000 0.0000
# 5 0.0000 0.0000 0.0000 0.0000 22.4834 0.0000
# 6 0.0000 0.0000 0.0000 0.0000 0.0000 17.5800
#
#
#
# Elastic Compliance Matrix: (Units=1/GPa)
#
#
# Indices 1 2 3 4 5 6 
#
# 1 0.017948 -0.000250 -0.002510 0.000000 0.000000 0.000000
# 2 -0.000250 0.021270 -0.006437 0.000000 0.000000 0.000000
# 3 -0.002510 -0.006437 0.008238 0.000000 0.000000 0.000000
# 4 0.000000 0.000000 0.000000 0.035093 0.000000 0.000000
# 5 0.000000 0.000000 0.000000 0.000000 0.044477 0.000000
# 6 0.000000 0.000000 0.000000 0.000000 0.000000 0.056883
#
#
# Mechanical properties :
#
#
# Convention : Reuss Voigt Hill
#
# Bulk Modulus (GPa) = 34.40706 50.94995 42.67851
# Shear Modulus (GPa) = 23.58603 27.51543 25.55073
#
# Velocity S-wave (km/s) = 3.50336 3.78395 3.64636
# Velocity P-wave (km/s) = 5.85399 6.75308 6.31954
#
# Compressibility (1/GPa) = 0.02906380
#
# Stress axis : x y z
#
# Youngs Moduli (GPa) = 55.71503 47.01505 121.38455
#
# Poissons Ratio (x) = 0.01174 0.30465
# Poissons Ratio (y) = 0.01391 0.78134
# Poissons Ratio (z) = 0.13983 0.30263
#
# Static dielectric constant tensor:
#      x y z
#    x 3.498070 0.000000 0.000000 
#    y 0.000000 3.213890 0.000000 
#    z 0.000000 0.000000 4.489190 
# 
# 
# High freq. dielectric constant tensor:
#      x y z
#    x 1.748470 0.000000 0.000000 
#    y 0.000000 1.705680 0.000000 
#    z 0.000000 0.000000 1.761980 
# 
# From -- ./inp_files/8778.got.cif
#   From: 2010.06.25/outbox.cif.g09.slc.cpg/sg71_5_cif.got.tgz:8778.got - 2010.06.28 04:59:45.
