data_PCOD8290528
_publ_section_title
;
Structure prediction by ZEFSAII (Michael W. Deem and Ramdas Pophale) SiO2 
 PCOD8290528
Probable space group: I M M M
;
_chemical_formula_sum "Si O2"
_cell_formula_units_Z 96
_cell_length_a 9.037469
_cell_length_b 24.208970
_cell_length_c 24.066853
_cell_angle_alpha 90.000000
_cell_angle_beta 90.000000
_cell_angle_gamma 90.000000
_cell_volume 5265.534203
_symmetry_space_group_name_H-M "I M M M"
_symmetry_group_IT_number 71
_symmetry_cell_setting 'orthorhombic'
loop_
_space_group_symop_operation_xyz
x,y,z
-x,-y,z
x,-y,-z
-x,y,-z
-x,-y,-z
x,y,-z
-x,y,z
x,-y,z
1/2+x,1/2+y,1/2+z
1/2-x,1/2-y,1/2+z
1/2+x,1/2-y,1/2-z
1/2-x,1/2+y,1/2-z
1/2-x,1/2-y,1/2-z
1/2+x,1/2+y,1/2-z
1/2-x,1/2+y,1/2+z
1/2+x,1/2-y,1/2+z
loop_
_atom_site_type_symbol
_atom_site_label
_atom_site_fract_x
_atom_site_fract_y
_atom_site_fract_z
Si Si1 0.667632 0.213576 0.437997
Si Si2 0.829014 0.125834 0.840511
Si Si3 0.674858 0.763398 0.843472
Si Si4 0.670871 0.437614 0.769689
Si Si5 0.329191 0.936415 0.063917
Si Si6 0.167206 0.343407 0.168586
O O1 0.725244 0.200065 0.500000
O O2 0.500000 0.236969 0.439691
O O3 0.773533 0.259101 0.408553
O O4 0.671454 0.158301 0.399303
O O5 0.738054 0.179322 0.820014
O O6 0.803031 0.079661 0.793863
O O7 0.771964 0.102701 0.898865
O O8 0.000000 0.142110 0.846717
O O9 0.500000 0.762135 0.838050
O O10 0.743988 0.711156 0.809388
O O11 0.500000 0.432483 0.785904
O O12 0.728443 0.500000 0.776403
O O13 0.760713 0.399962 0.812138
O O14 0.500000 0.926195 0.079340
O O15 0.286535 0.000000 0.074597
O O16 0.299524 0.920873 0.000000
O O17 0.000000 0.339829 0.191326
#
# Coordination Sequence:
#
# PCOD8290528 Si02
#       6
#    16  16  16  16  16  16
#     4   8  16  33  55  80 111 143 177 219 267 322
#     4  11  22  36  54  79 110 145 186 228 274 326
#     4  10  20  34  53  80 110 142 178 219 269 323
#     4  10  22  39  58  80 108 143 183 230 277 324
#     4   9  19  36  55  75 103 140 183 232 281 326
#     4   9  19  36  57  83 110 143 183 222 274 331
#
# _framework density 18.231767999999999
#
# number of rings (size 3 to 8) (size 9 to 14) (size 15 to 20)
#    1.000    1.500    0.000    3.000    0.000    4.667 
#    0.000    0.833    0.000    0.500    0.000    3.500 
#    0.000    0.000    0.000    0.000    0.000    0.000 
#
# Total GULP energy -594899.883463 kJ/mol
# GULP energy per Si atom -12393.747572 kJ/mol
# Density = 1.819027 g / cm^3
# Si number density = 18.231768 Si / 1000 Ang^3
#
#
#
# Elastic Constant Matrix: (Units=GPa)
#
#
# Indices 1 2 3 4 5 6 
#
# 1 116.0239 65.3348 23.1244 0.0000 0.0000 0.0000
# 2 65.3348 127.2220 23.6211 0.0000 0.0000 0.0000
# 3 23.1244 23.6211 21.6082 0.0000 0.0000 0.0000
# 4 0.0000 0.0000 0.0000 27.6645 0.0000 0.0000
# 5 0.0000 0.0000 0.0000 0.0000 25.4188 0.0000
# 6 0.0000 0.0000 0.0000 0.0000 0.0000 32.2812
#
#
#
# Elastic Compliance Matrix: (Units=1/GPa)
#
#
# Indices 1 2 3 4 5 6 
#
# 1 0.013253 -0.005235 -0.008460 0.000000 0.000000 0.000000
# 2 -0.005235 0.011930 -0.007439 0.000000 0.000000 0.000000
# 3 -0.008460 -0.007439 0.063464 0.000000 0.000000 0.000000
# 4 0.000000 0.000000 0.000000 0.036147 0.000000 0.000000
# 5 0.000000 0.000000 0.000000 0.000000 0.039341 0.000000
# 6 0.000000 0.000000 0.000000 0.000000 0.000000 0.030978
#
#
# Mechanical properties :
#
#
# Convention : Reuss Voigt Hill
#
# Bulk Modulus (GPa) = 21.56145 54.33496 37.94820
# Shear Modulus (GPa) = 19.77526 27.25781 23.51653
#
# Velocity S-wave (km/s) = 3.29699 3.87081 3.59537
# Velocity P-wave (km/s) = 5.13279 7.06007 6.17212
#
# Compressibility (1/GPa) = 0.04637908
#
# Stress axis : x y z
#
# Youngs Moduli (GPa) = 75.45349 83.82213 15.75698
#
# Poissons Ratio (x) = 0.43884 0.13330
# Poissons Ratio (y) = 0.39503 0.11721
# Poissons Ratio (z) = 0.63834 0.62352
#
# Static dielectric constant tensor:
#      x y z
#    x 3.306550 0.000000 0.000000 
#    y 0.000000 3.200680 0.000000 
#    z 0.000000 0.000000 3.226040 
# 
# 
# High freq. dielectric constant tensor:
#      x y z
#    x 1.710780 0.000000 0.000000 
#    y 0.000000 1.690700 0.000000 
#    z 0.000000 0.000000 1.695470 
# 
# From -- ./inp_files/63460.got.cif
#   From: 2010.06.25/outbox.cif.g09.slc.cpg/sg71_32_cif.got.tgz:63460.got - 2010.06.28 04:59:45.
