data_PCOD8290835
_publ_section_title
;
Structure prediction by ZEFSAII (Michael W. Deem and Ramdas Pophale) SiO2 
 PCOD8290835
Probable space group: I M M M
;
_chemical_formula_sum "Si O2"
_cell_formula_units_Z 88
_cell_length_a 17.893678
_cell_length_b 9.100513
_cell_length_c 27.670135
_cell_angle_alpha 90.000000
_cell_angle_beta 90.000000
_cell_angle_gamma 90.000000
_cell_volume 4505.850419
_symmetry_space_group_name_H-M "I M M M"
_symmetry_group_IT_number 71
_symmetry_cell_setting 'orthorhombic'
loop_
_space_group_symop_operation_xyz
x,y,z
-x,-y,z
x,-y,-z
-x,y,-z
-x,-y,-z
x,y,-z
-x,y,z
x,-y,z
1/2+x,1/2+y,1/2+z
1/2-x,1/2-y,1/2+z
1/2+x,1/2-y,1/2-z
1/2-x,1/2+y,1/2-z
1/2-x,1/2-y,1/2-z
1/2+x,1/2+y,1/2-z
1/2-x,1/2+y,1/2+z
1/2+x,1/2-y,1/2+z
loop_
_atom_site_type_symbol
_atom_site_label
_atom_site_fract_x
_atom_site_fract_y
_atom_site_fract_z
Si Si1 0.675048 0.168433 0.235092
Si Si2 0.586921 0.162071 0.500000
Si Si3 0.585734 0.168243 0.330298
Si Si4 0.825232 0.325673 0.553874
Si Si5 0.416267 0.824582 0.144099
Si Si6 0.338349 0.674021 0.585220
O O1 0.750000 0.250000 0.250000
O O2 0.611181 0.184932 0.275226
O O3 0.639262 0.234803 0.185891
O O4 0.697648 0.000000 0.226979
O O5 0.500000 0.138552 0.500000
O O6 0.606651 0.253298 0.547225
O O7 0.625326 0.000000 0.500000
O O8 0.500000 0.220318 0.334343
O O9 0.639163 0.271684 0.361772
O O10 0.593859 0.000000 0.347905
O O11 0.840552 0.261095 0.500000
O O12 0.826557 0.500000 0.551238
O O13 0.887250 0.268951 0.591751
O O14 0.745020 0.272873 0.573043
O O15 0.500000 0.762625 0.151615
O O16 0.417134 0.000000 0.146316
O O17 0.346226 0.500000 0.582380
#
# Coordination Sequence:
#
# PCOD8290835 Si02
#       6
#    16   8  16  16  16  16
#     4  10  20  35  55  80 109 141 180 224 272 326
#     4  11  23  37  53  75 106 143 184 228 273 323
#     4  10  21  36  53  75 107 144 181 224 273 325
#     4   9  17  30  48  74 108 140 173 219 272 321
#     4   9  17  30  51  78 107 141 180 222 270 321
#     4  11  21  35  54  78 109 143 181 225 272 323
#
# _framework density 19.530165
#
# number of rings (size 3 to 8) (size 9 to 14) (size 15 to 20)
#    0.000    2.091    0.909    3.000    0.000    8.000 
#    0.000    1.818    0.000    1.636    0.000    0.000 
#    0.000    0.727    0.000    0.000    0.000    0.000 
#
# Total GULP energy -545583.289467 kJ/mol
# GULP energy per Si atom -12399.620215 kJ/mol
# Density = 1.948571 g / cm^3
# Si number density = 19.530165 Si / 1000 Ang^3
#
#
#
# Elastic Constant Matrix: (Units=GPa)
#
#
# Indices 1 2 3 4 5 6 
#
# 1 138.7875 28.7620 73.2650 0.0000 0.0000 0.0000
# 2 28.7620 49.1286 29.4791 0.0000 0.0000 0.0000
# 3 73.2650 29.4791 148.0221 0.0000 0.0000 0.0000
# 4 0.0000 0.0000 0.0000 2.6045 0.0000 0.0000
# 5 0.0000 0.0000 0.0000 0.0000 36.7441 0.0000
# 6 0.0000 0.0000 0.0000 0.0000 0.0000 21.6092
#
#
#
# Elastic Compliance Matrix: (Units=1/GPa)
#
#
# Indices 1 2 3 4 5 6 
#
# 1 0.010216 -0.003347 -0.004390 0.000000 0.000000 0.000000
# 2 -0.003347 0.024214 -0.003166 0.000000 0.000000 0.000000
# 3 -0.004390 -0.003166 0.009559 0.000000 0.000000 0.000000
# 4 0.000000 0.000000 0.000000 0.383953 0.000000 0.000000
# 5 0.000000 0.000000 0.000000 0.000000 0.027215 0.000000
# 6 0.000000 0.000000 0.000000 0.000000 0.000000 0.046276
#
#
# Mechanical properties :
#
#
# Convention : Reuss Voigt Hill
#
# Bulk Modulus (GPa) = 45.07789 66.55004 55.81396
# Shear Modulus (GPa) = 9.42269 25.82037 17.62153
#
# Velocity S-wave (km/s) = 2.19890 3.63998 3.00704
# Velocity P-wave (km/s) = 5.43858 7.19829 6.37940
#
# Compressibility (1/GPa) = 0.02218383
#
# Stress axis : x y z
#
# Youngs Moduli (GPa) = 97.88199 41.29903 104.61164
#
# Poissons Ratio (x) = 0.13822 0.45926
# Poissons Ratio (y) = 0.32759 0.33117
# Poissons Ratio (z) = 0.42972 0.13074
#
# Static dielectric constant tensor:
#      x y z
#    x 3.630580 0.000000 0.000000 
#    y 0.000000 3.234850 0.000000 
#    z 0.000000 0.000000 3.885210 
# 
# 
# High freq. dielectric constant tensor:
#      x y z
#    x 1.766250 0.000000 0.000000 
#    y 0.000000 1.715010 0.000000 
#    z 0.000000 0.000000 1.778880 
# 
# From -- ./inp_files/70388.got.cif
#   From: 2010.06.25/outbox.cif.g09.slc.cpg/sg71_36_cif.got.tgz:70388.got - 2010.06.28 04:59:45.
