data_PCOD8290963
_publ_section_title
;
Structure prediction by ZEFSAII (Michael W. Deem and Ramdas Pophale) SiO2 
 PCOD8290963
Probable space group: I M M M
;
_chemical_formula_sum "Si O2"
_cell_formula_units_Z 88
_cell_length_a 24.374994
_cell_length_b 20.224399
_cell_length_c 8.571950
_cell_angle_alpha 90.000000
_cell_angle_beta 90.000000
_cell_angle_gamma 90.000000
_cell_volume 4225.710799
_symmetry_space_group_name_H-M "I M M M"
_symmetry_group_IT_number 71
_symmetry_cell_setting 'orthorhombic'
loop_
_space_group_symop_operation_xyz
x,y,z
-x,-y,z
x,-y,-z
-x,y,-z
-x,-y,-z
x,y,-z
-x,y,z
x,-y,z
1/2+x,1/2+y,1/2+z
1/2-x,1/2-y,1/2+z
1/2+x,1/2-y,1/2-z
1/2-x,1/2+y,1/2-z
1/2-x,1/2-y,1/2-z
1/2+x,1/2+y,1/2-z
1/2-x,1/2+y,1/2+z
1/2+x,1/2-y,1/2+z
loop_
_atom_site_type_symbol
_atom_site_label
_atom_site_fract_x
_atom_site_fract_y
_atom_site_fract_z
Si Si1 0.368803 0.122449 0.319867
Si Si2 0.437767 0.228476 0.174547
Si Si3 0.742512 0.823682 0.184787
Si Si4 0.328701 0.428474 0.316286
Si Si5 0.439648 0.632582 0.321355
Si Si6 0.563661 0.000000 0.815190
O O1 0.359011 0.105830 0.500000
O O2 0.403432 0.189248 0.302611
O O3 0.311025 0.136442 0.238124
O O4 0.403002 0.063698 0.241600
O O5 0.500000 0.203703 0.185799
O O6 0.433011 0.305429 0.208829
O O7 0.414821 0.215169 0.000000
O O8 0.750000 0.750000 0.250000
O O9 0.792798 0.868084 0.250667
O O10 0.742545 0.817775 0.000000
O O11 0.319738 0.430205 0.500000
O O12 0.310858 0.500000 0.246064
O O13 0.392862 0.419350 0.274880
O O14 0.432258 0.656369 0.500000
O O15 0.500000 0.600175 0.297985
O O16 0.500000 0.000000 0.753520
O O17 0.562974 0.000000 0.000000
#
# Coordination Sequence:
#
# PCOD8290963 Si02
#       6
#    16  16  16  16  16   8
#     4  12  25  40  61  89 123 161 206 260 316 379
#     4  10  20  35  57  85 117 154 198 247 300 362
#     4  11  23  40  64  90 121 163 213 267 318 375
#     4   9  19  35  56  84 116 153 198 245 296 357
#     4   9  17  31  55  87 120 152 190 241 299 358
#     4  11  25  45  67  93 127 167 212 261 322 397
#
# _framework density 20.8249
#
# number of rings (size 3 to 8) (size 9 to 14) (size 15 to 20)
#    0.000    1.727    0.000    4.636    1.273    5.818 
#    0.000    2.727    0.000    2.727    0.000    2.545 
#    0.000    0.000    0.000    0.000    0.000    0.000 
#
# Total GULP energy -545434.853292 kJ/mol
# GULP energy per Si atom -12396.246666 kJ/mol
# Density = 2.077750 g / cm^3
# Si number density = 20.824900 Si / 1000 Ang^3
#
#
#
# Elastic Constant Matrix: (Units=GPa)
#
#
# Indices 1 2 3 4 5 6 
#
# 1 152.0462 86.7386 36.1884 0.0000 0.0000 0.0000
# 2 86.7386 134.6912 29.2044 0.0000 0.0000 0.0000
# 3 36.1884 29.2044 73.7336 0.0000 0.0000 0.0000
# 4 0.0000 0.0000 0.0000 28.0118 0.0000 0.0000
# 5 0.0000 0.0000 0.0000 0.0000 23.9141 0.0000
# 6 0.0000 0.0000 0.0000 0.0000 0.0000 37.2462
#
#
#
# Elastic Compliance Matrix: (Units=1/GPa)
#
#
# Indices 1 2 3 4 5 6 
#
# 1 0.010904 -0.006413 -0.002812 0.000000 0.000000 0.000000
# 2 -0.006413 0.011893 -0.001563 0.000000 0.000000 0.000000
# 3 -0.002812 -0.001563 0.015562 0.000000 0.000000 0.000000
# 4 0.000000 0.000000 0.000000 0.035699 0.000000 0.000000
# 5 0.000000 0.000000 0.000000 0.000000 0.041816 0.000000
# 6 0.000000 0.000000 0.000000 0.000000 0.000000 0.026848
#
#
# Mechanical properties :
#
#
# Convention : Reuss Voigt Hill
#
# Bulk Modulus (GPa) = 59.58285 73.85929 66.72107
# Shear Modulus (GPa) = 29.43031 31.72374 30.57703
#
# Velocity S-wave (km/s) = 3.76337 3.90725 3.83599
# Velocity P-wave (km/s) = 6.89619 7.47659 7.19224
#
# Compressibility (1/GPa) = 0.01678335
#
# Stress axis : x y z
#
# Youngs Moduli (GPa) = 91.70600 84.08381 64.26049
#
# Poissons Ratio (x) = 0.53919 0.18070
# Poissons Ratio (y) = 0.58807 0.10046
# Poissons Ratio (z) = 0.25788 0.13145
#
# Static dielectric constant tensor:
#      x y z
#    x 4.123200 0.000000 0.000000 
#    y 0.000000 3.832090 0.000000 
#    z 0.000000 0.000000 3.605780 
# 
# 
# High freq. dielectric constant tensor:
#      x y z
#    x 1.830440 0.000000 0.000000 
#    y 0.000000 1.816290 0.000000 
#    z 0.000000 0.000000 1.797850 
# 
# From -- ./inp_files/12560.got.cif
#   From: 2010.06.25/outbox.cif.g09.slc.cpg/sg71_7_cif.got.tgz:12560.got - 2010.06.28 04:59:45.
