data_PCOD8290277
_publ_section_title
;
Structure prediction by ZEFSAII (Michael W. Deem and Ramdas Pophale) SiO2 
 PCOD8290277
Probable space group: I M M M
;
_chemical_formula_sum "Si O2"
_cell_formula_units_Z 104
_cell_length_a 22.363223
_cell_length_b 8.837361
_cell_length_c 29.441449
_cell_angle_alpha 90.000000
_cell_angle_beta 90.000000
_cell_angle_gamma 90.000000
_cell_volume 5818.568762
_symmetry_space_group_name_H-M "I M M M"
_symmetry_group_IT_number 71
_symmetry_cell_setting 'orthorhombic'
loop_
_space_group_symop_operation_xyz
x,y,z
-x,-y,z
x,-y,-z
-x,y,-z
-x,-y,-z
x,y,-z
-x,y,z
x,-y,z
1/2+x,1/2+y,1/2+z
1/2-x,1/2-y,1/2+z
1/2+x,1/2-y,1/2-z
1/2-x,1/2+y,1/2-z
1/2-x,1/2-y,1/2-z
1/2+x,1/2+y,1/2-z
1/2-x,1/2+y,1/2+z
1/2+x,1/2-y,1/2+z
loop_
_atom_site_type_symbol
_atom_site_label
_atom_site_fract_x
_atom_site_fract_y
_atom_site_fract_z
Si Si1 0.342464 0.825290 0.552097
Si Si2 0.281165 0.175734 0.052825
Si Si3 0.570365 0.673211 0.380580
Si Si4 0.388998 0.677845 0.897183
Si Si5 0.000000 0.321415 0.552202
Si Si6 0.070957 0.667603 0.209069
Si Si7 0.069049 0.321904 0.690475
O O1 0.360254 0.795934 0.500000
O O2 0.285605 0.725014 0.566007
O O3 0.398739 0.777006 0.582017
O O4 0.326961 0.000000 0.560737
O O5 0.325655 0.275354 0.082451
O O6 0.289807 0.000000 0.064455
O O7 0.293859 0.208586 0.000000
O O8 0.500000 0.701504 0.385073
O O9 0.587613 0.500000 0.389027
O O10 0.593040 0.718987 0.330152
O O11 0.397549 0.500000 0.900967
O O12 0.440977 0.758409 0.924899
O O13 0.390834 0.728754 0.844759
O O14 0.000000 0.500000 0.558268
O O15 0.000000 0.272049 0.500000
O O16 0.096633 0.500000 0.198679
O O17 0.092030 0.722958 0.258961
O O18 0.000000 0.658733 0.210568
O O19 0.077189 0.500000 0.682333
O O20 0.000000 0.275716 0.683315
#
# Coordination Sequence:
#
# PCOD8290277 Si02
#       7
#    16  16  16  16   8  16  16
#     4  10  21  37  57  80 106 137 175 219 260 304
#     4  10  21  38  58  76  98 135 179 218 260 315
#     4  10  20  33  52  81 114 145 174 209 255 308
#     4  12  23  33  50  77 106 136 173 221 270 316
#     4  11  23  37  51  69  99 139 179 221 272 323
#     4   8  15  29  50  75 102 137 176 214 256 305
#     4   9  17  31  51  73 102 139 177 217 263 316
#
# _framework density 17.873811
#
# number of rings (size 3 to 8) (size 9 to 14) (size 15 to 20)
#    0.000    2.077    0.769    4.385    0.000    6.154 
#    0.000    3.077    0.000    0.923    0.000    0.000 
#    0.000    0.000    0.000    0.000    0.000    0.000 
#
# Total GULP energy -644880.132263 kJ/mol
# GULP energy per Si atom -12401.541005 kJ/mol
# Density = 1.783313 g / cm^3
# Si number density = 17.873811 Si / 1000 Ang^3
#
#
#
# Elastic Constant Matrix: (Units=GPa)
#
#
# Indices 1 2 3 4 5 6 
#
# 1 49.3744 16.0904 42.0763 0.0000 0.0000 0.0000
# 2 16.0904 46.5602 37.5523 0.0000 0.0000 0.0000
# 3 42.0763 37.5523 113.0867 0.0000 0.0000 0.0000
# 4 0.0000 0.0000 0.0000 26.2395 0.0000 0.0000
# 5 0.0000 0.0000 0.0000 0.0000 -24.0743 0.0000
# 6 0.0000 0.0000 0.0000 0.0000 0.0000 27.9969
#
#
#
# Elastic Compliance Matrix: (Units=1/GPa)
#
#
# Indices 1 2 3 4 5 6 
#
# 1 0.029773 -0.001850 -0.010463 0.000000 0.000000 0.000000
# 2 -0.001850 0.029449 -0.009091 0.000000 0.000000 0.000000
# 3 -0.010463 -0.009091 0.015755 0.000000 0.000000 0.000000
# 4 0.000000 0.000000 0.000000 0.038110 0.000000 0.000000
# 5 0.000000 0.000000 0.000000 0.000000 -0.041538 0.000000
# 6 0.000000 0.000000 0.000000 0.000000 0.000000 0.035718
#
#
# Mechanical properties :
#
#
# Convention : Reuss Voigt Hill
#
# Bulk Modulus (GPa) = 31.08634 44.49546 37.79090
# Shear Modulus (GPa) = 31.09493 13.58591 22.34042
#
# Velocity S-wave (km/s) = 4.17549 2.75998 3.53922
# Velocity P-wave (km/s) = 6.37778 5.92494 6.15553
#
# Compressibility (1/GPa) = 0.03216847
#
# Stress axis : x y z
#
# Youngs Moduli (GPa) = 33.58741 33.95723 63.47356
#
# Poissons Ratio (x) = 0.06282 0.66415
# Poissons Ratio (y) = 0.06214 0.57702
# Poissons Ratio (z) = 0.35144 0.30869
#
# Static dielectric constant tensor:
#      x y z
#    x 3.265030 0.000000 0.000000 
#    y 0.000000 3.368630 0.000000 
#    z 0.000000 0.000000 3.545130 
# 
# 
# High freq. dielectric constant tensor:
#      x y z
#    x 1.659540 0.000000 0.000000 
#    y 0.000000 1.699770 0.000000 
#    z 0.000000 0.000000 1.700740 
# 
# From -- ./inp_files/70713.got.cif
#   From: 2010.06.25/outbox.cif.g09.slc.cpg/sg71_36_cif.got.tgz:70713.got - 2010.06.28 04:59:45.
