data_PCOD8290540
_publ_section_title
;
Structure prediction by ZEFSAII (Michael W. Deem and Ramdas Pophale) SiO2 
 PCOD8290540
Probable space group: I M M M
;
_chemical_formula_sum "Si O2"
_cell_formula_units_Z 56
_cell_length_a 28.390223
_cell_length_b 10.089206
_cell_length_c 8.733068
_cell_angle_alpha 90.000000
_cell_angle_beta 90.000000
_cell_angle_gamma 90.000000
_cell_volume 2501.454658
_symmetry_space_group_name_H-M "I M M M"
_symmetry_group_IT_number 71
_symmetry_cell_setting 'orthorhombic'
loop_
_space_group_symop_operation_xyz
x,y,z
-x,-y,z
x,-y,-z
-x,y,-z
-x,-y,-z
x,y,-z
-x,y,z
x,-y,z
1/2+x,1/2+y,1/2+z
1/2-x,1/2-y,1/2+z
1/2+x,1/2-y,1/2-z
1/2-x,1/2+y,1/2-z
1/2-x,1/2-y,1/2-z
1/2+x,1/2+y,1/2-z
1/2-x,1/2+y,1/2+z
1/2+x,1/2-y,1/2+z
loop_
_atom_site_type_symbol
_atom_site_label
_atom_site_fract_x
_atom_site_fract_y
_atom_site_fract_z
Si Si1 0.817466 0.000000 0.678290
Si Si2 0.853554 0.714005 0.679892
Si Si3 0.287686 0.000000 0.318036
Si Si4 0.947315 0.273852 0.180250
Si Si5 0.946995 0.000000 0.667635
O O1 0.847092 0.130678 0.726690
O O2 0.765244 0.000000 0.751103
O O3 0.807919 0.000000 0.500000
O O4 0.851018 0.692768 0.500000
O O5 0.811989 0.632815 0.757445
O O6 0.903787 0.651845 0.738096
O O7 0.289780 0.000000 0.500000
O O8 0.000000 0.319982 0.235243
O O9 0.936736 0.123812 0.225966
O O10 0.943767 0.293844 0.000000
O O11 0.918856 0.000000 0.500000
O O12 0.000000 0.000000 0.614677
#
# Coordination Sequence:
#
# PCOD8290540 Si02
#       5
#     8  16   8  16   8
#     4   9  21  40  64  92 121 155 199 252 304 360
#     4  11  22  39  63  92 123 158 203 251 303 362
#     4  11  23  42  63  87 123 162 200 247 305 364
#     4  10  20  34  53  81 118 159 202 247 297 355
#     4   9  16  27  46  74 109 149 192 241 294 343
#
# _framework density 22.386973000000001
#
# number of rings (size 3 to 8) (size 9 to 14) (size 15 to 20)
#    0.000    1.857    0.000    4.286    0.000    4.571 
#    0.000    7.143    0.000    4.286    0.000    0.000 
#    0.000    0.000    0.000    0.000    0.000    0.000 
#
# Total GULP energy -346889.104653 kJ/mol
# GULP energy per Si atom -12388.896595 kJ/mol
# Density = 2.233602 g / cm^3
# Si number density = 22.386973 Si / 1000 Ang^3
#
#
#
# Elastic Constant Matrix: (Units=GPa)
#
#
# Indices 1 2 3 4 5 6 
#
# 1 206.6730 23.0674 51.7230 0.0000 0.0000 0.0000
# 2 23.0674 72.2367 21.0666 0.0000 0.0000 0.0000
# 3 51.7230 21.0666 92.5504 0.0000 0.0000 0.0000
# 4 0.0000 0.0000 0.0000 29.6795 0.0000 0.0000
# 5 0.0000 0.0000 0.0000 0.0000 31.5935 0.0000
# 6 0.0000 0.0000 0.0000 0.0000 0.0000 -0.6709
#
#
#
# Elastic Compliance Matrix: (Units=1/GPa)
#
#
# Indices 1 2 3 4 5 6 
#
# 1 0.005686 -0.000952 -0.002961 0.000000 0.000000 0.000000
# 2 -0.000952 0.014987 -0.002879 0.000000 0.000000 0.000000
# 3 -0.002961 -0.002879 0.013115 0.000000 0.000000 0.000000
# 4 0.000000 0.000000 0.000000 0.033693 0.000000 0.000000
# 5 0.000000 0.000000 0.000000 0.000000 0.031652 0.000000
# 6 0.000000 0.000000 0.000000 0.000000 0.000000 -1.490547
#
#
# Mechanical properties :
#
#
# Convention : Reuss Voigt Hill
#
# Bulk Modulus (GPa) = 49.49671 62.57487 56.03579
# Shear Modulus (GPa) = -3.64672 30.49396 13.42362
#
# Velocity S-wave (km/s) = -1.27769 3.69471 2.45137
# Velocity P-wave (km/s) = 4.47001 6.79804 5.75301
#
# Compressibility (1/GPa) = 0.02020337
#
# Stress axis : x y z
#
# Youngs Moduli (GPa) = 175.87557 66.72394 76.24840
#
# Poissons Ratio (x) = 0.06353 0.22576
# Poissons Ratio (y) = 0.16746 0.21954
# Poissons Ratio (z) = 0.52074 0.19212
#
# Static dielectric constant tensor:
#      x y z
#    x 4.614180 0.000000 0.000000 
#    y 0.000000 3.791300 0.000000 
#    z 0.000000 0.000000 3.811530 
# 
# 
# High freq. dielectric constant tensor:
#      x y z
#    x 1.915220 0.000000 0.000000 
#    y 0.000000 1.859910 0.000000 
#    z 0.000000 0.000000 1.868990 
# 
# From -- ./inp_files/13995.got.cif
#   From: 2010.06.25/outbox.cif.g09.slc.cpg/sg71_7_cif.got.tgz:13995.got - 2010.06.28 04:59:45.
