data_PCOD8290101
_publ_section_title
;
Structure prediction by ZEFSAII (Michael W. Deem and Ramdas Pophale) SiO2 
 PCOD8290101
Probable space group: I M M M
;
_chemical_formula_sum "Si O2"
_cell_formula_units_Z 104
_cell_length_a 27.868459
_cell_length_b 23.918096
_cell_length_c 8.885984
_cell_angle_alpha 90.000000
_cell_angle_beta 90.000000
_cell_angle_gamma 90.000000
_cell_volume 5923.045740
_symmetry_space_group_name_H-M "I M M M"
_symmetry_group_IT_number 71
_symmetry_cell_setting 'orthorhombic'
loop_
_space_group_symop_operation_xyz
x,y,z
-x,-y,z
x,-y,-z
-x,y,-z
-x,-y,-z
x,y,-z
-x,y,z
x,-y,z
1/2+x,1/2+y,1/2+z
1/2-x,1/2-y,1/2+z
1/2+x,1/2-y,1/2-z
1/2-x,1/2+y,1/2-z
1/2-x,1/2-y,1/2-z
1/2+x,1/2+y,1/2-z
1/2-x,1/2+y,1/2+z
1/2+x,1/2-y,1/2+z
loop_
_atom_site_type_symbol
_atom_site_label
_atom_site_fract_x
_atom_site_fract_y
_atom_site_fract_z
Si Si1 0.500000 0.066154 0.329084
Si Si2 0.444804 0.348651 0.174713
Si Si3 0.411191 0.875300 0.177462
Si Si4 0.770280 0.066228 0.166174
Si Si5 0.123277 0.064660 0.823917
Si Si6 0.675898 0.065794 0.672868
Si Si7 0.555937 0.766188 0.324799
O O1 0.500000 0.088917 0.500000
O O2 0.547279 0.087392 0.248306
O O3 0.500000 0.000000 0.325299
O O4 0.500000 0.362463 0.210564
O O5 0.414294 0.401534 0.225254
O O6 0.427946 0.294278 0.266375
O O7 0.436622 0.336432 0.000000
O O8 0.360444 0.901391 0.221381
O O9 0.413291 0.812202 0.237301
O O10 0.417320 0.875514 0.000000
O O11 0.823098 0.086556 0.217599
O O12 0.729658 0.085575 0.283651
O O13 0.772423 0.000000 0.155839
O O14 0.758006 0.090189 0.000000
O O15 0.116998 0.000000 0.780311
O O16 0.113170 0.073943 0.000000
O O17 0.666252 0.081242 0.500000
O O18 0.669376 0.000000 0.701595
O O19 0.567641 0.770176 0.500000
O O20 0.500000 0.777216 0.290705
#
# Coordination Sequence:
#
# PCOD8290101 Si02
#       7
#     8  16  16  16  16  16  16
#     4  11  23  37  51  71 103 139 174 215 264 315
#     4  10  21  35  52  77 109 140 174 215 256 303
#     4  12  23  34  52  75 102 135 173 218 264 312
#     4   8  15  30  51  74 101 133 171 214 256 303
#     4   9  18  33  54  80 109 141 175 210 254 309
#     4  10  20  33  50  74 104 137 174 215 259 310
#     4  10  20  36  57  75  97 132 176 219 260 309
#
# _framework density 17.558534000000002
#
# number of rings (size 3 to 8) (size 9 to 14) (size 15 to 20)
#    0.000    2.077    0.769    4.385    0.000    6.154 
#    0.000    3.077    0.000    0.923    0.000    0.000 
#    0.000    0.000    0.000    0.000    0.000    0.000 
#
# Total GULP energy -644887.247134 kJ/mol
# GULP energy per Si atom -12401.677829 kJ/mol
# Density = 1.751857 g / cm^3
# Si number density = 17.558534 Si / 1000 Ang^3
#
#
#
# Elastic Constant Matrix: (Units=GPa)
#
#
# Indices 1 2 3 4 5 6 
#
# 1 97.4260 46.4470 49.3390 0.0000 0.0000 0.0000
# 2 46.4470 74.2389 48.2147 0.0000 0.0000 0.0000
# 3 49.3390 48.2147 113.6487 0.0000 0.0000 0.0000
# 4 0.0000 0.0000 0.0000 28.2818 0.0000 0.0000
# 5 0.0000 0.0000 0.0000 0.0000 31.9115 0.0000
# 6 0.0000 0.0000 0.0000 0.0000 0.0000 -8.5640
#
#
#
# Elastic Compliance Matrix: (Units=1/GPa)
#
#
# Indices 1 2 3 4 5 6 
#
# 1 0.015649 -0.007424 -0.003644 0.000000 0.000000 0.000000
# 2 -0.007424 0.022115 -0.006159 0.000000 0.000000 0.000000
# 3 -0.003644 -0.006159 0.012994 0.000000 0.000000 0.000000
# 4 0.000000 0.000000 0.000000 0.035358 0.000000 0.000000
# 5 0.000000 0.000000 0.000000 0.000000 0.031337 0.000000
# 6 0.000000 0.000000 0.000000 0.000000 0.000000 -0.116768
#
#
# Mechanical properties :
#
#
# Convention : Reuss Voigt Hill
#
# Bulk Modulus (GPa) = 61.33684 63.70168 62.51926
# Shear Modulus (GPa) = 123.23131 19.74673 71.48902
#
# Velocity S-wave (km/s) = 8.38663 3.35718 6.38773
# Velocity P-wave (km/s) = 11.34854 7.16840 9.49145
#
# Compressibility (1/GPa) = 0.01630342
#
# Stress axis : x y z
#
# Youngs Moduli (GPa) = 63.90169 45.21872 76.95813
#
# Poissons Ratio (x) = 0.33570 0.28046
# Poissons Ratio (y) = 0.47440 0.47399
# Poissons Ratio (z) = 0.23288 0.27850
#
# Static dielectric constant tensor:
#      x y z
#    x 3.417810 0.000000 0.000000 
#    y 0.000000 3.098130 0.000000 
#    z 0.000000 0.000000 3.345190 
# 
# 
# High freq. dielectric constant tensor:
#      x y z
#    x 1.675500 0.000000 0.000000 
#    y 0.000000 1.658170 0.000000 
#    z 0.000000 0.000000 1.689600 
# 
# From -- ./inp_files/15247.got.cif
#   From: 2010.06.25/outbox.cif.g09.slc.cpg/sg71_8_cif.got.tgz:15247.got - 2010.06.28 04:59:45.
