data_PCOD8290744
_publ_section_title
;
Structure prediction by ZEFSAII (Michael W. Deem and Ramdas Pophale) SiO2 
 PCOD8290744
Probable space group: I M M M
;
_chemical_formula_sum "Si O2"
_cell_formula_units_Z 112
_cell_length_a 15.471084
_cell_length_b 14.265937
_cell_length_c 27.256140
_cell_angle_alpha 90.000000
_cell_angle_beta 90.000000
_cell_angle_gamma 90.000000
_cell_volume 6015.689295
_symmetry_space_group_name_H-M "I M M M"
_symmetry_group_IT_number 71
_symmetry_cell_setting 'orthorhombic'
loop_
_space_group_symop_operation_xyz
x,y,z
-x,-y,z
x,-y,-z
-x,y,-z
-x,-y,-z
x,y,-z
-x,y,z
x,-y,z
1/2+x,1/2+y,1/2+z
1/2-x,1/2-y,1/2+z
1/2+x,1/2-y,1/2-z
1/2-x,1/2+y,1/2-z
1/2-x,1/2-y,1/2-z
1/2+x,1/2+y,1/2-z
1/2-x,1/2+y,1/2+z
1/2+x,1/2-y,1/2+z
loop_
_atom_site_type_symbol
_atom_site_label
_atom_site_fract_x
_atom_site_fract_y
_atom_site_fract_z
Si Si1 0.097617 0.794860 0.944200
Si Si2 0.596333 0.107256 0.278458
Si Si3 0.739497 0.605364 0.155082
Si Si4 0.244977 0.888971 0.117718
Si Si5 0.192048 0.278410 0.705362
Si Si6 0.681602 0.895964 0.445464
Si Si7 0.095207 0.388714 0.554790
O O1 0.159635 0.850790 0.908089
O O2 0.108445 0.682687 0.939139
O O3 0.000000 0.820208 0.929525
O O4 0.117275 0.826735 0.000000
O O5 0.500000 0.128924 0.298897
O O6 0.665816 0.127454 0.321420
O O7 0.609467 0.169587 0.228948
O O8 0.604088 0.000000 0.261216
O O9 0.708719 0.500000 0.168708
O O10 0.670756 0.682162 0.175275
O O11 0.745461 0.618139 0.096286
O O12 0.251942 0.849979 0.172511
O O13 0.330006 0.849651 0.089798
O O14 0.239970 0.000000 0.118745
O O15 0.250000 0.250000 0.750000
O O16 0.724139 0.887598 0.500000
O O17 0.639813 0.000000 0.438746
O O18 0.111325 0.349763 0.500000
O O19 0.099417 0.500000 0.553856
O O20 0.000000 0.356402 0.573578
#
# Coordination Sequence:
#
# PCOD8290744 Si02
#       7
#    16  16  16  16  16  16  16
#     4  10  21  35  51  76 111 147 181 215 252 307
#     4   9  18  32  52  78 105 132 165 209 262 319
#     4   9  17  32  53  76 101 133 170 209 259 315
#     4  11  21  34  53  76 104 142 180 214 256 312
#     4  10  20  35  51  74  99 131 168 217 267 308
#     4   9  17  31  52  78 106 135 171 219 268 308
#     4   8  15  29  50  77 106 132 160 200 252 306
#
# _framework density 18.617982000000001
#
# number of rings (size 3 to 8) (size 9 to 14) (size 15 to 20)
#    0.000    2.571    1.429    1.286    0.000    3.143 
#    0.000    5.000    0.000    0.429    0.000    0.000 
#    0.000    0.571    0.000   10.429    0.000    0.571 
#
# Total GULP energy -693893.127958 kJ/mol
# GULP energy per Si atom -12390.948714 kJ/mol
# Density = 1.857561 g / cm^3
# Si number density = 18.617982 Si / 1000 Ang^3
#
#
#
# Elastic Constant Matrix: (Units=GPa)
#
#
# Indices 1 2 3 4 5 6 
#
# 1 62.3746 24.2197 34.1576 0.0000 0.0000 0.0000
# 2 24.2197 89.4148 40.3561 0.0000 0.0000 0.0000
# 3 34.1576 40.3561 104.1098 0.0000 0.0000 0.0000
# 4 0.0000 0.0000 0.0000 28.7617 0.0000 0.0000
# 5 0.0000 0.0000 0.0000 0.0000 19.1880 0.0000
# 6 0.0000 0.0000 0.0000 0.0000 0.0000 20.2808
#
#
#
# Elastic Compliance Matrix: (Units=1/GPa)
#
#
# Indices 1 2 3 4 5 6 
#
# 1 0.020188 -0.003005 -0.005459 0.000000 0.000000 0.000000
# 2 -0.003005 0.014003 -0.004442 0.000000 0.000000 0.000000
# 3 -0.005459 -0.004442 0.013118 0.000000 0.000000 0.000000
# 4 0.000000 0.000000 0.000000 0.034768 0.000000 0.000000
# 5 0.000000 0.000000 0.000000 0.000000 0.052116 0.000000
# 6 0.000000 0.000000 0.000000 0.000000 0.000000 0.049308
#
#
# Mechanical properties :
#
#
# Convention : Reuss Voigt Hill
#
# Bulk Modulus (GPa) = 46.51627 50.37399 48.44513
# Shear Modulus (GPa) = 23.09703 24.12382 23.61043
#
# Velocity S-wave (km/s) = 3.52600 3.60353 3.56498
# Velocity P-wave (km/s) = 6.45103 6.66553 6.55915
#
# Compressibility (1/GPa) = 0.02149785
#
# Stress axis : x y z
#
# Youngs Moduli (GPa) = 49.53378 71.41572 76.23025
#
# Poissons Ratio (x) = 0.21457 0.41614
# Poissons Ratio (y) = 0.14883 0.33862
# Poissons Ratio (z) = 0.27040 0.31723
#
# Static dielectric constant tensor:
#      x y z
#    x 3.242730 0.000000 0.000000 
#    y 0.000000 3.707830 0.000000 
#    z 0.000000 0.000000 3.751040 
# 
# 
# High freq. dielectric constant tensor:
#      x y z
#    x 1.676480 0.000000 0.000000 
#    y 0.000000 1.722340 0.000000 
#    z 0.000000 0.000000 1.732900 
# 
# From -- ./inp_files/65536.got.cif
#   From: 2010.06.25/outbox.cif.g09.slc.cpg/sg71_33_cif.got.tgz:65536.got - 2010.06.28 04:59:45.
