data_PCOD8290611
_publ_section_title
;
Structure prediction by ZEFSAII (Michael W. Deem and Ramdas Pophale) SiO2 
 PCOD8290611
Probable space group: I M M M
;
_chemical_formula_sum "Si O2"
_cell_formula_units_Z 104
_cell_length_a 30.099093
_cell_length_b 19.268031
_cell_length_c 9.177614
_cell_angle_alpha 90.000000
_cell_angle_beta 90.000000
_cell_angle_gamma 90.000000
_cell_volume 5322.559598
_symmetry_space_group_name_H-M "I M M M"
_symmetry_group_IT_number 71
_symmetry_cell_setting 'orthorhombic'
loop_
_space_group_symop_operation_xyz
x,y,z
-x,-y,z
x,-y,-z
-x,y,-z
-x,-y,-z
x,y,-z
-x,y,z
x,-y,z
1/2+x,1/2+y,1/2+z
1/2-x,1/2-y,1/2+z
1/2+x,1/2-y,1/2-z
1/2-x,1/2+y,1/2-z
1/2-x,1/2-y,1/2-z
1/2+x,1/2+y,1/2-z
1/2-x,1/2+y,1/2+z
1/2+x,1/2-y,1/2+z
loop_
_atom_site_type_symbol
_atom_site_label
_atom_site_fract_x
_atom_site_fract_y
_atom_site_fract_z
Si Si1 0.951093 0.869706 0.664138
Si Si2 0.304934 0.419516 0.671917
Si Si3 0.549156 0.078408 0.172839
Si Si4 0.861868 0.808158 0.334076
Si Si5 0.052771 0.000000 0.839858
Si Si6 0.362478 0.848200 0.172699
Si Si7 0.216399 0.581691 0.836857
O O1 0.954992 0.897623 0.500000
O O2 0.915763 0.807944 0.675568
O O3 0.000000 0.844870 0.718813
O O4 0.930710 0.931857 0.758704
O O5 0.299740 0.410304 0.500000
O O6 0.316752 0.500000 0.710759
O O7 0.342390 0.367261 0.729828
O O8 0.259450 0.394462 0.746803
O O9 0.500000 0.102398 0.229532
O O10 0.588148 0.129921 0.228376
O O11 0.558978 0.000000 0.228108
O O12 0.548598 0.078920 0.000000
O O13 0.846349 0.823088 0.500000
O O14 0.849731 0.730664 0.284345
O O15 0.000000 0.000000 0.845665
O O16 0.074406 0.000000 0.000000
O O17 0.327529 0.895962 0.253539
O O18 0.358633 0.859572 0.000000
O O19 0.215545 0.500000 0.847088
O O20 0.218158 0.613892 0.000000
#
# Coordination Sequence:
#
# PCOD8290611 Si02
#       7
#    16  16  16  16   8  16  16
#     4   9  18  33  51  72 102 141 182 221 266 321
#     4  10  22  40  61  83 105 135 179 228 277 330
#     4   8  14  26  48  80 114 146 182 225 269 309
#     4  10  22  36  52  79 112 148 184 222 274 327
#     4   9  17  29  47  71  95 123 169 227 275 313
#     4  10  20  34  54  82 115 149 186 224 266 321
#     4  10  21  38  61  86 110 139 176 220 273 329
#
# _framework density 19.539470999999999
#
# number of rings (size 3 to 8) (size 9 to 14) (size 15 to 20)
#    0.000    2.538    0.000    2.077    1.077    5.846 
#    0.000    3.077    0.000    0.462    0.000    4.308 
#    0.000    0.000    0.000    0.000    0.000    0.000 
#
# Total GULP energy -644505.941448 kJ/mol
# GULP energy per Si atom -12394.345028 kJ/mol
# Density = 1.949500 g / cm^3
# Si number density = 19.539471 Si / 1000 Ang^3
#
#
#
# Elastic Constant Matrix: (Units=GPa)
#
#
# Indices 1 2 3 4 5 6 
#
# 1 120.0019 39.1359 37.6514 0.0000 0.0000 0.0000
# 2 39.1359 50.1300 27.9989 0.0000 0.0000 0.0000
# 3 37.6514 27.9989 72.9603 0.0000 0.0000 0.0000
# 4 0.0000 0.0000 0.0000 8.2774 0.0000 0.0000
# 5 0.0000 0.0000 0.0000 0.0000 22.5545 0.0000
# 6 0.0000 0.0000 0.0000 0.0000 0.0000 20.1532
#
#
#
# Elastic Compliance Matrix: (Units=1/GPa)
#
#
# Indices 1 2 3 4 5 6 
#
# 1 0.011751 -0.007366 -0.003238 0.000000 0.000000 0.000000
# 2 -0.007366 0.030007 -0.007714 0.000000 0.000000 0.000000
# 3 -0.003238 -0.007714 0.018337 0.000000 0.000000 0.000000
# 4 0.000000 0.000000 0.000000 0.120810 0.000000 0.000000
# 5 0.000000 0.000000 0.000000 0.000000 0.044337 0.000000
# 6 0.000000 0.000000 0.000000 0.000000 0.000000 0.049620
#
#
# Mechanical properties :
#
#
# Convention : Reuss Voigt Hill
#
# Bulk Modulus (GPa) = 42.62517 50.29610 46.46064
# Shear Modulus (GPa) = 15.65836 19.41742 17.53789
#
# Velocity S-wave (km/s) = 2.83392 3.15581 2.99918
# Velocity P-wave (km/s) = 5.70705 6.25104 5.98523
#
# Compressibility (1/GPa) = 0.02346032
#
# Stress axis : x y z
#
# Youngs Moduli (GPa) = 85.09776 33.32540 54.53380
#
# Poissons Ratio (x) = 0.24547 0.17656
# Poissons Ratio (y) = 0.62681 0.42069
# Poissons Ratio (z) = 0.27551 0.25708
#
# Static dielectric constant tensor:
#      x y z
#    x 3.725090 0.000000 0.000000 
#    y 0.000000 3.442280 0.000000 
#    z 0.000000 0.000000 3.478370 
# 
# 
# High freq. dielectric constant tensor:
#      x y z
#    x 1.770890 0.000000 0.000000 
#    y 0.000000 1.745830 0.000000 
#    z 0.000000 0.000000 1.739300 
# 
# From -- ./inp_files/16968.got.cif
#   From: 2010.06.25/outbox.cif.g09.slc.cpg/sg71_9_cif.got.tgz:16968.got - 2010.06.28 04:59:45.
