data_PCOD8290508
_publ_section_title
;
Structure prediction by ZEFSAII (Michael W. Deem and Ramdas Pophale) SiO2 
 PCOD8290508
Probable space group: I M M M
;
_chemical_formula_sum "Si O2"
_cell_formula_units_Z 96
_cell_length_a 30.376748
_cell_length_b 8.804359
_cell_length_c 19.522265
_cell_angle_alpha 90.000000
_cell_angle_beta 90.000000
_cell_angle_gamma 90.000000
_cell_volume 5221.186721
_symmetry_space_group_name_H-M "I M M M"
_symmetry_group_IT_number 71
_symmetry_cell_setting 'orthorhombic'
loop_
_space_group_symop_operation_xyz
x,y,z
-x,-y,z
x,-y,-z
-x,y,-z
-x,-y,-z
x,y,-z
-x,y,z
x,-y,z
1/2+x,1/2+y,1/2+z
1/2-x,1/2-y,1/2+z
1/2+x,1/2-y,1/2-z
1/2-x,1/2+y,1/2-z
1/2-x,1/2-y,1/2-z
1/2+x,1/2+y,1/2-z
1/2-x,1/2+y,1/2+z
1/2+x,1/2-y,1/2+z
loop_
_atom_site_type_symbol
_atom_site_label
_atom_site_fract_x
_atom_site_fract_y
_atom_site_fract_z
Si Si1 0.208791 0.821538 0.288950
Si Si2 0.672019 0.825639 0.422274
Si Si3 0.373900 0.678067 0.302722
Si Si4 0.947786 0.330251 0.572169
Si Si5 0.949180 0.319525 0.719884
Si Si6 0.764946 0.321312 0.577232
O O1 0.250000 0.750000 0.250000
O O2 0.164137 0.775184 0.250599
O O3 0.204301 0.759953 0.366772
O O4 0.215843 0.000000 0.290636
O O5 0.655606 0.807200 0.500000
O O6 0.633356 0.764664 0.374135
O O7 0.714902 0.725146 0.407954
O O8 0.683488 0.000000 0.405392
O O9 0.374713 0.500000 0.316521
O O10 0.420973 0.732280 0.275886
O O11 0.932988 0.247103 0.500000
O O12 0.928379 0.500000 0.569697
O O13 0.933351 0.255611 0.644450
O O14 0.000000 0.339913 0.574482
O O15 0.941638 0.500000 0.723818
O O16 0.000000 0.279400 0.733781
O O17 0.778891 0.271833 0.500000
O O18 0.769115 0.500000 0.586803
#
# Coordination Sequence:
#
# PCOD8290508 Si02
#       6
#    16  16  16  16  16  16
#     4  11  22  35  53  77 107 144 183 223 267 317
#     4  10  20  34  55  81 106 136 175 218 265 320
#     4  11  23  36  53  79 109 143 179 219 270 322
#     4   7  10  20  42  71  98 124 161 210 258 302
#     4   9  18  33  54  79 106 139 180 225 271 320
#     4  10  20  34  53  78 109 144 181 222 269 321
#
# _framework density 18.386624999999999
#
# number of rings (size 3 to 8) (size 9 to 14) (size 15 to 20)
#    0.000    2.333    1.667    3.500    0.000    4.333 
#    0.000    0.833    0.000    4.000    0.000    5.833 
#    0.000    0.000    0.000    0.000    0.000    0.000 
#
# Total GULP energy -594873.850098 kJ/mol
# GULP energy per Si atom -12393.205210 kJ/mol
# Density = 1.834478 g / cm^3
# Si number density = 18.386625 Si / 1000 Ang^3
#
#
#
# Elastic Constant Matrix: (Units=GPa)
#
#
# Indices 1 2 3 4 5 6 
#
# 1 62.0579 27.5507 41.6976 0.0000 0.0000 0.0000
# 2 27.5507 60.1878 42.6192 0.0000 0.0000 0.0000
# 3 41.6976 42.6192 127.3554 0.0000 0.0000 0.0000
# 4 0.0000 0.0000 0.0000 26.4023 0.0000 0.0000
# 5 0.0000 0.0000 0.0000 0.0000 25.8617 0.0000
# 6 0.0000 0.0000 0.0000 0.0000 0.0000 23.3859
#
#
#
# Elastic Compliance Matrix: (Units=1/GPa)
#
#
# Indices 1 2 3 4 5 6 
#
# 1 0.022533 -0.006671 -0.005145 0.000000 0.000000 0.000000
# 2 -0.006671 0.023749 -0.005764 0.000000 0.000000 0.000000
# 3 -0.005145 -0.005764 0.011465 0.000000 0.000000 0.000000
# 4 0.000000 0.000000 0.000000 0.037876 0.000000 0.000000
# 5 0.000000 0.000000 0.000000 0.000000 0.038667 0.000000
# 6 0.000000 0.000000 0.000000 0.000000 0.000000 0.042761
#
#
# Mechanical properties :
#
#
# Convention : Reuss Voigt Hill
#
# Bulk Modulus (GPa) = 44.27071 52.59291 48.43181
# Shear Modulus (GPa) = 22.75423 24.31223 23.53323
#
# Velocity S-wave (km/s) = 3.52169 3.64026 3.58146
# Velocity P-wave (km/s) = 6.37702 6.80695 6.59549
#
# Compressibility (1/GPa) = 0.02258830
#
# Stress axis : x y z
#
# Youngs Moduli (GPa) = 44.38017 42.10619 87.21959
#
# Poissons Ratio (x) = 0.28089 0.44874
# Poissons Ratio (y) = 0.29606 0.50269
# Poissons Ratio (z) = 0.22834 0.24268
#
# Static dielectric constant tensor:
#      x y z
#    x 3.035670 0.000000 0.000000 
#    y 0.000000 3.227160 0.000000 
#    z 0.000000 0.000000 3.850900 
# 
# 
# High freq. dielectric constant tensor:
#      x y z
#    x 1.672800 0.000000 0.000000 
#    y 0.000000 1.699790 0.000000 
#    z 0.000000 0.000000 1.731480 
# 
# From -- ./inp_files/14828.got.cif
#   From: 2010.06.25/outbox.cif.g09.slc.cpg/sg71_8_cif.got.tgz:14828.got - 2010.06.28 04:59:45.
