data_PCOD8290473
_publ_section_title
;
Structure prediction by ZEFSAII (Michael W. Deem and Ramdas Pophale) SiO2 
 PCOD8290473
Probable space group: I M M M
;
_chemical_formula_sum "Si O2"
_cell_formula_units_Z 96
_cell_length_a 9.213416
_cell_length_b 29.746581
_cell_length_c 19.667795
_cell_angle_alpha 90.000000
_cell_angle_beta 90.000000
_cell_angle_gamma 90.000000
_cell_volume 5390.305871
_symmetry_space_group_name_H-M "I M M M"
_symmetry_group_IT_number 71
_symmetry_cell_setting 'orthorhombic'
loop_
_space_group_symop_operation_xyz
x,y,z
-x,-y,z
x,-y,-z
-x,y,-z
-x,-y,-z
x,y,-z
-x,y,z
x,-y,z
1/2+x,1/2+y,1/2+z
1/2-x,1/2-y,1/2+z
1/2+x,1/2-y,1/2-z
1/2-x,1/2+y,1/2-z
1/2-x,1/2-y,1/2-z
1/2+x,1/2+y,1/2-z
1/2-x,1/2+y,1/2+z
1/2+x,1/2-y,1/2+z
loop_
_atom_site_type_symbol
_atom_site_label
_atom_site_fract_x
_atom_site_fract_y
_atom_site_fract_z
Si Si1 0.669819 0.765459 0.077038
Si Si2 0.168046 0.447379 0.703968
Si Si3 0.837546 0.053393 0.074540
Si Si4 0.827738 0.836832 0.573667
Si Si5 0.670303 0.711501 0.707174
Si Si6 0.168914 0.121492 0.289845
O O1 0.500000 0.770002 0.095004
O O2 0.724070 0.714191 0.084104
O O3 0.764143 0.793324 0.131266
O O4 0.699178 0.782807 0.000000
O O5 0.199859 0.500000 0.712993
O O6 0.229947 0.428651 0.632374
O O7 0.244739 0.422045 0.765549
O O8 0.000000 0.436075 0.704940
O O9 0.000000 0.070700 0.090986
O O10 0.835940 0.000000 0.073573
O O11 0.787941 0.071207 0.000000
O O12 0.772753 0.854956 0.500000
O O13 0.769837 0.867952 0.634503
O O14 0.000000 0.836123 0.575369
O O15 0.500000 0.722816 0.704213
O O16 0.750000 0.750000 0.750000
O O17 0.699183 0.663933 0.742242
O O18 0.000000 0.109159 0.291297
#
# Coordination Sequence:
#
# PCOD8290473 Si02
#       6
#    16  16  16  16  16  16
#     4   9  17  32  53  75 104 142 178 213 257 304
#     4  10  21  35  51  74 103 134 170 215 265 310
#     4   8  14  27  49  74  97 124 161 204 250 301
#     4   8  14  28  51  76 101 129 166 211 252 296
#     4  11  21  33  51  77 108 138 172 212 255 307
#     4  10  20  34  53  77 102 135 176 211 254 308
#
# _framework density 17.809750000000001
#
# number of rings (size 3 to 8) (size 9 to 14) (size 15 to 20)
#    0.000    2.667    1.667    2.500    0.000    3.000 
#    0.000    2.500    0.000    2.000    0.000    3.500 
#    0.000    0.000    0.000    0.000    0.000    0.000 
#
# Total GULP energy -594991.388444 kJ/mol
# GULP energy per Si atom -12395.653926 kJ/mol
# Density = 1.776921 g / cm^3
# Si number density = 17.809750 Si / 1000 Ang^3
#
#
#
# Elastic Constant Matrix: (Units=GPa)
#
#
# Indices 1 2 3 4 5 6 
#
# 1 80.5832 39.0259 62.4232 0.0000 0.0000 0.0000
# 2 39.0259 43.5000 45.7534 0.0000 0.0000 0.0000
# 3 62.4232 45.7534 164.5896 0.0000 0.0000 0.0000
# 4 0.0000 0.0000 0.0000 25.6524 0.0000 0.0000
# 5 0.0000 0.0000 0.0000 0.0000 25.9889 0.0000
# 6 0.0000 0.0000 0.0000 0.0000 0.0000 24.5568
#
#
#
# Elastic Compliance Matrix: (Units=1/GPa)
#
#
# Indices 1 2 3 4 5 6 
#
# 1 0.024011 -0.016906 -0.004407 0.000000 0.000000 0.000000
# 2 -0.016906 0.044391 -0.005928 0.000000 0.000000 0.000000
# 3 -0.004407 -0.005928 0.009395 0.000000 0.000000 0.000000
# 4 0.000000 0.000000 0.000000 0.038983 0.000000 0.000000
# 5 0.000000 0.000000 0.000000 0.000000 0.038478 0.000000
# 6 0.000000 0.000000 0.000000 0.000000 0.000000 0.040722
#
#
# Mechanical properties :
#
#
# Convention : Reuss Voigt Hill
#
# Bulk Modulus (GPa) = 42.89140 64.78641 53.83891
# Shear Modulus (GPa) = 19.36238 24.67098 22.01668
#
# Velocity S-wave (km/s) = 3.30082 3.72593 3.51980
# Velocity P-wave (km/s) = 6.21792 7.41391 6.84210
#
# Compressibility (1/GPa) = 0.02331470
#
# Stress axis : x y z
#
# Youngs Moduli (GPa) = 41.64812 22.52712 106.43957
#
# Poissons Ratio (x) = 0.38084 0.46906
# Poissons Ratio (y) = 0.70410 0.63099
# Poissons Ratio (z) = 0.18354 0.13354
#
# Static dielectric constant tensor:
#      x y z
#    x 3.157950 0.000000 0.000000 
#    y 0.000000 2.975950 0.000000 
#    z 0.000000 0.000000 3.832140 
# 
# 
# High freq. dielectric constant tensor:
#      x y z
#    x 1.672340 0.000000 0.000000 
#    y 0.000000 1.652010 0.000000 
#    z 0.000000 0.000000 1.704160 
# 
# From -- ./inp_files/50810.got.cif
#   From: 2010.06.25/outbox.cif.g09.slc.cpg/sg71_26_cif.got.tgz:50810.got - 2010.06.28 04:59:45.
