data_PCOD8290559
_publ_section_title
;
Structure prediction by ZEFSAII (Michael W. Deem and Ramdas Pophale) SiO2 
 PCOD8290559
Probable space group: I M M M
;
_chemical_formula_sum "Si O2"
_cell_formula_units_Z 80
_cell_length_a 13.016815
_cell_length_b 27.201202
_cell_length_c 12.584144
_cell_angle_alpha 90.000000
_cell_angle_beta 90.000000
_cell_angle_gamma 90.000000
_cell_volume 4455.705797
_symmetry_space_group_name_H-M "I M M M"
_symmetry_group_IT_number 71
_symmetry_cell_setting 'orthorhombic'
loop_
_space_group_symop_operation_xyz
x,y,z
-x,-y,z
x,-y,-z
-x,y,-z
-x,-y,-z
x,y,-z
-x,y,z
x,-y,z
1/2+x,1/2+y,1/2+z
1/2-x,1/2-y,1/2+z
1/2+x,1/2-y,1/2-z
1/2-x,1/2+y,1/2-z
1/2-x,1/2-y,1/2-z
1/2+x,1/2+y,1/2-z
1/2-x,1/2+y,1/2+z
1/2+x,1/2-y,1/2+z
loop_
_atom_site_type_symbol
_atom_site_label
_atom_site_fract_x
_atom_site_fract_y
_atom_site_fract_z
Si Si1 0.220240 0.099721 0.624703
Si Si2 0.276412 0.209220 0.879730
Si Si3 0.622319 0.055573 0.000000
Si Si4 0.379161 0.303109 0.799383
Si Si5 0.386535 0.500000 0.874269
Si Si6 0.619103 0.116755 0.200857
O O1 0.245711 0.099658 0.500000
O O2 0.140740 0.143065 0.652588
O O3 0.326040 0.105415 0.688132
O O4 0.171628 0.048679 0.663970
O O5 0.322724 0.263868 0.875039
O O6 0.168849 0.203119 0.817876
O O7 0.362100 0.173152 0.830966
O O8 0.251807 0.195281 0.000000
O O9 0.663185 0.082401 0.893826
O O10 0.500000 0.057762 0.000000
O O11 0.663895 0.000000 0.000000
O O12 0.500000 0.293220 0.793739
O O13 0.500000 0.500000 0.823298
O O14 0.395299 0.500000 0.000000
O O15 0.500000 0.107292 0.220385
#
# Coordination Sequence:
#
# PCOD8290559 Si02
#       6
#    16  16   8  16   8  16
#     4  10  21  35  52  79 108 138 177 217 261 314
#     4  10  20  35  54  78 106 137 173 215 263 315
#     4   9  18  32  52  76 100 136 180 215 253 301
#     4  10  21  35  54  79 105 136 175 217 262 312
#     4   9  18  34  55  74  99 136 177 220 263 306
#     4  10  20  34  54  79 108 141 176 215 261 310
#
# _framework density 17.954507
#
# number of rings (size 3 to 8) (size 9 to 14) (size 15 to 20)
#    0.000    2.200    1.000    1.800    1.400    4.000 
#    0.000    0.000    0.000    9.000    0.000    0.700 
#    0.000    0.000    0.000    0.000    0.000    0.000 
#
# Total GULP energy -496055.965865 kJ/mol
# GULP energy per Si atom -12401.399147 kJ/mol
# Density = 1.791364 g / cm^3
# Si number density = 17.954507 Si / 1000 Ang^3
#
#
#
# Elastic Constant Matrix: (Units=GPa)
#
#
# Indices 1 2 3 4 5 6 
#
# 1 69.6592 21.6735 51.8486 0.0001 0.0000 0.0000
# 2 21.6735 128.5564 34.5215 -0.0004 0.0001 0.0000
# 3 51.8486 34.5215 114.6895 -0.0018 0.0005 -0.0001
# 4 0.0001 -0.0004 -0.0018 24.3397 0.0002 0.0000
# 5 0.0000 0.0001 0.0005 0.0002 10.7269 0.0000
# 6 0.0000 0.0000 -0.0001 0.0000 0.0000 20.4535
#
#
#
# Elastic Compliance Matrix: (Units=1/GPa)
#
#
# Indices 1 2 3 4 5 6 
#
# 1 0.021783 -0.001118 -0.009511 -0.000001 0.000000 0.000000
# 2 -0.001118 0.008520 -0.002059 0.000000 0.000000 0.000000
# 3 -0.009511 -0.002059 0.013639 0.000001 -0.000001 0.000000
# 4 -0.000001 0.000000 0.000001 0.041085 -0.000001 0.000000
# 5 0.000000 0.000000 -0.000001 -0.000001 0.093223 0.000000
# 6 0.000000 0.000000 0.000000 0.000000 0.000000 0.048891
#
#
# Mechanical properties :
#
#
# Convention : Reuss Voigt Hill
#
# Bulk Modulus (GPa) = 53.86476 58.77690 56.32083
# Shear Modulus (GPa) = 19.32695 24.76144 22.04419
#
# Velocity S-wave (km/s) = 3.28447 3.71768 3.50777
# Velocity P-wave (km/s) = 6.66705 7.15792 6.91684
#
# Compressibility (1/GPa) = 0.01856501
#
# Stress axis : x y z
#
# Youngs Moduli (GPa) = 45.90805 117.36901 73.32141
#
# Poissons Ratio (x) = 0.13127 0.69735
# Poissons Ratio (y) = 0.05134 0.15097
# Poissons Ratio (z) = 0.43662 0.24166
#
# Static dielectric constant tensor:
#      x y z
#    x 3.081200 0.000000 0.000000 
#    y 0.000000 3.572180 0.000000 
#    z 0.000000 0.000000 3.259350 
# 
# 
# High freq. dielectric constant tensor:
#      x y z
#    x 1.677180 0.000000 0.000000 
#    y 0.000000 1.712940 0.000000 
#    z 0.000000 0.000000 1.690470 
# 
# From -- ./inp_files/22213.got.cif
#   From: 2010.06.25/outbox.cif.g09.slc.cpg/sg71_12_cif.got.tgz:22213.got - 2010.06.28 04:59:45.
