data_PCOD8290214
_publ_section_title
;
Structure prediction by ZEFSAII (Michael W. Deem and Ramdas Pophale) SiO2 
 PCOD8290214
Probable space group: I M M M
;
_chemical_formula_sum "Si O2"
_cell_formula_units_Z 104
_cell_length_a 26.942537
_cell_length_b 22.221608
_cell_length_c 9.086270
_cell_angle_alpha 90.000000
_cell_angle_beta 90.000000
_cell_angle_gamma 90.000000
_cell_volume 5440.008871
_symmetry_space_group_name_H-M "I M M M"
_symmetry_group_IT_number 71
_symmetry_cell_setting 'orthorhombic'
loop_
_space_group_symop_operation_xyz
x,y,z
-x,-y,z
x,-y,-z
-x,y,-z
-x,-y,-z
x,y,-z
-x,y,z
x,-y,z
1/2+x,1/2+y,1/2+z
1/2-x,1/2-y,1/2+z
1/2+x,1/2-y,1/2-z
1/2-x,1/2+y,1/2-z
1/2-x,1/2-y,1/2-z
1/2+x,1/2+y,1/2-z
1/2-x,1/2+y,1/2+z
1/2+x,1/2-y,1/2+z
loop_
_atom_site_type_symbol
_atom_site_label
_atom_site_fract_x
_atom_site_fract_y
_atom_site_fract_z
Si Si1 0.000000 0.931289 0.826205
Si Si2 0.716884 0.500000 0.824480
Si Si3 0.580789 0.334717 0.325705
Si Si4 0.671064 0.000000 0.674548
Si Si5 0.056748 0.288794 0.667477
Si Si6 0.172733 0.120245 0.664363
Si Si7 0.230023 0.304986 0.838288
Si Si8 0.633205 0.128409 0.675413
O O1 0.048242 0.892814 0.775523
O O2 0.000000 0.000000 0.759118
O O3 0.000000 0.937150 0.000000
O O4 0.772908 0.500000 0.758190
O O5 0.682875 0.445276 0.769203
O O6 0.721445 0.500000 0.000000
O O7 0.578488 0.325715 0.500000
O O8 0.561067 0.274194 0.252123
O O9 0.637240 0.343985 0.274664
O O10 0.640714 0.059137 0.726157
O O11 0.676131 0.000000 0.500000
O O12 0.075947 0.280436 0.500000
O O13 0.085844 0.342867 0.746222
O O14 0.000000 0.309410 0.669254
O O15 0.148988 0.119492 0.500000
O O16 0.227549 0.146079 0.655212
O O17 0.250000 0.250000 0.750000
O O18 0.180898 0.334030 0.768178
O O19 0.216316 0.281457 0.000000
O O20 0.626992 0.132373 0.500000
#
# Coordination Sequence:
#
# PCOD8290214 Si02
#       8
#     8   8  16   8  16  16  16  16
#     4   9  20  38  57  79 111 150 189 236 295 347
#     4   9  16  32  57  81 115 157 193 226 276 339
#     4  11  22  38  61  85 113 151 196 244 292 344
#     4   9  16  34  62  90 118 155 198 241 289 349
#     4  11  24  42  62  84 114 151 194 245 303 359
#     4  10  20  34  54  82 115 150 184 224 275 334
#     4  10  20  33  51  78 112 148 184 225 275 333
#     4  10  20  36  62  90 116 151 197 244 294 351
#
# _framework density 19.117616999999999
#
# number of rings (size 3 to 8) (size 9 to 14) (size 15 to 20)
#    0.000    1.923    2.308    1.846    1.077    4.615 
#    0.000    0.769    0.000    5.077    0.000    0.000 
#    0.000    0.000    0.000    0.000    0.000    0.000 
#
# Total GULP energy -644613.870644 kJ/mol
# GULP energy per Si atom -12396.420589 kJ/mol
# Density = 1.907410 g / cm^3
# Si number density = 19.117617 Si / 1000 Ang^3
#
#
#
# Elastic Constant Matrix: (Units=GPa)
#
#
# Indices 1 2 3 4 5 6 
#
# 1 97.8515 42.0170 34.1136 0.0000 0.0000 0.0000
# 2 42.0170 132.5743 42.9435 0.0000 0.0000 0.0000
# 3 34.1136 42.9435 65.7353 0.0000 0.0000 0.0000
# 4 0.0000 0.0000 0.0000 21.9753 0.0000 0.0000
# 5 0.0000 0.0000 0.0000 0.0000 26.0086 0.0000
# 6 0.0000 0.0000 0.0000 0.0000 0.0000 32.4726
#
#
#
# Elastic Compliance Matrix: (Units=1/GPa)
#
#
# Indices 1 2 3 4 5 6 
#
# 1 0.013085 -0.002470 -0.005177 0.000000 0.000000 0.000000
# 2 -0.002470 0.010034 -0.005273 0.000000 0.000000 0.000000
# 3 -0.005177 -0.005273 0.021344 0.000000 0.000000 0.000000
# 4 0.000000 0.000000 0.000000 0.045506 0.000000 0.000000
# 5 0.000000 0.000000 0.000000 0.000000 0.038449 0.000000
# 6 0.000000 0.000000 0.000000 0.000000 0.000000 0.030795
#
#
# Mechanical properties :
#
#
# Convention : Reuss Voigt Hill
#
# Bulk Modulus (GPa) = 53.69793 59.36772 56.53283
# Shear Modulus (GPa) = 26.14241 27.89707 27.01974
#
# Velocity S-wave (km/s) = 3.70192 3.82414 3.76352
# Velocity P-wave (km/s) = 6.81333 7.11478 6.96568
#
# Compressibility (1/GPa) = 0.01862269
#
# Stress axis : x y z
#
# Youngs Moduli (GPa) = 76.42319 99.66260 46.85196
#
# Poissons Ratio (x) = 0.24619 0.24254
# Poissons Ratio (y) = 0.18878 0.24705
# Poissons Ratio (z) = 0.39563 0.52552
#
# Static dielectric constant tensor:
#      x y z
#    x 3.110100 0.000000 0.000000 
#    y 0.000000 3.596030 0.000000 
#    z 0.000000 0.000000 3.233770 
# 
# 
# High freq. dielectric constant tensor:
#      x y z
#    x 1.745210 0.000000 0.000000 
#    y 0.000000 1.753630 0.000000 
#    z 0.000000 0.000000 1.715740 
# 
# From -- ./inp_files/15079.got.cif
#   From: 2010.06.25/outbox.cif.g09.slc.cpg/sg71_8_cif.got.tgz:15079.got - 2010.06.28 04:59:45.
