data_PCOD8290169
_publ_section_title
;
Structure prediction by ZEFSAII (Michael W. Deem and Ramdas Pophale) SiO2 
 PCOD8290169
Probable space group: I M M M
;
_chemical_formula_sum "Si O2"
_cell_formula_units_Z 88
_cell_length_a 18.818357
_cell_length_b 9.223324
_cell_length_c 27.308170
_cell_angle_alpha 90.000000
_cell_angle_beta 90.000000
_cell_angle_gamma 90.000000
_cell_volume 4739.819092
_symmetry_space_group_name_H-M "I M M M"
_symmetry_group_IT_number 71
_symmetry_cell_setting 'orthorhombic'
loop_
_space_group_symop_operation_xyz
x,y,z
-x,-y,z
x,-y,-z
-x,y,-z
-x,-y,-z
x,y,-z
-x,y,z
x,-y,z
1/2+x,1/2+y,1/2+z
1/2-x,1/2-y,1/2+z
1/2+x,1/2-y,1/2-z
1/2-x,1/2+y,1/2-z
1/2-x,1/2-y,1/2-z
1/2+x,1/2+y,1/2-z
1/2-x,1/2+y,1/2+z
1/2+x,1/2-y,1/2+z
loop_
_atom_site_type_symbol
_atom_site_label
_atom_site_fract_x
_atom_site_fract_y
_atom_site_fract_z
Si Si1 0.813966 0.828950 0.317936
Si Si2 0.922620 0.672779 0.500000
Si Si3 0.673280 0.334606 0.555357
Si Si4 0.658446 0.166241 0.349389
Si Si5 0.419008 0.832149 0.746707
Si Si6 0.333232 0.165654 0.911735
O O1 0.731082 0.778437 0.322181
O O2 0.857547 0.757635 0.273688
O O3 0.849610 0.772125 0.367236
O O4 0.820928 0.000000 0.311948
O O5 0.919940 0.500000 0.500000
O O6 0.886063 0.729899 0.451470
O O7 0.000000 0.739352 0.500000
O O8 0.655485 0.275939 0.500000
O O9 0.647278 0.500000 0.559089
O O10 0.636984 0.246776 0.599978
O O11 0.756606 0.322157 0.563986
O O12 0.594036 0.187888 0.311444
O O13 0.670236 0.000000 0.364017
O O14 0.500000 0.779762 0.758314
O O15 0.410009 0.000000 0.761450
O O16 0.349033 0.000000 0.895733
#
# Coordination Sequence:
#
# PCOD8290169 Si02
#       6
#    16   8  16  16  16  16
#     4  10  20  33  51  76 103 130 162 205 255 302
#     4   9  16  26  43  65  89 123 166 205 236 274
#     4   9  16  28  49  75 101 129 163 204 248 293
#     4   9  19  34  52  77 104 130 165 209 254 299
#     4  10  21  37  55  73  97 132 172 211 251 299
#     4   9  16  29  47  68  96 128 165 206 242 283
#
# _framework density 18.566109000000001
#
# number of rings (size 3 to 8) (size 9 to 14) (size 15 to 20)
#    0.000    2.636    0.909    1.091    0.000    2.909 
#    0.000    2.273    0.000    1.091    0.000    3.818 
#    0.000    0.000    0.000    0.000    0.000    0.000 
#
# Total GULP energy -545204.644159 kJ/mol
# GULP energy per Si atom -12391.014640 kJ/mol
# Density = 1.852385 g / cm^3
# Si number density = 18.566109 Si / 1000 Ang^3
#
#
#
# Elastic Constant Matrix: (Units=GPa)
#
#
# Indices 1 2 3 4 5 6 
#
# 1 36.9732 16.8830 23.3693 0.0000 0.0000 0.0000
# 2 16.8830 53.6589 39.0577 0.0000 0.0000 0.0000
# 3 23.3693 39.0577 110.1467 0.0000 0.0000 0.0000
# 4 0.0000 0.0000 0.0000 35.2850 0.0000 0.0000
# 5 0.0000 0.0000 0.0000 0.0000 72.0463 0.0000
# 6 0.0000 0.0000 0.0000 0.0000 0.0000 14.1115
#
#
#
# Elastic Compliance Matrix: (Units=1/GPa)
#
#
# Indices 1 2 3 4 5 6 
#
# 1 0.033158 -0.007160 -0.004496 0.000000 0.000000 0.000000
# 2 -0.007160 0.026666 -0.007937 0.000000 0.000000 0.000000
# 3 -0.004496 -0.007937 0.012847 0.000000 0.000000 0.000000
# 4 0.000000 0.000000 0.000000 0.028341 0.000000 0.000000
# 5 0.000000 0.000000 0.000000 0.000000 0.013880 0.000000
# 6 0.000000 0.000000 0.000000 0.000000 0.000000 0.070864
#
#
# Mechanical properties :
#
#
# Convention : Reuss Voigt Hill
#
# Bulk Modulus (GPa) = 29.86360 39.93321 34.89840
# Shear Modulus (GPa) = 21.17725 32.38650 26.78187
#
# Velocity S-wave (km/s) = 3.38100 4.18112 3.80216
# Velocity P-wave (km/s) = 5.60013 6.69809 6.17357
#
# Compressibility (1/GPa) = 0.03348558
#
# Stress axis : x y z
#
# Youngs Moduli (GPa) = 30.15881 37.50096 77.83927
#
# Poissons Ratio (x) = 0.26851 0.34997
# Poissons Ratio (y) = 0.21594 0.61778
# Poissons Ratio (z) = 0.13559 0.29763
#
# Static dielectric constant tensor:
#      x y z
#    x 3.239690 0.000000 0.000000 
#    y 0.000000 3.271810 0.000000 
#    z 0.000000 0.000000 3.563720 
# 
# 
# High freq. dielectric constant tensor:
#      x y z
#    x 1.693220 0.000000 0.000000 
#    y 0.000000 1.699740 0.000000 
#    z 0.000000 0.000000 1.731940 
# 
# From -- ./inp_files/61103.got.cif
#   From: 2010.06.25/outbox.cif.g09.slc.cpg/sg71_31_cif.got.tgz:61103.got - 2010.06.28 04:59:45.
