data_PCOD8290489
_publ_section_title
;
Structure prediction by ZEFSAII (Michael W. Deem and Ramdas Pophale) SiO2 
 PCOD8290489
Probable space group: I M M M
;
_chemical_formula_sum "Si O2"
_cell_formula_units_Z 112
_cell_length_a 13.825542
_cell_length_b 14.342736
_cell_length_c 29.412947
_cell_angle_alpha 90.000000
_cell_angle_beta 90.000000
_cell_angle_gamma 90.000000
_cell_volume 5832.472649
_symmetry_space_group_name_H-M "I M M M"
_symmetry_group_IT_number 71
_symmetry_cell_setting 'orthorhombic'
loop_
_space_group_symop_operation_xyz
x,y,z
-x,-y,z
x,-y,-z
-x,y,-z
-x,-y,-z
x,y,-z
-x,y,z
x,-y,z
1/2+x,1/2+y,1/2+z
1/2-x,1/2-y,1/2+z
1/2+x,1/2-y,1/2-z
1/2-x,1/2+y,1/2-z
1/2-x,1/2-y,1/2-z
1/2+x,1/2+y,1/2-z
1/2-x,1/2+y,1/2+z
1/2+x,1/2-y,1/2+z
loop_
_atom_site_type_symbol
_atom_site_label
_atom_site_fract_x
_atom_site_fract_y
_atom_site_fract_z
Si Si1 0.388346 0.238131 0.050797
Si Si2 0.279695 0.110473 0.776402
Si Si3 0.886559 0.749768 0.214269
Si Si4 0.385016 0.602711 0.448918
Si Si5 0.610398 0.892929 0.868458
Si Si6 0.239528 0.605487 0.948449
Si Si7 0.387255 0.227770 0.390519
O O1 0.500000 0.260829 0.057160
O O2 0.352980 0.162605 0.087385
O O3 0.335432 0.335095 0.060022
O O4 0.366612 0.199434 0.000000
O O5 0.174438 0.158826 0.770593
O O6 0.354775 0.157567 0.741485
O O7 0.320033 0.130651 0.826551
O O8 0.271543 0.000000 0.766220
O O9 0.862360 0.728779 0.162186
O O10 0.000000 0.770746 0.222236
O O11 0.350533 0.627429 0.500000
O O12 0.500000 0.601620 0.446823
O O13 0.346495 0.500000 0.434479
O O14 0.342412 0.679669 0.414555
O O15 0.500000 0.866422 0.855178
O O16 0.617211 0.000000 0.882101
O O17 0.267682 0.500000 0.937422
O O18 0.156391 0.636425 0.913757
O O19 0.200913 0.616936 0.000000
O O20 0.500000 0.224013 0.399500
#
# Coordination Sequence:
#
# PCOD8290489 Si02
#       7
#    16  16  16  16  16  16  16
#     4   9  18  33  53  77 105 136 172 219 272 320
#     4  10  21  38  59  81 108 142 178 219 268 323
#     4  10  22  38  57  83 110 138 177 224 272 323
#     4   8  14  26  46  73 105 140 174 205 241 292
#     4   9  17  31  55  84 110 139 173 209 259 327
#     4  10  21  35  50  70  99 138 184 228 265 305
#     4  10  20  34  53  77 107 141 173 210 259 312
#
# _framework density 19.202832999999998
#
# number of rings (size 3 to 8) (size 9 to 14) (size 15 to 20)
#    0.000    2.571    0.000    2.143    0.000    4.000 
#    0.000    7.143    0.000    0.857    0.000    4.000 
#    0.000    0.000    0.000    0.000    0.000    0.000 
#
# Total GULP energy -694361.063456 kJ/mol
# GULP energy per Si atom -12399.304705 kJ/mol
# Density = 1.915913 g / cm^3
# Si number density = 19.202833 Si / 1000 Ang^3
#
#
#
# Elastic Constant Matrix: (Units=GPa)
#
#
# Indices 1 2 3 4 5 6 
#
# 1 69.6160 48.5070 40.4408 0.0000 0.0000 0.0000
# 2 48.5070 139.0374 76.6364 0.0000 0.0000 0.0000
# 3 40.4408 76.6364 120.2173 0.0000 0.0000 0.0000
# 4 0.0000 0.0000 0.0000 27.9314 0.0000 0.0000
# 5 0.0000 0.0000 0.0000 0.0000 17.9311 0.0000
# 6 0.0000 0.0000 0.0000 0.0000 0.0000 27.5702
#
#
#
# Elastic Compliance Matrix: (Units=1/GPa)
#
#
# Indices 1 2 3 4 5 6 
#
# 1 0.019887 -0.005012 -0.003495 0.000000 0.000000 0.000000
# 2 -0.005012 0.012352 -0.006188 0.000000 0.000000 0.000000
# 3 -0.003495 -0.006188 0.013439 0.000000 0.000000 0.000000
# 4 0.000000 0.000000 0.000000 0.035802 0.000000 0.000000
# 5 0.000000 0.000000 0.000000 0.000000 0.055769 0.000000
# 6 0.000000 0.000000 0.000000 0.000000 0.000000 0.036271
#
#
# Mechanical properties :
#
#
# Convention : Reuss Voigt Hill
#
# Bulk Modulus (GPa) = 61.39577 73.33768 67.36672
# Shear Modulus (GPa) = 23.99949 25.57231 24.78590
#
# Velocity S-wave (km/s) = 3.53907 3.65320 3.59659
# Velocity P-wave (km/s) = 6.98152 7.48789 7.23913
#
# Compressibility (1/GPa) = 0.01628777
#
# Stress axis : x y z
#
# Youngs Moduli (GPa) = 50.28454 80.96178 74.41185
#
# Poissons Ratio (x) = 0.40575 0.26007
# Poissons Ratio (y) = 0.25201 0.46046
# Poissons Ratio (z) = 0.17575 0.50099
#
# Static dielectric constant tensor:
#      x y z
#    x 3.486750 0.000000 0.000000 
#    y 0.000000 3.547300 0.000000 
#    z 0.000000 0.000000 3.577350 
# 
# 
# High freq. dielectric constant tensor:
#      x y z
#    x 1.750080 0.000000 0.000000 
#    y 0.000000 1.740540 0.000000 
#    z 0.000000 0.000000 1.746080 
# 
# From -- ./inp_files/22710.got.cif
#   From: 2010.06.25/outbox.cif.g09.slc.cpg/sg71_12_cif.got.tgz:22710.got - 2010.06.28 04:59:45.
