data_PCOD8290626
_publ_section_title
;
Structure prediction by ZEFSAII (Michael W. Deem and Ramdas Pophale) SiO2 
 PCOD8290626
Probable space group: I M M M
;
_chemical_formula_sum "Si O2"
_cell_formula_units_Z 104
_cell_length_a 27.947130
_cell_length_b 8.987406
_cell_length_c 22.797682
_cell_angle_alpha 90.000000
_cell_angle_beta 90.000000
_cell_angle_gamma 90.000000
_cell_volume 5726.144030
_symmetry_space_group_name_H-M "I M M M"
_symmetry_group_IT_number 71
_symmetry_cell_setting 'orthorhombic'
loop_
_space_group_symop_operation_xyz
x,y,z
-x,-y,z
x,-y,-z
-x,y,-z
-x,-y,-z
x,y,-z
-x,y,z
x,-y,z
1/2+x,1/2+y,1/2+z
1/2-x,1/2-y,1/2+z
1/2+x,1/2-y,1/2-z
1/2-x,1/2+y,1/2-z
1/2-x,1/2-y,1/2-z
1/2+x,1/2+y,1/2-z
1/2-x,1/2+y,1/2+z
1/2+x,1/2-y,1/2+z
loop_
_atom_site_type_symbol
_atom_site_label
_atom_site_fract_x
_atom_site_fract_y
_atom_site_fract_z
Si Si1 0.349863 0.824363 0.122687
Si Si2 0.947100 0.323767 0.433845
Si Si3 0.908378 0.827396 0.066303
Si Si4 0.817035 0.824835 0.139830
Si Si5 0.735331 0.673525 0.067141
Si Si6 0.198128 0.324180 0.745367
Si Si7 0.500000 0.167603 0.430057
O O1 0.404955 0.772742 0.111021
O O2 0.318064 0.735383 0.075682
O O3 0.332193 0.779796 0.187829
O O4 0.343846 0.000000 0.111866
O O5 0.936391 0.265436 0.500000
O O6 0.948358 0.500000 0.435011
O O7 0.000000 0.265229 0.413319
O O8 0.859666 0.783488 0.096978
O O9 0.952779 0.743818 0.096557
O O10 0.919850 0.000000 0.070511
O O11 0.902079 0.773168 0.000000
O O12 0.768401 0.765067 0.111582
O O13 0.830795 0.741121 0.199667
O O14 0.810979 0.000000 0.150902
O O15 0.737730 0.500000 0.083310
O O16 0.751131 0.700830 0.000000
O O17 0.204479 0.500000 0.749903
O O18 0.250000 0.250000 0.750000
O O19 0.500000 0.186444 0.500000
O O20 0.500000 0.000000 0.408721
#
# Coordination Sequence:
#
# PCOD8290626 Si02
#       7
#    16  16  16  16  16  16   8
#     4  10  20  34  55  79 104 141 183 219 262 320
#     4   8  14  27  51  83 112 135 167 217 272 322
#     4   9  18  33  53  76 102 134 173 215 262 319
#     4  11  22  36  55  77 102 140 182 222 268 317
#     4  11  23  35  50  77 111 142 171 214 270 321
#     4  11  22  36  54  76 104 141 183 224 264 312
#     4   9  17  29  49  77 105 133 165 205 258 315
#
# _framework density 18.162310000000002
#
# number of rings (size 3 to 8) (size 9 to 14) (size 15 to 20)
#    0.000    2.077    1.538    3.000    0.000    5.231 
#    0.000    1.538    1.692    0.462    0.000    2.154 
#    0.000    0.000    0.000    0.000    0.000    0.000 
#
# Total GULP energy -644642.198681 kJ/mol
# GULP energy per Si atom -12396.965359 kJ/mol
# Density = 1.812097 g / cm^3
# Si number density = 18.162310 Si / 1000 Ang^3
#
#
#
# Elastic Constant Matrix: (Units=GPa)
#
#
# Indices 1 2 3 4 5 6 
#
# 1 144.7559 40.5320 54.8400 0.0000 0.0000 0.0000
# 2 40.5320 53.0329 34.7801 0.0000 0.0000 0.0000
# 3 54.8400 34.7801 92.7155 0.0000 0.0000 0.0000
# 4 0.0000 0.0000 0.0000 25.3753 0.0000 0.0000
# 5 0.0000 0.0000 0.0000 0.0000 18.3224 0.0000
# 6 0.0000 0.0000 0.0000 0.0000 0.0000 14.9829
#
#
#
# Elastic Compliance Matrix: (Units=1/GPa)
#
#
# Indices 1 2 3 4 5 6 
#
# 1 0.009770 -0.004877 -0.003949 0.000000 0.000000 0.000000
# 2 -0.004877 0.027443 -0.007410 0.000000 0.000000 0.000000
# 3 -0.003949 -0.007410 0.015901 0.000000 0.000000 0.000000
# 4 0.000000 0.000000 0.000000 0.039408 0.000000 0.000000
# 5 0.000000 0.000000 0.000000 0.000000 0.054578 0.000000
# 6 0.000000 0.000000 0.000000 0.000000 0.000000 0.066743
#
#
# Mechanical properties :
#
#
# Convention : Reuss Voigt Hill
#
# Bulk Modulus (GPa) = 48.44508 61.20092 54.82300
# Shear Modulus (GPa) = 19.74749 22.42627 21.08688
#
# Velocity S-wave (km/s) = 3.30097 3.51774 3.41108
# Velocity P-wave (km/s) = 6.42338 7.09007 6.76495
#
# Compressibility (1/GPa) = 0.02064193
#
# Stress axis : x y z
#
# Youngs Moduli (GPa) = 102.35514 36.43886 62.88770
#
# Poissons Ratio (x) = 0.17771 0.24836
# Poissons Ratio (y) = 0.49918 0.46600
# Poissons Ratio (z) = 0.40423 0.27001
#
# Static dielectric constant tensor:
#      x y z
#    x 3.625430 0.000000 0.000000 
#    y 0.000000 3.250690 0.000000 
#    z 0.000000 0.000000 3.756650 
# 
# 
# High freq. dielectric constant tensor:
#      x y z
#    x 1.708920 0.000000 0.000000 
#    y 0.000000 1.693310 0.000000 
#    z 0.000000 0.000000 1.688720 
# 
# From -- ./inp_files/56659.got.cif
#   From: 2010.06.25/outbox.cif.g09.slc.cpg/sg71_29_cif.got.tgz:56659.got - 2010.06.28 04:59:45.
