data_PCOD8290378
_publ_section_title
;
Structure prediction by ZEFSAII (Michael W. Deem and Ramdas Pophale) SiO2 
 PCOD8290378
Probable space group: I M M M
;
_chemical_formula_sum "Si O2"
_cell_formula_units_Z 120
_cell_length_a 26.867380
_cell_length_b 27.933660
_cell_length_c 8.678276
_cell_angle_alpha 90.000000
_cell_angle_beta 90.000000
_cell_angle_gamma 90.000000
_cell_volume 6513.083090
_symmetry_space_group_name_H-M "I M M M"
_symmetry_group_IT_number 71
_symmetry_cell_setting 'orthorhombic'
loop_
_space_group_symop_operation_xyz
x,y,z
-x,-y,z
x,-y,-z
-x,y,-z
-x,-y,-z
x,y,-z
-x,y,z
x,-y,z
1/2+x,1/2+y,1/2+z
1/2-x,1/2-y,1/2+z
1/2+x,1/2-y,1/2-z
1/2-x,1/2+y,1/2-z
1/2-x,1/2-y,1/2-z
1/2+x,1/2+y,1/2-z
1/2-x,1/2+y,1/2+z
1/2+x,1/2-y,1/2+z
loop_
_atom_site_type_symbol
_atom_site_label
_atom_site_fract_x
_atom_site_fract_y
_atom_site_fract_z
Si Si1 0.554600 0.809892 0.816175
Si Si2 0.406274 0.390235 0.680328
Si Si3 0.785512 0.445621 0.680408
Si Si4 0.802219 0.111942 0.681323
Si Si5 0.500000 0.443836 0.820261
Si Si6 0.849472 0.640192 0.318805
Si Si7 0.245747 0.697587 0.317372
Si Si8 0.558041 0.297690 0.825923
O O1 0.500000 0.825076 0.752026
O O2 0.596815 0.845445 0.747133
O O3 0.567697 0.755903 0.763903
O O4 0.552688 0.810823 0.000000
O O5 0.403304 0.399002 0.500000
O O6 0.354909 0.407155 0.757201
O O7 0.450791 0.421505 0.747561
O O8 0.413577 0.334010 0.714605
O O9 0.773399 0.438845 0.500000
O O10 0.798159 0.500000 0.723354
O O11 0.737920 0.428313 0.774747
O O12 0.834012 0.413982 0.726163
O O13 0.804138 0.118270 0.500000
O O14 0.789584 0.163428 0.755880
O O15 0.500000 0.500000 0.786534
O O16 0.500000 0.431800 0.000000
O O17 0.854282 0.645840 0.500000
O O18 0.806817 0.676137 0.259486
O O19 0.249348 0.699297 0.500000
O O20 0.250000 0.750000 0.250000
O O21 0.500000 0.310017 0.822804
O O22 0.578642 0.303652 0.000000
#
# Coordination Sequence:
#
# PCOD8290378 Si02
#       8
#    16  16  16  16   8  16  16  16
#     4   8  14  25  45  76 109 144 183 220 255 306
#     4  12  24  38  57  81 110 141 177 226 280 335
#     4   9  18  35  57  78 104 138 177 227 284 338
#     4  11  23  38  56  78 106 142 184 231 280 330
#     4  11  25  45  65  83 105 139 185 233 280 335
#     4   8  15  28  47  73 105 141 181 220 265 323
#     4  10  20  34  51  77 112 147 185 226 276 335
#     4   9  17  30  50  74 104 142 183 221 262 313
#
# _framework density 18.424454000000001
#
# number of rings (size 3 to 8) (size 9 to 14) (size 15 to 20)
#    0.000    2.333    0.667    4.600    1.867    1.333 
#    0.000    0.000    0.000    0.400    0.000    2.800 
#    0.000    0.000    0.000    4.800    0.000    5.333 
#
# Total GULP energy -743878.727851 kJ/mol
# GULP energy per Si atom -12397.978798 kJ/mol
# Density = 1.838252 g / cm^3
# Si number density = 18.424454 Si / 1000 Ang^3
#
#
#
# Elastic Constant Matrix: (Units=GPa)
#
#
# Indices 1 2 3 4 5 6 
#
# 1 127.7681 65.2980 35.8068 0.0000 0.0000 0.0000
# 2 65.2980 128.6221 38.2600 0.0000 0.0000 0.0000
# 3 35.8068 38.2600 81.1514 0.0000 0.0000 0.0000
# 4 0.0000 0.0000 0.0000 20.1826 0.0000 0.0000
# 5 0.0000 0.0000 0.0000 0.0000 18.7496 0.0000
# 6 0.0000 0.0000 0.0000 0.0000 0.0000 22.0708
#
#
#
# Elastic Compliance Matrix: (Units=1/GPa)
#
#
# Indices 1 2 3 4 5 6 
#
# 1 0.011017 -0.004823 -0.002587 0.000000 0.000000 0.000000
# 2 -0.004823 0.011155 -0.003131 0.000000 0.000000 0.000000
# 3 -0.002587 -0.003131 0.014940 0.000000 0.000000 0.000000
# 4 0.000000 0.000000 0.000000 0.049548 0.000000 0.000000
# 5 0.000000 0.000000 0.000000 0.000000 0.053334 0.000000
# 6 0.000000 0.000000 0.000000 0.000000 0.000000 0.045309
#
#
# Mechanical properties :
#
#
# Convention : Reuss Voigt Hill
#
# Bulk Modulus (GPa) = 62.38544 68.47459 65.43002
# Shear Modulus (GPa) = 23.61526 25.41240 24.51383
#
# Velocity S-wave (km/s) = 3.58402 3.71789 3.65157
# Velocity P-wave (km/s) = 7.14567 7.46164 7.30536
#
# Compressibility (1/GPa) = 0.01602938
#
# Stress axis : x y z
#
# Youngs Moduli (GPa) = 90.77095 89.64821 66.93377
#
# Poissons Ratio (x) = 0.43241 0.17315
# Poissons Ratio (y) = 0.43782 0.20956
# Poissons Ratio (z) = 0.23482 0.28067
#
# Static dielectric constant tensor:
#      x y z
#    x 3.682380 0.000000 0.000000 
#    y 0.000000 3.345050 0.000000 
#    z 0.000000 0.000000 3.158080 
# 
# 
# High freq. dielectric constant tensor:
#      x y z
#    x 1.716060 0.000000 0.000000 
#    y 0.000000 1.707030 0.000000 
#    z 0.000000 0.000000 1.691700 
# 
# From -- ./inp_files/15677.got.cif
#   From: 2010.06.25/outbox.cif.g09.slc.cpg/sg71_8_cif.got.tgz:15677.got - 2010.06.28 04:59:45.
