data_PCOD8290298
_publ_section_title
;
Structure prediction by ZEFSAII (Michael W. Deem and Ramdas Pophale) SiO2 
 PCOD8290298
Probable space group: I M M M
;
_chemical_formula_sum "Si O2"
_cell_formula_units_Z 80
_cell_length_a 25.877215
_cell_length_b 9.865627
_cell_length_c 17.187343
_cell_angle_alpha 90.000000
_cell_angle_beta 90.000000
_cell_angle_gamma 90.000000
_cell_volume 4387.841889
_symmetry_space_group_name_H-M "I M M M"
_symmetry_group_IT_number 71
_symmetry_cell_setting 'orthorhombic'
loop_
_space_group_symop_operation_xyz
x,y,z
-x,-y,z
x,-y,-z
-x,y,-z
-x,-y,-z
x,y,-z
-x,y,z
x,-y,z
1/2+x,1/2+y,1/2+z
1/2-x,1/2-y,1/2+z
1/2+x,1/2-y,1/2-z
1/2-x,1/2+y,1/2-z
1/2-x,1/2-y,1/2-z
1/2+x,1/2+y,1/2-z
1/2-x,1/2+y,1/2+z
1/2+x,1/2-y,1/2+z
loop_
_atom_site_type_symbol
_atom_site_label
_atom_site_fract_x
_atom_site_fract_y
_atom_site_fract_z
Si Si1 0.059198 0.844732 0.157724
Si Si2 0.901505 0.750628 0.680850
Si Si3 0.700167 0.841029 0.738458
Si Si4 0.440117 0.500000 0.907862
Si Si5 0.361960 0.152713 0.586758
Si Si6 0.560000 0.000000 0.085760
O O1 0.065408 0.778882 0.242232
O O2 0.091571 0.759010 0.095554
O O3 0.000000 0.838185 0.131721
O O4 0.079131 0.000000 0.159227
O O5 0.842477 0.717591 0.702496
O O6 0.906795 0.874807 0.622338
O O7 0.925368 0.627206 0.636004
O O8 0.750000 0.750000 0.750000
O O9 0.682755 0.819195 0.649302
O O10 0.711005 0.000000 0.755944
O O11 0.500000 0.500000 0.877174
O O12 0.440431 0.500000 0.000000
O O13 0.338608 0.169314 0.500000
O O14 0.383705 0.000000 0.599281
O O15 0.500000 0.000000 0.070983
O O16 0.587067 0.000000 0.000000
#
# Coordination Sequence:
#
# PCOD8290298 Si02
#       6
#    16  16  16   8  16   8
#     4  10  20  33  53  82 115 153 191 228 274 332
#     4  11  21  38  57  85 119 153 199 248 288 351
#     4  10  22  40  65  87 111 149 194 244 298 351
#     4  11  22  36  57  86 123 167 206 241 290 350
#     4   9  20  39  59  83 113 144 184 231 282 338
#     4  11  22  36  57  84 121 165 198 239 300 356
#
# _framework density 18.232198
#
# number of rings (size 3 to 8) (size 9 to 14) (size 15 to 20)
#    0.000    1.800    2.000    2.400    2.800    3.600 
#    0.000    4.000    0.000    0.000    0.000    0.000 
#    0.000    0.000    0.000    0.000    0.000    0.000 
#
# Total GULP energy -495946.720640 kJ/mol
# GULP energy per Si atom -12398.668016 kJ/mol
# Density = 1.819070 g / cm^3
# Si number density = 18.232198 Si / 1000 Ang^3
#
#
#
# Elastic Constant Matrix: (Units=GPa)
#
#
# Indices 1 2 3 4 5 6 
#
# 1 110.3620 70.3806 47.2348 0.0000 0.0000 0.0000
# 2 70.3806 161.7005 63.7757 0.0000 0.0000 0.0000
# 3 47.2348 63.7757 111.4357 0.0000 0.0000 0.0000
# 4 0.0000 0.0000 0.0000 44.9370 0.0000 0.0000
# 5 0.0000 0.0000 0.0000 0.0000 17.9125 0.0000
# 6 0.0000 0.0000 0.0000 0.0000 0.0000 36.8013
#
#
#
# Elastic Compliance Matrix: (Units=1/GPa)
#
#
# Indices 1 2 3 4 5 6 
#
# 1 0.013275 -0.004596 -0.002996 0.000000 0.000000 0.000000
# 2 -0.004596 0.009578 -0.003534 0.000000 0.000000 0.000000
# 3 -0.002996 -0.003534 0.012266 0.000000 0.000000 0.000000
# 4 0.000000 0.000000 0.000000 0.022253 0.000000 0.000000
# 5 0.000000 0.000000 0.000000 0.000000 0.055827 0.000000
# 6 0.000000 0.000000 0.000000 0.000000 0.000000 0.027173
#
#
# Mechanical properties :
#
#
# Convention : Reuss Voigt Hill
#
# Bulk Modulus (GPa) = 77.71814 82.92007 80.31911
# Shear Modulus (GPa) = 29.95561 33.40395 31.67978
#
# Velocity S-wave (km/s) = 4.05780 4.28500 4.17294
# Velocity P-wave (km/s) = 8.04200 8.37020 8.20774
#
# Compressibility (1/GPa) = 0.01286701
#
# Stress axis : x y z
#
# Youngs Moduli (GPa) = 75.33232 104.40161 81.52446
#
# Poissons Ratio (x) = 0.47983 0.24428
# Poissons Ratio (y) = 0.34622 0.28808
# Poissons Ratio (z) = 0.22573 0.36892
#
# Static dielectric constant tensor:
#      x y z
#    x 3.292840 0.000000 0.000000 
#    y 0.000000 3.673310 0.000000 
#    z 0.000000 0.000000 3.584810 
# 
# 
# High freq. dielectric constant tensor:
#      x y z
#    x 1.683010 0.000000 0.000000 
#    y 0.000000 1.727580 0.000000 
#    z 0.000000 0.000000 1.714650 
# 
# From -- ./inp_files/14597.got.cif
#   From: 2010.06.25/outbox.cif.g09.slc.cpg/sg71_8_cif.got.tgz:14597.got - 2010.06.28 04:59:45.
