data_PCOD8290116
_publ_section_title
;
Structure prediction by ZEFSAII (Michael W. Deem and Ramdas Pophale) SiO2 
 PCOD8290116
Probable space group: I M M M
;
_chemical_formula_sum "Si O2"
_cell_formula_units_Z 72
_cell_length_a 32.441220
_cell_length_b 8.947956
_cell_length_c 13.499820
_cell_angle_alpha 90.000000
_cell_angle_beta 90.000000
_cell_angle_gamma 90.000000
_cell_volume 3918.762973
_symmetry_space_group_name_H-M "I M M M"
_symmetry_group_IT_number 71
_symmetry_cell_setting 'orthorhombic'
loop_
_space_group_symop_operation_xyz
x,y,z
-x,-y,z
x,-y,-z
-x,y,-z
-x,-y,-z
x,y,-z
-x,y,z
x,-y,z
1/2+x,1/2+y,1/2+z
1/2-x,1/2-y,1/2+z
1/2+x,1/2-y,1/2-z
1/2-x,1/2+y,1/2-z
1/2-x,1/2-y,1/2-z
1/2+x,1/2+y,1/2-z
1/2-x,1/2+y,1/2+z
1/2+x,1/2-y,1/2+z
loop_
_atom_site_type_symbol
_atom_site_label
_atom_site_fract_x
_atom_site_fract_y
_atom_site_fract_z
Si Si1 0.500000 0.177517 0.384721
Si Si2 0.129894 0.323286 0.614453
Si Si3 0.206819 0.328967 0.263065
Si Si4 0.076050 0.829119 0.778958
Si Si5 0.157773 0.836067 0.886255
O O1 0.500000 0.234531 0.500000
O O2 0.538626 0.235125 0.322218
O O3 0.500000 0.000000 0.383669
O O4 0.124241 0.278714 0.500000
O O5 0.124973 0.500000 0.631606
O O6 0.176230 0.272563 0.648536
O O7 0.094516 0.240480 0.677524
O O8 0.217030 0.500000 0.278590
O O9 0.250000 0.250000 0.250000
O O10 0.182122 0.299624 0.162630
O O11 0.109558 0.821167 0.865634
O O12 0.062570 0.000000 0.757121
O O13 0.173048 0.000000 0.847977
O O14 0.166673 0.819909 0.000000
#
# Coordination Sequence:
#
# PCOD8290116 Si02
#       5
#     8  16  16  16  16
#     4  11  23  37  56  83 114 147 179 212 256 315
#     4   9  19  37  58  77 103 143 185 224 270 322
#     4  10  20  33  50  75 105 137 176 220 265 313
#     4  10  20  35  56  82 110 138 173 219 266 314
#     4   9  18  33  52  73 100 135 170 207 258 315
#
# _framework density 18.373144
#
# number of rings (size 3 to 8) (size 9 to 14) (size 15 to 20)
#    0.000    2.333    0.000    2.333    0.000    5.333 
#    0.000    2.778    0.000    3.333    0.000    0.000 
#    0.000    0.000    0.000    0.000    0.000    0.000 
#
# Total GULP energy -446131.210731 kJ/mol
# GULP energy per Si atom -12392.533631 kJ/mol
# Density = 1.833133 g / cm^3
# Si number density = 18.373144 Si / 1000 Ang^3
#
#
#
# Elastic Constant Matrix: (Units=GPa)
#
#
# Indices 1 2 3 4 5 6 
#
# 1 113.4690 46.6143 60.4837 0.0000 0.0000 0.0000
# 2 46.6143 68.1431 45.4139 0.0000 0.0000 0.0000
# 3 60.4837 45.4139 105.0830 0.0000 0.0000 0.0000
# 4 0.0000 0.0000 0.0000 27.2700 0.0000 0.0000
# 5 0.0000 0.0000 0.0000 0.0000 13.6067 0.0000
# 6 0.0000 0.0000 0.0000 0.0000 0.0000 35.7604
#
#
#
# Elastic Compliance Matrix: (Units=1/GPa)
#
#
# Indices 1 2 3 4 5 6 
#
# 1 0.014283 -0.006028 -0.005616 0.000000 0.000000 0.000000
# 2 -0.006028 0.023155 -0.006538 0.000000 0.000000 0.000000
# 3 -0.005616 -0.006538 0.015574 0.000000 0.000000 0.000000
# 4 0.000000 0.000000 0.000000 0.036670 0.000000 0.000000
# 5 0.000000 0.000000 0.000000 0.000000 0.073493 0.000000
# 6 0.000000 0.000000 0.000000 0.000000 0.000000 0.027964
#
#
# Mechanical properties :
#
#
# Convention : Reuss Voigt Hill
#
# Bulk Modulus (GPa) = 60.06101 65.74653 62.90377
# Shear Modulus (GPa) = 21.45447 24.27296 22.86371
#
# Velocity S-wave (km/s) = 3.42088 3.63865 3.53145
# Velocity P-wave (km/s) = 6.95441 7.31538 7.13718
#
# Compressibility (1/GPa) = 0.01664974
#
# Stress axis : x y z
#
# Youngs Moduli (GPa) = 70.01500 43.18666 64.20928
#
# Poissons Ratio (x) = 0.26031 0.36059
# Poissons Ratio (y) = 0.42202 0.41978
# Poissons Ratio (z) = 0.39319 0.28234
#
# Static dielectric constant tensor:
#      x y z
#    x 3.661620 0.000000 0.000000 
#    y 0.000000 3.542700 0.000000 
#    z 0.000000 0.000000 3.366740 
# 
# 
# High freq. dielectric constant tensor:
#      x y z
#    x 1.711990 0.000000 0.000000 
#    y 0.000000 1.717690 0.000000 
#    z 0.000000 0.000000 1.708090 
# 
# From -- ./inp_files/6461.got.cif
#   From: 2010.06.25/outbox.cif.g09.slc.cpg/sg71_4_cif.got.tgz:6461.got - 2010.06.28 04:59:45.
