data_PCOD8290791
_publ_section_title
;
Structure prediction by ZEFSAII (Michael W. Deem and Ramdas Pophale) SiO2 
 PCOD8290791
Probable space group: I M M M
;
_chemical_formula_sum "Si O2"
_cell_formula_units_Z 112
_cell_length_a 13.732705
_cell_length_b 31.603929
_cell_length_c 14.040032
_cell_angle_alpha 90.000000
_cell_angle_beta 90.000000
_cell_angle_gamma 90.000000
_cell_volume 6093.478259
_symmetry_space_group_name_H-M "I M M M"
_symmetry_group_IT_number 71
_symmetry_cell_setting 'orthorhombic'
loop_
_space_group_symop_operation_xyz
x,y,z
-x,-y,z
x,-y,-z
-x,y,-z
-x,-y,-z
x,y,-z
-x,y,z
x,-y,z
1/2+x,1/2+y,1/2+z
1/2-x,1/2-y,1/2+z
1/2+x,1/2-y,1/2-z
1/2-x,1/2+y,1/2-z
1/2-x,1/2-y,1/2-z
1/2+x,1/2+y,1/2-z
1/2-x,1/2+y,1/2+z
1/2+x,1/2-y,1/2+z
loop_
_atom_site_type_symbol
_atom_site_label
_atom_site_fract_x
_atom_site_fract_y
_atom_site_fract_z
Si Si1 0.387553 0.700726 0.105776
Si Si2 0.741358 0.675017 0.609884
Si Si3 0.763206 0.118714 0.610354
Si Si4 0.387546 0.451434 0.792926
Si Si5 0.888380 0.095349 0.105883
Si Si6 0.610461 0.743198 0.298003
Si Si7 0.111767 0.662152 0.769229
O O1 0.500000 0.688125 0.106135
O O2 0.331433 0.658366 0.134394
O O3 0.364720 0.736158 0.185377
O O4 0.357098 0.717402 0.000000
O O5 0.768889 0.676735 0.500000
O O6 0.671051 0.636441 0.636547
O O7 0.686163 0.718087 0.637454
O O8 0.841412 0.667303 0.665327
O O9 0.736788 0.115288 0.500000
O O10 0.817517 0.076064 0.640775
O O11 0.663355 0.125659 0.668632
O O12 0.500000 0.442060 0.819440
O O13 0.361141 0.500000 0.811501
O O14 0.368118 0.441741 0.681433
O O15 0.000000 0.109533 0.107665
O O16 0.858776 0.079205 0.000000
O O17 0.500000 0.728204 0.319558
O O18 0.621914 0.792641 0.322795
O O19 0.000000 0.648970 0.755584
#
# Coordination Sequence:
#
# PCOD8290791 Si02
#       7
#    16  16  16  16  16  16  16
#     4   9  17  30  53  82 110 144 183 224 272 328
#     4  11  21  34  56  82 111 147 186 229 278 329
#     4  11  22  37  57  78 107 146 186 226 273 332
#     4  10  20  35  59  91 123 147 169 210 272 341
#     4   9  17  31  54  86 120 151 181 213 260 328
#     4  10  20  35  54  79 112 144 183 233 281 332
#     4  11  24  40  55  75 107 149 196 242 280 313
#
# _framework density 18.380307999999999
#
# number of rings (size 3 to 8) (size 9 to 14) (size 15 to 20)
#    0.000    1.857    2.857    1.286    0.000    6.286 
#    0.000    5.000    0.000    0.429    0.000    1.000 
#    0.000    2.286    0.000    0.000    0.000    0.000 
#
# Total GULP energy -694466.652272 kJ/mol
# GULP energy per Si atom -12401.190219 kJ/mol
# Density = 1.833847 g / cm^3
# Si number density = 18.380308 Si / 1000 Ang^3
#
#
#
# Elastic Constant Matrix: (Units=GPa)
#
#
# Indices 1 2 3 4 5 6 
#
# 1 100.4779 47.3599 52.8663 0.0000 0.0002 0.0000
# 2 47.3599 77.7453 35.7045 -0.0001 0.0000 0.0000
# 3 52.8663 35.7045 93.1113 -0.0008 -0.0002 0.0002
# 4 0.0000 -0.0001 -0.0008 18.1732 0.0000 0.0000
# 5 0.0002 0.0000 -0.0002 0.0000 21.2389 0.0000
# 6 0.0000 0.0000 0.0002 0.0000 0.0000 25.1530
#
#
#
# Elastic Compliance Matrix: (Units=1/GPa)
#
#
# Indices 1 2 3 4 5 6 
#
# 1 0.016947 -0.007167 -0.006874 0.000000 0.000000 0.000000
# 2 -0.007167 0.018643 -0.003080 0.000000 0.000000 0.000000
# 3 -0.006874 -0.003080 0.015824 0.000001 0.000000 0.000000
# 4 0.000000 0.000000 0.000001 0.055026 0.000000 0.000000
# 5 0.000000 0.000000 0.000000 0.000000 0.047083 0.000000
# 6 0.000000 0.000000 0.000000 0.000000 0.000000 0.039757
#
#
# Mechanical properties :
#
#
# Convention : Reuss Voigt Hill
#
# Bulk Modulus (GPa) = 58.23214 60.35511 59.29363
# Shear Modulus (GPa) = 21.43671 21.93994 21.68832
#
# Velocity S-wave (km/s) = 3.41880 3.45869 3.43880
# Velocity P-wave (km/s) = 6.88003 6.98986 6.93517
#
# Compressibility (1/GPa) = 0.01717265
#
# Stress axis : x y z
#
# Youngs Moduli (GPa) = 59.00654 53.64065 63.19657
#
# Poissons Ratio (x) = 0.38443 0.43442
# Poissons Ratio (y) = 0.42289 0.19462
# Poissons Ratio (z) = 0.40561 0.16519
#
# Static dielectric constant tensor:
#      x y z
#    x 3.368000 0.000000 0.000000 
#    y 0.000000 3.163090 0.000000 
#    z 0.000000 0.000000 3.506960 
# 
# 
# High freq. dielectric constant tensor:
#      x y z
#    x 1.704930 0.000000 0.000000 
#    y 0.000000 1.684780 0.000000 
#    z 0.000000 0.000000 1.720470 
# 
# From -- ./inp_files/35398.got.cif
#   From: 2010.06.25/outbox.cif.g09.slc.cpg/sg71_18_cif.got.tgz:35398.got - 2010.06.28 04:59:45.
