data_PCOD8290150
_publ_section_title
;
Structure prediction by ZEFSAII (Michael W. Deem and Ramdas Pophale) SiO2 
 PCOD8290150
Probable space group: I M M M
;
_chemical_formula_sum "Si O2"
_cell_formula_units_Z 104
_cell_length_a 28.177367
_cell_length_b 20.976035
_cell_length_c 9.885526
_cell_angle_alpha 90.000000
_cell_angle_beta 90.000000
_cell_angle_gamma 90.000000
_cell_volume 5842.834571
_symmetry_space_group_name_H-M "I M M M"
_symmetry_group_IT_number 71
_symmetry_cell_setting 'orthorhombic'
loop_
_space_group_symop_operation_xyz
x,y,z
-x,-y,z
x,-y,-z
-x,y,-z
-x,-y,-z
x,y,-z
-x,y,z
x,-y,z
1/2+x,1/2+y,1/2+z
1/2-x,1/2-y,1/2+z
1/2+x,1/2-y,1/2-z
1/2-x,1/2+y,1/2-z
1/2-x,1/2-y,1/2-z
1/2+x,1/2+y,1/2-z
1/2-x,1/2+y,1/2+z
1/2+x,1/2-y,1/2+z
loop_
_atom_site_type_symbol
_atom_site_label
_atom_site_fract_x
_atom_site_fract_y
_atom_site_fract_z
Si Si1 0.866705 0.597524 0.342686
Si Si2 0.946068 0.188414 0.845214
Si Si3 0.812294 0.137496 0.344047
Si Si4 0.946420 0.500000 0.658714
Si Si5 0.281549 0.929351 0.348243
Si Si6 0.874596 0.254662 0.654781
Si Si7 0.383985 0.428464 0.347149
O O1 0.856738 0.582971 0.500000
O O2 0.916390 0.563472 0.299068
O O3 0.824635 0.568656 0.255475
O O4 0.865283 0.672252 0.312232
O O5 0.917480 0.235615 0.750299
O O6 0.929511 0.115898 0.823480
O O7 0.000000 0.192616 0.799628
O O8 0.938768 0.210100 0.000000
O O9 0.821684 0.119850 0.500000
O O10 0.757170 0.124743 0.307984
O O11 0.827835 0.211043 0.314870
O O12 0.842232 0.089567 0.253594
O O13 0.953648 0.500000 0.500000
O O14 0.000000 0.500000 0.724698
O O15 0.300542 0.914932 0.500000
O O16 0.257943 0.000000 0.344041
O O17 0.890689 0.245482 0.500000
O O18 0.364465 0.420738 0.500000
O O19 0.401024 0.500000 0.318087
#
# Coordination Sequence:
#
# PCOD8290150 Si02
#       7
#    16  16  16   8  16  16  16
#     4  10  20  35  55  78 101 128 164 208 256 302
#     4   9  18  32  49  70  98 132 168 207 255 306
#     4   9  18  33  50  71 101 137 172 205 247 300
#     4   9  18  34  55  77 101 129 163 205 256 311
#     4  10  20  33  51  74 102 136 169 201 245 303
#     4   9  19  34  52  74 100 130 169 214 254 300
#     4   9  17  29  46  70  99 131 171 215 252 290
#
# _framework density 17.799579999999999
#
# number of rings (size 3 to 8) (size 9 to 14) (size 15 to 20)
#    0.000    2.692    0.769    0.462    0.000    4.000 
#    0.000    3.077    0.000    0.923    0.000    4.308 
#    0.000    0.000    0.000    0.000    0.000    0.000 
#
# Total GULP energy -644521.270439 kJ/mol
# GULP energy per Si atom -12394.639816 kJ/mol
# Density = 1.775907 g / cm^3
# Si number density = 17.799580 Si / 1000 Ang^3
#
#
#
# Elastic Constant Matrix: (Units=GPa)
#
#
# Indices 1 2 3 4 5 6 
#
# 1 126.4890 52.3062 48.4694 0.0000 0.0000 0.0000
# 2 52.3062 108.5811 37.3873 0.0000 0.0000 0.0000
# 3 48.4694 37.3873 54.4226 0.0000 0.0000 0.0000
# 4 0.0000 0.0000 0.0000 21.4264 0.0000 0.0000
# 5 0.0000 0.0000 0.0000 0.0000 29.3958 0.0000
# 6 0.0000 0.0000 0.0000 0.0000 0.0000 18.9339
#
#
#
# Elastic Compliance Matrix: (Units=1/GPa)
#
#
# Indices 1 2 3 4 5 6 
#
# 1 0.012664 -0.002904 -0.009284 0.000000 0.000000 0.000000
# 2 -0.002904 0.012729 -0.006158 0.000000 0.000000 0.000000
# 3 -0.009284 -0.006158 0.030874 0.000000 0.000000 0.000000
# 4 0.000000 0.000000 0.000000 0.046671 0.000000 0.000000
# 5 0.000000 0.000000 0.000000 0.000000 0.034018 0.000000
# 6 0.000000 0.000000 0.000000 0.000000 0.000000 0.052815
#
#
# Mechanical properties :
#
#
# Convention : Reuss Voigt Hill
#
# Bulk Modulus (GPa) = 51.08666 62.86873 56.97769
# Shear Modulus (GPa) = 21.46021 24.03989 22.75005
#
# Velocity S-wave (km/s) = 3.47603 3.67902 3.57896
# Velocity P-wave (km/s) = 6.69878 7.31054 7.01134
#
# Compressibility (1/GPa) = 0.01957458
#
# Stress axis : x y z
#
# Youngs Moduli (GPa) = 78.96293 78.56015 32.39003
#
# Poissons Ratio (x) = 0.22814 0.30071
# Poissons Ratio (y) = 0.22931 0.19947
# Poissons Ratio (z) = 0.73308 0.48380
#
# Static dielectric constant tensor:
#      x y z
#    x 3.222120 0.000000 0.000000 
#    y 0.000000 3.421060 0.000000 
#    z 0.000000 0.000000 3.303990 
# 
# 
# High freq. dielectric constant tensor:
#      x y z
#    x 1.674030 0.000000 0.000000 
#    y 0.000000 1.694470 0.000000 
#    z 0.000000 0.000000 1.684920 
# 
# From -- ./inp_files/11159.got.cif
#   From: 2010.06.25/outbox.cif.g09.slc.cpg/sg71_6_cif.got.tgz:11159.got - 2010.06.28 04:59:45.
