data_PCOD8290679
_publ_section_title
;
Structure prediction by ZEFSAII (Michael W. Deem and Ramdas Pophale) SiO2 
 PCOD8290679
Probable space group: I M M M
;
_chemical_formula_sum "Si O2"
_cell_formula_units_Z 80
_cell_length_a 14.454948
_cell_length_b 30.678492
_cell_length_c 9.371530
_cell_angle_alpha 90.000000
_cell_angle_beta 90.000000
_cell_angle_gamma 90.000000
_cell_volume 4155.861269
_symmetry_space_group_name_H-M "I M M M"
_symmetry_group_IT_number 71
_symmetry_cell_setting 'orthorhombic'
loop_
_space_group_symop_operation_xyz
x,y,z
-x,-y,z
x,-y,-z
-x,y,-z
-x,-y,-z
x,y,-z
-x,y,z
x,-y,z
1/2+x,1/2+y,1/2+z
1/2-x,1/2-y,1/2+z
1/2+x,1/2-y,1/2-z
1/2-x,1/2+y,1/2-z
1/2-x,1/2-y,1/2-z
1/2+x,1/2+y,1/2-z
1/2-x,1/2+y,1/2+z
1/2+x,1/2-y,1/2+z
loop_
_atom_site_type_symbol
_atom_site_label
_atom_site_fract_x
_atom_site_fract_y
_atom_site_fract_z
Si Si1 0.395658 0.130300 0.330615
Si Si2 0.755600 0.704919 0.167646
Si Si3 0.280078 0.951972 0.335258
Si Si4 0.102653 0.165457 0.156566
Si Si5 0.601853 0.562797 0.659363
O O1 0.399056 0.127262 0.500000
O O2 0.500000 0.132109 0.268075
O O3 0.342139 0.174494 0.284099
O O4 0.344551 0.086644 0.270150
O O5 0.750000 0.750000 0.250000
O O6 0.662808 0.680108 0.209788
O O7 0.758238 0.713726 0.000000
O O8 0.262386 0.941360 0.500000
O O9 0.180290 0.954873 0.262753
O O10 0.327458 0.000000 0.316512
O O11 0.100796 0.114232 0.159138
O O12 0.000000 0.184749 0.178182
O O13 0.140114 0.181306 0.000000
O O14 0.622770 0.545588 0.500000
O O15 0.500000 0.546056 0.708696
#
# Coordination Sequence:
#
# PCOD8290679 Si02
#       5
#    16  16  16  16  16
#     4   9  19  37  58  80 109 146 186 229 280 331
#     4  11  22  36  57  84 113 146 185 228 276 334
#     4  10  20  34  55  84 113 142 184 237 284 328
#     4   9  18  34  56  80 107 141 180 223 273 328
#     4   9  18  33  54  79 109 147 185 221 270 333
#
# _framework density 19.249919999999999
#
# number of rings (size 3 to 8) (size 9 to 14) (size 15 to 20)
#    0.000    2.400    2.000    1.800    0.000    2.800 
#    0.000    8.000    0.000    4.800    0.000    1.400 
#    0.000    0.000    0.000    0.000    0.000    0.000 
#
# Total GULP energy -495641.825498 kJ/mol
# GULP energy per Si atom -12391.045637 kJ/mol
# Density = 1.920611 g / cm^3
# Si number density = 19.249920 Si / 1000 Ang^3
#
#
#
# Elastic Constant Matrix: (Units=GPa)
#
#
# Indices 1 2 3 4 5 6 
#
# 1 134.1512 69.9726 42.4980 -0.0004 0.0019 0.0009
# 2 69.9726 127.4164 41.1858 -0.0020 -0.0010 -0.0011
# 3 42.4980 41.1858 56.8575 -0.0078 0.0114 0.0029
# 4 -0.0004 -0.0020 -0.0078 17.0947 -0.0026 -0.0038
# 5 0.0019 -0.0010 0.0114 -0.0026 26.7296 -0.0014
# 6 0.0009 -0.0011 0.0029 -0.0038 -0.0014 4.4063
#
#
#
# Elastic Compliance Matrix: (Units=1/GPa)
#
#
# Indices 1 2 3 4 5 6 
#
# 1 0.011541 -0.004635 -0.005269 -0.000003 0.000001 0.000000
# 2 -0.004635 0.012109 -0.005307 -0.000001 0.000003 0.000007
# 3 -0.005269 -0.005307 0.025370 0.000011 -0.000011 -0.000017
# 4 -0.000003 -0.000001 0.000011 0.058498 0.000006 0.000050
# 5 0.000001 0.000003 -0.000011 0.000006 0.037412 0.000012
# 6 0.000000 0.000007 -0.000017 0.000050 0.000012 0.226949
#
#
# Mechanical properties :
#
#
# Convention : Reuss Voigt Hill
#
# Bulk Modulus (GPa) = 53.76737 69.52643 61.64690
# Shear Modulus (GPa) = 12.23989 20.63069 16.43529
#
# Velocity S-wave (km/s) = 2.52432 3.27728 2.92513
# Velocity P-wave (km/s) = 6.04054 7.10753 6.59564
#
# Compressibility (1/GPa) = 0.01859864
#
# Stress axis : x y z
#
# Youngs Moduli (GPa) = 86.64850 82.58333 39.41591
#
# Poissons Ratio (x) = 0.38275 0.20768
# Poissons Ratio (y) = 0.40159 0.20919
# Poissons Ratio (z) = 0.45655 0.43828
#
# Static dielectric constant tensor:
#      x y z
#    x 2.142020 -0.000240 -0.000340 
#    y -0.000240 -4.082200 0.004460 
#    z -0.000340 0.004460 2.909580 
# 
# 
# High freq. dielectric constant tensor:
#      x y z
#    x 1.743130 0.000000 0.000000 
#    y 0.000000 1.762230 0.000000 
#    z 0.000000 0.000000 1.720930 
# 
# From -- ./inp_files/20111.got.cif
#   From: 2010.06.25/outbox.cif.g09.slc.cpg/sg71_11_cif.got.tgz:20111.got - 2010.06.28 04:59:45.
