data_PCOD8290927
_publ_section_title
;
Structure prediction by ZEFSAII (Michael W. Deem and Ramdas Pophale) SiO2 
 PCOD8290927
Probable space group: I M M M
;
_chemical_formula_sum "Si O2"
_cell_formula_units_Z 96
_cell_length_a 14.845316
_cell_length_b 29.198940
_cell_length_c 11.889387
_cell_angle_alpha 90.000000
_cell_angle_beta 90.000000
_cell_angle_gamma 90.000000
_cell_volume 5153.662754
_symmetry_space_group_name_H-M "I M M M"
_symmetry_group_IT_number 71
_symmetry_cell_setting 'orthorhombic'
loop_
_space_group_symop_operation_xyz
x,y,z
-x,-y,z
x,-y,-z
-x,y,-z
-x,-y,-z
x,y,-z
-x,y,z
x,-y,z
1/2+x,1/2+y,1/2+z
1/2-x,1/2-y,1/2+z
1/2+x,1/2-y,1/2-z
1/2-x,1/2+y,1/2-z
1/2-x,1/2-y,1/2-z
1/2+x,1/2+y,1/2-z
1/2-x,1/2+y,1/2+z
1/2+x,1/2-y,1/2+z
loop_
_atom_site_type_symbol
_atom_site_label
_atom_site_fract_x
_atom_site_fract_y
_atom_site_fract_z
Si Si1 0.100459 0.553127 0.762183
Si Si2 0.602260 0.386485 0.217173
Si Si3 0.601436 0.808665 0.134312
Si Si4 0.268806 0.888973 0.132087
Si Si5 0.605971 0.708805 0.122445
Si Si6 0.136261 0.947233 0.500000
Si Si7 0.848217 0.551525 0.000000
O O1 0.119918 0.500000 0.776575
O O2 0.166083 0.569638 0.664445
O O3 0.000000 0.564037 0.721670
O O4 0.117801 0.576374 0.885469
O O5 0.500000 0.386208 0.264913
O O6 0.672453 0.400895 0.312985
O O7 0.637961 0.335179 0.191630
O O8 0.602561 0.420267 0.110123
O O9 0.500000 0.822514 0.176540
O O10 0.678439 0.843562 0.176743
O O11 0.628226 0.757885 0.180792
O O12 0.599331 0.806728 0.000000
O O13 0.253177 0.886737 0.000000
O O14 0.500000 0.704874 0.106148
O O15 0.652893 0.706310 0.000000
O O16 0.242038 0.947831 0.500000
O O17 0.099541 0.000000 0.500000
O O18 0.887179 0.500000 0.000000
#
# Coordination Sequence:
#
# PCOD8290927 Si02
#       7
#    16  16  16  16  16   8   8
#     4  10  20  35  57  83 110 140 173 215 268 326
#     4  11  22  36  56  80 105 138 182 230 279 325
#     4   8  15  30  52  77 106 138 173 218 269 318
#     4  11  23  36  51  75 109 148 191 226 257 309
#     4   8  14  28  52  80 105 129 167 221 276 330
#     4  11  21  37  61  86 111 135 170 227 288 338
#     4   9  17  33  57  84 111 137 166 211 277 337
#
# _framework density 18.627528000000002
#
# number of rings (size 3 to 8) (size 9 to 14) (size 15 to 20)
#    0.000    2.333    2.500    2.000    0.000    4.000 
#    0.000    0.833    0.000    0.000    0.000    2.333 
#    0.000    0.000    0.000    0.000    0.000    0.000 
#
# Total GULP energy -594680.242988 kJ/mol
# GULP energy per Si atom -12389.171729 kJ/mol
# Density = 1.858513 g / cm^3
# Si number density = 18.627528 Si / 1000 Ang^3
#
#
#
# Elastic Constant Matrix: (Units=GPa)
#
#
# Indices 1 2 3 4 5 6 
#
# 1 103.8234 51.7021 41.5084 -0.0001 -0.0010 0.0000
# 2 51.7021 66.7677 31.5948 -0.0001 0.0013 0.0000
# 3 41.5084 31.5948 65.3161 -0.0036 -0.0141 0.0000
# 4 -0.0001 -0.0001 -0.0036 16.9577 -0.0076 0.0000
# 5 -0.0010 0.0013 -0.0141 -0.0076 126.3997 0.0006
# 6 0.0000 0.0000 0.0000 0.0000 0.0006 23.0471
#
#
#
# Elastic Compliance Matrix: (Units=1/GPa)
#
#
# Indices 1 2 3 4 5 6 
#
# 1 0.017235 -0.010587 -0.005832 -0.000001 0.000000 0.000000
# 2 -0.010587 0.025926 -0.005813 -0.000001 -0.000001 0.000000
# 3 -0.005832 -0.005813 0.021828 0.000005 0.000002 0.000000
# 4 -0.000001 -0.000001 0.000005 0.058970 0.000004 0.000000
# 5 0.000000 -0.000001 0.000002 0.000004 0.007911 0.000000
# 6 0.000000 0.000000 0.000000 0.000000 0.000000 0.043389
#
#
# Mechanical properties :
#
#
# Convention : Reuss Voigt Hill
#
# Bulk Modulus (GPa) = 48.71867 53.94642 51.33254
# Shear Modulus (GPa) = 22.06861 40.68769 31.37815
#
# Velocity S-wave (km/s) = 3.44573 4.67870 4.10872
# Velocity P-wave (km/s) = 6.48395 7.62957 7.07997
#
# Compressibility (1/GPa) = 0.02052601
#
# Stress axis : x y z
#
# Youngs Moduli (GPa) = 58.02046 38.57151 45.81189
#
# Poissons Ratio (x) = 0.40834 0.26718
# Poissons Ratio (y) = 0.61423 0.26631
# Poissons Ratio (z) = 0.33838 0.22422
#
# Static dielectric constant tensor:
#      x y z
#    x 3.345740 0.000000 0.000000 
#    y 0.000000 3.712590 0.000000 
#    z 0.000000 0.000000 3.178270 
# 
# 
# High freq. dielectric constant tensor:
#      x y z
#    x 1.719730 0.000000 0.000000 
#    y 0.000000 1.720800 0.000000 
#    z 0.000000 0.000000 1.689190 
# 
# From -- ./inp_files/22619.got.cif
#   From: 2010.06.25/outbox.cif.g09.slc.cpg/sg71_12_cif.got.tgz:22619.got - 2010.06.28 04:59:45.
