data_PCOD8290186
_publ_section_title
;
Structure prediction by ZEFSAII (Michael W. Deem and Ramdas Pophale) SiO2 
 PCOD8290186
Probable space group: I M M M
;
_chemical_formula_sum "Si O2"
_cell_formula_units_Z 120
_cell_length_a 19.588739
_cell_length_b 18.284928
_cell_length_c 17.731820
_cell_angle_alpha 90.000000
_cell_angle_beta 90.000000
_cell_angle_gamma 90.000000
_cell_volume 6351.159921
_symmetry_space_group_name_H-M "I M M M"
_symmetry_group_IT_number 71
_symmetry_cell_setting 'orthorhombic'
loop_
_space_group_symop_operation_xyz
x,y,z
-x,-y,z
x,-y,-z
-x,y,-z
-x,-y,-z
x,y,-z
-x,y,z
x,-y,z
1/2+x,1/2+y,1/2+z
1/2-x,1/2-y,1/2+z
1/2+x,1/2-y,1/2-z
1/2-x,1/2+y,1/2-z
1/2-x,1/2-y,1/2-z
1/2+x,1/2+y,1/2-z
1/2-x,1/2+y,1/2+z
1/2+x,1/2-y,1/2+z
loop_
_atom_site_type_symbol
_atom_site_label
_atom_site_fract_x
_atom_site_fract_y
_atom_site_fract_z
Si Si1 0.292851 0.082917 0.270185
Si Si2 0.923380 0.221049 0.708589
Si Si3 0.081018 0.586740 0.500000
Si Si4 0.374591 0.081373 0.584710
Si Si5 0.074506 0.728278 0.873180
Si Si6 0.162520 0.331882 0.630382
Si Si7 0.143010 0.916093 0.769577
Si Si8 0.182529 0.841158 0.083406
O O1 0.314013 0.096250 0.356326
O O2 0.337265 0.128474 0.211133
O O3 0.214032 0.104759 0.269057
O O4 0.302011 0.000000 0.243861
O O5 0.911953 0.268307 0.784090
O O6 0.872831 0.252788 0.644354
O O7 0.911366 0.135741 0.728428
O O8 0.000000 0.228753 0.677688
O O9 0.094173 0.500000 0.500000
O O10 0.116719 0.621084 0.426626
O O11 0.000000 0.604051 0.500000
O O12 0.344950 0.087016 0.500000
O O13 0.430285 0.144014 0.599645
O O14 0.406544 0.000000 0.597735
O O15 0.135811 0.768659 0.916250
O O16 0.000000 0.763373 0.891789
O O17 0.239364 0.319710 0.601324
O O18 0.150767 0.899864 0.858897
O O19 0.120661 0.000000 0.758499
O O20 0.180050 0.876026 0.000000
#
# Coordination Sequence:
#
# PCOD8290186 Si02
#       8
#    16  16   8  16  16  16  16  16
#     4   9  18  33  54  81 110 146 184 228 285 341
#     4  10  21  36  58  82 110 149 193 239 293 349
#     4  11  24  40  60  90 126 158 190 235 290 348
#     4  10  20  33  51  76 108 146 187 230 277 333
#     4  10  21  37  55  78 112 150 191 238 285 344
#     4  11  20  37  60  83 118 153 193 239 282 349
#     4   9  20  36  57  82 112 148 189 244 296 345
#     4  10  21  35  56  88 115 153 194 236 294 354
#
# _framework density 18.894186000000001
#
# number of rings (size 3 to 8) (size 9 to 14) (size 15 to 20)
#    0.000    2.067    2.000    1.200    1.867    4.000 
#    0.000    0.667    0.000    0.000    0.000    3.733 
#    0.000    1.600    0.000    0.000    0.000    0.000 
#
# Total GULP energy -743672.237607 kJ/mol
# GULP energy per Si atom -12394.537293 kJ/mol
# Density = 1.885118 g / cm^3
# Si number density = 18.894186 Si / 1000 Ang^3
#
#
#
# Elastic Constant Matrix: (Units=GPa)
#
#
# Indices 1 2 3 4 5 6 
#
# 1 96.4083 39.2724 36.8713 0.0000 0.0000 0.0000
# 2 39.2724 100.4164 38.0736 0.0000 0.0000 0.0000
# 3 36.8713 38.0736 83.3343 0.0000 0.0000 0.0000
# 4 0.0000 0.0000 0.0000 23.2642 0.0000 0.0000
# 5 0.0000 0.0000 0.0000 0.0000 16.4429 0.0000
# 6 0.0000 0.0000 0.0000 0.0000 0.0000 21.3080
#
#
#
# Elastic Compliance Matrix: (Units=1/GPa)
#
#
# Indices 1 2 3 4 5 6 
#
# 1 0.013507 -0.003649 -0.004309 0.000000 0.000000 0.000000
# 2 -0.003649 0.013031 -0.004339 0.000000 0.000000 0.000000
# 3 -0.004309 -0.004339 0.015889 0.000000 0.000000 0.000000
# 4 0.000000 0.000000 0.000000 0.042985 0.000000 0.000000
# 5 0.000000 0.000000 0.000000 0.000000 0.060817 0.000000
# 6 0.000000 0.000000 0.000000 0.000000 0.000000 0.046931
#
#
# Mechanical properties :
#
#
# Convention : Reuss Voigt Hill
#
# Bulk Modulus (GPa) = 56.07676 56.51041 56.29359
# Shear Modulus (GPa) = 22.35172 23.26578 22.80875
#
# Velocity S-wave (km/s) = 3.44320 3.51290 3.47822
# Velocity P-wave (km/s) = 6.74917 6.81379 6.78156
#
# Compressibility (1/GPa) = 0.01783270
#
# Stress axis : x y z
#
# Youngs Moduli (GPa) = 74.03635 76.74190 62.93710
#
# Poissons Ratio (x) = 0.28000 0.27121
# Poissons Ratio (y) = 0.27013 0.27309
# Poissons Ratio (z) = 0.31903 0.33299
#
# Static dielectric constant tensor:
#      x y z
#    x 3.460950 0.000000 0.000000 
#    y 0.000000 3.418520 0.000000 
#    z 0.000000 0.000000 3.481930 
# 
# 
# High freq. dielectric constant tensor:
#      x y z
#    x 1.728130 0.000000 0.000000 
#    y 0.000000 1.729440 0.000000 
#    z 0.000000 0.000000 1.729630 
# 
# From -- ./inp_files/47559.got.cif
#   From: 2010.06.25/outbox.cif.g09.slc.cpg/sg71_24_cif.got.tgz:47559.got - 2010.06.28 04:59:45.
