data_PCOD8290896
_publ_section_title
;
Structure prediction by ZEFSAII (Michael W. Deem and Ramdas Pophale) SiO2 
 PCOD8290896
Probable space group: I M M M
;
_chemical_formula_sum "Si O2"
_cell_formula_units_Z 88
_cell_length_a 18.873691
_cell_length_b 12.938280
_cell_length_c 18.873686
_cell_angle_alpha 90.000000
_cell_angle_beta 90.000000
_cell_angle_gamma 90.000000
_cell_volume 4608.823870
_symmetry_space_group_name_H-M "I M M M"
_symmetry_group_IT_number 71
_symmetry_cell_setting 'orthorhombic'
loop_
_space_group_symop_operation_xyz
x,y,z
-x,-y,z
x,-y,-z
-x,y,-z
-x,-y,-z
x,y,-z
-x,y,z
x,-y,z
1/2+x,1/2+y,1/2+z
1/2-x,1/2-y,1/2+z
1/2+x,1/2-y,1/2-z
1/2-x,1/2+y,1/2-z
1/2-x,1/2-y,1/2-z
1/2+x,1/2+y,1/2-z
1/2-x,1/2+y,1/2+z
1/2+x,1/2-y,1/2+z
loop_
_atom_site_type_symbol
_atom_site_label
_atom_site_fract_x
_atom_site_fract_y
_atom_site_fract_z
Si Si1 0.918021 0.382080 0.581980
Si Si2 0.081726 0.000000 0.418274
Si Si3 0.581589 0.380131 0.713277
Si Si4 0.579628 0.250000 0.579629
Si Si5 0.153248 0.805775 0.346752
Si Si6 0.213277 0.380131 0.081589
O O1 0.901744 0.360181 0.500000
O O2 0.898618 0.500000 0.601378
O O3 0.870660 0.307473 0.629340
O O4 0.000000 0.360187 0.598260
O O5 0.112737 0.895975 0.387263
O O6 0.099771 0.000000 0.500000
O O7 0.000000 0.000000 0.400229
O O8 0.500000 0.360290 0.736160
O O9 0.600826 0.500000 0.718658
O O10 0.594597 0.344188 0.632861
O O11 0.635266 0.316837 0.763691
O O12 0.590048 0.293692 0.500000
O O13 0.500000 0.206307 0.590048
O O14 0.632861 0.155812 0.594597
O O15 0.236309 0.816837 0.364734
O O16 0.218659 0.500000 0.100825
O O17 0.236160 0.360290 0.000000
#
# Coordination Sequence:
#
# PCOD8290896 Si02
#       6
#    16   8  16  16  16  16
#     4   9  18  32  49  70 104 156 208 241 264 303
#     4  11  20  28  46  78 114 154 192 222 258 315
#     4  10  20  35  56  83 115 148 183 232 292 343
#     4   9  20  39  60  80 102 139 194 247 296 354
#     4  12  20  32  52  82 120 153 183 228 276 342
#     4  10  20  35  56  83 115 148 183 232 292 343
#
# _framework density 19.093809
#
# number of rings (size 3 to 8) (size 9 to 14) (size 15 to 20)
#    0.000    1.909    1.818    3.818    0.000    2.909 
#    0.000    5.455    0.000    2.182    0.000    0.000 
#    0.000    0.000    0.000    0.000    0.000    0.000 
#
# Total GULP energy -545613.409550 kJ/mol
# GULP energy per Si atom -12400.304762 kJ/mol
# Density = 1.905035 g / cm^3
# Si number density = 19.093809 Si / 1000 Ang^3
#
#
#
# Elastic Constant Matrix: (Units=GPa)
#
#
# Indices 1 2 3 4 5 6 
#
# 1 109.3895 49.2247 53.9107 0.0000 0.0000 0.0000
# 2 49.2247 109.1397 49.2224 0.0000 0.0000 0.0000
# 3 53.9107 49.2224 109.3866 0.0000 0.0000 0.0000
# 4 0.0000 0.0000 0.0000 32.2717 0.0000 0.0000
# 5 0.0000 0.0000 0.0000 0.0000 24.7900 0.0000
# 6 0.0000 0.0000 0.0000 0.0000 0.0000 32.2717
#
#
#
# Elastic Compliance Matrix: (Units=1/GPa)
#
#
# Indices 1 2 3 4 5 6 
#
# 1 0.013218 -0.003793 -0.004807 0.000000 0.000000 0.000000
# 2 -0.003793 0.012584 -0.003793 0.000000 0.000000 0.000000
# 3 -0.004807 -0.003793 0.013218 0.000000 0.000000 0.000000
# 4 0.000000 0.000000 0.000000 0.030987 0.000000 0.000000
# 5 0.000000 0.000000 0.000000 0.000000 0.040339 0.000000
# 6 0.000000 0.000000 0.000000 0.000000 0.000000 0.030987
#
#
# Mechanical properties :
#
#
# Convention : Reuss Voigt Hill
#
# Bulk Modulus (GPa) = 70.26307 70.29238 70.27772
# Shear Modulus (GPa) = 29.26290 29.57056 29.41673
#
# Velocity S-wave (km/s) = 3.91907 3.93962 3.92936
# Velocity P-wave (km/s) = 7.57348 7.58869 7.58109
#
# Compressibility (1/GPa) = 0.01423223
#
# Stress axis : x y z
#
# Youngs Moduli (GPa) = 75.65485 79.46450 75.65410
#
# Poissons Ratio (x) = 0.30144 0.36370
# Poissons Ratio (y) = 0.28699 0.28697
# Poissons Ratio (z) = 0.36370 0.30142
#
# Static dielectric constant tensor:
#      x y z
#    x 3.569890 0.000000 0.000000 
#    y 0.000000 3.416080 0.000000 
#    z 0.000000 0.000000 3.569890 
# 
# 
# High freq. dielectric constant tensor:
#      x y z
#    x 1.738100 0.000000 0.000000 
#    y 0.000000 1.733470 0.000000 
#    z 0.000000 0.000000 1.738100 
# 
# From -- ./inp_files/47118.got.cif
#   From: 2010.06.25/outbox.cif.g09.slc.cpg/sg71_24_cif.got.tgz:47118.got - 2010.06.28 04:59:45.
