data_PCOD8290035
_publ_section_title
;
Structure prediction by ZEFSAII (Michael W. Deem and Ramdas Pophale) SiO2 
 PCOD8290035
Probable space group: I M M M
;
_chemical_formula_sum "Si O2"
_cell_formula_units_Z 88
_cell_length_a 27.786111
_cell_length_b 17.802542
_cell_length_c 9.509627
_cell_angle_alpha 90.000000
_cell_angle_beta 90.000000
_cell_angle_gamma 90.000000
_cell_volume 4704.064502
_symmetry_space_group_name_H-M "I M M M"
_symmetry_group_IT_number 71
_symmetry_cell_setting 'orthorhombic'
loop_
_space_group_symop_operation_xyz
x,y,z
-x,-y,z
x,-y,-z
-x,y,-z
-x,-y,-z
x,y,-z
-x,y,z
x,-y,z
1/2+x,1/2+y,1/2+z
1/2-x,1/2-y,1/2+z
1/2+x,1/2-y,1/2-z
1/2-x,1/2+y,1/2-z
1/2-x,1/2-y,1/2-z
1/2+x,1/2+y,1/2-z
1/2-x,1/2+y,1/2+z
1/2+x,1/2-y,1/2+z
loop_
_atom_site_type_symbol
_atom_site_label
_atom_site_fract_x
_atom_site_fract_y
_atom_site_fract_z
Si Si1 0.913126 0.088603 0.657619
Si Si2 0.946703 0.415225 0.667301
Si Si3 0.000000 0.910253 0.157823
Si Si4 0.353156 0.835168 0.162951
Si Si5 0.681322 0.324466 0.834610
Si Si6 0.756888 0.414690 0.337144
O O1 0.926853 0.114630 0.500000
O O2 0.953114 0.121275 0.762788
O O3 0.861535 0.118985 0.701608
O O4 0.910672 0.000000 0.668031
O O5 0.942616 0.416542 0.500000
O O6 0.939640 0.500000 0.724195
O O7 0.904093 0.362440 0.730521
O O8 0.000000 0.385404 0.712403
O O9 0.000000 0.000000 0.160159
O O10 0.000000 0.878782 0.000000
O O11 0.333938 0.756773 0.227347
O O12 0.313481 0.899663 0.186573
O O13 0.362357 0.819295 0.000000
O O14 0.727866 0.354571 0.754120
O O15 0.693537 0.321566 0.000000
O O16 0.743126 0.403031 0.500000
O O17 0.745916 0.500000 0.289153
#
# Coordination Sequence:
#
# PCOD8290035 Si02
#       6
#    16  16   8  16  16  16
#     4   9  17  30  46  64  90 124 160 198 242 290
#     4   8  13  23  42  68  98 131 164 199 241 292
#     4   9  17  29  47  69  89 115 156 203 242 280
#     4   9  17  30  46  69 101 132 163 201 250 300
#     4  10  20  33  49  72 101 132 164 204 251 296
#     4  10  20  33  51  73  98 132 170 207 248 296
#
# _framework density 18.707225999999999
#
# number of rings (size 3 to 8) (size 9 to 14) (size 15 to 20)
#    0.000    2.818    0.000    2.455    0.000    5.091 
#    1.636    1.818    0.000    0.000    0.000    0.000 
#    0.000    0.000    0.000    6.182    0.000    6.909 
#
# Total GULP energy -545398.525841 kJ/mol
# GULP energy per Si atom -12395.421042 kJ/mol
# Density = 1.866465 g / cm^3
# Si number density = 18.707226 Si / 1000 Ang^3
#
#
#
# Elastic Constant Matrix: (Units=GPa)
#
#
# Indices 1 2 3 4 5 6 
#
# 1 129.6931 59.6665 36.4646 0.0000 0.0000 0.0000
# 2 59.6665 68.2175 24.5644 0.0000 0.0000 0.0000
# 3 36.4646 24.5644 45.2981 0.0000 0.0000 0.0000
# 4 0.0000 0.0000 0.0000 14.2326 0.0000 0.0000
# 5 0.0000 0.0000 0.0000 0.0000 18.8114 0.0000
# 6 0.0000 0.0000 0.0000 0.0000 0.0000 12.2170
#
#
#
# Elastic Compliance Matrix: (Units=1/GPa)
#
#
# Indices 1 2 3 4 5 6 
#
# 1 0.014015 -0.010185 -0.005759 0.000000 0.000000 0.000000
# 2 -0.010185 0.025617 -0.005693 0.000000 0.000000 0.000000
# 3 -0.005759 -0.005693 0.029799 0.000000 0.000000 0.000000
# 4 0.000000 0.000000 0.000000 0.070261 0.000000 0.000000
# 5 0.000000 0.000000 0.000000 0.000000 0.053159 0.000000
# 6 0.000000 0.000000 0.000000 0.000000 0.000000 0.081853
#
#
# Mechanical properties :
#
#
# Convention : Reuss Voigt Hill
#
# Bulk Modulus (GPa) = 38.22966 53.84442 46.03704
# Shear Modulus (GPa) = 15.30462 17.21975 16.26219
#
# Velocity S-wave (km/s) = 2.86337 3.03724 2.95159
# Velocity P-wave (km/s) = 5.60464 6.41443 6.02316
#
# Compressibility (1/GPa) = 0.02615770
#
# Stress axis : x y z
#
# Youngs Moduli (GPa) = 71.35046 39.03647 33.55770
#
# Poissons Ratio (x) = 0.39757 0.19327
# Poissons Ratio (y) = 0.72668 0.19105
# Poissons Ratio (z) = 0.41092 0.22224
#
# Static dielectric constant tensor:
#      x y z
#    x 3.634200 0.000000 0.000000 
#    y 0.000000 3.424400 0.000000 
#    z 0.000000 0.000000 3.052900 
# 
# 
# High freq. dielectric constant tensor:
#      x y z
#    x 1.740210 0.000000 0.000000 
#    y 0.000000 1.718770 0.000000 
#    z 0.000000 0.000000 1.672650 
# 
# From -- ./inp_files/16685.got.cif
#   From: 2010.06.25/outbox.cif.g09.slc.cpg/sg71_9_cif.got.tgz:16685.got - 2010.06.28 04:59:45.
