data_PCOD8290073
_publ_section_title
;
Structure prediction by ZEFSAII (Michael W. Deem and Ramdas Pophale) SiO2 
 PCOD8290073
Probable space group: I M M M
;
_chemical_formula_sum "Si O2"
_cell_formula_units_Z 96
_cell_length_a 10.869200
_cell_length_b 26.817629
_cell_length_c 17.155695
_cell_angle_alpha 90.000000
_cell_angle_beta 90.000000
_cell_angle_gamma 90.000000
_cell_volume 5000.647883
_symmetry_space_group_name_H-M "I M M M"
_symmetry_group_IT_number 71
_symmetry_cell_setting 'orthorhombic'
loop_
_space_group_symop_operation_xyz
x,y,z
-x,-y,z
x,-y,-z
-x,y,-z
-x,-y,-z
x,y,-z
-x,y,z
x,-y,z
1/2+x,1/2+y,1/2+z
1/2-x,1/2-y,1/2+z
1/2+x,1/2-y,1/2-z
1/2-x,1/2+y,1/2-z
1/2-x,1/2-y,1/2-z
1/2+x,1/2+y,1/2-z
1/2-x,1/2+y,1/2+z
1/2+x,1/2-y,1/2+z
loop_
_atom_site_type_symbol
_atom_site_label
_atom_site_fract_x
_atom_site_fract_y
_atom_site_fract_z
Si Si1 0.860426 0.188918 0.675200
Si Si2 0.365211 0.944451 0.308901
Si Si3 0.724850 0.132023 0.808223
Si Si4 0.355285 0.555211 0.413741
Si Si5 0.861842 0.088900 0.590518
Si Si6 0.141741 0.283078 0.586373
O O1 0.790307 0.171634 0.752190
O O2 0.852158 0.147416 0.607887
O O3 0.798490 0.238974 0.639092
O O4 0.000000 0.199338 0.701007
O O5 0.500000 0.938017 0.350850
O O6 0.365161 0.903541 0.240511
O O7 0.248168 0.939332 0.365758
O O8 0.356891 0.000000 0.273093
O O9 0.821652 0.096316 0.850312
O O10 0.652375 0.163263 0.872884
O O11 0.303117 0.568893 0.500000
O O12 0.500000 0.553680 0.417754
O O13 0.306240 0.500000 0.389557
O O14 0.842385 0.079035 0.500000
O O15 0.000000 0.070086 0.615922
O O16 0.203366 0.284864 0.500000
O O17 0.000000 0.269387 0.576317
#
# Coordination Sequence:
#
# PCOD8290073 Si02
#       6
#    16  16  16  16  16  16
#     4   9  18  32  51  76 104 131 161 205 261 310
#     4  10  22  37  51  72 106 144 176 212 264 318
#     4  11  19  32  52  75  98 131 174 215 250 303
#     4   9  18  32  50  74 104 136 171 216 270 319
#     4   9  18  34  57  82 106 135 175 220 260 304
#     4  10  20  33  50  72  98 129 166 208 254 306
#
# _framework density 19.197513000000001
#
# number of rings (size 3 to 8) (size 9 to 14) (size 15 to 20)
#    0.000    2.333    0.000    3.500    0.000    3.667 
#    0.000    1.667    0.000    1.000    0.000    7.000 
#    0.000    0.000    0.000    0.000    0.000    0.000 
#
# Total GULP energy -594792.724043 kJ/mol
# GULP energy per Si atom -12391.515084 kJ/mol
# Density = 1.915382 g / cm^3
# Si number density = 19.197513 Si / 1000 Ang^3
#
#
#
# Elastic Constant Matrix: (Units=GPa)
#
#
# Indices 1 2 3 4 5 6 
#
# 1 86.9090 37.2139 40.0356 0.0000 0.0000 0.0000
# 2 37.2139 117.7316 58.8136 0.0000 0.0000 0.0000
# 3 40.0356 58.8136 113.5559 0.0002 0.0000 0.0000
# 4 0.0000 0.0000 0.0002 18.3255 0.0000 -0.0001
# 5 0.0000 0.0000 0.0000 0.0000 23.0318 0.0000
# 6 0.0000 0.0000 0.0000 -0.0001 0.0000 24.9370
#
#
#
# Elastic Compliance Matrix: (Units=1/GPa)
#
#
# Indices 1 2 3 4 5 6 
#
# 1 0.014351 -0.002710 -0.003656 0.000000 0.000000 0.000000
# 2 -0.002710 0.011970 -0.005244 0.000000 0.000000 0.000000
# 3 -0.003656 -0.005244 0.012811 0.000000 0.000000 0.000000
# 4 0.000000 0.000000 0.000000 0.054569 0.000000 0.000000
# 5 0.000000 0.000000 0.000000 0.000000 0.043418 0.000000
# 6 0.000000 0.000000 0.000000 0.000000 0.000000 0.040101
#
#
# Mechanical properties :
#
#
# Convention : Reuss Voigt Hill
#
# Bulk Modulus (GPa) = 62.84529 65.59141 64.21835
# Shear Modulus (GPa) = 24.30193 25.40110 24.85151
#
# Velocity S-wave (km/s) = 3.56179 3.64145 3.60184
# Velocity P-wave (km/s) = 7.05141 7.20562 7.12893
#
# Compressibility (1/GPa) = 0.01591209
#
# Stress axis : x y z
#
# Youngs Moduli (GPa) = 69.68249 83.54024 78.05518
#
# Poissons Ratio (x) = 0.22637 0.28538
# Poissons Ratio (y) = 0.18882 0.40935
# Poissons Ratio (z) = 0.25477 0.43812
#
# Static dielectric constant tensor:
#      x y z
#    x 3.345060 0.000000 0.000000 
#    y 0.000000 3.636810 0.000000 
#    z 0.000000 0.000000 3.576100 
# 
# 
# High freq. dielectric constant tensor:
#      x y z
#    x 1.723540 0.000000 0.000000 
#    y 0.000000 1.757940 0.000000 
#    z 0.000000 0.000000 1.743780 
# 
# From -- ./inp_files/27423.got.cif
#   From: 2010.06.25/outbox.cif.g09.slc.cpg/sg71_14_cif.got.tgz:27423.got - 2010.06.28 04:59:45.
