data_PCOD8290900
_publ_section_title
;
Structure prediction by ZEFSAII (Michael W. Deem and Ramdas Pophale) SiO2 
 PCOD8290900
Probable space group: I M M M
;
_chemical_formula_sum "Si O2"
_cell_formula_units_Z 88
_cell_length_a 16.610546
_cell_length_b 30.325219
_cell_length_c 8.529595
_cell_angle_alpha 90.000000
_cell_angle_beta 90.000000
_cell_angle_gamma 90.000000
_cell_volume 4296.514331
_symmetry_space_group_name_H-M "I M M M"
_symmetry_group_IT_number 71
_symmetry_cell_setting 'orthorhombic'
loop_
_space_group_symop_operation_xyz
x,y,z
-x,-y,z
x,-y,-z
-x,y,-z
-x,-y,-z
x,y,-z
-x,y,z
x,-y,z
1/2+x,1/2+y,1/2+z
1/2-x,1/2-y,1/2+z
1/2+x,1/2-y,1/2-z
1/2-x,1/2+y,1/2-z
1/2-x,1/2-y,1/2-z
1/2+x,1/2+y,1/2-z
1/2-x,1/2+y,1/2+z
1/2+x,1/2-y,1/2+z
loop_
_atom_site_type_symbol
_atom_site_label
_atom_site_fract_x
_atom_site_fract_y
_atom_site_fract_z
Si Si1 0.500000 0.349902 0.172881
Si Si2 0.910009 0.000000 0.686103
Si Si3 0.192722 0.370228 0.681900
Si Si4 0.155413 0.092061 0.320786
Si Si5 0.328835 0.224909 0.684058
Si Si6 0.090559 0.548306 0.313687
Si Si7 0.500000 0.740375 0.319850
O O1 0.574606 0.381216 0.194297
O O2 0.500000 0.312079 0.302304
O O3 0.500000 0.327730 0.000000
O O4 0.860234 0.042650 0.741460
O O5 0.918937 0.000000 0.500000
O O6 0.000000 0.000000 0.759507
O O7 0.173800 0.361174 0.500000
O O8 0.284648 0.383812 0.703137
O O9 0.174568 0.326682 0.779782
O O10 0.141658 0.411025 0.753872
O O11 0.187656 0.092110 0.500000
O O12 0.326823 0.233342 0.500000
O O13 0.250000 0.250000 0.750000
O O14 0.415358 0.241634 0.754700
O O15 0.093305 0.549938 0.500000
O O16 0.123299 0.500000 0.257432
O O17 0.000000 0.554314 0.252395
O O18 0.500000 0.754195 0.500000
#
# Coordination Sequence:
#
# PCOD8290900 Si02
#       7
#     8   8  16  16  16  16   8
#     4  10  20  35  58  84 110 147 195 236 278 342
#     4   9  16  32  57  83 114 155 206 252 288 342
#     4  11  23  36  58  89 119 153 195 243 292 348
#     4  10  20  35  56  83 116 156 198 242 289 340
#     4  11  24  44  65  89 122 158 198 248 304 364
#     4   8  16  33  55  79 111 150 190 232 277 331
#     4  10  24  42  63  87 116 153 190 241 307 360
#
# _framework density 20.481718999999998
#
# number of rings (size 3 to 8) (size 9 to 14) (size 15 to 20)
#    0.000    2.091    0.909    2.727    2.545    5.091 
#    0.000    0.000    0.000    0.545    0.000    5.091 
#    0.000    0.000    0.000    0.000    0.000    0.000 
#
# Total GULP energy -545395.635092 kJ/mol
# GULP energy per Si atom -12395.355343 kJ/mol
# Density = 2.043510 g / cm^3
# Si number density = 20.481719 Si / 1000 Ang^3
#
#
#
# Elastic Constant Matrix: (Units=GPa)
#
#
# Indices 1 2 3 4 5 6 
#
# 1 137.0847 67.2575 22.7545 -0.0009 -0.0001 0.0006
# 2 67.2575 160.2051 18.2762 0.0020 0.0017 0.0060
# 3 22.7545 18.2762 29.0298 0.0216 0.0234 0.0314
# 4 -0.0009 0.0020 0.0216 22.1289 0.0034 0.0098
# 5 -0.0001 0.0017 0.0234 0.0034 85.0773 0.0291
# 6 0.0006 0.0060 0.0314 0.0098 0.0291 -29.3825
#
#
#
# Elastic Compliance Matrix: (Units=1/GPa)
#
#
# Indices 1 2 3 4 5 6 
#
# 1 0.009959 -0.003545 -0.005575 0.000006 0.000002 -0.000006
# 2 -0.003545 0.007987 -0.002249 0.000001 0.000000 -0.000001
# 3 -0.005575 -0.002249 0.040233 -0.000039 -0.000011 0.000042
# 4 0.000006 0.000001 -0.000039 0.045190 -0.000002 0.000015
# 5 0.000002 0.000000 -0.000011 -0.000002 0.011754 0.000012
# 6 -0.000006 -0.000001 0.000042 0.000015 0.000012 -0.034034
#
#
# Mechanical properties :
#
#
# Convention : Reuss Voigt Hill
#
# Bulk Modulus (GPa) = 28.21597 60.32178 44.26887
# Shear Modulus (GPa) = 43.23698 30.10016 36.66857
#
# Velocity S-wave (km/s) = 4.59955 3.83771 4.23579
# Velocity P-wave (km/s) = 6.48181 7.01091 6.75154
#
# Compressibility (1/GPa) = 0.03544093
#
# Stress axis : x y z
#
# Youngs Moduli (GPa) = 100.40687 125.20370 24.85518
#
# Poissons Ratio (x) = 0.44388 0.13856
# Poissons Ratio (y) = 0.35597 0.05591
# Poissons Ratio (z) = 0.55973 0.28164
#
# Static dielectric constant tensor:
#      x y z
#    x 3.952770 0.000000 -0.000010 
#    y 0.000000 3.987180 -0.000030 
#    z -0.000010 -0.000030 3.376470 
# 
# 
# High freq. dielectric constant tensor:
#      x y z
#    x 1.811410 0.000000 0.000000 
#    y 0.000000 1.817670 0.000000 
#    z 0.000000 0.000000 1.762420 
# 
# From -- ./inp_files/8949.got.cif
#   From: 2010.06.25/outbox.cif.g09.slc.cpg/sg71_5_cif.got.tgz:8949.got - 2010.06.28 04:59:45.
