data_PCOD8290569
_publ_section_title
;
Structure prediction by ZEFSAII (Michael W. Deem and Ramdas Pophale) SiO2 
 PCOD8290569
Probable space group: I M M M
;
_chemical_formula_sum "Si O2"
_cell_formula_units_Z 80
_cell_length_a 25.907663
_cell_length_b 8.909083
_cell_length_c 18.923401
_cell_angle_alpha 90.000000
_cell_angle_beta 90.000000
_cell_angle_gamma 90.000000
_cell_volume 4367.776795
_symmetry_space_group_name_H-M "I M M M"
_symmetry_group_IT_number 71
_symmetry_cell_setting 'orthorhombic'
loop_
_space_group_symop_operation_xyz
x,y,z
-x,-y,z
x,-y,-z
-x,y,-z
-x,-y,-z
x,y,-z
-x,y,z
x,-y,z
1/2+x,1/2+y,1/2+z
1/2-x,1/2-y,1/2+z
1/2+x,1/2-y,1/2-z
1/2-x,1/2+y,1/2-z
1/2-x,1/2-y,1/2-z
1/2+x,1/2+y,1/2-z
1/2-x,1/2+y,1/2+z
1/2+x,1/2-y,1/2+z
loop_
_atom_site_type_symbol
_atom_site_label
_atom_site_fract_x
_atom_site_fract_y
_atom_site_fract_z
Si Si1 0.306165 0.325508 0.831654
Si Si2 0.111457 0.674347 0.916213
Si Si3 0.000000 0.830595 0.416029
Si Si4 0.000000 0.672561 0.917280
Si Si5 0.603631 0.176288 0.918437
Si Si6 0.200361 0.825877 0.831457
O O1 0.311169 0.500000 0.849982
O O2 0.348356 0.234801 0.874572
O O3 0.249884 0.269407 0.855308
O O4 0.314629 0.291662 0.749207
O O5 0.119172 0.500000 0.894789
O O6 0.054941 0.736556 0.889176
O O7 0.153087 0.779051 0.879978
O O8 0.116492 0.691818 0.000000
O O9 0.051239 0.748832 0.387540
O O10 0.000000 0.823795 0.500000
O O11 0.000000 0.000000 0.387407
O O12 0.000000 0.500000 0.897420
O O13 0.000000 0.695685 0.000000
O O14 0.598620 0.000000 0.908909
O O15 0.612004 0.221404 0.000000
O O16 0.213250 0.000000 0.842607
#
# Coordination Sequence:
#
# PCOD8290569 Si02
#       6
#    16  16   8   8  16  16
#     4  10  21  37  55  73  97 134 175 211 253 307
#     4   9  17  31  53  78 102 132 170 208 246 294
#     4   9  17  31  52  77 106 139 171 205 250 303
#     4   7  12  26  48  73 100 129 163 201 238 281
#     4  10  20  34  54  80 107 134 168 212 258 303
#     4  10  21  36  53  74 101 133 168 210 259 305
#
# _framework density 18.315953
#
# number of rings (size 3 to 8) (size 9 to 14) (size 15 to 20)
#    0.000    2.600    0.000    3.300    0.000    6.000 
#    0.000    1.500    0.000    6.600    0.000    0.000 
#    0.000    0.000    0.000    0.000    0.000    0.000 
#
# Total GULP energy -495843.087158 kJ/mol
# GULP energy per Si atom -12396.077179 kJ/mol
# Density = 1.827427 g / cm^3
# Si number density = 18.315953 Si / 1000 Ang^3
#
#
#
# Elastic Constant Matrix: (Units=GPa)
#
#
# Indices 1 2 3 4 5 6 
#
# 1 137.3841 35.8082 46.6812 0.0000 0.0000 0.0000
# 2 35.8082 64.5367 27.1203 0.0000 0.0000 0.0000
# 3 46.6812 27.1203 42.3092 0.0000 0.0000 0.0000
# 4 0.0000 0.0000 0.0000 25.9707 0.0000 0.0000
# 5 0.0000 0.0000 0.0000 0.0000 2769.6477 0.0000
# 6 0.0000 0.0000 0.0000 0.0000 0.0000 36.9720
#
#
#
# Elastic Compliance Matrix: (Units=1/GPa)
#
#
# Indices 1 2 3 4 5 6 
#
# 1 0.011745 -0.001466 -0.012019 0.000000 0.000000 0.000000
# 2 -0.001466 0.021391 -0.012094 0.000000 0.000000 0.000000
# 3 -0.012019 -0.012094 0.044648 0.000000 0.000000 0.000000
# 4 0.000000 0.000000 0.000000 0.038505 0.000000 0.000000
# 5 0.000000 0.000000 0.000000 0.000000 0.000361 0.000000
# 6 0.000000 0.000000 0.000000 0.000000 0.000000 0.027047
#
#
# Mechanical properties :
#
#
# Convention : Reuss Voigt Hill
#
# Bulk Modulus (GPa) = 37.55654 51.49439 44.52546
# Shear Modulus (GPa) = 24.54225 575.49277 300.01751
#
# Velocity S-wave (km/s) = 3.66449 17.74500 12.81237
# Velocity P-wave (km/s) = 6.20113 21.16654 15.59609
#
# Compressibility (1/GPa) = 0.02662652
#
# Stress axis : x y z
#
# Youngs Moduli (GPa) = 85.14445 46.74922 22.39719
#
# Poissons Ratio (x) = 0.06853 0.26919
# Poissons Ratio (y) = 0.12482 0.27087
# Poissons Ratio (z) = 1.02333 0.56539
#
# Static dielectric constant tensor:
#      x y z
#    x 3.697640 0.000000 0.000000 
#    y 0.000000 3.347690 0.000000 
#    z 0.000000 0.000000 3.101460 
# 
# 
# High freq. dielectric constant tensor:
#      x y z
#    x 1.731420 0.000000 0.000000 
#    y 0.000000 1.708900 0.000000 
#    z 0.000000 0.000000 1.678620 
# 
# From -- ./inp_files/10242.got.cif
#   From: 2010.06.25/outbox.cif.g09.slc.cpg/sg71_6_cif.got.tgz:10242.got - 2010.06.28 04:59:45.
