data_PCOD8290359
_publ_section_title
;
Structure prediction by ZEFSAII (Michael W. Deem and Ramdas Pophale) SiO2 
 PCOD8290359
Probable space group: I M M M
;
_chemical_formula_sum "Si O2"
_cell_formula_units_Z 80
_cell_length_a 8.869953
_cell_length_b 22.476680
_cell_length_c 22.167292
_cell_angle_alpha 90.000000
_cell_angle_beta 90.000000
_cell_angle_gamma 90.000000
_cell_volume 4419.428614
_symmetry_space_group_name_H-M "I M M M"
_symmetry_group_IT_number 71
_symmetry_cell_setting 'orthorhombic'
loop_
_space_group_symop_operation_xyz
x,y,z
-x,-y,z
x,-y,-z
-x,y,-z
-x,-y,-z
x,y,-z
-x,y,z
x,-y,z
1/2+x,1/2+y,1/2+z
1/2-x,1/2-y,1/2+z
1/2+x,1/2-y,1/2-z
1/2-x,1/2+y,1/2-z
1/2-x,1/2-y,1/2-z
1/2+x,1/2+y,1/2-z
1/2-x,1/2+y,1/2+z
1/2+x,1/2-y,1/2+z
loop_
_atom_site_type_symbol
_atom_site_label
_atom_site_fract_x
_atom_site_fract_y
_atom_site_fract_z
Si Si1 0.677637 0.068759 0.877086
Si Si2 0.329792 0.570589 0.500000
Si Si3 0.676161 0.666530 0.701010
Si Si4 0.823097 0.214461 0.669097
Si Si5 0.336031 0.500000 0.071306
Si Si6 0.819571 0.126910 0.567225
O O1 0.500000 0.076525 0.880973
O O2 0.746255 0.093484 0.939853
O O3 0.741231 0.107106 0.821604
O O4 0.722957 0.000000 0.865963
O O5 0.326253 0.500000 0.500000
O O6 0.500000 0.595267 0.500000
O O7 0.500000 0.658653 0.689615
O O8 0.734599 0.723841 0.664897
O O9 0.714980 0.676532 0.771212
O O10 0.761877 0.176840 0.612719
O O11 0.000000 0.228452 0.665416
O O12 0.500000 0.500000 0.103240
O O13 0.252265 0.562104 0.088239
O O14 0.359523 0.500000 0.000000
O O15 0.763392 0.143560 0.500000
O O16 0.000000 0.122254 0.568503
#
# Coordination Sequence:
#
# PCOD8290359 Si02
#       6
#    16   8  16  16   8  16
#     4  10  20  35  55  78 104 135 172 212 255 307
#     4   9  17  31  53  79 107 135 161 200 255 308
#     4  10  20  34  51  71  99 138 174 211 260 307
#     4   9  18  33  51  72  98 134 175 213 257 311
#     4   7  10  18  36  64  97 125 145 180 243 302
#     4   8  13  24  44  71 100 126 157 203 255 302
#
# _framework density 18.101887000000001
#
# number of rings (size 3 to 8) (size 9 to 14) (size 15 to 20)
#    0.000    3.000    0.000    2.700    0.000    3.200 
#    3.600    0.000    0.000    0.000    0.000    0.000 
#    0.000    2.400    0.000    0.000    0.000    0.000 
#
# Total GULP energy -495754.874455 kJ/mol
# GULP energy per Si atom -12393.871861 kJ/mol
# Density = 1.806069 g / cm^3
# Si number density = 18.101887 Si / 1000 Ang^3
#
#
#
# Elastic Constant Matrix: (Units=GPa)
#
#
# Indices 1 2 3 4 5 6 
#
# 1 61.5432 38.3975 29.3049 0.0000 0.0000 0.0000
# 2 38.3975 113.4505 69.4517 0.0000 0.0000 0.0000
# 3 29.3049 69.4517 93.1838 0.0000 0.0000 0.0000
# 4 0.0000 0.0000 0.0000 31.9813 0.0000 0.0000
# 5 0.0000 0.0000 0.0000 0.0000 23.2097 0.0000
# 6 0.0000 0.0000 0.0000 0.0000 0.0000 24.7701
#
#
#
# Elastic Compliance Matrix: (Units=1/GPa)
#
#
# Indices 1 2 3 4 5 6 
#
# 1 0.020884 -0.005605 -0.002390 0.000000 0.000000 0.000000
# 2 -0.005605 0.017715 -0.011441 0.000000 0.000000 0.000000
# 3 -0.002390 -0.011441 0.020010 0.000000 0.000000 0.000000
# 4 0.000000 0.000000 0.000000 0.031268 0.000000 0.000000
# 5 0.000000 0.000000 0.000000 0.000000 0.043085 0.000000
# 6 0.000000 0.000000 0.000000 0.000000 0.000000 0.040371
#
#
# Mechanical properties :
#
#
# Convention : Reuss Voigt Hill
#
# Bulk Modulus (GPa) = 50.66528 60.27619 55.47074
# Shear Modulus (GPa) = 22.85345 24.72711 23.79028
#
# Velocity S-wave (km/s) = 3.55701 3.69995 3.62918
# Velocity P-wave (km/s) = 6.70220 7.18494 6.94776
#
# Compressibility (1/GPa) = 0.01973738
#
# Stress axis : x y z
#
# Youngs Moduli (GPa) = 47.88382 56.44862 49.97447
#
# Poissons Ratio (x) = 0.31639 0.11945
# Poissons Ratio (y) = 0.26839 0.57175
# Poissons Ratio (z) = 0.11445 0.64582
#
# Static dielectric constant tensor:
#      x y z
#    x 3.078100 0.000000 0.000000 
#    y 0.000000 3.491200 0.000000 
#    z 0.000000 0.000000 3.354290 
# 
# 
# High freq. dielectric constant tensor:
#      x y z
#    x 1.673310 0.000000 0.000000 
#    y 0.000000 1.700760 0.000000 
#    z 0.000000 0.000000 1.691460 
# 
# From -- ./inp_files/50413.got.cif
#   From: 2010.06.25/outbox.cif.g09.slc.cpg/sg71_26_cif.got.tgz:50413.got - 2010.06.28 04:59:45.
