data_PCOD8290207
_publ_section_title
;
Structure prediction by ZEFSAII (Michael W. Deem and Ramdas Pophale) SiO2 
 PCOD8290207
Probable space group: I M M M
;
_chemical_formula_sum "Si O2"
_cell_formula_units_Z 72
_cell_length_a 18.326789
_cell_length_b 24.706770
_cell_length_c 7.987448
_cell_angle_alpha 90.000000
_cell_angle_beta 90.000000
_cell_angle_gamma 90.000000
_cell_volume 3616.682593
_symmetry_space_group_name_H-M "I M M M"
_symmetry_group_IT_number 71
_symmetry_cell_setting 'orthorhombic'
loop_
_space_group_symop_operation_xyz
x,y,z
-x,-y,z
x,-y,-z
-x,y,-z
-x,-y,-z
x,y,-z
-x,y,z
x,-y,z
1/2+x,1/2+y,1/2+z
1/2-x,1/2-y,1/2+z
1/2+x,1/2-y,1/2-z
1/2-x,1/2+y,1/2-z
1/2-x,1/2-y,1/2-z
1/2+x,1/2+y,1/2-z
1/2-x,1/2+y,1/2+z
1/2+x,1/2-y,1/2+z
loop_
_atom_site_type_symbol
_atom_site_label
_atom_site_fract_x
_atom_site_fract_y
_atom_site_fract_z
Si Si1 0.086295 0.060766 0.000000
Si Si2 0.584283 0.170182 0.811335
Si Si3 0.913558 0.558159 0.190930
Si Si4 0.415334 0.634146 0.189210
Si Si5 0.170795 0.765953 0.812064
O O1 0.111662 0.091257 0.170490
O O2 0.000000 0.056888 0.000000
O O3 0.119755 0.000000 0.000000
O O4 0.500000 0.169240 0.760105
O O5 0.617524 0.109414 0.793335
O O6 0.623499 0.211430 0.688441
O O7 0.596485 0.190173 0.000000
O O8 0.883116 0.500000 0.258865
O O9 0.000000 0.556756 0.206947
O O10 0.889263 0.565681 0.000000
O O11 0.500000 0.649739 0.221674
O O12 0.366646 0.688114 0.199409
O O13 0.405976 0.610362 0.000000
O O14 0.250000 0.750000 0.750000
O O15 0.174839 0.788362 0.000000
#
# Coordination Sequence:
#
# PCOD8290207 Si02
#       5
#     8  16  16  16  16
#     4   9  18  34  58  90 122 154 194 238 292 353
#     4  10  20  33  51  78 109 141 181 226 275 333
#     4   8  14  26  45  70 100 134 173 217 264 312
#     4  10  20  36  59  88 122 156 193 239 290 348
#     4  12  24  38  56  79 110 148 191 237 289 345
#
# _framework density 19.907745999999999
#
# number of rings (size 3 to 8) (size 9 to 14) (size 15 to 20)
#    0.000    2.111    1.111    4.000    0.000    4.889 
#    0.000    4.444    0.000    1.333    0.000    0.000 
#    0.000    0.000    0.000    0.000    0.000    0.000 
#
# Total GULP energy -446198.478767 kJ/mol
# GULP energy per Si atom -12394.402188 kJ/mol
# Density = 1.986244 g / cm^3
# Si number density = 19.907746 Si / 1000 Ang^3
#
#
#
# Elastic Constant Matrix: (Units=GPa)
#
#
# Indices 1 2 3 4 5 6 
#
# 1 51.3396 38.3952 28.0285 0.0000 0.0000 0.0000
# 2 38.3952 143.5474 47.8850 0.0000 0.0000 0.0000
# 3 28.0285 47.8850 112.6483 0.0000 0.0000 0.0000
# 4 0.0000 0.0000 0.0000 29.1433 0.0000 0.0000
# 5 0.0000 0.0000 0.0000 0.0000 19.8624 0.0000
# 6 0.0000 0.0000 0.0000 0.0000 0.0000 2.5626
#
#
#
# Elastic Compliance Matrix: (Units=1/GPa)
#
#
# Indices 1 2 3 4 5 6 
#
# 1 0.025857 -0.005558 -0.004071 0.000000 0.000000 0.000000
# 2 -0.005558 0.009312 -0.002575 0.000000 0.000000 0.000000
# 3 -0.004071 -0.002575 0.010985 0.000000 0.000000 0.000000
# 4 0.000000 0.000000 0.000000 0.034313 0.000000 0.000000
# 5 0.000000 0.000000 0.000000 0.000000 0.050346 0.000000
# 6 0.000000 0.000000 0.000000 0.000000 0.000000 0.390228
#
#
# Mechanical properties :
#
#
# Convention : Reuss Voigt Hill
#
# Bulk Modulus (GPa) = 45.98726 59.57253 52.77989
# Shear Modulus (GPa) = 9.04650 23.19543 16.12096
#
# Velocity S-wave (km/s) = 2.13403 3.41713 2.84876
# Velocity P-wave (km/s) = 5.40578 6.74969 6.11476
#
# Compressibility (1/GPa) = 0.02174515
#
# Stress axis : x y z
#
# Youngs Moduli (GPa) = 38.67357 107.38662 91.03393
#
# Poissons Ratio (x) = 0.59687 0.37060
# Poissons Ratio (y) = 0.21495 0.23446
# Poissons Ratio (z) = 0.15744 0.27657
#
# Static dielectric constant tensor:
#      x y z
#    x 3.114250 0.000000 0.000000 
#    y 0.000000 1.928420 0.000000 
#    z 0.000000 0.000000 3.682550 
# 
# 
# High freq. dielectric constant tensor:
#      x y z
#    x 1.722460 0.000000 0.000000 
#    y 0.000000 1.784330 0.000000 
#    z 0.000000 0.000000 1.783290 
# 
# From -- ./inp_files/7953.got.cif
#   From: 2010.06.25/outbox.cif.g09.slc.cpg/sg71_4_cif.got.tgz:7953.got - 2010.06.28 04:59:45.
