data_PCOD8290906
_publ_section_title
;
Structure prediction by ZEFSAII (Michael W. Deem and Ramdas Pophale) SiO2 
 PCOD8290906
Probable space group: I M M M
;
_chemical_formula_sum "Si O2"
_cell_formula_units_Z 88
_cell_length_a 23.764544
_cell_length_b 21.474593
_cell_length_c 8.726062
_cell_angle_alpha 90.000000
_cell_angle_beta 90.000000
_cell_angle_gamma 90.000000
_cell_volume 4453.205341
_symmetry_space_group_name_H-M "I M M M"
_symmetry_group_IT_number 71
_symmetry_cell_setting 'orthorhombic'
loop_
_space_group_symop_operation_xyz
x,y,z
-x,-y,z
x,-y,-z
-x,y,-z
-x,-y,-z
x,y,-z
-x,y,z
x,-y,z
1/2+x,1/2+y,1/2+z
1/2-x,1/2-y,1/2+z
1/2+x,1/2-y,1/2-z
1/2-x,1/2+y,1/2-z
1/2-x,1/2-y,1/2-z
1/2+x,1/2+y,1/2-z
1/2-x,1/2+y,1/2+z
1/2+x,1/2-y,1/2+z
loop_
_atom_site_type_symbol
_atom_site_label
_atom_site_fract_x
_atom_site_fract_y
_atom_site_fract_z
Si Si1 0.565965 0.500000 0.180882
Si Si2 0.690165 0.271349 0.179244
Si Si3 0.436320 0.928623 0.172590
Si Si4 0.855515 0.102216 0.824247
Si Si5 0.651339 0.155125 0.675312
Si Si6 0.233101 0.568242 0.671410
O O1 0.500000 0.500000 0.226831
O O2 0.594223 0.436470 0.244885
O O3 0.573878 0.500000 0.000000
O O4 0.750000 0.250000 0.250000
O O5 0.660222 0.332205 0.247071
O O6 0.647067 0.215587 0.217265
O O7 0.698578 0.280787 0.000000
O O8 0.500000 0.904885 0.179648
O O9 0.401383 0.888481 0.291736
O O10 0.432552 0.000000 0.223812
O O11 0.412538 0.920702 0.000000
O O12 0.799747 0.060622 0.811304
O O13 0.872992 0.114189 0.000000
O O14 0.651502 0.176310 0.500000
O O15 0.709001 0.117382 0.707895
O O16 0.217877 0.591725 0.500000
O O17 0.206202 0.500000 0.700308
#
# Coordination Sequence:
#
# PCOD8290906 Si02
#       6
#     8  16  16  16  16  16
#     4  11  25  45  69  97 131 171 214 263 318 377
#     4  12  24  40  61  88 124 165 205 249 307 376
#     4   9  19  38  62  85 114 156 202 248 299 352
#     4  11  22  40  65  93 123 158 204 258 314 371
#     4  12  24  36  55  87 124 162 202 247 300 360
#     4  10  20  35  56  84 120 159 198 246 304 363
#
# _framework density 19.761046
#
# number of rings (size 3 to 8) (size 9 to 14) (size 15 to 20)
#    0.000    1.182    2.727    5.182    0.000    4.727 
#    0.000    1.818    0.000    5.455    0.000    0.000 
#    0.000    0.000    0.000    0.000    0.000    0.000 
#
# Total GULP energy -545499.937406 kJ/mol
# GULP energy per Si atom -12397.725850 kJ/mol
# Density = 1.971607 g / cm^3
# Si number density = 19.761046 Si / 1000 Ang^3
#
#
#
# Elastic Constant Matrix: (Units=GPa)
#
#
# Indices 1 2 3 4 5 6 
#
# 1 108.0900 48.7301 45.2786 0.0000 0.0000 0.0000
# 2 48.7301 130.1972 56.6337 0.0000 0.0000 0.0000
# 3 45.2786 56.6337 127.6852 0.0000 0.0000 0.0000
# 4 0.0000 0.0000 0.0000 34.6500 0.0000 0.0000
# 5 0.0000 0.0000 0.0000 0.0000 30.5164 0.0000
# 6 0.0000 0.0000 0.0000 0.0000 0.0000 1.6934
#
#
#
# Elastic Compliance Matrix: (Units=1/GPa)
#
#
# Indices 1 2 3 4 5 6 
#
# 1 0.011873 -0.003237 -0.002775 0.000000 0.000000 0.000000
# 2 -0.003237 0.010399 -0.003465 0.000000 0.000000 0.000000
# 3 -0.002775 -0.003465 0.010352 0.000000 0.000000 0.000000
# 4 0.000000 0.000000 0.000000 0.028860 0.000000 0.000000
# 5 0.000000 0.000000 0.000000 0.000000 0.032769 0.000000
# 6 0.000000 0.000000 0.000000 0.000000 0.000000 0.590512
#
#
# Mechanical properties :
#
#
# Convention : Reuss Voigt Hill
#
# Bulk Modulus (GPa) = 73.14037 74.13969 73.64003
# Shear Modulus (GPa) = 7.05940 27.72732 17.39336
#
# Velocity S-wave (km/s) = 1.89212 3.74990 2.97001
# Velocity P-wave (km/s) = 6.47041 7.50657 7.00767
#
# Compressibility (1/GPa) = 0.01367234
#
# Stress axis : x y z
#
# Youngs Moduli (GPa) = 84.22364 96.16083 96.59612
#
# Poissons Ratio (x) = 0.31127 0.26802
# Poissons Ratio (y) = 0.27263 0.33467
# Poissons Ratio (z) = 0.23369 0.33316
#
# Static dielectric constant tensor:
#      x y z
#    x 3.523740 0.000000 0.000000 
#    y 0.000000 3.769070 0.000000 
#    z 0.000000 0.000000 3.554740 
# 
# 
# High freq. dielectric constant tensor:
#      x y z
#    x 1.755880 0.000000 0.000000 
#    y 0.000000 1.779880 0.000000 
#    z 0.000000 0.000000 1.770500 
# 
# From -- ./inp_files/12536.got.cif
#   From: 2010.06.25/outbox.cif.g09.slc.cpg/sg71_7_cif.got.tgz:12536.got - 2010.06.28 04:59:45.
